DWS.pdb
     RDKit          3D

 29 30  0  0  1  0  0  0  0  0999 V2000
   27.8137  -20.8199  -17.7477 N   0  0  0  0  0  0  0  0  0  0  0  0
   27.3130  -19.7525  -16.9178 C   0  0  1  0  0  0  0  0  0  0  0  0
   26.4170  -18.8689  -17.7558 C   0  0  0  0  0  0  0  0  0  0  0  0
   27.1793  -18.1704  -18.8058 C   0  0  0  0  0  0  0  0  0  0  0  0
   26.9714  -18.3314  -20.0511 O   0  0  0  0  0  0  0  0  0  0  0  0
   26.6038  -20.3222  -15.7576 C   0  0  0  0  0  0  0  0  0  0  0  0
   25.5411  -20.9507  -15.9197 O   0  0  0  0  0  0  0  0  0  0  0  0
   28.1822  -17.2844  -18.4719 O   0  0  0  0  0  0  0  0  0  0  0  0
   27.1275  -20.1570  -14.4571 N   0  0  0  0  0  0  0  0  0  0  0  0
   26.4384  -20.5128  -13.2538 C   0  0  1  0  0  0  0  0  0  0  0  0
   27.2074  -20.2367  -11.9811 C   0  0  0  0  0  0  0  0  0  0  0  0
   26.4785  -20.6922  -10.7799 C   0  0  0  0  0  0  0  0  0  0  0  0
   25.6105  -21.7857  -10.7436 C   0  0  0  0  0  0  0  0  0  0  0  0
   25.1495  -21.9187   -9.4872 N   0  0  0  0  0  0  0  0  0  0  0  0
   25.6670  -20.9720   -8.6963 C   0  0  0  0  0  0  0  0  0  0  0  0
   25.5216  -20.6676   -7.3664 C   0  0  0  0  0  0  0  0  0  0  0  0
   26.2025  -19.5939   -6.8269 C   0  0  0  0  0  0  0  0  0  0  0  0
   27.0329  -18.8114   -7.5970 C   0  0  0  0  0  0  0  0  0  0  0  0
   27.1733  -19.1248   -8.9334 C   0  0  0  0  0  0  0  0  0  0  0  0
   26.4958  -20.1983   -9.4803 C   0  0  0  0  0  0  0  0  0  0  0  0
   25.0822  -19.9164  -13.1760 C   0  0  0  0  0  0  0  0  0  0  0  0
   24.9150  -18.6684  -13.2513 O   0  0  0  0  0  0  0  0  0  0  0  0
   21.8674  -21.9635  -14.3607 O   0  0  0  0  0  0  0  0  0  0  0  0
   21.8322  -20.5690  -14.2441 C   0  0  0  0  0  0  0  0  0  0  0  0
   22.6047  -20.2387  -12.9609 C   0  0  2  0  0  0  0  0  0  0  0  0
   23.9479  -20.7465  -13.0153 N   0  0  0  0  0  0  0  0  0  0  0  0
   21.8457  -20.7013  -11.7899 C   0  0  0  0  0  0  0  0  0  0  0  0
   20.6107  -20.1388  -11.5024 O   0  0  0  0  0  0  0  0  0  0  0  0
   22.3307  -21.5970  -11.0724 O   0  0  0  0  0  0  0  0  0  0  0  0
  2  1  1  6
  2  6  1  0
  3  2  1  0
  3  4  1  0
  4  8  1  0
  4  5  2  0
  6  7  2  0
  9 10  1  0
  9  6  1  0
 10 11  1  1
 12 11  1  0
 13 12  2  0
 14 13  1  0
 15 14  1  0
 15 20  2  0
 16 17  2  0
 16 15  1  0
 17 18  1  0
 18 19  2  0
 20 19  1  0
 20 12  1  0
 21 10  1  0
 21 22  2  0
 23 24  1  0
 25 24  1  6
 25 26  1  0
 25 27  1  0
 26 21  1  0
 27 29  2  0
 27 28  1  0
M  END
$$$$
