DWS.pdb
     RDKit          3D

 29 30  0  0  1  0  0  0  0  0999 V2000
   20.3368  -11.1724  -16.2139 N   0  0  0  0  0  0  0  0  0  0  0  0
   19.2178  -10.2888  -16.4272 C   0  0  1  0  0  0  0  0  0  0  0  0
   18.2675  -10.4222  -15.2589 C   0  0  0  0  0  0  0  0  0  0  0  0
   17.6576  -11.7629  -15.2111 C   0  0  0  0  0  0  0  0  0  0  0  0
   17.7684  -12.6196  -16.1458 O   0  0  0  0  0  0  0  0  0  0  0  0
   19.7056   -8.9072  -16.5918 C   0  0  0  0  0  0  0  0  0  0  0  0
   20.7232   -8.5257  -15.9839 O   0  0  0  0  0  0  0  0  0  0  0  0
   16.9176  -12.1576  -14.1162 O   0  0  0  0  0  0  0  0  0  0  0  0
   19.0201   -8.0110  -17.4401 N   0  0  0  0  0  0  0  0  0  0  0  0
   19.4171   -6.6566  -17.6800 C   0  0  1  0  0  0  0  0  0  0  0  0
   18.6629   -5.9661  -18.7942 C   0  0  0  0  0  0  0  0  0  0  0  0
   19.1340   -4.5832  -19.0120 C   0  0  0  0  0  0  0  0  0  0  0  0
   20.4584   -4.1628  -18.8711 C   0  0  0  0  0  0  0  0  0  0  0  0
   20.5210   -2.8532  -19.1704 N   0  0  0  0  0  0  0  0  0  0  0  0
   19.3100   -2.3901  -19.4998 C   0  0  0  0  0  0  0  0  0  0  0  0
   18.8386   -1.1568  -19.8726 C   0  0  0  0  0  0  0  0  0  0  0  0
   17.4964   -0.9872  -20.1502 C   0  0  0  0  0  0  0  0  0  0  0  0
   16.6080   -2.0349  -20.0616 C   0  0  0  0  0  0  0  0  0  0  0  0
   17.0907   -3.2719  -19.6860 C   0  0  0  0  0  0  0  0  0  0  0  0
   18.4328   -3.4495  -19.4074 C   0  0  0  0  0  0  0  0  0  0  0  0
   19.3905   -5.8284  -16.4494 C   0  0  0  0  0  0  0  0  0  0  0  0
   18.3127   -5.6219  -15.8273 O   0  0  0  0  0  0  0  0  0  0  0  0
   22.8038   -5.0348  -14.1573 O   0  0  0  0  0  0  0  0  0  0  0  0
   21.4888   -5.0730  -13.6791 C   0  0  0  0  0  0  0  0  0  0  0  0
   20.6283   -4.4314  -14.7749 C   0  0  2  0  0  0  0  0  0  0  0  0
   20.5840   -5.2543  -15.9520 N   0  0  0  0  0  0  0  0  0  0  0  0
   21.0901   -3.0593  -15.0308 C   0  0  0  0  0  0  0  0  0  0  0  0
   21.0523   -2.1178  -14.0127 O   0  0  0  0  0  0  0  0  0  0  0  0
   21.5098   -2.7664  -16.1667 O   0  0  0  0  0  0  0  0  0  0  0  0
  2  1  1  1
  2  6  1  0
  3  2  1  0
  3  4  1  0
  4  8  1  0
  4  5  2  0
  6  7  2  0
  9 10  1  0
  9  6  1  0
 10 11  1  6
 12 11  1  0
 13 12  2  0
 14 13  1  0
 15 14  1  0
 15 20  2  0
 16 17  2  0
 16 15  1  0
 17 18  1  0
 18 19  2  0
 20 19  1  0
 20 12  1  0
 21 10  1  0
 21 22  2  0
 23 24  1  0
 25 24  1  1
 25 26  1  0
 25 27  1  0
 26 21  1  0
 27 29  2  0
 27 28  1  0
M  END
$$$$
