DWS.pdb
     RDKit          3D

 29 30  0  0  1  0  0  0  0  0999 V2000
   29.0323  -34.4413  -15.6071 N   0  0  0  0  0  0  0  0  0  0  0  0
   29.0751  -33.0098  -15.4418 C   0  0  1  0  0  0  0  0  0  0  0  0
   28.8202  -32.3608  -16.7834 C   0  0  0  0  0  0  0  0  0  0  0  0
   30.0242  -32.3893  -17.6327 C   0  0  0  0  0  0  0  0  0  0  0  0
   30.7654  -33.4151  -17.7679 O   0  0  0  0  0  0  0  0  0  0  0  0
   28.0839  -32.6011  -14.4297 C   0  0  0  0  0  0  0  0  0  0  0  0
   27.9563  -31.4000  -14.1271 O   0  0  0  0  0  0  0  0  0  0  0  0
   30.4101  -31.2694  -18.3392 O   0  0  0  0  0  0  0  0  0  0  0  0
   27.2751  -33.5712  -13.7992 N   0  0  0  0  0  0  0  0  0  0  0  0
   26.2603  -33.2777  -12.8330 C   0  0  1  0  0  0  0  0  0  0  0  0
   24.8836  -33.7937  -13.1873 C   0  0  0  0  0  0  0  0  0  0  0  0
   24.2540  -33.0056  -14.2663 C   0  0  0  0  0  0  0  0  0  0  0  0
   24.9537  -32.2932  -15.2427 C   0  0  0  0  0  0  0  0  0  0  0  0
   24.0613  -31.7198  -16.0695 N   0  0  0  0  0  0  0  0  0  0  0  0
   22.8135  -32.0163  -15.6892 C   0  0  0  0  0  0  0  0  0  0  0  0
   21.5735  -31.6870  -16.1753 C   0  0  0  0  0  0  0  0  0  0  0  0
   20.4387  -32.1549  -15.5423 C   0  0  0  0  0  0  0  0  0  0  0  0
   20.5193  -32.9520  -14.4230 C   0  0  0  0  0  0  0  0  0  0  0  0
   21.7704  -33.2783  -13.9409 C   0  0  0  0  0  0  0  0  0  0  0  0
   22.9106  -32.8146  -14.5695 C   0  0  0  0  0  0  0  0  0  0  0  0
   26.6354  -33.7085  -11.4638 C   0  0  0  0  0  0  0  0  0  0  0  0
   27.3172  -34.7527  -11.2742 O   0  0  0  0  0  0  0  0  0  0  0  0
   26.6371  -32.6248   -6.7548 O   0  0  0  0  0  0  0  0  0  0  0  0
   26.2104  -32.1812   -8.0119 C   0  0  0  0  0  0  0  0  0  0  0  0
   26.5418  -33.3164   -8.9888 C   0  0  2  0  0  0  0  0  0  0  0  0
   26.2303  -32.9473  -10.3422 N   0  0  0  0  0  0  0  0  0  0  0  0
   25.8875  -34.5576   -8.5499 C   0  0  0  0  0  0  0  0  0  0  0  0
   26.6351  -35.5508   -7.9343 O   0  0  0  0  0  0  0  0  0  0  0  0
   24.6641  -34.6945   -8.7413 O   0  0  0  0  0  0  0  0  0  0  0  0
  2  1  1  6
  2  6  1  0
  3  2  1  0
  3  4  1  0
  4  8  1  0
  4  5  2  0
  6  7  2  0
  9 10  1  0
  9  6  1  0
 10 11  1  6
 12 11  1  0
 13 12  2  0
 14 13  1  0
 15 14  1  0
 15 20  2  0
 16 17  2  0
 16 15  1  0
 17 18  1  0
 18 19  2  0
 20 19  1  0
 20 12  1  0
 21 10  1  0
 21 22  2  0
 23 24  1  0
 25 24  1  1
 25 26  1  0
 25 27  1  0
 26 21  1  0
 27 29  2  0
 27 28  1  0
M  END
$$$$
