DWS.pdb
     RDKit          3D

 29 30  0  0  1  0  0  0  0  0999 V2000
   20.8397   -7.0335  -13.4809 N   0  0  0  0  0  0  0  0  0  0  0  0
   20.7173   -7.5974  -14.8021 C   0  0  1  0  0  0  0  0  0  0  0  0
   20.8145   -6.4795  -15.8154 C   0  0  0  0  0  0  0  0  0  0  0  0
   19.6161   -5.6224  -15.7881 C   0  0  0  0  0  0  0  0  0  0  0  0
   18.5935   -5.8656  -15.0703 O   0  0  0  0  0  0  0  0  0  0  0  0
   21.7616   -8.6192  -15.0000 C   0  0  0  0  0  0  0  0  0  0  0  0
   22.9649   -8.3017  -14.9564 O   0  0  0  0  0  0  0  0  0  0  0  0
   19.5507   -4.4843  -16.5644 O   0  0  0  0  0  0  0  0  0  0  0  0
   21.4007   -9.9627  -15.2400 N   0  0  0  0  0  0  0  0  0  0  0  0
   22.3333  -11.0264  -15.4596 C   0  0  1  0  0  0  0  0  0  0  0  0
   22.2858  -12.1304  -14.4271 C   0  0  0  0  0  0  0  0  0  0  0  0
   23.3036  -13.1712  -14.6772 C   0  0  0  0  0  0  0  0  0  0  0  0
   24.6831  -12.9536  -14.6649 C   0  0  0  0  0  0  0  0  0  0  0  0
   25.2985  -14.1245  -14.9076 N   0  0  0  0  0  0  0  0  0  0  0  0
   24.3987  -15.0993  -15.0791 C   0  0  0  0  0  0  0  0  0  0  0  0
   24.4979  -16.4408  -15.3491 C   0  0  0  0  0  0  0  0  0  0  0  0
   23.3541  -17.2038  -15.4796 C   0  0  0  0  0  0  0  0  0  0  0  0
   22.1021  -16.6478  -15.3447 C   0  0  0  0  0  0  0  0  0  0  0  0
   22.0116  -15.2979  -15.0731 C   0  0  0  0  0  0  0  0  0  0  0  0
   23.1518  -14.5280  -14.9403 C   0  0  0  0  0  0  0  0  0  0  0  0
   22.2378  -11.5950  -16.8266 C   0  0  0  0  0  0  0  0  0  0  0  0
   21.1219  -11.7260  -17.4002 O   0  0  0  0  0  0  0  0  0  0  0  0
   25.4552  -11.6006  -19.3573 O   0  0  0  0  0  0  0  0  0  0  0  0
   24.8071  -12.8412  -19.3424 C   0  0  0  0  0  0  0  0  0  0  0  0
   23.3869  -12.5632  -18.8341 C   0  0  2  0  0  0  0  0  0  0  0  0
   23.4070  -12.0013  -17.5117 N   0  0  0  0  0  0  0  0  0  0  0  0
   22.5709  -13.7810  -18.9458 C   0  0  0  0  0  0  0  0  0  0  0  0
   22.3537  -14.3538  -20.1904 O   0  0  0  0  0  0  0  0  0  0  0  0
   22.0862  -14.2789  -17.9117 O   0  0  0  0  0  0  0  0  0  0  0  0
  2  1  1  1
  2  6  1  0
  3  2  1  0
  3  4  1  0
  4  8  1  0
  4  5  2  0
  6  7  2  0
  9 10  1  0
  9  6  1  0
 10 11  1  1
 12 11  1  0
 13 12  2  0
 14 13  1  0
 15 14  1  0
 15 20  2  0
 16 17  2  0
 16 15  1  0
 17 18  1  0
 18 19  2  0
 20 19  1  0
 20 12  1  0
 21 10  1  0
 21 22  2  0
 23 24  1  0
 25 24  1  1
 25 26  1  0
 25 27  1  0
 26 21  1  0
 27 29  2  0
 27 28  1  0
M  END
$$$$
