DWS.pdb
     RDKit          3D

 29 30  0  0  1  0  0  0  0  0999 V2000
   27.4155  -21.9437  -15.4205 N   0  0  0  0  0  0  0  0  0  0  0  0
   27.3887  -20.7659  -14.5895 C   0  0  1  0  0  0  0  0  0  0  0  0
   26.6991  -19.6549  -15.3485 C   0  0  0  0  0  0  0  0  0  0  0  0
   27.4946  -19.2227  -16.5113 C   0  0  0  0  0  0  0  0  0  0  0  0
   28.7550  -19.0488  -16.4758 O   0  0  0  0  0  0  0  0  0  0  0  0
   26.7090  -21.0755  -13.3183 C   0  0  0  0  0  0  0  0  0  0  0  0
   25.8060  -21.9322  -13.2833 O   0  0  0  0  0  0  0  0  0  0  0  0
   26.8868  -18.9809  -17.7255 O   0  0  0  0  0  0  0  0  0  0  0  0
   27.0800  -20.4012  -12.1349 N   0  0  0  0  0  0  0  0  0  0  0  0
   26.4421  -20.5792  -10.8657 C   0  0  1  0  0  0  0  0  0  0  0  0
   27.1707  -19.9496   -9.6996 C   0  0  0  0  0  0  0  0  0  0  0  0
   26.6095  -20.3700   -8.3996 C   0  0  0  0  0  0  0  0  0  0  0  0
   25.4166  -21.0787   -8.2403 C   0  0  0  0  0  0  0  0  0  0  0  0
   25.2326  -21.3083   -6.9280 N   0  0  0  0  0  0  0  0  0  0  0  0
   26.2392  -20.7887   -6.2165 C   0  0  0  0  0  0  0  0  0  0  0  0
   26.5237  -20.7425   -4.8751 C   0  0  0  0  0  0  0  0  0  0  0  0
   27.6698  -20.1098   -4.4352 C   0  0  0  0  0  0  0  0  0  0  0  0
   28.5448  -19.5168   -5.3170 C   0  0  0  0  0  0  0  0  0  0  0  0
   28.2510  -19.5681   -6.6643 C   0  0  0  0  0  0  0  0  0  0  0  0
   27.1063  -20.2003   -7.1121 C   0  0  0  0  0  0  0  0  0  0  0  0
   25.0214  -20.1520  -10.8769 C   0  0  0  0  0  0  0  0  0  0  0  0
   24.6988  -18.9589  -10.6249 O   0  0  0  0  0  0  0  0  0  0  0  0
   21.9873  -22.9393  -11.6808 O   0  0  0  0  0  0  0  0  0  0  0  0
   21.9175  -21.6947  -12.3175 C   0  0  0  0  0  0  0  0  0  0  0  0
   22.6293  -20.7083  -11.3831 C   0  0  2  0  0  0  0  0  0  0  0  0
   24.0001  -21.0850  -11.1736 N   0  0  0  0  0  0  0  0  0  0  0  0
   21.8612  -20.5592  -10.1384 C   0  0  0  0  0  0  0  0  0  0  0  0
   20.5422  -20.1323  -10.1890 O   0  0  0  0  0  0  0  0  0  0  0  0
   22.4146  -20.8211   -9.0533 O   0  0  0  0  0  0  0  0  0  0  0  0
  2  1  1  6
  2  6  1  0
  3  2  1  0
  3  4  1  0
  4  8  1  0
  4  5  2  0
  6  7  2  0
  9 10  1  0
  9  6  1  0
 10 11  1  1
 12 11  1  0
 13 12  2  0
 14 13  1  0
 15 14  1  0
 15 20  2  0
 16 17  2  0
 16 15  1  0
 17 18  1  0
 18 19  2  0
 20 19  1  0
 20 12  1  0
 21 10  1  0
 21 22  2  0
 23 24  1  0
 25 24  1  6
 25 26  1  0
 25 27  1  0
 26 21  1  0
 27 29  2  0
 27 28  1  0
M  END
$$$$
