DWS.pdb
     RDKit          3D

 29 30  0  0  1  0  0  0  0  0999 V2000
   27.6798  -19.4906  -14.3179 N   0  0  0  0  0  0  0  0  0  0  0  0
   26.9323  -20.7216  -14.3842 C   0  0  1  0  0  0  0  0  0  0  0  0
   27.7969  -21.7772  -15.0353 C   0  0  0  0  0  0  0  0  0  0  0  0
   28.5240  -21.2361  -16.1973 C   0  0  0  0  0  0  0  0  0  0  0  0
   28.4666  -20.0167  -16.5575 O   0  0  0  0  0  0  0  0  0  0  0  0
   26.5053  -21.1120  -13.0281 C   0  0  0  0  0  0  0  0  0  0  0  0
   25.9234  -22.1972  -12.8427 O   0  0  0  0  0  0  0  0  0  0  0  0
   29.3228  -22.0551  -16.9677 O   0  0  0  0  0  0  0  0  0  0  0  0
   26.7550  -20.2561  -11.9336 N   0  0  0  0  0  0  0  0  0  0  0  0
   26.1605  -20.3998  -10.6393 C   0  0  1  0  0  0  0  0  0  0  0  0
   26.8812  -19.6679   -9.5292 C   0  0  0  0  0  0  0  0  0  0  0  0
   26.5828  -20.2389   -8.2001 C   0  0  0  0  0  0  0  0  0  0  0  0
   25.5160  -21.0971   -7.9247 C   0  0  0  0  0  0  0  0  0  0  0  0
   25.5684  -21.4338   -6.6237 N   0  0  0  0  0  0  0  0  0  0  0  0
   26.6113  -20.8433   -6.0293 C   0  0  0  0  0  0  0  0  0  0  0  0
   27.0975  -20.8516   -4.7464 C   0  0  0  0  0  0  0  0  0  0  0  0
   28.2217  -20.1140   -4.4309 C   0  0  0  0  0  0  0  0  0  0  0  0
   28.8752  -19.3614   -5.3804 C   0  0  0  0  0  0  0  0  0  0  0  0
   28.3793  -19.3589   -6.6681 C   0  0  0  0  0  0  0  0  0  0  0  0
   27.2552  -20.0953   -6.9916 C   0  0  0  0  0  0  0  0  0  0  0  0
   24.7180  -20.0534  -10.6329 C   0  0  0  0  0  0  0  0  0  0  0  0
   24.3344  -18.8614  -10.7856 O   0  0  0  0  0  0  0  0  0  0  0  0
   22.2483  -22.5884  -12.1017 O   0  0  0  0  0  0  0  0  0  0  0  0
   21.7978  -21.2739  -11.9327 C   0  0  0  0  0  0  0  0  0  0  0  0
   22.3322  -20.8226  -10.5676 C   0  0  2  0  0  0  0  0  0  0  0  0
   23.7442  -21.0641  -10.4545 N   0  0  0  0  0  0  0  0  0  0  0  0
   21.5399  -21.4400   -9.4940 C   0  0  0  0  0  0  0  0  0  0  0  0
   22.1779  -22.1473   -8.4856 O   0  0  0  0  0  0  0  0  0  0  0  0
   20.3004  -21.3150   -9.5112 O   0  0  0  0  0  0  0  0  0  0  0  0
  2  1  1  1
  2  6  1  0
  3  2  1  0
  3  4  1  0
  4  8  1  0
  4  5  2  0
  6  7  2  0
  9 10  1  0
  9  6  1  0
 10 11  1  1
 12 11  1  0
 13 12  2  0
 14 13  1  0
 15 14  1  0
 15 20  2  0
 16 17  2  0
 16 15  1  0
 17 18  1  0
 18 19  2  0
 20 19  1  0
 20 12  1  0
 21 10  1  0
 21 22  2  0
 23 24  1  0
 25 24  1  6
 25 26  1  0
 25 27  1  0
 26 21  1  0
 27 29  2  0
 27 28  1  0
M  END
$$$$
