DWS.pdb
     RDKit          3D

 29 30  0  0  1  0  0  0  0  0999 V2000
   14.4542  -18.4665    4.5295 N   0  0  0  0  0  0  0  0  0  0  0  0
   15.2337  -19.6290    4.1840 C   0  0  1  0  0  0  0  0  0  0  0  0
   15.1883  -19.8128    2.6840 C   0  0  0  0  0  0  0  0  0  0  0  0
   14.3644  -20.9756    2.3087 C   0  0  0  0  0  0  0  0  0  0  0  0
   13.5595  -21.5542    3.1069 O   0  0  0  0  0  0  0  0  0  0  0  0
   16.6116  -19.4637    4.6822 C   0  0  0  0  0  0  0  0  0  0  0  0
   17.4538  -20.3637    4.5052 O   0  0  0  0  0  0  0  0  0  0  0  0
   14.4337  -21.5019    1.0358 O   0  0  0  0  0  0  0  0  0  0  0  0
   16.9814  -18.2832    5.3622 N   0  0  0  0  0  0  0  0  0  0  0  0
   18.3029  -17.9986    5.8334 C   0  0  1  0  0  0  0  0  0  0  0  0
   18.7521  -16.5693    5.6271 C   0  0  0  0  0  0  0  0  0  0  0  0
   18.7456  -16.1838    4.2013 C   0  0  0  0  0  0  0  0  0  0  0  0
   17.6917  -15.5300    3.5591 C   0  0  0  0  0  0  0  0  0  0  0  0
   18.0425  -15.3184    2.2781 N   0  0  0  0  0  0  0  0  0  0  0  0
   19.2691  -15.7979    2.0436 C   0  0  0  0  0  0  0  0  0  0  0  0
   20.0704  -15.8413    0.9308 C   0  0  0  0  0  0  0  0  0  0  0  0
   21.3197  -16.4256    1.0038 C   0  0  0  0  0  0  0  0  0  0  0  0
   21.7879  -16.9727    2.1769 C   0  0  0  0  0  0  0  0  0  0  0  0
   20.9754  -16.9246    3.2912 C   0  0  0  0  0  0  0  0  0  0  0  0
   19.7243  -16.3407    3.2261 C   0  0  0  0  0  0  0  0  0  0  0  0
   18.5033  -18.4027    7.2468 C   0  0  0  0  0  0  0  0  0  0  0  0
   17.6713  -18.0826    8.1392 O   0  0  0  0  0  0  0  0  0  0  0  0
   18.8312  -21.6406    8.7967 O   0  0  0  0  0  0  0  0  0  0  0  0
   18.7720  -20.4425    9.5182 C   0  0  0  0  0  0  0  0  0  0  0  0
   19.9058  -19.5683    8.9679 C   0  0  2  0  0  0  0  0  0  0  0  0
   19.6401  -19.1596    7.6162 N   0  0  0  0  0  0  0  0  0  0  0  0
   21.1927  -20.2598    9.1334 C   0  0  0  0  0  0  0  0  0  0  0  0
   21.9075  -20.6632    8.0151 O   0  0  0  0  0  0  0  0  0  0  0  0
   21.6196  -20.4718   10.2844 O   0  0  0  0  0  0  0  0  0  0  0  0
  2  1  1  6
  2  6  1  0
  3  2  1  0
  3  4  1  0
  4  8  1  0
  4  5  2  0
  6  7  2  0
  9 10  1  0
  9  6  1  0
 10 11  1  1
 12 11  1  0
 13 12  2  0
 14 13  1  0
 15 14  1  0
 15 20  2  0
 16 17  2  0
 16 15  1  0
 17 18  1  0
 18 19  2  0
 20 19  1  0
 20 12  1  0
 21 10  1  0
 21 22  2  0
 23 24  1  0
 25 24  1  6
 25 26  1  0
 25 27  1  0
 26 21  1  0
 27 29  2  0
 27 28  1  0
M  END
$$$$
