DWS.pdb
     RDKit          3D

 29 30  0  0  1  0  0  0  0  0999 V2000
   13.5977  -18.1808    5.8750 N   0  0  0  0  0  0  0  0  0  0  0  0
   14.1114  -17.7282    7.1438 C   0  0  1  0  0  0  0  0  0  0  0  0
   14.0844  -18.8854    8.1164 C   0  0  0  0  0  0  0  0  0  0  0  0
   12.9190  -18.8065    9.0149 C   0  0  0  0  0  0  0  0  0  0  0  0
   12.6358  -17.7793    9.7110 O   0  0  0  0  0  0  0  0  0  0  0  0
   15.4710  -17.1882    6.9603 C   0  0  0  0  0  0  0  0  0  0  0  0
   16.2758  -17.7618    6.2028 O   0  0  0  0  0  0  0  0  0  0  0  0
   12.0590  -19.8772    9.1429 O   0  0  0  0  0  0  0  0  0  0  0  0
   15.8657  -16.0175    7.6433 N   0  0  0  0  0  0  0  0  0  0  0  0
   17.1721  -15.4368    7.5698 C   0  0  1  0  0  0  0  0  0  0  0  0
   17.2165  -13.9481    7.8324 C   0  0  0  0  0  0  0  0  0  0  0  0
   18.1217  -13.2449    6.9008 C   0  0  0  0  0  0  0  0  0  0  0  0
   17.8148  -12.9383    5.5733 C   0  0  0  0  0  0  0  0  0  0  0  0
   18.8579  -12.2786    5.0391 N   0  0  0  0  0  0  0  0  0  0  0  0
   19.8335  -12.1354    5.9431 C   0  0  0  0  0  0  0  0  0  0  0  0
   21.0774  -11.5577    5.9083 C   0  0  0  0  0  0  0  0  0  0  0  0
   21.8776  -11.5765    7.0338 C   0  0  0  0  0  0  0  0  0  0  0  0
   21.4557  -12.1666    8.2037 C   0  0  0  0  0  0  0  0  0  0  0  0
   20.2032  -12.7452    8.2298 C   0  0  0  0  0  0  0  0  0  0  0  0
   19.3964  -12.7296    7.1077 C   0  0  0  0  0  0  0  0  0  0  0  0
   18.1578  -16.1407    8.4265 C   0  0  0  0  0  0  0  0  0  0  0  0
   18.0542  -16.1268    9.6836 O   0  0  0  0  0  0  0  0  0  0  0  0
   21.0874  -18.4150    6.6009 O   0  0  0  0  0  0  0  0  0  0  0  0
   20.6214  -18.8683    7.8405 C   0  0  0  0  0  0  0  0  0  0  0  0
   20.1795  -17.6134    8.6038 C   0  0  2  0  0  0  0  0  0  0  0  0
   19.2365  -16.8436    7.8403 N   0  0  0  0  0  0  0  0  0  0  0  0
   21.3604  -16.8476    9.0284 C   0  0  0  0  0  0  0  0  0  0  0  0
   21.5373  -15.5472    8.5788 O   0  0  0  0  0  0  0  0  0  0  0  0
   22.1863  -17.3859    9.7901 O   0  0  0  0  0  0  0  0  0  0  0  0
  2  1  1  6
  2  6  1  0
  3  2  1  0
  3  4  1  0
  4  8  1  0
  4  5  2  0
  6  7  2  0
  9 10  1  0
  9  6  1  0
 10 11  1  1
 12 11  1  0
 13 12  2  0
 14 13  1  0
 15 14  1  0
 15 20  2  0
 16 17  2  0
 16 15  1  0
 17 18  1  0
 18 19  2  0
 20 19  1  0
 20 12  1  0
 21 10  1  0
 21 22  2  0
 23 24  1  0
 25 24  1  6
 25 26  1  0
 25 27  1  0
 26 21  1  0
 27 29  2  0
 27 28  1  0
M  END
$$$$
