DWS.pdb
     RDKit          3D

 29 30  0  0  1  0  0  0  0  0999 V2000
   27.2875  -22.2353  -15.8116 N   0  0  0  0  0  0  0  0  0  0  0  0
   26.7508  -21.0935  -15.1141 C   0  0  1  0  0  0  0  0  0  0  0  0
   25.8210  -20.3508  -16.0467 C   0  0  0  0  0  0  0  0  0  0  0  0
   26.5432  -19.8191  -17.2161 C   0  0  0  0  0  0  0  0  0  0  0  0
   27.7206  -19.3393  -17.1572 O   0  0  0  0  0  0  0  0  0  0  0  0
   26.0659  -21.5426  -13.8881 C   0  0  0  0  0  0  0  0  0  0  0  0
   25.7546  -22.7400  -13.7474 O   0  0  0  0  0  0  0  0  0  0  0  0
   25.9541  -19.8193  -18.4632 O   0  0  0  0  0  0  0  0  0  0  0  0
   25.7604  -20.6157  -12.8681 N   0  0  0  0  0  0  0  0  0  0  0  0
   25.0226  -20.9286  -11.6819 C   0  0  1  0  0  0  0  0  0  0  0  0
   25.4632  -20.1743  -10.4474 C   0  0  0  0  0  0  0  0  0  0  0  0
   26.7718  -20.6417   -9.9466 C   0  0  0  0  0  0  0  0  0  0  0  0
   27.6352  -21.4874  -10.6465 C   0  0  0  0  0  0  0  0  0  0  0  0
   28.7369  -21.6800   -9.8997 N   0  0  0  0  0  0  0  0  0  0  0  0
   28.6442  -21.0073   -8.7471 C   0  0  0  0  0  0  0  0  0  0  0  0
   29.4717  -20.8745   -7.6608 C   0  0  0  0  0  0  0  0  0  0  0  0
   29.0832  -20.0933   -6.5902 C   0  0  0  0  0  0  0  0  0  0  0  0
   27.8734  -19.4366   -6.5835 C   0  0  0  0  0  0  0  0  0  0  0  0
   27.0475  -19.5757   -7.6802 C   0  0  0  0  0  0  0  0  0  0  0  0
   27.4298  -20.3551   -8.7557 C   0  0  0  0  0  0  0  0  0  0  0  0
   23.5570  -20.7963  -11.8708 C   0  0  0  0  0  0  0  0  0  0  0  0
   23.0650  -19.7971  -12.4631 O   0  0  0  0  0  0  0  0  0  0  0  0
   19.2077  -22.3574  -10.5457 O   0  0  0  0  0  0  0  0  0  0  0  0
   20.5740  -22.3130  -10.2447 C   0  0  0  0  0  0  0  0  0  0  0  0
   21.2527  -21.7040  -11.4780 C   0  0  2  0  0  0  0  0  0  0  0  0
   22.6836  -21.7979  -11.3855 N   0  0  0  0  0  0  0  0  0  0  0  0
   20.7635  -20.3339  -11.6898 C   0  0  0  0  0  0  0  0  0  0  0  0
   19.6251  -20.1185  -12.4527 O   0  0  0  0  0  0  0  0  0  0  0  0
   21.3861  -19.3851  -11.1758 O   0  0  0  0  0  0  0  0  0  0  0  0
  2  1  1  6
  2  6  1  0
  3  2  1  0
  3  4  1  0
  4  8  1  0
  4  5  2  0
  6  7  2  0
  9 10  1  0
  9  6  1  0
 10 11  1  1
 12 11  1  0
 13 12  2  0
 14 13  1  0
 15 14  1  0
 15 20  2  0
 16 17  2  0
 16 15  1  0
 17 18  1  0
 18 19  2  0
 20 19  1  0
 20 12  1  0
 21 10  1  0
 21 22  2  0
 23 24  1  0
 25 24  1  1
 25 26  1  0
 25 27  1  0
 26 21  1  0
 27 29  2  0
 27 28  1  0
M  END
$$$$
