DWS.pdb
     RDKit          3D

 29 30  0  0  1  0  0  0  0  0999 V2000
   19.7540  -20.4025  -11.7323 N   0  0  0  0  0  0  0  0  0  0  0  0
   20.4487  -21.1375  -12.7597 C   0  0  1  0  0  0  0  0  0  0  0  0
   19.5658  -21.2067  -13.9850 C   0  0  0  0  0  0  0  0  0  0  0  0
   18.6900  -22.3914  -13.9515 C   0  0  0  0  0  0  0  0  0  0  0  0
   18.3396  -22.9768  -12.8771 O   0  0  0  0  0  0  0  0  0  0  0  0
   21.7413  -20.4869  -13.0421 C   0  0  0  0  0  0  0  0  0  0  0  0
   21.7769  -19.4067  -13.6606 O   0  0  0  0  0  0  0  0  0  0  0  0
   18.1978  -22.9324  -15.1208 O   0  0  0  0  0  0  0  0  0  0  0  0
   22.9445  -21.0868  -12.6119 N   0  0  0  0  0  0  0  0  0  0  0  0
   24.2508  -20.5619  -12.8715 C   0  0  1  0  0  0  0  0  0  0  0  0
   25.3201  -21.0257  -11.9079 C   0  0  0  0  0  0  0  0  0  0  0  0
   26.6492  -20.4757  -12.2437 C   0  0  0  0  0  0  0  0  0  0  0  0
   26.8690  -19.3937  -13.0989 C   0  0  0  0  0  0  0  0  0  0  0  0
   28.1918  -19.1568  -13.1507 N   0  0  0  0  0  0  0  0  0  0  0  0
   28.8531  -20.0245  -12.3766 C   0  0  0  0  0  0  0  0  0  0  0  0
   30.1812  -20.2133  -12.0889 C   0  0  0  0  0  0  0  0  0  0  0  0
   30.5634  -21.2274  -11.2329 C   0  0  0  0  0  0  0  0  0  0  0  0
   29.6365  -22.0643  -10.6538 C   0  0  0  0  0  0  0  0  0  0  0  0
   28.3029  -21.8672  -10.9485 C   0  0  0  0  0  0  0  0  0  0  0  0
   27.9127  -20.8538  -11.8036 C   0  0  0  0  0  0  0  0  0  0  0  0
   24.6870  -20.7856  -14.2718 C   0  0  0  0  0  0  0  0  0  0  0  0
   24.5859  -21.9214  -14.8112 O   0  0  0  0  0  0  0  0  0  0  0  0
   26.2000  -18.7582  -18.3860 O   0  0  0  0  0  0  0  0  0  0  0  0
   25.8405  -18.4893  -17.0601 C   0  0  0  0  0  0  0  0  0  0  0  0
   25.6424  -19.8579  -16.3965 C   0  0  2  0  0  0  0  0  0  0  0  0
   25.2267  -19.7187  -15.0281 N   0  0  0  0  0  0  0  0  0  0  0  0
   26.8543  -20.6730  -16.5653 C   0  0  0  0  0  0  0  0  0  0  0  0
   26.9575  -21.5400  -17.6433 O   0  0  0  0  0  0  0  0  0  0  0  0
   27.7725  -20.5684  -15.7298 O   0  0  0  0  0  0  0  0  0  0  0  0
  2  1  1  1
  2  6  1  0
  3  2  1  0
  3  4  1  0
  4  8  1  0
  4  5  2  0
  6  7  2  0
  9 10  1  0
  9  6  1  0
 10 11  1  1
 12 11  1  0
 13 12  2  0
 14 13  1  0
 15 14  1  0
 15 20  2  0
 16 17  2  0
 16 15  1  0
 17 18  1  0
 18 19  2  0
 20 19  1  0
 20 12  1  0
 21 10  1  0
 21 22  2  0
 23 24  1  0
 25 24  1  1
 25 26  1  0
 25 27  1  0
 26 21  1  0
 27 29  2  0
 27 28  1  0
M  END
$$$$
