DWS.pdb
     RDKit          3D

 29 30  0  0  1  0  0  0  0  0999 V2000
   27.4402  -19.8404  -16.6895 N   0  0  0  0  0  0  0  0  0  0  0  0
   26.5462  -20.9616  -16.8380 C   0  0  1  0  0  0  0  0  0  0  0  0
   27.2876  -22.0820  -17.5314 C   0  0  0  0  0  0  0  0  0  0  0  0
   28.7414  -21.9826  -17.3117 C   0  0  0  0  0  0  0  0  0  0  0  0
   29.4194  -22.8577  -16.6837 O   0  0  0  0  0  0  0  0  0  0  0  0
   26.0398  -21.3665  -15.5138 C   0  0  0  0  0  0  0  0  0  0  0  0
   25.4162  -22.4362  -15.3819 O   0  0  0  0  0  0  0  0  0  0  0  0
   29.4507  -20.9021  -17.7932 O   0  0  0  0  0  0  0  0  0  0  0  0
   26.2605  -20.5420  -14.3894 N   0  0  0  0  0  0  0  0  0  0  0  0
   25.7344  -20.7948  -13.0822 C   0  0  1  0  0  0  0  0  0  0  0  0
   26.5538  -20.2174  -11.9498 C   0  0  0  0  0  0  0  0  0  0  0  0
   26.0863  -20.6853  -10.6291 C   0  0  0  0  0  0  0  0  0  0  0  0
   25.2918  -21.8149  -10.4212 C   0  0  0  0  0  0  0  0  0  0  0  0
   25.0828  -21.9481   -9.0994 N   0  0  0  0  0  0  0  0  0  0  0  0
   25.6962  -20.9673   -8.4275 C   0  0  0  0  0  0  0  0  0  0  0  0
   25.7904  -20.6485   -7.0965 C   0  0  0  0  0  0  0  0  0  0  0  0
   26.5109  -19.5377   -6.7034 C   0  0  0  0  0  0  0  0  0  0  0  0
   27.1443  -18.7320   -7.6223 C   0  0  0  0  0  0  0  0  0  0  0  0
   27.0444  -19.0601   -8.9589 C   0  0  0  0  0  0  0  0  0  0  0  0
   26.3258  -20.1706   -9.3598 C   0  0  0  0  0  0  0  0  0  0  0  0
   24.3141  -20.3867  -12.9507 C   0  0  0  0  0  0  0  0  0  0  0  0
   23.9209  -19.2591  -13.3570 O   0  0  0  0  0  0  0  0  0  0  0  0
   20.3677  -20.7307  -10.5583 O   0  0  0  0  0  0  0  0  0  0  0  0
   21.6612  -20.3095  -10.8881 C   0  0  0  0  0  0  0  0  0  0  0  0
   21.9753  -20.9522  -12.2449 C   0  0  2  0  0  0  0  0  0  0  0  0
   23.3730  -21.2644  -12.3631 N   0  0  0  0  0  0  0  0  0  0  0  0
   21.4672  -20.0993  -13.3292 C   0  0  0  0  0  0  0  0  0  0  0  0
   20.5738  -20.6190  -14.2544 O   0  0  0  0  0  0  0  0  0  0  0  0
   21.8524  -18.9164  -13.3967 O   0  0  0  0  0  0  0  0  0  0  0  0
  2  1  1  1
  2  6  1  0
  3  2  1  0
  3  4  1  0
  4  8  1  0
  4  5  2  0
  6  7  2  0
  9 10  1  0
  9  6  1  0
 10 11  1  1
 12 11  1  0
 13 12  2  0
 14 13  1  0
 15 14  1  0
 15 20  2  0
 16 17  2  0
 16 15  1  0
 17 18  1  0
 18 19  2  0
 20 19  1  0
 20 12  1  0
 21 10  1  0
 21 22  2  0
 23 24  1  0
 25 24  1  1
 25 26  1  0
 25 27  1  0
 26 21  1  0
 27 29  2  0
 27 28  1  0
M  END
$$$$
