DWS.pdb
     RDKit          3D

 29 30  0  0  1  0  0  0  0  0999 V2000
   23.2876  -24.6877  -14.8208 N   0  0  0  0  0  0  0  0  0  0  0  0
   24.6345  -24.1784  -14.7504 C   0  0  1  0  0  0  0  0  0  0  0  0
   25.3123  -24.4198  -16.0802 C   0  0  0  0  0  0  0  0  0  0  0  0
   26.4777  -25.3102  -15.9368 C   0  0  0  0  0  0  0  0  0  0  0  0
   26.4045  -26.4968  -15.4823 O   0  0  0  0  0  0  0  0  0  0  0  0
   24.6021  -22.7479  -14.3949 C   0  0  0  0  0  0  0  0  0  0  0  0
   23.5575  -22.0878  -14.5484 O   0  0  0  0  0  0  0  0  0  0  0  0
   27.7368  -24.8809  -16.3009 O   0  0  0  0  0  0  0  0  0  0  0  0
   25.7565  -22.1207  -13.8784 N   0  0  0  0  0  0  0  0  0  0  0  0
   25.8388  -20.7352  -13.5274 C   0  0  1  0  0  0  0  0  0  0  0  0
   26.6529  -20.4461  -12.2861 C   0  0  0  0  0  0  0  0  0  0  0  0
   25.8207  -20.4283  -11.0659 C   0  0  0  0  0  0  0  0  0  0  0  0
   24.4253  -20.4843  -11.0542 C   0  0  0  0  0  0  0  0  0  0  0  0
   24.0118  -20.4718   -9.7746 N   0  0  0  0  0  0  0  0  0  0  0  0
   25.0594  -20.4102   -8.9450 C   0  0  0  0  0  0  0  0  0  0  0  0
   25.1826  -20.3690   -7.5792 C   0  0  0  0  0  0  0  0  0  0  0  0
   26.4355  -20.2991   -7.0022 C   0  0  0  0  0  0  0  0  0  0  0  0
   27.5776  -20.2691   -7.7699 C   0  0  0  0  0  0  0  0  0  0  0  0
   27.4444  -20.3111   -9.1427 C   0  0  0  0  0  0  0  0  0  0  0  0
   26.1940  -20.3819   -9.7274 C   0  0  0  0  0  0  0  0  0  0  0  0
   26.2998  -19.8881  -14.6548 C   0  0  0  0  0  0  0  0  0  0  0  0
   27.0525  -20.3542  -15.5534 O   0  0  0  0  0  0  0  0  0  0  0  0
   27.6940  -15.7936  -16.2892 O   0  0  0  0  0  0  0  0  0  0  0  0
   27.2690  -16.5516  -15.1918 C   0  0  0  0  0  0  0  0  0  0  0  0
   26.3557  -17.6414  -15.7669 C   0  0  2  0  0  0  0  0  0  0  0  0
   25.8977  -18.5343  -14.7385 N   0  0  0  0  0  0  0  0  0  0  0  0
   27.0326  -18.3215  -16.8808 C   0  0  0  0  0  0  0  0  0  0  0  0
   26.5034  -18.2426  -18.1607 O   0  0  0  0  0  0  0  0  0  0  0  0
   28.0770  -18.9609  -16.6516 O   0  0  0  0  0  0  0  0  0  0  0  0
  2  1  1  6
  2  6  1  0
  3  2  1  0
  3  4  1  0
  4  8  1  0
  4  5  2  0
  6  7  2  0
  9 10  1  0
  9  6  1  0
 10 11  1  1
 12 11  1  0
 13 12  2  0
 14 13  1  0
 15 14  1  0
 15 20  2  0
 16 17  2  0
 16 15  1  0
 17 18  1  0
 18 19  2  0
 20 19  1  0
 20 12  1  0
 21 10  1  0
 21 22  2  0
 23 24  1  0
 25 24  1  1
 25 26  1  0
 25 27  1  0
 26 21  1  0
 27 29  2  0
 27 28  1  0
M  END
$$$$
