GTW.pdb
     RDKit          3D

 26 27  0  0  1  0  0  0  0  0999 V2000
    7.8402  -13.2376   15.5252 N   0  0  0  0  0  0  0  0  0  0  0  0
    8.7237  -13.2501   16.6719 C   0  0  0  0  0  0  0  0  0  0  0  0
    8.3963  -14.4231   17.5346 C   0  0  0  0  0  0  0  0  0  0  0  0
    7.2976  -15.0327   17.4085 O   0  0  0  0  0  0  0  0  0  0  0  0
   10.0260  -17.4945   17.7557 C   0  0  0  0  0  0  0  0  0  0  0  0
   10.1479  -16.9598   19.1585 C   0  0  1  0  0  0  0  0  0  0  0  0
   11.4176  -16.5172   19.4744 O   0  0  0  0  0  0  0  0  0  0  0  0
    9.0748  -15.9032   19.3941 C   0  0  2  0  0  0  0  0  0  0  0  0
    9.3627  -14.8180   18.4908 N   0  0  0  0  0  0  0  0  0  0  0  0
    9.2163  -15.4441   20.8037 C   0  0  0  0  0  0  0  0  0  0  0  0
   10.0534  -14.5322   21.0777 O   0  0  0  0  0  0  0  0  0  0  0  0
    8.4563  -15.9830   21.8467 N   0  0  0  0  0  0  0  0  0  0  0  0
    8.5811  -15.4520   23.2224 C   0  0  1  0  0  0  0  0  0  0  0  0
    7.1830  -15.2075   23.6698 C   0  0  0  0  0  0  0  0  0  0  0  0
    6.9850  -14.7737   25.0519 C   0  0  0  0  0  0  0  0  0  0  0  0
    6.7600  -15.6168   26.1286 C   0  0  0  0  0  0  0  0  0  0  0  0
    6.5941  -14.8688   27.2296 N   0  0  0  0  0  0  0  0  0  0  0  0
    6.7029  -13.5718   26.9116 C   0  0  0  0  0  0  0  0  0  0  0  0
    6.6229  -12.4207   27.6972 C   0  0  0  0  0  0  0  0  0  0  0  0
    6.7987  -11.2182   27.0626 C   0  0  0  0  0  0  0  0  0  0  0  0
    7.0438  -11.1277   25.7136 C   0  0  0  0  0  0  0  0  0  0  0  0
    7.1214  -12.2581   24.9431 C   0  0  0  0  0  0  0  0  0  0  0  0
    6.9466  -13.4899   25.5610 C   0  0  0  0  0  0  0  0  0  0  0  0
    9.4035  -16.3524   24.0130 C   0  0  0  0  0  0  0  0  0  0  0  0
   10.0794  -15.9325   25.1453 O   0  0  0  0  0  0  0  0  0  0  0  0
    9.5305  -17.5589   23.6840 O   0  0  0  0  0  0  0  0  0  0  0  0
  2  1  1  0
  3  9  1  0
  3  2  1  0
  4  3  2  0
  6  5  1  6
  6  8  1  0
  7  6  1  0
  8 10  1  0
  8  9  1  6
 10 12  1  0
 11 10  2  0
 12 13  1  0
 13 14  1  1
 14 15  1  0
 15 23  1  0
 15 16  2  0
 16 17  1  0
 17 18  1  0
 18 19  2  0
 20 19  1  0
 21 20  2  0
 22 23  2  0
 22 21  1  0
 23 18  1  0
 24 25  1  0
 24 13  1  0
 26 24  2  0
M  END
$$$$
