GTW.pdb
     RDKit          3D

 26 27  0  0  1  0  0  0  0  0999 V2000
    8.1587  -12.8542   17.3258 N   0  0  0  0  0  0  0  0  0  0  0  0
    9.1543  -13.4357   18.2013 C   0  0  0  0  0  0  0  0  0  0  0  0
    8.4953  -13.9049   19.4554 C   0  0  0  0  0  0  0  0  0  0  0  0
    7.6918  -13.1593   20.0825 O   0  0  0  0  0  0  0  0  0  0  0  0
    6.6962  -17.1538   19.7667 C   0  0  0  0  0  0  0  0  0  0  0  0
    7.7810  -17.1531   20.8116 C   0  0  1  0  0  0  0  0  0  0  0  0
    8.8499  -17.9710   20.5012 O   0  0  0  0  0  0  0  0  0  0  0  0
    8.1983  -15.7175   21.1092 C   0  0  2  0  0  0  0  0  0  0  0  0
    8.8078  -15.2101   19.9060 N   0  0  0  0  0  0  0  0  0  0  0  0
    9.2045  -15.7739   22.2055 C   0  0  0  0  0  0  0  0  0  0  0  0
   10.4387  -15.7622   21.9155 O   0  0  0  0  0  0  0  0  0  0  0  0
    8.8399  -15.8398   23.5541 N   0  0  0  0  0  0  0  0  0  0  0  0
    9.8693  -15.9905   24.6066 C   0  0  1  0  0  0  0  0  0  0  0  0
    9.6001  -14.8888   25.5700 C   0  0  0  0  0  0  0  0  0  0  0  0
    8.2020  -14.5499   25.8312 C   0  0  0  0  0  0  0  0  0  0  0  0
    7.1384  -15.4352   25.7542 C   0  0  0  0  0  0  0  0  0  0  0  0
    6.0071  -14.7684   26.0273 N   0  0  0  0  0  0  0  0  0  0  0  0
    6.2928  -13.4840   26.2796 C   0  0  0  0  0  0  0  0  0  0  0  0
    5.4725  -12.4077   26.6224 C   0  0  0  0  0  0  0  0  0  0  0  0
    6.0843  -11.1996   26.8362 C   0  0  0  0  0  0  0  0  0  0  0  0
    7.4437  -11.0337   26.7232 C   0  0  0  0  0  0  0  0  0  0  0  0
    8.2480  -12.0905   26.3860 C   0  0  0  0  0  0  0  0  0  0  0  0
    7.6536  -13.3261   26.1633 C   0  0  0  0  0  0  0  0  0  0  0  0
    9.8500  -17.3549   25.1067 C   0  0  0  0  0  0  0  0  0  0  0  0
    8.9093  -18.2806   24.6902 O   0  0  0  0  0  0  0  0  0  0  0  0
   10.6991  -17.7400   25.9497 O   0  0  0  0  0  0  0  0  0  0  0  0
  2  1  1  0
  3  9  1  0
  3  2  1  0
  4  3  2  0
  6  5  1  6
  6  8  1  0
  7  6  1  0
  8 10  1  0
  8  9  1  6
 10 12  1  0
 11 10  2  0
 12 13  1  0
 13 14  1  1
 14 15  1  0
 15 23  1  0
 15 16  2  0
 16 17  1  0
 17 18  1  0
 18 19  2  0
 20 19  1  0
 21 20  2  0
 22 23  2  0
 22 21  1  0
 23 18  1  0
 24 25  1  0
 24 13  1  0
 26 24  2  0
M  END
$$$$
