GTW.pdb
     RDKit          3D

 26 27  0  0  1  0  0  0  0  0999 V2000
    7.7458  -12.7281   17.9542 N   0  0  0  0  0  0  0  0  0  0  0  0
    8.8711  -13.2228   18.7188 C   0  0  0  0  0  0  0  0  0  0  0  0
    8.3794  -14.1597   19.7712 C   0  0  0  0  0  0  0  0  0  0  0  0
    7.2011  -14.0717   20.2168 O   0  0  0  0  0  0  0  0  0  0  0  0
    8.2723  -17.7417   19.5337 C   0  0  0  0  0  0  0  0  0  0  0  0
    9.1578  -17.4667   20.7207 C   0  0  1  0  0  0  0  0  0  0  0  0
   10.5000  -17.6759   20.4710 O   0  0  0  0  0  0  0  0  0  0  0  0
    8.8643  -16.0717   21.2606 C   0  0  2  0  0  0  0  0  0  0  0  0
    9.2836  -15.1417   20.2427 N   0  0  0  0  0  0  0  0  0  0  0  0
    9.6927  -15.8944   22.4852 C   0  0  0  0  0  0  0  0  0  0  0  0
   10.8961  -15.5122   22.3699 O   0  0  0  0  0  0  0  0  0  0  0  0
    9.1925  -16.1346   23.7690 N   0  0  0  0  0  0  0  0  0  0  0  0
   10.0949  -16.1320   24.9420 C   0  0  1  0  0  0  0  0  0  0  0  0
    9.7519  -14.8919   25.6897 C   0  0  0  0  0  0  0  0  0  0  0  0
    8.3377  -14.6386   25.9603 C   0  0  0  0  0  0  0  0  0  0  0  0
    7.3300  -15.5878   25.8942 C   0  0  0  0  0  0  0  0  0  0  0  0
    6.1618  -14.9909   26.1737 N   0  0  0  0  0  0  0  0  0  0  0  0
    6.3698  -13.6904   26.4197 C   0  0  0  0  0  0  0  0  0  0  0  0
    5.4875  -12.6653   26.7652 C   0  0  0  0  0  0  0  0  0  0  0  0
    6.0254  -11.4211   26.9705 C   0  0  0  0  0  0  0  0  0  0  0  0
    7.3711  -11.1724   26.8468 C   0  0  0  0  0  0  0  0  0  0  0  0
    8.2364  -12.1790   26.5069 C   0  0  0  0  0  0  0  0  0  0  0  0
    7.7175  -13.4497   26.2926 C   0  0  0  0  0  0  0  0  0  0  0  0
    9.9821  -17.4025   25.6387 C   0  0  0  0  0  0  0  0  0  0  0  0
    9.0890  -18.3836   25.2450 O   0  0  0  0  0  0  0  0  0  0  0  0
   10.7020  -17.6505   26.6387 O   0  0  0  0  0  0  0  0  0  0  0  0
  2  1  1  0
  3  9  1  0
  3  2  1  0
  4  3  2  0
  6  5  1  6
  6  8  1  0
  7  6  1  0
  8 10  1  0
  8  9  1  6
 10 12  1  0
 11 10  2  0
 12 13  1  0
 13 14  1  1
 14 15  1  0
 15 23  1  0
 15 16  2  0
 16 17  1  0
 17 18  1  0
 18 19  2  0
 20 19  1  0
 21 20  2  0
 22 23  2  0
 22 21  1  0
 23 18  1  0
 24 25  1  0
 24 13  1  0
 26 24  2  0
M  END
$$$$
