GTW.pdb
     RDKit          3D

 26 27  0  0  1  0  0  0  0  0999 V2000
    7.3425  -12.8676   17.6361 N   0  0  0  0  0  0  0  0  0  0  0  0
    8.4478  -13.2451   18.4913 C   0  0  0  0  0  0  0  0  0  0  0  0
    8.0009  -14.3127   19.4335 C   0  0  0  0  0  0  0  0  0  0  0  0
    6.9399  -14.9631   19.2185 O   0  0  0  0  0  0  0  0  0  0  0  0
    8.6246  -16.9284   19.0204 C   0  0  0  0  0  0  0  0  0  0  0  0
    9.3944  -16.8516   20.3128 C   0  0  1  0  0  0  0  0  0  0  0  0
   10.7458  -16.6244   20.1401 O   0  0  0  0  0  0  0  0  0  0  0  0
    8.7343  -15.8351   21.2372 C   0  0  2  0  0  0  0  0  0  0  0  0
    8.8112  -14.5614   20.5673 N   0  0  0  0  0  0  0  0  0  0  0  0
    9.5364  -15.8004   22.4914 C   0  0  0  0  0  0  0  0  0  0  0  0
   10.6510  -15.1963   22.4981 O   0  0  0  0  0  0  0  0  0  0  0  0
    9.1059  -16.4128   23.6727 N   0  0  0  0  0  0  0  0  0  0  0  0
    9.8804  -16.2627   24.9249 C   0  0  1  0  0  0  0  0  0  0  0  0
    8.8741  -16.3694   26.0160 C   0  0  0  0  0  0  0  0  0  0  0  0
    7.7092  -15.4889   25.9455 C   0  0  0  0  0  0  0  0  0  0  0  0
    6.4226  -15.8915   25.6240 C   0  0  0  0  0  0  0  0  0  0  0  0
    5.6243  -14.8136   25.6268 N   0  0  0  0  0  0  0  0  0  0  0  0
    6.3408  -13.7253   25.9383 C   0  0  0  0  0  0  0  0  0  0  0  0
    5.9693  -12.3873   26.0812 C   0  0  0  0  0  0  0  0  0  0  0  0
    6.9540  -11.4997   26.4309 C   0  0  0  0  0  0  0  0  0  0  0  0
    8.2556  -11.8891   26.6364 C   0  0  0  0  0  0  0  0  0  0  0  0
    8.6195  -13.2025   26.4953 C   0  0  0  0  0  0  0  0  0  0  0  0
    7.6413  -14.1229   26.1410 C   0  0  0  0  0  0  0  0  0  0  0  0
   10.9870  -17.2048   24.9221 C   0  0  0  0  0  0  0  0  0  0  0  0
   11.0453  -18.2725   24.0435 O   0  0  0  0  0  0  0  0  0  0  0  0
   11.9381  -17.0779   25.7339 O   0  0  0  0  0  0  0  0  0  0  0  0
  2  1  1  0
  3  9  1  0
  3  2  1  0
  4  3  2  0
  6  5  1  6
  6  8  1  0
  7  6  1  0
  8 10  1  0
  8  9  1  6
 10 12  1  0
 11 10  2  0
 12 13  1  0
 13 14  1  1
 14 15  1  0
 15 23  1  0
 15 16  2  0
 16 17  1  0
 17 18  1  0
 18 19  2  0
 20 19  1  0
 21 20  2  0
 22 23  2  0
 22 21  1  0
 23 18  1  0
 24 25  1  0
 24 13  1  0
 26 24  2  0
M  END
$$$$
