GTW.pdb
     RDKit          3D

 26 27  0  0  1  0  0  0  0  0999 V2000
    7.3576  -12.4658   18.3795 N   0  0  0  0  0  0  0  0  0  0  0  0
    8.5128  -12.9868   19.0793 C   0  0  0  0  0  0  0  0  0  0  0  0
    8.0952  -14.1369   19.9339 C   0  0  0  0  0  0  0  0  0  0  0  0
    6.8739  -14.3663   20.1586 O   0  0  0  0  0  0  0  0  0  0  0  0
    8.5512  -17.6451   19.5671 C   0  0  0  0  0  0  0  0  0  0  0  0
    9.3296  -17.2950   20.8082 C   0  0  1  0  0  0  0  0  0  0  0  0
   10.6967  -17.2626   20.6140 O   0  0  0  0  0  0  0  0  0  0  0  0
    8.7830  -16.0021   21.4024 C   0  0  2  0  0  0  0  0  0  0  0  0
    9.1189  -14.9510   20.4756 N   0  0  0  0  0  0  0  0  0  0  0  0
    9.4871  -15.7846   22.6965 C   0  0  0  0  0  0  0  0  0  0  0  0
   10.4802  -14.9975   22.7374 O   0  0  0  0  0  0  0  0  0  0  0  0
    9.0938  -16.4193   23.8790 N   0  0  0  0  0  0  0  0  0  0  0  0
    9.8289  -16.1832   25.1415 C   0  0  1  0  0  0  0  0  0  0  0  0
    8.7898  -16.2224   26.2061 C   0  0  0  0  0  0  0  0  0  0  0  0
    7.6778  -15.2796   26.0959 C   0  0  0  0  0  0  0  0  0  0  0  0
    6.3838  -15.6114   25.7266 C   0  0  0  0  0  0  0  0  0  0  0  0
    5.6457  -14.4917   25.7037 N   0  0  0  0  0  0  0  0  0  0  0  0
    6.4085  -13.4442   26.0444 C   0  0  0  0  0  0  0  0  0  0  0  0
    6.1053  -12.0881   26.1777 C   0  0  0  0  0  0  0  0  0  0  0  0
    7.1233  -11.2558   26.5657 C   0  0  0  0  0  0  0  0  0  0  0  0
    8.3935  -11.7157   26.8173 C   0  0  0  0  0  0  0  0  0  0  0  0
    8.6904  -13.0468   26.6855 C   0  0  0  0  0  0  0  0  0  0  0  0
    7.6772  -13.9122   26.2930 C   0  0  0  0  0  0  0  0  0  0  0  0
   10.9376  -17.1182   25.2348 C   0  0  0  0  0  0  0  0  0  0  0  0
   11.1013  -18.1610   24.3398 O   0  0  0  0  0  0  0  0  0  0  0  0
   11.7931  -17.0079   26.1491 O   0  0  0  0  0  0  0  0  0  0  0  0
  2  1  1  0
  3  9  1  0
  3  2  1  0
  4  3  2  0
  6  5  1  6
  6  8  1  0
  7  6  1  0
  8 10  1  0
  8  9  1  6
 10 12  1  0
 11 10  2  0
 12 13  1  0
 13 14  1  1
 14 15  1  0
 15 23  1  0
 15 16  2  0
 16 17  1  0
 17 18  1  0
 18 19  2  0
 20 19  1  0
 21 20  2  0
 22 23  2  0
 22 21  1  0
 23 18  1  0
 24 25  1  0
 24 13  1  0
 26 24  2  0
M  END
$$$$
