GTW.pdb
     RDKit          3D

 26 27  0  0  1  0  0  0  0  0999 V2000
    7.7106  -12.6707   17.9487 N   0  0  0  0  0  0  0  0  0  0  0  0
    8.8063  -13.0557   18.8130 C   0  0  0  0  0  0  0  0  0  0  0  0
    8.3344  -14.0937   19.7759 C   0  0  0  0  0  0  0  0  0  0  0  0
    7.1025  -14.2524   20.0042 O   0  0  0  0  0  0  0  0  0  0  0  0
    8.5507  -17.5004   19.3952 C   0  0  0  0  0  0  0  0  0  0  0  0
    9.3754  -17.2509   20.6307 C   0  0  1  0  0  0  0  0  0  0  0  0
   10.7375  -17.2895   20.4047 O   0  0  0  0  0  0  0  0  0  0  0  0
    8.9194  -15.9556   21.2924 C   0  0  2  0  0  0  0  0  0  0  0  0
    9.3193  -14.8844   20.4153 N   0  0  0  0  0  0  0  0  0  0  0  0
    9.6436  -15.8496   22.5893 C   0  0  0  0  0  0  0  0  0  0  0  0
   10.6962  -15.1461   22.6559 O   0  0  0  0  0  0  0  0  0  0  0  0
    9.2055  -16.5005   23.7470 N   0  0  0  0  0  0  0  0  0  0  0  0
    9.8820  -16.2698   25.0429 C   0  0  1  0  0  0  0  0  0  0  0  0
    8.8009  -16.3520   26.0623 C   0  0  0  0  0  0  0  0  0  0  0  0
    7.6409  -15.4801   25.8847 C   0  0  0  0  0  0  0  0  0  0  0  0
    6.3825  -15.8982   25.4816 C   0  0  0  0  0  0  0  0  0  0  0  0
    5.5821  -14.8250   25.3985 N   0  0  0  0  0  0  0  0  0  0  0  0
    6.2701  -13.7250   25.7323 C   0  0  0  0  0  0  0  0  0  0  0  0
    5.8842  -12.3858   25.8128 C   0  0  0  0  0  0  0  0  0  0  0  0
    6.8376  -11.4840   26.2094 C   0  0  0  0  0  0  0  0  0  0  0  0
    8.1224  -11.8606   26.5187 C   0  0  0  0  0  0  0  0  0  0  0  0
    8.5005  -13.1751   26.4387 C   0  0  0  0  0  0  0  0  0  0  0  0
    7.5539  -14.1099   26.0388 C   0  0  0  0  0  0  0  0  0  0  0  0
   11.0079  -17.1804   25.1668 C   0  0  0  0  0  0  0  0  0  0  0  0
   12.0239  -16.9775   26.0842 O   0  0  0  0  0  0  0  0  0  0  0  0
   11.0957  -18.1943   24.4291 O   0  0  0  0  0  0  0  0  0  0  0  0
  2  1  1  0
  3  9  1  0
  3  2  1  0
  4  3  2  0
  6  5  1  6
  6  8  1  0
  7  6  1  0
  8 10  1  0
  8  9  1  6
 10 12  1  0
 11 10  2  0
 12 13  1  0
 13 14  1  1
 14 15  1  0
 15 23  1  0
 15 16  2  0
 16 17  1  0
 17 18  1  0
 18 19  2  0
 20 19  1  0
 21 20  2  0
 22 23  2  0
 22 21  1  0
 23 18  1  0
 24 25  1  0
 24 13  1  0
 26 24  2  0
M  END
$$$$
