GTW.pdb
     RDKit          3D

 26 27  0  0  1  0  0  0  0  0999 V2000
    7.6516  -12.6326   17.8351 N   0  0  0  0  0  0  0  0  0  0  0  0
    8.7546  -13.0972   18.6495 C   0  0  0  0  0  0  0  0  0  0  0  0
    8.2380  -14.0266   19.6967 C   0  0  0  0  0  0  0  0  0  0  0  0
    7.0001  -14.1141   19.9309 O   0  0  0  0  0  0  0  0  0  0  0  0
    8.3280  -17.3421   19.3579 C   0  0  0  0  0  0  0  0  0  0  0  0
    9.1298  -17.1648   20.6205 C   0  0  1  0  0  0  0  0  0  0  0  0
   10.4924  -17.2932   20.4342 O   0  0  0  0  0  0  0  0  0  0  0  0
    8.7427  -15.8499   21.2873 C   0  0  2  0  0  0  0  0  0  0  0  0
    9.1879  -14.7981   20.4085 N   0  0  0  0  0  0  0  0  0  0  0  0
    9.4808  -15.7815   22.5788 C   0  0  0  0  0  0  0  0  0  0  0  0
   10.5253  -15.0673   22.6589 O   0  0  0  0  0  0  0  0  0  0  0  0
    9.0648  -16.4795   23.7170 N   0  0  0  0  0  0  0  0  0  0  0  0
    9.7387  -16.2698   25.0178 C   0  0  1  0  0  0  0  0  0  0  0  0
    8.6508  -16.3364   26.0310 C   0  0  0  0  0  0  0  0  0  0  0  0
    7.5402  -15.3962   25.8886 C   0  0  0  0  0  0  0  0  0  0  0  0
    6.2444  -15.7391   25.5365 C   0  0  0  0  0  0  0  0  0  0  0  0
    5.5084  -14.6196   25.4734 N   0  0  0  0  0  0  0  0  0  0  0  0
    6.2743  -13.5615   25.7714 C   0  0  0  0  0  0  0  0  0  0  0  0
    5.9742  -12.2007   25.8539 C   0  0  0  0  0  0  0  0  0  0  0  0
    6.9951  -11.3563   26.2065 C   0  0  0  0  0  0  0  0  0  0  0  0
    8.2652  -11.8088   26.4712 C   0  0  0  0  0  0  0  0  0  0  0  0
    8.5592  -13.1446   26.3893 C   0  0  0  0  0  0  0  0  0  0  0  0
    7.5429  -14.0223   26.0334 C   0  0  0  0  0  0  0  0  0  0  0  0
   10.8457  -17.2031   25.1423 C   0  0  0  0  0  0  0  0  0  0  0  0
   11.8547  -17.0317   26.0738 O   0  0  0  0  0  0  0  0  0  0  0  0
   10.9229  -18.2087   24.3921 O   0  0  0  0  0  0  0  0  0  0  0  0
  2  1  1  0
  3  9  1  0
  3  2  1  0
  4  3  2  0
  6  5  1  6
  6  8  1  0
  7  6  1  0
  8 10  1  0
  8  9  1  6
 10 12  1  0
 11 10  2  0
 12 13  1  0
 13 14  1  1
 14 15  1  0
 15 23  1  0
 15 16  2  0
 16 17  1  0
 17 18  1  0
 18 19  2  0
 20 19  1  0
 21 20  2  0
 22 23  2  0
 22 21  1  0
 23 18  1  0
 24 25  1  0
 24 13  1  0
 26 24  2  0
M  END
$$$$
