GTW.pdb
     RDKit          3D

 26 27  0  0  1  0  0  0  0  0999 V2000
    3.8258  -19.0901   21.4021 N   0  0  0  0  0  0  0  0  0  0  0  0
    4.3541  -17.7682   21.6654 C   0  0  0  0  0  0  0  0  0  0  0  0
    5.8452  -17.8271   21.6837 C   0  0  0  0  0  0  0  0  0  0  0  0
    6.4471  -18.8745   22.0518 O   0  0  0  0  0  0  0  0  0  0  0  0
    8.0167  -16.6470   18.7654 C   0  0  0  0  0  0  0  0  0  0  0  0
    8.3979  -15.8823   20.0058 C   0  0  1  0  0  0  0  0  0  0  0  0
    7.9273  -14.5838   20.0227 O   0  0  0  0  0  0  0  0  0  0  0  0
    7.9882  -16.6788   21.2392 C   0  0  2  0  0  0  0  0  0  0  0  0
    6.5476  -16.6683   21.2740 N   0  0  0  0  0  0  0  0  0  0  0  0
    8.5318  -15.9588   22.4240 C   0  0  0  0  0  0  0  0  0  0  0  0
    8.1728  -14.7624   22.6411 O   0  0  0  0  0  0  0  0  0  0  0  0
    9.4304  -16.5545   23.3149 N   0  0  0  0  0  0  0  0  0  0  0  0
   10.1129  -15.7462   24.3499 C   0  0  1  0  0  0  0  0  0  0  0  0
    9.3827  -16.0403   25.6127 C   0  0  0  0  0  0  0  0  0  0  0  0
    8.0799  -15.4040   25.8005 C   0  0  0  0  0  0  0  0  0  0  0  0
    6.8551  -16.0390   25.6684 C   0  0  0  0  0  0  0  0  0  0  0  0
    5.8827  -15.1401   25.8819 N   0  0  0  0  0  0  0  0  0  0  0  0
    6.4267  -13.9452   26.1486 C   0  0  0  0  0  0  0  0  0  0  0  0
    5.8428  -12.7130   26.4479 C   0  0  0  0  0  0  0  0  0  0  0  0
    6.6902  -11.6635   26.6931 C   0  0  0  0  0  0  0  0  0  0  0  0
    8.0571  -11.7970   26.6511 C   0  0  0  0  0  0  0  0  0  0  0  0
    8.6294  -13.0066   26.3565 C   0  0  0  0  0  0  0  0  0  0  0  0
    7.7935  -14.0869   26.1033 C   0  0  0  0  0  0  0  0  0  0  0  0
   11.5403  -16.0164   24.3076 C   0  0  0  0  0  0  0  0  0  0  0  0
   12.4537  -15.2758   25.0372 O   0  0  0  0  0  0  0  0  0  0  0  0
   11.9955  -16.9440   23.5920 O   0  0  0  0  0  0  0  0  0  0  0  0
  2  1  1  0
  3  9  1  0
  3  2  1  0
  4  3  2  0
  6  5  1  6
  6  8  1  0
  7  6  1  0
  8 10  1  0
  8  9  1  1
 10 12  1  0
 11 10  2  0
 12 13  1  0
 13 14  1  1
 14 15  1  0
 15 23  1  0
 15 16  2  0
 16 17  1  0
 17 18  1  0
 18 19  2  0
 20 19  1  0
 21 20  2  0
 22 23  2  0
 22 21  1  0
 23 18  1  0
 24 25  1  0
 24 13  1  0
 26 24  2  0
M  END
$$$$
