GTW.pdb
     RDKit          3D

 26 27  0  0  1  0  0  0  0  0999 V2000
    7.9582  -12.7540   17.5247 N   0  0  0  0  0  0  0  0  0  0  0  0
    9.0351  -13.3553   18.2826 C   0  0  0  0  0  0  0  0  0  0  0  0
    8.4617  -14.1773   19.3884 C   0  0  0  0  0  0  0  0  0  0  0  0
    7.2469  -14.0657   19.7149 O   0  0  0  0  0  0  0  0  0  0  0  0
    7.9304  -17.4692   19.2533 C   0  0  0  0  0  0  0  0  0  0  0  0
    8.8811  -17.3829   20.4184 C   0  0  1  0  0  0  0  0  0  0  0  0
   10.1717  -17.7662   20.1098 O   0  0  0  0  0  0  0  0  0  0  0  0
    8.8059  -15.9900   21.0329 C   0  0  2  0  0  0  0  0  0  0  0  0
    9.3315  -15.0786   20.0481 N   0  0  0  0  0  0  0  0  0  0  0  0
    9.6799  -15.9971   22.2385 C   0  0  0  0  0  0  0  0  0  0  0  0
   10.9230  -15.7869   22.1044 O   0  0  0  0  0  0  0  0  0  0  0  0
    9.1804  -16.2283   23.5242 N   0  0  0  0  0  0  0  0  0  0  0  0
   10.0719  -16.1554   24.7033 C   0  0  1  0  0  0  0  0  0  0  0  0
    9.7245  -14.8715   25.3708 C   0  0  0  0  0  0  0  0  0  0  0  0
    8.3122  -14.6208   25.6536 C   0  0  0  0  0  0  0  0  0  0  0  0
    7.3239  -15.5911   25.7047 C   0  0  0  0  0  0  0  0  0  0  0  0
    6.1504  -14.9928   25.9571 N   0  0  0  0  0  0  0  0  0  0  0  0
    6.3362  -13.6710   26.0730 C   0  0  0  0  0  0  0  0  0  0  0  0
    5.4407  -12.6347   26.3429 C   0  0  0  0  0  0  0  0  0  0  0  0
    5.9565  -11.3665   26.4148 C   0  0  0  0  0  0  0  0  0  0  0  0
    7.2930  -11.1050   26.2323 C   0  0  0  0  0  0  0  0  0  0  0  0
    8.1712  -12.1226   25.9666 C   0  0  0  0  0  0  0  0  0  0  0  0
    7.6748  -13.4177   25.8878 C   0  0  0  0  0  0  0  0  0  0  0  0
    9.9503  -17.3809   25.4749 C   0  0  0  0  0  0  0  0  0  0  0  0
   10.7852  -17.6683   26.5406 O   0  0  0  0  0  0  0  0  0  0  0  0
    9.0708  -18.2325   25.1900 O   0  0  0  0  0  0  0  0  0  0  0  0
  2  1  1  0
  3  9  1  0
  3  2  1  0
  4  3  2  0
  6  5  1  6
  6  8  1  0
  7  6  1  0
  8 10  1  0
  8  9  1  6
 10 12  1  0
 11 10  2  0
 12 13  1  0
 13 14  1  1
 14 15  1  0
 15 23  1  0
 15 16  2  0
 16 17  1  0
 17 18  1  0
 18 19  2  0
 20 19  1  0
 21 20  2  0
 22 23  2  0
 22 21  1  0
 23 18  1  0
 24 25  1  0
 24 13  1  0
 26 24  2  0
M  END
$$$$
