GTW.pdb
     RDKit          3D

 26 27  0  0  1  0  0  0  0  0999 V2000
   11.3183  -16.4041   15.3932 N   0  0  0  0  0  0  0  0  0  0  0  0
   11.6695  -16.4565   16.7966 C   0  0  0  0  0  0  0  0  0  0  0  0
   10.4275  -16.6004   17.6114 C   0  0  0  0  0  0  0  0  0  0  0  0
    9.3523  -16.0410   17.2567 O   0  0  0  0  0  0  0  0  0  0  0  0
    8.8643  -19.7491   18.5440 C   0  0  0  0  0  0  0  0  0  0  0  0
    9.2013  -19.0660   19.8434 C   0  0  1  0  0  0  0  0  0  0  0  0
   10.2944  -19.6108   20.4886 O   0  0  0  0  0  0  0  0  0  0  0  0
    9.3370  -17.5661   19.6082 C   0  0  2  0  0  0  0  0  0  0  0  0
   10.5076  -17.3842   18.7876 N   0  0  0  0  0  0  0  0  0  0  0  0
    9.5446  -16.9325   20.9397 C   0  0  0  0  0  0  0  0  0  0  0  0
   10.7221  -16.6490   21.3146 O   0  0  0  0  0  0  0  0  0  0  0  0
    8.4838  -16.6349   21.8010 N   0  0  0  0  0  0  0  0  0  0  0  0
    8.7296  -15.9555   23.0927 C   0  0  1  0  0  0  0  0  0  0  0  0
    7.4668  -15.2272   23.3919 C   0  0  0  0  0  0  0  0  0  0  0  0
    7.2805  -14.7361   24.7563 C   0  0  0  0  0  0  0  0  0  0  0  0
    7.1301  -15.5352   25.8786 C   0  0  0  0  0  0  0  0  0  0  0  0
    6.9512  -14.7431   26.9462 N   0  0  0  0  0  0  0  0  0  0  0  0
    6.9800  -13.4597   26.5627 C   0  0  0  0  0  0  0  0  0  0  0  0
    6.8565  -12.2767   27.2934 C   0  0  0  0  0  0  0  0  0  0  0  0
    6.9492  -11.0997   26.5964 C   0  0  0  0  0  0  0  0  0  0  0  0
    7.1544  -11.0637   25.2382 C   0  0  0  0  0  0  0  0  0  0  0  0
    7.2748  -12.2254   24.5217 C   0  0  0  0  0  0  0  0  0  0  0  0
    7.1841  -13.4324   25.2033 C   0  0  0  0  0  0  0  0  0  0  0  0
    9.2046  -16.9263   24.0643 C   0  0  0  0  0  0  0  0  0  0  0  0
    8.8662  -18.2664   23.9950 O   0  0  0  0  0  0  0  0  0  0  0  0
    9.9464  -16.5708   25.0147 O   0  0  0  0  0  0  0  0  0  0  0  0
  2  1  1  0
  3  9  1  0
  3  2  1  0
  4  3  2  0
  6  5  1  6
  6  8  1  0
  7  6  1  0
  8 10  1  0
  8  9  1  6
 10 12  1  0
 11 10  2  0
 12 13  1  0
 13 14  1  1
 14 15  1  0
 15 23  1  0
 15 16  2  0
 16 17  1  0
 17 18  1  0
 18 19  2  0
 20 19  1  0
 21 20  2  0
 22 23  2  0
 22 21  1  0
 23 18  1  0
 24 25  1  0
 24 13  1  0
 26 24  2  0
M  END
$$$$
