GTW.pdb
     RDKit          3D

 26 27  0  0  1  0  0  0  0  0999 V2000
    7.4555  -12.8803   17.9473 N   0  0  0  0  0  0  0  0  0  0  0  0
    8.5963  -13.2095   18.7755 C   0  0  0  0  0  0  0  0  0  0  0  0
    8.1700  -14.1521   19.8511 C   0  0  0  0  0  0  0  0  0  0  0  0
    6.9500  -14.2855   20.1487 O   0  0  0  0  0  0  0  0  0  0  0  0
    8.6357  -17.5444   19.5815 C   0  0  0  0  0  0  0  0  0  0  0  0
    9.3635  -17.2276   20.8616 C   0  0  1  0  0  0  0  0  0  0  0  0
   10.7387  -17.2308   20.7325 O   0  0  0  0  0  0  0  0  0  0  0  0
    8.8244  -15.9258   21.4432 C   0  0  2  0  0  0  0  0  0  0  0  0
    9.1840  -14.8828   20.5160 N   0  0  0  0  0  0  0  0  0  0  0  0
    9.5147  -15.7105   22.7450 C   0  0  0  0  0  0  0  0  0  0  0  0
   10.5068  -14.9229   22.7980 O   0  0  0  0  0  0  0  0  0  0  0  0
    9.1091  -16.3477   23.9221 N   0  0  0  0  0  0  0  0  0  0  0  0
    9.8217  -16.1024   25.1958 C   0  0  1  0  0  0  0  0  0  0  0  0
    8.7728  -16.1909   26.2478 C   0  0  0  0  0  0  0  0  0  0  0  0
    7.6052  -15.3222   26.1085 C   0  0  0  0  0  0  0  0  0  0  0  0
    6.3486  -15.7344   25.6940 C   0  0  0  0  0  0  0  0  0  0  0  0
    5.5393  -14.6655   25.6558 N   0  0  0  0  0  0  0  0  0  0  0  0
    6.2198  -13.5737   26.0298 C   0  0  0  0  0  0  0  0  0  0  0  0
    5.8236  -12.2419   26.1639 C   0  0  0  0  0  0  0  0  0  0  0  0
    6.7713  -11.3485   26.5919 C   0  0  0  0  0  0  0  0  0  0  0  0
    8.0603  -11.7264   26.8816 C   0  0  0  0  0  0  0  0  0  0  0  0
    8.4486  -13.0337   26.7490 C   0  0  0  0  0  0  0  0  0  0  0  0
    7.5079  -13.9598   26.3164 C   0  0  0  0  0  0  0  0  0  0  0  0
   10.9610  -16.9997   25.2903 C   0  0  0  0  0  0  0  0  0  0  0  0
   11.1180  -18.0850   24.4461 O   0  0  0  0  0  0  0  0  0  0  0  0
   11.8507  -16.8157   26.1590 O   0  0  0  0  0  0  0  0  0  0  0  0
  2  1  1  0
  3  9  1  0
  3  2  1  0
  4  3  2  0
  6  5  1  6
  6  8  1  0
  7  6  1  0
  8 10  1  0
  8  9  1  6
 10 12  1  0
 11 10  2  0
 12 13  1  0
 13 14  1  1
 14 15  1  0
 15 23  1  0
 15 16  2  0
 16 17  1  0
 17 18  1  0
 18 19  2  0
 20 19  1  0
 21 20  2  0
 22 23  2  0
 22 21  1  0
 23 18  1  0
 24 25  1  0
 24 13  1  0
 26 24  2  0
M  END
$$$$
