GTW.pdb
     RDKit          3D

 26 27  0  0  1  0  0  0  0  0999 V2000
    7.5696  -12.5621   18.2902 N   0  0  0  0  0  0  0  0  0  0  0  0
    8.6908  -12.9712   19.1094 C   0  0  0  0  0  0  0  0  0  0  0  0
    8.3093  -14.1768   19.9020 C   0  0  0  0  0  0  0  0  0  0  0  0
    7.1154  -14.5880   19.9206 O   0  0  0  0  0  0  0  0  0  0  0  0
    8.8775  -17.4742   19.5174 C   0  0  0  0  0  0  0  0  0  0  0  0
    9.6157  -17.1862   20.7983 C   0  0  1  0  0  0  0  0  0  0  0  0
   10.9849  -17.0957   20.6403 O   0  0  0  0  0  0  0  0  0  0  0  0
    9.0122  -15.9563   21.4666 C   0  0  2  0  0  0  0  0  0  0  0  0
    9.3351  -14.8323   20.6246 N   0  0  0  0  0  0  0  0  0  0  0  0
    9.6772  -15.8087   22.7908 C   0  0  0  0  0  0  0  0  0  0  0  0
   10.6442  -14.9977   22.9120 O   0  0  0  0  0  0  0  0  0  0  0  0
    9.2746  -16.5349   23.9162 N   0  0  0  0  0  0  0  0  0  0  0  0
    9.8624  -16.2531   25.2448 C   0  0  1  0  0  0  0  0  0  0  0  0
    8.7260  -16.3592   26.1997 C   0  0  0  0  0  0  0  0  0  0  0  0
    7.5749  -15.4862   25.9754 C   0  0  0  0  0  0  0  0  0  0  0  0
    6.3253  -15.9069   25.5484 C   0  0  0  0  0  0  0  0  0  0  0  0
    5.5323  -14.8323   25.4239 N   0  0  0  0  0  0  0  0  0  0  0  0
    6.2166  -13.7288   25.7539 C   0  0  0  0  0  0  0  0  0  0  0  0
    5.8350  -12.3867   25.7984 C   0  0  0  0  0  0  0  0  0  0  0  0
    6.7820  -11.4812   26.2018 C   0  0  0  0  0  0  0  0  0  0  0  0
    8.0567  -11.8570   26.5513 C   0  0  0  0  0  0  0  0  0  0  0  0
    8.4307  -13.1744   26.5066 C   0  0  0  0  0  0  0  0  0  0  0  0
    7.4903  -14.1129   26.1007 C   0  0  0  0  0  0  0  0  0  0  0  0
   11.0133  -17.1155   25.4545 C   0  0  0  0  0  0  0  0  0  0  0  0
   11.9209  -16.8998   26.4767 O   0  0  0  0  0  0  0  0  0  0  0  0
   11.2241  -18.0972   24.6984 O   0  0  0  0  0  0  0  0  0  0  0  0
  2  1  1  0
  3  9  1  0
  3  2  1  0
  4  3  2  0
  6  5  1  6
  6  8  1  0
  7  6  1  0
  8 10  1  0
  8  9  1  6
 10 12  1  0
 11 10  2  0
 12 13  1  0
 13 14  1  1
 14 15  1  0
 15 23  1  0
 15 16  2  0
 16 17  1  0
 17 18  1  0
 18 19  2  0
 20 19  1  0
 21 20  2  0
 22 23  2  0
 22 21  1  0
 23 18  1  0
 24 25  1  0
 24 13  1  0
 26 24  2  0
M  END
$$$$
