GTW.pdb
     RDKit          3D

 26 27  0  0  1  0  0  0  0  0999 V2000
    7.7194  -12.5476   18.0472 N   0  0  0  0  0  0  0  0  0  0  0  0
    8.7892  -13.0273   18.8964 C   0  0  0  0  0  0  0  0  0  0  0  0
    8.2597  -14.0829   19.8088 C   0  0  0  0  0  0  0  0  0  0  0  0
    7.0162  -14.2519   19.9505 O   0  0  0  0  0  0  0  0  0  0  0  0
    8.2241  -17.4406   19.5366 C   0  0  0  0  0  0  0  0  0  0  0  0
    9.0921  -17.2397   20.7510 C   0  0  1  0  0  0  0  0  0  0  0  0
   10.4421  -17.3843   20.4971 O   0  0  0  0  0  0  0  0  0  0  0  0
    8.7501  -15.9057   21.4044 C   0  0  2  0  0  0  0  0  0  0  0  0
    9.2039  -14.8786   20.5012 N   0  0  0  0  0  0  0  0  0  0  0  0
    9.5143  -15.8362   22.6806 C   0  0  0  0  0  0  0  0  0  0  0  0
   10.6167  -15.2105   22.7099 O   0  0  0  0  0  0  0  0  0  0  0  0
    9.0612  -16.4385   23.8586 N   0  0  0  0  0  0  0  0  0  0  0  0
    9.8028  -16.2645   25.1275 C   0  0  1  0  0  0  0  0  0  0  0  0
    8.7567  -16.2417   26.1857 C   0  0  0  0  0  0  0  0  0  0  0  0
    7.6353  -15.3214   26.0035 C   0  0  0  0  0  0  0  0  0  0  0  0
    6.3639  -15.6848   25.5886 C   0  0  0  0  0  0  0  0  0  0  0  0
    5.6095  -14.5790   25.5048 N   0  0  0  0  0  0  0  0  0  0  0  0
    6.3399  -13.5101   25.8497 C   0  0  0  0  0  0  0  0  0  0  0  0
    6.0094  -12.1565   25.9342 C   0  0  0  0  0  0  0  0  0  0  0  0
    6.9962  -11.2970   26.3429 C   0  0  0  0  0  0  0  0  0  0  0  0
    8.2617  -11.7282   26.6602 C   0  0  0  0  0  0  0  0  0  0  0  0
    8.5855  -13.0569   26.5763 C   0  0  0  0  0  0  0  0  0  0  0  0
    7.6042  -13.9496   26.1642 C   0  0  0  0  0  0  0  0  0  0  0  0
   10.8442  -17.2741   25.2185 C   0  0  0  0  0  0  0  0  0  0  0  0
   11.8784  -17.1875   26.1339 O   0  0  0  0  0  0  0  0  0  0  0  0
   10.8384  -18.2709   24.4528 O   0  0  0  0  0  0  0  0  0  0  0  0
  2  1  1  0
  3  9  1  0
  3  2  1  0
  4  3  2  0
  6  5  1  6
  6  8  1  0
  7  6  1  0
  8 10  1  0
  8  9  1  6
 10 12  1  0
 11 10  2  0
 12 13  1  0
 13 14  1  1
 14 15  1  0
 15 23  1  0
 15 16  2  0
 16 17  1  0
 17 18  1  0
 18 19  2  0
 20 19  1  0
 21 20  2  0
 22 23  2  0
 22 21  1  0
 23 18  1  0
 24 25  1  0
 24 13  1  0
 26 24  2  0
M  END
$$$$
