GTW.pdb
     RDKit          3D

 26 27  0  0  1  0  0  0  0  0999 V2000
    7.6331  -12.9461   17.6002 N   0  0  0  0  0  0  0  0  0  0  0  0
    8.6456  -13.1383   18.6169 C   0  0  0  0  0  0  0  0  0  0  0  0
    8.2151  -14.2265   19.5431 C   0  0  0  0  0  0  0  0  0  0  0  0
    7.0218  -14.6398   19.5457 O   0  0  0  0  0  0  0  0  0  0  0  0
    8.7642  -17.3802   19.3150 C   0  0  0  0  0  0  0  0  0  0  0  0
    9.4447  -17.1224   20.6338 C   0  0  1  0  0  0  0  0  0  0  0  0
   10.8227  -17.0840   20.5480 O   0  0  0  0  0  0  0  0  0  0  0  0
    8.8542  -15.8713   21.2737 C   0  0  2  0  0  0  0  0  0  0  0  0
    9.1943  -14.7694   20.4095 N   0  0  0  0  0  0  0  0  0  0  0  0
    9.5161  -15.7040   22.5971 C   0  0  0  0  0  0  0  0  0  0  0  0
   10.4811  -14.8894   22.7092 O   0  0  0  0  0  0  0  0  0  0  0  0
    9.1127  -16.4157   23.7314 N   0  0  0  0  0  0  0  0  0  0  0  0
    9.8127  -16.2349   25.0228 C   0  0  1  0  0  0  0  0  0  0  0  0
    8.7543  -16.3799   26.0588 C   0  0  0  0  0  0  0  0  0  0  0  0
    7.6233  -15.4553   25.9994 C   0  0  0  0  0  0  0  0  0  0  0  0
    6.3274  -15.8010   25.6502 C   0  0  0  0  0  0  0  0  0  0  0  0
    5.5690  -14.6949   25.6744 N   0  0  0  0  0  0  0  0  0  0  0  0
    6.3204  -13.6431   26.0264 C   0  0  0  0  0  0  0  0  0  0  0  0
    5.9961  -12.2969   26.2034 C   0  0  0  0  0  0  0  0  0  0  0  0
    7.0076  -11.4566   26.5911 C   0  0  0  0  0  0  0  0  0  0  0  0
    8.2913  -11.8994   26.8016 C   0  0  0  0  0  0  0  0  0  0  0  0
    8.6089  -13.2207   26.6269 C   0  0  0  0  0  0  0  0  0  0  0  0
    7.6026  -14.0939   26.2336 C   0  0  0  0  0  0  0  0  0  0  0  0
   10.9534  -17.1334   25.0817 C   0  0  0  0  0  0  0  0  0  0  0  0
   11.9558  -16.9931   26.0255 O   0  0  0  0  0  0  0  0  0  0  0  0
   11.0674  -18.0783   24.2607 O   0  0  0  0  0  0  0  0  0  0  0  0
  2  1  1  0
  3  9  1  0
  3  2  1  0
  4  3  2  0
  6  5  1  6
  6  8  1  0
  7  6  1  0
  8 10  1  0
  8  9  1  6
 10 12  1  0
 11 10  2  0
 12 13  1  0
 13 14  1  1
 14 15  1  0
 15 23  1  0
 15 16  2  0
 16 17  1  0
 17 18  1  0
 18 19  2  0
 20 19  1  0
 21 20  2  0
 22 23  2  0
 22 21  1  0
 23 18  1  0
 24 25  1  0
 24 13  1  0
 26 24  2  0
M  END
$$$$
