NFY.pdb
     RDKit          3D

 32 33  0  0  1  0  0  0  0  0999 V2000
   28.9893  -19.7823  -16.8448 N   0  0  0  0  0  0  0  0  0  0  0  0
   28.4388  -18.7433  -16.0683 C   0  0  0  0  0  0  0  0  0  0  0  0
   28.1704  -17.6365  -16.5740 O   0  0  0  0  0  0  0  0  0  0  0  0
   28.1748  -18.9671  -14.6336 C   0  0  0  0  0  0  0  0  0  0  0  0
   28.5653  -20.3828  -14.3076 C   0  0  2  0  0  0  0  0  0  0  0  0
   29.0374  -21.1099  -15.4451 N   0  0  0  0  0  0  0  0  0  0  0  0
   27.3649  -21.0531  -13.7437 C   0  0  0  0  0  0  0  0  0  0  0  0
   26.4991  -21.5916  -14.4914 O   0  0  0  0  0  0  0  0  0  0  0  0
   27.1872  -21.0905  -12.3526 N   0  0  0  0  0  0  0  0  0  0  0  0
   26.0849  -21.7968  -11.6786 C   0  0  1  0  0  0  0  0  0  0  0  0
   26.6740  -22.2517  -10.3911 C   0  0  0  0  0  0  0  0  0  0  0  0
   26.9031  -21.2687   -9.3532 C   0  0  0  0  0  0  0  0  0  0  0  0
   28.1220  -20.9443   -8.7956 C   0  0  0  0  0  0  0  0  0  0  0  0
   28.2657  -19.9830   -7.8213 C   0  0  0  0  0  0  0  0  0  0  0  0
   27.1596  -19.2911   -7.3564 C   0  0  0  0  0  0  0  0  0  0  0  0
   25.9382  -19.6012   -7.9003 C   0  0  0  0  0  0  0  0  0  0  0  0
   25.8011  -20.5655   -8.8765 C   0  0  0  0  0  0  0  0  0  0  0  0
   24.9829  -20.8136  -11.5567 C   0  0  0  0  0  0  0  0  0  0  0  0
   25.2075  -19.5701  -11.3489 O   0  0  0  0  0  0  0  0  0  0  0  0
   18.6517  -19.0756  -17.0856 O   0  0  0  0  0  0  0  0  0  0  0  0
   19.7182  -19.3318  -16.2678 C   0  0  0  0  0  0  0  0  0  0  0  0
   20.2413  -20.5958  -16.1128 C   0  0  0  0  0  0  0  0  0  0  0  0
   21.3143  -20.7320  -15.2639 C   0  0  0  0  0  0  0  0  0  0  0  0
   21.8924  -19.6937  -14.5658 C   0  0  0  0  0  0  0  0  0  0  0  0
   23.0423  -19.8751  -13.6546 C   0  0  0  0  0  0  0  0  0  0  0  0
   22.6245  -20.2492  -12.2757 C   0  0  2  0  0  0  0  0  0  0  0  0
   23.6030  -21.1489  -11.6585 N   0  0  0  0  0  0  0  0  0  0  0  0
   21.2814  -20.8081  -12.1326 C   0  0  0  0  0  0  0  0  0  0  0  0
   20.2910  -20.0418  -11.8706 O   0  0  0  0  0  0  0  0  0  0  0  0
   21.3563  -18.4310  -14.7319 C   0  0  0  0  0  0  0  0  0  0  0  0
   20.2828  -18.2667  -15.5754 C   0  0  0  0  0  0  0  0  0  0  0  0
   20.9558  -22.1429  -12.2581 O   0  0  0  0  0  0  0  0  0  0  0  0
  1  2  1  0
  2  3  2  0
  4  5  1  0
  4  2  1  0
  5  6  1  6
  7  9  1  0
  7  5  1  0
  8  7  2  0
 10  9  1  0
 10 11  1  1
 11 12  1  0
 12 17  1  0
 12 13  2  0
 13 14  1  0
 14 15  2  0
 16 15  1  0
 17 16  2  0
 18 27  1  0
 18 10  1  0
 19 18  2  0
 20 21  1  0
 21 31  2  0
 22 21  1  0
 22 23  2  0
 23 24  1  0
 24 30  2  0
 24 25  1  0
 26 25  1  6
 26 28  1  0
 26 27  1  0
 28 32  1  0
 29 28  2  0
 31 30  1  0
M  END
$$$$
