NFY.pdb
     RDKit          3D

 32 33  0  0  1  0  0  0  0  0999 V2000
   29.1082  -18.1776  -16.4157 N   0  0  0  0  0  0  0  0  0  0  0  0
   27.8387  -17.9091  -16.9650 C   0  0  0  0  0  0  0  0  0  0  0  0
   27.6511  -16.9155  -17.6932 O   0  0  0  0  0  0  0  0  0  0  0  0
   26.7122  -18.8173  -16.6748 C   0  0  0  0  0  0  0  0  0  0  0  0
   26.9404  -19.4159  -15.3137 C   0  0  2  0  0  0  0  0  0  0  0  0
   28.1361  -20.1970  -15.2385 N   0  0  0  0  0  0  0  0  0  0  0  0
   25.7624  -20.2664  -15.0023 C   0  0  0  0  0  0  0  0  0  0  0  0
   24.8697  -20.4974  -15.8673 O   0  0  0  0  0  0  0  0  0  0  0  0
   25.6368  -20.8260  -13.7219 N   0  0  0  0  0  0  0  0  0  0  0  0
   24.5054  -21.6659  -13.2942 C   0  0  1  0  0  0  0  0  0  0  0  0
   25.0143  -22.3832  -12.0950 C   0  0  0  0  0  0  0  0  0  0  0  0
   25.4635  -21.6001  -10.9632 C   0  0  0  0  0  0  0  0  0  0  0  0
   24.6669  -21.0928   -9.9583 C   0  0  0  0  0  0  0  0  0  0  0  0
   25.1686  -20.3693   -8.9005 C   0  0  0  0  0  0  0  0  0  0  0  0
   26.5280  -20.1202   -8.8089 C   0  0  0  0  0  0  0  0  0  0  0  0
   27.3359  -20.6177   -9.8007 C   0  0  0  0  0  0  0  0  0  0  0  0
   26.8268  -21.3421  -10.8579 C   0  0  0  0  0  0  0  0  0  0  0  0
   23.3782  -20.7371  -13.0438 C   0  0  0  0  0  0  0  0  0  0  0  0
   23.5222  -19.6736  -12.3451 O   0  0  0  0  0  0  0  0  0  0  0  0
   21.3807  -19.8030  -19.5744 O   0  0  0  0  0  0  0  0  0  0  0  0
   21.2397  -19.5760  -18.2325 C   0  0  0  0  0  0  0  0  0  0  0  0
   20.0654  -19.8318  -17.5611 C   0  0  0  0  0  0  0  0  0  0  0  0
   20.0417  -19.5643  -16.2126 C   0  0  0  0  0  0  0  0  0  0  0  0
   21.1082  -19.0613  -15.4990 C   0  0  0  0  0  0  0  0  0  0  0  0
   21.0477  -18.7779  -14.0493 C   0  0  0  0  0  0  0  0  0  0  0  0
   20.9606  -20.0169  -13.2287 C   0  0  2  0  0  0  0  0  0  0  0  0
   22.0602  -20.9325  -13.5454 N   0  0  0  0  0  0  0  0  0  0  0  0
   19.6898  -20.7379  -13.2731 C   0  0  0  0  0  0  0  0  0  0  0  0
   18.6215  -20.1846  -12.8381 O   0  0  0  0  0  0  0  0  0  0  0  0
   22.2799  -18.8098  -16.1869 C   0  0  0  0  0  0  0  0  0  0  0  0
   22.3309  -19.0686  -17.5365 C   0  0  0  0  0  0  0  0  0  0  0  0
   19.5153  -22.0165  -13.7608 O   0  0  0  0  0  0  0  0  0  0  0  0
  1  2  1  0
  2  3  2  0
  4  5  1  0
  4  2  1  0
  5  6  1  6
  7  9  1  0
  7  5  1  0
  8  7  2  0
 10  9  1  0
 10 11  1  1
 11 12  1  0
 12 17  1  0
 12 13  2  0
 13 14  1  0
 14 15  2  0
 16 15  1  0
 17 16  2  0
 18 27  1  0
 18 10  1  0
 19 18  2  0
 20 21  1  0
 21 31  2  0
 22 21  1  0
 22 23  2  0
 23 24  1  0
 24 30  2  0
 24 25  1  0
 26 25  1  6
 26 28  1  0
 26 27  1  0
 28 32  1  0
 29 28  2  0
 31 30  1  0
M  END
$$$$
