NFY.pdb
     RDKit          3D

 32 33  0  0  1  0  0  0  0  0999 V2000
   20.9837  -23.9850   -6.7077 N   0  0  0  0  0  0  0  0  0  0  0  0
   20.6574  -22.9947   -7.6555 C   0  0  0  0  0  0  0  0  0  0  0  0
   19.4709  -22.7541   -7.9506 O   0  0  0  0  0  0  0  0  0  0  0  0
   21.7360  -22.2289   -8.3101 C   0  0  0  0  0  0  0  0  0  0  0  0
   22.6139  -21.6541   -7.2322 C   0  0  2  0  0  0  0  0  0  0  0  0
   21.8978  -20.8350   -6.3039 N   0  0  0  0  0  0  0  0  0  0  0  0
   23.6687  -20.8511   -7.9034 C   0  0  0  0  0  0  0  0  0  0  0  0
   23.3982  -19.7589   -8.4800 O   0  0  0  0  0  0  0  0  0  0  0  0
   24.9934  -21.3130   -7.8979 N   0  0  0  0  0  0  0  0  0  0  0  0
   26.1033  -20.6496   -8.6024 C   0  0  1  0  0  0  0  0  0  0  0  0
   27.2980  -20.9503   -7.7696 C   0  0  0  0  0  0  0  0  0  0  0  0
   27.6114  -20.0632   -6.6692 C   0  0  0  0  0  0  0  0  0  0  0  0
   27.3569  -18.7088   -6.6192 C   0  0  0  0  0  0  0  0  0  0  0  0
   27.6683  -17.9298   -5.5282 C   0  0  0  0  0  0  0  0  0  0  0  0
   28.2642  -18.4973   -4.4141 C   0  0  0  0  0  0  0  0  0  0  0  0
   28.5249  -19.8444   -4.4466 C   0  0  0  0  0  0  0  0  0  0  0  0
   28.2102  -20.6193   -5.5430 C   0  0  0  0  0  0  0  0  0  0  0  0
   26.1236  -21.2255   -9.9676 C   0  0  0  0  0  0  0  0  0  0  0  0
   26.0252  -22.4862  -10.1701 O   0  0  0  0  0  0  0  0  0  0  0  0
   23.4605  -23.9958  -17.4889 O   0  0  0  0  0  0  0  0  0  0  0  0
   23.7151  -23.3963  -16.2857 C   0  0  0  0  0  0  0  0  0  0  0  0
   23.2091  -22.1589  -15.9571 C   0  0  0  0  0  0  0  0  0  0  0  0
   23.5326  -21.6566  -14.7187 C   0  0  0  0  0  0  0  0  0  0  0  0
   24.3232  -22.3071  -13.7960 C   0  0  0  0  0  0  0  0  0  0  0  0
   24.6581  -21.7357  -12.4743 C   0  0  0  0  0  0  0  0  0  0  0  0
   25.9530  -21.0015  -12.4813 C   0  0  2  0  0  0  0  0  0  0  0  0
   26.2494  -20.4511  -11.1557 N   0  0  0  0  0  0  0  0  0  0  0  0
   26.1028  -19.9577  -13.4936 C   0  0  0  0  0  0  0  0  0  0  0  0
   25.5654  -18.8101  -13.3179 O   0  0  0  0  0  0  0  0  0  0  0  0
   24.8235  -23.5483  -14.1404 C   0  0  0  0  0  0  0  0  0  0  0  0
   24.5152  -24.0742  -15.3731 C   0  0  0  0  0  0  0  0  0  0  0  0
   26.7995  -20.0891  -14.6772 O   0  0  0  0  0  0  0  0  0  0  0  0
  1  2  1  0
  2  3  2  0
  4  5  1  0
  4  2  1  0
  5  6  1  1
  7  9  1  0
  7  5  1  0
  8  7  2  0
 10  9  1  0
 10 11  1  1
 11 12  1  0
 12 17  1  0
 12 13  2  0
 13 14  1  0
 14 15  2  0
 16 15  1  0
 17 16  2  0
 18 27  1  0
 18 10  1  0
 19 18  2  0
 20 21  1  0
 21 31  2  0
 22 21  1  0
 22 23  2  0
 23 24  1  0
 24 30  2  0
 24 25  1  0
 26 25  1  1
 26 28  1  0
 26 27  1  0
 28 32  1  0
 29 28  2  0
 31 30  1  0
M  END
$$$$
