NFY.pdb
     RDKit          3D

 32 33  0  0  1  0  0  0  0  0999 V2000
   26.0995  -16.4924  -24.3463 N   0  0  0  0  0  0  0  0  0  0  0  0
   24.8400  -16.7189  -23.7566 C   0  0  0  0  0  0  0  0  0  0  0  0
   24.1910  -17.7531  -24.0055 O   0  0  0  0  0  0  0  0  0  0  0  0
   24.2787  -15.7174  -22.8293 C   0  0  0  0  0  0  0  0  0  0  0  0
   24.4846  -16.2203  -21.4266 C   0  0  2  0  0  0  0  0  0  0  0  0
   23.6831  -17.3638  -21.1181 N   0  0  0  0  0  0  0  0  0  0  0  0
   24.1480  -15.1052  -20.5039 C   0  0  0  0  0  0  0  0  0  0  0  0
   22.9877  -14.9803  -20.0175 O   0  0  0  0  0  0  0  0  0  0  0  0
   25.1376  -14.1706  -20.1640 N   0  0  0  0  0  0  0  0  0  0  0  0
   24.9227  -13.0331  -19.2539 C   0  0  1  0  0  0  0  0  0  0  0  0
   26.2342  -12.8530  -18.5763 C   0  0  0  0  0  0  0  0  0  0  0  0
   26.4267  -11.6806  -17.7492 C   0  0  0  0  0  0  0  0  0  0  0  0
   26.1942  -11.5958  -16.3925 C   0  0  0  0  0  0  0  0  0  0  0  0
   26.4174  -10.4481  -15.6665 C   0  0  0  0  0  0  0  0  0  0  0  0
   26.8960   -9.3093  -16.2929 C   0  0  0  0  0  0  0  0  0  0  0  0
   27.1331   -9.3757  -17.6432 C   0  0  0  0  0  0  0  0  0  0  0  0
   26.9074  -10.5289  -18.3648 C   0  0  0  0  0  0  0  0  0  0  0  0
   24.4923  -11.9014  -20.1081 C   0  0  0  0  0  0  0  0  0  0  0  0
   25.0518  -11.6537  -21.2331 O   0  0  0  0  0  0  0  0  0  0  0  0
   20.0733   -5.5115  -24.1199 O   0  0  0  0  0  0  0  0  0  0  0  0
   20.4305   -6.5586  -23.3148 C   0  0  0  0  0  0  0  0  0  0  0  0
   20.1960   -6.5585  -21.9582 C   0  0  0  0  0  0  0  0  0  0  0  0
   20.5989   -7.6667  -21.2510 C   0  0  0  0  0  0  0  0  0  0  0  0
   21.2164   -8.7653  -21.8091 C   0  0  0  0  0  0  0  0  0  0  0  0
   21.6440   -9.9391  -21.0187 C   0  0  0  0  0  0  0  0  0  0  0  0
   23.0770   -9.8689  -20.6217 C   0  0  2  0  0  0  0  0  0  0  0  0
   23.4399  -11.0043  -19.7691 N   0  0  0  0  0  0  0  0  0  0  0  0
   23.5182   -8.6227  -19.9979 C   0  0  0  0  0  0  0  0  0  0  0  0
   23.5269   -8.5098  -18.7236 O   0  0  0  0  0  0  0  0  0  0  0  0
   21.4448   -8.7505  -23.1718 C   0  0  0  0  0  0  0  0  0  0  0  0
   21.0515   -7.6543  -23.9031 C   0  0  0  0  0  0  0  0  0  0  0  0
   23.9484   -7.5006  -20.6756 O   0  0  0  0  0  0  0  0  0  0  0  0
  1  2  1  0
  2  3  2  0
  4  5  1  0
  4  2  1  0
  5  6  1  1
  7  9  1  0
  7  5  1  0
  8  7  2  0
 10  9  1  0
 10 11  1  6
 11 12  1  0
 12 17  1  0
 12 13  2  0
 13 14  1  0
 14 15  2  0
 16 15  1  0
 17 16  2  0
 18 27  1  0
 18 10  1  0
 19 18  2  0
 20 21  1  0
 21 31  2  0
 22 21  1  0
 22 23  2  0
 23 24  1  0
 24 30  2  0
 24 25  1  0
 26 25  1  1
 26 28  1  0
 26 27  1  0
 28 32  1  0
 29 28  2  0
 31 30  1  0
M  END
$$$$
