NFY.pdb
     RDKit          3D

 32 33  0  0  1  0  0  0  0  0999 V2000
   30.0782  -24.7298  -21.8391 N   0  0  0  0  0  0  0  0  0  0  0  0
   31.0958  -25.2105  -22.6868 C   0  0  0  0  0  0  0  0  0  0  0  0
   31.3502  -24.6469  -23.7687 O   0  0  0  0  0  0  0  0  0  0  0  0
   31.8741  -26.3998  -22.2894 C   0  0  0  0  0  0  0  0  0  0  0  0
   31.2987  -26.9185  -20.9999 C   0  0  2  0  0  0  0  0  0  0  0  0
   31.6183  -26.0973  -19.8734 N   0  0  0  0  0  0  0  0  0  0  0  0
   31.8384  -28.2877  -20.7948 C   0  0  0  0  0  0  0  0  0  0  0  0
   31.6915  -29.1911  -21.6671 O   0  0  0  0  0  0  0  0  0  0  0  0
   32.5260  -28.5859  -19.6088 N   0  0  0  0  0  0  0  0  0  0  0  0
   33.1334  -29.8940  -19.3120 C   0  0  1  0  0  0  0  0  0  0  0  0
   34.5172  -29.5654  -18.8774 C   0  0  0  0  0  0  0  0  0  0  0  0
   35.5248  -29.3479  -19.8938 C   0  0  0  0  0  0  0  0  0  0  0  0
   36.1859  -30.3268  -20.6057 C   0  0  0  0  0  0  0  0  0  0  0  0
   37.1228  -30.0431  -21.5730 C   0  0  0  0  0  0  0  0  0  0  0  0
   37.4410  -28.7284  -21.8709 C   0  0  0  0  0  0  0  0  0  0  0  0
   36.7926  -27.7411  -21.1718 C   0  0  0  0  0  0  0  0  0  0  0  0
   35.8546  -28.0321  -20.2038 C   0  0  0  0  0  0  0  0  0  0  0  0
   32.2769  -30.5170  -18.2756 C   0  0  0  0  0  0  0  0  0  0  0  0
   31.9144  -29.8788  -17.2262 O   0  0  0  0  0  0  0  0  0  0  0  0
   25.8929  -33.8461  -13.6751 O   0  0  0  0  0  0  0  0  0  0  0  0
   26.8525  -33.2695  -14.4617 C   0  0  0  0  0  0  0  0  0  0  0  0
   27.9408  -32.6119  -13.9340 C   0  0  0  0  0  0  0  0  0  0  0  0
   28.8403  -32.0720  -14.8228 C   0  0  0  0  0  0  0  0  0  0  0  0
   28.7217  -32.1469  -16.1939 C   0  0  0  0  0  0  0  0  0  0  0  0
   29.7040  -31.5490  -17.1229 C   0  0  0  0  0  0  0  0  0  0  0  0
   30.8999  -32.4127  -17.3227 C   0  0  2  0  0  0  0  0  0  0  0  0
   31.7854  -31.8514  -18.3466 N   0  0  0  0  0  0  0  0  0  0  0  0
   30.6426  -33.8223  -17.6118 C   0  0  0  0  0  0  0  0  0  0  0  0
   29.9707  -34.5349  -16.7887 O   0  0  0  0  0  0  0  0  0  0  0  0
   27.6241  -32.8103  -16.7084 C   0  0  0  0  0  0  0  0  0  0  0  0
   26.7090  -33.3599  -15.8415 C   0  0  0  0  0  0  0  0  0  0  0  0
   31.0701  -34.4963  -18.7371 O   0  0  0  0  0  0  0  0  0  0  0  0
  1  2  1  0
  2  3  2  0
  4  5  1  0
  4  2  1  0
  5  6  1  1
  7  9  1  0
  7  5  1  0
  8  7  2  0
 10  9  1  0
 10 11  1  1
 11 12  1  0
 12 17  1  0
 12 13  2  0
 13 14  1  0
 14 15  2  0
 16 15  1  0
 17 16  2  0
 18 27  1  0
 18 10  1  0
 19 18  2  0
 20 21  1  0
 21 31  2  0
 22 21  1  0
 22 23  2  0
 23 24  1  0
 24 30  2  0
 24 25  1  0
 26 25  1  6
 26 28  1  0
 26 27  1  0
 28 32  1  0
 29 28  2  0
 31 30  1  0
M  END
$$$$
