NFY.pdb
     RDKit          3D

 32 33  0  0  1  0  0  0  0  0999 V2000
   26.4153  -21.3763  -19.0900 N   0  0  0  0  0  0  0  0  0  0  0  0
   26.0338  -20.5874  -17.9865 C   0  0  0  0  0  0  0  0  0  0  0  0
   26.4584  -19.4237  -17.8515 O   0  0  0  0  0  0  0  0  0  0  0  0
   25.1170  -21.1457  -16.9737 C   0  0  0  0  0  0  0  0  0  0  0  0
   25.8676  -21.2402  -15.6735 C   0  0  2  0  0  0  0  0  0  0  0  0
   26.8468  -22.2826  -15.6663 N   0  0  0  0  0  0  0  0  0  0  0  0
   24.8665  -21.4818  -14.6023 C   0  0  0  0  0  0  0  0  0  0  0  0
   24.4799  -22.6505  -14.3136 O   0  0  0  0  0  0  0  0  0  0  0  0
   24.3384  -20.3913  -13.8951 N   0  0  0  0  0  0  0  0  0  0  0  0
   23.3643  -20.5114  -12.7973 C   0  0  1  0  0  0  0  0  0  0  0  0
   23.8738  -19.5840  -11.7523 C   0  0  0  0  0  0  0  0  0  0  0  0
   24.7501  -20.1143  -10.7291 C   0  0  0  0  0  0  0  0  0  0  0  0
   26.1092  -20.3160  -10.8474 C   0  0  0  0  0  0  0  0  0  0  0  0
   26.8833  -20.8093   -9.8220 C   0  0  0  0  0  0  0  0  0  0  0  0
   26.3058  -21.1283   -8.6041 C   0  0  0  0  0  0  0  0  0  0  0  0
   24.9539  -20.9338   -8.4687 C   0  0  0  0  0  0  0  0  0  0  0  0
   24.1840  -20.4390   -9.5001 C   0  0  0  0  0  0  0  0  0  0  0  0
   22.0490  -20.1496  -13.3761 C   0  0  0  0  0  0  0  0  0  0  0  0
   21.8260  -18.9909  -13.8736 O   0  0  0  0  0  0  0  0  0  0  0  0
   19.6278  -26.2361  -16.8710 O   0  0  0  0  0  0  0  0  0  0  0  0
   19.6684  -24.9101  -16.5364 C   0  0  0  0  0  0  0  0  0  0  0  0
   20.8070  -24.1491  -16.6769 C   0  0  0  0  0  0  0  0  0  0  0  0
   20.7283  -22.8268  -16.3080 C   0  0  0  0  0  0  0  0  0  0  0  0
   19.5935  -22.2224  -15.8115 C   0  0  0  0  0  0  0  0  0  0  0  0
   19.5441  -20.7985  -15.4172 C   0  0  0  0  0  0  0  0  0  0  0  0
   19.6275  -20.6112  -13.9427 C   0  0  2  0  0  0  0  0  0  0  0  0
   20.9353  -21.0347  -13.4348 N   0  0  0  0  0  0  0  0  0  0  0  0
   18.5665  -21.2275  -13.1482 C   0  0  0  0  0  0  0  0  0  0  0  0
   17.3494  -20.8698  -13.3138 O   0  0  0  0  0  0  0  0  0  0  0  0
   18.4588  -22.9993  -15.6764 C   0  0  0  0  0  0  0  0  0  0  0  0
   18.5099  -24.3250  -16.0383 C   0  0  0  0  0  0  0  0  0  0  0  0
   18.7518  -22.2040  -12.1915 O   0  0  0  0  0  0  0  0  0  0  0  0
  1  2  1  0
  2  3  2  0
  4  5  1  0
  4  2  1  0
  5  6  1  6
  7  9  1  0
  7  5  1  0
  8  7  2  0
 10  9  1  0
 10 11  1  1
 11 12  1  0
 12 17  1  0
 12 13  2  0
 13 14  1  0
 14 15  2  0
 16 15  1  0
 17 16  2  0
 18 27  1  0
 18 10  1  0
 19 18  2  0
 20 21  1  0
 21 31  2  0
 22 21  1  0
 22 23  2  0
 23 24  1  0
 24 30  2  0
 24 25  1  0
 26 25  1  6
 26 28  1  0
 26 27  1  0
 28 32  1  0
 29 28  2  0
 31 30  1  0
M  END
$$$$
