NFY.pdb
     RDKit          3D

 32 33  0  0  1  0  0  0  0  0999 V2000
   29.0721  -19.9130  -18.4341 N   0  0  0  0  0  0  0  0  0  0  0  0
   27.7927  -19.5238  -17.9900 C   0  0  0  0  0  0  0  0  0  0  0  0
   27.1257  -18.6772  -18.6156 O   0  0  0  0  0  0  0  0  0  0  0  0
   27.2316  -20.1270  -16.7655 C   0  0  0  0  0  0  0  0  0  0  0  0
   28.2998  -20.9823  -16.1408 C   0  0  2  0  0  0  0  0  0  0  0  0
   28.6278  -22.1316  -16.9263 N   0  0  0  0  0  0  0  0  0  0  0  0
   27.8005  -21.4087  -14.8078 C   0  0  0  0  0  0  0  0  0  0  0  0
   27.1582  -22.4876  -14.6593 O   0  0  0  0  0  0  0  0  0  0  0  0
   28.0465  -20.5984  -13.6893 N   0  0  0  0  0  0  0  0  0  0  0  0
   27.6100  -20.9233  -12.3210 C   0  0  1  0  0  0  0  0  0  0  0  0
   28.5570  -20.1798  -11.4479 C   0  0  0  0  0  0  0  0  0  0  0  0
   28.2745  -20.1079  -10.0299 C   0  0  0  0  0  0  0  0  0  0  0  0
   27.2617  -19.3825   -9.4385 C   0  0  0  0  0  0  0  0  0  0  0  0
   27.0423  -19.3761   -8.0799 C   0  0  0  0  0  0  0  0  0  0  0  0
   27.8548  -20.1188   -7.2392 C   0  0  0  0  0  0  0  0  0  0  0  0
   28.8681  -20.8469   -7.8109 C   0  0  0  0  0  0  0  0  0  0  0  0
   29.0825  -20.8491   -9.1731 C   0  0  0  0  0  0  0  0  0  0  0  0
   26.1952  -20.4922  -12.2296 C   0  0  0  0  0  0  0  0  0  0  0  0
   25.8003  -19.3682  -12.6993 O   0  0  0  0  0  0  0  0  0  0  0  0
   21.0700  -17.5069  -16.2563 O   0  0  0  0  0  0  0  0  0  0  0  0
   21.4792  -18.4362  -15.3391 C   0  0  0  0  0  0  0  0  0  0  0  0
   20.8148  -18.6412  -14.1509 C   0  0  0  0  0  0  0  0  0  0  0  0
   21.3187  -19.6029  -13.3072 C   0  0  0  0  0  0  0  0  0  0  0  0
   22.4352  -20.3659  -13.5736 C   0  0  0  0  0  0  0  0  0  0  0  0
   22.9555  -21.3882  -12.6411 C   0  0  0  0  0  0  0  0  0  0  0  0
   23.7784  -20.7990  -11.5494 C   0  0  2  0  0  0  0  0  0  0  0  0
   25.1646  -21.2683  -11.6276 N   0  0  0  0  0  0  0  0  0  0  0  0
   23.2742  -20.9741  -10.1886 C   0  0  0  0  0  0  0  0  0  0  0  0
   23.9689  -21.6101   -9.3227 O   0  0  0  0  0  0  0  0  0  0  0  0
   23.0910  -20.1486  -14.7703 C   0  0  0  0  0  0  0  0  0  0  0  0
   22.6080  -19.1926  -15.6328 C   0  0  0  0  0  0  0  0  0  0  0  0
   22.0669  -20.5000   -9.7184 O   0  0  0  0  0  0  0  0  0  0  0  0
  1  2  1  0
  2  3  2  0
  4  5  1  0
  4  2  1  0
  5  6  1  6
  7  9  1  0
  7  5  1  0
  8  7  2  0
 10  9  1  0
 10 11  1  1
 11 12  1  0
 12 17  1  0
 12 13  2  0
 13 14  1  0
 14 15  2  0
 16 15  1  0
 17 16  2  0
 18 27  1  0
 18 10  1  0
 19 18  2  0
 20 21  1  0
 21 31  2  0
 22 21  1  0
 22 23  2  0
 23 24  1  0
 24 30  2  0
 24 25  1  0
 26 25  1  6
 26 28  1  0
 26 27  1  0
 28 32  1  0
 29 28  2  0
 31 30  1  0
M  END
$$$$
