NFY.pdb
     RDKit          3D

 32 33  0  0  1  0  0  0  0  0999 V2000
   26.8161  -18.8001  -16.1203 N   0  0  0  0  0  0  0  0  0  0  0  0
   27.5947  -18.8819  -14.9487 C   0  0  0  0  0  0  0  0  0  0  0  0
   28.7717  -18.4731  -14.9300 O   0  0  0  0  0  0  0  0  0  0  0  0
   27.0093  -19.4600  -13.7235 C   0  0  0  0  0  0  0  0  0  0  0  0
   27.8084  -20.6821  -13.3621 C   0  0  2  0  0  0  0  0  0  0  0  0
   27.7301  -21.7146  -14.3487 N   0  0  0  0  0  0  0  0  0  0  0  0
   27.2855  -21.1839  -12.0649 C   0  0  0  0  0  0  0  0  0  0  0  0
   26.3828  -22.0678  -12.0162 O   0  0  0  0  0  0  0  0  0  0  0  0
   27.8036  -20.6672  -10.8678 N   0  0  0  0  0  0  0  0  0  0  0  0
   27.2618  -20.9719   -9.5329 C   0  0  1  0  0  0  0  0  0  0  0  0
   28.3343  -20.5443   -8.5957 C   0  0  0  0  0  0  0  0  0  0  0  0
   27.9936  -20.3488   -7.2023 C   0  0  0  0  0  0  0  0  0  0  0  0
   27.9778  -21.3218   -6.2251 C   0  0  0  0  0  0  0  0  0  0  0  0
   27.6593  -21.0573   -4.9126 C   0  0  0  0  0  0  0  0  0  0  0  0
   27.3351  -19.7692   -4.5201 C   0  0  0  0  0  0  0  0  0  0  0  0
   27.3457  -18.7881   -5.4798 C   0  0  0  0  0  0  0  0  0  0  0  0
   27.6659  -19.0598   -6.7933 C   0  0  0  0  0  0  0  0  0  0  0  0
   25.9909  -20.2174   -9.4253 C   0  0  0  0  0  0  0  0  0  0  0  0
   25.9149  -18.9760   -9.7305 O   0  0  0  0  0  0  0  0  0  0  0  0
   18.6168  -18.9677  -13.4216 O   0  0  0  0  0  0  0  0  0  0  0  0
   19.7907  -19.3056  -12.8052 C   0  0  0  0  0  0  0  0  0  0  0  0
   20.4207  -18.4698  -11.9109 C   0  0  0  0  0  0  0  0  0  0  0  0
   21.5957  -18.9167  -11.3539 C   0  0  0  0  0  0  0  0  0  0  0  0
   22.1760  -20.1355  -11.6322 C   0  0  0  0  0  0  0  0  0  0  0  0
   23.4452  -20.5835  -11.0207 C   0  0  0  0  0  0  0  0  0  0  0  0
   23.4699  -20.3841   -9.5457 C   0  0  2  0  0  0  0  0  0  0  0  0
   24.7626  -20.7869   -8.9849 N   0  0  0  0  0  0  0  0  0  0  0  0
   22.3871  -21.0079   -8.7873 C   0  0  0  0  0  0  0  0  0  0  0  0
   22.5206  -22.1978   -8.3369 O   0  0  0  0  0  0  0  0  0  0  0  0
   21.5317  -20.9632  -12.5317 C   0  0  0  0  0  0  0  0  0  0  0  0
   20.3546  -20.5408  -13.1034 C   0  0  0  0  0  0  0  0  0  0  0  0
   21.1766  -20.4157   -8.4919 O   0  0  0  0  0  0  0  0  0  0  0  0
  1  2  1  0
  2  3  2  0
  4  5  1  0
  4  2  1  0
  5  6  1  6
  7  9  1  0
  7  5  1  0
  8  7  2  0
 10  9  1  0
 10 11  1  1
 11 12  1  0
 12 17  1  0
 12 13  2  0
 13 14  1  0
 14 15  2  0
 16 15  1  0
 17 16  2  0
 18 27  1  0
 18 10  1  0
 19 18  2  0
 20 21  1  0
 21 31  2  0
 22 21  1  0
 22 23  2  0
 23 24  1  0
 24 30  2  0
 24 25  1  0
 26 25  1  6
 26 28  1  0
 26 27  1  0
 28 32  1  0
 29 28  2  0
 31 30  1  0
M  END
$$$$
