NFY.pdb
     RDKit          3D

 32 33  0  0  1  0  0  0  0  0999 V2000
   29.0776  -18.9268  -17.6106 N   0  0  0  0  0  0  0  0  0  0  0  0
   27.7023  -18.8143  -17.3255 C   0  0  0  0  0  0  0  0  0  0  0  0
   26.9896  -17.9814  -17.9180 O   0  0  0  0  0  0  0  0  0  0  0  0
   27.0941  -19.6957  -16.3099 C   0  0  0  0  0  0  0  0  0  0  0  0
   28.1714  -20.6023  -15.7805 C   0  0  2  0  0  0  0  0  0  0  0  0
   28.4633  -21.6957  -16.6550 N   0  0  0  0  0  0  0  0  0  0  0  0
   27.7080  -21.1179  -14.4662 C   0  0  0  0  0  0  0  0  0  0  0  0
   26.9170  -22.1010  -14.3862 O   0  0  0  0  0  0  0  0  0  0  0  0
   28.1570  -20.5023  -13.2882 N   0  0  0  0  0  0  0  0  0  0  0  0
   27.7299  -20.8959  -11.9351 C   0  0  1  0  0  0  0  0  0  0  0  0
   28.7251  -20.2543  -11.0354 C   0  0  0  0  0  0  0  0  0  0  0  0
   28.4824  -20.2826   -9.6085 C   0  0  0  0  0  0  0  0  0  0  0  0
   28.8866  -21.2700   -8.7347 C   0  0  0  0  0  0  0  0  0  0  0  0
   28.6339  -21.2205   -7.3827 C   0  0  0  0  0  0  0  0  0  0  0  0
   27.9459  -20.1472   -6.8412 C   0  0  0  0  0  0  0  0  0  0  0  0
   27.5359  -19.1552   -7.6965 C   0  0  0  0  0  0  0  0  0  0  0  0
   27.7925  -19.2109   -9.0503 C   0  0  0  0  0  0  0  0  0  0  0  0
   26.3382  -20.4086  -11.7875 C   0  0  0  0  0  0  0  0  0  0  0  0
   25.9946  -19.2282  -12.1460 O   0  0  0  0  0  0  0  0  0  0  0  0
   17.6981  -19.5343  -11.7930 O   0  0  0  0  0  0  0  0  0  0  0  0
   18.9670  -20.0459  -11.8043 C   0  0  0  0  0  0  0  0  0  0  0  0
   19.3472  -21.0918  -10.9939 C   0  0  0  0  0  0  0  0  0  0  0  0
   20.6496  -21.5217  -11.0925 C   0  0  0  0  0  0  0  0  0  0  0  0
   21.5879  -20.9766  -11.9422 C   0  0  0  0  0  0  0  0  0  0  0  0
   22.9836  -21.4581  -12.0190 C   0  0  0  0  0  0  0  0  0  0  0  0
   23.9055  -20.6773  -11.1492 C   0  0  2  0  0  0  0  0  0  0  0  0
   25.2757  -21.1878  -11.2480 N   0  0  0  0  0  0  0  0  0  0  0  0
   23.5248  -20.5549   -9.7432 C   0  0  0  0  0  0  0  0  0  0  0  0
   24.0934  -21.2824   -8.8578 O   0  0  0  0  0  0  0  0  0  0  0  0
   21.1911  -19.9276  -12.7493 C   0  0  0  0  0  0  0  0  0  0  0  0
   19.8939  -19.4781  -12.6709 C   0  0  0  0  0  0  0  0  0  0  0  0
   22.5686  -19.6922   -9.2484 O   0  0  0  0  0  0  0  0  0  0  0  0
  1  2  1  0
  2  3  2  0
  4  5  1  0
  4  2  1  0
  5  6  1  6
  7  9  1  0
  7  5  1  0
  8  7  2  0
 10  9  1  0
 10 11  1  1
 11 12  1  0
 12 17  1  0
 12 13  2  0
 13 14  1  0
 14 15  2  0
 16 15  1  0
 17 16  2  0
 18 27  1  0
 18 10  1  0
 19 18  2  0
 20 21  1  0
 21 31  2  0
 22 21  1  0
 22 23  2  0
 23 24  1  0
 24 30  2  0
 24 25  1  0
 26 25  1  6
 26 28  1  0
 26 27  1  0
 28 32  1  0
 29 28  2  0
 31 30  1  0
M  END
$$$$
