NFY.pdb
     RDKit          3D

 32 33  0  0  1  0  0  0  0  0999 V2000
   18.9691  -13.5170  -18.7008 N   0  0  0  0  0  0  0  0  0  0  0  0
   19.8804  -12.4446  -18.6308 C   0  0  0  0  0  0  0  0  0  0  0  0
   20.1762  -11.7858  -19.6463 O   0  0  0  0  0  0  0  0  0  0  0  0
   20.4952  -12.0940  -17.3357 C   0  0  0  0  0  0  0  0  0  0  0  0
   21.9685  -11.8924  -17.5635 C   0  0  2  0  0  0  0  0  0  0  0  0
   22.6815  -13.1199  -17.7384 N   0  0  0  0  0  0  0  0  0  0  0  0
   22.5019  -11.1634  -16.3837 C   0  0  0  0  0  0  0  0  0  0  0  0
   22.5756  -11.7134  -15.2477 O   0  0  0  0  0  0  0  0  0  0  0  0
   22.9338   -9.8368  -16.5319 N   0  0  0  0  0  0  0  0  0  0  0  0
   23.5668   -9.0490  -15.4609 C   0  0  1  0  0  0  0  0  0  0  0  0
   24.7348   -8.4064  -16.1201 C   0  0  0  0  0  0  0  0  0  0  0  0
   25.9313   -9.1959  -16.3230 C   0  0  0  0  0  0  0  0  0  0  0  0
   26.5515   -9.9889  -15.3805 C   0  0  0  0  0  0  0  0  0  0  0  0
   27.6806  -10.7275  -15.6518 C   0  0  0  0  0  0  0  0  0  0  0  0
   28.2461  -10.6972  -16.9158 C   0  0  0  0  0  0  0  0  0  0  0  0
   27.6418   -9.9131  -17.8664 C   0  0  0  0  0  0  0  0  0  0  0  0
   26.5105   -9.1754  -17.5880 C   0  0  0  0  0  0  0  0  0  0  0  0
   22.5259   -8.1154  -14.9700 C   0  0  0  0  0  0  0  0  0  0  0  0
   21.7101   -7.5339  -15.7677 O   0  0  0  0  0  0  0  0  0  0  0  0
   16.1683   -4.6850  -10.0174 O   0  0  0  0  0  0  0  0  0  0  0  0
   17.2914   -5.3468  -10.4329 C   0  0  0  0  0  0  0  0  0  0  0  0
   18.5555   -4.9775  -10.0316 C   0  0  0  0  0  0  0  0  0  0  0  0
   19.6091   -5.7174  -10.5141 C   0  0  0  0  0  0  0  0  0  0  0  0
   19.4804   -6.7937  -11.3655 C   0  0  0  0  0  0  0  0  0  0  0  0
   20.6355   -7.5647  -11.8721 C   0  0  0  0  0  0  0  0  0  0  0  0
   21.1879   -7.0021  -13.1348 C   0  0  2  0  0  0  0  0  0  0  0  0
   22.3367   -7.7854  -13.5980 N   0  0  0  0  0  0  0  0  0  0  0  0
   21.5340   -5.5820  -13.1169 C   0  0  0  0  0  0  0  0  0  0  0  0
   22.6985   -5.2091  -12.7405 O   0  0  0  0  0  0  0  0  0  0  0  0
   18.2054   -7.1522  -11.7592 C   0  0  0  0  0  0  0  0  0  0  0  0
   17.1335   -6.4290  -11.2911 C   0  0  0  0  0  0  0  0  0  0  0  0
   20.6927   -4.5517  -13.4830 O   0  0  0  0  0  0  0  0  0  0  0  0
  1  2  1  0
  2  3  2  0
  4  5  1  0
  4  2  1  0
  5  6  1  1
  7  9  1  0
  7  5  1  0
  8  7  2  0
 10  9  1  0
 10 11  1  6
 11 12  1  0
 12 17  1  0
 12 13  2  0
 13 14  1  0
 14 15  2  0
 16 15  1  0
 17 16  2  0
 18 27  1  0
 18 10  1  0
 19 18  2  0
 20 21  1  0
 21 31  2  0
 22 21  1  0
 22 23  2  0
 23 24  1  0
 24 30  2  0
 24 25  1  0
 26 25  1  1
 26 28  1  0
 26 27  1  0
 28 32  1  0
 29 28  2  0
 31 30  1  0
M  END
$$$$
