NFY.pdb
     RDKit          3D

 32 33  0  0  1  0  0  0  0  0999 V2000
   24.7439   -8.8460  -23.0598 N   0  0  0  0  0  0  0  0  0  0  0  0
   24.5010   -7.9407  -22.0076 C   0  0  0  0  0  0  0  0  0  0  0  0
   23.8105   -6.9189  -22.1861 O   0  0  0  0  0  0  0  0  0  0  0  0
   25.0720   -8.2048  -20.6726 C   0  0  0  0  0  0  0  0  0  0  0  0
   25.7157   -6.9351  -20.1863 C   0  0  2  0  0  0  0  0  0  0  0  0
   27.1403   -6.9457  -20.3115 N   0  0  0  0  0  0  0  0  0  0  0  0
   25.3364   -6.7663  -18.7595 C   0  0  0  0  0  0  0  0  0  0  0  0
   25.8824   -7.4509  -17.8474 O   0  0  0  0  0  0  0  0  0  0  0  0
   24.3522   -5.8276  -18.4154 N   0  0  0  0  0  0  0  0  0  0  0  0
   23.9830   -5.4864  -17.0313 C   0  0  1  0  0  0  0  0  0  0  0  0
   24.0194   -4.0001  -16.9981 C   0  0  0  0  0  0  0  0  0  0  0  0
   25.3079   -3.3443  -16.9236 C   0  0  0  0  0  0  0  0  0  0  0  0
   26.1267   -3.2844  -15.8155 C   0  0  0  0  0  0  0  0  0  0  0  0
   27.3508   -2.6556  -15.8243 C   0  0  0  0  0  0  0  0  0  0  0  0
   27.8127   -2.0455  -16.9787 C   0  0  0  0  0  0  0  0  0  0  0  0
   27.0106   -2.0954  -18.0913 C   0  0  0  0  0  0  0  0  0  0  0  0
   25.7850   -2.7272  -18.0759 C   0  0  0  0  0  0  0  0  0  0  0  0
   22.6496   -6.0910  -16.8027 C   0  0  0  0  0  0  0  0  0  0  0  0
   21.6491   -5.8240  -17.5561 O   0  0  0  0  0  0  0  0  0  0  0  0
   16.1047  -11.4724  -14.6308 O   0  0  0  0  0  0  0  0  0  0  0  0
   17.3092  -10.8235  -14.6298 C   0  0  0  0  0  0  0  0  0  0  0  0
   17.7343  -10.0603  -13.5657 C   0  0  0  0  0  0  0  0  0  0  0  0
   18.9638   -9.4551  -13.6783 C   0  0  0  0  0  0  0  0  0  0  0  0
   19.7880   -9.5631  -14.7777 C   0  0  0  0  0  0  0  0  0  0  0  0
   21.1026   -8.8932  -14.8699 C   0  0  0  0  0  0  0  0  0  0  0  0
   21.0242   -7.5739  -15.5549 C   0  0  2  0  0  0  0  0  0  0  0  0
   22.3609   -7.0057  -15.7505 N   0  0  0  0  0  0  0  0  0  0  0  0
   20.1483   -6.5755  -14.9442 C   0  0  0  0  0  0  0  0  0  0  0  0
   20.6124   -5.7586  -14.0759 O   0  0  0  0  0  0  0  0  0  0  0  0
   19.3474  -10.3326  -15.8374 C   0  0  0  0  0  0  0  0  0  0  0  0
   18.1214  -10.9493  -15.7510 C   0  0  0  0  0  0  0  0  0  0  0  0
   18.8065   -6.4153  -15.2222 O   0  0  0  0  0  0  0  0  0  0  0  0
  1  2  1  0
  2  3  2  0
  4  5  1  0
  4  2  1  0
  5  6  1  1
  7  9  1  0
  7  5  1  0
  8  7  2  0
 10  9  1  0
 10 11  1  6
 11 12  1  0
 12 17  1  0
 12 13  2  0
 13 14  1  0
 14 15  2  0
 16 15  1  0
 17 16  2  0
 18 27  1  0
 18 10  1  0
 19 18  2  0
 20 21  1  0
 21 31  2  0
 22 21  1  0
 22 23  2  0
 23 24  1  0
 24 30  2  0
 24 25  1  0
 26 25  1  1
 26 28  1  0
 26 27  1  0
 28 32  1  0
 29 28  2  0
 31 30  1  0
M  END
$$$$
