RDS.pdb
     RDKit          3D

 26 25  0  0  1  0  0  0  0  0999 V2000
    8.6520  -11.6488   21.0146 N   0  0  0  0  0  0  0  0  0  0  0  0
    8.3755  -12.2688   19.7569 C   0  0  0  0  0  0  0  0  0  0  0  0
    7.3784  -11.8362   19.0309 N   0  0  0  0  0  0  0  0  0  0  0  0
    9.1926  -13.3459   19.3217 N   0  0  0  0  0  0  0  0  0  0  0  0
    8.9388  -14.0288   18.0981 C   0  0  0  0  0  0  0  0  0  0  0  0
    7.9253  -15.1260   18.2018 C   0  0  0  0  0  0  0  0  0  0  0  0
    8.3312  -16.2870   19.0353 C   0  0  0  0  0  0  0  0  0  0  0  0
    9.4629  -17.0864   18.4418 C   0  0  2  0  0  0  0  0  0  0  0  0
    8.9843  -18.1643   17.6032 N   0  0  0  0  0  0  0  0  0  0  0  0
   10.3260  -17.6979   19.4751 C   0  0  0  0  0  0  0  0  0  0  0  0
    9.7555  -18.3641   20.3751 O   0  0  0  0  0  0  0  0  0  0  0  0
    7.1447  -12.3396   18.1522 N   0  0  0  0  0  0  0  0  0  0  0  0
   11.7392  -17.5782   19.5091 C   0  0  2  0  0  0  0  0  0  0  0  0
   12.5161  -18.1090   20.5830 C   0  0  0  0  0  0  0  0  0  0  0  0
   14.0001  -18.0043   20.3610 C   0  0  0  0  0  0  0  0  0  0  0  0
   14.7991  -18.7583   21.3283 O   0  0  0  0  0  0  0  0  0  0  0  0
   14.2499  -19.4029   22.2536 C   0  0  0  0  0  0  0  0  0  0  0  0
   12.2001  -17.4587   21.8892 O   0  0  0  0  0  0  0  0  0  0  0  0
   12.5011  -16.2470   22.0165 O   0  0  0  0  0  0  0  0  0  0  0  0
   16.1807  -18.7789   21.2457 O   0  0  0  0  0  0  0  0  0  0  0  0
    9.1829  -18.3813   24.2473 C   0  0  0  0  0  0  0  0  0  0  0  0
    9.9477  -17.2366   24.4803 C   0  0  1  0  0  0  0  0  0  0  0  0
   11.4073  -17.5662   24.2836 N   0  0  0  0  0  0  0  0  0  0  0  0
   11.5871  -18.1348   22.9723 C   0  0  0  0  0  0  0  0  0  0  0  0
   11.8251  -18.4768   25.3653 O   0  0  0  0  0  0  0  0  0  0  0  0
   11.8532  -17.9973   26.6609 O   0  0  0  0  0  0  0  0  0  0  0  0
  2  1  1  0
  3  2  2  0
  4  2  1  0
  5  4  1  0
  6  5  1  0
  6  7  1  0
  8  7  1  0
  8  9  1  6
 10  8  1  0
 10 12  1  0
 11 10  2  0
 12 13  1  0
 13 14  1  6
 15 16  2  0
 15 14  1  0
 17 18  2  0
 17 13  1  0
 19 15  1  0
 21 20  1  0
 22 21  1  6
 22 23  1  0
 23 17  1  0
 24 22  1  0
 24 25  1  0
 26 24  2  0
M  END
$$$$
