RDS.pdb
     RDKit          3D

 26 25  0  0  1  0  0  0  0  0999 V2000
    6.5968  -13.6593   18.8749 N   0  0  0  0  0  0  0  0  0  0  0  0
    7.4663  -13.1771   17.8481 C   0  0  0  0  0  0  0  0  0  0  0  0
    7.0297  -13.0993   16.6185 N   0  0  0  0  0  0  0  0  0  0  0  0
    8.7908  -12.7924   18.1869 N   0  0  0  0  0  0  0  0  0  0  0  0
    9.6801  -13.6834   18.8526 C   0  0  0  0  0  0  0  0  0  0  0  0
    9.7116  -15.0667   18.2804 C   0  0  0  0  0  0  0  0  0  0  0  0
   10.6837  -15.9934   18.9156 C   0  0  0  0  0  0  0  0  0  0  0  0
   11.5525  -15.3328   19.9554 C   0  0  2  0  0  0  0  0  0  0  0  0
   12.7030  -14.6816   19.3668 N   0  0  0  0  0  0  0  0  0  0  0  0
   12.0678  -16.2931   20.9548 C   0  0  0  0  0  0  0  0  0  0  0  0
   11.2188  -16.9000   21.6547 O   0  0  0  0  0  0  0  0  0  0  0  0
    7.6625  -12.7195   15.8867 N   0  0  0  0  0  0  0  0  0  0  0  0
   13.4441  -16.5650   21.1662 C   0  0  1  0  0  0  0  0  0  0  0  0
   13.8869  -17.4882   22.1613 C   0  0  0  0  0  0  0  0  0  0  0  0
   15.3643  -17.7658   22.1093 C   0  0  0  0  0  0  0  0  0  0  0  0
   15.8358  -18.2246   20.8016 O   0  0  0  0  0  0  0  0  0  0  0  0
   15.3397  -19.2408   20.2587 C   0  0  0  0  0  0  0  0  0  0  0  0
   13.5527  -17.0370   23.5446 O   0  0  0  0  0  0  0  0  0  0  0  0
   14.1638  -16.0335   23.9860 O   0  0  0  0  0  0  0  0  0  0  0  0
   16.8407  -17.5483   20.1317 O   0  0  0  0  0  0  0  0  0  0  0  0
   10.0480  -17.6612   25.2476 C   0  0  0  0  0  0  0  0  0  0  0  0
   10.9398  -16.7756   25.8556 C   0  0  1  0  0  0  0  0  0  0  0  0
   12.3409  -17.3248   25.7405 N   0  0  0  0  0  0  0  0  0  0  0  0
   12.5946  -17.6783   24.3672 C   0  0  0  0  0  0  0  0  0  0  0  0
   12.4649  -18.4709   26.6596 O   0  0  0  0  0  0  0  0  0  0  0  0
   12.2598  -18.2622   28.0101 O   0  0  0  0  0  0  0  0  0  0  0  0
  2  1  1  0
  3  2  2  0
  4  2  1  0
  5  4  1  0
  6  5  1  0
  6  7  1  0
  8  7  1  0
  8  9  1  6
 10  8  1  0
 10 12  1  0
 11 10  2  0
 12 13  1  0
 13 14  1  1
 15 16  2  0
 15 14  1  0
 17 18  2  0
 17 13  1  0
 19 15  1  0
 21 20  1  0
 22 21  1  6
 22 23  1  0
 23 17  1  0
 24 22  1  0
 24 25  1  0
 26 24  2  0
M  END
$$$$
