RDS.pdb
     RDKit          3D

 26 25  0  0  1  0  0  0  0  0999 V2000
   11.0086  -13.7546   18.5794 N   0  0  0  0  0  0  0  0  0  0  0  0
    9.8097  -13.6155   17.8138 C   0  0  0  0  0  0  0  0  0  0  0  0
    9.6861  -14.2657   16.6867 N   0  0  0  0  0  0  0  0  0  0  0  0
    8.7752  -12.7700   18.2954 N   0  0  0  0  0  0  0  0  0  0  0  0
    8.0290  -13.0943   19.4642 C   0  0  0  0  0  0  0  0  0  0  0  0
    7.3716  -14.4389   19.4240 C   0  0  0  0  0  0  0  0  0  0  0  0
    7.0800  -15.0418   20.7502 C   0  0  0  0  0  0  0  0  0  0  0  0
    7.9945  -14.5557   21.8454 C   0  0  2  0  0  0  0  0  0  0  0  0
    9.0496  -13.7072   21.3345 N   0  0  0  0  0  0  0  0  0  0  0  0
    8.6499  -15.6662   22.5693 C   0  0  0  0  0  0  0  0  0  0  0  0
    7.9056  -16.5736   23.0184 O   0  0  0  0  0  0  0  0  0  0  0  0
    8.8647  -14.0661   16.0821 N   0  0  0  0  0  0  0  0  0  0  0  0
   10.0489  -15.7653   22.7830 C   0  0  1  0  0  0  0  0  0  0  0  0
   10.6250  -16.8413   23.5239 C   0  0  0  0  0  0  0  0  0  0  0  0
   12.1206  -16.9303   23.3911 C   0  0  0  0  0  0  0  0  0  0  0  0
   12.7060  -18.0989   24.0501 O   0  0  0  0  0  0  0  0  0  0  0  0
   13.0751  -18.0449   25.2478 C   0  0  0  0  0  0  0  0  0  0  0  0
   10.2964  -16.7703   24.9785 O   0  0  0  0  0  0  0  0  0  0  0  0
   10.5171  -15.6833   25.5659 O   0  0  0  0  0  0  0  0  0  0  0  0
   12.8667  -19.2926   23.3681 O   0  0  0  0  0  0  0  0  0  0  0  0
    7.2745  -18.5152   26.7177 C   0  0  0  0  0  0  0  0  0  0  0  0
    8.0388  -17.5404   27.3620 C   0  0  1  0  0  0  0  0  0  0  0  0
    9.5030  -17.8245   27.1308 N   0  0  0  0  0  0  0  0  0  0  0  0
    9.7567  -17.8543   25.7131 C   0  0  0  0  0  0  0  0  0  0  0  0
    9.8384  -19.0948   27.7998 O   0  0  0  0  0  0  0  0  0  0  0  0
    9.6701  -19.1873   29.1683 O   0  0  0  0  0  0  0  0  0  0  0  0
  2  1  1  0
  3  2  2  0
  4  2  1  0
  5  4  1  0
  6  5  1  0
  6  7  1  0
  8  7  1  0
  8  9  1  6
 10  8  1  0
 10 12  1  0
 11 10  2  0
 12 13  1  0
 13 14  1  6
 15 16  2  0
 15 14  1  0
 17 18  2  0
 17 13  1  0
 19 15  1  0
 21 20  1  0
 22 21  1  1
 22 23  1  0
 23 17  1  0
 24 22  1  0
 24 25  1  0
 26 24  2  0
M  END
$$$$
