RDS.pdb
     RDKit          3D

 26 25  0  0  1  0  0  0  0  0999 V2000
    7.4803  -13.4600   16.2491 N   0  0  0  0  0  0  0  0  0  0  0  0
    8.1157  -13.7511   17.4958 C   0  0  0  0  0  0  0  0  0  0  0  0
    9.2987  -14.3068   17.5014 N   0  0  0  0  0  0  0  0  0  0  0  0
    7.4452  -13.4299   18.7059 N   0  0  0  0  0  0  0  0  0  0  0  0
    8.0350  -13.6848   19.9768 C   0  0  0  0  0  0  0  0  0  0  0  0
    8.2570  -15.1352   20.2749 C   0  0  0  0  0  0  0  0  0  0  0  0
    8.7620  -15.4316   21.6404 C   0  0  0  0  0  0  0  0  0  0  0  0
    9.0788  -16.8886   21.8609 C   0  0  2  0  0  0  0  0  0  0  0  0
    7.9253  -17.7341   21.6403 N   0  0  0  0  0  0  0  0  0  0  0  0
    9.5549  -17.1624   23.2338 C   0  0  0  0  0  0  0  0  0  0  0  0
    8.6811  -17.2736   24.1300 O   0  0  0  0  0  0  0  0  0  0  0  0
    9.7562  -14.4989   18.4147 N   0  0  0  0  0  0  0  0  0  0  0  0
   10.9201  -17.3046   23.5928 C   0  0  2  0  0  0  0  0  0  0  0  0
   11.3282  -17.4981   24.9473 C   0  0  0  0  0  0  0  0  0  0  0  0
   12.6622  -18.1798   25.0820 C   0  0  0  0  0  0  0  0  0  0  0  0
   13.0313  -18.4929   26.4635 O   0  0  0  0  0  0  0  0  0  0  0  0
   12.2330  -18.2794   27.4072 C   0  0  0  0  0  0  0  0  0  0  0  0
   11.3876  -16.2172   25.7118 O   0  0  0  0  0  0  0  0  0  0  0  0
   12.1240  -15.3087   25.2562 O   0  0  0  0  0  0  0  0  0  0  0  0
   14.2704  -19.0324   26.7626 O   0  0  0  0  0  0  0  0  0  0  0  0
    8.4771  -14.4625   27.5120 C   0  0  0  0  0  0  0  0  0  0  0  0
    9.7150  -13.8299   27.3822 C   0  0  1  0  0  0  0  0  0  0  0  0
   10.8112  -14.8086   27.7260 N   0  0  0  0  0  0  0  0  0  0  0  0
   10.6640  -15.9844   26.9068 C   0  0  0  0  0  0  0  0  0  0  0  0
   10.7330  -15.1020   29.1688 O   0  0  0  0  0  0  0  0  0  0  0  0
   10.8315  -14.0540   30.0640 O   0  0  0  0  0  0  0  0  0  0  0  0
  2  1  1  0
  3  2  2  0
  4  2  1  0
  5  4  1  0
  6  5  1  0
  6  7  1  0
  8  7  1  0
  8  9  1  1
 10  8  1  0
 10 12  1  0
 11 10  2  0
 12 13  1  0
 13 14  1  6
 15 16  2  0
 15 14  1  0
 17 18  2  0
 17 13  1  0
 19 15  1  0
 21 20  1  0
 22 21  1  6
 22 23  1  0
 23 17  1  0
 24 22  1  0
 24 25  1  0
 26 24  2  0
M  END
$$$$
