RDS.pdb
     RDKit          3D

 26 25  0  0  1  0  0  0  0  0999 V2000
    8.4111  -13.3290   16.8866 N   0  0  0  0  0  0  0  0  0  0  0  0
    8.4076  -12.9453   18.2633 C   0  0  0  0  0  0  0  0  0  0  0  0
    9.3994  -12.2382   18.7374 N   0  0  0  0  0  0  0  0  0  0  0  0
    7.3230  -13.3425   19.0898 N   0  0  0  0  0  0  0  0  0  0  0  0
    7.4924  -14.2882   20.1409 C   0  0  0  0  0  0  0  0  0  0  0  0
    8.4623  -15.3866   19.8332 C   0  0  0  0  0  0  0  0  0  0  0  0
    9.4308  -15.6986   20.9158 C   0  0  0  0  0  0  0  0  0  0  0  0
    9.4599  -17.1574   21.2940 C   0  0  2  0  0  0  0  0  0  0  0  0
    8.2556  -17.8480   20.8853 N   0  0  0  0  0  0  0  0  0  0  0  0
    9.5971  -17.3611   22.7522 C   0  0  0  0  0  0  0  0  0  0  0  0
    8.5461  -17.3030   23.4386 O   0  0  0  0  0  0  0  0  0  0  0  0
    9.3645  -11.9307   19.7296 N   0  0  0  0  0  0  0  0  0  0  0  0
   10.8275  -17.6143   23.4114 C   0  0  1  0  0  0  0  0  0  0  0  0
   10.9188  -17.6967   24.8339 C   0  0  0  0  0  0  0  0  0  0  0  0
   12.1703  -18.3763   25.3180 C   0  0  0  0  0  0  0  0  0  0  0  0
   12.1702  -18.6669   26.7527 O   0  0  0  0  0  0  0  0  0  0  0  0
   11.1590  -18.4327   27.4569 C   0  0  0  0  0  0  0  0  0  0  0  0
   10.8416  -16.3566   25.4873 O   0  0  0  0  0  0  0  0  0  0  0  0
   11.8118  -15.5782   25.3202 O   0  0  0  0  0  0  0  0  0  0  0  0
   13.2862  -19.2075   27.3678 O   0  0  0  0  0  0  0  0  0  0  0  0
    7.6889  -14.6384   25.8238 C   0  0  0  0  0  0  0  0  0  0  0  0
    8.3580  -14.0758   26.9126 C   0  0  2  0  0  0  0  0  0  0  0  0
    9.7209  -14.7116   27.0402 N   0  0  0  0  0  0  0  0  0  0  0  0
    9.7431  -15.9311   26.2736 C   0  0  0  0  0  0  0  0  0  0  0  0
    9.9966  -14.9298   28.4720 O   0  0  0  0  0  0  0  0  0  0  0  0
    9.9926  -13.8395   29.3209 O   0  0  0  0  0  0  0  0  0  0  0  0
  2  1  1  0
  3  2  2  0
  4  2  1  0
  5  4  1  0
  6  5  1  0
  6  7  1  0
  8  7  1  0
  8  9  1  1
 10  8  1  0
 10 12  1  0
 11 10  2  0
 12 13  1  0
 13 14  1  6
 15 16  2  0
 15 14  1  0
 17 18  2  0
 17 13  1  0
 19 15  1  0
 21 20  1  0
 22 21  1  6
 22 23  1  0
 23 17  1  0
 24 22  1  0
 24 25  1  0
 26 24  2  0
M  END
$$$$
