RDS.pdb
     RDKit          3D

 26 25  0  0  1  0  0  0  0  0999 V2000
    6.5095  -14.0060   15.6134 N   0  0  0  0  0  0  0  0  0  0  0  0
    7.8789  -14.2234   15.9599 C   0  0  0  0  0  0  0  0  0  0  0  0
    8.5409  -15.1959   15.3902 N   0  0  0  0  0  0  0  0  0  0  0  0
    8.4930  -13.3755   16.9196 N   0  0  0  0  0  0  0  0  0  0  0  0
    7.9690  -13.2355   18.2363 C   0  0  0  0  0  0  0  0  0  0  0  0
    7.8658  -14.5194   18.9998 C   0  0  0  0  0  0  0  0  0  0  0  0
    7.6915  -14.3716   20.4678 C   0  0  0  0  0  0  0  0  0  0  0  0
    8.9913  -14.2119   21.2142 C   0  0  2  0  0  0  0  0  0  0  0  0
   10.1330  -14.5613   20.3964 N   0  0  0  0  0  0  0  0  0  0  0  0
    9.0560  -15.0585   22.4249 C   0  0  0  0  0  0  0  0  0  0  0  0
    8.0661  -15.0259   23.1983 O   0  0  0  0  0  0  0  0  0  0  0  0
    9.5370  -15.3409   15.6488 N   0  0  0  0  0  0  0  0  0  0  0  0
   10.1538  -15.8927   22.7590 C   0  0  2  0  0  0  0  0  0  0  0  0
   10.2575  -16.5298   24.0326 C   0  0  0  0  0  0  0  0  0  0  0  0
   11.1914  -17.7088   24.0410 C   0  0  0  0  0  0  0  0  0  0  0  0
   10.8222  -18.7646   23.0967 O   0  0  0  0  0  0  0  0  0  0  0  0
    9.6721  -19.2652   23.1082 C   0  0  0  0  0  0  0  0  0  0  0  0
   10.6962  -15.5886   25.1052 O   0  0  0  0  0  0  0  0  0  0  0  0
   11.8845  -15.1866   25.0674 O   0  0  0  0  0  0  0  0  0  0  0  0
   11.7331  -19.2366   22.1674 O   0  0  0  0  0  0  0  0  0  0  0  0
    7.9622  -13.6916   27.3109 C   0  0  0  0  0  0  0  0  0  0  0  0
    9.2450  -13.1409   27.3378 C   0  0  1  0  0  0  0  0  0  0  0  0
   10.2629  -14.2466   27.1991 N   0  0  0  0  0  0  0  0  0  0  0  0
    9.8477  -15.1367   26.1453 C   0  0  0  0  0  0  0  0  0  0  0  0
   10.3912  -14.9227   28.5030 O   0  0  0  0  0  0  0  0  0  0  0  0
   10.7631  -14.1742   29.6035 O   0  0  0  0  0  0  0  0  0  0  0  0
  2  1  1  0
  3  2  2  0
  4  2  1  0
  5  4  1  0
  6  5  1  0
  6  7  1  0
  8  7  1  0
  8  9  1  6
 10  8  1  0
 10 12  1  0
 11 10  2  0
 12 13  1  0
 13 14  1  1
 15 16  2  0
 15 14  1  0
 17 18  2  0
 17 13  1  0
 19 15  1  0
 21 20  1  0
 22 21  1  6
 22 23  1  0
 23 17  1  0
 24 22  1  0
 24 25  1  0
 26 24  2  0
M  END
$$$$
