RDS.pdb
     RDKit          3D

 26 25  0  0  1  0  0  0  0  0999 V2000
    6.9994  -13.3922   14.7223 N   0  0  0  0  0  0  0  0  0  0  0  0
    7.7314  -13.4214   15.9495 C   0  0  0  0  0  0  0  0  0  0  0  0
    8.7060  -12.5712   16.1385 N   0  0  0  0  0  0  0  0  0  0  0  0
    7.3834  -14.3776   16.9404 N   0  0  0  0  0  0  0  0  0  0  0  0
    8.2916  -14.7472   17.9731 C   0  0  0  0  0  0  0  0  0  0  0  0
    7.9005  -14.2731   19.3384 C   0  0  0  0  0  0  0  0  0  0  0  0
    7.7666  -15.3387   20.3650 C   0  0  0  0  0  0  0  0  0  0  0  0
    9.0668  -16.0300   20.6869 C   0  0  2  0  0  0  0  0  0  0  0  0
    9.1671  -17.3232   20.0453 N   0  0  0  0  0  0  0  0  0  0  0  0
    9.2431  -16.2561   22.1376 C   0  0  0  0  0  0  0  0  0  0  0  0
    8.3445  -15.8160   22.8977 O   0  0  0  0  0  0  0  0  0  0  0  0
    9.2022  -12.5747   17.0517 N   0  0  0  0  0  0  0  0  0  0  0  0
   10.3508  -16.9308   22.7124 C   0  0  1  0  0  0  0  0  0  0  0  0
   10.4290  -17.1964   24.1131 C   0  0  0  0  0  0  0  0  0  0  0  0
   11.5459  -18.1320   24.4865 C   0  0  0  0  0  0  0  0  0  0  0  0
   11.4635  -18.6362   25.8583 O   0  0  0  0  0  0  0  0  0  0  0  0
   10.4983  -18.3314   26.5992 C   0  0  0  0  0  0  0  0  0  0  0  0
   10.5844  -15.9501   24.9203 O   0  0  0  0  0  0  0  0  0  0  0  0
   11.6552  -15.3090   24.7885 O   0  0  0  0  0  0  0  0  0  0  0  0
   12.4486  -19.4619   26.3718 O   0  0  0  0  0  0  0  0  0  0  0  0
    7.3829  -14.1777   26.8414 C   0  0  0  0  0  0  0  0  0  0  0  0
    8.4977  -13.4305   26.4564 C   0  0  1  0  0  0  0  0  0  0  0  0
    9.7388  -14.2756   26.6097 N   0  0  0  0  0  0  0  0  0  0  0  0
    9.5963  -15.4670   25.8126 C   0  0  0  0  0  0  0  0  0  0  0  0
    9.9270  -14.5643   28.0432 O   0  0  0  0  0  0  0  0  0  0  0  0
   10.1129  -13.5067   28.9130 O   0  0  0  0  0  0  0  0  0  0  0  0
  2  1  1  0
  3  2  2  0
  4  2  1  0
  5  4  1  0
  6  5  1  0
  6  7  1  0
  8  7  1  0
  8  9  1  6
 10  8  1  0
 10 12  1  0
 11 10  2  0
 12 13  1  0
 13 14  1  1
 15 16  2  0
 15 14  1  0
 17 18  2  0
 17 13  1  0
 19 15  1  0
 21 20  1  0
 22 21  1  6
 22 23  1  0
 23 17  1  0
 24 22  1  0
 24 25  1  0
 26 24  2  0
M  END
$$$$
