RDS.pdb
     RDKit          3D

 26 25  0  0  1  0  0  0  0  0999 V2000
    9.0622  -12.8193   17.6216 N   0  0  0  0  0  0  0  0  0  0  0  0
    8.1860  -12.6424   18.7368 C   0  0  0  0  0  0  0  0  0  0  0  0
    8.2869  -11.5656   19.4707 N   0  0  0  0  0  0  0  0  0  0  0  0
    7.2217  -13.6445   19.0250 N   0  0  0  0  0  0  0  0  0  0  0  0
    7.5735  -14.8466   19.7026 C   0  0  0  0  0  0  0  0  0  0  0  0
    7.3611  -14.8054   21.1841 C   0  0  0  0  0  0  0  0  0  0  0  0
    7.8742  -15.9828   21.9310 C   0  0  0  0  0  0  0  0  0  0  0  0
    8.6480  -16.9493   21.0711 C   0  0  2  0  0  0  0  0  0  0  0  0
    7.9182  -18.1782   20.8447 N   0  0  0  0  0  0  0  0  0  0  0  0
    9.9461  -17.3258   21.6710 C   0  0  0  0  0  0  0  0  0  0  0  0
    9.9466  -18.2963   22.4693 O   0  0  0  0  0  0  0  0  0  0  0  0
    7.6840  -11.4764   20.3126 N   0  0  0  0  0  0  0  0  0  0  0  0
   11.1724  -16.6651   21.4018 C   0  0  2  0  0  0  0  0  0  0  0  0
   12.3745  -16.9911   22.0999 C   0  0  0  0  0  0  0  0  0  0  0  0
   13.5799  -16.2398   21.6052 C   0  0  0  0  0  0  0  0  0  0  0  0
   14.8427  -16.6932   22.1905 O   0  0  0  0  0  0  0  0  0  0  0  0
   14.8627  -17.6079   23.0487 C   0  0  0  0  0  0  0  0  0  0  0  0
   12.2594  -16.7581   23.5700 O   0  0  0  0  0  0  0  0  0  0  0  0
   12.7206  -15.6810   24.0198 O   0  0  0  0  0  0  0  0  0  0  0  0
   16.0461  -16.1238   21.8115 O   0  0  0  0  0  0  0  0  0  0  0  0
    9.2327  -17.6675   25.6632 C   0  0  0  0  0  0  0  0  0  0  0  0
   10.2425  -16.8879   26.2306 C   0  0  1  0  0  0  0  0  0  0  0  0
   11.5844  -17.4890   25.8902 N   0  0  0  0  0  0  0  0  0  0  0  0
   11.6643  -17.6807   24.4647 C   0  0  0  0  0  0  0  0  0  0  0  0
   11.7329  -18.7457   26.6467 O   0  0  0  0  0  0  0  0  0  0  0  0
   11.7259  -18.6925   28.0275 O   0  0  0  0  0  0  0  0  0  0  0  0
  2  1  1  0
  3  2  2  0
  4  2  1  0
  5  4  1  0
  6  5  1  0
  6  7  1  0
  8  7  1  0
  8  9  1  1
 10  8  1  0
 10 12  1  0
 11 10  2  0
 12 13  1  0
 13 14  1  6
 15 16  2  0
 15 14  1  0
 17 18  2  0
 17 13  1  0
 19 15  1  0
 21 20  1  0
 22 21  1  6
 22 23  1  0
 23 17  1  0
 24 22  1  0
 24 25  1  0
 26 24  2  0
M  END
$$$$
