RDS.pdb
     RDKit          3D

 26 25  0  0  1  0  0  0  0  0999 V2000
    9.7094  -13.0816   18.2736 N   0  0  0  0  0  0  0  0  0  0  0  0
    8.4728  -13.5032   17.6942 C   0  0  0  0  0  0  0  0  0  0  0  0
    8.4297  -13.8175   16.4262 N   0  0  0  0  0  0  0  0  0  0  0  0
    7.3132  -13.5712   18.5114 N   0  0  0  0  0  0  0  0  0  0  0  0
    7.3619  -13.2737   19.9032 C   0  0  0  0  0  0  0  0  0  0  0  0
    8.5045  -13.9109   20.6314 C   0  0  0  0  0  0  0  0  0  0  0  0
    8.1252  -14.9649   21.6073 C   0  0  0  0  0  0  0  0  0  0  0  0
    8.6102  -16.3401   21.2254 C   0  0  2  0  0  0  0  0  0  0  0  0
    7.5166  -17.2298   20.8991 N   0  0  0  0  0  0  0  0  0  0  0  0
    9.3821  -16.9882   22.3074 C   0  0  0  0  0  0  0  0  0  0  0  0
    8.7266  -17.5802   23.2013 O   0  0  0  0  0  0  0  0  0  0  0  0
    7.5262  -14.1317   16.0197 N   0  0  0  0  0  0  0  0  0  0  0  0
   10.7982  -16.9808   22.3938 C   0  0  1  0  0  0  0  0  0  0  0  0
   11.4918  -17.6053   23.4743 C   0  0  0  0  0  0  0  0  0  0  0  0
   12.9405  -17.8818   23.1794 C   0  0  0  0  0  0  0  0  0  0  0  0
   13.6101  -18.6890   24.2006 O   0  0  0  0  0  0  0  0  0  0  0  0
   14.8613  -18.7679   24.2406 C   0  0  0  0  0  0  0  0  0  0  0  0
   11.4238  -16.8043   24.7323 O   0  0  0  0  0  0  0  0  0  0  0  0
   12.1094  -15.7543   24.7838 O   0  0  0  0  0  0  0  0  0  0  0  0
   12.8790  -19.3853   25.1475 O   0  0  0  0  0  0  0  0  0  0  0  0
    8.8433  -15.2781   26.2024 C   0  0  0  0  0  0  0  0  0  0  0  0
    9.3103  -15.8710   27.3771 C   0  0  2  0  0  0  0  0  0  0  0  0
   10.6644  -16.4856   27.1187 N   0  0  0  0  0  0  0  0  0  0  0  0
   10.6351  -17.1688   25.8508 C   0  0  0  0  0  0  0  0  0  0  0  0
   10.9879  -17.3807   28.2447 O   0  0  0  0  0  0  0  0  0  0  0  0
   11.0453  -16.8484   29.5186 O   0  0  0  0  0  0  0  0  0  0  0  0
  2  1  1  0
  3  2  2  0
  4  2  1  0
  5  4  1  0
  6  5  1  0
  6  7  1  0
  8  7  1  0
  8  9  1  1
 10  8  1  0
 10 12  1  0
 11 10  2  0
 12 13  1  0
 13 14  1  6
 15 16  2  0
 15 14  1  0
 17 18  2  0
 17 13  1  0
 19 15  1  0
 21 20  1  0
 22 21  1  6
 22 23  1  0
 23 17  1  0
 24 22  1  0
 24 25  1  0
 26 24  2  0
M  END
$$$$
