RDS.pdb
     RDKit          3D

 26 25  0  0  1  0  0  0  0  0999 V2000
    8.1343  -12.6150   15.8300 N   0  0  0  0  0  0  0  0  0  0  0  0
    8.6709  -13.8595   16.2841 C   0  0  0  0  0  0  0  0  0  0  0  0
    9.9218  -14.1491   16.0395 N   0  0  0  0  0  0  0  0  0  0  0  0
    7.8301  -14.7582   16.9930 N   0  0  0  0  0  0  0  0  0  0  0  0
    8.1441  -15.1909   18.3130 C   0  0  0  0  0  0  0  0  0  0  0  0
    7.2693  -14.6074   19.3787 C   0  0  0  0  0  0  0  0  0  0  0  0
    7.8990  -14.4846   20.7188 C   0  0  0  0  0  0  0  0  0  0  0  0
    8.2399  -15.8119   21.3465 C   0  0  2  0  0  0  0  0  0  0  0  0
    7.1212  -16.7295   21.3165 N   0  0  0  0  0  0  0  0  0  0  0  0
    8.6485  -15.6800   22.7615 C   0  0  0  0  0  0  0  0  0  0  0  0
    9.6849  -15.0094   22.9968 O   0  0  0  0  0  0  0  0  0  0  0  0
   10.3075  -15.0438   16.4013 N   0  0  0  0  0  0  0  0  0  0  0  0
    7.9492  -16.2576   23.8524 C   0  0  1  0  0  0  0  0  0  0  0  0
    8.3958  -16.1068   25.2002 C   0  0  0  0  0  0  0  0  0  0  0  0
    7.3136  -15.6648   26.1466 C   0  0  0  0  0  0  0  0  0  0  0  0
    6.8475  -14.2963   25.9168 O   0  0  0  0  0  0  0  0  0  0  0  0
    5.6223  -14.0279   25.9003 C   0  0  0  0  0  0  0  0  0  0  0  0
    8.9974  -17.3606   25.7435 O   0  0  0  0  0  0  0  0  0  0  0  0
    8.2479  -18.3624   25.8429 O   0  0  0  0  0  0  0  0  0  0  0  0
    7.7472  -13.2645   25.7123 O   0  0  0  0  0  0  0  0  0  0  0  0
   12.2313  -18.5177   24.6676 C   0  0  0  0  0  0  0  0  0  0  0  0
   12.3074  -18.8570   26.0199 C   0  0  2  0  0  0  0  0  0  0  0  0
   10.9498  -18.6766   26.6542 N   0  0  0  0  0  0  0  0  0  0  0  0
   10.3511  -17.4692   26.1452 C   0  0  0  0  0  0  0  0  0  0  0  0
   11.1227  -18.6574   28.1182 O   0  0  0  0  0  0  0  0  0  0  0  0
   11.6832  -19.7605   28.7335 O   0  0  0  0  0  0  0  0  0  0  0  0
  2  1  1  0
  3  2  2  0
  4  2  1  0
  5  4  1  0
  6  5  1  0
  6  7  1  0
  8  7  1  0
  8  9  1  1
 10  8  1  0
 10 12  1  0
 11 10  2  0
 12 13  1  0
 13 14  1  1
 15 16  2  0
 15 14  1  0
 17 18  2  0
 17 13  1  0
 19 15  1  0
 21 20  1  0
 22 21  1  6
 22 23  1  0
 23 17  1  0
 24 22  1  0
 24 25  1  0
 26 24  2  0
M  END
$$$$
