RDS.pdb
     RDKit          3D

 26 25  0  0  1  0  0  0  0  0999 V2000
    7.9830  -11.7312   18.9256 N   0  0  0  0  0  0  0  0  0  0  0  0
    8.8705  -12.7852   18.5460 C   0  0  0  0  0  0  0  0  0  0  0  0
    9.9756  -12.9703   19.2190 N   0  0  0  0  0  0  0  0  0  0  0  0
    8.5318  -13.6111   17.4414 N   0  0  0  0  0  0  0  0  0  0  0  0
    7.7078  -14.7623   17.5946 C   0  0  0  0  0  0  0  0  0  0  0  0
    8.4518  -16.0113   17.9529 C   0  0  0  0  0  0  0  0  0  0  0  0
    7.7050  -16.9713   18.8060 C   0  0  0  0  0  0  0  0  0  0  0  0
    7.9463  -16.7779   20.2813 C   0  0  2  0  0  0  0  0  0  0  0  0
    7.6826  -15.4181   20.7004 N   0  0  0  0  0  0  0  0  0  0  0  0
    9.3393  -17.0844   20.6715 C   0  0  0  0  0  0  0  0  0  0  0  0
    9.7260  -18.2710   20.5242 O   0  0  0  0  0  0  0  0  0  0  0  0
   10.6553  -13.6791   18.8785 N   0  0  0  0  0  0  0  0  0  0  0  0
   10.2508  -16.1314   21.1946 C   0  0  2  0  0  0  0  0  0  0  0  0
   11.5532  -16.5019   21.6475 C   0  0  0  0  0  0  0  0  0  0  0  0
   12.6312  -15.5389   21.2317 C   0  0  0  0  0  0  0  0  0  0  0  0
   12.8368  -15.4679   19.7841 O   0  0  0  0  0  0  0  0  0  0  0  0
   12.6844  -16.4820   19.0618 C   0  0  0  0  0  0  0  0  0  0  0  0
   11.6180  -16.6512   23.1315 O   0  0  0  0  0  0  0  0  0  0  0  0
   11.4715  -15.6130   23.8213 O   0  0  0  0  0  0  0  0  0  0  0  0
   13.2043  -14.2798   19.1764 O   0  0  0  0  0  0  0  0  0  0  0  0
   10.1860  -19.5099   25.0211 C   0  0  0  0  0  0  0  0  0  0  0  0
   10.7435  -18.5183   25.8306 C   0  0  1  0  0  0  0  0  0  0  0  0
   12.0279  -18.0311   25.2054 N   0  0  0  0  0  0  0  0  0  0  0  0
   11.8338  -17.8890   23.7851 C   0  0  0  0  0  0  0  0  0  0  0  0
   13.0984  -18.9864   25.5448 O   0  0  0  0  0  0  0  0  0  0  0  0
   13.4274  -19.1677   26.8746 O   0  0  0  0  0  0  0  0  0  0  0  0
  2  1  1  0
  3  2  2  0
  4  2  1  0
  5  4  1  0
  6  5  1  0
  6  7  1  0
  8  7  1  0
  8  9  1  6
 10  8  1  0
 10 12  1  0
 11 10  2  0
 12 13  1  0
 13 14  1  6
 15 16  2  0
 15 14  1  0
 17 18  2  0
 17 13  1  0
 19 15  1  0
 21 20  1  0
 22 21  1  1
 22 23  1  0
 23 17  1  0
 24 22  1  0
 24 25  1  0
 26 24  2  0
M  END
$$$$
