RDS.pdb
     RDKit          3D

 26 25  0  0  1  0  0  0  0  0999 V2000
    7.9793  -14.2115   14.0381 N   0  0  0  0  0  0  0  0  0  0  0  0
    8.3432  -15.0191   15.1597 C   0  0  0  0  0  0  0  0  0  0  0  0
    9.1340  -16.0451   14.9851 N   0  0  0  0  0  0  0  0  0  0  0  0
    7.8352  -14.6889   16.4442 N   0  0  0  0  0  0  0  0  0  0  0  0
    7.9506  -13.3734   16.9774 C   0  0  0  0  0  0  0  0  0  0  0  0
    7.3736  -13.2102   18.3493 C   0  0  0  0  0  0  0  0  0  0  0  0
    7.6885  -14.3045   19.3037 C   0  0  0  0  0  0  0  0  0  0  0  0
    8.8478  -13.9921   20.2149 C   0  0  2  0  0  0  0  0  0  0  0  0
    9.9631  -13.4152   19.4956 N   0  0  0  0  0  0  0  0  0  0  0  0
    9.3605  -15.1926   20.9097 C   0  0  0  0  0  0  0  0  0  0  0  0
    8.5362  -15.8560   21.5876 O   0  0  0  0  0  0  0  0  0  0  0  0
    9.4012  -16.6163   15.8112 N   0  0  0  0  0  0  0  0  0  0  0  0
   10.7082  -15.6323   20.8563 C   0  0  1  0  0  0  0  0  0  0  0  0
   11.1769  -16.7268   21.6443 C   0  0  0  0  0  0  0  0  0  0  0  0
   12.4482  -17.3407   21.1253 C   0  0  0  0  0  0  0  0  0  0  0  0
   12.9562  -18.4385   21.9497 O   0  0  0  0  0  0  0  0  0  0  0  0
   12.5296  -19.6083   21.7978 C   0  0  0  0  0  0  0  0  0  0  0  0
   11.3995  -16.3463   23.0707 O   0  0  0  0  0  0  0  0  0  0  0  0
   12.3338  -15.5443   23.3133 O   0  0  0  0  0  0  0  0  0  0  0  0
   13.9201  -18.2129   22.9171 O   0  0  0  0  0  0  0  0  0  0  0  0
    8.5542  -15.9807   25.7540 C   0  0  0  0  0  0  0  0  0  0  0  0
    9.8421  -15.4862   25.9690 C   0  0  1  0  0  0  0  0  0  0  0  0
   10.8505  -16.5192   25.5287 N   0  0  0  0  0  0  0  0  0  0  0  0
   10.6185  -16.8406   24.1438 C   0  0  0  0  0  0  0  0  0  0  0  0
   10.7303  -17.6900   26.4167 O   0  0  0  0  0  0  0  0  0  0  0  0
   11.0320  -17.5388   27.7567 O   0  0  0  0  0  0  0  0  0  0  0  0
  2  1  1  0
  3  2  2  0
  4  2  1  0
  5  4  1  0
  6  5  1  0
  6  7  1  0
  8  7  1  0
  8  9  1  6
 10  8  1  0
 10 12  1  0
 11 10  2  0
 12 13  1  0
 13 14  1  1
 15 16  2  0
 15 14  1  0
 17 18  2  0
 17 13  1  0
 19 15  1  0
 21 20  1  0
 22 21  1  6
 22 23  1  0
 23 17  1  0
 24 22  1  0
 24 25  1  0
 26 24  2  0
M  END
$$$$
