RDS.pdb
     RDKit          3D

 26 25  0  0  1  0  0  0  0  0999 V2000
    6.4612  -13.8081   16.2260 N   0  0  0  0  0  0  0  0  0  0  0  0
    7.6727  -14.4354   15.8002 C   0  0  0  0  0  0  0  0  0  0  0  0
    7.7224  -15.0109   14.6277 N   0  0  0  0  0  0  0  0  0  0  0  0
    8.8003  -14.4207   16.6636 N   0  0  0  0  0  0  0  0  0  0  0  0
    8.6662  -14.5979   18.0702 C   0  0  0  0  0  0  0  0  0  0  0  0
    7.8687  -13.5310   18.7539 C   0  0  0  0  0  0  0  0  0  0  0  0
    7.7760  -13.6576   20.2313 C   0  0  0  0  0  0  0  0  0  0  0  0
    9.1177  -13.6781   20.9180 C   0  0  2  0  0  0  0  0  0  0  0  0
   10.1951  -13.9639   19.9952 N   0  0  0  0  0  0  0  0  0  0  0  0
    9.1893  -14.6952   21.9890 C   0  0  0  0  0  0  0  0  0  0  0  0
    8.2813  -14.6752   22.8576 O   0  0  0  0  0  0  0  0  0  0  0  0
    8.5984  -15.4931   14.3444 N   0  0  0  0  0  0  0  0  0  0  0  0
   10.2078  -15.6774   22.0916 C   0  0  1  0  0  0  0  0  0  0  0  0
   10.2723  -16.5861   23.1909 C   0  0  0  0  0  0  0  0  0  0  0  0
   11.1627  -17.7720   22.9397 C   0  0  0  0  0  0  0  0  0  0  0  0
   11.1493  -18.7626   24.0174 O   0  0  0  0  0  0  0  0  0  0  0  0
   11.6072  -18.4857   25.1519 C   0  0  0  0  0  0  0  0  0  0  0  0
   10.7311  -15.9255   24.4487 O   0  0  0  0  0  0  0  0  0  0  0  0
   11.8709  -15.4003   24.4401 O   0  0  0  0  0  0  0  0  0  0  0  0
   10.6307  -20.0293   23.8113 O   0  0  0  0  0  0  0  0  0  0  0  0
    9.7951  -13.4459   28.3188 C   0  0  0  0  0  0  0  0  0  0  0  0
    9.3315  -14.1818   27.2265 C   0  0  2  0  0  0  0  0  0  0  0  0
   10.3701  -15.2070   26.8417 N   0  0  0  0  0  0  0  0  0  0  0  0
    9.9527  -15.8655   25.6304 C   0  0  0  0  0  0  0  0  0  0  0  0
   10.5399  -16.1390   27.9714 O   0  0  0  0  0  0  0  0  0  0  0  0
   11.1170  -15.6700   29.1361 O   0  0  0  0  0  0  0  0  0  0  0  0
  2  1  1  0
  3  2  2  0
  4  2  1  0
  5  4  1  0
  6  5  1  0
  6  7  1  0
  8  7  1  0
  8  9  1  6
 10  8  1  0
 10 12  1  0
 11 10  2  0
 12 13  1  0
 13 14  1  1
 15 16  2  0
 15 14  1  0
 17 18  2  0
 17 13  1  0
 19 15  1  0
 21 20  1  0
 22 21  1  6
 22 23  1  0
 23 17  1  0
 24 22  1  0
 24 25  1  0
 26 24  2  0
M  END
$$$$
