CHC.pdb
     RDKit          3D

 23 23  0  0  1  0  0  0  0  0999 V2000
   21.8468  -12.5758  -20.2198 N   0  0  0  0  0  0  0  0  0  0  0  0
   22.2427  -11.1878  -20.1618 C   0  0  1  0  0  0  0  0  0  0  0  0
   22.0835  -10.6080  -21.5380 C   0  0  0  0  0  0  0  0  0  0  0  0
   23.6055  -10.8629  -22.4934 S   0  0  0  0  0  0  0  0  0  0  0  0
   21.4834  -10.4706  -19.1232 C   0  0  0  0  0  0  0  0  0  0  0  0
   20.4202   -9.9133  -19.4858 O   0  0  0  0  0  0  0  0  0  0  0  0
   21.8850  -10.3821  -17.7703 N   0  0  0  0  0  0  0  0  0  0  0  0
   21.3175   -9.6580  -16.7031 C   0  0  1  0  0  0  0  0  0  0  0  0
   21.3790  -10.2725  -15.3263 C   0  0  0  0  0  0  0  0  0  0  0  0
   20.6367   -9.4919  -14.3037 C   0  0  0  0  0  0  0  0  0  0  0  0
   21.2724   -8.5896  -13.4360 C   0  0  0  0  0  0  0  0  0  0  0  0
   20.3445   -8.0595  -12.6549 N   0  0  0  0  0  0  0  0  0  0  0  0
   19.1426   -8.5809  -12.9823 C   0  0  0  0  0  0  0  0  0  0  0  0
   19.3504   -9.4438  -13.9820 N   0  0  0  0  0  0  0  0  0  0  0  0
   21.5856   -8.2195  -16.6741 C   0  0  0  0  0  0  0  0  0  0  0  0
   22.7801   -7.7567  -16.5876 O   0  0  0  0  0  0  0  0  0  0  0  0
   20.5512   -7.2600  -16.7408 N   0  0  0  0  0  0  0  0  0  0  0  0
   20.9081   -5.8501  -16.7084 C   0  0  1  0  0  0  0  0  0  0  0  0
   20.6108   -5.2002  -18.0497 C   0  0  0  0  0  0  0  0  0  0  0  0
   21.8022   -5.8164  -19.2423 S   0  0  0  0  0  0  0  0  0  0  0  0
   20.0567   -5.1825  -15.7105 C   0  0  0  0  0  0  0  0  0  0  0  0
   18.8682   -5.5268  -15.5221 O   0  0  0  0  0  0  0  0  0  0  0  0
   20.5646   -4.1463  -14.9521 O   0  0  0  0  0  0  0  0  0  0  0  0
  2  3  1  0
  2  1  1  6
  3  4  1  0
  5  6  2  0
  5  2  1  0
  7  5  1  0
  8  7  1  0
  8  9  1  1
 10  9  1  0
 11 10  2  0
 12 11  1  0
 13 14  2  0
 13 12  1  0
 14 10  1  0
 15  8  1  0
 15 17  1  0
 16 15  2  0
 18 17  1  0
 18 21  1  0
 18 19  1  6
 20 19  1  0
 21 23  1  0
 22 21  2  0
M  END
$$$$
