CHC.pdb
     RDKit          3D

 23 23  0  0  1  0  0  0  0  0999 V2000
   22.7627  -20.0189  -18.0332 N   0  0  0  0  0  0  0  0  0  0  0  0
   23.3543  -18.7796  -17.5850 C   0  0  1  0  0  0  0  0  0  0  0  0
   24.3674  -18.3583  -18.6104 C   0  0  0  0  0  0  0  0  0  0  0  0
   25.8359  -19.4187  -18.4970 S   0  0  0  0  0  0  0  0  0  0  0  0
   22.3153  -17.7683  -17.3253 C   0  0  0  0  0  0  0  0  0  0  0  0
   21.4323  -17.6286  -18.2046 O   0  0  0  0  0  0  0  0  0  0  0  0
   22.2663  -16.9669  -16.1613 N   0  0  0  0  0  0  0  0  0  0  0  0
   21.3894  -15.9180  -15.8207 C   0  0  1  0  0  0  0  0  0  0  0  0
   21.0600  -15.7240  -14.3610 C   0  0  0  0  0  0  0  0  0  0  0  0
   20.2999  -16.8586  -13.7770 C   0  0  0  0  0  0  0  0  0  0  0  0
   19.9717  -18.0061  -14.5164 C   0  0  0  0  0  0  0  0  0  0  0  0
   19.3018  -18.8222  -13.7181 N   0  0  0  0  0  0  0  0  0  0  0  0
   19.1855  -18.2502  -12.5004 C   0  0  0  0  0  0  0  0  0  0  0  0
   19.7984  -17.0640  -12.5660 N   0  0  0  0  0  0  0  0  0  0  0  0
   21.5962  -14.6437  -16.5104 C   0  0  0  0  0  0  0  0  0  0  0  0
   22.7725  -14.1992  -16.7697 O   0  0  0  0  0  0  0  0  0  0  0  0
   20.5192  -13.8323  -16.9307 N   0  0  0  0  0  0  0  0  0  0  0  0
   20.8149  -12.6008  -17.6462 C   0  0  1  0  0  0  0  0  0  0  0  0
   20.6820  -12.8168  -19.1447 C   0  0  0  0  0  0  0  0  0  0  0  0
   19.1159  -13.6382  -19.4513 S   0  0  0  0  0  0  0  0  0  0  0  0
   19.8091  -11.5952  -17.2672 C   0  0  0  0  0  0  0  0  0  0  0  0
   18.8492  -11.8746  -16.5142 O   0  0  0  0  0  0  0  0  0  0  0  0
   19.9101  -10.3036  -17.7451 O   0  0  0  0  0  0  0  0  0  0  0  0
  2  3  1  0
  2  1  1  6
  3  4  1  0
  5  6  2  0
  5  2  1  0
  7  5  1  0
  8  7  1  0
  8  9  1  1
 10  9  1  0
 11 10  2  0
 12 11  1  0
 13 14  2  0
 13 12  1  0
 14 10  1  0
 15  8  1  0
 15 17  1  0
 16 15  2  0
 18 17  1  0
 18 21  1  0
 18 19  1  6
 20 19  1  0
 21 23  1  0
 22 21  2  0
M  END
$$$$
