CHC.pdb
     RDKit          3D

 23 23  0  0  1  0  0  0  0  0999 V2000
   27.8321  -21.0534  -10.4089 N   0  0  0  0  0  0  0  0  0  0  0  0
   26.4067  -21.1390  -10.1914 C   0  0  1  0  0  0  0  0  0  0  0  0
   26.1085  -20.5168   -8.8575 C   0  0  0  0  0  0  0  0  0  0  0  0
   27.5304  -20.7257   -7.7490 S   0  0  0  0  0  0  0  0  0  0  0  0
   25.6694  -20.5278  -11.3105 C   0  0  0  0  0  0  0  0  0  0  0  0
   26.0238  -19.3758  -11.6567 O   0  0  0  0  0  0  0  0  0  0  0  0
   24.6076  -21.1610  -11.9968 N   0  0  0  0  0  0  0  0  0  0  0  0
   23.8615  -20.7252  -13.1097 C   0  0  1  0  0  0  0  0  0  0  0  0
   24.3543  -21.1147  -14.4817 C   0  0  0  0  0  0  0  0  0  0  0  0
   25.7470  -20.6734  -14.7501 C   0  0  0  0  0  0  0  0  0  0  0  0
   26.8070  -21.5798  -14.9115 C   0  0  0  0  0  0  0  0  0  0  0  0
   27.9065  -20.8782  -15.1373 N   0  0  0  0  0  0  0  0  0  0  0  0
   27.5997  -19.5632  -15.1280 C   0  0  0  0  0  0  0  0  0  0  0  0
   26.2872  -19.4700  -14.8916 N   0  0  0  0  0  0  0  0  0  0  0  0
   22.4055  -20.8272  -13.0006 C   0  0  0  0  0  0  0  0  0  0  0  0
   21.8356  -21.8750  -12.5254 O   0  0  0  0  0  0  0  0  0  0  0  0
   21.5457  -19.7834  -13.4082 N   0  0  0  0  0  0  0  0  0  0  0  0
   20.1165  -19.9317  -13.1811 C   0  0  1  0  0  0  0  0  0  0  0  0
   19.4976  -18.5906  -12.8231 C   0  0  0  0  0  0  0  0  0  0  0  0
   20.1207  -18.1031  -11.2120 S   0  0  0  0  0  0  0  0  0  0  0  0
   19.4931  -20.3690  -14.4406 C   0  0  0  0  0  0  0  0  0  0  0  0
   20.1359  -20.4128  -15.5137 O   0  0  0  0  0  0  0  0  0  0  0  0
   18.1644  -20.7448  -14.4593 O   0  0  0  0  0  0  0  0  0  0  0  0
  2  3  1  0
  2  1  1  6
  3  4  1  0
  5  6  2  0
  5  2  1  0
  7  5  1  0
  8  7  1  0
  8  9  1  6
 10  9  1  0
 11 10  2  0
 12 11  1  0
 13 14  2  0
 13 12  1  0
 14 10  1  0
 15  8  1  0
 15 17  1  0
 16 15  2  0
 18 17  1  0
 18 21  1  0
 18 19  1  6
 20 19  1  0
 21 23  1  0
 22 21  2  0
M  END
$$$$
