CHC.pdb
     RDKit          3D

 23 23  0  0  1  0  0  0  0  0999 V2000
   26.7216  -11.0782  -18.2561 N   0  0  0  0  0  0  0  0  0  0  0  0
   26.2351  -11.1176  -16.8966 C   0  0  1  0  0  0  0  0  0  0  0  0
   27.3342  -10.6205  -16.0020 C   0  0  0  0  0  0  0  0  0  0  0  0
   28.6331  -11.8805  -15.8639 S   0  0  0  0  0  0  0  0  0  0  0  0
   24.9774  -10.3616  -16.7694 C   0  0  0  0  0  0  0  0  0  0  0  0
   24.9573   -9.2123  -17.2705 O   0  0  0  0  0  0  0  0  0  0  0  0
   23.8197  -10.8565  -16.1255 N   0  0  0  0  0  0  0  0  0  0  0  0
   22.5727  -10.2390  -15.9050 C   0  0  1  0  0  0  0  0  0  0  0  0
   21.4183  -11.1168  -15.4882 C   0  0  0  0  0  0  0  0  0  0  0  0
   20.1206  -10.3954  -15.4452 C   0  0  0  0  0  0  0  0  0  0  0  0
   19.9984   -9.0422  -15.7984 C   0  0  0  0  0  0  0  0  0  0  0  0
   18.7273   -8.7015  -15.6563 N   0  0  0  0  0  0  0  0  0  0  0  0
   18.0288   -9.7749  -15.2280 C   0  0  0  0  0  0  0  0  0  0  0  0
   18.8974  -10.7841  -15.1093 N   0  0  0  0  0  0  0  0  0  0  0  0
   22.5914   -8.9726  -15.1716 C   0  0  0  0  0  0  0  0  0  0  0  0
   23.0773   -8.8857  -13.9863 O   0  0  0  0  0  0  0  0  0  0  0  0
   22.0798   -7.7767  -15.7222 N   0  0  0  0  0  0  0  0  0  0  0  0
   22.1379   -6.5630  -14.9226 C   0  0  1  0  0  0  0  0  0  0  0  0
   22.9450   -5.4953  -15.6427 C   0  0  0  0  0  0  0  0  0  0  0  0
   22.9298   -4.0114  -14.6332 S   0  0  0  0  0  0  0  0  0  0  0  0
   20.7693   -6.0409  -14.7779 C   0  0  0  0  0  0  0  0  0  0  0  0
   19.9387   -6.1016  -15.7122 O   0  0  0  0  0  0  0  0  0  0  0  0
   20.3723   -5.4652  -13.5872 O   0  0  0  0  0  0  0  0  0  0  0  0
  2  3  1  0
  2  1  1  6
  3  4  1  0
  5  6  2  0
  5  2  1  0
  7  5  1  0
  8  7  1  0
  8  9  1  1
 10  9  1  0
 11 10  2  0
 12 11  1  0
 13 14  2  0
 13 12  1  0
 14 10  1  0
 15  8  1  0
 15 17  1  0
 16 15  2  0
 18 17  1  0
 18 21  1  0
 18 19  1  6
 20 19  1  0
 21 23  1  0
 22 21  2  0
M  END
$$$$
