CHC.pdb
     RDKit          3D

 23 23  0  0  1  0  0  0  0  0999 V2000
   15.8424  -13.7984  -16.8894 N   0  0  0  0  0  0  0  0  0  0  0  0
   16.3813  -12.6435  -17.5693 C   0  0  1  0  0  0  0  0  0  0  0  0
   15.3063  -11.5958  -17.6153 C   0  0  0  0  0  0  0  0  0  0  0  0
   15.0208  -10.9330  -15.9500 S   0  0  0  0  0  0  0  0  0  0  0  0
   17.6256  -12.1905  -16.9243 C   0  0  0  0  0  0  0  0  0  0  0  0
   17.8323  -12.5917  -15.7543 O   0  0  0  0  0  0  0  0  0  0  0  0
   18.5751  -11.3460  -17.5446 N   0  0  0  0  0  0  0  0  0  0  0  0
   19.7881  -10.8293  -17.0479 C   0  0  1  0  0  0  0  0  0  0  0  0
   21.0195  -10.9792  -17.9071 C   0  0  0  0  0  0  0  0  0  0  0  0
   21.4433  -12.3922  -18.0805 C   0  0  0  0  0  0  0  0  0  0  0  0
   20.9162  -13.4377  -17.3059 C   0  0  0  0  0  0  0  0  0  0  0  0
   21.4912  -14.5624  -17.7017 N   0  0  0  0  0  0  0  0  0  0  0  0
   22.3631  -14.2854  -18.6950 C   0  0  0  0  0  0  0  0  0  0  0  0
   22.3127  -12.9657  -18.9024 N   0  0  0  0  0  0  0  0  0  0  0  0
   19.7242   -9.5158  -16.4054 C   0  0  0  0  0  0  0  0  0  0  0  0
   19.0648   -8.5427  -16.9219 O   0  0  0  0  0  0  0  0  0  0  0  0
   20.3799   -9.2429  -15.1845 N   0  0  0  0  0  0  0  0  0  0  0  0
   20.2591   -7.9104  -14.6137 C   0  0  1  0  0  0  0  0  0  0  0  0
   20.5286   -7.9509  -13.1185 C   0  0  0  0  0  0  0  0  0  0  0  0
   19.2032   -8.8773  -12.3396 S   0  0  0  0  0  0  0  0  0  0  0  0
   21.2975   -7.0568  -15.2133 C   0  0  0  0  0  0  0  0  0  0  0  0
   22.1547   -7.5165  -16.0010 O   0  0  0  0  0  0  0  0  0  0  0  0
   21.3437   -5.7102  -14.9111 O   0  0  0  0  0  0  0  0  0  0  0  0
  2  3  1  0
  2  1  1  1
  3  4  1  0
  5  6  2  0
  5  2  1  0
  7  5  1  0
  8  7  1  0
  8  9  1  6
 10  9  1  0
 11 10  2  0
 12 11  1  0
 13 14  2  0
 13 12  1  0
 14 10  1  0
 15  8  1  0
 15 17  1  0
 16 15  2  0
 18 17  1  0
 18 21  1  0
 18 19  1  1
 20 19  1  0
 21 23  1  0
 22 21  2  0
M  END
$$$$
