CHC.pdb
     RDKit          3D

 23 23  0  0  1  0  0  0  0  0999 V2000
   17.7065  -12.5756  -15.0710 N   0  0  0  0  0  0  0  0  0  0  0  0
   16.6931  -11.5518  -14.9633 C   0  0  1  0  0  0  0  0  0  0  0  0
   15.4039  -12.2214  -14.5829 C   0  0  0  0  0  0  0  0  0  0  0  0
   14.5650  -12.8331  -16.0716 S   0  0  0  0  0  0  0  0  0  0  0  0
   17.1140  -10.4964  -14.0261 C   0  0  0  0  0  0  0  0  0  0  0  0
   17.5867  -10.8736  -12.9276 O   0  0  0  0  0  0  0  0  0  0  0  0
   17.0134   -9.1123  -14.2979 N   0  0  0  0  0  0  0  0  0  0  0  0
   17.4263   -8.0064  -13.5287 C   0  0  1  0  0  0  0  0  0  0  0  0
   18.4013   -7.0400  -14.1552 C   0  0  0  0  0  0  0  0  0  0  0  0
   19.7107   -7.6599  -14.4826 C   0  0  0  0  0  0  0  0  0  0  0  0
   20.4753   -8.3536  -13.5311 C   0  0  0  0  0  0  0  0  0  0  0  0
   21.5746   -8.7816  -14.1315 N   0  0  0  0  0  0  0  0  0  0  0  0
   21.5498   -8.3937  -15.4247 C   0  0  0  0  0  0  0  0  0  0  0  0
   20.4112   -7.7176  -15.6079 N   0  0  0  0  0  0  0  0  0  0  0  0
   16.3858   -7.3174  -12.7641 C   0  0  0  0  0  0  0  0  0  0  0  0
   15.2995   -6.9115  -13.3154 O   0  0  0  0  0  0  0  0  0  0  0  0
   16.5138   -7.0607  -11.3811 N   0  0  0  0  0  0  0  0  0  0  0  0
   15.4112   -6.4105  -10.6900 C   0  0  1  0  0  0  0  0  0  0  0  0
   15.1428   -7.0983   -9.3615 C   0  0  0  0  0  0  0  0  0  0  0  0
   16.7137   -7.3166   -8.5212 S   0  0  0  0  0  0  0  0  0  0  0  0
   15.8113   -5.0276  -10.3836 C   0  0  0  0  0  0  0  0  0  0  0  0
   15.0290   -4.2226   -9.8299 O   0  0  0  0  0  0  0  0  0  0  0  0
   17.0794   -4.5878  -10.7080 O   0  0  0  0  0  0  0  0  0  0  0  0
  2  3  1  0
  2  1  1  1
  3  4  1  0
  5  6  2  0
  5  2  1  0
  7  5  1  0
  8  7  1  0
  8  9  1  6
 10  9  1  0
 11 10  2  0
 12 11  1  0
 13 14  2  0
 13 12  1  0
 14 10  1  0
 15  8  1  0
 15 17  1  0
 16 15  2  0
 18 17  1  0
 18 21  1  0
 18 19  1  1
 20 19  1  0
 21 23  1  0
 22 21  2  0
M  END
$$$$
