CHC.pdb
     RDKit          3D

 23 23  0  0  1  0  0  0  0  0999 V2000
   22.0560  -14.3856  -18.9626 N   0  0  0  0  0  0  0  0  0  0  0  0
   22.4230  -13.1034  -19.5175 C   0  0  1  0  0  0  0  0  0  0  0  0
   21.4043  -12.7475  -20.5620 C   0  0  0  0  0  0  0  0  0  0  0  0
   21.5907  -13.8381  -22.0007 S   0  0  0  0  0  0  0  0  0  0  0  0
   22.5615  -12.0939  -18.4539 C   0  0  0  0  0  0  0  0  0  0  0  0
   21.7282  -12.1430  -17.5182 O   0  0  0  0  0  0  0  0  0  0  0  0
   23.5637  -11.0964  -18.4369 N   0  0  0  0  0  0  0  0  0  0  0  0
   23.8085  -10.0751  -17.4978 C   0  0  1  0  0  0  0  0  0  0  0  0
   25.2458   -9.7356  -17.1880 C   0  0  0  0  0  0  0  0  0  0  0  0
   26.0096  -10.8799  -16.6283 C   0  0  0  0  0  0  0  0  0  0  0  0
   25.4153  -12.1228  -16.3581 C   0  0  0  0  0  0  0  0  0  0  0  0
   26.3531  -12.9214  -15.8734 N   0  0  0  0  0  0  0  0  0  0  0  0
   27.5218  -12.2470  -15.8205 C   0  0  0  0  0  0  0  0  0  0  0  0
   27.2835  -11.0156  -16.2832 N   0  0  0  0  0  0  0  0  0  0  0  0
   22.9724   -8.8783  -17.6014 C   0  0  0  0  0  0  0  0  0  0  0  0
   22.9535   -8.1575  -18.6638 O   0  0  0  0  0  0  0  0  0  0  0  0
   22.1397   -8.4485  -16.5445 N   0  0  0  0  0  0  0  0  0  0  0  0
   21.3336   -7.2531  -16.7371 C   0  0  1  0  0  0  0  0  0  0  0  0
   19.8776   -7.6289  -16.9579 C   0  0  0  0  0  0  0  0  0  0  0  0
   19.3759   -8.7180  -15.6224 S   0  0  0  0  0  0  0  0  0  0  0  0
   21.3879   -6.4569  -15.5003 C   0  0  0  0  0  0  0  0  0  0  0  0
   21.9597   -6.8784  -14.4698 O   0  0  0  0  0  0  0  0  0  0  0  0
   20.7980   -5.2091  -15.4560 O   0  0  0  0  0  0  0  0  0  0  0  0
  2  3  1  0
  2  1  1  1
  3  4  1  0
  5  6  2  0
  5  2  1  0
  7  5  1  0
  8  7  1  0
  8  9  1  6
 10  9  1  0
 11 10  2  0
 12 11  1  0
 13 14  2  0
 13 12  1  0
 14 10  1  0
 15  8  1  0
 15 17  1  0
 16 15  2  0
 18 17  1  0
 18 21  1  0
 18 19  1  1
 20 19  1  0
 21 23  1  0
 22 21  2  0
M  END
$$$$
