CHC.pdb
     RDKit          3D

 23 23  0  0  1  0  0  0  0  0999 V2000
   27.2262  -10.5832  -19.3145 N   0  0  0  0  0  0  0  0  0  0  0  0
   27.0180  -10.2793  -17.9177 C   0  0  1  0  0  0  0  0  0  0  0  0
   28.1001   -9.3304  -17.4889 C   0  0  0  0  0  0  0  0  0  0  0  0
   29.6870  -10.2066  -17.3984 S   0  0  0  0  0  0  0  0  0  0  0  0
   25.6552   -9.7681  -17.6915 C   0  0  0  0  0  0  0  0  0  0  0  0
   25.2055   -8.9656  -18.5437 O   0  0  0  0  0  0  0  0  0  0  0  0
   24.8490  -10.1293  -16.5874 N   0  0  0  0  0  0  0  0  0  0  0  0
   23.5443   -9.7204  -16.2470 C   0  0  1  0  0  0  0  0  0  0  0  0
   22.5929  -10.7697  -15.7266 C   0  0  0  0  0  0  0  0  0  0  0  0
   21.2031  -10.2709  -15.5659 C   0  0  0  0  0  0  0  0  0  0  0  0
   20.5969  -10.1202  -14.3086 C   0  0  0  0  0  0  0  0  0  0  0  0
   19.3715   -9.6597  -14.5043 N   0  0  0  0  0  0  0  0  0  0  0  0
   19.1643   -9.5082  -15.8300 C   0  0  0  0  0  0  0  0  0  0  0  0
   20.2888   -9.8854  -16.4467 N   0  0  0  0  0  0  0  0  0  0  0  0
   23.4255   -8.4598  -15.5129 C   0  0  0  0  0  0  0  0  0  0  0  0
   24.0566   -8.2564  -14.4134 O   0  0  0  0  0  0  0  0  0  0  0  0
   22.6146   -7.3971  -15.9692 N   0  0  0  0  0  0  0  0  0  0  0  0
   22.5224   -6.1947  -15.1558 C   0  0  1  0  0  0  0  0  0  0  0  0
   22.7875   -4.9623  -16.0049 C   0  0  0  0  0  0  0  0  0  0  0  0
   22.5410   -3.5136  -14.9744 S   0  0  0  0  0  0  0  0  0  0  0  0
   21.1428   -6.0818  -14.6554 C   0  0  0  0  0  0  0  0  0  0  0  0
   20.1832   -6.6348  -15.2383 O   0  0  0  0  0  0  0  0  0  0  0  0
   20.8801   -5.3506  -13.5139 O   0  0  0  0  0  0  0  0  0  0  0  0
  2  3  1  0
  2  1  1  6
  3  4  1  0
  5  6  2  0
  5  2  1  0
  7  5  1  0
  8  7  1  0
  8  9  1  1
 10  9  1  0
 11 10  2  0
 12 11  1  0
 13 14  2  0
 13 12  1  0
 14 10  1  0
 15  8  1  0
 15 17  1  0
 16 15  2  0
 18 17  1  0
 18 21  1  0
 18 19  1  6
 20 19  1  0
 21 23  1  0
 22 21  2  0
M  END
$$$$
