CHC.pdb
     RDKit          3D

 23 23  0  0  1  0  0  0  0  0999 V2000
   21.7027  -13.3700  -16.7035 N   0  0  0  0  0  0  0  0  0  0  0  0
   21.4648  -12.0671  -17.2801 C   0  0  1  0  0  0  0  0  0  0  0  0
   19.9787  -11.8687  -17.3667 C   0  0  0  0  0  0  0  0  0  0  0  0
   19.2941  -12.9110  -18.6854 S   0  0  0  0  0  0  0  0  0  0  0  0
   22.1605  -11.0205  -16.5119 C   0  0  0  0  0  0  0  0  0  0  0  0
   22.0854  -11.0944  -15.2624 O   0  0  0  0  0  0  0  0  0  0  0  0
   22.8910   -9.9622  -17.1002 N   0  0  0  0  0  0  0  0  0  0  0  0
   23.5694   -8.8851  -16.4962 C   0  0  1  0  0  0  0  0  0  0  0  0
   25.0432   -8.7343  -16.7824 C   0  0  0  0  0  0  0  0  0  0  0  0
   25.8220   -9.9687  -16.5069 C   0  0  0  0  0  0  0  0  0  0  0  0
   26.4397  -10.2099  -15.2695 C   0  0  0  0  0  0  0  0  0  0  0  0
   27.0462  -11.3841  -15.3436 N   0  0  0  0  0  0  0  0  0  0  0  0
   26.8454  -11.9068  -16.5724 C   0  0  0  0  0  0  0  0  0  0  0  0
   26.1021  -11.0291  -17.2536 N   0  0  0  0  0  0  0  0  0  0  0  0
   22.8765   -7.5959  -16.4932 C   0  0  0  0  0  0  0  0  0  0  0  0
   22.4924   -7.0331  -17.5814 O   0  0  0  0  0  0  0  0  0  0  0  0
   22.5894   -6.8990  -15.2987 N   0  0  0  0  0  0  0  0  0  0  0  0
   21.8546   -5.6464  -15.3845 C   0  0  1  0  0  0  0  0  0  0  0  0
   20.3674   -5.9174  -15.5419 C   0  0  0  0  0  0  0  0  0  0  0  0
   19.8850   -7.1133  -14.2935 S   0  0  0  0  0  0  0  0  0  0  0  0
   22.0265   -4.9238  -14.1138 C   0  0  0  0  0  0  0  0  0  0  0  0
   22.6991   -5.3990  -13.1712 O   0  0  0  0  0  0  0  0  0  0  0  0
   21.4377   -3.6872  -13.9376 O   0  0  0  0  0  0  0  0  0  0  0  0
  2  3  1  0
  2  1  1  1
  3  4  1  0
  5  6  2  0
  5  2  1  0
  7  5  1  0
  8  7  1  0
  8  9  1  6
 10  9  1  0
 11 10  2  0
 12 11  1  0
 13 14  2  0
 13 12  1  0
 14 10  1  0
 15  8  1  0
 15 17  1  0
 16 15  2  0
 18 17  1  0
 18 21  1  0
 18 19  1  1
 20 19  1  0
 21 23  1  0
 22 21  2  0
M  END
$$$$
