CHC.pdb
     RDKit          3D

 23 23  0  0  1  0  0  0  0  0999 V2000
   21.5520   -9.9202  -17.8083 N   0  0  0  0  0  0  0  0  0  0  0  0
   22.3111   -9.3594  -16.7148 C   0  0  1  0  0  0  0  0  0  0  0  0
   23.5303   -8.7007  -17.2937 C   0  0  0  0  0  0  0  0  0  0  0  0
   24.6446   -9.9597  -17.9771 S   0  0  0  0  0  0  0  0  0  0  0  0
   21.4743   -8.4558  -15.9068 C   0  0  0  0  0  0  0  0  0  0  0  0
   20.7384   -7.6575  -16.5342 O   0  0  0  0  0  0  0  0  0  0  0  0
   21.4606   -8.4449  -14.4929 N   0  0  0  0  0  0  0  0  0  0  0  0
   20.7841   -7.5895  -13.6008 C   0  0  1  0  0  0  0  0  0  0  0  0
   20.4331   -8.1323  -12.2373 C   0  0  0  0  0  0  0  0  0  0  0  0
   19.5167   -7.2475  -11.4736 C   0  0  0  0  0  0  0  0  0  0  0  0
   19.0866   -6.0043  -11.9641 C   0  0  0  0  0  0  0  0  0  0  0  0
   18.2855   -5.4681  -11.0569 N   0  0  0  0  0  0  0  0  0  0  0  0
   18.1823   -6.3111  -10.0070 C   0  0  0  0  0  0  0  0  0  0  0  0
   18.9373   -7.3781  -10.2871 N   0  0  0  0  0  0  0  0  0  0  0  0
   21.2590   -6.2066  -13.5349 C   0  0  0  0  0  0  0  0  0  0  0  0
   22.3803   -5.9029  -12.9880 O   0  0  0  0  0  0  0  0  0  0  0  0
   20.5162   -5.1300  -14.0679 N   0  0  0  0  0  0  0  0  0  0  0  0
   21.0993   -3.7978  -14.0310 C   0  0  1  0  0  0  0  0  0  0  0  0
   21.9475   -3.5592  -15.2694 C   0  0  0  0  0  0  0  0  0  0  0  0
   20.9830   -4.0395  -16.7048 S   0  0  0  0  0  0  0  0  0  0  0  0
   20.0044   -2.8148  -14.0654 C   0  0  0  0  0  0  0  0  0  0  0  0
   18.8121   -3.1616  -14.2219 O   0  0  0  0  0  0  0  0  0  0  0  0
   20.2799   -1.4692  -13.9228 O   0  0  0  0  0  0  0  0  0  0  0  0
  2  3  1  0
  2  1  1  6
  3  4  1  0
  5  6  2  0
  5  2  1  0
  7  5  1  0
  8  7  1  0
  8  9  1  1
 10  9  1  0
 11 10  2  0
 12 11  1  0
 13 14  2  0
 13 12  1  0
 14 10  1  0
 15  8  1  0
 15 17  1  0
 16 15  2  0
 18 17  1  0
 18 21  1  0
 18 19  1  6
 20 19  1  0
 21 23  1  0
 22 21  2  0
M  END
$$$$
