CHC.pdb
     RDKit          3D

 23 23  0  0  1  0  0  0  0  0999 V2000
   18.0879  -12.6233  -16.5536 N   0  0  0  0  0  0  0  0  0  0  0  0
   17.9479  -11.2149  -16.8427 C   0  0  1  0  0  0  0  0  0  0  0  0
   16.6207  -10.7659  -16.3023 C   0  0  0  0  0  0  0  0  0  0  0  0
   15.2786  -11.4811  -17.2930 S   0  0  0  0  0  0  0  0  0  0  0  0
   19.0934  -10.4560  -16.3122 C   0  0  0  0  0  0  0  0  0  0  0  0
   19.4899  -10.7638  -15.1631 O   0  0  0  0  0  0  0  0  0  0  0  0
   19.7516   -9.4225  -17.0180 N   0  0  0  0  0  0  0  0  0  0  0  0
   20.8875   -8.6669  -16.6659 C   0  0  1  0  0  0  0  0  0  0  0  0
   21.8635   -8.3141  -17.7612 C   0  0  0  0  0  0  0  0  0  0  0  0
   22.5432   -9.4997  -18.3432 C   0  0  0  0  0  0  0  0  0  0  0  0
   22.3773  -10.7937  -17.8246 C   0  0  0  0  0  0  0  0  0  0  0  0
   23.1070  -11.6189  -18.5585 N   0  0  0  0  0  0  0  0  0  0  0  0
   23.7334  -10.9127  -19.5242 C   0  0  0  0  0  0  0  0  0  0  0  0
   23.3736   -9.6346  -19.3691 N   0  0  0  0  0  0  0  0  0  0  0  0
   20.6695   -7.5503  -15.7450 C   0  0  0  0  0  0  0  0  0  0  0  0
   19.7216   -6.7029  -15.9234 O   0  0  0  0  0  0  0  0  0  0  0  0
   21.4842   -7.3410  -14.6103 N   0  0  0  0  0  0  0  0  0  0  0  0
   21.0990   -6.3101  -13.6590 C   0  0  1  0  0  0  0  0  0  0  0  0
   21.3456   -6.7865  -12.2369 C   0  0  0  0  0  0  0  0  0  0  0  0
   20.1420   -8.0641  -11.8621 S   0  0  0  0  0  0  0  0  0  0  0  0
   21.9635   -5.1385  -13.8745 C   0  0  0  0  0  0  0  0  0  0  0  0
   21.8006   -4.0734  -13.2377 O   0  0  0  0  0  0  0  0  0  0  0  0
   22.9870   -5.1964  -14.7996 O   0  0  0  0  0  0  0  0  0  0  0  0
  2  3  1  0
  2  1  1  1
  3  4  1  0
  5  6  2  0
  5  2  1  0
  7  5  1  0
  8  7  1  0
  8  9  1  6
 10  9  1  0
 11 10  2  0
 12 11  1  0
 13 14  2  0
 13 12  1  0
 14 10  1  0
 15  8  1  0
 15 17  1  0
 16 15  2  0
 18 17  1  0
 18 21  1  0
 18 19  1  1
 20 19  1  0
 21 23  1  0
 22 21  2  0
M  END
$$$$
