CHC.pdb
     RDKit          3D

 23 23  0  0  1  0  0  0  0  0999 V2000
   22.4746  -11.2974  -19.2435 N   0  0  0  0  0  0  0  0  0  0  0  0
   22.9668  -10.1601  -18.5013 C   0  0  1  0  0  0  0  0  0  0  0  0
   23.9287   -9.4181  -19.3842 C   0  0  0  0  0  0  0  0  0  0  0  0
   25.4889  -10.3377  -19.5046 S   0  0  0  0  0  0  0  0  0  0  0  0
   21.8508   -9.3332  -18.0110 C   0  0  0  0  0  0  0  0  0  0  0  0
   20.9668   -9.0271  -18.8460 O   0  0  0  0  0  0  0  0  0  0  0  0
   21.7306   -8.8787  -16.6774 N   0  0  0  0  0  0  0  0  0  0  0  0
   20.7245   -8.0983  -16.0742 C   0  0  1  0  0  0  0  0  0  0  0  0
   20.1619   -8.5735  -14.7572 C   0  0  0  0  0  0  0  0  0  0  0  0
   19.3544   -9.8141  -14.8796 C   0  0  0  0  0  0  0  0  0  0  0  0
   19.1290  -10.4483  -16.1117 C   0  0  0  0  0  0  0  0  0  0  0  0
   18.3820  -11.5172  -15.8843 N   0  0  0  0  0  0  0  0  0  0  0  0
   18.1182  -11.5971  -14.5624 C   0  0  0  0  0  0  0  0  0  0  0  0
   18.7189  -10.5543  -13.9804 N   0  0  0  0  0  0  0  0  0  0  0  0
   20.9222   -6.6482  -16.0949 C   0  0  0  0  0  0  0  0  0  0  0  0
   21.9308   -6.0959  -15.5237 O   0  0  0  0  0  0  0  0  0  0  0  0
   20.0204   -5.7752  -16.7427 N   0  0  0  0  0  0  0  0  0  0  0  0
   20.3470   -4.3590  -16.8038 C   0  0  1  0  0  0  0  0  0  0  0  0
   19.7411   -3.7315  -18.0484 C   0  0  0  0  0  0  0  0  0  0  0  0
   20.5017   -4.4961  -19.4830 S   0  0  0  0  0  0  0  0  0  0  0  0
   19.7302   -3.6937  -15.6447 C   0  0  0  0  0  0  0  0  0  0  0  0
   19.0169   -4.3194  -14.8284 O   0  0  0  0  0  0  0  0  0  0  0  0
   19.9321   -2.3438  -15.4353 O   0  0  0  0  0  0  0  0  0  0  0  0
  2  3  1  0
  2  1  1  6
  3  4  1  0
  5  6  2  0
  5  2  1  0
  7  5  1  0
  8  7  1  0
  8  9  1  1
 10  9  1  0
 11 10  2  0
 12 11  1  0
 13 14  2  0
 13 12  1  0
 14 10  1  0
 15  8  1  0
 15 17  1  0
 16 15  2  0
 18 17  1  0
 18 21  1  0
 18 19  1  6
 20 19  1  0
 21 23  1  0
 22 21  2  0
M  END
$$$$
