CHC.pdb
     RDKit          3D

 23 23  0  0  1  0  0  0  0  0999 V2000
   26.1898  -30.3047  -20.5840 N   0  0  0  0  0  0  0  0  0  0  0  0
   27.4606  -30.8660  -20.9798 C   0  0  1  0  0  0  0  0  0  0  0  0
   27.6041  -30.6747  -22.4624 C   0  0  0  0  0  0  0  0  0  0  0  0
   26.8374  -32.0661  -23.3399 S   0  0  0  0  0  0  0  0  0  0  0  0
   28.5592  -30.2769  -20.1953 C   0  0  0  0  0  0  0  0  0  0  0  0
   28.4164  -29.0854  -19.8316 O   0  0  0  0  0  0  0  0  0  0  0  0
   29.7383  -30.9724  -19.8409 N   0  0  0  0  0  0  0  0  0  0  0  0
   30.8332  -30.5574  -19.0572 C   0  0  1  0  0  0  0  0  0  0  0  0
   31.2093  -31.4085  -17.8693 C   0  0  0  0  0  0  0  0  0  0  0  0
   30.0761  -31.6493  -16.9398 C   0  0  0  0  0  0  0  0  0  0  0  0
   29.2234  -30.6207  -16.5085 C   0  0  0  0  0  0  0  0  0  0  0  0
   28.3245  -31.1557  -15.6973 N   0  0  0  0  0  0  0  0  0  0  0  0
   28.5621  -32.4805  -15.5889 C   0  0  0  0  0  0  0  0  0  0  0  0
   29.6269  -32.7501  -16.3509 N   0  0  0  0  0  0  0  0  0  0  0  0
   32.0102  -30.0763  -19.7819 C   0  0  0  0  0  0  0  0  0  0  0  0
   32.3234  -30.5330  -20.9403 O   0  0  0  0  0  0  0  0  0  0  0  0
   32.8662  -29.0850  -19.2531 N   0  0  0  0  0  0  0  0  0  0  0  0
   33.9771  -28.6192  -20.0684 C   0  0  1  0  0  0  0  0  0  0  0  0
   34.5271  -27.3151  -19.5145 C   0  0  0  0  0  0  0  0  0  0  0  0
   33.9410  -25.9771  -20.5573 S   0  0  0  0  0  0  0  0  0  0  0  0
   35.0600  -29.6123  -19.9817 C   0  0  0  0  0  0  0  0  0  0  0  0
   35.0792  -30.4901  -19.0898 O   0  0  0  0  0  0  0  0  0  0  0  0
   36.0913  -29.5911  -20.8998 O   0  0  0  0  0  0  0  0  0  0  0  0
  2  3  1  0
  2  1  1  1
  3  4  1  0
  5  6  2  0
  5  2  1  0
  7  5  1  0
  8  7  1  0
  8  9  1  6
 10  9  1  0
 11 10  2  0
 12 11  1  0
 13 14  2  0
 13 12  1  0
 14 10  1  0
 15  8  1  0
 15 17  1  0
 16 15  2  0
 18 17  1  0
 18 21  1  0
 18 19  1  1
 20 19  1  0
 21 23  1  0
 22 21  2  0
M  END
$$$$
