KWA.pdb
     RDKit          3D

 29 30  0  0  1  0  0  0  0  0999 V2000
    7.3256  -16.3213   21.1218 N   0  0  0  0  0  0  0  0  0  0  0  0
    8.3254  -15.2976   20.9211 C   0  0  1  0  0  0  0  0  0  0  0  0
    7.8236  -14.0095   20.3986 C   0  0  0  0  0  0  0  0  0  0  0  0
    7.2763  -13.9676   19.0268 C   0  0  0  0  0  0  0  0  0  0  0  0
    8.2934  -13.5695   17.9928 C   0  0  0  0  0  0  0  0  0  0  0  0
    7.6314  -13.6793   16.6166 C   0  0  0  0  0  0  0  0  0  0  0  0
    8.6550  -13.2913   15.6551 N   0  0  0  0  0  0  0  0  0  0  0  0
    9.1188  -15.1752   22.1669 C   0  0  0  0  0  0  0  0  0  0  0  0
   10.0079  -14.2847   22.2364 O   0  0  0  0  0  0  0  0  0  0  0  0
    8.8524  -16.0635   23.2468 N   0  0  0  0  0  0  0  0  0  0  0  0
    9.5982  -16.0274   24.4528 C   0  0  1  0  0  0  0  0  0  0  0  0
    8.7807  -16.1215   25.7062 C   0  0  0  0  0  0  0  0  0  0  0  0
    7.5717  -15.3149   25.7277 C   0  0  0  0  0  0  0  0  0  0  0  0
    6.2698  -15.7011   25.4814 C   0  0  0  0  0  0  0  0  0  0  0  0
    5.4701  -14.6269   25.6117 N   0  0  0  0  0  0  0  0  0  0  0  0
    6.2407  -13.5576   25.9380 C   0  0  0  0  0  0  0  0  0  0  0  0
    5.9248  -12.2368   26.1817 C   0  0  0  0  0  0  0  0  0  0  0  0
    6.8720  -11.2844   26.5048 C   0  0  0  0  0  0  0  0  0  0  0  0
    8.1905  -11.6925   26.5826 C   0  0  0  0  0  0  0  0  0  0  0  0
    8.5013  -13.0137   26.3381 C   0  0  0  0  0  0  0  0  0  0  0  0
    7.5559  -13.9660   26.0153 C   0  0  0  0  0  0  0  0  0  0  0  0
   10.5747  -17.1386   24.5064 C   0  0  0  0  0  0  0  0  0  0  0  0
   10.2587  -18.3328   24.2434 O   0  0  0  0  0  0  0  0  0  0  0  0
   14.2526  -17.3450   24.4974 C   0  0  0  0  0  0  0  0  0  0  0  0
   12.8893  -17.9199   24.8365 C   0  0  2  0  0  0  0  0  0  0  0  0
   11.9187  -16.8417   24.8683 N   0  0  0  0  0  0  0  0  0  0  0  0
   12.8725  -18.6231   26.1252 C   0  0  0  0  0  0  0  0  0  0  0  0
   13.6311  -19.7504   26.3209 O   0  0  0  0  0  0  0  0  0  0  0  0
   12.1635  -18.2173   27.0942 O   0  0  0  0  0  0  0  0  0  0  0  0
  2  1  1  1
  2  3  1  0
  3  4  1  0
  4  5  1  0
  5  6  1  0
  7  6  1  0
  8  9  2  0
  8  2  1  0
 10  8  1  0
 11 22  1  0
 11 10  1  0
 11 12  1  1
 13 12  1  0
 13 21  1  0
 14 15  1  0
 14 13  2  0
 15 16  1  0
 16 17  1  0
 16 21  2  0
 17 18  2  0
 18 19  1  0
 20 19  2  0
 21 20  1  0
 22 23  2  0
 25 24  1  1
 26 25  1  0
 26 22  1  0
 27 25  1  0
 28 27  1  0
 29 27  2  0
M  END
$$$$
