KWA.pdb
     RDKit          3D

 29 30  0  0  1  0  0  0  0  0999 V2000
    7.2293  -16.5940   21.0339 N   0  0  0  0  0  0  0  0  0  0  0  0
    8.2021  -15.5735   20.7179 C   0  0  1  0  0  0  0  0  0  0  0  0
    7.6630  -14.3532   20.0822 C   0  0  0  0  0  0  0  0  0  0  0  0
    8.4055  -13.7570   18.9525 C   0  0  0  0  0  0  0  0  0  0  0  0
    7.6426  -13.7888   17.6566 C   0  0  0  0  0  0  0  0  0  0  0  0
    8.5791  -13.2997   16.5485 C   0  0  0  0  0  0  0  0  0  0  0  0
    7.8191  -13.4156   15.3109 N   0  0  0  0  0  0  0  0  0  0  0  0
    9.0114  -15.3139   21.9320 C   0  0  0  0  0  0  0  0  0  0  0  0
    9.8875  -14.4086   21.8967 O   0  0  0  0  0  0  0  0  0  0  0  0
    8.7744  -16.0915   23.1006 N   0  0  0  0  0  0  0  0  0  0  0  0
    9.5572  -15.9442   24.2743 C   0  0  1  0  0  0  0  0  0  0  0  0
    8.7906  -16.0213   25.5607 C   0  0  0  0  0  0  0  0  0  0  0  0
    7.5629  -15.2445   25.6059 C   0  0  0  0  0  0  0  0  0  0  0  0
    6.2651  -15.6652   25.3981 C   0  0  0  0  0  0  0  0  0  0  0  0
    5.4426  -14.6096   25.5385 N   0  0  0  0  0  0  0  0  0  0  0  0
    6.1946  -13.5183   25.8335 C   0  0  0  0  0  0  0  0  0  0  0  0
    5.8525  -12.2031   26.0722 C   0  0  0  0  0  0  0  0  0  0  0  0
    6.7839  -11.2243   26.3605 C   0  0  0  0  0  0  0  0  0  0  0  0
    8.1137  -11.5989   26.4076 C   0  0  0  0  0  0  0  0  0  0  0  0
    8.4507  -12.9147   26.1683 C   0  0  0  0  0  0  0  0  0  0  0  0
    7.5212  -13.8933   25.8802 C   0  0  0  0  0  0  0  0  0  0  0  0
   10.6041  -16.9881   24.3485 C   0  0  0  0  0  0  0  0  0  0  0  0
   10.3391  -18.2209   24.2780 O   0  0  0  0  0  0  0  0  0  0  0  0
   14.2688  -16.9697   23.9168 C   0  0  0  0  0  0  0  0  0  0  0  0
   12.9910  -17.5962   24.4451 C   0  0  2  0  0  0  0  0  0  0  0  0
   11.9581  -16.5788   24.5048 N   0  0  0  0  0  0  0  0  0  0  0  0
   13.1579  -18.1938   25.7758 C   0  0  0  0  0  0  0  0  0  0  0  0
   12.4196  -17.7483   26.8441 O   0  0  0  0  0  0  0  0  0  0  0  0
   13.9819  -19.1341   25.9831 O   0  0  0  0  0  0  0  0  0  0  0  0
  2  1  1  1
  2  3  1  0
  3  4  1  0
  4  5  1  0
  5  6  1  0
  7  6  1  0
  8  9  2  0
  8  2  1  0
 10  8  1  0
 11 22  1  0
 11 10  1  0
 11 12  1  1
 13 12  1  0
 13 21  1  0
 14 15  1  0
 14 13  2  0
 15 16  1  0
 16 17  1  0
 16 21  2  0
 17 18  2  0
 18 19  1  0
 20 19  2  0
 21 20  1  0
 22 23  2  0
 25 24  1  1
 26 25  1  0
 26 22  1  0
 27 25  1  0
 28 27  1  0
 29 27  2  0
M  END
$$$$
