KWA.pdb
     RDKit          3D

 29 30  0  0  1  0  0  0  0  0999 V2000
    9.0669  -15.8282   20.0412 N   0  0  0  0  0  0  0  0  0  0  0  0
    8.6953  -16.8168   21.0274 C   0  0  1  0  0  0  0  0  0  0  0  0
    8.8152  -18.2250   20.5956 C   0  0  0  0  0  0  0  0  0  0  0  0
   10.0785  -18.6681   19.9704 C   0  0  0  0  0  0  0  0  0  0  0  0
    9.9109  -19.1172   18.5448 C   0  0  0  0  0  0  0  0  0  0  0  0
   11.3047  -19.2308   17.9215 C   0  0  0  0  0  0  0  0  0  0  0  0
   11.4000  -20.5937   17.4154 N   0  0  0  0  0  0  0  0  0  0  0  0
    9.4151  -16.5084   22.2856 C   0  0  0  0  0  0  0  0  0  0  0  0
   10.5170  -15.9001   22.2224 O   0  0  0  0  0  0  0  0  0  0  0  0
    8.8409  -16.9056   23.5262 N   0  0  0  0  0  0  0  0  0  0  0  0
    9.4608  -16.6178   24.7691 C   0  0  1  0  0  0  0  0  0  0  0  0
    8.5226  -16.5008   25.9328 C   0  0  0  0  0  0  0  0  0  0  0  0
    7.4754  -15.5021   25.7954 C   0  0  0  0  0  0  0  0  0  0  0  0
    6.1577  -15.6761   25.4240 C   0  0  0  0  0  0  0  0  0  0  0  0
    5.5469  -14.4772   25.4293 N   0  0  0  0  0  0  0  0  0  0  0  0
    6.4544  -13.5371   25.7987 C   0  0  0  0  0  0  0  0  0  0  0  0
    6.3490  -12.1709   25.9603 C   0  0  0  0  0  0  0  0  0  0  0  0
    7.4095  -11.3758   26.3498 C   0  0  0  0  0  0  0  0  0  0  0  0
    8.6230  -11.9953   26.5836 C   0  0  0  0  0  0  0  0  0  0  0  0
    8.7233  -13.3611   26.4208 C   0  0  0  0  0  0  0  0  0  0  0  0
    7.6646  -14.1564   26.0318 C   0  0  0  0  0  0  0  0  0  0  0  0
   10.4427  -17.6659   25.1278 C   0  0  0  0  0  0  0  0  0  0  0  0
   10.2180  -18.8958   24.9493 O   0  0  0  0  0  0  0  0  0  0  0  0
   14.0377  -17.7821   25.8802 C   0  0  0  0  0  0  0  0  0  0  0  0
   12.6249  -18.2987   26.0840 C   0  0  2  0  0  0  0  0  0  0  0  0
   11.6850  -17.2642   25.6942 N   0  0  0  0  0  0  0  0  0  0  0  0
   12.3584  -18.6952   27.4723 C   0  0  0  0  0  0  0  0  0  0  0  0
   13.0832  -19.6971   28.0688 O   0  0  0  0  0  0  0  0  0  0  0  0
   11.4581  -18.1310   28.1631 O   0  0  0  0  0  0  0  0  0  0  0  0
  2  1  1  6
  2  3  1  0
  3  4  1  0
  4  5  1  0
  5  6  1  0
  7  6  1  0
  8  9  2  0
  8  2  1  0
 10  8  1  0
 11 22  1  0
 11 10  1  0
 11 12  1  1
 13 12  1  0
 13 21  1  0
 14 15  1  0
 14 13  2  0
 15 16  1  0
 16 17  1  0
 16 21  2  0
 17 18  2  0
 18 19  1  0
 20 19  2  0
 21 20  1  0
 22 23  2  0
 25 24  1  1
 26 25  1  0
 26 22  1  0
 27 25  1  0
 28 27  1  0
 29 27  2  0
M  END
$$$$
