KWA.pdb
     RDKit          3D

 29 30  0  0  1  0  0  0  0  0999 V2000
    7.6613  -16.4305   21.6475 N   0  0  0  0  0  0  0  0  0  0  0  0
    8.6114  -15.3541   21.4851 C   0  0  1  0  0  0  0  0  0  0  0  0
    8.0425  -14.0610   21.0511 C   0  0  0  0  0  0  0  0  0  0  0  0
    7.2561  -14.0182   19.8009 C   0  0  0  0  0  0  0  0  0  0  0  0
    8.0395  -13.5075   18.6229 C   0  0  0  0  0  0  0  0  0  0  0  0
    7.1179  -13.5314   17.4005 C   0  0  0  0  0  0  0  0  0  0  0  0
    7.9023  -12.9766   16.3051 N   0  0  0  0  0  0  0  0  0  0  0  0
    9.4299  -15.2694   22.7177 C   0  0  0  0  0  0  0  0  0  0  0  0
   10.3360  -14.3962   22.7873 O   0  0  0  0  0  0  0  0  0  0  0  0
    9.1678  -16.1736   23.7855 N   0  0  0  0  0  0  0  0  0  0  0  0
    9.8811  -16.1190   25.0104 C   0  0  1  0  0  0  0  0  0  0  0  0
    9.0268  -16.1431   26.2424 C   0  0  0  0  0  0  0  0  0  0  0  0
    7.7856  -15.3914   26.1589 C   0  0  0  0  0  0  0  0  0  0  0  0
    6.5118  -15.8518   25.8943 C   0  0  0  0  0  0  0  0  0  0  0  0
    5.6636  -14.8075   25.9143 N   0  0  0  0  0  0  0  0  0  0  0  0
    6.3755  -13.6842   26.1880 C   0  0  0  0  0  0  0  0  0  0  0  0
    5.9957  -12.3644   26.3206 C   0  0  0  0  0  0  0  0  0  0  0  0
    6.8888  -11.3499   26.6064 C   0  0  0  0  0  0  0  0  0  0  0  0
    8.2190  -11.6923   26.7631 C   0  0  0  0  0  0  0  0  0  0  0  0
    8.5937  -13.0128   26.6297 C   0  0  0  0  0  0  0  0  0  0  0  0
    7.7023  -14.0271   26.3442 C   0  0  0  0  0  0  0  0  0  0  0  0
   10.8186  -17.2584   25.1297 C   0  0  0  0  0  0  0  0  0  0  0  0
   11.4571  -17.5033   26.1915 O   0  0  0  0  0  0  0  0  0  0  0  0
   11.8079  -20.1122   22.9236 C   0  0  0  0  0  0  0  0  0  0  0  0
   11.9935  -19.1606   24.0915 C   0  0  2  0  0  0  0  0  0  0  0  0
   11.0014  -18.1055   24.0008 N   0  0  0  0  0  0  0  0  0  0  0  0
   13.3334  -18.5616   24.1305 C   0  0  0  0  0  0  0  0  0  0  0  0
   14.3491  -19.1566   24.8370 O   0  0  0  0  0  0  0  0  0  0  0  0
   13.5973  -17.4839   23.5182 O   0  0  0  0  0  0  0  0  0  0  0  0
  2  1  1  1
  2  3  1  0
  3  4  1  0
  4  5  1  0
  5  6  1  0
  7  6  1  0
  8  9  2  0
  8  2  1  0
 10  8  1  0
 11 22  1  0
 11 10  1  0
 11 12  1  1
 13 12  1  0
 13 21  1  0
 14 15  1  0
 14 13  2  0
 15 16  1  0
 16 17  1  0
 16 21  2  0
 17 18  2  0
 18 19  1  0
 20 19  2  0
 21 20  1  0
 22 23  2  0
 25 24  1  6
 26 25  1  0
 26 22  1  0
 27 25  1  0
 28 27  1  0
 29 27  2  0
M  END
$$$$
