KWA.pdb
     RDKit          3D

 29 30  0  0  1  0  0  0  0  0999 V2000
    8.0976  -16.3969   21.0544 N   0  0  0  0  0  0  0  0  0  0  0  0
    8.6844  -15.0830   21.1850 C   0  0  1  0  0  0  0  0  0  0  0  0
    7.8281  -13.9566   20.7586 C   0  0  0  0  0  0  0  0  0  0  0  0
    8.1024  -13.3126   19.4574 C   0  0  0  0  0  0  0  0  0  0  0  0
    7.5975  -14.1056   18.2833 C   0  0  0  0  0  0  0  0  0  0  0  0
    8.0689  -13.4050   17.0062 C   0  0  0  0  0  0  0  0  0  0  0  0
    7.7022  -14.2936   15.9113 N   0  0  0  0  0  0  0  0  0  0  0  0
    9.2165  -14.9486   22.5616 C   0  0  0  0  0  0  0  0  0  0  0  0
    9.7902  -13.8755   22.8898 O   0  0  0  0  0  0  0  0  0  0  0  0
    9.0625  -16.0324   23.4716 N   0  0  0  0  0  0  0  0  0  0  0  0
    9.6336  -16.0122   24.7699 C   0  0  1  0  0  0  0  0  0  0  0  0
    8.6631  -16.2287   25.8922 C   0  0  0  0  0  0  0  0  0  0  0  0
    7.4491  -15.4316   25.8332 C   0  0  0  0  0  0  0  0  0  0  0  0
    6.1810  -15.8145   25.4461 C   0  0  0  0  0  0  0  0  0  0  0  0
    5.3610  -14.7525   25.5465 N   0  0  0  0  0  0  0  0  0  0  0  0
    6.0855  -13.6942   25.9924 C   0  0  0  0  0  0  0  0  0  0  0  0
    5.7336  -12.3877   26.2630 C   0  0  0  0  0  0  0  0  0  0  0  0
    6.6354  -11.4449   26.7175 C   0  0  0  0  0  0  0  0  0  0  0  0
    7.9447  -11.8476   26.9034 C   0  0  0  0  0  0  0  0  0  0  0  0
    8.2914  -13.1545   26.6316 C   0  0  0  0  0  0  0  0  0  0  0  0
    7.3915  -14.0972   26.1775 C   0  0  0  0  0  0  0  0  0  0  0  0
   10.6729  -17.0572   24.9088 C   0  0  0  0  0  0  0  0  0  0  0  0
   11.1921  -17.3541   26.0211 O   0  0  0  0  0  0  0  0  0  0  0  0
   12.0593  -19.6905   22.6702 C   0  0  0  0  0  0  0  0  0  0  0  0
   12.1063  -18.7819   23.8853 C   0  0  2  0  0  0  0  0  0  0  0  0
   11.0972  -17.7493   23.7398 N   0  0  0  0  0  0  0  0  0  0  0  0
   13.4187  -18.1514   24.0744 C   0  0  0  0  0  0  0  0  0  0  0  0
   14.4902  -18.8806   24.5271 O   0  0  0  0  0  0  0  0  0  0  0  0
   13.6071  -16.9226   23.8279 O   0  0  0  0  0  0  0  0  0  0  0  0
  2  1  1  1
  2  3  1  0
  3  4  1  0
  4  5  1  0
  5  6  1  0
  7  6  1  0
  8  9  2  0
  8  2  1  0
 10  8  1  0
 11 22  1  0
 11 10  1  0
 11 12  1  1
 13 12  1  0
 13 21  1  0
 14 15  1  0
 14 13  2  0
 15 16  1  0
 16 17  1  0
 16 21  2  0
 17 18  2  0
 18 19  1  0
 20 19  2  0
 21 20  1  0
 22 23  2  0
 25 24  1  6
 26 25  1  0
 26 22  1  0
 27 25  1  0
 28 27  1  0
 29 27  2  0
M  END
$$$$
