KWA.pdb
     RDKit          3D

 29 30  0  0  1  0  0  0  0  0999 V2000
    7.4183  -16.1254   20.7847 N   0  0  0  0  0  0  0  0  0  0  0  0
    8.4800  -15.1512   20.6772 C   0  0  1  0  0  0  0  0  0  0  0  0
    8.0646  -13.7998   20.2469 C   0  0  0  0  0  0  0  0  0  0  0  0
    7.4576  -13.6386   18.9096 C   0  0  0  0  0  0  0  0  0  0  0  0
    8.4518  -13.7575   17.7872 C   0  0  0  0  0  0  0  0  0  0  0  0
    7.6914  -13.5979   16.4679 C   0  0  0  0  0  0  0  0  0  0  0  0
    8.6999  -13.6815   15.4195 N   0  0  0  0  0  0  0  0  0  0  0  0
    9.2551  -15.1703   21.9402 C   0  0  0  0  0  0  0  0  0  0  0  0
   10.3196  -14.4992   22.0106 O   0  0  0  0  0  0  0  0  0  0  0  0
    8.7746  -15.9427   23.0351 N   0  0  0  0  0  0  0  0  0  0  0  0
    9.5013  -16.0639   24.2473 C   0  0  1  0  0  0  0  0  0  0  0  0
    8.6587  -16.1650   25.4835 C   0  0  0  0  0  0  0  0  0  0  0  0
    7.5272  -15.2549   25.5466 C   0  0  0  0  0  0  0  0  0  0  0  0
    6.1958  -15.5110   25.2889 C   0  0  0  0  0  0  0  0  0  0  0  0
    5.4959  -14.3764   25.4710 N   0  0  0  0  0  0  0  0  0  0  0  0
    6.3597  -13.3966   25.8419 C   0  0  0  0  0  0  0  0  0  0  0  0
    6.1639  -12.0651   26.1464 C   0  0  0  0  0  0  0  0  0  0  0  0
    7.1930  -11.2173   26.5080 C   0  0  0  0  0  0  0  0  0  0  0  0
    8.4695  -11.7452   26.5615 C   0  0  0  0  0  0  0  0  0  0  0  0
    8.6601  -13.0766   26.2563 C   0  0  0  0  0  0  0  0  0  0  0  0
    7.6328  -13.9244   25.8950 C   0  0  0  0  0  0  0  0  0  0  0  0
   10.3647  -17.2661   24.2306 C   0  0  0  0  0  0  0  0  0  0  0  0
    9.9340  -18.4063   23.8998 O   0  0  0  0  0  0  0  0  0  0  0  0
   13.9936  -17.8472   24.1604 C   0  0  0  0  0  0  0  0  0  0  0  0
   12.5875  -18.2918   24.5202 C   0  0  2  0  0  0  0  0  0  0  0  0
   11.7311  -17.1233   24.6021 N   0  0  0  0  0  0  0  0  0  0  0  0
   12.5297  -19.0231   25.7921 C   0  0  0  0  0  0  0  0  0  0  0  0
   13.1265  -20.2524   25.9240 O   0  0  0  0  0  0  0  0  0  0  0  0
   11.9323  -18.5491   26.8043 O   0  0  0  0  0  0  0  0  0  0  0  0
  2  1  1  1
  2  3  1  0
  3  4  1  0
  4  5  1  0
  5  6  1  0
  7  6  1  0
  8  9  2  0
  8  2  1  0
 10  8  1  0
 11 22  1  0
 11 10  1  0
 11 12  1  1
 13 12  1  0
 13 21  1  0
 14 15  1  0
 14 13  2  0
 15 16  1  0
 16 17  1  0
 16 21  2  0
 17 18  2  0
 18 19  1  0
 20 19  2  0
 21 20  1  0
 22 23  2  0
 25 24  1  1
 26 25  1  0
 26 22  1  0
 27 25  1  0
 28 27  1  0
 29 27  2  0
M  END
$$$$
