KWA.pdb
     RDKit          3D

 29 30  0  0  1  0  0  0  0  0999 V2000
    8.4727  -18.1468   21.1898 N   0  0  0  0  0  0  0  0  0  0  0  0
    9.7857  -17.5672   21.3561 C   0  0  1  0  0  0  0  0  0  0  0  0
   10.3612  -16.9347   20.1509 C   0  0  0  0  0  0  0  0  0  0  0  0
   11.5786  -17.5236   19.5558 C   0  0  0  0  0  0  0  0  0  0  0  0
   11.9903  -16.8636   18.2685 C   0  0  0  0  0  0  0  0  0  0  0  0
   13.1499  -17.6700   17.6776 C   0  0  0  0  0  0  0  0  0  0  0  0
   13.4595  -17.0377   16.4019 N   0  0  0  0  0  0  0  0  0  0  0  0
    9.7536  -16.6823   22.5446 C   0  0  0  0  0  0  0  0  0  0  0  0
   10.1113  -15.4805   22.4178 O   0  0  0  0  0  0  0  0  0  0  0  0
    9.3187  -17.2141   23.7914 N   0  0  0  0  0  0  0  0  0  0  0  0
    9.1506  -16.3989   24.9399 C   0  0  1  0  0  0  0  0  0  0  0  0
    7.8733  -16.6215   25.6932 C   0  0  0  0  0  0  0  0  0  0  0  0
    6.8360  -15.6268   25.4754 C   0  0  0  0  0  0  0  0  0  0  0  0
    5.5327  -15.8128   25.0617 C   0  0  0  0  0  0  0  0  0  0  0  0
    4.9268  -14.6133   24.9948 N   0  0  0  0  0  0  0  0  0  0  0  0
    5.8232  -13.6610   25.3598 C   0  0  0  0  0  0  0  0  0  0  0  0
    5.7172  -12.2891   25.4613 C   0  0  0  0  0  0  0  0  0  0  0  0
    6.7652  -11.4811   25.8580 C   0  0  0  0  0  0  0  0  0  0  0  0
    7.9666  -12.0934   26.1628 C   0  0  0  0  0  0  0  0  0  0  0  0
    8.0677  -13.4649   26.0599 C   0  0  0  0  0  0  0  0  0  0  0  0
    7.0213  -14.2730   25.6637 C   0  0  0  0  0  0  0  0  0  0  0  0
   10.2495  -16.6130   25.9083 C   0  0  0  0  0  0  0  0  0  0  0  0
   11.0536  -17.5827   25.8185 O   0  0  0  0  0  0  0  0  0  0  0  0
   11.4480  -14.8051   28.9683 C   0  0  0  0  0  0  0  0  0  0  0  0
   11.4156  -15.9551   27.9781 C   0  0  2  0  0  0  0  0  0  0  0  0
   10.3993  -15.6862   26.9779 N   0  0  0  0  0  0  0  0  0  0  0  0
   11.1355  -17.2477   28.6158 C   0  0  0  0  0  0  0  0  0  0  0  0
   12.1232  -17.9333   29.2786 O   0  0  0  0  0  0  0  0  0  0  0  0
    9.9820  -17.7712   28.5776 O   0  0  0  0  0  0  0  0  0  0  0  0
  2  1  1  6
  2  3  1  0
  3  4  1  0
  4  5  1  0
  5  6  1  0
  7  6  1  0
  8  9  2  0
  8  2  1  0
 10  8  1  0
 11 22  1  0
 11 10  1  0
 11 12  1  1
 13 12  1  0
 13 21  1  0
 14 15  1  0
 14 13  2  0
 15 16  1  0
 16 17  1  0
 16 21  2  0
 17 18  2  0
 18 19  1  0
 20 19  2  0
 21 20  1  0
 22 23  2  0
 25 24  1  1
 26 25  1  0
 26 22  1  0
 27 25  1  0
 28 27  1  0
 29 27  2  0
M  END
$$$$
