KWA.pdb
     RDKit          3D

 29 30  0  0  1  0  0  0  0  0999 V2000
    6.9997  -15.4617   20.0120 N   0  0  0  0  0  0  0  0  0  0  0  0
    7.6698  -16.5761   20.6421 C   0  0  1  0  0  0  0  0  0  0  0  0
    8.3136  -17.5366   19.7218 C   0  0  0  0  0  0  0  0  0  0  0  0
    7.5228  -18.0768   18.5967 C   0  0  0  0  0  0  0  0  0  0  0  0
    8.2374  -19.1574   17.8326 C   0  0  0  0  0  0  0  0  0  0  0  0
    7.3488  -19.5650   16.6542 C   0  0  0  0  0  0  0  0  0  0  0  0
    7.8421  -18.8105   15.5096 N   0  0  0  0  0  0  0  0  0  0  0  0
    8.5758  -16.0410   21.6859 C   0  0  0  0  0  0  0  0  0  0  0  0
    9.2803  -15.0305   21.4197 O   0  0  0  0  0  0  0  0  0  0  0  0
    8.6219  -16.6814   22.9563 N   0  0  0  0  0  0  0  0  0  0  0  0
    9.4869  -16.2407   23.9905 C   0  0  1  0  0  0  0  0  0  0  0  0
    8.8945  -16.2710   25.3676 C   0  0  0  0  0  0  0  0  0  0  0  0
    7.7041  -15.4584   25.5556 C   0  0  0  0  0  0  0  0  0  0  0  0
    6.3788  -15.8367   25.4857 C   0  0  0  0  0  0  0  0  0  0  0  0
    5.6100  -14.7592   25.7273 N   0  0  0  0  0  0  0  0  0  0  0  0
    6.4237  -13.6955   25.9511 C   0  0  0  0  0  0  0  0  0  0  0  0
    6.1512  -12.3744   26.2410 C   0  0  0  0  0  0  0  0  0  0  0  0
    7.1387  -11.4284   26.4373 C   0  0  0  0  0  0  0  0  0  0  0  0
    8.4533  -11.8435   26.3347 C   0  0  0  0  0  0  0  0  0  0  0  0
    8.7207  -13.1650   26.0448 C   0  0  0  0  0  0  0  0  0  0  0  0
    7.7350  -14.1109   25.8485 C   0  0  0  0  0  0  0  0  0  0  0  0
   10.7134  -17.0677   24.0450 C   0  0  0  0  0  0  0  0  0  0  0  0
   10.6796  -18.3246   24.1633 O   0  0  0  0  0  0  0  0  0  0  0  0
   13.0573  -17.5363   22.1139 C   0  0  0  0  0  0  0  0  0  0  0  0
   13.1329  -17.2083   23.5940 C   0  0  2  0  0  0  0  0  0  0  0  0
   11.9748  -16.4140   23.9596 N   0  0  0  0  0  0  0  0  0  0  0  0
   14.3537  -16.4759   23.9532 C   0  0  0  0  0  0  0  0  0  0  0  0
   14.9152  -16.6133   25.1985 O   0  0  0  0  0  0  0  0  0  0  0  0
   14.9273  -15.6982   23.1333 O   0  0  0  0  0  0  0  0  0  0  0  0
  2  1  1  6
  2  3  1  0
  3  4  1  0
  4  5  1  0
  5  6  1  0
  7  6  1  0
  8  9  2  0
  8  2  1  0
 10  8  1  0
 11 22  1  0
 11 10  1  0
 11 12  1  1
 13 12  1  0
 13 21  1  0
 14 15  1  0
 14 13  2  0
 15 16  1  0
 16 17  1  0
 16 21  2  0
 17 18  2  0
 18 19  1  0
 20 19  2  0
 21 20  1  0
 22 23  2  0
 25 24  1  6
 26 25  1  0
 26 22  1  0
 27 25  1  0
 28 27  1  0
 29 27  2  0
M  END
$$$$
