KWA.pdb
     RDKit          3D

 29 30  0  0  1  0  0  0  0  0999 V2000
    6.5008  -15.4608   20.0053 N   0  0  0  0  0  0  0  0  0  0  0  0
    7.1922  -16.5867   20.5901 C   0  0  1  0  0  0  0  0  0  0  0  0
    7.7776  -17.5449   19.6293 C   0  0  0  0  0  0  0  0  0  0  0  0
    8.5898  -17.0197   18.5123 C   0  0  0  0  0  0  0  0  0  0  0  0
    9.1060  -18.0947   17.5957 C   0  0  0  0  0  0  0  0  0  0  0  0
    9.8741  -17.4138   16.4597 C   0  0  0  0  0  0  0  0  0  0  0  0
   10.2693  -18.4848   15.5543 N   0  0  0  0  0  0  0  0  0  0  0  0
    8.1567  -16.0692   21.5893 C   0  0  0  0  0  0  0  0  0  0  0  0
    8.8631  -15.0690   21.2912 O   0  0  0  0  0  0  0  0  0  0  0  0
    8.2551  -16.7144   22.8543 N   0  0  0  0  0  0  0  0  0  0  0  0
    9.1499  -16.2670   23.8599 C   0  0  1  0  0  0  0  0  0  0  0  0
    8.6085  -16.3166   25.2573 C   0  0  0  0  0  0  0  0  0  0  0  0
    7.4812  -15.4387   25.5239 C   0  0  0  0  0  0  0  0  0  0  0  0
    6.1348  -15.7411   25.5421 C   0  0  0  0  0  0  0  0  0  0  0  0
    5.4461  -14.6228   25.8344 N   0  0  0  0  0  0  0  0  0  0  0  0
    6.3319  -13.6077   26.0038 C   0  0  0  0  0  0  0  0  0  0  0  0
    6.1545  -12.2744   26.3112 C   0  0  0  0  0  0  0  0  0  0  0  0
    7.2050  -11.3866   26.4417 C   0  0  0  0  0  0  0  0  0  0  0  0
    8.4842  -11.8750   26.2519 C   0  0  0  0  0  0  0  0  0  0  0  0
    8.6564  -13.2084   25.9448 C   0  0  0  0  0  0  0  0  0  0  0  0
    7.6078  -14.0962   25.8143 C   0  0  0  0  0  0  0  0  0  0  0  0
   10.3907  -17.0743   23.8636 C   0  0  0  0  0  0  0  0  0  0  0  0
   10.3784  -18.3371   23.8816 O   0  0  0  0  0  0  0  0  0  0  0  0
   13.9709  -16.3525   23.2079 C   0  0  0  0  0  0  0  0  0  0  0  0
   12.8521  -17.1917   23.7981 C   0  0  2  0  0  0  0  0  0  0  0  0
   11.6407  -16.3943   23.8455 N   0  0  0  0  0  0  0  0  0  0  0  0
   13.1599  -17.6832   25.1470 C   0  0  0  0  0  0  0  0  0  0  0  0
   12.7254  -17.0048   26.2586 O   0  0  0  0  0  0  0  0  0  0  0  0
   13.8315  -18.7421   25.3309 O   0  0  0  0  0  0  0  0  0  0  0  0
  2  1  1  6
  2  3  1  0
  3  4  1  0
  4  5  1  0
  5  6  1  0
  7  6  1  0
  8  9  2  0
  8  2  1  0
 10  8  1  0
 11 22  1  0
 11 10  1  0
 11 12  1  1
 13 12  1  0
 13 21  1  0
 14 15  1  0
 14 13  2  0
 15 16  1  0
 16 17  1  0
 16 21  2  0
 17 18  2  0
 18 19  1  0
 20 19  2  0
 21 20  1  0
 22 23  2  0
 25 24  1  1
 26 25  1  0
 26 22  1  0
 27 25  1  0
 28 27  1  0
 29 27  2  0
M  END
$$$$
