KWA.pdb
     RDKit          3D

 29 30  0  0  1  0  0  0  0  0999 V2000
    6.2019  -16.8991   20.9370 N   0  0  0  0  0  0  0  0  0  0  0  0
    7.6149  -17.1249   20.7360 C   0  0  1  0  0  0  0  0  0  0  0  0
    8.1094  -16.8901   19.3633 C   0  0  0  0  0  0  0  0  0  0  0  0
    7.4519  -17.5958   18.2441 C   0  0  0  0  0  0  0  0  0  0  0  0
    8.4069  -18.3995   17.4050 C   0  0  0  0  0  0  0  0  0  0  0  0
    7.6566  -19.6301   16.8884 C   0  0  0  0  0  0  0  0  0  0  0  0
    7.5674  -19.4595   15.4442 N   0  0  0  0  0  0  0  0  0  0  0  0
    8.3559  -16.3783   21.7800 C   0  0  0  0  0  0  0  0  0  0  0  0
    8.8946  -15.2803   21.4756 O   0  0  0  0  0  0  0  0  0  0  0  0
    8.4354  -16.9210   23.0936 N   0  0  0  0  0  0  0  0  0  0  0  0
    9.3439  -16.4205   24.0611 C   0  0  1  0  0  0  0  0  0  0  0  0
    8.7803  -16.2732   25.4427 C   0  0  0  0  0  0  0  0  0  0  0  0
    7.6089  -15.4199   25.5538 C   0  0  0  0  0  0  0  0  0  0  0  0
    6.2765  -15.7612   25.4410 C   0  0  0  0  0  0  0  0  0  0  0  0
    5.5321  -14.6539   25.6146 N   0  0  0  0  0  0  0  0  0  0  0  0
    6.3684  -13.6076   25.8370 C   0  0  0  0  0  0  0  0  0  0  0  0
    6.1251  -12.2698   26.0715 C   0  0  0  0  0  0  0  0  0  0  0  0
    7.1324  -11.3471   26.2777 C   0  0  0  0  0  0  0  0  0  0  0  0
    8.4367  -11.8040   26.2438 C   0  0  0  0  0  0  0  0  0  0  0  0
    8.6748  -13.1420   26.0092 C   0  0  0  0  0  0  0  0  0  0  0  0
    7.6693  -14.0646   25.8031 C   0  0  0  0  0  0  0  0  0  0  0  0
   10.5269  -17.3017   24.1842 C   0  0  0  0  0  0  0  0  0  0  0  0
   10.4298  -18.5553   24.3024 O   0  0  0  0  0  0  0  0  0  0  0  0
   14.1208  -16.9224   23.4640 C   0  0  0  0  0  0  0  0  0  0  0  0
   12.9760  -17.5811   24.2122 C   0  0  2  0  0  0  0  0  0  0  0  0
   11.8194  -16.7060   24.1672 N   0  0  0  0  0  0  0  0  0  0  0  0
   13.3053  -17.8746   25.6126 C   0  0  0  0  0  0  0  0  0  0  0  0
   14.2572  -18.8119   25.9293 O   0  0  0  0  0  0  0  0  0  0  0  0
   12.7278  -17.2779   26.5700 O   0  0  0  0  0  0  0  0  0  0  0  0
  2  1  1  6
  2  3  1  0
  3  4  1  0
  4  5  1  0
  5  6  1  0
  7  6  1  0
  8  9  2  0
  8  2  1  0
 10  8  1  0
 11 22  1  0
 11 10  1  0
 11 12  1  1
 13 12  1  0
 13 21  1  0
 14 15  1  0
 14 13  2  0
 15 16  1  0
 16 17  1  0
 16 21  2  0
 17 18  2  0
 18 19  1  0
 20 19  2  0
 21 20  1  0
 22 23  2  0
 25 24  1  1
 26 25  1  0
 26 22  1  0
 27 25  1  0
 28 27  1  0
 29 27  2  0
M  END
$$$$
