DWE.pdb
     RDKit          3D

 32 33  0  0  1  0  0  0  0  0999 V2000
    9.9042  -15.7931   19.4973 N   0  0  0  0  0  0  0  0  0  0  0  0
   10.4156  -16.8266   20.3696 C   0  0  1  0  0  0  0  0  0  0  0  0
   11.8261  -17.1530   19.9773 C   0  0  0  0  0  0  0  0  0  0  0  0
   12.0056  -17.4535   18.5528 C   0  0  0  0  0  0  0  0  0  0  0  0
   11.1823  -18.2356   18.0151 O   0  0  0  0  0  0  0  0  0  0  0  0
   10.2506  -16.4874   21.7935 C   0  0  0  0  0  0  0  0  0  0  0  0
   11.0694  -15.7140   22.3640 O   0  0  0  0  0  0  0  0  0  0  0  0
   13.0455  -16.8952   17.8275 O   0  0  0  0  0  0  0  0  0  0  0  0
    9.1629  -17.0353   22.5261 N   0  0  0  0  0  0  0  0  0  0  0  0
    8.9837  -16.8721   23.9421 C   0  0  1  0  0  0  0  0  0  0  0  0
    7.5760  -16.5046   24.2428 C   0  0  0  0  0  0  0  0  0  0  0  0
    7.2719  -15.0699   24.0476 C   0  0  0  0  0  0  0  0  0  0  0  0
    6.9047  -14.4672   22.8316 C   0  0  0  0  0  0  0  0  0  0  0  0
    6.6758  -13.1633   23.0428 N   0  0  0  0  0  0  0  0  0  0  0  0
    6.8684  -12.8474   24.3363 C   0  0  0  0  0  0  0  0  0  0  0  0
    6.7613  -11.6471   25.0082 C   0  0  0  0  0  0  0  0  0  0  0  0
    7.0360  -11.6264   26.3548 C   0  0  0  0  0  0  0  0  0  0  0  0
    7.4079  -12.7722   27.0138 C   0  0  0  0  0  0  0  0  0  0  0  0
    7.5039  -13.9633   26.2990 C   0  0  0  0  0  0  0  0  0  0  0  0
    7.2398  -14.0375   24.9571 C   0  0  0  0  0  0  0  0  0  0  0  0
    9.4513  -18.0381   24.7321 C   0  0  0  0  0  0  0  0  0  0  0  0
    9.4331  -19.1818   24.2542 O   0  0  0  0  0  0  0  0  0  0  0  0
    9.9138  -17.7673   26.0491 N   0  0  0  0  0  0  0  0  0  0  0  0
   10.9628  -18.5770   26.6164 C   0  0  1  0  0  0  0  0  0  0  0  0
   12.2312  -18.5590   25.7658 C   0  0  0  0  0  0  0  0  0  0  0  0
   13.3163  -19.3774   26.4126 C   0  0  0  0  0  0  0  0  0  0  0  0
   14.5142  -19.3842   25.5669 C   0  0  0  0  0  0  0  0  0  0  0  0
   15.0516  -18.2544   25.3126 O   0  0  0  0  0  0  0  0  0  0  0  0
   11.3119  -18.0726   27.9943 C   0  0  0  0  0  0  0  0  0  0  0  0
   11.9308  -18.9045   28.9169 O   0  0  0  0  0  0  0  0  0  0  0  0
   15.1104  -20.4986   25.0236 O   0  0  0  0  0  0  0  0  0  0  0  0
   11.0595  -16.8971   28.3540 O   0  0  0  0  0  0  0  0  0  0  0  0
  2  1  1  6
  2  3  1  0
  4  3  1  0
  4  8  1  0
  5  4  2  0
  6  7  2  0
  6  2  1  0
  9  6  1  0
 10  9  1  0
 10 11  1  6
 11 12  1  0
 12 13  2  0
 12 20  1  0
 13 14  1  0
 14 15  1  0
 15 16  2  0
 16 17  1  0
 18 17  2  0
 19 18  1  0
 20 19  2  0
 20 15  1  0
 21 10  1  0
 22 21  2  0
 23 21  1  0
 24 25  1  6
 24 23  1  0
 26 27  1  0
 26 25  1  0
 27 28  2  0
 29 24  1  0
 30 29  1  0
 31 27  1  0
 32 29  2  0
M  END
$$$$
