DWE.pdb
     RDKit          3D

 32 33  0  0  1  0  0  0  0  0999 V2000
    9.5986  -17.4526   20.7134 N   0  0  0  0  0  0  0  0  0  0  0  0
   10.8010  -17.5236   21.5132 C   0  0  1  0  0  0  0  0  0  0  0  0
   11.8994  -16.7688   20.8248 C   0  0  0  0  0  0  0  0  0  0  0  0
   12.1389  -17.1778   19.4366 C   0  0  0  0  0  0  0  0  0  0  0  0
   12.4796  -16.2872   18.6184 O   0  0  0  0  0  0  0  0  0  0  0  0
   10.5691  -17.1092   22.9076 C   0  0  0  0  0  0  0  0  0  0  0  0
   11.4976  -16.5776   23.5779 O   0  0  0  0  0  0  0  0  0  0  0  0
   11.9941  -18.4981   19.0427 O   0  0  0  0  0  0  0  0  0  0  0  0
    9.2922  -17.3104   23.4985 N   0  0  0  0  0  0  0  0  0  0  0  0
    8.9887  -17.0260   24.8736 C   0  0  1  0  0  0  0  0  0  0  0  0
    7.5711  -16.6028   25.0098 C   0  0  0  0  0  0  0  0  0  0  0  0
    7.3061  -15.2229   24.5470 C   0  0  0  0  0  0  0  0  0  0  0  0
    7.0640  -14.8359   23.2171 C   0  0  0  0  0  0  0  0  0  0  0  0
    6.8334  -13.5158   23.1821 N   0  0  0  0  0  0  0  0  0  0  0  0
    6.9065  -12.9848   24.4162 C   0  0  0  0  0  0  0  0  0  0  0  0
    6.7521  -11.6884   24.8623 C   0  0  0  0  0  0  0  0  0  0  0  0
    6.8979  -11.4391   26.2060 C   0  0  0  0  0  0  0  0  0  0  0  0
    7.1902  -12.4556   27.0817 C   0  0  0  0  0  0  0  0  0  0  0  0
    7.3378  -13.7503   26.5908 C   0  0  0  0  0  0  0  0  0  0  0  0
    7.2014  -14.0515   25.2617 C   0  0  0  0  0  0  0  0  0  0  0  0
    9.3460  -18.1327   25.7954 C   0  0  0  0  0  0  0  0  0  0  0  0
    8.6710  -19.1716   25.8377 O   0  0  0  0  0  0  0  0  0  0  0  0
   10.4913  -17.9315   26.6137 N   0  0  0  0  0  0  0  0  0  0  0  0
   10.9359  -18.9869   27.4890 C   0  0  1  0  0  0  0  0  0  0  0  0
   12.2745  -19.5770   27.0498 C   0  0  0  0  0  0  0  0  0  0  0  0
   13.3817  -18.5733   27.2283 C   0  0  0  0  0  0  0  0  0  0  0  0
   14.5606  -18.9810   26.4573 C   0  0  0  0  0  0  0  0  0  0  0  0
   15.3976  -19.7493   27.0396 O   0  0  0  0  0  0  0  0  0  0  0  0
   11.0918  -18.4577   28.8928 C   0  0  0  0  0  0  0  0  0  0  0  0
   11.3574  -19.3187   29.9484 O   0  0  0  0  0  0  0  0  0  0  0  0
   14.8448  -18.6099   25.1635 O   0  0  0  0  0  0  0  0  0  0  0  0
   10.9888  -17.2350   29.1560 O   0  0  0  0  0  0  0  0  0  0  0  0
  2  1  1  6
  2  3  1  0
  4  3  1  0
  4  8  1  0
  5  4  2  0
  6  7  2  0
  6  2  1  0
  9  6  1  0
 10  9  1  0
 10 11  1  6
 11 12  1  0
 12 13  2  0
 12 20  1  0
 13 14  1  0
 14 15  1  0
 15 16  2  0
 16 17  1  0
 18 17  2  0
 19 18  1  0
 20 19  2  0
 20 15  1  0
 21 10  1  0
 22 21  2  0
 23 21  1  0
 24 25  1  6
 24 23  1  0
 26 27  1  0
 26 25  1  0
 27 28  2  0
 29 24  1  0
 30 29  1  0
 31 27  1  0
 32 29  2  0
M  END
$$$$
