DWE.pdb
     RDKit          3D

 32 33  0  0  1  0  0  0  0  0999 V2000
    8.7753  -17.7024   19.0171 N   0  0  0  0  0  0  0  0  0  0  0  0
   10.1281  -17.4021   19.4299 C   0  0  1  0  0  0  0  0  0  0  0  0
   10.8702  -16.7825   18.2830 C   0  0  0  0  0  0  0  0  0  0  0  0
   10.9245  -17.6139   17.0756 C   0  0  0  0  0  0  0  0  0  0  0  0
   10.2967  -18.7022   17.0901 O   0  0  0  0  0  0  0  0  0  0  0  0
   10.1700  -16.6101   20.6712 C   0  0  0  0  0  0  0  0  0  0  0  0
   11.2632  -16.1366   21.0892 O   0  0  0  0  0  0  0  0  0  0  0  0
   11.6422  -17.2131   15.9605 O   0  0  0  0  0  0  0  0  0  0  0  0
    8.9715  -16.3795   21.3998 N   0  0  0  0  0  0  0  0  0  0  0  0
    8.9142  -15.6787   22.6525 C   0  0  1  0  0  0  0  0  0  0  0  0
    7.6535  -14.8984   22.7474 C   0  0  0  0  0  0  0  0  0  0  0  0
    7.1470  -14.7356   24.1278 C   0  0  0  0  0  0  0  0  0  0  0  0
    6.5772  -15.7497   24.9176 C   0  0  0  0  0  0  0  0  0  0  0  0
    6.2654  -15.2436   26.1191 N   0  0  0  0  0  0  0  0  0  0  0  0
    6.5918  -13.9401   26.1881 C   0  0  0  0  0  0  0  0  0  0  0  0
    6.4529  -13.0172   27.2043 C   0  0  0  0  0  0  0  0  0  0  0  0
    6.8748  -11.7290   26.9778 C   0  0  0  0  0  0  0  0  0  0  0  0
    7.4205  -11.3704   25.7698 C   0  0  0  0  0  0  0  0  0  0  0  0
    7.5433  -12.3321   24.7704 C   0  0  0  0  0  0  0  0  0  0  0  0
    7.1395  -13.6290   24.9460 C   0  0  0  0  0  0  0  0  0  0  0  0
    9.1326  -16.5574   23.8282 C   0  0  0  0  0  0  0  0  0  0  0  0
    8.5535  -17.6491   23.9258 O   0  0  0  0  0  0  0  0  0  0  0  0
   10.0322  -16.0781   24.8197 N   0  0  0  0  0  0  0  0  0  0  0  0
   11.1254  -16.9118   25.2526 C   0  0  1  0  0  0  0  0  0  0  0  0
   12.4810  -16.3619   24.8139 C   0  0  0  0  0  0  0  0  0  0  0  0
   13.5985  -17.2242   25.3364 C   0  0  0  0  0  0  0  0  0  0  0  0
   14.8935  -16.6825   24.9122 C   0  0  0  0  0  0  0  0  0  0  0  0
   15.9394  -17.2737   25.3442 O   0  0  0  0  0  0  0  0  0  0  0  0
   11.1244  -17.0186   26.7572 C   0  0  0  0  0  0  0  0  0  0  0  0
   10.4210  -16.1063   27.5311 O   0  0  0  0  0  0  0  0  0  0  0  0
   15.0819  -15.5951   24.0910 O   0  0  0  0  0  0  0  0  0  0  0  0
   11.7511  -17.9246   27.3582 O   0  0  0  0  0  0  0  0  0  0  0  0
  2  1  1  6
  2  3  1  0
  4  3  1  0
  4  8  1  0
  5  4  2  0
  6  7  2  0
  6  2  1  0
  9  6  1  0
 10  9  1  0
 10 11  1  1
 11 12  1  0
 12 13  2  0
 12 20  1  0
 13 14  1  0
 14 15  1  0
 15 16  2  0
 16 17  1  0
 18 17  2  0
 19 18  1  0
 20 19  2  0
 20 15  1  0
 21 10  1  0
 22 21  2  0
 23 21  1  0
 24 25  1  1
 24 23  1  0
 26 27  1  0
 26 25  1  0
 27 28  2  0
 29 24  1  0
 30 29  1  0
 31 27  1  0
 32 29  2  0
M  END
$$$$
