DWE.pdb
     RDKit          3D

 32 33  0  0  1  0  0  0  0  0999 V2000
    8.5784  -16.0344   19.7845 N   0  0  0  0  0  0  0  0  0  0  0  0
    9.6330  -16.8069   20.4022 C   0  0  1  0  0  0  0  0  0  0  0  0
   10.8645  -16.7357   19.5488 C   0  0  0  0  0  0  0  0  0  0  0  0
   10.6522  -17.1053   18.1452 C   0  0  0  0  0  0  0  0  0  0  0  0
    9.9875  -18.1457   17.9118 O   0  0  0  0  0  0  0  0  0  0  0  0
    9.8530  -16.4269   21.8082 C   0  0  0  0  0  0  0  0  0  0  0  0
   10.6516  -15.4934   22.0993 O   0  0  0  0  0  0  0  0  0  0  0  0
   11.1664  -16.3350   17.1149 O   0  0  0  0  0  0  0  0  0  0  0  0
    9.1609  -17.1168   22.8403 N   0  0  0  0  0  0  0  0  0  0  0  0
    9.3207  -16.8390   24.2407 C   0  0  1  0  0  0  0  0  0  0  0  0
    8.0168  -16.4553   24.8404 C   0  0  0  0  0  0  0  0  0  0  0  0
    7.5867  -15.0769   24.5186 C   0  0  0  0  0  0  0  0  0  0  0  0
    7.1113  -14.6360   23.2711 C   0  0  0  0  0  0  0  0  0  0  0  0
    6.7868  -13.3385   23.3617 N   0  0  0  0  0  0  0  0  0  0  0  0
    7.0168  -12.8737   24.6032 C   0  0  0  0  0  0  0  0  0  0  0  0
    6.8450  -11.6208   25.1549 C   0  0  0  0  0  0  0  0  0  0  0  0
    7.1835  -11.4369   26.4743 C   0  0  0  0  0  0  0  0  0  0  0  0
    7.6804  -12.4748   27.2235 C   0  0  0  0  0  0  0  0  0  0  0  0
    7.8383  -13.7240   26.6289 C   0  0  0  0  0  0  0  0  0  0  0  0
    7.5150  -13.9596   25.3190 C   0  0  0  0  0  0  0  0  0  0  0  0
    9.9920  -17.9337   24.9843 C   0  0  0  0  0  0  0  0  0  0  0  0
    9.4498  -19.0404   25.1189 O   0  0  0  0  0  0  0  0  0  0  0  0
   11.2743  -17.6402   25.5242 N   0  0  0  0  0  0  0  0  0  0  0  0
   11.9985  -18.6628   26.2366 C   0  0  1  0  0  0  0  0  0  0  0  0
   13.4344  -18.2450   26.5469 C   0  0  0  0  0  0  0  0  0  0  0  0
   14.1636  -19.3456   27.2696 C   0  0  0  0  0  0  0  0  0  0  0  0
   15.5748  -19.3611   26.8713 C   0  0  0  0  0  0  0  0  0  0  0  0
   16.1429  -20.5018   26.7918 O   0  0  0  0  0  0  0  0  0  0  0  0
   11.3044  -18.9692   27.5403 C   0  0  0  0  0  0  0  0  0  0  0  0
   10.5313  -18.0063   28.1739 O   0  0  0  0  0  0  0  0  0  0  0  0
   16.3408  -18.2573   26.5758 O   0  0  0  0  0  0  0  0  0  0  0  0
   11.3983  -20.0914   28.0940 O   0  0  0  0  0  0  0  0  0  0  0  0
  2  1  1  6
  2  3  1  0
  4  3  1  0
  4  8  1  0
  5  4  2  0
  6  7  2  0
  6  2  1  0
  9  6  1  0
 10  9  1  0
 10 11  1  1
 11 12  1  0
 12 13  2  0
 12 20  1  0
 13 14  1  0
 14 15  1  0
 15 16  2  0
 16 17  1  0
 18 17  2  0
 19 18  1  0
 20 19  2  0
 20 15  1  0
 21 10  1  0
 22 21  2  0
 23 21  1  0
 24 25  1  1
 24 23  1  0
 26 27  1  0
 26 25  1  0
 27 28  2  0
 29 24  1  0
 30 29  1  0
 31 27  1  0
 32 29  2  0
M  END
$$$$
