DWE.pdb
     RDKit          3D

 32 33  0  0  1  0  0  0  0  0999 V2000
    9.9683  -16.1756   20.2951 N   0  0  0  0  0  0  0  0  0  0  0  0
   10.2823  -17.2679   21.1889 C   0  0  1  0  0  0  0  0  0  0  0  0
   11.5788  -17.8947   20.7690 C   0  0  0  0  0  0  0  0  0  0  0  0
   11.6123  -18.3417   19.3723 C   0  0  0  0  0  0  0  0  0  0  0  0
   12.7304  -18.6430   18.8847 O   0  0  0  0  0  0  0  0  0  0  0  0
   10.2419  -16.8606   22.6039 C   0  0  0  0  0  0  0  0  0  0  0  0
   11.1625  -16.1452   23.0883 O   0  0  0  0  0  0  0  0  0  0  0  0
   10.4530  -18.4281   18.6189 O   0  0  0  0  0  0  0  0  0  0  0  0
    9.1593  -17.2768   23.4254 N   0  0  0  0  0  0  0  0  0  0  0  0
    9.0389  -16.9560   24.8206 C   0  0  1  0  0  0  0  0  0  0  0  0
    7.6489  -16.5347   25.1327 C   0  0  0  0  0  0  0  0  0  0  0  0
    7.3258  -15.1558   24.7052 C   0  0  0  0  0  0  0  0  0  0  0  0
    6.9991  -14.7578   23.3969 C   0  0  0  0  0  0  0  0  0  0  0  0
    6.7362  -13.4433   23.3937 N   0  0  0  0  0  0  0  0  0  0  0  0
    6.8673  -12.9265   24.6290 C   0  0  0  0  0  0  0  0  0  0  0  0
    6.7085  -11.6400   25.1015 C   0  0  0  0  0  0  0  0  0  0  0  0
    6.9250  -11.4044   26.4382 C   0  0  0  0  0  0  0  0  0  0  0  0
    7.2905  -12.4248   27.2813 C   0  0  0  0  0  0  0  0  0  0  0  0
    7.4399  -13.7091   26.7646 C   0  0  0  0  0  0  0  0  0  0  0  0
    7.2349  -13.9965   25.4413 C   0  0  0  0  0  0  0  0  0  0  0  0
    9.5238  -18.0355   25.7159 C   0  0  0  0  0  0  0  0  0  0  0  0
    8.8443  -19.0529   25.9156 O   0  0  0  0  0  0  0  0  0  0  0  0
   10.7949  -17.8346   26.3208 N   0  0  0  0  0  0  0  0  0  0  0  0
   11.3611  -18.8690   27.1496 C   0  0  1  0  0  0  0  0  0  0  0  0
   12.8768  -18.9717   26.9919 C   0  0  0  0  0  0  0  0  0  0  0  0
   13.4207  -20.1091   27.8140 C   0  0  0  0  0  0  0  0  0  0  0  0
   14.8846  -20.1342   27.7331 C   0  0  0  0  0  0  0  0  0  0  0  0
   15.4364  -19.3014   26.9382 O   0  0  0  0  0  0  0  0  0  0  0  0
   11.0559  -18.5888   28.5999 C   0  0  0  0  0  0  0  0  0  0  0  0
   11.1130  -19.6043   29.5443 O   0  0  0  0  0  0  0  0  0  0  0  0
   15.7160  -20.9744   28.4369 O   0  0  0  0  0  0  0  0  0  0  0  0
   10.7431  -17.4421   29.0024 O   0  0  0  0  0  0  0  0  0  0  0  0
  2  1  1  6
  2  3  1  0
  4  3  1  0
  4  8  1  0
  5  4  2  0
  6  7  2  0
  6  2  1  0
  9  6  1  0
 10  9  1  0
 10 11  1  1
 11 12  1  0
 12 13  2  0
 12 20  1  0
 13 14  1  0
 14 15  1  0
 15 16  2  0
 16 17  1  0
 18 17  2  0
 19 18  1  0
 20 19  2  0
 20 15  1  0
 21 10  1  0
 22 21  2  0
 23 21  1  0
 24 25  1  1
 24 23  1  0
 26 27  1  0
 26 25  1  0
 27 28  2  0
 29 24  1  0
 30 29  1  0
 31 27  1  0
 32 29  2  0
M  END
$$$$
