DWE.pdb
     RDKit          3D

 32 33  0  0  1  0  0  0  0  0999 V2000
    9.1093  -17.9573   20.3779 N   0  0  0  0  0  0  0  0  0  0  0  0
   10.1151  -16.9310   20.5384 C   0  0  1  0  0  0  0  0  0  0  0  0
    9.8923  -15.8548   19.5175 C   0  0  0  0  0  0  0  0  0  0  0  0
   10.2346  -16.2410   18.1444 C   0  0  0  0  0  0  0  0  0  0  0  0
   10.5368  -15.3239   17.3404 O   0  0  0  0  0  0  0  0  0  0  0  0
   10.1933  -16.4380   21.9243 C   0  0  0  0  0  0  0  0  0  0  0  0
   11.0673  -15.5874   22.2504 O   0  0  0  0  0  0  0  0  0  0  0  0
   10.2246  -17.5687   17.7490 O   0  0  0  0  0  0  0  0  0  0  0  0
    9.2783  -16.9247   22.8971 N   0  0  0  0  0  0  0  0  0  0  0  0
    9.3089  -16.5560   24.2852 C   0  0  1  0  0  0  0  0  0  0  0  0
    7.9261  -16.4235   24.8121 C   0  0  0  0  0  0  0  0  0  0  0  0
    7.3035  -15.1075   24.5489 C   0  0  0  0  0  0  0  0  0  0  0  0
    6.6153  -14.7452   23.3776 C   0  0  0  0  0  0  0  0  0  0  0  0
    6.1621  -13.4904   23.5086 N   0  0  0  0  0  0  0  0  0  0  0  0
    6.5058  -12.9803   24.7052 C   0  0  0  0  0  0  0  0  0  0  0  0
    6.2711  -11.7445   25.2719 C   0  0  0  0  0  0  0  0  0  0  0  0
    6.7639  -11.4999   26.5314 C   0  0  0  0  0  0  0  0  0  0  0  0
    7.4725  -12.4622   27.2078 C   0  0  0  0  0  0  0  0  0  0  0  0
    7.6873  -13.6967   26.6005 C   0  0  0  0  0  0  0  0  0  0  0  0
    7.2165  -13.9908   25.3484 C   0  0  0  0  0  0  0  0  0  0  0  0
   10.1527  -17.4529   25.1133 C   0  0  0  0  0  0  0  0  0  0  0  0
    9.8331  -18.6356   25.3021 O   0  0  0  0  0  0  0  0  0  0  0  0
   11.3310  -16.8817   25.6677 N   0  0  0  0  0  0  0  0  0  0  0  0
   12.2301  -17.7070   26.4345 C   0  0  1  0  0  0  0  0  0  0  0  0
   13.6773  -17.2283   26.3397 C   0  0  0  0  0  0  0  0  0  0  0  0
   14.0669  -16.9952   24.9047 C   0  0  0  0  0  0  0  0  0  0  0  0
   15.4720  -16.5834   24.8245 C   0  0  0  0  0  0  0  0  0  0  0  0
   16.3534  -17.4919   24.9909 O   0  0  0  0  0  0  0  0  0  0  0  0
   11.8239  -17.6958   27.8871 C   0  0  0  0  0  0  0  0  0  0  0  0
   10.7771  -16.8956   28.3232 O   0  0  0  0  0  0  0  0  0  0  0  0
   15.9250  -15.3065   24.5861 O   0  0  0  0  0  0  0  0  0  0  0  0
   12.4091  -18.4003   28.7450 O   0  0  0  0  0  0  0  0  0  0  0  0
  2  1  1  1
  2  3  1  0
  4  3  1  0
  4  8  1  0
  5  4  2  0
  6  7  2  0
  6  2  1  0
  9  6  1  0
 10  9  1  0
 10 11  1  1
 11 12  1  0
 12 13  2  0
 12 20  1  0
 13 14  1  0
 14 15  1  0
 15 16  2  0
 16 17  1  0
 18 17  2  0
 19 18  1  0
 20 19  2  0
 20 15  1  0
 21 10  1  0
 22 21  2  0
 23 21  1  0
 24 25  1  1
 24 23  1  0
 26 27  1  0
 26 25  1  0
 27 28  2  0
 29 24  1  0
 30 29  1  0
 31 27  1  0
 32 29  2  0
M  END
$$$$
