DWE.pdb
     RDKit          3D

 32 33  0  0  1  0  0  0  0  0999 V2000
    9.9755  -15.8483   18.1515 N   0  0  0  0  0  0  0  0  0  0  0  0
    9.7679  -16.8063   19.2143 C   0  0  1  0  0  0  0  0  0  0  0  0
   10.7431  -17.9357   19.0610 C   0  0  0  0  0  0  0  0  0  0  0  0
   10.8106  -18.4996   17.7085 C   0  0  0  0  0  0  0  0  0  0  0  0
    9.8176  -19.1524   17.3003 O   0  0  0  0  0  0  0  0  0  0  0  0
    9.7829  -16.1755   20.5453 C   0  0  0  0  0  0  0  0  0  0  0  0
   10.8503  -15.6828   21.0057 O   0  0  0  0  0  0  0  0  0  0  0  0
   11.9288  -18.3189   16.9110 O   0  0  0  0  0  0  0  0  0  0  0  0
    8.5877  -16.1227   21.3127 N   0  0  0  0  0  0  0  0  0  0  0  0
    8.5287  -15.6867   22.6803 C   0  0  1  0  0  0  0  0  0  0  0  0
    7.1505  -15.2492   23.0210 C   0  0  0  0  0  0  0  0  0  0  0  0
    6.9599  -14.9121   24.4488 C   0  0  0  0  0  0  0  0  0  0  0  0
    6.5217  -15.7973   25.4494 C   0  0  0  0  0  0  0  0  0  0  0  0
    6.5002  -15.1518   26.6240 N   0  0  0  0  0  0  0  0  0  0  0  0
    6.8993  -13.8754   26.4755 C   0  0  0  0  0  0  0  0  0  0  0  0
    7.0279  -12.8477   27.3870 C   0  0  0  0  0  0  0  0  0  0  0  0
    7.4562  -11.6230   26.9333 C   0  0  0  0  0  0  0  0  0  0  0  0
    7.7482  -11.4284   25.6057 C   0  0  0  0  0  0  0  0  0  0  0  0
    7.6055  -12.4918   24.7183 C   0  0  0  0  0  0  0  0  0  0  0  0
    7.1836  -13.7315   25.1197 C   0  0  0  0  0  0  0  0  0  0  0  0
    9.0653  -16.6843   23.6389 C   0  0  0  0  0  0  0  0  0  0  0  0
    8.6452  -17.8506   23.6488 O   0  0  0  0  0  0  0  0  0  0  0  0
   10.0742  -16.2278   24.5309 N   0  0  0  0  0  0  0  0  0  0  0  0
   10.7219  -17.1651   25.4138 C   0  0  1  0  0  0  0  0  0  0  0  0
   12.1526  -17.4757   24.9787 C   0  0  0  0  0  0  0  0  0  0  0  0
   12.9079  -16.2059   24.6913 C   0  0  0  0  0  0  0  0  0  0  0  0
   14.1677  -16.5130   24.0064 C   0  0  0  0  0  0  0  0  0  0  0  0
   14.0859  -16.9523   22.8104 O   0  0  0  0  0  0  0  0  0  0  0  0
   10.7658  -16.6050   26.8136 C   0  0  0  0  0  0  0  0  0  0  0  0
   10.2665  -15.3389   27.0854 O   0  0  0  0  0  0  0  0  0  0  0  0
   15.4288  -16.3701   24.5370 O   0  0  0  0  0  0  0  0  0  0  0  0
   11.2490  -17.2540   27.7729 O   0  0  0  0  0  0  0  0  0  0  0  0
  2  1  1  6
  2  3  1  0
  4  3  1  0
  4  8  1  0
  5  4  2  0
  6  7  2  0
  6  2  1  0
  9  6  1  0
 10  9  1  0
 10 11  1  1
 11 12  1  0
 12 13  2  0
 12 20  1  0
 13 14  1  0
 14 15  1  0
 15 16  2  0
 16 17  1  0
 18 17  2  0
 19 18  1  0
 20 19  2  0
 20 15  1  0
 21 10  1  0
 22 21  2  0
 23 21  1  0
 24 25  1  6
 24 23  1  0
 26 27  1  0
 26 25  1  0
 27 28  2  0
 29 24  1  0
 30 29  1  0
 31 27  1  0
 32 29  2  0
M  END
$$$$
