DWE.pdb
     RDKit          3D

 32 33  0  0  1  0  0  0  0  0999 V2000
    8.9897  -17.4776   18.7578 N   0  0  0  0  0  0  0  0  0  0  0  0
   10.2826  -17.2167   19.3504 C   0  0  1  0  0  0  0  0  0  0  0  0
   11.1530  -16.5141   18.3510 C   0  0  0  0  0  0  0  0  0  0  0  0
   11.1235  -17.0966   17.0051 C   0  0  0  0  0  0  0  0  0  0  0  0
   10.2001  -16.7333   16.2342 O   0  0  0  0  0  0  0  0  0  0  0  0
   10.1734  -16.5232   20.6453 C   0  0  0  0  0  0  0  0  0  0  0  0
   11.1917  -15.9980   21.1756 O   0  0  0  0  0  0  0  0  0  0  0  0
   12.0790  -18.0141   16.5994 O   0  0  0  0  0  0  0  0  0  0  0  0
    8.9134  -16.4466   21.2986 N   0  0  0  0  0  0  0  0  0  0  0  0
    8.7186  -15.8855   22.6067 C   0  0  1  0  0  0  0  0  0  0  0  0
    7.2913  -15.5228   22.8028 C   0  0  0  0  0  0  0  0  0  0  0  0
    6.9711  -15.0482   24.1669 C   0  0  0  0  0  0  0  0  0  0  0  0
    6.5346  -15.8527   25.2341 C   0  0  0  0  0  0  0  0  0  0  0  0
    6.3759  -15.0858   26.3220 N   0  0  0  0  0  0  0  0  0  0  0  0
    6.6802  -13.8034   26.0515 C   0  0  0  0  0  0  0  0  0  0  0  0
    6.6588  -12.6738   26.8435 C   0  0  0  0  0  0  0  0  0  0  0  0
    7.0185  -11.4738   26.2783 C   0  0  0  0  0  0  0  0  0  0  0  0
    7.3893  -11.4019   24.9581 C   0  0  0  0  0  0  0  0  0  0  0  0
    7.3977  -12.5654   24.1931 C   0  0  0  0  0  0  0  0  0  0  0  0
    7.0495  -13.7855   24.7087 C   0  0  0  0  0  0  0  0  0  0  0  0
    9.2460  -16.7416   23.6980 C   0  0  0  0  0  0  0  0  0  0  0  0
    8.9037  -17.9287   23.8005 O   0  0  0  0  0  0  0  0  0  0  0  0
   10.1533  -16.1269   24.6041 N   0  0  0  0  0  0  0  0  0  0  0  0
   11.1036  -16.9391   25.3216 C   0  0  1  0  0  0  0  0  0  0  0  0
   12.5457  -16.6264   24.9272 C   0  0  0  0  0  0  0  0  0  0  0  0
   13.5074  -17.4806   25.7088 C   0  0  0  0  0  0  0  0  0  0  0  0
   14.8826  -17.2208   25.2711 C   0  0  0  0  0  0  0  0  0  0  0  0
   15.8123  -17.8603   25.8682 O   0  0  0  0  0  0  0  0  0  0  0  0
   10.9597  -16.7073   26.8050 C   0  0  0  0  0  0  0  0  0  0  0  0
   11.4844  -17.6124   27.7171 O   0  0  0  0  0  0  0  0  0  0  0  0
   15.2601  -16.3503   24.2750 O   0  0  0  0  0  0  0  0  0  0  0  0
   10.3681  -15.7006   27.2648 O   0  0  0  0  0  0  0  0  0  0  0  0
  2  1  1  6
  2  3  1  0
  4  3  1  0
  4  8  1  0
  5  4  2  0
  6  7  2  0
  6  2  1  0
  9  6  1  0
 10  9  1  0
 10 11  1  1
 11 12  1  0
 12 13  2  0
 12 20  1  0
 13 14  1  0
 14 15  1  0
 15 16  2  0
 16 17  1  0
 18 17  2  0
 19 18  1  0
 20 19  2  0
 20 15  1  0
 21 10  1  0
 22 21  2  0
 23 21  1  0
 24 25  1  6
 24 23  1  0
 26 27  1  0
 26 25  1  0
 27 28  2  0
 29 24  1  0
 30 29  1  0
 31 27  1  0
 32 29  2  0
M  END
$$$$
