DWE.pdb
     RDKit          3D

 32 33  0  0  1  0  0  0  0  0999 V2000
   10.6214  -15.4881   18.3674 N   0  0  0  0  0  0  0  0  0  0  0  0
   10.3648  -16.5151   19.3524 C   0  0  1  0  0  0  0  0  0  0  0  0
   11.4151  -17.5804   19.2426 C   0  0  0  0  0  0  0  0  0  0  0  0
   11.5135  -18.2010   17.9171 C   0  0  0  0  0  0  0  0  0  0  0  0
   12.5235  -17.9289   17.2210 O   0  0  0  0  0  0  0  0  0  0  0  0
   10.2095  -15.9614   20.7085 C   0  0  0  0  0  0  0  0  0  0  0  0
   11.2068  -15.4920   21.3240 O   0  0  0  0  0  0  0  0  0  0  0  0
   10.5282  -19.0557   17.4503 O   0  0  0  0  0  0  0  0  0  0  0  0
    8.9285  -15.9571   21.3244 N   0  0  0  0  0  0  0  0  0  0  0  0
    8.7010  -15.6296   22.7046 C   0  0  1  0  0  0  0  0  0  0  0  0
    7.2533  -15.3991   22.9459 C   0  0  0  0  0  0  0  0  0  0  0  0
    6.9149  -15.1120   24.3572 C   0  0  0  0  0  0  0  0  0  0  0  0
    6.4467  -16.0485   25.2955 C   0  0  0  0  0  0  0  0  0  0  0  0
    6.2792  -15.4365   26.4764 N   0  0  0  0  0  0  0  0  0  0  0  0
    6.6076  -14.1345   26.3909 C   0  0  0  0  0  0  0  0  0  0  0  0
    6.5884  -13.1250   27.3312 C   0  0  0  0  0  0  0  0  0  0  0  0
    6.9763  -11.8648   26.9434 C   0  0  0  0  0  0  0  0  0  0  0  0
    7.3726  -11.6177   25.6521 C   0  0  0  0  0  0  0  0  0  0  0  0
    7.3780  -12.6643   24.7337 C   0  0  0  0  0  0  0  0  0  0  0  0
    7.0020  -13.9378   25.0698 C   0  0  0  0  0  0  0  0  0  0  0  0
    9.2880  -16.6143   23.6469 C   0  0  0  0  0  0  0  0  0  0  0  0
    9.0238  -17.8220   23.5550 O   0  0  0  0  0  0  0  0  0  0  0  0
   10.1578  -16.0960   24.6452 N   0  0  0  0  0  0  0  0  0  0  0  0
   10.7177  -16.9838   25.6331 C   0  0  1  0  0  0  0  0  0  0  0  0
   12.2436  -16.9250   25.6650 C   0  0  0  0  0  0  0  0  0  0  0  0
   12.8133  -17.1659   24.2928 C   0  0  0  0  0  0  0  0  0  0  0  0
   14.2786  -17.1493   24.3456 C   0  0  0  0  0  0  0  0  0  0  0  0
   14.8427  -16.0089   24.4514 O   0  0  0  0  0  0  0  0  0  0  0  0
   10.2030  -16.6173   27.0027 C   0  0  0  0  0  0  0  0  0  0  0  0
   10.4964  -17.4088   28.1044 O   0  0  0  0  0  0  0  0  0  0  0  0
   15.0992  -18.2521   24.2914 O   0  0  0  0  0  0  0  0  0  0  0  0
    9.4995  -15.5961   27.1955 O   0  0  0  0  0  0  0  0  0  0  0  0
  2  1  1  6
  2  3  1  0
  4  3  1  0
  4  8  1  0
  5  4  2  0
  6  7  2  0
  6  2  1  0
  9  6  1  0
 10  9  1  0
 10 11  1  6
 11 12  1  0
 12 13  2  0
 12 20  1  0
 13 14  1  0
 14 15  1  0
 15 16  2  0
 16 17  1  0
 18 17  2  0
 19 18  1  0
 20 19  2  0
 20 15  1  0
 21 10  1  0
 22 21  2  0
 23 21  1  0
 24 25  1  1
 24 23  1  0
 26 27  1  0
 26 25  1  0
 27 28  2  0
 29 24  1  0
 30 29  1  0
 31 27  1  0
 32 29  2  0
M  END
$$$$
