DWE.pdb
     RDKit          3D

 32 33  0  0  1  0  0  0  0  0999 V2000
   10.7034  -16.9768   19.0641 N   0  0  0  0  0  0  0  0  0  0  0  0
   10.5289  -17.7091   20.2985 C   0  0  1  0  0  0  0  0  0  0  0  0
   11.4893  -18.8608   20.3315 C   0  0  0  0  0  0  0  0  0  0  0  0
   12.0088  -19.2554   19.0176 C   0  0  0  0  0  0  0  0  0  0  0  0
   12.6594  -18.3989   18.3682 O   0  0  0  0  0  0  0  0  0  0  0  0
   10.5989  -16.8339   21.4813 C   0  0  0  0  0  0  0  0  0  0  0  0
   11.7091  -16.3773   21.8722 O   0  0  0  0  0  0  0  0  0  0  0  0
   11.7893  -20.5263   18.5117 O   0  0  0  0  0  0  0  0  0  0  0  0
    9.4083  -16.5036   22.1839 N   0  0  0  0  0  0  0  0  0  0  0  0
    9.3657  -15.6454   23.3351 C   0  0  1  0  0  0  0  0  0  0  0  0
    8.2613  -14.6608   23.2013 C   0  0  0  0  0  0  0  0  0  0  0  0
    7.4306  -14.5167   24.4170 C   0  0  0  0  0  0  0  0  0  0  0  0
    6.6797  -15.5390   25.0234 C   0  0  0  0  0  0  0  0  0  0  0  0
    6.0832  -15.0503   26.1200 N   0  0  0  0  0  0  0  0  0  0  0  0
    6.3876  -13.7509   26.2909 C   0  0  0  0  0  0  0  0  0  0  0  0
    6.0061  -12.8439   27.2581 C   0  0  0  0  0  0  0  0  0  0  0  0
    6.4759  -11.5556   27.1660 C   0  0  0  0  0  0  0  0  0  0  0  0
    7.3041  -11.1815   26.1365 C   0  0  0  0  0  0  0  0  0  0  0  0
    7.6658  -12.1275   25.1809 C   0  0  0  0  0  0  0  0  0  0  0  0
    7.2260  -13.4238   25.2280 C   0  0  0  0  0  0  0  0  0  0  0  0
    9.3181  -16.3869   24.6196 C   0  0  0  0  0  0  0  0  0  0  0  0
    8.5010  -17.3018   24.7988 O   0  0  0  0  0  0  0  0  0  0  0  0
   10.2518  -15.9901   25.6159 N   0  0  0  0  0  0  0  0  0  0  0  0
   10.3448  -16.7391   26.8439 C   0  0  1  0  0  0  0  0  0  0  0  0
   11.5598  -17.6644   26.8663 C   0  0  0  0  0  0  0  0  0  0  0  0
   12.6303  -17.1581   25.9372 C   0  0  0  0  0  0  0  0  0  0  0  0
   13.7600  -18.0927   25.9133 C   0  0  0  0  0  0  0  0  0  0  0  0
   14.7637  -17.7716   25.1926 O   0  0  0  0  0  0  0  0  0  0  0  0
   10.4503  -15.7939   28.0146 C   0  0  0  0  0  0  0  0  0  0  0  0
   10.4679  -14.4204   27.8161 O   0  0  0  0  0  0  0  0  0  0  0  0
   13.8350  -19.2836   26.5977 O   0  0  0  0  0  0  0  0  0  0  0  0
   10.5250  -16.2080   29.1969 O   0  0  0  0  0  0  0  0  0  0  0  0
  2  1  1  6
  2  3  1  0
  4  3  1  0
  4  8  1  0
  5  4  2  0
  6  7  2  0
  6  2  1  0
  9  6  1  0
 10  9  1  0
 10 11  1  6
 11 12  1  0
 12 13  2  0
 12 20  1  0
 13 14  1  0
 14 15  1  0
 15 16  2  0
 16 17  1  0
 18 17  2  0
 19 18  1  0
 20 19  2  0
 20 15  1  0
 21 10  1  0
 22 21  2  0
 23 21  1  0
 24 25  1  6
 24 23  1  0
 26 27  1  0
 26 25  1  0
 27 28  2  0
 29 24  1  0
 30 29  1  0
 31 27  1  0
 32 29  2  0
M  END
$$$$
