DWE.pdb
     RDKit          3D

 32 33  0  0  1  0  0  0  0  0999 V2000
    9.2604  -17.2974   20.8405 N   0  0  0  0  0  0  0  0  0  0  0  0
   10.4310  -16.5167   21.1733 C   0  0  1  0  0  0  0  0  0  0  0  0
   10.5286  -15.3470   20.2393 C   0  0  0  0  0  0  0  0  0  0  0  0
   10.7200  -15.7097   18.8309 C   0  0  0  0  0  0  0  0  0  0  0  0
   10.7890  -16.9322   18.5492 O   0  0  0  0  0  0  0  0  0  0  0  0
   10.4715  -16.1519   22.5999 C   0  0  0  0  0  0  0  0  0  0  0  0
   11.3726  -15.3828   23.0364 O   0  0  0  0  0  0  0  0  0  0  0  0
   10.8213  -14.7390   17.8477 O   0  0  0  0  0  0  0  0  0  0  0  0
    9.4895  -16.6703   23.4871 N   0  0  0  0  0  0  0  0  0  0  0  0
    9.5022  -16.4658   24.9090 C   0  0  1  0  0  0  0  0  0  0  0  0
    8.1183  -16.2675   25.4118 C   0  0  0  0  0  0  0  0  0  0  0  0
    7.4588  -15.0466   24.8987 C   0  0  0  0  0  0  0  0  0  0  0  0
    6.8908  -14.8962   23.6214 C   0  0  0  0  0  0  0  0  0  0  0  0
    6.3576  -13.6702   23.5229 N   0  0  0  0  0  0  0  0  0  0  0  0
    6.5333  -12.9793   24.6640 C   0  0  0  0  0  0  0  0  0  0  0  0
    6.1677  -11.6974   25.0200 C   0  0  0  0  0  0  0  0  0  0  0  0
    6.4986  -11.2498   26.2767 C   0  0  0  0  0  0  0  0  0  0  0  0
    7.1765  -12.0590   27.1549 C   0  0  0  0  0  0  0  0  0  0  0  0
    7.5269  -13.3464   26.7566 C   0  0  0  0  0  0  0  0  0  0  0  0
    7.2197  -13.8404   25.5166 C   0  0  0  0  0  0  0  0  0  0  0  0
   10.2330  -17.5244   25.6487 C   0  0  0  0  0  0  0  0  0  0  0  0
    9.6458  -18.2633   26.4525 O   0  0  0  0  0  0  0  0  0  0  0  0
   11.6254  -17.6375   25.3832 N   0  0  0  0  0  0  0  0  0  0  0  0
   12.3953  -18.6626   26.0421 C   0  0  1  0  0  0  0  0  0  0  0  0
   13.7809  -18.8332   25.4224 C   0  0  0  0  0  0  0  0  0  0  0  0
   14.5894  -17.5728   25.5737 C   0  0  0  0  0  0  0  0  0  0  0  0
   15.2199  -17.2223   24.2970 C   0  0  0  0  0  0  0  0  0  0  0  0
   16.2960  -16.5372   24.3499 O   0  0  0  0  0  0  0  0  0  0  0  0
   12.5701  -18.3159   27.4996 C   0  0  0  0  0  0  0  0  0  0  0  0
   12.0502  -17.1363   28.0138 O   0  0  0  0  0  0  0  0  0  0  0  0
   14.7560  -17.5657   23.0483 O   0  0  0  0  0  0  0  0  0  0  0  0
   13.1838  -19.0709   28.2920 O   0  0  0  0  0  0  0  0  0  0  0  0
  2  1  1  1
  2  3  1  0
  4  3  1  0
  4  8  1  0
  5  4  2  0
  6  7  2  0
  6  2  1  0
  9  6  1  0
 10  9  1  0
 10 11  1  1
 11 12  1  0
 12 13  2  0
 12 20  1  0
 13 14  1  0
 14 15  1  0
 15 16  2  0
 16 17  1  0
 18 17  2  0
 19 18  1  0
 20 19  2  0
 20 15  1  0
 21 10  1  0
 22 21  2  0
 23 21  1  0
 24 25  1  6
 24 23  1  0
 26 27  1  0
 26 25  1  0
 27 28  2  0
 29 24  1  0
 30 29  1  0
 31 27  1  0
 32 29  2  0
M  END
$$$$
