DWE.pdb
     RDKit          3D

 32 33  0  0  1  0  0  0  0  0999 V2000
    6.0760  -15.9095   20.7059 N   0  0  0  0  0  0  0  0  0  0  0  0
    7.3581  -16.5751   20.7680 C   0  0  1  0  0  0  0  0  0  0  0  0
    7.9996  -16.5424   19.4125 C   0  0  0  0  0  0  0  0  0  0  0  0
    7.2528  -17.2556   18.3705 C   0  0  0  0  0  0  0  0  0  0  0  0
    6.5431  -18.2294   18.7267 O   0  0  0  0  0  0  0  0  0  0  0  0
    8.2089  -16.0479   21.8487 C   0  0  0  0  0  0  0  0  0  0  0  0
    8.7395  -14.9071   21.7439 O   0  0  0  0  0  0  0  0  0  0  0  0
    7.3280  -16.8691   17.0423 O   0  0  0  0  0  0  0  0  0  0  0  0
    8.4316  -16.8302   23.0143 N   0  0  0  0  0  0  0  0  0  0  0  0
    9.3279  -16.4579   24.0735 C   0  0  1  0  0  0  0  0  0  0  0  0
    8.6321  -16.5294   25.3841 C   0  0  0  0  0  0  0  0  0  0  0  0
    7.5869  -15.4988   25.5696 C   0  0  0  0  0  0  0  0  0  0  0  0
    6.2008  -15.7075   25.4619 C   0  0  0  0  0  0  0  0  0  0  0  0
    5.5647  -14.5575   25.7264 N   0  0  0  0  0  0  0  0  0  0  0  0
    6.4439  -13.5785   26.0073 C   0  0  0  0  0  0  0  0  0  0  0  0
    6.2581  -12.2491   26.3263 C   0  0  0  0  0  0  0  0  0  0  0  0
    7.3681  -11.4718   26.5554 C   0  0  0  0  0  0  0  0  0  0  0  0
    8.6301  -12.0059   26.4683 C   0  0  0  0  0  0  0  0  0  0  0  0
    8.7744  -13.3524   26.1440 C   0  0  0  0  0  0  0  0  0  0  0  0
    7.7010  -14.1696   25.9077 C   0  0  0  0  0  0  0  0  0  0  0  0
   10.6018  -17.2188   24.0603 C   0  0  0  0  0  0  0  0  0  0  0  0
   10.6071  -18.4564   24.1319 O   0  0  0  0  0  0  0  0  0  0  0  0
   11.7964  -16.4538   23.9621 N   0  0  0  0  0  0  0  0  0  0  0  0
   13.0732  -17.1228   23.9666 C   0  0  1  0  0  0  0  0  0  0  0  0
   14.2176  -16.1870   23.5828 C   0  0  0  0  0  0  0  0  0  0  0  0
   15.5429  -16.8893   23.7081 C   0  0  0  0  0  0  0  0  0  0  0  0
   16.6258  -16.0043   23.2672 C   0  0  0  0  0  0  0  0  0  0  0  0
   17.0844  -15.1767   24.1245 O   0  0  0  0  0  0  0  0  0  0  0  0
   13.3574  -17.6764   25.3405 C   0  0  0  0  0  0  0  0  0  0  0  0
   14.0827  -18.8496   25.4948 O   0  0  0  0  0  0  0  0  0  0  0  0
   17.1916  -15.9863   22.0134 O   0  0  0  0  0  0  0  0  0  0  0  0
   12.9543  -17.1047   26.3824 O   0  0  0  0  0  0  0  0  0  0  0  0
  2  1  1  6
  2  3  1  0
  4  3  1  0
  4  8  1  0
  5  4  2  0
  6  7  2  0
  6  2  1  0
  9  6  1  0
 10  9  1  0
 10 11  1  1
 11 12  1  0
 12 13  2  0
 12 20  1  0
 13 14  1  0
 14 15  1  0
 15 16  2  0
 16 17  1  0
 18 17  2  0
 19 18  1  0
 20 19  2  0
 20 15  1  0
 21 10  1  0
 22 21  2  0
 23 21  1  0
 24 25  1  1
 24 23  1  0
 26 27  1  0
 26 25  1  0
 27 28  2  0
 29 24  1  0
 30 29  1  0
 31 27  1  0
 32 29  2  0
M  END
$$$$
