DWE.pdb
     RDKit          3D

 32 33  0  0  1  0  0  0  0  0999 V2000
    9.5536  -19.3144   20.6793 N   0  0  0  0  0  0  0  0  0  0  0  0
   10.7407  -18.4922   20.6071 C   0  0  1  0  0  0  0  0  0  0  0  0
   11.0862  -18.2459   19.1683 C   0  0  0  0  0  0  0  0  0  0  0  0
   11.5338  -19.4376   18.4393 C   0  0  0  0  0  0  0  0  0  0  0  0
   11.1088  -19.5964   17.2675 O   0  0  0  0  0  0  0  0  0  0  0  0
   10.6206  -17.2663   21.4149 C   0  0  0  0  0  0  0  0  0  0  0  0
   11.5943  -16.4686   21.5123 O   0  0  0  0  0  0  0  0  0  0  0  0
   12.3935  -20.3542   19.0222 O   0  0  0  0  0  0  0  0  0  0  0  0
    9.4006  -16.9830   22.0869 N   0  0  0  0  0  0  0  0  0  0  0  0
    9.1803  -15.8164   22.8959 C   0  0  1  0  0  0  0  0  0  0  0  0
    7.7358  -15.4698   22.9148 C   0  0  0  0  0  0  0  0  0  0  0  0
    7.4434  -14.1320   23.4748 C   0  0  0  0  0  0  0  0  0  0  0  0
    7.3038  -12.9452   22.7340 C   0  0  0  0  0  0  0  0  0  0  0  0
    7.0098  -11.9405   23.5713 N   0  0  0  0  0  0  0  0  0  0  0  0
    6.9427  -12.3803   24.8411 C   0  0  0  0  0  0  0  0  0  0  0  0
    6.6818  -11.7187   26.0234 C   0  0  0  0  0  0  0  0  0  0  0  0
    6.6916  -12.4423   27.1918 C   0  0  0  0  0  0  0  0  0  0  0  0
    6.9549  -13.7900   27.1816 C   0  0  0  0  0  0  0  0  0  0  0  0
    7.2130  -14.4200   25.9670 C   0  0  0  0  0  0  0  0  0  0  0  0
    7.2139  -13.7448   24.7754 C   0  0  0  0  0  0  0  0  0  0  0  0
    9.7595  -15.9274   24.2576 C   0  0  0  0  0  0  0  0  0  0  0  0
   10.0126  -14.9160   24.9282 O   0  0  0  0  0  0  0  0  0  0  0  0
   10.0024  -17.2435   24.7380 N   0  0  0  0  0  0  0  0  0  0  0  0
   10.5606  -17.4299   26.0538 C   0  0  1  0  0  0  0  0  0  0  0  0
    9.8829  -18.5685   26.8135 C   0  0  0  0  0  0  0  0  0  0  0  0
    8.3852  -18.4372   26.7423 C   0  0  0  0  0  0  0  0  0  0  0  0
    7.7476  -19.5424   27.4649 C   0  0  0  0  0  0  0  0  0  0  0  0
    8.5187  -20.4150   27.9884 O   0  0  0  0  0  0  0  0  0  0  0  0
   12.0319  -17.7445   25.9469 C   0  0  0  0  0  0  0  0  0  0  0  0
   12.6265  -17.9367   24.7077 O   0  0  0  0  0  0  0  0  0  0  0  0
    6.3937  -19.7227   27.6293 O   0  0  0  0  0  0  0  0  0  0  0  0
   12.7646  -17.8428   26.9610 O   0  0  0  0  0  0  0  0  0  0  0  0
  2  1  1  6
  2  3  1  0
  4  3  1  0
  4  8  1  0
  5  4  2  0
  6  7  2  0
  6  2  1  0
  9  6  1  0
 10  9  1  0
 10 11  1  1
 11 12  1  0
 12 13  2  0
 12 20  1  0
 13 14  1  0
 14 15  1  0
 15 16  2  0
 16 17  1  0
 18 17  2  0
 19 18  1  0
 20 19  2  0
 20 15  1  0
 21 10  1  0
 22 21  2  0
 23 21  1  0
 24 25  1  6
 24 23  1  0
 26 27  1  0
 26 25  1  0
 27 28  2  0
 29 24  1  0
 30 29  1  0
 31 27  1  0
 32 29  2  0
M  END
$$$$
