RCE.pdb
     RDKit          3D

 27 26  0  0  1  0  0  0  0  0999 V2000
   25.7508  -16.5100  -18.9318 N   0  0  0  0  0  0  0  0  0  0  0  0
   24.3547  -16.7474  -18.8600 C   0  0  0  0  0  0  0  0  0  0  0  0
   23.5513  -16.2849  -19.7362 N   0  0  0  0  0  0  0  0  0  0  0  0
   23.8216  -17.5262  -17.7810 N   0  0  0  0  0  0  0  0  0  0  0  0
   24.6679  -18.1993  -16.8239 C   0  0  0  0  0  0  0  0  0  0  0  0
   24.8437  -19.6360  -17.3552 C   0  0  0  0  0  0  0  0  0  0  0  0
   24.5161  -20.6162  -16.2782 C   0  0  0  0  0  0  0  0  0  0  0  0
   25.7366  -20.9688  -15.4765 C   0  0  2  0  0  0  0  0  0  0  0  0
   26.5120  -21.9751  -16.2512 N   0  0  0  0  0  0  0  0  0  0  0  0
   25.3949  -21.5621  -14.1530 C   0  0  0  0  0  0  0  0  0  0  0  0
   24.9279  -22.7262  -14.1633 O   0  0  0  0  0  0  0  0  0  0  0  0
   23.8732  -15.6902  -20.5265 N   0  0  0  0  0  0  0  0  0  0  0  0
   25.5749  -20.8857  -12.9208 C   0  0  2  0  0  0  0  0  0  0  0  0
   24.7656  -20.9741  -11.7462 C   0  0  0  0  0  0  0  0  0  0  0  0
   25.4887  -20.6968  -10.4829 S   0  0  0  0  0  0  0  0  0  0  0  0
   24.4409  -20.6891   -9.0056 C   0  0  0  0  0  0  0  0  0  0  0  0
   23.3802  -20.5004  -11.8572 O   0  0  0  0  0  0  0  0  0  0  0  0
   23.0199  -19.4677  -12.5107 N   0  0  0  0  0  0  0  0  0  0  0  0
   22.2679  -21.1788  -11.2274 C   0  0  1  0  0  0  0  0  0  0  0  0
   20.9073  -20.9390  -11.5350 C   0  0  0  0  0  0  0  0  0  0  0  0
   20.4631  -20.9533  -12.9411 C   0  0  0  0  0  0  0  0  0  0  0  0
   18.9940  -20.6448  -13.1491 C   0  0  0  0  0  0  0  0  0  0  0  0
   18.5933  -20.7030  -14.5614 O   0  0  0  0  0  0  0  0  0  0  0  0
   17.7859  -21.6001  -14.9272 C   0  0  0  0  0  0  0  0  0  0  0  0
   19.9392  -21.6421  -10.6156 O   0  0  0  0  0  0  0  0  0  0  0  0
   18.6618  -21.1601  -10.3979 O   0  0  0  0  0  0  0  0  0  0  0  0
   19.1226  -19.7638  -15.4448 O   0  0  0  0  0  0  0  0  0  0  0  0
  2  1  1  0
  2  4  1  0
  3  2  2  0
  5  6  1  0
  5  4  1  0
  7  8  1  0
  7  6  1  0
  8  9  1  6
 10  8  1  0
 10 11  2  0
 12 10  1  0
 13 16  1  0
 13 12  1  0
 13 14  1  1
 15 14  1  0
 16 18  1  0
 17 16  2  0
 18 19  1  0
 19 24  1  0
 19 20  1  1
 21 20  1  0
 22 26  1  0
 22 21  1  0
 23 22  2  0
 24 27  2  0
 24 25  1  0
M  END
$$$$
