RCE.pdb
     RDKit          3D

 27 26  0  0  1  0  0  0  0  0999 V2000
   25.4194  -21.4315  -19.6471 N   0  0  0  0  0  0  0  0  0  0  0  0
   24.5902  -20.4057  -19.1266 C   0  0  0  0  0  0  0  0  0  0  0  0
   23.3239  -20.4272  -19.2786 N   0  0  0  0  0  0  0  0  0  0  0  0
   25.1784  -19.3131  -18.4090 N   0  0  0  0  0  0  0  0  0  0  0  0
   26.5860  -19.2684  -18.0899 C   0  0  0  0  0  0  0  0  0  0  0  0
   26.8683  -20.5334  -17.2549 C   0  0  0  0  0  0  0  0  0  0  0  0
   27.2412  -20.1465  -15.8624 C   0  0  0  0  0  0  0  0  0  0  0  0
   27.5488  -21.3568  -15.0273 C   0  0  2  0  0  0  0  0  0  0  0  0
   27.7217  -22.5114  -15.9498 N   0  0  0  0  0  0  0  0  0  0  0  0
   26.4513  -21.6827  -14.0736 C   0  0  0  0  0  0  0  0  0  0  0  0
   25.4787  -22.3262  -14.5355 O   0  0  0  0  0  0  0  0  0  0  0  0
   22.7038  -19.6937  -18.8794 N   0  0  0  0  0  0  0  0  0  0  0  0
   26.4642  -21.3093  -12.7066 C   0  0  2  0  0  0  0  0  0  0  0  0
   25.3451  -21.1390  -11.8341 C   0  0  0  0  0  0  0  0  0  0  0  0
   25.7053  -20.8996  -10.4168 S   0  0  0  0  0  0  0  0  0  0  0  0
   24.3445  -21.1415   -9.2463 C   0  0  0  0  0  0  0  0  0  0  0  0
   24.1858  -20.4177  -12.3743 O   0  0  0  0  0  0  0  0  0  0  0  0
   24.2333  -19.6038  -13.3534 N   0  0  0  0  0  0  0  0  0  0  0  0
   22.8499  -20.5704  -11.8394 C   0  0  1  0  0  0  0  0  0  0  0  0
   21.6702  -20.5663  -12.6215 C   0  0  0  0  0  0  0  0  0  0  0  0
   21.6634  -21.2343  -13.9362 C   0  0  0  0  0  0  0  0  0  0  0  0
   20.4494  -20.9408  -14.7945 C   0  0  0  0  0  0  0  0  0  0  0  0
   20.1701  -22.0034  -15.7700 O   0  0  0  0  0  0  0  0  0  0  0  0
   20.8824  -23.0441  -15.7551 C   0  0  0  0  0  0  0  0  0  0  0  0
   20.4119  -20.8310  -11.8319 O   0  0  0  0  0  0  0  0  0  0  0  0
   19.1568  -20.6048  -12.3659 O   0  0  0  0  0  0  0  0  0  0  0  0
   19.1278  -21.8199  -16.6769 O   0  0  0  0  0  0  0  0  0  0  0  0
  2  1  1  0
  2  4  1  0
  3  2  2  0
  5  6  1  0
  5  4  1  0
  7  8  1  0
  7  6  1  0
  8  9  1  6
 10  8  1  0
 10 11  2  0
 12 10  1  0
 13 16  1  0
 13 12  1  0
 13 14  1  1
 15 14  1  0
 16 18  1  0
 17 16  2  0
 18 19  1  0
 19 24  1  0
 19 20  1  6
 21 20  1  0
 22 26  1  0
 22 21  1  0
 23 22  2  0
 24 27  2  0
 24 25  1  0
M  END
$$$$
