RCE.pdb
     RDKit          3D

 27 26  0  0  1  0  0  0  0  0999 V2000
   12.9012  -20.7252   -5.4369 N   0  0  0  0  0  0  0  0  0  0  0  0
   13.2379  -21.6727   -6.4366 C   0  0  0  0  0  0  0  0  0  0  0  0
   12.9411  -21.4857   -7.6630 N   0  0  0  0  0  0  0  0  0  0  0  0
   13.9302  -22.8738   -6.0720 N   0  0  0  0  0  0  0  0  0  0  0  0
   14.4272  -23.1022   -4.7355 C   0  0  0  0  0  0  0  0  0  0  0  0
   14.9588  -24.5494   -4.7261 C   0  0  0  0  0  0  0  0  0  0  0  0
   16.3561  -24.5776   -5.2502 C   0  0  0  0  0  0  0  0  0  0  0  0
   16.8869  -25.9819   -5.3035 C   0  0  2  0  0  0  0  0  0  0  0  0
   15.9274  -26.7991   -6.0942 N   0  0  0  0  0  0  0  0  0  0  0  0
   17.0144  -26.5927   -3.9503 C   0  0  0  0  0  0  0  0  0  0  0  0
   15.9449  -26.8741   -3.3583 O   0  0  0  0  0  0  0  0  0  0  0  0
   13.1002  -22.2121   -8.3903 N   0  0  0  0  0  0  0  0  0  0  0  0
   18.2577  -26.8637   -3.3265 C   0  0  2  0  0  0  0  0  0  0  0  0
   18.4872  -27.3251   -1.9935 C   0  0  0  0  0  0  0  0  0  0  0  0
   19.7896  -28.0039   -1.7970 S   0  0  0  0  0  0  0  0  0  0  0  0
   21.1495  -27.3138   -2.7742 C   0  0  0  0  0  0  0  0  0  0  0  0
   17.9878  -26.4786   -0.9027 O   0  0  0  0  0  0  0  0  0  0  0  0
   17.9506  -25.2055   -0.9351 N   0  0  0  0  0  0  0  0  0  0  0  0
   17.4735  -27.0209    0.3365 C   0  0  1  0  0  0  0  0  0  0  0  0
   16.9245  -26.2420    1.3832 C   0  0  0  0  0  0  0  0  0  0  0  0
   16.0416  -25.1053    1.0618 C   0  0  0  0  0  0  0  0  0  0  0  0
   15.5629  -24.3109    2.2602 C   0  0  0  0  0  0  0  0  0  0  0  0
   14.6293  -23.2363    1.8962 O   0  0  0  0  0  0  0  0  0  0  0  0
   13.3899  -23.4580    1.9687 C   0  0  0  0  0  0  0  0  0  0  0  0
   16.4196  -27.0544    2.5501 O   0  0  0  0  0  0  0  0  0  0  0  0
   16.3885  -28.4362    2.5155 O   0  0  0  0  0  0  0  0  0  0  0  0
   15.1499  -22.0113    1.4828 O   0  0  0  0  0  0  0  0  0  0  0  0
  2  1  1  0
  2  4  1  0
  3  2  2  0
  5  6  1  0
  5  4  1  0
  7  8  1  0
  7  6  1  0
  8  9  1  6
 10  8  1  0
 10 11  2  0
 12 10  1  0
 13 16  1  0
 13 12  1  0
 13 14  1  6
 15 14  1  0
 16 18  1  0
 17 16  2  0
 18 19  1  0
 19 24  1  0
 19 20  1  1
 21 20  1  0
 22 26  1  0
 22 21  1  0
 23 22  2  0
 24 27  2  0
 24 25  1  0
M  END
$$$$
