RCE.pdb
     RDKit          3D

 27 26  0  0  1  0  0  0  0  0999 V2000
   18.9939  -24.1540   -7.7534 N   0  0  0  0  0  0  0  0  0  0  0  0
   18.1732  -24.9217   -8.6182 C   0  0  0  0  0  0  0  0  0  0  0  0
   17.1590  -25.5624   -8.1844 N   0  0  0  0  0  0  0  0  0  0  0  0
   18.4805  -24.9858  -10.0169 N   0  0  0  0  0  0  0  0  0  0  0  0
   19.4372  -24.1002  -10.6378 C   0  0  0  0  0  0  0  0  0  0  0  0
   18.6587  -23.3387  -11.7293 C   0  0  0  0  0  0  0  0  0  0  0  0
   19.6024  -22.5150  -12.5410 C   0  0  0  0  0  0  0  0  0  0  0  0
   20.5980  -21.8097  -11.6646 C   0  0  2  0  0  0  0  0  0  0  0  0
   19.9049  -20.6568  -11.0287 N   0  0  0  0  0  0  0  0  0  0  0  0
   21.7620  -21.2868  -12.4341 C   0  0  0  0  0  0  0  0  0  0  0  0
   21.6525  -20.1268  -12.8987 O   0  0  0  0  0  0  0  0  0  0  0  0
   16.5587  -26.1402   -8.8070 N   0  0  0  0  0  0  0  0  0  0  0  0
   22.9526  -22.0238  -12.6518 C   0  0  2  0  0  0  0  0  0  0  0  0
   24.0721  -21.6607  -13.4626 C   0  0  0  0  0  0  0  0  0  0  0  0
   25.3398  -22.3319  -13.0909 S   0  0  0  0  0  0  0  0  0  0  0  0
   26.7313  -21.9686  -14.1920 C   0  0  0  0  0  0  0  0  0  0  0  0
   23.8128  -21.4355  -14.8902 O   0  0  0  0  0  0  0  0  0  0  0  0
   23.0179  -22.1347  -15.5992 N   0  0  0  0  0  0  0  0  0  0  0  0
   24.4432  -20.3720  -15.6423 C   0  0  1  0  0  0  0  0  0  0  0  0
   23.7957  -19.6073  -16.6419 C   0  0  0  0  0  0  0  0  0  0  0  0
   22.4394  -19.0829  -16.3963 C   0  0  0  0  0  0  0  0  0  0  0  0
   21.8124  -18.3604  -17.5716 C   0  0  0  0  0  0  0  0  0  0  0  0
   20.4936  -17.7950  -17.2559 O   0  0  0  0  0  0  0  0  0  0  0  0
   19.7049  -18.4609  -16.5313 C   0  0  0  0  0  0  0  0  0  0  0  0
   24.6922  -18.5985  -17.3169 O   0  0  0  0  0  0  0  0  0  0  0  0
   24.3170  -17.9569  -18.4828 O   0  0  0  0  0  0  0  0  0  0  0  0
   20.1633  -16.5429  -17.7712 O   0  0  0  0  0  0  0  0  0  0  0  0
  2  1  1  0
  2  4  1  0
  3  2  2  0
  5  6  1  0
  5  4  1  0
  7  8  1  0
  7  6  1  0
  8  9  1  6
 10  8  1  0
 10 11  2  0
 12 10  1  0
 13 16  1  0
 13 12  1  0
 13 14  1  1
 15 14  1  0
 16 18  1  0
 17 16  2  0
 18 19  1  0
 19 24  1  0
 19 20  1  6
 21 20  1  0
 22 26  1  0
 22 21  1  0
 23 22  2  0
 24 27  2  0
 24 25  1  0
M  END
$$$$
