RCE.pdb
     RDKit          3D

 27 26  0  0  1  0  0  0  0  0999 V2000
   24.7852  -17.9267  -17.7681 N   0  0  0  0  0  0  0  0  0  0  0  0
   25.7501  -16.8925  -17.8690 C   0  0  0  0  0  0  0  0  0  0  0  0
   25.4163  -15.6886  -18.1263 N   0  0  0  0  0  0  0  0  0  0  0  0
   27.1381  -17.1955  -17.6778 N   0  0  0  0  0  0  0  0  0  0  0  0
   27.5974  -18.5184  -17.3255 C   0  0  0  0  0  0  0  0  0  0  0  0
   26.8254  -18.9054  -16.0483 C   0  0  0  0  0  0  0  0  0  0  0  0
   27.7579  -18.9326  -14.8832 C   0  0  0  0  0  0  0  0  0  0  0  0
   28.0323  -20.3419  -14.4412 C   0  0  2  0  0  0  0  0  0  0  0  0
   28.2151  -21.1721  -15.6624 N   0  0  0  0  0  0  0  0  0  0  0  0
   26.9087  -20.9180  -13.6500 C   0  0  0  0  0  0  0  0  0  0  0  0
   26.0386  -21.5542  -14.2916 O   0  0  0  0  0  0  0  0  0  0  0  0
   26.1176  -14.9272  -18.2289 N   0  0  0  0  0  0  0  0  0  0  0  0
   26.7899  -20.7833  -12.2443 C   0  0  2  0  0  0  0  0  0  0  0  0
   25.6124  -20.9248  -11.4468 C   0  0  0  0  0  0  0  0  0  0  0  0
   25.8106  -20.6364  -10.0069 S   0  0  0  0  0  0  0  0  0  0  0  0
   24.4728  -21.2199   -8.9345 C   0  0  0  0  0  0  0  0  0  0  0  0
   24.3432  -20.5094  -12.0571 O   0  0  0  0  0  0  0  0  0  0  0  0
   24.2171  -19.5379  -12.8717 N   0  0  0  0  0  0  0  0  0  0  0  0
   23.0896  -21.1817  -11.7915 C   0  0  1  0  0  0  0  0  0  0  0  0
   21.8702  -20.8879  -12.4471 C   0  0  0  0  0  0  0  0  0  0  0  0
   21.6994  -21.2473  -13.8671 C   0  0  0  0  0  0  0  0  0  0  0  0
   22.2165  -20.2183  -14.8522 C   0  0  0  0  0  0  0  0  0  0  0  0
   21.9105  -20.5606  -16.2478 O   0  0  0  0  0  0  0  0  0  0  0  0
   21.2732  -21.6223  -16.4871 C   0  0  0  0  0  0  0  0  0  0  0  0
   20.6436  -21.1913  -11.6223 O   0  0  0  0  0  0  0  0  0  0  0  0
   19.3706  -20.9032  -12.0783 O   0  0  0  0  0  0  0  0  0  0  0  0
   22.3380  -19.6982  -17.2558 O   0  0  0  0  0  0  0  0  0  0  0  0
  2  1  1  0
  2  4  1  0
  3  2  2  0
  5  6  1  0
  5  4  1  0
  7  8  1  0
  7  6  1  0
  8  9  1  6
 10  8  1  0
 10 11  2  0
 12 10  1  0
 13 16  1  0
 13 12  1  0
 13 14  1  1
 15 14  1  0
 16 18  1  0
 17 16  2  0
 18 19  1  0
 19 24  1  0
 19 20  1  1
 21 20  1  0
 22 26  1  0
 22 21  1  0
 23 22  2  0
 24 27  2  0
 24 25  1  0
M  END
$$$$
