RCE.pdb
     RDKit          3D

 27 26  0  0  1  0  0  0  0  0999 V2000
   20.2617  -22.7417   -6.5866 N   0  0  0  0  0  0  0  0  0  0  0  0
   20.4635  -22.2592   -7.9046 C   0  0  0  0  0  0  0  0  0  0  0  0
   19.9124  -22.8143   -8.9122 N   0  0  0  0  0  0  0  0  0  0  0  0
   21.3048  -21.1192   -8.1222 N   0  0  0  0  0  0  0  0  0  0  0  0
   22.2874  -21.0762   -9.1795 C   0  0  0  0  0  0  0  0  0  0  0  0
   23.5894  -21.6295   -8.5664 C   0  0  0  0  0  0  0  0  0  0  0  0
   24.7589  -20.8626   -9.0880 C   0  0  0  0  0  0  0  0  0  0  0  0
   24.7599  -20.8304  -10.5899 C   0  0  2  0  0  0  0  0  0  0  0  0
   24.5097  -22.2153  -11.0727 N   0  0  0  0  0  0  0  0  0  0  0  0
   26.0633  -20.3711  -11.1473 C   0  0  0  0  0  0  0  0  0  0  0  0
   26.4744  -19.2500  -10.7632 O   0  0  0  0  0  0  0  0  0  0  0  0
   20.1519  -22.5538   -9.8903 N   0  0  0  0  0  0  0  0  0  0  0  0
   26.8351  -21.1291  -12.0627 C   0  0  1  0  0  0  0  0  0  0  0  0
   27.7301  -20.6445  -13.0661 C   0  0  0  0  0  0  0  0  0  0  0  0
   29.1494  -21.0099  -12.8477 S   0  0  0  0  0  0  0  0  0  0  0  0
   29.7724  -20.6384  -11.1881 C   0  0  0  0  0  0  0  0  0  0  0  0
   27.2340  -20.6315  -14.4480 O   0  0  0  0  0  0  0  0  0  0  0  0
   26.6891  -21.6256  -15.0294 N   0  0  0  0  0  0  0  0  0  0  0  0
   27.3123  -19.4622  -15.2969 C   0  0  1  0  0  0  0  0  0  0  0  0
   26.9344  -19.4377  -16.6608 C   0  0  0  0  0  0  0  0  0  0  0  0
   25.5578  -19.0596  -17.0305 C   0  0  0  0  0  0  0  0  0  0  0  0
   24.5388  -19.1931  -15.9168 C   0  0  0  0  0  0  0  0  0  0  0  0
   23.1808  -18.8237  -16.3389 O   0  0  0  0  0  0  0  0  0  0  0  0
   22.5737  -19.5708  -17.1537 C   0  0  0  0  0  0  0  0  0  0  0  0
   27.9677  -18.8204  -17.5708 O   0  0  0  0  0  0  0  0  0  0  0  0
   27.9356  -19.0071  -18.9403 O   0  0  0  0  0  0  0  0  0  0  0  0
   22.6148  -17.6593  -15.8229 O   0  0  0  0  0  0  0  0  0  0  0  0
  2  1  1  0
  2  4  1  0
  3  2  2  0
  5  6  1  0
  5  4  1  0
  7  8  1  0
  7  6  1  0
  8  9  1  6
 10  8  1  0
 10 11  2  0
 12 10  1  0
 13 16  1  0
 13 12  1  0
 13 14  1  1
 15 14  1  0
 16 18  1  0
 17 16  2  0
 18 19  1  0
 19 24  1  0
 19 20  1  6
 21 20  1  0
 22 26  1  0
 22 21  1  0
 23 22  2  0
 24 27  2  0
 24 25  1  0
M  END
$$$$
