RCE.pdb
     RDKit          3D

 27 26  0  0  1  0  0  0  0  0999 V2000
   18.9714  -24.8940   -8.7439 N   0  0  0  0  0  0  0  0  0  0  0  0
   17.5878  -24.8288   -9.0473 C   0  0  0  0  0  0  0  0  0  0  0  0
   16.7069  -25.3126   -8.2617 N   0  0  0  0  0  0  0  0  0  0  0  0
   17.1564  -24.2048  -10.2636 N   0  0  0  0  0  0  0  0  0  0  0  0
   17.9841  -24.1657  -11.4462 C   0  0  0  0  0  0  0  0  0  0  0  0
   19.3318  -23.5667  -10.9966 C   0  0  0  0  0  0  0  0  0  0  0  0
   19.6094  -22.3162  -11.7628 C   0  0  0  0  0  0  0  0  0  0  0  0
   20.0468  -22.6260  -13.1662 C   0  0  2  0  0  0  0  0  0  0  0  0
   21.1481  -23.6234  -13.0875 N   0  0  0  0  0  0  0  0  0  0  0  0
   20.5584  -21.4225  -13.8804 C   0  0  0  0  0  0  0  0  0  0  0  0
   19.7698  -20.4524  -13.9820 O   0  0  0  0  0  0  0  0  0  0  0  0
   15.6912  -25.2903   -8.4846 N   0  0  0  0  0  0  0  0  0  0  0  0
   21.8619  -21.3317  -14.4290 C   0  0  1  0  0  0  0  0  0  0  0  0
   22.4034  -20.2809  -15.2322 C   0  0  0  0  0  0  0  0  0  0  0  0
   23.8733  -20.3417  -15.4093 S   0  0  0  0  0  0  0  0  0  0  0  0
   24.6558  -18.7415  -15.7372 C   0  0  0  0  0  0  0  0  0  0  0  0
   21.5966  -19.8361  -16.3756 O   0  0  0  0  0  0  0  0  0  0  0  0
   20.7582  -20.5675  -16.9964 N   0  0  0  0  0  0  0  0  0  0  0  0
   21.6734  -18.4949  -16.9135 C   0  0  1  0  0  0  0  0  0  0  0  0
   20.5827  -17.5951  -16.9766 C   0  0  0  0  0  0  0  0  0  0  0  0
   19.4034  -17.8157  -16.1191 C   0  0  0  0  0  0  0  0  0  0  0  0
   18.2067  -18.4220  -16.8240 C   0  0  0  0  0  0  0  0  0  0  0  0
   17.0434  -18.5791  -15.9403 O   0  0  0  0  0  0  0  0  0  0  0  0
   16.4452  -17.5458  -15.5342 C   0  0  0  0  0  0  0  0  0  0  0  0
   20.9900  -16.1434  -17.0372 O   0  0  0  0  0  0  0  0  0  0  0  0
   20.7537  -15.3676  -18.1570 O   0  0  0  0  0  0  0  0  0  0  0  0
   16.6456  -19.8661  -15.5828 O   0  0  0  0  0  0  0  0  0  0  0  0
  2  1  1  0
  2  4  1  0
  3  2  2  0
  5  6  1  0
  5  4  1  0
  7  8  1  0
  7  6  1  0
  8  9  1  1
 10  8  1  0
 10 11  2  0
 12 10  1  0
 13 16  1  0
 13 12  1  0
 13 14  1  6
 15 14  1  0
 16 18  1  0
 17 16  2  0
 18 19  1  0
 19 24  1  0
 19 20  1  6
 21 20  1  0
 22 26  1  0
 22 21  1  0
 23 22  2  0
 24 27  2  0
 24 25  1  0
M  END
$$$$
