RCE.pdb
     RDKit          3D

 27 26  0  0  1  0  0  0  0  0999 V2000
   28.6421  -20.8308  -14.2084 N   0  0  0  0  0  0  0  0  0  0  0  0
   28.6735  -21.1017  -15.5999 C   0  0  0  0  0  0  0  0  0  0  0  0
   29.1875  -22.1741  -16.0615 N   0  0  0  0  0  0  0  0  0  0  0  0
   28.1156  -20.1549  -16.5202 N   0  0  0  0  0  0  0  0  0  0  0  0
   27.3912  -18.9859  -16.0799 C   0  0  0  0  0  0  0  0  0  0  0  0
   26.0660  -18.9907  -16.8679 C   0  0  0  0  0  0  0  0  0  0  0  0
   24.9280  -19.2609  -15.9406 C   0  0  0  0  0  0  0  0  0  0  0  0
   24.9775  -20.6682  -15.4172 C   0  0  2  0  0  0  0  0  0  0  0  0
   24.6139  -21.5801  -16.5353 N   0  0  0  0  0  0  0  0  0  0  0  0
   24.0162  -20.8932  -14.3011 C   0  0  0  0  0  0  0  0  0  0  0  0
   22.8952  -21.3624  -14.6116 O   0  0  0  0  0  0  0  0  0  0  0  0
   29.3120  -22.3365  -17.0813 N   0  0  0  0  0  0  0  0  0  0  0  0
   24.3108  -20.6105  -12.9440 C   0  0  1  0  0  0  0  0  0  0  0  0
   23.4266  -20.6770  -11.8232 C   0  0  0  0  0  0  0  0  0  0  0  0
   24.1075  -20.6947  -10.5072 S   0  0  0  0  0  0  0  0  0  0  0  0
   23.0026  -20.9494   -9.0948 C   0  0  0  0  0  0  0  0  0  0  0  0
   22.1645  -19.9341  -11.9281 O   0  0  0  0  0  0  0  0  0  0  0  0
   22.0664  -18.7299  -12.3326 N   0  0  0  0  0  0  0  0  0  0  0  0
   20.8842  -20.5126  -11.5811 C   0  0  1  0  0  0  0  0  0  0  0  0
   19.6498  -20.1248  -12.1550 C   0  0  0  0  0  0  0  0  0  0  0  0
   19.5590  -19.9011  -13.6098 C   0  0  0  0  0  0  0  0  0  0  0  0
   18.2234  -19.3714  -14.0915 C   0  0  0  0  0  0  0  0  0  0  0  0
   18.1657  -19.2125  -15.5510 O   0  0  0  0  0  0  0  0  0  0  0  0
   19.1596  -19.5690  -16.2406 C   0  0  0  0  0  0  0  0  0  0  0  0
   18.4594  -20.8751  -11.6100 O   0  0  0  0  0  0  0  0  0  0  0  0
   17.2684  -20.2366  -11.3178 O   0  0  0  0  0  0  0  0  0  0  0  0
   17.0134  -18.6717  -16.1186 O   0  0  0  0  0  0  0  0  0  0  0  0
  2  1  1  0
  2  4  1  0
  3  2  2  0
  5  6  1  0
  5  4  1  0
  7  8  1  0
  7  6  1  0
  8  9  1  6
 10  8  1  0
 10 11  2  0
 12 10  1  0
 13 16  1  0
 13 12  1  0
 13 14  1  6
 15 14  1  0
 16 18  1  0
 17 16  2  0
 18 19  1  0
 19 24  1  0
 19 20  1  1
 21 20  1  0
 22 26  1  0
 22 21  1  0
 23 22  2  0
 24 27  2  0
 24 25  1  0
M  END
$$$$
