RCE.pdb
     RDKit          3D

 27 26  0  0  1  0  0  0  0  0999 V2000
   25.0599  -19.0696  -19.7970 N   0  0  0  0  0  0  0  0  0  0  0  0
   25.1900  -17.9292  -20.6296 C   0  0  0  0  0  0  0  0  0  0  0  0
   25.5554  -18.0280  -21.8477 N   0  0  0  0  0  0  0  0  0  0  0  0
   24.9055  -16.6277  -20.1004 N   0  0  0  0  0  0  0  0  0  0  0  0
   24.3943  -16.4334  -18.7639 C   0  0  0  0  0  0  0  0  0  0  0  0
   22.8798  -16.1932  -18.9236 C   0  0  0  0  0  0  0  0  0  0  0  0
   22.4837  -14.9580  -18.1852 C   0  0  0  0  0  0  0  0  0  0  0  0
   22.8222  -15.0668  -16.7256 C   0  0  2  0  0  0  0  0  0  0  0  0
   21.9110  -16.0774  -16.1236 N   0  0  0  0  0  0  0  0  0  0  0  0
   22.6330  -13.7786  -16.0011 C   0  0  0  0  0  0  0  0  0  0  0  0
   21.4851  -13.5521  -15.5488 O   0  0  0  0  0  0  0  0  0  0  0  0
   25.7324  -17.1945  -22.4442 N   0  0  0  0  0  0  0  0  0  0  0  0
   23.6676  -12.8301  -15.8052 C   0  0  2  0  0  0  0  0  0  0  0  0
   23.5722  -11.5438  -15.1898 C   0  0  0  0  0  0  0  0  0  0  0  0
   24.7915  -11.1226  -14.4608 S   0  0  0  0  0  0  0  0  0  0  0  0
   26.2943  -11.0870  -15.4712 C   0  0  0  0  0  0  0  0  0  0  0  0
   22.8233  -10.5127  -15.9192 O   0  0  0  0  0  0  0  0  0  0  0  0
   22.8373  -10.3691  -17.1851 N   0  0  0  0  0  0  0  0  0  0  0  0
   21.9751   -9.5453  -15.2568 C   0  0  1  0  0  0  0  0  0  0  0  0
   21.2696   -8.5134  -15.9208 C   0  0  0  0  0  0  0  0  0  0  0  0
   19.7964   -8.5523  -15.9728 C   0  0  0  0  0  0  0  0  0  0  0  0
   19.1580   -7.4541  -16.7992 C   0  0  0  0  0  0  0  0  0  0  0  0
   17.6901   -7.5164  -16.7941 O   0  0  0  0  0  0  0  0  0  0  0  0
   17.0387   -6.4690  -16.5314 C   0  0  0  0  0  0  0  0  0  0  0  0
   21.8019   -7.1297  -15.6397 O   0  0  0  0  0  0  0  0  0  0  0  0
   21.8883   -6.1684  -16.6297 O   0  0  0  0  0  0  0  0  0  0  0  0
   17.0725   -8.7329  -17.0790 O   0  0  0  0  0  0  0  0  0  0  0  0
  2  1  1  0
  2  4  1  0
  3  2  2  0
  5  6  1  0
  5  4  1  0
  7  8  1  0
  7  6  1  0
  8  9  1  1
 10  8  1  0
 10 11  2  0
 12 10  1  0
 13 16  1  0
 13 12  1  0
 13 14  1  1
 15 14  1  0
 16 18  1  0
 17 16  2  0
 18 19  1  0
 19 24  1  0
 19 20  1  6
 21 20  1  0
 22 26  1  0
 22 21  1  0
 23 22  2  0
 24 27  2  0
 24 25  1  0
M  END
$$$$
