RCE.pdb
     RDKit          3D

 27 26  0  0  1  0  0  0  0  0999 V2000
   28.6472  -29.6433  -17.3543 N   0  0  0  0  0  0  0  0  0  0  0  0
   27.4646  -29.6918  -16.5735 C   0  0  0  0  0  0  0  0  0  0  0  0
   27.0624  -30.7757  -16.0345 N   0  0  0  0  0  0  0  0  0  0  0  0
   26.6943  -28.4990  -16.3770 N   0  0  0  0  0  0  0  0  0  0  0  0
   26.6724  -27.4268  -17.3441 C   0  0  0  0  0  0  0  0  0  0  0  0
   27.8642  -26.5156  -16.9888 C   0  0  0  0  0  0  0  0  0  0  0  0
   27.4256  -25.4628  -16.0259 C   0  0  0  0  0  0  0  0  0  0  0  0
   26.5663  -24.4331  -16.7028 C   0  0  2  0  0  0  0  0  0  0  0  0
   27.4265  -23.2598  -17.0149 N   0  0  0  0  0  0  0  0  0  0  0  0
   25.4447  -23.9714  -15.8372 C   0  0  0  0  0  0  0  0  0  0  0  0
   25.7577  -23.4879  -14.7229 O   0  0  0  0  0  0  0  0  0  0  0  0
   26.1763  -30.8316  -15.4927 N   0  0  0  0  0  0  0  0  0  0  0  0
   24.0806  -24.0506  -16.2131 C   0  0  1  0  0  0  0  0  0  0  0  0
   22.9353  -23.6962  -15.4353 C   0  0  0  0  0  0  0  0  0  0  0  0
   22.4172  -22.3326  -15.6958 S   0  0  0  0  0  0  0  0  0  0  0  0
   21.2028  -21.7482  -14.4857 C   0  0  0  0  0  0  0  0  0  0  0  0
   21.9568  -24.7588  -15.1720 O   0  0  0  0  0  0  0  0  0  0  0  0
   21.1866  -25.2658  -16.0512 N   0  0  0  0  0  0  0  0  0  0  0  0
   21.7744  -25.3484  -13.8631 C   0  0  2  0  0  0  0  0  0  0  0  0
   20.7526  -26.2722  -13.5377 C   0  0  0  0  0  0  0  0  0  0  0  0
   20.5231  -26.6409  -12.1284 C   0  0  0  0  0  0  0  0  0  0  0  0
   19.4846  -27.7233  -11.9133 C   0  0  0  0  0  0  0  0  0  0  0  0
   19.3345  -28.0971  -10.5003 O   0  0  0  0  0  0  0  0  0  0  0  0
   18.2895  -27.7471   -9.8871 C   0  0  0  0  0  0  0  0  0  0  0  0
   19.4659  -26.0529  -14.2948 O   0  0  0  0  0  0  0  0  0  0  0  0
   18.9039  -27.0447  -15.0771 O   0  0  0  0  0  0  0  0  0  0  0  0
   20.3550  -28.8243   -9.8902 O   0  0  0  0  0  0  0  0  0  0  0  0
  2  1  1  0
  2  4  1  0
  3  2  2  0
  5  6  1  0
  5  4  1  0
  7  8  1  0
  7  6  1  0
  8  9  1  1
 10  8  1  0
 10 11  2  0
 12 10  1  0
 13 16  1  0
 13 12  1  0
 13 14  1  6
 15 14  1  0
 16 18  1  0
 17 16  2  0
 18 19  1  0
 19 24  1  0
 19 20  1  1
 21 20  1  0
 22 26  1  0
 22 21  1  0
 23 22  2  0
 24 27  2  0
 24 25  1  0
M  END
$$$$
