RCE.pdb
     RDKit          3D

 27 26  0  0  1  0  0  0  0  0999 V2000
   21.1474  -16.9176  -21.1968 N   0  0  0  0  0  0  0  0  0  0  0  0
   20.4291  -15.7413  -21.5298 C   0  0  0  0  0  0  0  0  0  0  0  0
   19.7917  -15.6352  -22.6297 N   0  0  0  0  0  0  0  0  0  0  0  0
   20.4108  -14.6378  -20.6151 N   0  0  0  0  0  0  0  0  0  0  0  0
   20.9914  -14.7201  -19.2955 C   0  0  0  0  0  0  0  0  0  0  0  0
   20.7443  -13.3462  -18.6409 C   0  0  0  0  0  0  0  0  0  0  0  0
   22.0230  -12.5788  -18.5794 C   0  0  0  0  0  0  0  0  0  0  0  0
   22.3351  -12.1572  -17.1717 C   0  0  2  0  0  0  0  0  0  0  0  0
   21.6452  -13.1021  -16.2524 N   0  0  0  0  0  0  0  0  0  0  0  0
   21.8532  -10.7795  -16.8713 C   0  0  0  0  0  0  0  0  0  0  0  0
   22.3697   -9.8473  -17.5328 O   0  0  0  0  0  0  0  0  0  0  0  0
   19.2198  -14.7980  -22.8620 N   0  0  0  0  0  0  0  0  0  0  0  0
   20.8621  -10.4900  -15.9006 C   0  0  1  0  0  0  0  0  0  0  0  0
   20.2626   -9.2256  -15.6105 C   0  0  0  0  0  0  0  0  0  0  0  0
   18.8486   -9.3048  -15.1745 S   0  0  0  0  0  0  0  0  0  0  0  0
   18.2384  -10.9898  -14.9118 C   0  0  0  0  0  0  0  0  0  0  0  0
   21.1173   -8.2161  -14.9731 O   0  0  0  0  0  0  0  0  0  0  0  0
   21.8689   -8.4361  -13.9682 N   0  0  0  0  0  0  0  0  0  0  0  0
   21.1942   -6.8482  -15.4390 C   0  0  1  0  0  0  0  0  0  0  0  0
   22.0886   -5.8782  -14.9267 C   0  0  0  0  0  0  0  0  0  0  0  0
   22.4347   -4.7003  -15.7436 C   0  0  0  0  0  0  0  0  0  0  0  0
   22.1054   -3.3644  -15.1084 C   0  0  0  0  0  0  0  0  0  0  0  0
   22.0565   -2.2659  -16.0830 O   0  0  0  0  0  0  0  0  0  0  0  0
   22.3543   -2.5065  -17.2846 C   0  0  0  0  0  0  0  0  0  0  0  0
   21.8465   -5.5270  -13.4792 O   0  0  0  0  0  0  0  0  0  0  0  0
   22.8519   -5.0234  -12.6748 O   0  0  0  0  0  0  0  0  0  0  0  0
   21.6835   -0.9978  -15.6413 O   0  0  0  0  0  0  0  0  0  0  0  0
  2  1  1  0
  2  4  1  0
  3  2  2  0
  5  6  1  0
  5  4  1  0
  7  8  1  0
  7  6  1  0
  8  9  1  1
 10  8  1  0
 10 11  2  0
 12 10  1  0
 13 16  1  0
 13 12  1  0
 13 14  1  6
 15 14  1  0
 16 18  1  0
 17 16  2  0
 18 19  1  0
 19 24  1  0
 19 20  1  1
 21 20  1  0
 22 26  1  0
 22 21  1  0
 23 22  2  0
 24 27  2  0
 24 25  1  0
M  END
$$$$
