RCE.pdb
     RDKit          3D

 27 26  0  0  1  0  0  0  0  0999 V2000
   18.8553  -17.1524  -15.2575 N   0  0  0  0  0  0  0  0  0  0  0  0
   17.9225  -16.7044  -16.2270 C   0  0  0  0  0  0  0  0  0  0  0  0
   16.9419  -17.4309  -16.5980 N   0  0  0  0  0  0  0  0  0  0  0  0
   18.0746  -15.4040  -16.8106 N   0  0  0  0  0  0  0  0  0  0  0  0
   19.1729  -14.5300  -16.4716 C   0  0  0  0  0  0  0  0  0  0  0  0
   19.0214  -13.2927  -17.3791 C   0  0  0  0  0  0  0  0  0  0  0  0
   19.8879  -12.1872  -16.8744 C   0  0  0  0  0  0  0  0  0  0  0  0
   21.2930  -12.3217  -17.3886 C   0  0  2  0  0  0  0  0  0  0  0  0
   21.6704  -13.7585  -17.3044 N   0  0  0  0  0  0  0  0  0  0  0  0
   22.2701  -11.5354  -16.5840 C   0  0  0  0  0  0  0  0  0  0  0  0
   22.3104  -11.7798  -15.3543 O   0  0  0  0  0  0  0  0  0  0  0  0
   16.2781  -17.1313  -17.3407 N   0  0  0  0  0  0  0  0  0  0  0  0
   23.1319  -10.5555  -17.1365 C   0  0  1  0  0  0  0  0  0  0  0  0
   24.0421   -9.6983  -16.4442 C   0  0  0  0  0  0  0  0  0  0  0  0
   25.3878  -10.2804  -16.2301 S   0  0  0  0  0  0  0  0  0  0  0  0
   26.4378   -9.3421  -15.0910 C   0  0  0  0  0  0  0  0  0  0  0  0
   23.9594   -8.2629  -16.7421 O   0  0  0  0  0  0  0  0  0  0  0  0
   23.9752   -7.7664  -17.9154 N   0  0  0  0  0  0  0  0  0  0  0  0
   23.8431   -7.2546  -15.7106 C   0  0  1  0  0  0  0  0  0  0  0  0
   22.9717   -6.1411  -15.7757 C   0  0  0  0  0  0  0  0  0  0  0  0
   21.8069   -6.1771  -16.6794 C   0  0  0  0  0  0  0  0  0  0  0  0
   21.0546   -4.8674  -16.8028 C   0  0  0  0  0  0  0  0  0  0  0  0
   19.6276   -4.9965  -16.4774 O   0  0  0  0  0  0  0  0  0  0  0  0
   19.1607   -4.3259  -15.5168 C   0  0  0  0  0  0  0  0  0  0  0  0
   22.6413   -5.5434  -14.4302 O   0  0  0  0  0  0  0  0  0  0  0  0
   22.2121   -6.3241  -13.3729 O   0  0  0  0  0  0  0  0  0  0  0  0
   18.8435   -5.8574  -17.2432 O   0  0  0  0  0  0  0  0  0  0  0  0
  2  1  1  0
  2  4  1  0
  3  2  2  0
  5  6  1  0
  5  4  1  0
  7  8  1  0
  7  6  1  0
  8  9  1  1
 10  8  1  0
 10 11  2  0
 12 10  1  0
 13 16  1  0
 13 12  1  0
 13 14  1  1
 15 14  1  0
 16 18  1  0
 17 16  2  0
 18 19  1  0
 19 24  1  0
 19 20  1  6
 21 20  1  0
 22 26  1  0
 22 21  1  0
 23 22  2  0
 24 27  2  0
 24 25  1  0
M  END
$$$$
