HVG.pdb
     RDKit          3D

 22 22  0  0  1  0  0  0  0  0999 V2000
   23.8921  -19.0873  -16.7805 N   0  0  0  0  0  0  0  0  0  0  0  0
   23.7379  -18.7055  -15.4065 C   0  0  1  0  0  0  0  0  0  0  0  0
   22.2832  -18.6476  -15.0095 C   0  0  0  0  0  0  0  0  0  0  0  0
   21.6555  -17.5272  -15.7561 C   0  0  0  0  0  0  0  0  0  0  0  0
   22.1831  -16.2415  -15.8797 C   0  0  0  0  0  0  0  0  0  0  0  0
   21.3561  -15.4879  -16.6196 N   0  0  0  0  0  0  0  0  0  0  0  0
   20.3255  -16.2625  -16.9640 C   0  0  0  0  0  0  0  0  0  0  0  0
   20.4999  -17.5033  -16.4431 N   0  0  0  0  0  0  0  0  0  0  0  0
   24.5296  -19.6028  -14.5536 C   0  0  0  0  0  0  0  0  0  0  0  0
   24.2585  -20.8251  -14.5513 O   0  0  0  0  0  0  0  0  0  0  0  0
   28.1076  -20.2751  -14.4873 C   0  0  0  0  0  0  0  0  0  0  0  0
   27.7480  -19.8975  -13.0378 C   0  0  2  0  0  0  0  0  0  0  0  0
   28.6503  -20.6955  -12.1810 C   0  0  0  0  0  0  0  0  0  0  0  0
   26.2686  -20.1067  -12.8365 C   0  0  2  0  0  0  0  0  0  0  0  0
   25.5888  -19.1518  -13.7303 N   0  0  0  0  0  0  0  0  0  0  0  0
   25.8043  -19.9186  -11.4515 C   0  0  0  0  0  0  0  0  0  0  0  0
   25.9459  -18.7684  -10.9113 O   0  0  0  0  0  0  0  0  0  0  0  0
   25.2009  -20.9107  -10.6410 N   0  0  0  0  0  0  0  0  0  0  0  0
   24.9063  -20.6072   -9.2485 C   0  0  0  0  0  0  0  0  0  0  0  0
   23.7419  -21.3544   -8.7461 C   0  0  0  0  0  0  0  0  0  0  0  0
   23.0646  -22.0354   -9.5575 O   0  0  0  0  0  0  0  0  0  0  0  0
   23.3370  -21.3581   -7.4241 O   0  0  0  0  0  0  0  0  0  0  0  0
  2  1  1  6
  2  3  1  0
  3  4  1  0
  4  5  2  0
  4  8  1  0
  5  6  1  0
  6  7  1  0
  8  7  2  0
  9  2  1  0
  9 15  1  0
 10  9  2  0
 12 11  1  6
 12 14  1  0
 13 12  1  0
 14 15  1  6
 14 16  1  0
 16 18  1  0
 17 16  2  0
 18 19  1  0
 20 22  1  0
 20 19  1  0
 21 20  2  0
M  END
$$$$
