HVG.pdb
     RDKit          3D

 22 22  0  0  1  0  0  0  0  0999 V2000
   30.8606  -22.2426  -18.5353 N   0  0  0  0  0  0  0  0  0  0  0  0
   29.4883  -22.6370  -18.3996 C   0  0  1  0  0  0  0  0  0  0  0  0
   28.5927  -21.8458  -19.3212 C   0  0  0  0  0  0  0  0  0  0  0  0
   28.6708  -20.4198  -18.9124 C   0  0  0  0  0  0  0  0  0  0  0  0
   27.6816  -19.7216  -18.2193 C   0  0  0  0  0  0  0  0  0  0  0  0
   28.0841  -18.4581  -18.0171 N   0  0  0  0  0  0  0  0  0  0  0  0
   29.2964  -18.3428  -18.5627 C   0  0  0  0  0  0  0  0  0  0  0  0
   29.6601  -19.5306  -19.1089 N   0  0  0  0  0  0  0  0  0  0  0  0
   29.3710  -24.0889  -18.5934 C   0  0  0  0  0  0  0  0  0  0  0  0
   30.1712  -24.6588  -19.3694 O   0  0  0  0  0  0  0  0  0  0  0  0
   29.6804  -26.5671  -15.9566 C   0  0  0  0  0  0  0  0  0  0  0  0
   29.7398  -26.7948  -17.4790 C   0  0  2  0  0  0  0  0  0  0  0  0
   30.9580  -26.0961  -17.9406 C   0  0  0  0  0  0  0  0  0  0  0  0
   28.4350  -26.3457  -18.0862 C   0  0  2  0  0  0  0  0  0  0  0  0
   28.3934  -24.8792  -17.9432 N   0  0  0  0  0  0  0  0  0  0  0  0
   27.2354  -26.9455  -17.4775 C   0  0  0  0  0  0  0  0  0  0  0  0
   26.8033  -26.4616  -16.3758 O   0  0  0  0  0  0  0  0  0  0  0  0
   26.4957  -28.0308  -18.0069 N   0  0  0  0  0  0  0  0  0  0  0  0
   25.2985  -28.4800  -17.3120 C   0  0  0  0  0  0  0  0  0  0  0  0
   25.5556  -29.6423  -16.4464 C   0  0  0  0  0  0  0  0  0  0  0  0
   26.7402  -30.0380  -16.3014 O   0  0  0  0  0  0  0  0  0  0  0  0
   24.5689  -30.3382  -15.7725 O   0  0  0  0  0  0  0  0  0  0  0  0
  2  1  1  6
  2  3  1  0
  3  4  1  0
  4  5  2  0
  4  8  1  0
  5  6  1  0
  6  7  1  0
  8  7  2  0
  9  2  1  0
  9 15  1  0
 10  9  2  0
 12 11  1  1
 12 14  1  0
 13 12  1  0
 14 15  1  1
 14 16  1  0
 16 18  1  0
 17 16  2  0
 18 19  1  0
 20 22  1  0
 20 19  1  0
 21 20  2  0
M  END
$$$$
