HVG.pdb
     RDKit          3D

 22 22  0  0  1  0  0  0  0  0999 V2000
   28.5747  -21.4521  -16.0821 N   0  0  0  0  0  0  0  0  0  0  0  0
   27.6047  -20.4697  -15.6936 C   0  0  1  0  0  0  0  0  0  0  0  0
   26.9060  -19.8788  -16.8936 C   0  0  0  0  0  0  0  0  0  0  0  0
   27.8107  -18.8610  -17.4872 C   0  0  0  0  0  0  0  0  0  0  0  0
   27.5969  -17.4824  -17.4735 C   0  0  0  0  0  0  0  0  0  0  0  0
   28.6116  -16.8662  -18.0981 N   0  0  0  0  0  0  0  0  0  0  0  0
   29.4555  -17.8171  -18.5032 C   0  0  0  0  0  0  0  0  0  0  0  0
   28.9760  -19.0322  -18.1358 N   0  0  0  0  0  0  0  0  0  0  0  0
   26.6736  -21.0546  -14.7186 C   0  0  0  0  0  0  0  0  0  0  0  0
   26.2902  -22.2346  -14.8860 O   0  0  0  0  0  0  0  0  0  0  0  0
   27.2576  -21.1174  -11.1318 C   0  0  0  0  0  0  0  0  0  0  0  0
   25.7899  -20.6680  -11.2622 C   0  0  2  0  0  0  0  0  0  0  0  0
   25.0798  -21.2850  -10.1219 C   0  0  0  0  0  0  0  0  0  0  0  0
   25.2943  -21.0294  -12.6394 C   0  0  2  0  0  0  0  0  0  0  0  0
   26.1863  -20.3468  -13.5941 N   0  0  0  0  0  0  0  0  0  0  0  0
   23.8938  -20.6589  -12.9052 C   0  0  0  0  0  0  0  0  0  0  0  0
   23.5994  -19.4188  -13.0071 O   0  0  0  0  0  0  0  0  0  0  0  0
   22.8162  -21.5638  -13.0640 N   0  0  0  0  0  0  0  0  0  0  0  0
   21.4811  -21.0410  -13.3135 C   0  0  0  0  0  0  0  0  0  0  0  0
   20.6483  -21.0283  -12.0999 C   0  0  0  0  0  0  0  0  0  0  0  0
   21.1463  -21.4381  -11.0205 O   0  0  0  0  0  0  0  0  0  0  0  0
   19.3373  -20.5902  -12.0661 O   0  0  0  0  0  0  0  0  0  0  0  0
  2  1  1  6
  2  3  1  0
  3  4  1  0
  4  5  2  0
  4  8  1  0
  5  6  1  0
  6  7  1  0
  8  7  2  0
  9  2  1  0
  9 15  1  0
 10  9  2  0
 12 11  1  6
 12 14  1  0
 13 12  1  0
 14 15  1  6
 14 16  1  0
 16 18  1  0
 17 16  2  0
 18 19  1  0
 20 22  1  0
 20 19  1  0
 21 20  2  0
M  END
$$$$
