HVG.pdb
     RDKit          3D

 22 22  0  0  1  0  0  0  0  0999 V2000
   16.8552  -13.0587  -16.6534 N   0  0  0  0  0  0  0  0  0  0  0  0
   18.0689  -12.6758  -15.9921 C   0  0  1  0  0  0  0  0  0  0  0  0
   19.0940  -13.7824  -16.0352 C   0  0  0  0  0  0  0  0  0  0  0  0
   18.5371  -14.9431  -15.2940 C   0  0  0  0  0  0  0  0  0  0  0  0
   18.8003  -15.2523  -13.9593 C   0  0  0  0  0  0  0  0  0  0  0  0
   18.1331  -16.3648  -13.6179 N   0  0  0  0  0  0  0  0  0  0  0  0
   17.4591  -16.7626  -14.6986 C   0  0  0  0  0  0  0  0  0  0  0  0
   17.6993  -15.9039  -15.7215 N   0  0  0  0  0  0  0  0  0  0  0  0
   18.5633  -11.4139  -16.5603 C   0  0  0  0  0  0  0  0  0  0  0  0
   18.3567  -11.1783  -17.7724 O   0  0  0  0  0  0  0  0  0  0  0  0
   17.5967   -8.1379  -15.2633 C   0  0  0  0  0  0  0  0  0  0  0  0
   18.2297   -8.4617  -16.6298 C   0  0  2  0  0  0  0  0  0  0  0  0
   17.2143   -9.2446  -17.3656 C   0  0  0  0  0  0  0  0  0  0  0  0
   19.5602   -9.1322  -16.3995 C   0  0  2  0  0  0  0  0  0  0  0  0
   19.2648  -10.4468  -15.8018 N   0  0  0  0  0  0  0  0  0  0  0  0
   20.4849   -8.3812  -15.5333 C   0  0  0  0  0  0  0  0  0  0  0  0
   20.4549   -8.6001  -14.2739 O   0  0  0  0  0  0  0  0  0  0  0  0
   21.4273   -7.4186  -15.9698 N   0  0  0  0  0  0  0  0  0  0  0  0
   22.3111   -6.7973  -14.9947 C   0  0  0  0  0  0  0  0  0  0  0  0
   21.6595   -5.6936  -14.2708 C   0  0  0  0  0  0  0  0  0  0  0  0
   20.4767   -5.3896  -14.5696 O   0  0  0  0  0  0  0  0  0  0  0  0
   22.2687   -4.9584  -13.2707 O   0  0  0  0  0  0  0  0  0  0  0  0
  2  1  1  6
  2  3  1  0
  3  4  1  0
  4  5  2  0
  4  8  1  0
  5  6  1  0
  6  7  1  0
  8  7  2  0
  9  2  1  0
  9 15  1  0
 10  9  2  0
 12 11  1  1
 12 14  1  0
 13 12  1  0
 14 15  1  1
 14 16  1  0
 16 18  1  0
 17 16  2  0
 18 19  1  0
 20 22  1  0
 20 19  1  0
 21 20  2  0
M  END
$$$$
