HVG.pdb
     RDKit          3D

 22 22  0  0  1  0  0  0  0  0999 V2000
   20.9062  -15.1589  -16.6599 N   0  0  0  0  0  0  0  0  0  0  0  0
   19.8801  -14.1596  -16.7347 C   0  0  1  0  0  0  0  0  0  0  0  0
   19.0998  -14.0720  -15.4459 C   0  0  0  0  0  0  0  0  0  0  0  0
   18.3828  -15.3601  -15.2636 C   0  0  0  0  0  0  0  0  0  0  0  0
   18.4429  -16.4495  -16.1331 C   0  0  0  0  0  0  0  0  0  0  0  0
   17.6742  -17.4420  -15.6605 N   0  0  0  0  0  0  0  0  0  0  0  0
   17.1336  -17.0077  -14.5204 C   0  0  0  0  0  0  0  0  0  0  0  0
   17.5593  -15.7434  -14.2722 N   0  0  0  0  0  0  0  0  0  0  0  0
   20.4707  -12.8751  -17.1356 C   0  0  0  0  0  0  0  0  0  0  0  0
   21.6160  -12.5843  -16.7217 O   0  0  0  0  0  0  0  0  0  0  0  0
   19.1735  -10.7363  -20.4082 C   0  0  0  0  0  0  0  0  0  0  0  0
   20.5814  -10.6153  -19.7947 C   0  0  2  0  0  0  0  0  0  0  0  0
   21.3863  -11.6816  -20.4274 C   0  0  0  0  0  0  0  0  0  0  0  0
   20.4600  -10.6645  -18.2928 C   0  0  2  0  0  0  0  0  0  0  0  0
   19.8061  -11.9457  -17.9707 N   0  0  0  0  0  0  0  0  0  0  0  0
   19.7018   -9.5491  -17.7008 C   0  0  0  0  0  0  0  0  0  0  0  0
   20.1734   -8.3655  -17.8086 O   0  0  0  0  0  0  0  0  0  0  0  0
   18.4715   -9.6623  -17.0089 N   0  0  0  0  0  0  0  0  0  0  0  0
   17.7945   -8.4540  -16.5620 C   0  0  0  0  0  0  0  0  0  0  0  0
   18.0905   -8.1328  -15.1564 C   0  0  0  0  0  0  0  0  0  0  0  0
   18.9199   -8.8449  -14.5352 O   0  0  0  0  0  0  0  0  0  0  0  0
   17.5103   -7.0864  -14.4634 O   0  0  0  0  0  0  0  0  0  0  0  0
  2  1  1  1
  2  3  1  0
  3  4  1  0
  4  5  2  0
  4  8  1  0
  5  6  1  0
  6  7  1  0
  8  7  2  0
  9  2  1  0
  9 15  1  0
 10  9  2  0
 12 11  1  6
 12 14  1  0
 13 12  1  0
 14 15  1  6
 14 16  1  0
 16 18  1  0
 17 16  2  0
 18 19  1  0
 20 22  1  0
 20 19  1  0
 21 20  2  0
M  END
$$$$
