HVG.pdb
     RDKit          3D

 22 22  0  0  1  0  0  0  0  0999 V2000
   28.4932  -21.7706  -16.9418 N   0  0  0  0  0  0  0  0  0  0  0  0
   27.2890  -21.1718  -17.4404 C   0  0  1  0  0  0  0  0  0  0  0  0
   26.3548  -22.2075  -18.0164 C   0  0  0  0  0  0  0  0  0  0  0  0
   27.0093  -22.7884  -19.2168 C   0  0  0  0  0  0  0  0  0  0  0  0
   27.3930  -22.0760  -20.3533 C   0  0  0  0  0  0  0  0  0  0  0  0
   27.9523  -22.9141  -21.2389 N   0  0  0  0  0  0  0  0  0  0  0  0
   27.9310  -24.1309  -20.6917 C   0  0  0  0  0  0  0  0  0  0  0  0
   27.3595  -24.0630  -19.4628 N   0  0  0  0  0  0  0  0  0  0  0  0
   26.6664  -20.3627  -16.3835 C   0  0  0  0  0  0  0  0  0  0  0  0
   26.7442  -20.7584  -15.1983 O   0  0  0  0  0  0  0  0  0  0  0  0
   25.9408  -16.3131  -16.7822 C   0  0  0  0  0  0  0  0  0  0  0  0
   26.2003  -17.0817  -15.4727 C   0  0  2  0  0  0  0  0  0  0  0  0
   27.6701  -17.1897  -15.3569 C   0  0  0  0  0  0  0  0  0  0  0  0
   25.4309  -18.3776  -15.5122 C   0  0  2  0  0  0  0  0  0  0  0  0
   25.9795  -19.1521  -16.6399 N   0  0  0  0  0  0  0  0  0  0  0  0
   23.9745  -18.2228  -15.6685 C   0  0  0  0  0  0  0  0  0  0  0  0
   23.4928  -18.1417  -16.8501 O   0  0  0  0  0  0  0  0  0  0  0  0
   23.0334  -18.1550  -14.6126 N   0  0  0  0  0  0  0  0  0  0  0  0
   21.6364  -17.8897  -14.9227 C   0  0  0  0  0  0  0  0  0  0  0  0
   20.8147  -19.1106  -14.8964 C   0  0  0  0  0  0  0  0  0  0  0  0
   21.1800  -20.1001  -15.5807 O   0  0  0  0  0  0  0  0  0  0  0  0
   19.6522  -19.2447  -14.1599 O   0  0  0  0  0  0  0  0  0  0  0  0
  2  1  1  1
  2  3  1  0
  3  4  1  0
  4  5  2  0
  4  8  1  0
  5  6  1  0
  6  7  1  0
  8  7  2  0
  9  2  1  0
  9 15  1  0
 10  9  2  0
 12 11  1  6
 12 14  1  0
 13 12  1  0
 14 15  1  6
 14 16  1  0
 16 18  1  0
 17 16  2  0
 18 19  1  0
 20 22  1  0
 20 19  1  0
 21 20  2  0
M  END
$$$$
