HVG.pdb
     RDKit          3D

 22 22  0  0  1  0  0  0  0  0999 V2000
   20.5419  -14.3334  -16.0188 N   0  0  0  0  0  0  0  0  0  0  0  0
   19.7384  -13.1783  -16.2968 C   0  0  1  0  0  0  0  0  0  0  0  0
   18.3622  -13.3041  -15.6906 C   0  0  0  0  0  0  0  0  0  0  0  0
   17.6520  -14.3959  -16.4049 C   0  0  0  0  0  0  0  0  0  0  0  0
   18.1569  -15.1165  -17.4876 C   0  0  0  0  0  0  0  0  0  0  0  0
   17.2510  -16.0235  -17.8827 N   0  0  0  0  0  0  0  0  0  0  0  0
   16.1929  -15.8933  -17.0802 C   0  0  0  0  0  0  0  0  0  0  0  0
   16.4287  -14.9063  -16.1793 N   0  0  0  0  0  0  0  0  0  0  0  0
   20.4482  -11.9674  -15.8614 C   0  0  0  0  0  0  0  0  0  0  0  0
   20.9881  -11.9600  -14.7319 O   0  0  0  0  0  0  0  0  0  0  0  0
   23.3685  -10.4559  -17.0498 C   0  0  0  0  0  0  0  0  0  0  0  0
   22.3557   -9.2954  -17.0743 C   0  0  2  0  0  0  0  0  0  0  0  0
   23.1394   -8.0747  -16.7898 C   0  0  0  0  0  0  0  0  0  0  0  0
   21.2335   -9.6131  -16.1189 C   0  0  2  0  0  0  0  0  0  0  0  0
   20.5523  -10.8033  -16.6595 N   0  0  0  0  0  0  0  0  0  0  0  0
   20.2635   -8.5216  -15.9260 C   0  0  0  0  0  0  0  0  0  0  0  0
   19.5280   -8.1772  -16.9136 O   0  0  0  0  0  0  0  0  0  0  0  0
   20.0603   -7.8004  -14.7245 N   0  0  0  0  0  0  0  0  0  0  0  0
   19.0755   -6.7292  -14.6974 C   0  0  0  0  0  0  0  0  0  0  0  0
   19.6491   -5.4304  -15.0856 C   0  0  0  0  0  0  0  0  0  0  0  0
   20.8738   -5.3692  -15.3636 O   0  0  0  0  0  0  0  0  0  0  0  0
   18.9222   -4.2570  -15.1665 O   0  0  0  0  0  0  0  0  0  0  0  0
  2  1  1  1
  2  3  1  0
  3  4  1  0
  4  5  2  0
  4  8  1  0
  5  6  1  0
  6  7  1  0
  8  7  2  0
  9  2  1  0
  9 15  1  0
 10  9  2  0
 12 11  1  1
 12 14  1  0
 13 12  1  0
 14 15  1  6
 14 16  1  0
 16 18  1  0
 17 16  2  0
 18 19  1  0
 20 22  1  0
 20 19  1  0
 21 20  2  0
M  END
$$$$
