HVG.pdb
     RDKit          3D

 22 22  0  0  1  0  0  0  0  0999 V2000
   24.3707  -12.2870  -19.1770 N   0  0  0  0  0  0  0  0  0  0  0  0
   24.5862  -10.8834  -18.9752 C   0  0  1  0  0  0  0  0  0  0  0  0
   24.5918  -10.1318  -20.2838 C   0  0  0  0  0  0  0  0  0  0  0  0
   25.7688  -10.5925  -21.0642 C   0  0  0  0  0  0  0  0  0  0  0  0
   27.0588  -10.7598  -20.5597 C   0  0  0  0  0  0  0  0  0  0  0  0
   27.8701  -11.1869  -21.5388 N   0  0  0  0  0  0  0  0  0  0  0  0
   27.1276  -11.2926  -22.6425 C   0  0  0  0  0  0  0  0  0  0  0  0
   25.8494  -10.9332  -22.3624 N   0  0  0  0  0  0  0  0  0  0  0  0
   23.5967  -10.3648  -18.0205 C   0  0  0  0  0  0  0  0  0  0  0  0
   22.3933  -10.6745  -18.1736 O   0  0  0  0  0  0  0  0  0  0  0  0
   22.9053  -11.3662  -15.0185 C   0  0  0  0  0  0  0  0  0  0  0  0
   23.0992   -9.8670  -14.7220 C   0  0  2  0  0  0  0  0  0  0  0  0
   22.1862   -9.5598  -13.6007 C   0  0  0  0  0  0  0  0  0  0  0  0
   22.8855   -9.0905  -15.9965 C   0  0  2  0  0  0  0  0  0  0  0  0
   23.9380   -9.5285  -16.9310 N   0  0  0  0  0  0  0  0  0  0  0  0
   22.9290   -7.6268  -15.8388 C   0  0  0  0  0  0  0  0  0  0  0  0
   24.0643   -7.0654  -15.6638 O   0  0  0  0  0  0  0  0  0  0  0  0
   21.8095   -6.7600  -15.8641 N   0  0  0  0  0  0  0  0  0  0  0  0
   22.0131   -5.3317  -15.6724 C   0  0  0  0  0  0  0  0  0  0  0  0
   21.9465   -4.9413  -14.2548 C   0  0  0  0  0  0  0  0  0  0  0  0
   21.6710   -5.8194  -13.3981 O   0  0  0  0  0  0  0  0  0  0  0  0
   22.1694   -3.6565  -13.7951 O   0  0  0  0  0  0  0  0  0  0  0  0
  2  1  1  6
  2  3  1  0
  3  4  1  0
  4  5  2  0
  4  8  1  0
  5  6  1  0
  6  7  1  0
  8  7  2  0
  9  2  1  0
  9 15  1  0
 10  9  2  0
 12 11  1  6
 12 14  1  0
 13 12  1  0
 14 15  1  6
 14 16  1  0
 16 18  1  0
 17 16  2  0
 18 19  1  0
 20 22  1  0
 20 19  1  0
 21 20  2  0
M  END
$$$$
