HVG.pdb
     RDKit          3D

 22 22  0  0  1  0  0  0  0  0999 V2000
   28.0564  -21.8258  -16.5024 N   0  0  0  0  0  0  0  0  0  0  0  0
   27.0665  -20.8367  -16.1877 C   0  0  1  0  0  0  0  0  0  0  0  0
   26.2650  -20.4504  -17.4066 C   0  0  0  0  0  0  0  0  0  0  0  0
   27.0956  -19.5244  -18.2185 C   0  0  0  0  0  0  0  0  0  0  0  0
   26.9183  -18.1432  -18.3046 C   0  0  0  0  0  0  0  0  0  0  0  0
   27.8437  -17.6237  -19.1250 N   0  0  0  0  0  0  0  0  0  0  0  0
   28.5963  -18.6378  -19.5562 C   0  0  0  0  0  0  0  0  0  0  0  0
   28.1481  -19.7963  -19.0099 N   0  0  0  0  0  0  0  0  0  0  0  0
   26.2289  -21.3129  -15.0781 C   0  0  0  0  0  0  0  0  0  0  0  0
   25.8312  -22.4999  -15.0910 O   0  0  0  0  0  0  0  0  0  0  0  0
   27.0896  -21.2163  -11.5660 C   0  0  0  0  0  0  0  0  0  0  0  0
   25.6613  -20.6412  -11.6149 C   0  0  2  0  0  0  0  0  0  0  0  0
   25.0030  -21.0992  -10.3731 C   0  0  0  0  0  0  0  0  0  0  0  0
   25.0164  -21.0583  -12.9122 C   0  0  2  0  0  0  0  0  0  0  0  0
   25.8475  -20.4923  -13.9900 N   0  0  0  0  0  0  0  0  0  0  0  0
   23.6188  -20.6219  -13.0717 C   0  0  0  0  0  0  0  0  0  0  0  0
   23.3758  -19.3689  -13.1488 O   0  0  0  0  0  0  0  0  0  0  0  0
   22.4913  -21.4750  -13.1514 N   0  0  0  0  0  0  0  0  0  0  0  0
   21.1603  -20.8891  -13.2070 C   0  0  0  0  0  0  0  0  0  0  0  0
   20.4768  -20.9256  -11.9039 C   0  0  0  0  0  0  0  0  0  0  0  0
   21.0251  -21.5348  -10.9505 O   0  0  0  0  0  0  0  0  0  0  0  0
   19.2558  -20.3269  -11.6540 O   0  0  0  0  0  0  0  0  0  0  0  0
  2  1  1  6
  2  3  1  0
  3  4  1  0
  4  5  2  0
  4  8  1  0
  5  6  1  0
  6  7  1  0
  8  7  2  0
  9  2  1  0
  9 15  1  0
 10  9  2  0
 12 11  1  6
 12 14  1  0
 13 12  1  0
 14 15  1  6
 14 16  1  0
 16 18  1  0
 17 16  2  0
 18 19  1  0
 20 22  1  0
 20 19  1  0
 21 20  2  0
M  END
$$$$
