HVG.pdb
     RDKit          3D

 22 22  0  0  1  0  0  0  0  0999 V2000
   22.1765  -14.5376  -17.7428 N   0  0  0  0  0  0  0  0  0  0  0  0
   22.0956  -13.1105  -17.8613 C   0  0  1  0  0  0  0  0  0  0  0  0
   20.6627  -12.6428  -17.9344 C   0  0  0  0  0  0  0  0  0  0  0  0
   20.0589  -13.2269  -19.1595 C   0  0  0  0  0  0  0  0  0  0  0  0
   20.6004  -13.1517  -20.4431 C   0  0  0  0  0  0  0  0  0  0  0  0
   19.7938  -13.7865  -21.3068 N   0  0  0  0  0  0  0  0  0  0  0  0
   18.7625  -14.2577  -20.6032 C   0  0  0  0  0  0  0  0  0  0  0  0
   18.9161  -13.9218  -19.2975 N   0  0  0  0  0  0  0  0  0  0  0  0
   22.8489  -12.4813  -16.7676 C   0  0  0  0  0  0  0  0  0  0  0  0
   22.6658  -12.8897  -15.5983 O   0  0  0  0  0  0  0  0  0  0  0  0
   26.4996  -12.2468  -16.3982 C   0  0  0  0  0  0  0  0  0  0  0  0
   25.9611  -10.8125  -16.2369 C   0  0  2  0  0  0  0  0  0  0  0  0
   26.8867  -10.1408  -15.3002 C   0  0  0  0  0  0  0  0  0  0  0  0
   24.5143  -10.8835  -15.8190 C   0  0  2  0  0  0  0  0  0  0  0  0
   23.7757  -11.4314  -16.9711 N   0  0  0  0  0  0  0  0  0  0  0  0
   23.9285   -9.5951  -15.4117 C   0  0  0  0  0  0  0  0  0  0  0  0
   24.3754   -9.0280  -14.3564 O   0  0  0  0  0  0  0  0  0  0  0  0
   22.8951   -8.9060  -16.0917 N   0  0  0  0  0  0  0  0  0  0  0  0
   22.4708   -7.6021  -15.6041 C   0  0  0  0  0  0  0  0  0  0  0  0
   21.3461   -7.6957  -14.6593 C   0  0  0  0  0  0  0  0  0  0  0  0
   20.9010   -8.8329  -14.3599 O   0  0  0  0  0  0  0  0  0  0  0  0
   20.7375   -6.6026  -14.0705 O   0  0  0  0  0  0  0  0  0  0  0  0
  2  1  1  1
  2  3  1  0
  3  4  1  0
  4  5  2  0
  4  8  1  0
  5  6  1  0
  6  7  1  0
  8  7  2  0
  9  2  1  0
  9 15  1  0
 10  9  2  0
 12 11  1  1
 12 14  1  0
 13 12  1  0
 14 15  1  6
 14 16  1  0
 16 18  1  0
 17 16  2  0
 18 19  1  0
 20 22  1  0
 20 19  1  0
 21 20  2  0
M  END
$$$$
