HVG.pdb
     RDKit          3D

 22 22  0  0  1  0  0  0  0  0999 V2000
   23.4224  -19.4574  -15.4551 N   0  0  0  0  0  0  0  0  0  0  0  0
   23.2610  -18.4210  -16.4334 C   0  0  1  0  0  0  0  0  0  0  0  0
   21.9364  -18.5368  -17.1472 C   0  0  0  0  0  0  0  0  0  0  0  0
   21.8961  -19.8648  -17.8116 C   0  0  0  0  0  0  0  0  0  0  0  0
   22.8294  -20.3359  -18.7354 C   0  0  0  0  0  0  0  0  0  0  0  0
   22.4844  -21.5707  -19.1299 N   0  0  0  0  0  0  0  0  0  0  0  0
   21.3624  -21.8883  -18.4812 C   0  0  0  0  0  0  0  0  0  0  0  0
   20.9983  -20.8569  -17.6780 N   0  0  0  0  0  0  0  0  0  0  0  0
   23.4580  -17.1097  -15.7999 C   0  0  0  0  0  0  0  0  0  0  0  0
   22.9731  -16.9122  -14.6627 O   0  0  0  0  0  0  0  0  0  0  0  0
   26.4449  -14.4683  -16.8700 C   0  0  0  0  0  0  0  0  0  0  0  0
   25.7276  -14.4867  -15.5069 C   0  0  2  0  0  0  0  0  0  0  0  0
   26.4544  -15.4781  -14.6858 C   0  0  0  0  0  0  0  0  0  0  0  0
   24.2606  -14.7480  -15.7361 C   0  0  2  0  0  0  0  0  0  0  0  0
   24.1723  -16.0537  -16.4143 N   0  0  0  0  0  0  0  0  0  0  0  0
   23.5704  -13.7190  -16.5325 C   0  0  0  0  0  0  0  0  0  0  0  0
   23.6151  -13.8023  -17.8076 O   0  0  0  0  0  0  0  0  0  0  0  0
   22.8436  -12.6211  -16.0111 N   0  0  0  0  0  0  0  0  0  0  0  0
   22.2789  -11.6433  -16.9293 C   0  0  0  0  0  0  0  0  0  0  0  0
   20.8371  -11.8452  -17.1460 C   0  0  0  0  0  0  0  0  0  0  0  0
   20.3955  -13.0201  -17.2198 O   0  0  0  0  0  0  0  0  0  0  0  0
   19.9229  -10.8160  -17.2757 O   0  0  0  0  0  0  0  0  0  0  0  0
  2  1  1  1
  2  3  1  0
  3  4  1  0
  4  5  2  0
  4  8  1  0
  5  6  1  0
  6  7  1  0
  8  7  2  0
  9  2  1  0
  9 15  1  0
 10  9  2  0
 12 11  1  6
 12 14  1  0
 13 12  1  0
 14 15  1  6
 14 16  1  0
 16 18  1  0
 17 16  2  0
 18 19  1  0
 20 22  1  0
 20 19  1  0
 21 20  2  0
M  END
$$$$
