HVG.pdb
     RDKit          3D

 22 22  0  0  1  0  0  0  0  0999 V2000
   17.8050  -11.6267  -17.8971 N   0  0  0  0  0  0  0  0  0  0  0  0
   18.5671  -11.2453  -16.7435 C   0  0  1  0  0  0  0  0  0  0  0  0
   19.8380  -12.0512  -16.6301 C   0  0  0  0  0  0  0  0  0  0  0  0
   19.4552  -13.4718  -16.4255 C   0  0  0  0  0  0  0  0  0  0  0  0
   18.5994  -13.9437  -15.4298 C   0  0  0  0  0  0  0  0  0  0  0  0
   18.4771  -15.2750  -15.5390 N   0  0  0  0  0  0  0  0  0  0  0  0
   19.2307  -15.6525  -16.5735 C   0  0  0  0  0  0  0  0  0  0  0  0
   19.8285  -14.5625  -17.1176 N   0  0  0  0  0  0  0  0  0  0  0  0
   18.8078   -9.7959  -16.7685 C   0  0  0  0  0  0  0  0  0  0  0  0
   19.1954   -9.2688  -17.8359 O   0  0  0  0  0  0  0  0  0  0  0  0
   16.5738   -7.1740  -16.7074 C   0  0  0  0  0  0  0  0  0  0  0  0
   17.5057   -6.8552  -15.5230 C   0  0  2  0  0  0  0  0  0  0  0  0
   17.5052   -5.3822  -15.3988 C   0  0  0  0  0  0  0  0  0  0  0  0
   18.8414   -7.5098  -15.7691 C   0  0  2  0  0  0  0  0  0  0  0  0
   18.6223   -8.9618  -15.6403 N   0  0  0  0  0  0  0  0  0  0  0  0
   19.9140   -7.0792  -14.8562 C   0  0  0  0  0  0  0  0  0  0  0  0
   19.7561   -7.2607  -13.6004 O   0  0  0  0  0  0  0  0  0  0  0  0
   21.1328   -6.4707  -15.2430 N   0  0  0  0  0  0  0  0  0  0  0  0
   22.0728   -6.0482  -14.2155 C   0  0  0  0  0  0  0  0  0  0  0  0
   21.9979   -4.6029  -13.9472 C   0  0  0  0  0  0  0  0  0  0  0  0
   21.1834   -3.9072  -14.6057 O   0  0  0  0  0  0  0  0  0  0  0  0
   22.7732   -3.9495  -13.0071 O   0  0  0  0  0  0  0  0  0  0  0  0
  2  1  1  6
  2  3  1  0
  3  4  1  0
  4  5  2  0
  4  8  1  0
  5  6  1  0
  6  7  1  0
  8  7  2  0
  9  2  1  0
  9 15  1  0
 10  9  2  0
 12 11  1  6
 12 14  1  0
 13 12  1  0
 14 15  1  1
 14 16  1  0
 16 18  1  0
 17 16  2  0
 18 19  1  0
 20 22  1  0
 20 19  1  0
 21 20  2  0
M  END
$$$$
