PNI.pdb
     RDKit          3D

 24 24  0  0  1  0  0  0  0  0999 V2000
    6.5943  -19.3282   21.1647 N   0  0  0  0  0  0  0  0  0  0  0  0
    5.2901  -19.9614   21.4488 C   0  0  0  0  0  0  0  0  0  0  0  0
    4.9392  -19.2223   22.7378 C   0  0  0  0  0  0  0  0  0  0  0  0
    5.2289  -17.7772   22.3204 C   0  0  0  0  0  0  0  0  0  0  0  0
    6.2908  -17.9169   21.2867 C   0  0  1  0  0  0  0  0  0  0  0  0
    7.4825  -17.0700   21.5218 C   0  0  0  0  0  0  0  0  0  0  0  0
    8.5490  -17.6524   21.8439 O   0  0  0  0  0  0  0  0  0  0  0  0
    7.0564  -12.8350   19.1369 N   0  0  0  0  0  0  0  0  0  0  0  0
    8.1944  -13.5619   19.5423 C   0  0  0  0  0  0  0  0  0  0  0  0
    8.8248  -14.2223   18.6909 O   0  0  0  0  0  0  0  0  0  0  0  0
    8.6243  -13.5361   20.9448 C   0  0  0  0  0  0  0  0  0  0  0  0
    8.5664  -14.8632   21.6546 C   0  0  2  0  0  0  0  0  0  0  0  0
    7.4268  -15.6580   21.3907 N   0  0  0  0  0  0  0  0  0  0  0  0
    8.8757  -14.6479   23.0806 C   0  0  0  0  0  0  0  0  0  0  0  0
    9.9493  -14.0485   23.3524 O   0  0  0  0  0  0  0  0  0  0  0  0
    5.7475  -12.0883   26.2695 C   0  0  0  0  0  0  0  0  0  0  0  0
    7.0012  -12.6383   25.5742 C   0  0  0  0  0  0  0  0  0  0  0  0
    7.3828  -13.9259   26.2697 C   0  0  2  0  0  0  0  0  0  0  0  0
    7.9337  -13.6098   27.6704 C   0  0  0  0  0  0  0  0  0  0  0  0
    8.3884  -14.7396   25.5613 C   0  0  2  0  0  0  0  0  0  0  0  0
    8.0789  -15.0571   24.1771 N   0  0  0  0  0  0  0  0  0  0  0  0
    8.5535  -16.0391   26.3215 C   0  0  0  0  0  0  0  0  0  0  0  0
    7.7831  -16.9832   26.0718 O   0  0  0  0  0  0  0  0  0  0  0  0
    9.5386  -16.1800   27.2753 O   0  0  0  0  0  0  0  0  0  0  0  0
  1  2  1  0
  2  3  1  0
  4  3  1  0
  5  4  1  0
  5  1  1  0
  6  7  2  0
  5  6  1  1
  9 10  2  0
  9  8  1  0
 11  9  1  0
 12 11  1  1
 12 13  1  0
 13  6  1  0
 14 12  1  0
 15 14  2  0
 17 16  1  0
 18 17  1  0
 18 20  1  0
 18 19  1  1
 20 21  1  6
 21 14  1  0
 22 20  1  0
 22 24  1  0
 23 22  2  0
M  END
$$$$
