PNI.pdb
     RDKit          3D

 24 24  0  0  1  0  0  0  0  0999 V2000
    9.0746  -14.7384   18.6292 N   0  0  0  0  0  0  0  0  0  0  0  0
    8.9116  -14.0312   17.3423 C   0  0  0  0  0  0  0  0  0  0  0  0
    7.4656  -13.5683   17.5034 C   0  0  0  0  0  0  0  0  0  0  0  0
    7.5151  -12.9804   18.9171 C   0  0  0  0  0  0  0  0  0  0  0  0
    8.5891  -13.7647   19.5857 C   0  0  1  0  0  0  0  0  0  0  0  0
    8.1920  -14.3536   20.8850 C   0  0  0  0  0  0  0  0  0  0  0  0
    7.6539  -13.5879   21.7244 O   0  0  0  0  0  0  0  0  0  0  0  0
    9.5293  -19.1008   20.9670 N   0  0  0  0  0  0  0  0  0  0  0  0
    9.4295  -18.3181   22.1355 C   0  0  0  0  0  0  0  0  0  0  0  0
   10.4588  -18.1017   22.8080 O   0  0  0  0  0  0  0  0  0  0  0  0
    8.1324  -17.7696   22.5466 C   0  0  0  0  0  0  0  0  0  0  0  0
    7.9996  -16.2754   22.4121 C   0  0  2  0  0  0  0  0  0  0  0  0
    8.4088  -15.7258   21.1749 N   0  0  0  0  0  0  0  0  0  0  0  0
    8.5774  -15.6418   23.6121 C   0  0  0  0  0  0  0  0  0  0  0  0
    9.7757  -15.2611   23.5412 O   0  0  0  0  0  0  0  0  0  0  0  0
    5.7933  -11.9993   26.3465 C   0  0  0  0  0  0  0  0  0  0  0  0
    6.9566  -12.6839   25.6146 C   0  0  0  0  0  0  0  0  0  0  0  0
    7.5764  -13.6790   26.5700 C   0  0  2  0  0  0  0  0  0  0  0  0
    8.3750  -12.9275   27.6483 C   0  0  0  0  0  0  0  0  0  0  0  0
    8.4786  -14.6627   25.9426 C   0  0  2  0  0  0  0  0  0  0  0  0
    7.9112  -15.4243   24.8423 N   0  0  0  0  0  0  0  0  0  0  0  0
    8.9225  -15.6358   27.0150 C   0  0  0  0  0  0  0  0  0  0  0  0
    8.4248  -16.7756   27.0353 O   0  0  0  0  0  0  0  0  0  0  0  0
    9.8615  -15.2711   27.9558 O   0  0  0  0  0  0  0  0  0  0  0  0
  1  2  1  0
  2  3  1  0
  4  3  1  0
  5  4  1  0
  5  1  1  0
  6  7  2  0
  5  6  1  1
  9 10  2  0
  9  8  1  0
 11  9  1  0
 12 11  1  6
 12 13  1  0
 13  6  1  0
 14 12  1  0
 15 14  2  0
 17 16  1  0
 18 17  1  0
 18 20  1  0
 18 19  1  1
 20 21  1  6
 21 14  1  0
 22 20  1  0
 22 24  1  0
 23 22  2  0
M  END
$$$$
