PNI.pdb
     RDKit          3D

 24 24  0  0  1  0  0  0  0  0999 V2000
    8.7338  -14.6273   18.6837 N   0  0  0  0  0  0  0  0  0  0  0  0
    8.4761  -13.7916   17.4929 C   0  0  0  0  0  0  0  0  0  0  0  0
    7.1491  -13.1683   17.9187 C   0  0  0  0  0  0  0  0  0  0  0  0
    7.4932  -12.7216   19.3431 C   0  0  0  0  0  0  0  0  0  0  0  0
    8.5380  -13.6912   19.7718 C   0  0  1  0  0  0  0  0  0  0  0  0
    8.2656  -14.3411   21.0742 C   0  0  0  0  0  0  0  0  0  0  0  0
    7.9022  -13.6007   22.0229 O   0  0  0  0  0  0  0  0  0  0  0  0
    8.6054  -19.2699   20.4882 N   0  0  0  0  0  0  0  0  0  0  0  0
    7.6789  -18.5530   21.2727 C   0  0  0  0  0  0  0  0  0  0  0  0
    6.4839  -18.5155   20.9136 O   0  0  0  0  0  0  0  0  0  0  0  0
    8.1209  -17.8656   22.4911 C   0  0  0  0  0  0  0  0  0  0  0  0
    8.0076  -16.3642   22.4537 C   0  0  2  0  0  0  0  0  0  0  0  0
    8.4085  -15.7423   21.2484 N   0  0  0  0  0  0  0  0  0  0  0  0
    8.6097  -15.8161   23.6835 C   0  0  0  0  0  0  0  0  0  0  0  0
    9.8505  -15.6009   23.6701 O   0  0  0  0  0  0  0  0  0  0  0  0
    6.2850  -11.8274   26.4463 C   0  0  0  0  0  0  0  0  0  0  0  0
    7.2763  -12.7207   25.6866 C   0  0  0  0  0  0  0  0  0  0  0  0
    7.7691  -13.7786   26.6484 C   0  0  2  0  0  0  0  0  0  0  0  0
    8.6513  -13.1240   27.7247 C   0  0  0  0  0  0  0  0  0  0  0  0
    8.5461  -14.8679   26.0280 C   0  0  2  0  0  0  0  0  0  0  0  0
    7.9230  -15.5123   24.8838 N   0  0  0  0  0  0  0  0  0  0  0  0
    8.7979  -15.9206   27.0874 C   0  0  0  0  0  0  0  0  0  0  0  0
    8.1217  -16.9644   27.0698 O   0  0  0  0  0  0  0  0  0  0  0  0
    9.7584  -15.7315   28.0578 O   0  0  0  0  0  0  0  0  0  0  0  0
  1  2  1  0
  2  3  1  0
  4  3  1  0
  5  4  1  0
  5  1  1  0
  6  7  2  0
  5  6  1  1
  9 10  2  0
  9  8  1  0
 11  9  1  0
 12 11  1  6
 12 13  1  0
 13  6  1  0
 14 12  1  0
 15 14  2  0
 17 16  1  0
 18 17  1  0
 18 20  1  0
 18 19  1  1
 20 21  1  6
 21 14  1  0
 22 20  1  0
 22 24  1  0
 23 22  2  0
M  END
$$$$
