PNI.pdb
     RDKit          3D

 24 24  0  0  1  0  0  0  0  0999 V2000
    8.8932  -14.8445   18.7744 N   0  0  0  0  0  0  0  0  0  0  0  0
    8.8567  -14.0756   17.5133 C   0  0  0  0  0  0  0  0  0  0  0  0
    7.5029  -13.3917   17.6873 C   0  0  0  0  0  0  0  0  0  0  0  0
    7.6346  -12.8694   19.1214 C   0  0  0  0  0  0  0  0  0  0  0  0
    8.5630  -13.8394   19.7640 C   0  0  1  0  0  0  0  0  0  0  0  0
    8.0656  -14.4018   21.0404 C   0  0  0  0  0  0  0  0  0  0  0  0
    7.7096  -13.5871   21.9292 O   0  0  0  0  0  0  0  0  0  0  0  0
    5.3196  -18.4683   23.8937 N   0  0  0  0  0  0  0  0  0  0  0  0
    6.7166  -18.3227   23.7708 C   0  0  0  0  0  0  0  0  0  0  0  0
    7.4441  -18.6338   24.7365 O   0  0  0  0  0  0  0  0  0  0  0  0
    7.2977  -17.8137   22.5236 C   0  0  0  0  0  0  0  0  0  0  0  0
    7.4900  -16.3208   22.4716 C   0  0  2  0  0  0  0  0  0  0  0  0
    7.9928  -15.8026   21.2555 N   0  0  0  0  0  0  0  0  0  0  0  0
    8.2065  -15.8961   23.6889 C   0  0  0  0  0  0  0  0  0  0  0  0
    9.4647  -15.9411   23.6611 O   0  0  0  0  0  0  0  0  0  0  0  0
    5.9833  -11.8618   26.6603 C   0  0  0  0  0  0  0  0  0  0  0  0
    6.9582  -12.6683   25.7904 C   0  0  0  0  0  0  0  0  0  0  0  0
    7.5953  -13.7198   26.6711 C   0  0  2  0  0  0  0  0  0  0  0  0
    8.5629  -13.0459   27.6584 C   0  0  0  0  0  0  0  0  0  0  0  0
    8.3428  -14.7653   25.9478 C   0  0  2  0  0  0  0  0  0  0  0  0
    7.6112  -15.4452   24.8917 N   0  0  0  0  0  0  0  0  0  0  0  0
    8.7895  -15.8007   26.9590 C   0  0  0  0  0  0  0  0  0  0  0  0
    8.1069  -16.8301   27.1062 O   0  0  0  0  0  0  0  0  0  0  0  0
    9.9318  -15.6118   27.7068 O   0  0  0  0  0  0  0  0  0  0  0  0
  1  2  1  0
  2  3  1  0
  4  3  1  0
  5  4  1  0
  5  1  1  0
  6  7  2  0
  5  6  1  1
  9 10  2  0
  9  8  1  0
 11  9  1  0
 12 11  1  6
 12 13  1  0
 13  6  1  0
 14 12  1  0
 15 14  2  0
 17 16  1  0
 18 17  1  0
 18 20  1  0
 18 19  1  1
 20 21  1  6
 21 14  1  0
 22 20  1  0
 22 24  1  0
 23 22  2  0
M  END
$$$$
