PNI.pdb
     RDKit          3D

 24 24  0  0  1  0  0  0  0  0999 V2000
    9.2422  -14.4935   18.7823 N   0  0  0  0  0  0  0  0  0  0  0  0
    8.9918  -13.7130   17.5531 C   0  0  0  0  0  0  0  0  0  0  0  0
    7.4788  -13.5496   17.6756 C   0  0  0  0  0  0  0  0  0  0  0  0
    7.3626  -13.0977   19.1346 C   0  0  0  0  0  0  0  0  0  0  0  0
    8.5434  -13.7231   19.7906 C   0  0  1  0  0  0  0  0  0  0  0  0
    8.2212  -14.4953   21.0124 C   0  0  0  0  0  0  0  0  0  0  0  0
    7.3805  -13.9978   21.8036 O   0  0  0  0  0  0  0  0  0  0  0  0
    9.7521  -19.3449   20.7510 N   0  0  0  0  0  0  0  0  0  0  0  0
    8.7690  -18.7084   21.5360 C   0  0  0  0  0  0  0  0  0  0  0  0
    7.5646  -18.9284   21.2919 O   0  0  0  0  0  0  0  0  0  0  0  0
    9.1643  -17.8040   22.6214 C   0  0  0  0  0  0  0  0  0  0  0  0
    8.6191  -16.4040   22.5161 C   0  0  2  0  0  0  0  0  0  0  0  0
    8.8348  -15.7460   21.2829 N   0  0  0  0  0  0  0  0  0  0  0  0
    9.0219  -15.6505   23.7183 C   0  0  0  0  0  0  0  0  0  0  0  0
   10.2543  -15.4553   23.8889 O   0  0  0  0  0  0  0  0  0  0  0  0
    5.6880  -12.0565   26.4884 C   0  0  0  0  0  0  0  0  0  0  0  0
    6.8563  -12.6395   25.6804 C   0  0  0  0  0  0  0  0  0  0  0  0
    7.5986  -13.6031   26.5792 C   0  0  2  0  0  0  0  0  0  0  0  0
    8.3085  -12.8206   27.6968 C   0  0  0  0  0  0  0  0  0  0  0  0
    8.6083  -14.4347   25.8979 C   0  0  2  0  0  0  0  0  0  0  0  0
    8.1512  -15.1279   24.7049 N   0  0  0  0  0  0  0  0  0  0  0  0
    9.1031  -15.4686   26.8880 C   0  0  0  0  0  0  0  0  0  0  0  0
    8.5221  -16.5666   26.9507 O   0  0  0  0  0  0  0  0  0  0  0  0
   10.1783  -15.2038   27.7087 O   0  0  0  0  0  0  0  0  0  0  0  0
  1  2  1  0
  2  3  1  0
  4  3  1  0
  5  4  1  0
  5  1  1  0
  6  7  2  0
  5  6  1  1
  9 10  2  0
  9  8  1  0
 11  9  1  0
 12 11  1  6
 12 13  1  0
 13  6  1  0
 14 12  1  0
 15 14  2  0
 17 16  1  0
 18 17  1  0
 18 20  1  0
 18 19  1  1
 20 21  1  6
 21 14  1  0
 22 20  1  0
 22 24  1  0
 23 22  2  0
M  END
$$$$
