PNI.pdb
     RDKit          3D

 24 24  0  0  1  0  0  0  0  0999 V2000
    9.0474  -14.6988   18.5162 N   0  0  0  0  0  0  0  0  0  0  0  0
    8.8743  -13.9136   17.2768 C   0  0  0  0  0  0  0  0  0  0  0  0
    7.4198  -13.4882   17.4624 C   0  0  0  0  0  0  0  0  0  0  0  0
    7.4555  -12.9913   18.9110 C   0  0  0  0  0  0  0  0  0  0  0  0
    8.5423  -13.7973   19.5315 C   0  0  1  0  0  0  0  0  0  0  0  0
    8.1532  -14.4753   20.7892 C   0  0  0  0  0  0  0  0  0  0  0  0
    7.5384  -13.7914   21.6462 O   0  0  0  0  0  0  0  0  0  0  0  0
    6.5641  -19.4053   21.4271 N   0  0  0  0  0  0  0  0  0  0  0  0
    7.7948  -18.7425   21.2424 C   0  0  0  0  0  0  0  0  0  0  0  0
    8.3791  -18.8475   20.1442 O   0  0  0  0  0  0  0  0  0  0  0  0
    8.3717  -17.9431   22.3289 C   0  0  0  0  0  0  0  0  0  0  0  0
    8.1077  -16.4629   22.2418 C   0  0  2  0  0  0  0  0  0  0  0  0
    8.4606  -15.8412   21.0214 N   0  0  0  0  0  0  0  0  0  0  0  0
    8.6340  -15.8186   23.4596 C   0  0  0  0  0  0  0  0  0  0  0  0
    9.8403  -15.4573   23.4440 O   0  0  0  0  0  0  0  0  0  0  0  0
    7.1243  -11.3037   27.0041 C   0  0  0  0  0  0  0  0  0  0  0  0
    8.0071  -12.5599   27.0223 C   0  0  0  0  0  0  0  0  0  0  0  0
    7.5524  -13.4555   25.8917 C   0  0  2  0  0  0  0  0  0  0  0  0
    6.0984  -13.8932   26.1357 C   0  0  0  0  0  0  0  0  0  0  0  0
    8.3643  -14.6715   25.6982 C   0  0  2  0  0  0  0  0  0  0  0  0
    7.9099  -15.5711   24.6509 N   0  0  0  0  0  0  0  0  0  0  0  0
    8.3778  -15.4340   27.0068 C   0  0  0  0  0  0  0  0  0  0  0  0
    7.7665  -16.5149   27.0786 O   0  0  0  0  0  0  0  0  0  0  0  0
    9.0539  -14.9442   28.1035 O   0  0  0  0  0  0  0  0  0  0  0  0
  1  2  1  0
  2  3  1  0
  4  3  1  0
  5  4  1  0
  5  1  1  0
  6  7  2  0
  5  6  1  1
  9 10  2  0
  9  8  1  0
 11  9  1  0
 12 11  1  6
 12 13  1  0
 13  6  1  0
 14 12  1  0
 15 14  2  0
 17 16  1  0
 18 17  1  0
 18 20  1  0
 18 19  1  1
 20 21  1  6
 21 14  1  0
 22 20  1  0
 22 24  1  0
 23 22  2  0
M  END
$$$$
