PNI.pdb
     RDKit          3D

 24 24  0  0  1  0  0  0  0  0999 V2000
    7.8803  -15.1820   17.9550 N   0  0  0  0  0  0  0  0  0  0  0  0
    8.2138  -14.0671   17.0448 C   0  0  0  0  0  0  0  0  0  0  0  0
    7.6492  -12.9096   17.8648 C   0  0  0  0  0  0  0  0  0  0  0  0
    8.2392  -13.2276   19.2423 C   0  0  0  0  0  0  0  0  0  0  0  0
    8.3846  -14.7090   19.2280 C   0  0  1  0  0  0  0  0  0  0  0  0
    7.7820  -15.3896   20.3970 C   0  0  0  0  0  0  0  0  0  0  0  0
    6.7895  -16.1311   20.1837 O   0  0  0  0  0  0  0  0  0  0  0  0
    5.7326  -18.4221   23.9472 N   0  0  0  0  0  0  0  0  0  0  0  0
    7.1042  -18.1589   23.7540 C   0  0  0  0  0  0  0  0  0  0  0  0
    7.9242  -18.5735   24.5990 O   0  0  0  0  0  0  0  0  0  0  0  0
    7.5519  -17.4096   22.5748 C   0  0  0  0  0  0  0  0  0  0  0  0
    7.7633  -15.9352   22.7979 C   0  0  2  0  0  0  0  0  0  0  0  0
    8.3004  -15.2139   21.7063 N   0  0  0  0  0  0  0  0  0  0  0  0
    8.4563  -15.7488   24.0865 C   0  0  0  0  0  0  0  0  0  0  0  0
    9.7085  -15.8825   24.0909 O   0  0  0  0  0  0  0  0  0  0  0  0
    5.8342  -11.8704   26.7704 C   0  0  0  0  0  0  0  0  0  0  0  0
    6.8488  -12.7044   25.9750 C   0  0  0  0  0  0  0  0  0  0  0  0
    7.5831  -13.5902   26.9565 C   0  0  2  0  0  0  0  0  0  0  0  0
    8.4447  -12.7213   27.8880 C   0  0  0  0  0  0  0  0  0  0  0  0
    8.4617  -14.6027   26.3417 C   0  0  2  0  0  0  0  0  0  0  0  0
    7.8441  -15.4373   25.3245 N   0  0  0  0  0  0  0  0  0  0  0  0
    8.9772  -15.5023   27.4459 C   0  0  0  0  0  0  0  0  0  0  0  0
    8.4735  -16.6310   27.5855 O   0  0  0  0  0  0  0  0  0  0  0  0
    9.9870  -15.0836   28.2854 O   0  0  0  0  0  0  0  0  0  0  0  0
  1  2  1  0
  2  3  1  0
  4  3  1  0
  5  4  1  0
  5  1  1  0
  6  7  2  0
  5  6  1  1
  9 10  2  0
  9  8  1  0
 11  9  1  0
 12 11  1  6
 12 13  1  0
 13  6  1  0
 14 12  1  0
 15 14  2  0
 17 16  1  0
 18 17  1  0
 18 20  1  0
 18 19  1  1
 20 21  1  6
 21 14  1  0
 22 20  1  0
 22 24  1  0
 23 22  2  0
M  END
$$$$
