PNI.pdb
     RDKit          3D

 24 24  0  0  1  0  0  0  0  0999 V2000
    8.9757  -14.7138   18.6076 N   0  0  0  0  0  0  0  0  0  0  0  0
    8.7323  -13.9211   17.3848 C   0  0  0  0  0  0  0  0  0  0  0  0
    7.3613  -13.3495   17.7373 C   0  0  0  0  0  0  0  0  0  0  0  0
    7.6227  -12.8517   19.1623 C   0  0  0  0  0  0  0  0  0  0  0  0
    8.6909  -13.7607   19.6608 C   0  0  1  0  0  0  0  0  0  0  0  0
    8.3920  -14.3896   20.9677 C   0  0  0  0  0  0  0  0  0  0  0  0
    7.9640  -13.6415   21.8828 O   0  0  0  0  0  0  0  0  0  0  0  0
    9.0263  -19.1716   20.4840 N   0  0  0  0  0  0  0  0  0  0  0  0
    8.0556  -18.6603   21.3697 C   0  0  0  0  0  0  0  0  0  0  0  0
    6.8507  -18.9038   21.1520 O   0  0  0  0  0  0  0  0  0  0  0  0
    8.4642  -17.8567   22.5271 C   0  0  0  0  0  0  0  0  0  0  0  0
    8.1973  -16.3795   22.4047 C   0  0  2  0  0  0  0  0  0  0  0  0
    8.5803  -15.7798   21.1824 N   0  0  0  0  0  0  0  0  0  0  0  0
    8.6888  -15.7100   23.6235 C   0  0  0  0  0  0  0  0  0  0  0  0
    9.9146  -15.4249   23.6688 O   0  0  0  0  0  0  0  0  0  0  0  0
    5.8903  -11.8329   26.2376 C   0  0  0  0  0  0  0  0  0  0  0  0
    6.9947  -12.6219   25.5196 C   0  0  0  0  0  0  0  0  0  0  0  0
    7.5408  -13.6382   26.4973 C   0  0  2  0  0  0  0  0  0  0  0  0
    8.3149  -12.9148   27.6120 C   0  0  0  0  0  0  0  0  0  0  0  0
    8.4379  -14.6485   25.9060 C   0  0  2  0  0  0  0  0  0  0  0  0
    7.9109  -15.3603   24.7536 N   0  0  0  0  0  0  0  0  0  0  0  0
    8.7675  -15.6630   26.9812 C   0  0  0  0  0  0  0  0  0  0  0  0
    8.1276  -16.7290   27.0178 O   0  0  0  0  0  0  0  0  0  0  0  0
    9.7585  -15.4157   27.9068 O   0  0  0  0  0  0  0  0  0  0  0  0
  1  2  1  0
  2  3  1  0
  4  3  1  0
  5  4  1  0
  5  1  1  0
  6  7  2  0
  5  6  1  1
  9 10  2  0
  9  8  1  0
 11  9  1  0
 12 11  1  6
 12 13  1  0
 13  6  1  0
 14 12  1  0
 15 14  2  0
 17 16  1  0
 18 17  1  0
 18 20  1  0
 18 19  1  1
 20 21  1  6
 21 14  1  0
 22 20  1  0
 22 24  1  0
 23 22  2  0
M  END
$$$$
