PNI.pdb
     RDKit          3D

 24 24  0  0  1  0  0  0  0  0999 V2000
    8.8434  -15.1008   18.7932 N   0  0  0  0  0  0  0  0  0  0  0  0
    8.8982  -14.3628   17.5145 C   0  0  0  0  0  0  0  0  0  0  0  0
    7.6084  -13.5566   17.6463 C   0  0  0  0  0  0  0  0  0  0  0  0
    7.7614  -13.0132   19.0703 C   0  0  0  0  0  0  0  0  0  0  0  0
    8.5875  -14.0463   19.7530 C   0  0  1  0  0  0  0  0  0  0  0  0
    8.0193  -14.5306   21.0319 C   0  0  0  0  0  0  0  0  0  0  0  0
    7.6782  -13.6637   21.8759 O   0  0  0  0  0  0  0  0  0  0  0  0
    5.5836  -17.5949   24.5201 N   0  0  0  0  0  0  0  0  0  0  0  0
    6.6889  -18.2928   23.9918 C   0  0  0  0  0  0  0  0  0  0  0  0
    7.1293  -19.2843   24.6095 O   0  0  0  0  0  0  0  0  0  0  0  0
    7.3050  -17.8544   22.7346 C   0  0  0  0  0  0  0  0  0  0  0  0
    7.3996  -16.3619   22.5566 C   0  0  2  0  0  0  0  0  0  0  0  0
    7.8652  -15.9161   21.2977 N   0  0  0  0  0  0  0  0  0  0  0  0
    8.0892  -15.7910   23.7287 C   0  0  0  0  0  0  0  0  0  0  0  0
    9.3470  -15.7432   23.6893 O   0  0  0  0  0  0  0  0  0  0  0  0
    5.6289  -11.9395   26.9431 C   0  0  0  0  0  0  0  0  0  0  0  0
    6.5649  -12.6660   25.9664 C   0  0  0  0  0  0  0  0  0  0  0  0
    7.3746  -13.6633   26.7645 C   0  0  2  0  0  0  0  0  0  0  0  0
    8.3264  -12.9126   27.7109 C   0  0  0  0  0  0  0  0  0  0  0  0
    8.1828  -14.5951   25.9560 C   0  0  2  0  0  0  0  0  0  0  0  0
    7.4689  -15.2941   24.9004 N   0  0  0  0  0  0  0  0  0  0  0  0
    8.7766  -15.6272   26.8921 C   0  0  0  0  0  0  0  0  0  0  0  0
    8.1741  -16.7022   27.0610 O   0  0  0  0  0  0  0  0  0  0  0  0
    9.9641  -15.3858   27.5489 O   0  0  0  0  0  0  0  0  0  0  0  0
  1  2  1  0
  2  3  1  0
  4  3  1  0
  5  4  1  0
  5  1  1  0
  6  7  2  0
  5  6  1  1
  9 10  2  0
  9  8  1  0
 11  9  1  0
 12 11  1  6
 12 13  1  0
 13  6  1  0
 14 12  1  0
 15 14  2  0
 17 16  1  0
 18 17  1  0
 18 20  1  0
 18 19  1  1
 20 21  1  6
 21 14  1  0
 22 20  1  0
 22 24  1  0
 23 22  2  0
M  END
$$$$
