PNI.pdb
     RDKit          3D

 24 24  0  0  1  0  0  0  0  0999 V2000
    9.2677  -15.5244   13.6501 N   0  0  0  0  0  0  0  0  0  0  0  0
    8.7729  -15.0235   12.3512 C   0  0  0  0  0  0  0  0  0  0  0  0
    7.2759  -15.0140   12.6513 C   0  0  0  0  0  0  0  0  0  0  0  0
    7.2671  -14.3113   14.0124 C   0  0  0  0  0  0  0  0  0  0  0  0
    8.5901  -14.6627   14.5971 C   0  0  1  0  0  0  0  0  0  0  0  0
    8.5197  -15.2223   15.9663 C   0  0  0  0  0  0  0  0  0  0  0  0
    7.9223  -14.5407   16.8374 O   0  0  0  0  0  0  0  0  0  0  0  0
    7.8425  -18.8225   19.6633 N   0  0  0  0  0  0  0  0  0  0  0  0
    9.0860  -19.0614   19.0431 C   0  0  0  0  0  0  0  0  0  0  0  0
    9.9210  -19.7865   19.6222 O   0  0  0  0  0  0  0  0  0  0  0  0
    9.3850  -18.4638   17.7370 C   0  0  0  0  0  0  0  0  0  0  0  0
    8.9667  -17.0252   17.5825 C   0  0  2  0  0  0  0  0  0  0  0  0
    9.1021  -16.4763   16.2861 N   0  0  0  0  0  0  0  0  0  0  0  0
    9.5733  -16.2391   18.6730 C   0  0  0  0  0  0  0  0  0  0  0  0
   10.7833  -15.9147   18.5441 O   0  0  0  0  0  0  0  0  0  0  0  0
    6.6897  -12.9988   22.4793 C   0  0  0  0  0  0  0  0  0  0  0  0
    7.4063  -14.2699   22.0013 C   0  0  0  0  0  0  0  0  0  0  0  0
    8.7007  -13.8460   21.3439 C   0  0  2  0  0  0  0  0  0  0  0  0
    8.3939  -12.9230   20.1526 C   0  0  0  0  0  0  0  0  0  0  0  0
    9.5394  -14.9551   20.8524 C   0  0  2  0  0  0  0  0  0  0  0  0
    8.9229  -15.8169   19.8576 N   0  0  0  0  0  0  0  0  0  0  0  0
    9.9283  -15.8063   22.0433 C   0  0  0  0  0  0  0  0  0  0  0  0
    9.4048  -16.9267   22.1773 O   0  0  0  0  0  0  0  0  0  0  0  0
   10.8458  -15.3534   22.9667 O   0  0  0  0  0  0  0  0  0  0  0  0
  1  2  1  0
  2  3  1  0
  4  3  1  0
  5  4  1  0
  5  1  1  0
  6  7  2  0
  5  6  1  1
  9 10  2  0
  9  8  1  0
 11  9  1  0
 12 11  1  6
 12 13  1  0
 13  6  1  0
 14 12  1  0
 15 14  2  0
 17 16  1  0
 18 17  1  0
 18 20  1  0
 18 19  1  6
 20 21  1  6
 21 14  1  0
 22 20  1  0
 22 24  1  0
 23 22  2  0
M  END
$$$$
