PNI.pdb
     RDKit          3D

 24 24  0  0  1  0  0  0  0  0999 V2000
    7.6179  -14.7400   18.5712 N   0  0  0  0  0  0  0  0  0  0  0  0
    7.3109  -13.4328   17.9550 C   0  0  0  0  0  0  0  0  0  0  0  0
    7.3686  -12.5579   19.2048 C   0  0  0  0  0  0  0  0  0  0  0  0
    8.6860  -13.0372   19.8223 C   0  0  0  0  0  0  0  0  0  0  0  0
    8.7992  -14.4465   19.3567 C   0  0  1  0  0  0  0  0  0  0  0  0
    9.0526  -15.4251   20.4389 C   0  0  0  0  0  0  0  0  0  0  0  0
    9.7557  -16.4280   20.1559 O   0  0  0  0  0  0  0  0  0  0  0  0
   11.1503  -18.9294   23.6289 N   0  0  0  0  0  0  0  0  0  0  0  0
    9.8864  -18.3321   23.4449 C   0  0  0  0  0  0  0  0  0  0  0  0
    8.9432  -18.6715   24.1889 O   0  0  0  0  0  0  0  0  0  0  0  0
    9.6921  -17.3274   22.3936 C   0  0  0  0  0  0  0  0  0  0  0  0
    8.8066  -16.1698   22.7728 C   0  0  2  0  0  0  0  0  0  0  0  0
    8.5244  -15.2420   21.7433 N   0  0  0  0  0  0  0  0  0  0  0  0
    9.3054  -15.5891   24.0335 C   0  0  0  0  0  0  0  0  0  0  0  0
   10.4656  -15.0994   24.0220 O   0  0  0  0  0  0  0  0  0  0  0  0
    5.8272  -12.5298   26.5251 C   0  0  0  0  0  0  0  0  0  0  0  0
    7.1317  -13.0121   25.8744 C   0  0  0  0  0  0  0  0  0  0  0  0
    7.8847  -13.8233   26.9049 C   0  0  2  0  0  0  0  0  0  0  0  0
    8.4952  -12.8804   27.9554 C   0  0  0  0  0  0  0  0  0  0  0  0
    8.9712  -14.6604   26.3629 C   0  0  2  0  0  0  0  0  0  0  0  0
    8.6024  -15.5340   25.2613 N   0  0  0  0  0  0  0  0  0  0  0  0
    9.5040  -15.5182   27.4918 C   0  0  0  0  0  0  0  0  0  0  0  0
   10.1692  -14.9786   28.3937 O   0  0  0  0  0  0  0  0  0  0  0  0
    9.2597  -16.8743   27.5253 O   0  0  0  0  0  0  0  0  0  0  0  0
  1  2  1  0
  2  3  1  0
  4  3  1  0
  5  4  1  0
  5  1  1  0
  6  7  2  0
  5  6  1  1
  9 10  2  0
  9  8  1  0
 11  9  1  0
 12 11  1  6
 12 13  1  0
 13  6  1  0
 14 12  1  0
 15 14  2  0
 17 16  1  0
 18 17  1  0
 18 20  1  0
 18 19  1  1
 20 21  1  6
 21 14  1  0
 22 20  1  0
 22 24  1  0
 23 22  2  0
M  END
$$$$
