PNI.pdb
     RDKit          3D

 24 24  0  0  1  0  0  0  0  0999 V2000
    8.9614  -15.1840   18.8865 N   0  0  0  0  0  0  0  0  0  0  0  0
    9.0218  -14.4737   17.5924 C   0  0  0  0  0  0  0  0  0  0  0  0
    7.6966  -13.7195   17.6696 C   0  0  0  0  0  0  0  0  0  0  0  0
    7.7868  -13.1378   19.0839 C   0  0  0  0  0  0  0  0  0  0  0  0
    8.6352  -14.1196   19.8134 C   0  0  1  0  0  0  0  0  0  0  0  0
    8.0516  -14.5979   21.0876 C   0  0  0  0  0  0  0  0  0  0  0  0
    7.6339  -13.7275   21.8927 O   0  0  0  0  0  0  0  0  0  0  0  0
    5.4915  -18.2793   24.3715 N   0  0  0  0  0  0  0  0  0  0  0  0
    6.8822  -18.3349   24.1461 C   0  0  0  0  0  0  0  0  0  0  0  0
    7.6261  -18.7535   25.0571 O   0  0  0  0  0  0  0  0  0  0  0  0
    7.4377  -17.9066   22.8575 C   0  0  0  0  0  0  0  0  0  0  0  0
    7.5101  -16.4156   22.6576 C   0  0  2  0  0  0  0  0  0  0  0  0
    7.9662  -15.9816   21.3912 N   0  0  0  0  0  0  0  0  0  0  0  0
    8.1942  -15.8178   23.8195 C   0  0  0  0  0  0  0  0  0  0  0  0
    9.4510  -15.7500   23.7750 O   0  0  0  0  0  0  0  0  0  0  0  0
    5.4995  -12.1300   26.8533 C   0  0  0  0  0  0  0  0  0  0  0  0
    6.6284  -12.6692   25.9630 C   0  0  0  0  0  0  0  0  0  0  0  0
    7.4514  -13.6259   26.7963 C   0  0  2  0  0  0  0  0  0  0  0  0
    8.3929  -12.8287   27.7146 C   0  0  0  0  0  0  0  0  0  0  0  0
    8.2722  -14.5755   26.0218 C   0  0  2  0  0  0  0  0  0  0  0  0
    7.5697  -15.3153   24.9865 N   0  0  0  0  0  0  0  0  0  0  0  0
    8.8718  -15.5708   26.9933 C   0  0  0  0  0  0  0  0  0  0  0  0
    8.2745  -16.6419   27.2013 O   0  0  0  0  0  0  0  0  0  0  0  0
   10.0590  -15.3008   27.6395 O   0  0  0  0  0  0  0  0  0  0  0  0
  1  2  1  0
  2  3  1  0
  4  3  1  0
  5  4  1  0
  5  1  1  0
  6  7  2  0
  5  6  1  1
  9 10  2  0
  9  8  1  0
 11  9  1  0
 12 11  1  6
 12 13  1  0
 13  6  1  0
 14 12  1  0
 15 14  2  0
 17 16  1  0
 18 17  1  0
 18 20  1  0
 18 19  1  1
 20 21  1  6
 21 14  1  0
 22 20  1  0
 22 24  1  0
 23 22  2  0
M  END
$$$$
