PNI.pdb
     RDKit          3D

 24 24  0  0  1  0  0  0  0  0999 V2000
    8.6762  -15.1135   18.8320 N   0  0  0  0  0  0  0  0  0  0  0  0
    8.6622  -14.3722   17.5540 C   0  0  0  0  0  0  0  0  0  0  0  0
    7.4120  -13.5256   17.7804 C   0  0  0  0  0  0  0  0  0  0  0  0
    7.6851  -12.9934   19.1907 C   0  0  0  0  0  0  0  0  0  0  0  0
    8.5246  -14.0554   19.8098 C   0  0  1  0  0  0  0  0  0  0  0  0
    8.0350  -14.5265   21.1255 C   0  0  0  0  0  0  0  0  0  0  0  0
    7.8266  -13.6561   22.0083 O   0  0  0  0  0  0  0  0  0  0  0  0
    6.6827  -19.4019   24.6509 N   0  0  0  0  0  0  0  0  0  0  0  0
    6.3333  -18.2057   23.9913 C   0  0  0  0  0  0  0  0  0  0  0  0
    5.4221  -17.4971   24.4668 O   0  0  0  0  0  0  0  0  0  0  0  0
    7.0356  -17.8073   22.7664 C   0  0  0  0  0  0  0  0  0  0  0  0
    7.2871  -16.3289   22.6270 C   0  0  2  0  0  0  0  0  0  0  0  0
    7.8097  -15.9037   21.3834 N   0  0  0  0  0  0  0  0  0  0  0  0
    8.0202  -15.8619   23.8185 C   0  0  0  0  0  0  0  0  0  0  0  0
    9.2674  -16.0357   23.8314 O   0  0  0  0  0  0  0  0  0  0  0  0
    5.7676  -11.7543   26.6809 C   0  0  0  0  0  0  0  0  0  0  0  0
    6.8327  -12.4559   25.8259 C   0  0  0  0  0  0  0  0  0  0  0  0
    7.5205  -13.4799   26.7008 C   0  0  2  0  0  0  0  0  0  0  0  0
    8.5391  -12.7757   27.6129 C   0  0  0  0  0  0  0  0  0  0  0  0
    8.2302  -14.5455   25.9686 C   0  0  2  0  0  0  0  0  0  0  0  0
    7.4517  -15.2384   24.9555 N   0  0  0  0  0  0  0  0  0  0  0  0
    8.7081  -15.5656   26.9809 C   0  0  0  0  0  0  0  0  0  0  0  0
    7.9807  -16.5406   27.2405 O   0  0  0  0  0  0  0  0  0  0  0  0
    9.9273  -15.4222   27.6077 O   0  0  0  0  0  0  0  0  0  0  0  0
  1  2  1  0
  2  3  1  0
  4  3  1  0
  5  4  1  0
  5  1  1  0
  6  7  2  0
  5  6  1  1
  9 10  2  0
  9  8  1  0
 11  9  1  0
 12 11  1  6
 12 13  1  0
 13  6  1  0
 14 12  1  0
 15 14  2  0
 17 16  1  0
 18 17  1  0
 18 20  1  0
 18 19  1  6
 20 21  1  6
 21 14  1  0
 22 20  1  0
 22 24  1  0
 23 22  2  0
M  END
$$$$
