AIW.pdb
     RDKit          3D

 28 29  0  0  1  0  0  0  0  0999 V2000
   27.6761  -23.8393  -17.7077 C   0  0  0  0  0  0  0  0  0  0  0  0
   28.4126  -22.5183  -17.7680 C   0  0  2  0  0  0  0  0  0  0  0  0
   29.7762  -22.6610  -18.1780 N   0  0  0  0  0  0  0  0  0  0  0  0
   28.2917  -21.8864  -16.4200 C   0  0  0  0  0  0  0  0  0  0  0  0
   29.1360  -22.1526  -15.5257 O   0  0  0  0  0  0  0  0  0  0  0  0
   28.2827  -17.1242  -16.9396 C   0  0  0  0  0  0  0  0  0  0  0  0
   28.4837  -18.1299  -15.8516 C   0  0  0  0  0  0  0  0  0  0  0  0
   27.1833  -18.6996  -15.3080 C   0  0  2  0  0  0  0  0  0  0  0  0
   26.6847  -17.8728  -14.1619 C   0  0  0  0  0  0  0  0  0  0  0  0
   27.3819  -20.1246  -14.8964 C   0  0  2  0  0  0  0  0  0  0  0  0
   27.2567  -20.9885  -16.0953 N   0  0  0  0  0  0  0  0  0  0  0  0
   26.3524  -20.6442  -13.9762 C   0  0  0  0  0  0  0  0  0  0  0  0
   25.2058  -20.9706  -14.4288 O   0  0  0  0  0  0  0  0  0  0  0  0
   26.4758  -20.8424  -12.5913 N   0  0  0  0  0  0  0  0  0  0  0  0
   25.5335  -21.5802  -11.8397 C   0  0  1  0  0  0  0  0  0  0  0  0
   25.9885  -22.2087  -10.5916 C   0  0  0  0  0  0  0  0  0  0  0  0
   26.3843  -21.1811   -9.6023 C   0  0  0  0  0  0  0  0  0  0  0  0
   25.5707  -20.1880   -9.0894 C   0  0  0  0  0  0  0  0  0  0  0  0
   26.2102  -19.4065   -8.2299 N   0  0  0  0  0  0  0  0  0  0  0  0
   27.4723  -19.8719   -8.1568 C   0  0  0  0  0  0  0  0  0  0  0  0
   28.5576  -19.4584   -7.4370 C   0  0  0  0  0  0  0  0  0  0  0  0
   29.7583  -20.1401   -7.5614 C   0  0  0  0  0  0  0  0  0  0  0  0
   29.8764  -21.2282   -8.3989 C   0  0  0  0  0  0  0  0  0  0  0  0
   28.7768  -21.6629   -9.1407 C   0  0  0  0  0  0  0  0  0  0  0  0
   27.6103  -20.9783   -9.0019 C   0  0  0  0  0  0  0  0  0  0  0  0
   24.3651  -20.7112  -11.5724 C   0  0  0  0  0  0  0  0  0  0  0  0
   23.0890  -21.1628  -11.2708 O   0  0  0  0  0  0  0  0  0  0  0  0
   24.5070  -19.4683  -11.6154 O   0  0  0  0  0  0  0  0  0  0  0  0
  2  1  1  1
  3  2  1  0
  4 11  1  0
  4  2  1  0
  5  4  2  0
  6  7  1  0
  7  8  1  0
  8  9  1  1
 10 11  1  6
 10  8  1  0
 12 10  1  0
 13 12  2  0
 14 12  1  0
 15 16  1  1
 15 14  1  0
 17 16  1  0
 18 17  2  0
 19 18  1  0
 20 19  1  0
 20 25  2  0
 21 20  1  0
 22 21  2  0
 22 23  1  0
 23 24  2  0
 24 25  1  0
 25 17  1  0
 26 15  1  0
 27 26  1  0
 28 26  2  0
M  END
$$$$
