AIW.pdb
     RDKit          3D

 28 29  0  0  1  0  0  0  0  0999 V2000
   23.2853  -16.2128  -14.5932 C   0  0  0  0  0  0  0  0  0  0  0  0
   24.7451  -16.0566  -14.9614 C   0  0  2  0  0  0  0  0  0  0  0  0
   24.9600  -15.0661  -15.9717 N   0  0  0  0  0  0  0  0  0  0  0  0
   25.2395  -17.4033  -15.3772 C   0  0  0  0  0  0  0  0  0  0  0  0
   24.8312  -17.9160  -16.4515 O   0  0  0  0  0  0  0  0  0  0  0  0
   30.2976  -18.2009  -15.7310 C   0  0  0  0  0  0  0  0  0  0  0  0
   28.8099  -18.2961  -15.8475 C   0  0  0  0  0  0  0  0  0  0  0  0
   28.2045  -19.3856  -14.9772 C   0  0  2  0  0  0  0  0  0  0  0  0
   28.8028  -20.7186  -15.3100 C   0  0  0  0  0  0  0  0  0  0  0  0
   26.7176  -19.4069  -15.1453 C   0  0  2  0  0  0  0  0  0  0  0  0
   26.1594  -18.1421  -14.6086 N   0  0  0  0  0  0  0  0  0  0  0  0
   26.0296  -20.4556  -14.3683 C   0  0  0  0  0  0  0  0  0  0  0  0
   25.6101  -21.5064  -14.9565 O   0  0  0  0  0  0  0  0  0  0  0  0
   25.7645  -20.4522  -12.9892 N   0  0  0  0  0  0  0  0  0  0  0  0
   25.1897  -21.5566  -12.3204 C   0  0  1  0  0  0  0  0  0  0  0  0
   25.9427  -22.1574  -11.2105 C   0  0  0  0  0  0  0  0  0  0  0  0
   26.1372  -21.1767  -10.1188 C   0  0  0  0  0  0  0  0  0  0  0  0
   25.1566  -20.3851   -9.5506 C   0  0  0  0  0  0  0  0  0  0  0  0
   25.6357  -19.5934   -8.6009 N   0  0  0  0  0  0  0  0  0  0  0  0
   26.9561  -19.8482   -8.5215 C   0  0  0  0  0  0  0  0  0  0  0  0
   27.9397  -19.3306   -7.7267 C   0  0  0  0  0  0  0  0  0  0  0  0
   29.2405  -19.7892   -7.8656 C   0  0  0  0  0  0  0  0  0  0  0  0
   29.5592  -20.7586   -8.7920 C   0  0  0  0  0  0  0  0  0  0  0  0
   28.5655  -21.2971   -9.6112 C   0  0  0  0  0  0  0  0  0  0  0  0
   27.2976  -20.8314   -9.4563 C   0  0  0  0  0  0  0  0  0  0  0  0
   23.8345  -21.1734  -11.8642 C   0  0  0  0  0  0  0  0  0  0  0  0
   22.8803  -22.0529  -11.3752 O   0  0  0  0  0  0  0  0  0  0  0  0
   23.4925  -19.9702  -11.9120 O   0  0  0  0  0  0  0  0  0  0  0  0
  2  1  1  6
  3  2  1  0
  4 11  1  0
  4  2  1  0
  5  4  2  0
  6  7  1  0
  7  8  1  0
  8  9  1  6
 10 11  1  1
 10  8  1  0
 12 10  1  0
 13 12  2  0
 14 12  1  0
 15 16  1  1
 15 14  1  0
 17 16  1  0
 18 17  2  0
 19 18  1  0
 20 19  1  0
 20 25  2  0
 21 20  1  0
 22 21  2  0
 22 23  1  0
 23 24  2  0
 24 25  1  0
 25 17  1  0
 26 15  1  0
 27 26  1  0
 28 26  2  0
M  END
$$$$
