AIW.pdb
     RDKit          3D

 28 29  0  0  1  0  0  0  0  0999 V2000
   23.5965  -18.0978  -13.3986 C   0  0  0  0  0  0  0  0  0  0  0  0
   24.9176  -18.2942  -14.1109 C   0  0  2  0  0  0  0  0  0  0  0  0
   24.7821  -18.3187  -15.5353 N   0  0  0  0  0  0  0  0  0  0  0  0
   25.5199  -19.5535  -13.5794 C   0  0  0  0  0  0  0  0  0  0  0  0
   25.1877  -20.6628  -14.0719 O   0  0  0  0  0  0  0  0  0  0  0  0
   30.7131  -19.6965  -12.9012 C   0  0  0  0  0  0  0  0  0  0  0  0
   29.2603  -19.9870  -13.1037 C   0  0  0  0  0  0  0  0  0  0  0  0
   28.5746  -20.5320  -11.8612 C   0  0  2  0  0  0  0  0  0  0  0  0
   29.2814  -21.7562  -11.3638 C   0  0  0  0  0  0  0  0  0  0  0  0
   27.1371  -20.8244  -12.1574 C   0  0  2  0  0  0  0  0  0  0  0  0
   26.4609  -19.5588  -12.5320 N   0  0  0  0  0  0  0  0  0  0  0  0
   26.3616  -21.3116  -11.0008 C   0  0  0  0  0  0  0  0  0  0  0  0
   26.4323  -22.5394  -10.6634 O   0  0  0  0  0  0  0  0  0  0  0  0
   25.5118  -20.5601  -10.1729 N   0  0  0  0  0  0  0  0  0  0  0  0
   24.7339  -21.1440   -9.1476 C   0  0  1  0  0  0  0  0  0  0  0  0
   24.8108  -20.5535   -7.8040 C   0  0  0  0  0  0  0  0  0  0  0  0
   26.1143  -19.8819   -7.6014 C   0  0  0  0  0  0  0  0  0  0  0  0
   26.6481  -18.8832   -8.3946 C   0  0  0  0  0  0  0  0  0  0  0  0
   27.8401  -18.4860   -7.9705 N   0  0  0  0  0  0  0  0  0  0  0  0
   28.1211  -19.2217   -6.8775 C   0  0  0  0  0  0  0  0  0  0  0  0
   29.2021  -19.2392   -6.0420 C   0  0  0  0  0  0  0  0  0  0  0  0
   29.2228  -20.1206   -4.9721 C   0  0  0  0  0  0  0  0  0  0  0  0
   28.1714  -20.9800   -4.7366 C   0  0  0  0  0  0  0  0  0  0  0  0
   27.0601  -20.9741   -5.5811 C   0  0  0  0  0  0  0  0  0  0  0  0
   27.0630  -20.1009   -6.6233 C   0  0  0  0  0  0  0  0  0  0  0  0
   23.3251  -21.1926   -9.5996 C   0  0  0  0  0  0  0  0  0  0  0  0
   22.2842  -21.7847   -8.9002 O   0  0  0  0  0  0  0  0  0  0  0  0
   23.0173  -20.6687  -10.6941 O   0  0  0  0  0  0  0  0  0  0  0  0
  2  1  1  1
  3  2  1  0
  4 11  1  0
  4  2  1  0
  5  4  2  0
  6  7  1  0
  7  8  1  0
  8  9  1  6
 10 11  1  1
 10  8  1  0
 12 10  1  0
 13 12  2  0
 14 12  1  0
 15 16  1  1
 15 14  1  0
 17 16  1  0
 18 17  2  0
 19 18  1  0
 20 19  1  0
 20 25  2  0
 21 20  1  0
 22 21  2  0
 22 23  1  0
 23 24  2  0
 24 25  1  0
 25 17  1  0
 26 15  1  0
 27 26  1  0
 28 26  2  0
M  END
$$$$
