AIW.pdb
     RDKit          3D

 28 29  0  0  1  0  0  0  0  0999 V2000
   25.8213  -24.1828  -16.0984 C   0  0  0  0  0  0  0  0  0  0  0  0
   26.6657  -23.0884  -16.7152 C   0  0  2  0  0  0  0  0  0  0  0  0
   27.7114  -23.5974  -17.5492 N   0  0  0  0  0  0  0  0  0  0  0  0
   27.1935  -22.2560  -15.5930 C   0  0  0  0  0  0  0  0  0  0  0  0
   28.3777  -22.4154  -15.1984 O   0  0  0  0  0  0  0  0  0  0  0  0
   27.0856  -16.5613  -13.6430 C   0  0  0  0  0  0  0  0  0  0  0  0
   27.2719  -18.0017  -13.2875 C   0  0  0  0  0  0  0  0  0  0  0  0
   26.7065  -18.9579  -14.3252 C   0  0  2  0  0  0  0  0  0  0  0  0
   25.2246  -18.7775  -14.4554 C   0  0  0  0  0  0  0  0  0  0  0  0
   27.0462  -20.3687  -13.9592 C   0  0  2  0  0  0  0  0  0  0  0  0
   26.4132  -21.2813  -14.9420 N   0  0  0  0  0  0  0  0  0  0  0  0
   26.5008  -20.8117  -12.6619 C   0  0  0  0  0  0  0  0  0  0  0  0
   25.3959  -21.4473  -12.6237 O   0  0  0  0  0  0  0  0  0  0  0  0
   27.0709  -20.6197  -11.3929 N   0  0  0  0  0  0  0  0  0  0  0  0
   26.6177  -21.3033  -10.2419 C   0  0  1  0  0  0  0  0  0  0  0  0
   27.5774  -21.5276   -9.1518 C   0  0  0  0  0  0  0  0  0  0  0  0
   27.4654  -20.4634   -8.1289 C   0  0  0  0  0  0  0  0  0  0  0  0
   26.6927  -19.3209   -8.2231 C   0  0  0  0  0  0  0  0  0  0  0  0
   26.8066  -18.5459   -7.1532 N   0  0  0  0  0  0  0  0  0  0  0  0
   27.6659  -19.1665   -6.3219 C   0  0  0  0  0  0  0  0  0  0  0  0
   28.1483  -18.8289   -5.0889 C   0  0  0  0  0  0  0  0  0  0  0  0
   29.0418  -19.6754   -4.4510 C   0  0  0  0  0  0  0  0  0  0  0  0
   29.4521  -20.8523   -5.0391 C   0  0  0  0  0  0  0  0  0  0  0  0
   28.9683  -21.2112   -6.2983 C   0  0  0  0  0  0  0  0  0  0  0  0
   28.0932  -20.3649   -6.9038 C   0  0  0  0  0  0  0  0  0  0  0  0
   25.4187  -20.6053   -9.7255 C   0  0  0  0  0  0  0  0  0  0  0  0
   24.4319  -21.1886   -8.9449 O   0  0  0  0  0  0  0  0  0  0  0  0
   25.2531  -19.3948   -9.9978 O   0  0  0  0  0  0  0  0  0  0  0  0
  2  1  1  1
  3  2  1  0
  4 11  1  0
  4  2  1  0
  5  4  2  0
  6  7  1  0
  7  8  1  0
  8  9  1  1
 10 11  1  6
 10  8  1  0
 12 10  1  0
 13 12  2  0
 14 12  1  0
 15 16  1  1
 15 14  1  0
 17 16  1  0
 18 17  2  0
 19 18  1  0
 20 19  1  0
 20 25  2  0
 21 20  1  0
 22 21  2  0
 22 23  1  0
 23 24  2  0
 24 25  1  0
 25 17  1  0
 26 15  1  0
 27 26  1  0
 28 26  2  0
M  END
$$$$
