AIW.pdb
     RDKit          3D

 28 29  0  0  1  0  0  0  0  0999 V2000
   25.2821  -19.2080  -18.0564 C   0  0  0  0  0  0  0  0  0  0  0  0
   23.8963  -19.7962  -17.8986 C   0  0  2  0  0  0  0  0  0  0  0  0
   22.9397  -19.2096  -18.7868 N   0  0  0  0  0  0  0  0  0  0  0  0
   23.5104  -19.6321  -16.4651 C   0  0  0  0  0  0  0  0  0  0  0  0
   23.2909  -18.4822  -16.0035 O   0  0  0  0  0  0  0  0  0  0  0  0
   20.0624  -21.2746  -15.9738 C   0  0  0  0  0  0  0  0  0  0  0  0
   20.4414  -20.6795  -14.6555 C   0  0  0  0  0  0  0  0  0  0  0  0
   21.6458  -21.3498  -14.0143 C   0  0  2  0  0  0  0  0  0  0  0  0
   21.3958  -21.6004  -12.5582 C   0  0  0  0  0  0  0  0  0  0  0  0
   22.8660  -20.5064  -14.2127 C   0  0  2  0  0  0  0  0  0  0  0  0
   23.3779  -20.7251  -15.5873 N   0  0  0  0  0  0  0  0  0  0  0  0
   24.0059  -20.8677  -13.3485 C   0  0  0  0  0  0  0  0  0  0  0  0
   24.4749  -22.0532  -13.3824 O   0  0  0  0  0  0  0  0  0  0  0  0
   24.6840  -20.0318  -12.4465 N   0  0  0  0  0  0  0  0  0  0  0  0
   25.7135  -20.5002  -11.5991 C   0  0  1  0  0  0  0  0  0  0  0  0
   26.6091  -19.5069  -10.9900 C   0  0  0  0  0  0  0  0  0  0  0  0
   27.6007  -20.1661  -10.1105 C   0  0  0  0  0  0  0  0  0  0  0  0
   28.5343  -21.1089  -10.4986 C   0  0  0  0  0  0  0  0  0  0  0  0
   29.2784  -21.5285   -9.4843 N   0  0  0  0  0  0  0  0  0  0  0  0
   28.8471  -20.8649   -8.3942 C   0  0  0  0  0  0  0  0  0  0  0  0
   29.2453  -20.8990   -7.0876 C   0  0  0  0  0  0  0  0  0  0  0  0
   28.6080  -20.0903   -6.1593 C   0  0  0  0  0  0  0  0  0  0  0  0
   27.5794  -19.2521   -6.5315 C   0  0  0  0  0  0  0  0  0  0  0  0
   27.1612  -19.2058   -7.8624 C   0  0  0  0  0  0  0  0  0  0  0  0
   27.8013  -20.0080   -8.7542 C   0  0  0  0  0  0  0  0  0  0  0  0
   25.1049  -21.3456  -10.5473 C   0  0  0  0  0  0  0  0  0  0  0  0
   25.5408  -22.6137  -10.1933 O   0  0  0  0  0  0  0  0  0  0  0  0
   24.1185  -20.9115   -9.9106 O   0  0  0  0  0  0  0  0  0  0  0  0
  2  1  1  1
  3  2  1  0
  4 11  1  0
  4  2  1  0
  5  4  2  0
  6  7  1  0
  7  8  1  0
  8  9  1  1
 10 11  1  6
 10  8  1  0
 12 10  1  0
 13 12  2  0
 14 12  1  0
 15 16  1  1
 15 14  1  0
 17 16  1  0
 18 17  2  0
 19 18  1  0
 20 19  1  0
 20 25  2  0
 21 20  1  0
 22 21  2  0
 22 23  1  0
 23 24  2  0
 24 25  1  0
 25 17  1  0
 26 15  1  0
 27 26  1  0
 28 26  2  0
M  END
$$$$
