AIW.pdb
     RDKit          3D

 28 29  0  0  1  0  0  0  0  0999 V2000
   24.0509  -16.5648  -14.7322 C   0  0  0  0  0  0  0  0  0  0  0  0
   25.5270  -16.5507  -15.0670 C   0  0  2  0  0  0  0  0  0  0  0  0
   25.8324  -15.7258  -16.1959 N   0  0  0  0  0  0  0  0  0  0  0  0
   25.9433  -17.9698  -15.2758 C   0  0  0  0  0  0  0  0  0  0  0  0
   25.5362  -18.5995  -16.2864 O   0  0  0  0  0  0  0  0  0  0  0  0
   30.3678  -20.1758  -12.4468 C   0  0  0  0  0  0  0  0  0  0  0  0
   28.9377  -20.1775  -12.8832 C   0  0  0  0  0  0  0  0  0  0  0  0
   28.7654  -20.0473  -14.3880 C   0  0  2  0  0  0  0  0  0  0  0  0
   29.4857  -18.8361  -14.8976 C   0  0  0  0  0  0  0  0  0  0  0  0
   27.3102  -19.9921  -14.7330 C   0  0  2  0  0  0  0  0  0  0  0  0
   26.7869  -18.6508  -14.3774 N   0  0  0  0  0  0  0  0  0  0  0  0
   26.4630  -20.9196  -13.9593 C   0  0  0  0  0  0  0  0  0  0  0  0
   26.5545  -22.1759  -14.1584 O   0  0  0  0  0  0  0  0  0  0  0  0
   25.5196  -20.5844  -12.9744 N   0  0  0  0  0  0  0  0  0  0  0  0
   24.8133  -21.5579  -12.2322 C   0  0  1  0  0  0  0  0  0  0  0  0
   25.4664  -22.1257  -11.0445 C   0  0  0  0  0  0  0  0  0  0  0  0
   25.6387  -21.0929   -9.9981 C   0  0  0  0  0  0  0  0  0  0  0  0
   24.6688  -20.2134   -9.5541 C   0  0  0  0  0  0  0  0  0  0  0  0
   25.1233  -19.3938   -8.6160 N   0  0  0  0  0  0  0  0  0  0  0  0
   26.4159  -19.7182   -8.4190 C   0  0  0  0  0  0  0  0  0  0  0  0
   27.3671  -19.2101   -7.5801 C   0  0  0  0  0  0  0  0  0  0  0  0
   28.6441  -19.7498   -7.5905 C   0  0  0  0  0  0  0  0  0  0  0  0
   28.9709  -20.7905   -8.4328 C   0  0  0  0  0  0  0  0  0  0  0  0
   28.0101  -21.3205   -9.2956 C   0  0  0  0  0  0  0  0  0  0  0  0
   26.7652  -20.7746   -9.2672 C   0  0  0  0  0  0  0  0  0  0  0  0
   23.4926  -20.9987  -11.8653 C   0  0  0  0  0  0  0  0  0  0  0  0
   22.4414  -21.7258  -11.3273 O   0  0  0  0  0  0  0  0  0  0  0  0
   23.2761  -19.7787  -12.0433 O   0  0  0  0  0  0  0  0  0  0  0  0
  2  1  1  6
  3  2  1  0
  4 11  1  0
  4  2  1  0
  5  4  2  0
  6  7  1  0
  7  8  1  0
  8  9  1  1
 10 11  1  1
 10  8  1  0
 12 10  1  0
 13 12  2  0
 14 12  1  0
 15 16  1  1
 15 14  1  0
 17 16  1  0
 18 17  2  0
 19 18  1  0
 20 19  1  0
 20 25  2  0
 21 20  1  0
 22 21  2  0
 22 23  1  0
 23 24  2  0
 24 25  1  0
 25 17  1  0
 26 15  1  0
 27 26  1  0
 28 26  2  0
M  END
$$$$
