AIW.pdb
     RDKit          3D

 28 29  0  0  1  0  0  0  0  0999 V2000
   26.2447  -24.1990  -17.6169 C   0  0  0  0  0  0  0  0  0  0  0  0
   27.5479  -23.4292  -17.6320 C   0  0  2  0  0  0  0  0  0  0  0  0
   28.6946  -24.2806  -17.7236 N   0  0  0  0  0  0  0  0  0  0  0  0
   27.5712  -22.5814  -16.4025 C   0  0  0  0  0  0  0  0  0  0  0  0
   28.0363  -23.0466  -15.3298 O   0  0  0  0  0  0  0  0  0  0  0  0
   28.3126  -17.7290  -17.5674 C   0  0  0  0  0  0  0  0  0  0  0  0
   28.5581  -18.6592  -16.4227 C   0  0  0  0  0  0  0  0  0  0  0  0
   27.3059  -18.9723  -15.6196 C   0  0  2  0  0  0  0  0  0  0  0  0
   27.1984  -18.0605  -14.4352 C   0  0  0  0  0  0  0  0  0  0  0  0
   27.3168  -20.4070  -15.1942 C   0  0  2  0  0  0  0  0  0  0  0  0
   27.0875  -21.2590  -16.3861 N   0  0  0  0  0  0  0  0  0  0  0  0
   26.2240  -20.7806  -14.2761 C   0  0  0  0  0  0  0  0  0  0  0  0
   25.0538  -20.9903  -14.7374 O   0  0  0  0  0  0  0  0  0  0  0  0
   26.3068  -20.9498  -12.8844 N   0  0  0  0  0  0  0  0  0  0  0  0
   25.2023  -21.3474  -12.0975 C   0  0  1  0  0  0  0  0  0  0  0  0
   25.4742  -22.0152  -10.8169 C   0  0  0  0  0  0  0  0  0  0  0  0
   26.2331  -21.1226   -9.9120 C   0  0  0  0  0  0  0  0  0  0  0  0
   25.7154  -20.0633   -9.1901 C   0  0  0  0  0  0  0  0  0  0  0  0
   26.6425  -19.4389   -8.4766 N   0  0  0  0  0  0  0  0  0  0  0  0
   27.8034  -20.0793   -8.7151 C   0  0  0  0  0  0  0  0  0  0  0  0
   29.0726  -19.8709   -8.2538 C   0  0  0  0  0  0  0  0  0  0  0  0
   30.0973  -20.7030   -8.6775 C   0  0  0  0  0  0  0  0  0  0  0  0
   29.8581  -21.7372   -9.5563 C   0  0  0  0  0  0  0  0  0  0  0  0
   28.5670  -21.9629  -10.0365 C   0  0  0  0  0  0  0  0  0  0  0  0
   27.5789  -21.1338   -9.6067 C   0  0  0  0  0  0  0  0  0  0  0  0
   24.3348  -20.1678  -11.8794 C   0  0  0  0  0  0  0  0  0  0  0  0
   22.9879  -20.2191  -11.5528 O   0  0  0  0  0  0  0  0  0  0  0  0
   24.8245  -19.0214  -11.9922 O   0  0  0  0  0  0  0  0  0  0  0  0
  2  1  1  1
  3  2  1  0
  4 11  1  0
  4  2  1  0
  5  4  2  0
  6  7  1  0
  7  8  1  0
  8  9  1  1
 10 11  1  6
 10  8  1  0
 12 10  1  0
 13 12  2  0
 14 12  1  0
 15 16  1  1
 15 14  1  0
 17 16  1  0
 18 17  2  0
 19 18  1  0
 20 19  1  0
 20 25  2  0
 21 20  1  0
 22 21  2  0
 22 23  1  0
 23 24  2  0
 24 25  1  0
 25 17  1  0
 26 15  1  0
 27 26  1  0
 28 26  2  0
M  END
$$$$
