AIW.pdb
     RDKit          3D

 28 29  0  0  1  0  0  0  0  0999 V2000
   27.0473  -23.4583  -16.7985 C   0  0  0  0  0  0  0  0  0  0  0  0
   27.7416  -22.1226  -16.9570 C   0  0  2  0  0  0  0  0  0  0  0  0
   28.8862  -22.1900  -17.8134 N   0  0  0  0  0  0  0  0  0  0  0  0
   28.0899  -21.6436  -15.5858 C   0  0  0  0  0  0  0  0  0  0  0  0
   29.1993  -21.9516  -15.0780 O   0  0  0  0  0  0  0  0  0  0  0  0
   26.1172  -16.8091  -14.0957 C   0  0  0  0  0  0  0  0  0  0  0  0
   26.2422  -18.2934  -13.9644 C   0  0  0  0  0  0  0  0  0  0  0  0
   27.6615  -18.7570  -13.6790 C   0  0  2  0  0  0  0  0  0  0  0  0
   28.5946  -18.2887  -14.7541 C   0  0  0  0  0  0  0  0  0  0  0  0
   27.6961  -20.2475  -13.5491 C   0  0  2  0  0  0  0  0  0  0  0  0
   27.2183  -20.8474  -14.8183 N   0  0  0  0  0  0  0  0  0  0  0  0
   26.7782  -20.7937  -12.5313 C   0  0  0  0  0  0  0  0  0  0  0  0
   25.7201  -21.4047  -12.8962 O   0  0  0  0  0  0  0  0  0  0  0  0
   26.9254  -20.7305  -11.1361 N   0  0  0  0  0  0  0  0  0  0  0  0
   26.0395  -21.3784  -10.2457 C   0  0  1  0  0  0  0  0  0  0  0  0
   26.5680  -21.8176   -8.9466 C   0  0  0  0  0  0  0  0  0  0  0  0
   26.8597  -20.6535   -8.0799 C   0  0  0  0  0  0  0  0  0  0  0  0
   26.4333  -19.3551   -8.2888 C   0  0  0  0  0  0  0  0  0  0  0  0
   26.8642  -18.5257   -7.3482 N   0  0  0  0  0  0  0  0  0  0  0  0
   27.5917  -19.2666   -6.4899 C   0  0  0  0  0  0  0  0  0  0  0  0
   28.2676  -18.9403   -5.3481 C   0  0  0  0  0  0  0  0  0  0  0  0
   28.9455  -19.9285   -4.6511 C   0  0  0  0  0  0  0  0  0  0  0  0
   28.9496  -21.2349   -5.0900 C   0  0  0  0  0  0  0  0  0  0  0  0
   28.2638  -21.5840   -6.2546 C   0  0  0  0  0  0  0  0  0  0  0  0
   27.6066  -20.5976   -6.9207 C   0  0  0  0  0  0  0  0  0  0  0  0
   24.8594  -20.5077  -10.0442 C   0  0  0  0  0  0  0  0  0  0  0  0
   23.6422  -20.9232   -9.5254 O   0  0  0  0  0  0  0  0  0  0  0  0
   24.9334  -19.2980  -10.3574 O   0  0  0  0  0  0  0  0  0  0  0  0
  2  1  1  1
  3  2  1  0
  4 11  1  0
  4  2  1  0
  5  4  2  0
  6  7  1  0
  7  8  1  0
  8  9  1  6
 10 11  1  6
 10  8  1  0
 12 10  1  0
 13 12  2  0
 14 12  1  0
 15 16  1  1
 15 14  1  0
 17 16  1  0
 18 17  2  0
 19 18  1  0
 20 19  1  0
 20 25  2  0
 21 20  1  0
 22 21  2  0
 22 23  1  0
 23 24  2  0
 24 25  1  0
 25 17  1  0
 26 15  1  0
 27 26  1  0
 28 26  2  0
M  END
$$$$
