AIW.pdb
     RDKit          3D

 28 29  0  0  1  0  0  0  0  0999 V2000
   25.0688  -23.9942  -15.7405 C   0  0  0  0  0  0  0  0  0  0  0  0
   26.0232  -22.9777  -16.3293 C   0  0  2  0  0  0  0  0  0  0  0  0
   27.0274  -23.5731  -17.1570 N   0  0  0  0  0  0  0  0  0  0  0  0
   26.6119  -22.2154  -15.1877 C   0  0  0  0  0  0  0  0  0  0  0  0
   27.6008  -22.6834  -14.5659 O   0  0  0  0  0  0  0  0  0  0  0  0
   27.0033  -17.9001  -16.3250 C   0  0  0  0  0  0  0  0  0  0  0  0
   27.6688  -18.3763  -15.0736 C   0  0  0  0  0  0  0  0  0  0  0  0
   26.6887  -18.7591  -13.9765 C   0  0  2  0  0  0  0  0  0  0  0  0
   26.9373  -17.9473  -12.7416 C   0  0  0  0  0  0  0  0  0  0  0  0
   26.7922  -20.2236  -13.6867 C   0  0  2  0  0  0  0  0  0  0  0  0
   26.1026  -20.9725  -14.7651 N   0  0  0  0  0  0  0  0  0  0  0  0
   26.0990  -20.6539  -12.4574 C   0  0  0  0  0  0  0  0  0  0  0  0
   24.8476  -20.8975  -12.4888 O   0  0  0  0  0  0  0  0  0  0  0  0
   26.6667  -20.8460  -11.1873 N   0  0  0  0  0  0  0  0  0  0  0  0
   25.9190  -21.3052  -10.0794 C   0  0  1  0  0  0  0  0  0  0  0  0
   26.6558  -21.7438   -8.8858 C   0  0  0  0  0  0  0  0  0  0  0  0
   27.0806  -20.5797   -8.0760 C   0  0  0  0  0  0  0  0  0  0  0  0
   26.7429  -19.2593   -8.3078 C   0  0  0  0  0  0  0  0  0  0  0  0
   27.2850  -18.4372   -7.4197 N   0  0  0  0  0  0  0  0  0  0  0  0
   27.9992  -19.2054   -6.5745 C   0  0  0  0  0  0  0  0  0  0  0  0
   28.7578  -18.8975   -5.4806 C   0  0  0  0  0  0  0  0  0  0  0  0
   29.3954  -19.9132   -4.7851 C   0  0  0  0  0  0  0  0  0  0  0  0
   29.2772  -21.2288   -5.1780 C   0  0  0  0  0  0  0  0  0  0  0  0
   28.5058  -21.5595   -6.2933 C   0  0  0  0  0  0  0  0  0  0  0  0
   27.8903  -20.5462   -6.9589 C   0  0  0  0  0  0  0  0  0  0  0  0
   24.9369  -20.2600   -9.7126 C   0  0  0  0  0  0  0  0  0  0  0  0
   23.7726  -20.4790   -8.9915 O   0  0  0  0  0  0  0  0  0  0  0  0
   25.1438  -19.0774  -10.0669 O   0  0  0  0  0  0  0  0  0  0  0  0
  2  1  1  1
  3  2  1  0
  4 11  1  0
  4  2  1  0
  5  4  2  0
  6  7  1  0
  7  8  1  0
  8  9  1  1
 10 11  1  6
 10  8  1  0
 12 10  1  0
 13 12  2  0
 14 12  1  0
 15 16  1  1
 15 14  1  0
 17 16  1  0
 18 17  2  0
 19 18  1  0
 20 19  1  0
 20 25  2  0
 21 20  1  0
 22 21  2  0
 22 23  1  0
 23 24  2  0
 24 25  1  0
 25 17  1  0
 26 15  1  0
 27 26  1  0
 28 26  2  0
M  END
$$$$
