AIW.pdb
     RDKit          3D

 28 29  0  0  1  0  0  0  0  0999 V2000
   28.7409  -17.8887  -14.8353 C   0  0  0  0  0  0  0  0  0  0  0  0
   27.5399  -18.5577  -15.4686 C   0  0  2  0  0  0  0  0  0  0  0  0
   27.0268  -17.8314  -16.5899 N   0  0  0  0  0  0  0  0  0  0  0  0
   26.5175  -18.7329  -14.3940 C   0  0  0  0  0  0  0  0  0  0  0  0
   25.8641  -17.7390  -13.9833 O   0  0  0  0  0  0  0  0  0  0  0  0
   22.3902  -21.4298  -15.1473 C   0  0  0  0  0  0  0  0  0  0  0  0
   23.4084  -20.5066  -14.5585 C   0  0  0  0  0  0  0  0  0  0  0  0
   24.1401  -21.0973  -13.3641 C   0  0  2  0  0  0  0  0  0  0  0  0
   23.1671  -21.5073  -12.3007 C   0  0  0  0  0  0  0  0  0  0  0  0
   25.1323  -20.1107  -12.8333 C   0  0  2  0  0  0  0  0  0  0  0  0
   26.2442  -19.9830  -13.8062 N   0  0  0  0  0  0  0  0  0  0  0  0
   25.7997  -20.5264  -11.5849 C   0  0  0  0  0  0  0  0  0  0  0  0
   26.6404  -21.4851  -11.6058 O   0  0  0  0  0  0  0  0  0  0  0  0
   25.6260  -19.9728  -10.3060 N   0  0  0  0  0  0  0  0  0  0  0  0
   26.3312  -20.4361   -9.1723 C   0  0  1  0  0  0  0  0  0  0  0  0
   27.1437  -19.4670   -8.4235 C   0  0  0  0  0  0  0  0  0  0  0  0
   27.8723  -20.1356   -7.3219 C   0  0  0  0  0  0  0  0  0  0  0  0
   28.2037  -21.4763   -7.2601 C   0  0  0  0  0  0  0  0  0  0  0  0
   28.8454  -21.7857   -6.1417 N   0  0  0  0  0  0  0  0  0  0  0  0
   28.9520  -20.6442   -5.4344 C   0  0  0  0  0  0  0  0  0  0  0  0
   29.5128  -20.3726   -4.2183 C   0  0  0  0  0  0  0  0  0  0  0  0
   29.4753  -19.0779   -3.7241 C   0  0  0  0  0  0  0  0  0  0  0  0
   28.8820  -18.0595   -4.4383 C   0  0  0  0  0  0  0  0  0  0  0  0
   28.3048  -18.3210   -5.6820 C   0  0  0  0  0  0  0  0  0  0  0  0
   28.3541  -19.5982   -6.1456 C   0  0  0  0  0  0  0  0  0  0  0  0
   25.3703  -21.1007   -8.2633 C   0  0  0  0  0  0  0  0  0  0  0  0
   25.6548  -22.2031   -7.4714 O   0  0  0  0  0  0  0  0  0  0  0  0
   24.2022  -20.6582   -8.1813 O   0  0  0  0  0  0  0  0  0  0  0  0
  2  1  1  1
  3  2  1  0
  4 11  1  0
  4  2  1  0
  5  4  2  0
  6  7  1  0
  7  8  1  0
  8  9  1  1
 10 11  1  6
 10  8  1  0
 12 10  1  0
 13 12  2  0
 14 12  1  0
 15 16  1  1
 15 14  1  0
 17 16  1  0
 18 17  2  0
 19 18  1  0
 20 19  1  0
 20 25  2  0
 21 20  1  0
 22 21  2  0
 22 23  1  0
 23 24  2  0
 24 25  1  0
 25 17  1  0
 26 15  1  0
 27 26  1  0
 28 26  2  0
M  END
$$$$
