TPT.pdb
     RDKit          3D

 22 22  0  0  1  0  0  0  0  0999 V2000
   30.7697   -9.6073  -18.1544 C   0  0  0  0  0  0  0  0  0  0  0  0
   29.3316   -9.3262  -17.8388 C   0  0  1  0  0  0  0  0  0  0  0  0
   28.9094   -8.1872  -18.5404 O   0  0  0  0  0  0  0  0  0  0  0  0
   28.4150  -10.4513  -18.3472 C   0  0  2  0  0  0  0  0  0  0  0  0
   28.6006  -10.5711  -19.7974 N   0  0  0  0  0  0  0  0  0  0  0  0
   27.0378  -10.0215  -18.0413 C   0  0  0  0  0  0  0  0  0  0  0  0
   26.5711   -9.0568  -18.6929 O   0  0  0  0  0  0  0  0  0  0  0  0
   26.2324  -10.6373  -17.0643 N   0  0  0  0  0  0  0  0  0  0  0  0
   26.6226  -11.8127  -16.3119 C   0  0  0  0  0  0  0  0  0  0  0  0
   26.2746  -11.3285  -14.8973 C   0  0  0  0  0  0  0  0  0  0  0  0
   24.8370  -10.8651  -15.1868 C   0  0  0  0  0  0  0  0  0  0  0  0
   24.9217  -10.2765  -16.6000 C   0  0  1  0  0  0  0  0  0  0  0  0
   24.6851   -8.8366  -16.4475 C   0  0  0  0  0  0  0  0  0  0  0  0
   25.4351   -7.9832  -15.9684 O   0  0  0  0  0  0  0  0  0  0  0  0
   23.7563   -6.7359  -19.2931 C   0  0  0  0  0  0  0  0  0  0  0  0
   22.6170   -6.5909  -18.2935 C   0  0  1  0  0  0  0  0  0  0  0  0
   21.5918   -7.4036  -18.7335 O   0  0  0  0  0  0  0  0  0  0  0  0
   23.0593   -6.9606  -16.8836 C   0  0  2  0  0  0  0  0  0  0  0  0
   23.4108   -8.3601  -16.9194 N   0  0  0  0  0  0  0  0  0  0  0  0
   22.0525   -6.6388  -15.8809 C   0  0  0  0  0  0  0  0  0  0  0  0
   21.7841   -5.3266  -15.5396 O   0  0  0  0  0  0  0  0  0  0  0  0
   21.4082   -7.5435  -15.3061 O   0  0  0  0  0  0  0  0  0  0  0  0
  2  3  1  0
  2  1  1  6
  4  5  1  6
  4  2  1  0
  6  4  1  0
  7  6  2  0
  8  6  1  0
  9 10  1  0
  9  8  1  0
 10 11  1  0
 12 11  1  0
 12  8  1  0
 12 13  1  1
 13 19  1  0
 13 14  2  0
 16 15  1  6
 16 17  1  0
 16 18  1  0
 18 20  1  0
 18 19  1  6
 20 22  2  0
 20 21  1  0
M  END
$$$$
