TPT.pdb
     RDKit          3D

 22 22  0  0  1  0  0  0  0  0999 V2000
   20.0203  -12.6373  -17.2385 C   0  0  0  0  0  0  0  0  0  0  0  0
   19.9258  -11.1965  -16.8359 C   0  0  1  0  0  0  0  0  0  0  0  0
   19.9422  -10.3855  -17.9803 O   0  0  0  0  0  0  0  0  0  0  0  0
   18.5761  -10.8880  -16.1667 C   0  0  2  0  0  0  0  0  0  0  0  0
   17.5155  -11.1068  -17.1562 N   0  0  0  0  0  0  0  0  0  0  0  0
   18.6307   -9.4657  -15.7809 C   0  0  0  0  0  0  0  0  0  0  0  0
   18.9440   -8.6343  -16.6661 O   0  0  0  0  0  0  0  0  0  0  0  0
   18.3497   -9.0037  -14.4809 N   0  0  0  0  0  0  0  0  0  0  0  0
   17.7106   -9.8026  -13.4546 C   0  0  0  0  0  0  0  0  0  0  0  0
   18.6766   -9.5324  -12.2924 C   0  0  0  0  0  0  0  0  0  0  0  0
   18.6825   -7.9972  -12.3832 C   0  0  0  0  0  0  0  0  0  0  0  0
   18.6128   -7.7211  -13.8897 C   0  0  1  0  0  0  0  0  0  0  0  0
   19.9029   -7.1198  -14.2455 C   0  0  0  0  0  0  0  0  0  0  0  0
   20.9611   -7.6866  -14.5267 O   0  0  0  0  0  0  0  0  0  0  0  0
   21.8412   -2.7267  -15.5643 C   0  0  0  0  0  0  0  0  0  0  0  0
   20.6751   -3.5635  -15.0561 C   0  0  1  0  0  0  0  0  0  0  0  0
   19.7535   -3.6311  -16.0813 O   0  0  0  0  0  0  0  0  0  0  0  0
   21.1299   -4.9501  -14.6194 C   0  0  2  0  0  0  0  0  0  0  0  0
   19.9353   -5.6803  -14.2686 N   0  0  0  0  0  0  0  0  0  0  0  0
   22.1178   -4.9018  -13.5497 C   0  0  0  0  0  0  0  0  0  0  0  0
   23.4707   -4.9402  -13.8300 O   0  0  0  0  0  0  0  0  0  0  0  0
   21.7633   -4.8245  -12.3528 O   0  0  0  0  0  0  0  0  0  0  0  0
  2  3  1  0
  2  1  1  6
  4  5  1  6
  4  2  1  0
  6  4  1  0
  7  6  2  0
  8  6  1  0
  9 10  1  0
  9  8  1  0
 10 11  1  0
 12 11  1  0
 12  8  1  0
 12 13  1  6
 13 19  1  0
 13 14  2  0
 16 15  1  6
 16 17  1  0
 16 18  1  0
 18 20  1  0
 18 19  1  1
 20 22  2  0
 20 21  1  0
M  END
$$$$
