TPT.pdb
     RDKit          3D

 22 22  0  0  1  0  0  0  0  0999 V2000
   20.2077  -18.6384  -13.1092 C   0  0  0  0  0  0  0  0  0  0  0  0
   20.0287  -19.7525  -12.1225 C   0  0  1  0  0  0  0  0  0  0  0  0
   18.9086  -20.5194  -12.4760 O   0  0  0  0  0  0  0  0  0  0  0  0
   21.2036  -20.7432  -12.1751 C   0  0  2  0  0  0  0  0  0  0  0  0
   21.1583  -21.4368  -13.4668 N   0  0  0  0  0  0  0  0  0  0  0  0
   20.9789  -21.6975  -11.0736 C   0  0  0  0  0  0  0  0  0  0  0  0
   20.1891  -22.6496  -11.2807 O   0  0  0  0  0  0  0  0  0  0  0  0
   21.6030  -21.5911   -9.8160 N   0  0  0  0  0  0  0  0  0  0  0  0
   22.6605  -20.6485   -9.5104 C   0  0  0  0  0  0  0  0  0  0  0  0
   22.1072  -20.0712   -8.1999 C   0  0  0  0  0  0  0  0  0  0  0  0
   21.8387  -21.4061   -7.4848 C   0  0  0  0  0  0  0  0  0  0  0  0
   21.3604  -22.3319   -8.6094 C   0  0  1  0  0  0  0  0  0  0  0  0
   19.9501  -22.6152   -8.3206 C   0  0  0  0  0  0  0  0  0  0  0  0
   18.9652  -21.9076   -8.5430 O   0  0  0  0  0  0  0  0  0  0  0  0
   16.7813  -26.2555   -7.7253 C   0  0  0  0  0  0  0  0  0  0  0  0
   18.1885  -25.7160   -7.9419 C   0  0  1  0  0  0  0  0  0  0  0  0
   18.4234  -25.7435   -9.3018 O   0  0  0  0  0  0  0  0  0  0  0  0
   18.3424  -24.3106   -7.3752 C   0  0  2  0  0  0  0  0  0  0  0  0
   19.6837  -23.8851   -7.6961 N   0  0  0  0  0  0  0  0  0  0  0  0
   18.0361  -24.2464   -5.9524 C   0  0  0  0  0  0  0  0  0  0  0  0
   16.7809  -23.8706   -5.5122 O   0  0  0  0  0  0  0  0  0  0  0  0
   18.9029  -24.5301   -5.0966 O   0  0  0  0  0  0  0  0  0  0  0  0
  2  3  1  0
  2  1  1  6
  4  5  1  6
  4  2  1  0
  6  4  1  0
  7  6  2  0
  8  6  1  0
  9 10  1  0
  9  8  1  0
 10 11  1  0
 12 11  1  0
 12  8  1  0
 12 13  1  1
 13 19  1  0
 13 14  2  0
 16 15  1  6
 16 17  1  0
 16 18  1  0
 18 20  1  0
 18 19  1  1
 20 22  2  0
 20 21  1  0
M  END
$$$$
