TPT.pdb
     RDKit          3D

 22 22  0  0  1  0  0  0  0  0999 V2000
   16.6321  -11.0413  -18.7057 C   0  0  0  0  0  0  0  0  0  0  0  0
   17.5892  -10.3152  -17.8093 C   0  0  1  0  0  0  0  0  0  0  0  0
   16.9212   -9.8931  -16.6503 O   0  0  0  0  0  0  0  0  0  0  0  0
   18.6960  -11.2505  -17.2947 C   0  0  2  0  0  0  0  0  0  0  0  0
   18.0675  -12.2983  -16.4832 N   0  0  0  0  0  0  0  0  0  0  0  0
   19.5768  -10.4143  -16.4581 C   0  0  0  0  0  0  0  0  0  0  0  0
   19.1863  -10.1367  -15.2990 O   0  0  0  0  0  0  0  0  0  0  0  0
   20.8208   -9.9202  -16.8947 N   0  0  0  0  0  0  0  0  0  0  0  0
   21.4970  -10.3675  -18.0959 C   0  0  0  0  0  0  0  0  0  0  0  0
   21.8351   -9.0030  -18.7129 C   0  0  0  0  0  0  0  0  0  0  0  0
   22.4947   -8.3752  -17.4735 C   0  0  0  0  0  0  0  0  0  0  0  0
   21.6648   -8.9188  -16.3045 C   0  0  1  0  0  0  0  0  0  0  0  0
   20.9630   -7.7605  -15.7406 C   0  0  0  0  0  0  0  0  0  0  0  0
   19.9406   -7.2084  -16.1531 O   0  0  0  0  0  0  0  0  0  0  0  0
   21.5643   -7.3374  -11.7110 C   0  0  0  0  0  0  0  0  0  0  0  0
   20.4166   -6.7357  -12.5104 C   0  0  1  0  0  0  0  0  0  0  0  0
   19.8196   -5.7883  -11.7036 O   0  0  0  0  0  0  0  0  0  0  0  0
   20.9044   -6.1294  -13.8198 C   0  0  2  0  0  0  0  0  0  0  0  0
   21.5454   -7.1964  -14.5505 N   0  0  0  0  0  0  0  0  0  0  0  0
   21.7610   -4.9694  -13.6124 C   0  0  0  0  0  0  0  0  0  0  0  0
   21.2197   -3.7205  -13.3725 O   0  0  0  0  0  0  0  0  0  0  0  0
   23.0065   -5.0779  -13.6468 O   0  0  0  0  0  0  0  0  0  0  0  0
  2  3  1  0
  2  1  1  6
  4  5  1  1
  4  2  1  0
  6  4  1  0
  7  6  2  0
  8  6  1  0
  9 10  1  0
  9  8  1  0
 10 11  1  0
 12 11  1  0
 12  8  1  0
 12 13  1  6
 13 19  1  0
 13 14  2  0
 16 15  1  1
 16 17  1  0
 16 18  1  0
 18 20  1  0
 18 19  1  1
 20 22  2  0
 20 21  1  0
M  END
$$$$
