TPT.pdb
     RDKit          3D

 22 22  0  0  1  0  0  0  0  0999 V2000
   27.8145  -16.9520  -15.2496 C   0  0  0  0  0  0  0  0  0  0  0  0
   26.7130  -17.9079  -14.9038 C   0  0  1  0  0  0  0  0  0  0  0  0
   25.6650  -17.7726  -15.8264 O   0  0  0  0  0  0  0  0  0  0  0  0
   27.1696  -19.3686  -15.0540 C   0  0  2  0  0  0  0  0  0  0  0  0
   27.4187  -19.6250  -16.4766 N   0  0  0  0  0  0  0  0  0  0  0  0
   26.0470  -20.1956  -14.5738 C   0  0  0  0  0  0  0  0  0  0  0  0
   25.0615  -20.3382  -15.3364 O   0  0  0  0  0  0  0  0  0  0  0  0
   26.0311  -20.8256  -13.3147 N   0  0  0  0  0  0  0  0  0  0  0  0
   27.1941  -20.9675  -12.4619 C   0  0  0  0  0  0  0  0  0  0  0  0
   26.5933  -20.4729  -11.1386 C   0  0  0  0  0  0  0  0  0  0  0  0
   25.3426  -21.3680  -11.1339 C   0  0  0  0  0  0  0  0  0  0  0  0
   24.9367  -21.4344  -12.6109 C   0  0  1  0  0  0  0  0  0  0  0  0
   23.6572  -20.7231  -12.7057 C   0  0  0  0  0  0  0  0  0  0  0  0
   23.3500  -19.6307  -12.2233 O   0  0  0  0  0  0  0  0  0  0  0  0
   21.4604  -21.6803  -16.0741 C   0  0  0  0  0  0  0  0  0  0  0  0
   21.3465  -20.4273  -15.2167 C   0  0  1  0  0  0  0  0  0  0  0  0
   20.1779  -19.7931  -15.5870 O   0  0  0  0  0  0  0  0  0  0  0  0
   21.3550  -20.7633  -13.7310 C   0  0  2  0  0  0  0  0  0  0  0  0
   22.6274  -21.3887  -13.4607 N   0  0  0  0  0  0  0  0  0  0  0  0
   20.2116  -21.5754  -13.3364 C   0  0  0  0  0  0  0  0  0  0  0  0
   18.9571  -21.0135  -13.1925 O   0  0  0  0  0  0  0  0  0  0  0  0
   20.3400  -22.8003  -13.1188 O   0  0  0  0  0  0  0  0  0  0  0  0
  2  3  1  0
  2  1  1  6
  4  5  1  6
  4  2  1  0
  6  4  1  0
  7  6  2  0
  8  6  1  0
  9 10  1  0
  9  8  1  0
 10 11  1  0
 12 11  1  0
 12  8  1  0
 12 13  1  1
 13 19  1  0
 13 14  2  0
 16 15  1  6
 16 17  1  0
 16 18  1  0
 18 20  1  0
 18 19  1  6
 20 22  2  0
 20 21  1  0
M  END
$$$$
