TPT.pdb
     RDKit          3D

 22 22  0  0  1  0  0  0  0  0999 V2000
   23.9713  -35.1012   -7.9717 C   0  0  0  0  0  0  0  0  0  0  0  0
   25.0828  -34.7754   -8.9232 C   0  0  1  0  0  0  0  0  0  0  0  0
   24.5540  -34.5307  -10.1992 O   0  0  0  0  0  0  0  0  0  0  0  0
   25.7827  -33.4610   -8.5399 C   0  0  2  0  0  0  0  0  0  0  0  0
   26.8059  -33.1767   -9.5518 N   0  0  0  0  0  0  0  0  0  0  0  0
   26.4131  -33.7047   -7.2291 C   0  0  0  0  0  0  0  0  0  0  0  0
   27.2271  -34.6550   -7.1427 O   0  0  0  0  0  0  0  0  0  0  0  0
   26.1473  -32.9289   -6.0847 N   0  0  0  0  0  0  0  0  0  0  0  0
   25.2969  -31.7555   -6.0774 C   0  0  0  0  0  0  0  0  0  0  0  0
   24.4219  -32.0908   -4.8614 C   0  0  0  0  0  0  0  0  0  0  0  0
   25.5569  -32.4022   -3.8715 C   0  0  0  0  0  0  0  0  0  0  0  0
   26.6140  -33.0985   -4.7367 C   0  0  1  0  0  0  0  0  0  0  0  0
   26.6679  -34.4856   -4.2619 C   0  0  0  0  0  0  0  0  0  0  0  0
   25.8411  -35.3851   -4.4278 O   0  0  0  0  0  0  0  0  0  0  0  0
   30.0209  -36.4700   -4.4882 C   0  0  0  0  0  0  0  0  0  0  0  0
   29.5261  -36.4521   -3.0484 C   0  0  1  0  0  0  0  0  0  0  0  0
   30.2584  -35.4885   -2.3849 O   0  0  0  0  0  0  0  0  0  0  0  0
   28.0312  -36.1696   -2.9740 C   0  0  2  0  0  0  0  0  0  0  0  0
   27.8395  -34.8407   -3.5037 N   0  0  0  0  0  0  0  0  0  0  0  0
   27.4971  -36.3430   -1.6297 C   0  0  0  0  0  0  0  0  0  0  0  0
   27.2827  -37.6048   -1.1078 O   0  0  0  0  0  0  0  0  0  0  0  0
   27.2205  -35.3530   -0.9172 O   0  0  0  0  0  0  0  0  0  0  0  0
  2  3  1  0
  2  1  1  1
  4  5  1  6
  4  2  1  0
  6  4  1  0
  7  6  2  0
  8  6  1  0
  9 10  1  0
  9  8  1  0
 10 11  1  0
 12 11  1  0
 12  8  1  0
 12 13  1  1
 13 19  1  0
 13 14  2  0
 16 15  1  6
 16 17  1  0
 16 18  1  0
 18 20  1  0
 18 19  1  1
 20 22  2  0
 20 21  1  0
M  END
$$$$
