TPT.pdb
     RDKit          3D

 22 22  0  0  1  0  0  0  0  0999 V2000
   16.9306   -9.8854  -17.5803 C   0  0  0  0  0  0  0  0  0  0  0  0
   16.7640  -10.9502  -16.5385 C   0  0  1  0  0  0  0  0  0  0  0  0
   15.7862  -11.8664  -16.9536 O   0  0  0  0  0  0  0  0  0  0  0  0
   18.0409  -11.7938  -16.3889 C   0  0  2  0  0  0  0  0  0  0  0  0
   17.7532  -12.8976  -15.4666 N   0  0  0  0  0  0  0  0  0  0  0  0
   19.0556  -10.8941  -15.8096 C   0  0  0  0  0  0  0  0  0  0  0  0
   18.7059  -10.1616  -14.8535 O   0  0  0  0  0  0  0  0  0  0  0  0
   20.3828  -10.8209  -16.2742 N   0  0  0  0  0  0  0  0  0  0  0  0
   20.9673  -11.7550  -17.2153 C   0  0  0  0  0  0  0  0  0  0  0  0
   21.5965  -10.7568  -18.1974 C   0  0  0  0  0  0  0  0  0  0  0  0
   22.3549   -9.9045  -17.1659 C   0  0  0  0  0  0  0  0  0  0  0  0
   21.4106   -9.8683  -15.9585 C   0  0  1  0  0  0  0  0  0  0  0  0
   20.9615   -8.4763  -15.8446 C   0  0  0  0  0  0  0  0  0  0  0  0
   20.0004   -7.9336  -16.3943 O   0  0  0  0  0  0  0  0  0  0  0  0
   21.8537   -4.3503  -13.1792 C   0  0  0  0  0  0  0  0  0  0  0  0
   22.1505   -5.8046  -13.5180 C   0  0  1  0  0  0  0  0  0  0  0  0
   21.7413   -6.5595  -12.4374 O   0  0  0  0  0  0  0  0  0  0  0  0
   21.4491   -6.2349  -14.7998 C   0  0  2  0  0  0  0  0  0  0  0  0
   21.7465   -7.6361  -14.9778 N   0  0  0  0  0  0  0  0  0  0  0  0
   21.8208   -5.4112  -15.9425 C   0  0  0  0  0  0  0  0  0  0  0  0
   20.9852   -4.4085  -16.3971 O   0  0  0  0  0  0  0  0  0  0  0  0
   22.9054   -5.5932  -16.5381 O   0  0  0  0  0  0  0  0  0  0  0  0
  2  3  1  0
  2  1  1  6
  4  5  1  1
  4  2  1  0
  6  4  1  0
  7  6  2  0
  8  6  1  0
  9 10  1  0
  9  8  1  0
 10 11  1  0
 12 11  1  0
 12  8  1  0
 12 13  1  6
 13 19  1  0
 13 14  2  0
 16 15  1  1
 16 17  1  0
 16 18  1  0
 18 20  1  0
 18 19  1  6
 20 22  2  0
 20 21  1  0
M  END
$$$$
