TPT.pdb
     RDKit          3D

 22 22  0  0  1  0  0  0  0  0999 V2000
   20.3143  -10.1853  -19.0866 C   0  0  0  0  0  0  0  0  0  0  0  0
   19.1420  -10.8290  -18.4097 C   0  0  1  0  0  0  0  0  0  0  0  0
   18.7865  -11.9998  -19.0957 O   0  0  0  0  0  0  0  0  0  0  0  0
   19.5049  -11.3091  -16.9947 C   0  0  2  0  0  0  0  0  0  0  0  0
   18.3777  -12.0906  -16.4747 N   0  0  0  0  0  0  0  0  0  0  0  0
   19.6964  -10.0887  -16.1892 C   0  0  0  0  0  0  0  0  0  0  0  0
   18.9857   -9.0926  -16.4643 O   0  0  0  0  0  0  0  0  0  0  0  0
   20.6280   -9.9917  -15.1380 N   0  0  0  0  0  0  0  0  0  0  0  0
   21.3017  -11.1276  -14.5414 C   0  0  0  0  0  0  0  0  0  0  0  0
   22.7445  -10.6037  -14.5706 C   0  0  0  0  0  0  0  0  0  0  0  0
   22.4824   -9.2433  -13.9029 C   0  0  0  0  0  0  0  0  0  0  0  0
   21.1117   -8.8272  -14.4497 C   0  0  1  0  0  0  0  0  0  0  0  0
   21.3589   -7.6556  -15.2973 C   0  0  0  0  0  0  0  0  0  0  0  0
   21.9199   -7.6079  -16.3943 O   0  0  0  0  0  0  0  0  0  0  0  0
   18.9582   -5.3153  -16.6536 C   0  0  0  0  0  0  0  0  0  0  0  0
   19.8106   -4.4889  -15.7003 C   0  0  1  0  0  0  0  0  0  0  0  0
   19.0848   -4.3459  -14.5351 O   0  0  0  0  0  0  0  0  0  0  0  0
   21.1598   -5.1472  -15.4427 C   0  0  2  0  0  0  0  0  0  0  0  0
   20.8838   -6.3989  -14.7791 N   0  0  0  0  0  0  0  0  0  0  0  0
   22.0692   -4.2835  -14.7013 C   0  0  0  0  0  0  0  0  0  0  0  0
   22.7670   -3.2740  -15.3374 O   0  0  0  0  0  0  0  0  0  0  0  0
   22.2389   -4.4364  -13.4717 O   0  0  0  0  0  0  0  0  0  0  0  0
  2  3  1  0
  2  1  1  6
  4  5  1  1
  4  2  1  0
  6  4  1  0
  7  6  2  0
  8  6  1  0
  9 10  1  0
  9  8  1  0
 10 11  1  0
 12 11  1  0
 12  8  1  0
 12 13  1  6
 13 19  1  0
 13 14  2  0
 16 15  1  6
 16 17  1  0
 16 18  1  0
 18 20  1  0
 18 19  1  1
 20 22  2  0
 20 21  1  0
M  END
$$$$
