TPT.pdb
     RDKit          3D

 22 22  0  0  1  0  0  0  0  0999 V2000
   15.9500  -28.5471   -8.9935 C   0  0  0  0  0  0  0  0  0  0  0  0
   17.2958  -28.8658   -9.5714 C   0  0  1  0  0  0  0  0  0  0  0  0
   17.1458  -29.3280  -10.8873 O   0  0  0  0  0  0  0  0  0  0  0  0
   18.1627  -27.6028   -9.7052 C   0  0  2  0  0  0  0  0  0  0  0  0
   19.3911  -27.9659  -10.4199 N   0  0  0  0  0  0  0  0  0  0  0  0
   18.4778  -27.1798   -8.3280 C   0  0  0  0  0  0  0  0  0  0  0  0
   18.8974  -28.0539   -7.5325 O   0  0  0  0  0  0  0  0  0  0  0  0
   18.3321  -25.8560   -7.8710 N   0  0  0  0  0  0  0  0  0  0  0  0
   18.1812  -24.7074   -8.7416 C   0  0  0  0  0  0  0  0  0  0  0  0
   16.9727  -24.0425   -8.0677 C   0  0  0  0  0  0  0  0  0  0  0  0
   17.5187  -24.0333   -6.6300 C   0  0  0  0  0  0  0  0  0  0  0  0
   18.2936  -25.3522   -6.5263 C   0  0  1  0  0  0  0  0  0  0  0  0
   17.5499  -26.1780   -5.5686 C   0  0  0  0  0  0  0  0  0  0  0  0
   16.5161  -26.8239   -5.7543 O   0  0  0  0  0  0  0  0  0  0  0  0
   17.7703  -27.6244   -0.7716 C   0  0  0  0  0  0  0  0  0  0  0  0
   18.3806  -26.9332   -1.9831 C   0  0  1  0  0  0  0  0  0  0  0  0
   19.5433  -27.6116   -2.2881 O   0  0  0  0  0  0  0  0  0  0  0  0
   17.4165  -26.9159   -3.1622 C   0  0  2  0  0  0  0  0  0  0  0  0
   18.1003  -26.2411   -4.2394 N   0  0  0  0  0  0  0  0  0  0  0  0
   16.1318  -26.3182   -2.8233 C   0  0  0  0  0  0  0  0  0  0  0  0
   15.9901  -24.9469   -2.7254 O   0  0  0  0  0  0  0  0  0  0  0  0
   15.1275  -27.0335   -2.6133 O   0  0  0  0  0  0  0  0  0  0  0  0
  2  3  1  0
  2  1  1  6
  4  5  1  6
  4  2  1  0
  6  4  1  0
  7  6  2  0
  8  6  1  0
  9 10  1  0
  9  8  1  0
 10 11  1  0
 12 11  1  0
 12  8  1  0
 12 13  1  1
 13 19  1  0
 13 14  2  0
 16 15  1  1
 16 17  1  0
 16 18  1  0
 18 20  1  0
 18 19  1  6
 20 22  2  0
 20 21  1  0
M  END
$$$$
