TPT.pdb
     RDKit          3D

 22 22  0  0  1  0  0  0  0  0999 V2000
   16.2696   -9.3479  -16.3367 C   0  0  0  0  0  0  0  0  0  0  0  0
   16.9271  -10.6342  -15.9367 C   0  0  1  0  0  0  0  0  0  0  0  0
   16.0493  -11.7036  -16.1679 O   0  0  0  0  0  0  0  0  0  0  0  0
   18.1463  -10.9405  -16.8223 C   0  0  2  0  0  0  0  0  0  0  0  0
   18.6115  -12.2952  -16.5058 N   0  0  0  0  0  0  0  0  0  0  0  0
   19.1734   -9.9479  -16.4555 C   0  0  0  0  0  0  0  0  0  0  0  0
   19.3271   -9.6927  -15.2372 O   0  0  0  0  0  0  0  0  0  0  0  0
   19.9802   -9.2825  -17.3982 N   0  0  0  0  0  0  0  0  0  0  0  0
   20.0066   -9.5978  -18.8124 C   0  0  0  0  0  0  0  0  0  0  0  0
   19.8596   -8.1811  -19.3853 C   0  0  0  0  0  0  0  0  0  0  0  0
   20.9857   -7.5150  -18.5769 C   0  0  0  0  0  0  0  0  0  0  0  0
   20.9057   -8.2004  -17.2077 C   0  0  1  0  0  0  0  0  0  0  0  0
   20.4713   -7.1624  -16.2664 C   0  0  0  0  0  0  0  0  0  0  0  0
   19.3622   -6.6328  -16.1679 O   0  0  0  0  0  0  0  0  0  0  0  0
   22.0940   -7.5043  -12.7418 C   0  0  0  0  0  0  0  0  0  0  0  0
   20.9313   -6.5638  -13.0276 C   0  0  1  0  0  0  0  0  0  0  0  0
   20.7939   -5.7488  -11.9221 O   0  0  0  0  0  0  0  0  0  0  0  0
   21.1660   -5.7531  -14.2955 C   0  0  2  0  0  0  0  0  0  0  0  0
   21.4717   -6.7038  -15.3377 N   0  0  0  0  0  0  0  0  0  0  0  0
   22.1889   -4.7304  -14.1223 C   0  0  0  0  0  0  0  0  0  0  0  0
   23.4288   -4.8574  -14.7196 O   0  0  0  0  0  0  0  0  0  0  0  0
   21.9676   -3.7136  -13.4284 O   0  0  0  0  0  0  0  0  0  0  0  0
  2  3  1  0
  2  1  1  6
  4  5  1  1
  4  2  1  0
  6  4  1  0
  7  6  2  0
  8  6  1  0
  9 10  1  0
  9  8  1  0
 10 11  1  0
 12 11  1  0
 12  8  1  0
 12 13  1  1
 13 19  1  0
 13 14  2  0
 16 15  1  1
 16 17  1  0
 16 18  1  0
 18 20  1  0
 18 19  1  6
 20 22  2  0
 20 21  1  0
M  END
$$$$
