ANV.pdb
     RDKit          3D

 21 20  0  0  1  0  0  0  0  0999 V2000
   13.7201  -16.2669  -19.7972 C   0  0  0  0  0  0  0  0  0  0  0  0
   14.3284  -14.8936  -20.0372 C   0  0  2  0  0  0  0  0  0  0  0  0
   15.4182  -14.9820  -20.9662 N   0  0  0  0  0  0  0  0  0  0  0  0
   14.8117  -14.3982  -18.7096 C   0  0  0  0  0  0  0  0  0  0  0  0
   14.0337  -14.2057  -17.7505 O   0  0  0  0  0  0  0  0  0  0  0  0
   17.4095  -13.2047  -14.6885 N   0  0  0  0  0  0  0  0  0  0  0  0
   18.1872  -14.1648  -15.4189 C   0  0  0  0  0  0  0  0  0  0  0  0
   19.0861  -14.7450  -14.7968 O   0  0  0  0  0  0  0  0  0  0  0  0
   17.9028  -14.4216  -16.8346 C   0  0  0  0  0  0  0  0  0  0  0  0
   16.7179  -13.6250  -17.3081 C   0  0  2  0  0  0  0  0  0  0  0  0
   16.1956  -14.1407  -18.5393 N   0  0  0  0  0  0  0  0  0  0  0  0
   17.0766  -12.1761  -17.4500 C   0  0  0  0  0  0  0  0  0  0  0  0
   18.0131  -11.7777  -18.1793 O   0  0  0  0  0  0  0  0  0  0  0  0
   14.5021   -9.7382  -15.2883 C   0  0  0  0  0  0  0  0  0  0  0  0
   15.1607   -9.1519  -16.4979 C   0  0  1  0  0  0  0  0  0  0  0  0
   15.2759   -7.6536  -16.4601 C   0  0  0  0  0  0  0  0  0  0  0  0
   16.5148   -9.8000  -16.7934 C   0  0  2  0  0  0  0  0  0  0  0  0
   16.3177  -11.2387  -16.7254 N   0  0  0  0  0  0  0  0  0  0  0  0
   17.5208   -9.3700  -15.7938 C   0  0  0  0  0  0  0  0  0  0  0  0
   17.7485  -10.0440  -14.7609 O   0  0  0  0  0  0  0  0  0  0  0  0
   18.2258   -8.1977  -16.0039 O   0  0  0  0  0  0  0  0  0  0  0  0
  2  1  1  1
  2  3  1  0
  4  2  1  0
  4 11  1  0
  5  4  2  0
  7  8  2  0
  7  6  1  0
 10  9  1  6
  9  7  1  0
 10 11  1  0
 10 12  1  0
 12 18  1  0
 12 13  2  0
 15 14  1  1
 15 17  1  0
 16 15  1  0
 17 19  1  0
 17 18  1  1
 19 21  1  0
 20 19  2  0
M  END
$$$$
