ANV.pdb
     RDKit          3D

 21 20  0  0  1  0  0  0  0  0999 V2000
   11.9842  -13.2976  -13.6780 C   0  0  0  0  0  0  0  0  0  0  0  0
   13.4644  -12.9744  -13.5424 C   0  0  2  0  0  0  0  0  0  0  0  0
   14.0300  -13.6694  -12.4218 N   0  0  0  0  0  0  0  0  0  0  0  0
   13.5661  -11.4937  -13.3452 C   0  0  0  0  0  0  0  0  0  0  0  0
   13.0515  -10.6817  -14.1439 O   0  0  0  0  0  0  0  0  0  0  0  0
   12.3314  -10.1675   -9.0296 N   0  0  0  0  0  0  0  0  0  0  0  0
   12.7360   -9.3900  -10.1662 C   0  0  0  0  0  0  0  0  0  0  0  0
   11.8372   -8.8404  -10.8157 O   0  0  0  0  0  0  0  0  0  0  0  0
   14.1563   -9.2737  -10.5131 C   0  0  0  0  0  0  0  0  0  0  0  0
   14.3939   -9.5966  -11.9628 C   0  0  2  0  0  0  0  0  0  0  0  0
   14.2686  -11.0019  -12.2160 N   0  0  0  0  0  0  0  0  0  0  0  0
   15.7369   -9.0963  -12.4034 C   0  0  0  0  0  0  0  0  0  0  0  0
   16.8113   -9.5299  -11.9283 O   0  0  0  0  0  0  0  0  0  0  0  0
   16.8498   -9.4325  -15.7561 C   0  0  0  0  0  0  0  0  0  0  0  0
   16.8832   -7.9560  -15.5126 C   0  0  1  0  0  0  0  0  0  0  0  0
   15.7502   -7.2084  -16.1584 C   0  0  0  0  0  0  0  0  0  0  0  0
   16.9896   -7.6150  -14.0248 C   0  0  2  0  0  0  0  0  0  0  0  0
   15.7722   -8.0973  -13.3935 N   0  0  0  0  0  0  0  0  0  0  0  0
   17.1204   -6.1505  -13.8402 C   0  0  0  0  0  0  0  0  0  0  0  0
   16.1194   -5.4235  -13.6343 O   0  0  0  0  0  0  0  0  0  0  0  0
   18.3758   -5.5705  -13.8959 O   0  0  0  0  0  0  0  0  0  0  0  0
  2  1  1  1
  2  3  1  0
  4  2  1  0
  4 11  1  0
  5  4  2  0
  7  8  2  0
  7  6  1  0
 10  9  1  1
  9  7  1  0
 10 11  1  0
 10 12  1  0
 12 18  1  0
 12 13  2  0
 15 14  1  1
 15 17  1  0
 16 15  1  0
 17 19  1  0
 17 18  1  1
 19 21  1  0
 20 19  2  0
M  END
$$$$
