ANV.pdb
     RDKit          3D

 21 20  0  0  1  0  0  0  0  0999 V2000
   28.7286  -27.4615  -18.4493 C   0  0  0  0  0  0  0  0  0  0  0  0
   28.8512  -27.2894  -16.9430 C   0  0  2  0  0  0  0  0  0  0  0  0
   28.3254  -28.4374  -16.2616 N   0  0  0  0  0  0  0  0  0  0  0  0
   28.0691  -26.0643  -16.5839 C   0  0  0  0  0  0  0  0  0  0  0  0
   27.0359  -26.1193  -15.8828 O   0  0  0  0  0  0  0  0  0  0  0  0
   26.6388  -21.2223  -16.0310 N   0  0  0  0  0  0  0  0  0  0  0  0
   28.0462  -21.1879  -16.3104 C   0  0  0  0  0  0  0  0  0  0  0  0
   28.6020  -20.0840  -16.2450 O   0  0  0  0  0  0  0  0  0  0  0  0
   28.7608  -22.4218  -16.6539 C   0  0  0  0  0  0  0  0  0  0  0  0
   27.8206  -23.5926  -16.7413 C   0  0  2  0  0  0  0  0  0  0  0  0
   28.5179  -24.8048  -17.0560 N   0  0  0  0  0  0  0  0  0  0  0  0
   26.7377  -23.3284  -17.7440 C   0  0  0  0  0  0  0  0  0  0  0  0
   26.9664  -23.1829  -18.9665 O   0  0  0  0  0  0  0  0  0  0  0  0
   23.2228  -24.9728  -16.8833 C   0  0  0  0  0  0  0  0  0  0  0  0
   23.5432  -24.3980  -18.2277 C   0  0  1  0  0  0  0  0  0  0  0  0
   22.3600  -24.3180  -19.1514 C   0  0  0  0  0  0  0  0  0  0  0  0
   24.2545  -23.0471  -18.1272 C   0  0  2  0  0  0  0  0  0  0  0  0
   25.4145  -23.2435  -17.2734 N   0  0  0  0  0  0  0  0  0  0  0  0
   23.3493  -22.0308  -17.5407 C   0  0  0  0  0  0  0  0  0  0  0  0
   23.1357  -21.9775  -16.3060 O   0  0  0  0  0  0  0  0  0  0  0  0
   22.7247  -21.1190  -18.3739 O   0  0  0  0  0  0  0  0  0  0  0  0
  2  1  1  6
  2  3  1  0
  4  2  1  0
  4 11  1  0
  5  4  2  0
  7  8  2  0
  7  6  1  0
 10  9  1  6
  9  7  1  0
 10 11  1  0
 10 12  1  0
 12 18  1  0
 12 13  2  0
 15 14  1  1
 15 17  1  0
 16 15  1  0
 17 19  1  0
 17 18  1  1
 19 21  1  0
 20 19  2  0
M  END
$$$$
