ANV.pdb
     RDKit          3D

 21 20  0  0  1  0  0  0  0  0999 V2000
   18.8544  -10.6686  -20.1988 C   0  0  0  0  0  0  0  0  0  0  0  0
   20.0900  -10.4190  -19.3474 C   0  0  2  0  0  0  0  0  0  0  0  0
   20.3225  -11.5245  -18.4629 N   0  0  0  0  0  0  0  0  0  0  0  0
   19.8294   -9.1692  -18.5653 C   0  0  0  0  0  0  0  0  0  0  0  0
   18.7275   -8.5806  -18.6039 O   0  0  0  0  0  0  0  0  0  0  0  0
   20.3149   -5.4741  -15.0902 N   0  0  0  0  0  0  0  0  0  0  0  0
   21.1131   -6.5873  -14.6618 C   0  0  0  0  0  0  0  0  0  0  0  0
   21.5322   -6.5590  -13.4976 O   0  0  0  0  0  0  0  0  0  0  0  0
   21.3992   -7.6894  -15.5862 C   0  0  0  0  0  0  0  0  0  0  0  0
   20.6435   -7.5312  -16.8771 C   0  0  2  0  0  0  0  0  0  0  0  0
   20.8675   -8.6405  -17.7570 N   0  0  0  0  0  0  0  0  0  0  0  0
   21.0065   -6.2406  -17.5483 C   0  0  0  0  0  0  0  0  0  0  0  0
   22.1088   -6.0566  -18.1131 O   0  0  0  0  0  0  0  0  0  0  0  0
   19.2542   -4.7791  -20.3505 C   0  0  0  0  0  0  0  0  0  0  0  0
   19.1076   -3.7994  -19.2284 C   0  0  1  0  0  0  0  0  0  0  0  0
   17.7601   -3.8354  -18.5631 C   0  0  0  0  0  0  0  0  0  0  0  0
   20.2325   -3.9232  -18.1987 C   0  0  2  0  0  0  0  0  0  0  0  0
   20.0560   -5.2034  -17.5330 N   0  0  0  0  0  0  0  0  0  0  0  0
   20.1554   -2.8166  -17.2161 C   0  0  0  0  0  0  0  0  0  0  0  0
   20.4934   -1.6471  -17.5176 O   0  0  0  0  0  0  0  0  0  0  0  0
   19.6999   -3.0787  -15.9356 O   0  0  0  0  0  0  0  0  0  0  0  0
  2  1  1  1
  2  3  1  0
  4  2  1  0
  4 11  1  0
  5  4  2  0
  7  8  2  0
  7  6  1  0
 10  9  1  1
  9  7  1  0
 10 11  1  0
 10 12  1  0
 12 18  1  0
 12 13  2  0
 15 14  1  6
 15 17  1  0
 16 15  1  0
 17 19  1  0
 17 18  1  1
 19 21  1  0
 20 19  2  0
M  END
$$$$
