ANV.pdb
     RDKit          3D

 21 20  0  0  1  0  0  0  0  0999 V2000
   24.9360  -27.0421  -16.1867 C   0  0  0  0  0  0  0  0  0  0  0  0
   24.6362  -28.5245  -16.3489 C   0  0  2  0  0  0  0  0  0  0  0  0
   24.8146  -28.9267  -17.7146 N   0  0  0  0  0  0  0  0  0  0  0  0
   23.2142  -28.7257  -15.9260 C   0  0  0  0  0  0  0  0  0  0  0  0
   22.2554  -28.4966  -16.6942 O   0  0  0  0  0  0  0  0  0  0  0  0
   18.7903  -31.2254  -14.4899 N   0  0  0  0  0  0  0  0  0  0  0  0
   19.8763  -31.0146  -13.5755 C   0  0  0  0  0  0  0  0  0  0  0  0
   19.5965  -30.9985  -12.3700 O   0  0  0  0  0  0  0  0  0  0  0  0
   21.2410  -30.8306  -14.0803 C   0  0  0  0  0  0  0  0  0  0  0  0
   21.6130  -29.3741  -14.1340 C   0  0  2  0  0  0  0  0  0  0  0  0
   22.9517  -29.1905  -14.6124 N   0  0  0  0  0  0  0  0  0  0  0  0
   21.4378  -28.7331  -12.7900 C   0  0  0  0  0  0  0  0  0  0  0  0
   22.1986  -28.9662  -11.8232 O   0  0  0  0  0  0  0  0  0  0  0  0
   20.7116  -25.0298  -12.7392 C   0  0  0  0  0  0  0  0  0  0  0  0
   19.6991  -25.6703  -11.8418 C   0  0  1  0  0  0  0  0  0  0  0  0
   18.3035  -25.6650  -12.4002 C   0  0  0  0  0  0  0  0  0  0  0  0
   20.1135  -27.0787  -11.4109 C   0  0  2  0  0  0  0  0  0  0  0  0
   20.3678  -27.8341  -12.6266 N   0  0  0  0  0  0  0  0  0  0  0  0
   19.0310  -27.7163  -10.6251 C   0  0  0  0  0  0  0  0  0  0  0  0
   18.1329  -28.3957  -11.1770 O   0  0  0  0  0  0  0  0  0  0  0  0
   19.0095  -27.5589   -9.2502 O   0  0  0  0  0  0  0  0  0  0  0  0
  2  1  1  6
  2  3  1  0
  4  2  1  0
  4 11  1  0
  5  4  2  0
  7  8  2  0
  7  6  1  0
 10  9  1  1
  9  7  1  0
 10 11  1  0
 10 12  1  0
 12 18  1  0
 12 13  2  0
 15 14  1  6
 15 17  1  0
 16 15  1  0
 17 19  1  0
 17 18  1  6
 19 21  1  0
 20 19  2  0
M  END
$$$$
