ANV.pdb
     RDKit          3D

 21 20  0  0  1  0  0  0  0  0999 V2000
   15.5657  -10.6777  -13.1888 C   0  0  0  0  0  0  0  0  0  0  0  0
   16.4101   -9.7051  -12.3797 C   0  0  2  0  0  0  0  0  0  0  0  0
   16.8756  -10.3270  -11.1733 N   0  0  0  0  0  0  0  0  0  0  0  0
   15.5327   -8.5349  -12.0600 C   0  0  0  0  0  0  0  0  0  0  0  0
   14.9803   -7.8570  -12.9529 O   0  0  0  0  0  0  0  0  0  0  0  0
   16.2580   -7.3647   -8.2263 N   0  0  0  0  0  0  0  0  0  0  0  0
   14.8577   -7.4808   -7.9334 C   0  0  0  0  0  0  0  0  0  0  0  0
   14.5522   -7.7593   -6.7669 O   0  0  0  0  0  0  0  0  0  0  0  0
   13.8628   -7.2729   -8.9908 C   0  0  0  0  0  0  0  0  0  0  0  0
   14.5203   -7.0624  -10.3272 C   0  0  2  0  0  0  0  0  0  0  0  0
   15.3246   -8.1885  -10.7008 N   0  0  0  0  0  0  0  0  0  0  0  0
   15.3375   -5.8054  -10.3231 C   0  0  0  0  0  0  0  0  0  0  0  0
   16.5863   -5.8087  -10.2320 O   0  0  0  0  0  0  0  0  0  0  0  0
   13.5444   -2.8511  -12.2977 C   0  0  0  0  0  0  0  0  0  0  0  0
   15.0040   -2.7814  -11.9733 C   0  0  1  0  0  0  0  0  0  0  0  0
   15.6131   -1.4267  -12.2042 C   0  0  0  0  0  0  0  0  0  0  0  0
   15.3101   -3.2885  -10.5626 C   0  0  2  0  0  0  0  0  0  0  0  0
   14.6552   -4.5792  -10.4269 N   0  0  0  0  0  0  0  0  0  0  0  0
   14.7917   -2.3388   -9.5500 C   0  0  0  0  0  0  0  0  0  0  0  0
   15.4248   -1.3020   -9.2386 O   0  0  0  0  0  0  0  0  0  0  0  0
   13.5808   -2.6013   -8.9330 O   0  0  0  0  0  0  0  0  0  0  0  0
  2  1  1  6
  2  3  1  0
  4  2  1  0
  4 11  1  0
  5  4  2  0
  7  8  2  0
  7  6  1  0
 10  9  1  1
  9  7  1  0
 10 11  1  0
 10 12  1  0
 12 18  1  0
 12 13  2  0
 15 14  1  1
 15 17  1  0
 16 15  1  0
 17 19  1  0
 17 18  1  1
 19 21  1  0
 20 19  2  0
M  END
$$$$
