GSL.pdb
     RDKit          3D

 19 18  0  0  1  0  0  0  0  0999 V2000
    2.3673  -18.7480   21.9312 N   0  0  0  0  0  0  0  0  0  0  0  0
    3.5356  -18.0592   21.4428 C   0  0  0  0  0  0  0  0  0  0  0  0
    4.6067  -18.0909   22.4730 C   0  0  0  0  0  0  0  0  0  0  0  0
    4.3262  -18.3717   23.6464 O   0  0  0  0  0  0  0  0  0  0  0  0
    8.7420  -17.5771   21.4515 O   0  0  0  0  0  0  0  0  0  0  0  0
    8.3097  -18.3891   22.5089 C   0  0  0  0  0  0  0  0  0  0  0  0
    7.0528  -17.7773   23.0461 C   0  0  2  0  0  0  0  0  0  0  0  0
    5.9538  -17.8014   22.1242 N   0  0  0  0  0  0  0  0  0  0  0  0
    7.2526  -16.4057   23.5901 C   0  0  0  0  0  0  0  0  0  0  0  0
    6.9106  -15.4325   22.8936 O   0  0  0  0  0  0  0  0  0  0  0  0
    5.8926  -12.2858   27.1435 C   0  0  0  0  0  0  0  0  0  0  0  0
    7.0361  -12.7698   26.3034 C   0  0  2  0  0  0  0  0  0  0  0  0
    7.4148  -11.7124   25.2482 C   0  0  0  0  0  0  0  0  0  0  0  0
    6.8441  -14.0887   25.6445 C   0  0  0  0  0  0  0  0  0  0  0  0
    8.0735  -14.9037   25.4000 C   0  0  2  0  0  0  0  0  0  0  0  0
    7.8268  -16.2126   24.8891 N   0  0  0  0  0  0  0  0  0  0  0  0
    8.9874  -14.9122   26.5707 C   0  0  0  0  0  0  0  0  0  0  0  0
    9.5132  -13.8345   26.9496 O   0  0  0  0  0  0  0  0  0  0  0  0
    9.2937  -16.0591   27.2744 O   0  0  0  0  0  0  0  0  0  0  0  0
  2  3  1  0
  2  1  1  0
  3  4  2  0
  5  6  1  0
  7  6  1  6
  7  9  1  0
  8  7  1  0
  8  3  1  0
  9 10  2  0
 12 11  1  6
 13 12  1  0
 14 12  1  0
 15 14  1  1
 15 17  1  0
 16  9  1  0
 16 15  1  0
 17 18  2  0
 17 19  1  0
M  END
$$$$
