GSL.pdb
     RDKit          3D

 19 18  0  0  1  0  0  0  0  0999 V2000
    7.9012  -12.7644   18.1470 N   0  0  0  0  0  0  0  0  0  0  0  0
    8.8326  -13.5513   18.9159 C   0  0  0  0  0  0  0  0  0  0  0  0
    8.1821  -14.0219   20.1669 C   0  0  0  0  0  0  0  0  0  0  0  0
    7.0808  -13.5632   20.5001 O   0  0  0  0  0  0  0  0  0  0  0  0
    9.6215  -17.5074   21.9092 O   0  0  0  0  0  0  0  0  0  0  0  0
    8.2629  -17.1724   21.9893 C   0  0  0  0  0  0  0  0  0  0  0  0
    8.1840  -15.6798   22.0805 C   0  0  2  0  0  0  0  0  0  0  0  0
    8.8132  -14.9959   20.9874 N   0  0  0  0  0  0  0  0  0  0  0  0
    8.6665  -15.1441   23.3833 C   0  0  0  0  0  0  0  0  0  0  0  0
    9.8698  -14.8467   23.4966 O   0  0  0  0  0  0  0  0  0  0  0  0
    7.7051  -11.4981   25.7088 C   0  0  0  0  0  0  0  0  0  0  0  0
    6.6929  -12.5633   26.0060 C   0  0  2  0  0  0  0  0  0  0  0  0
    5.5753  -12.0074   26.9097 C   0  0  0  0  0  0  0  0  0  0  0  0
    7.2282  -13.8224   26.5880 C   0  0  0  0  0  0  0  0  0  0  0  0
    8.2302  -14.5698   25.7677 C   0  0  2  0  0  0  0  0  0  0  0  0
    7.7623  -14.9753   24.4825 N   0  0  0  0  0  0  0  0  0  0  0  0
    8.8595  -15.6836   26.5222 C   0  0  0  0  0  0  0  0  0  0  0  0
    8.6454  -16.8696   26.1627 O   0  0  0  0  0  0  0  0  0  0  0  0
    9.6793  -15.4808   27.6136 O   0  0  0  0  0  0  0  0  0  0  0  0
  2  3  1  0
  2  1  1  0
  3  4  2  0
  5  6  1  0
  7  6  1  1
  7  9  1  0
  8  7  1  0
  8  3  1  0
  9 10  2  0
 12 11  1  1
 13 12  1  0
 14 12  1  0
 15 14  1  1
 15 17  1  0
 16  9  1  0
 16 15  1  0
 17 18  2  0
 17 19  1  0
M  END
$$$$
