GSL.pdb
     RDKit          3D

 19 18  0  0  1  0  0  0  0  0999 V2000
    6.8327  -20.3054   24.5514 N   0  0  0  0  0  0  0  0  0  0  0  0
    6.1539  -19.2461   23.8478 C   0  0  0  0  0  0  0  0  0  0  0  0
    7.1476  -18.2766   23.3163 C   0  0  0  0  0  0  0  0  0  0  0  0
    8.3276  -18.3360   23.6882 O   0  0  0  0  0  0  0  0  0  0  0  0
    5.7424  -15.2412   20.9370 O   0  0  0  0  0  0  0  0  0  0  0  0
    7.0718  -15.5724   20.6417 C   0  0  0  0  0  0  0  0  0  0  0  0
    7.6261  -16.2741   21.8429 C   0  0  2  0  0  0  0  0  0  0  0  0
    6.7560  -17.2790   22.3828 N   0  0  0  0  0  0  0  0  0  0  0  0
    8.0790  -15.3414   22.9116 C   0  0  0  0  0  0  0  0  0  0  0  0
    8.9538  -14.4997   22.6369 O   0  0  0  0  0  0  0  0  0  0  0  0
    5.9089  -12.0530   27.5200 C   0  0  0  0  0  0  0  0  0  0  0  0
    7.0761  -12.5964   26.7519 C   0  0  2  0  0  0  0  0  0  0  0  0
    7.8946  -11.4475   26.1314 C   0  0  0  0  0  0  0  0  0  0  0  0
    6.7526  -13.6026   25.7063 C   0  0  0  0  0  0  0  0  0  0  0  0
    7.8765  -14.4696   25.2364 C   0  0  2  0  0  0  0  0  0  0  0  0
    7.5177  -15.4132   24.2285 N   0  0  0  0  0  0  0  0  0  0  0  0
    8.6175  -15.0930   26.3624 C   0  0  0  0  0  0  0  0  0  0  0  0
    8.2187  -16.1902   26.8299 O   0  0  0  0  0  0  0  0  0  0  0  0
    9.7379  -14.5215   26.9304 O   0  0  0  0  0  0  0  0  0  0  0  0
  2  3  1  0
  2  1  1  0
  3  4  2  0
  5  6  1  0
  7  6  1  6
  7  9  1  0
  8  7  1  0
  8  3  1  0
  9 10  2  0
 12 11  1  6
 13 12  1  0
 14 12  1  0
 15 14  1  1
 15 17  1  0
 16  9  1  0
 16 15  1  0
 17 18  2  0
 17 19  1  0
M  END
$$$$
