GSL.pdb
     RDKit          3D

 19 18  0  0  1  0  0  0  0  0999 V2000
    7.8845  -12.7455   18.0616 N   0  0  0  0  0  0  0  0  0  0  0  0
    8.8278  -13.5380   18.8098 C   0  0  0  0  0  0  0  0  0  0  0  0
    8.1691  -14.0962   20.0199 C   0  0  0  0  0  0  0  0  0  0  0  0
    7.0367  -13.7094   20.3400 O   0  0  0  0  0  0  0  0  0  0  0  0
    9.7880  -17.4997   21.7173 O   0  0  0  0  0  0  0  0  0  0  0  0
    8.4132  -17.2629   21.8518 C   0  0  0  0  0  0  0  0  0  0  0  0
    8.2276  -15.7781   21.9114 C   0  0  2  0  0  0  0  0  0  0  0  0
    8.8277  -15.0723   20.8158 N   0  0  0  0  0  0  0  0  0  0  0  0
    8.6466  -15.1851   23.2113 C   0  0  0  0  0  0  0  0  0  0  0  0
    9.8321  -14.8329   23.3514 O   0  0  0  0  0  0  0  0  0  0  0  0
    5.6545  -11.9632   26.8895 C   0  0  0  0  0  0  0  0  0  0  0  0
    6.9891  -12.5527   26.5447 C   0  0  2  0  0  0  0  0  0  0  0  0
    7.5444  -11.9128   25.2575 C   0  0  0  0  0  0  0  0  0  0  0  0
    7.0329  -14.0342   26.4269 C   0  0  0  0  0  0  0  0  0  0  0  0
    8.1203  -14.6095   25.5773 C   0  0  2  0  0  0  0  0  0  0  0  0
    7.7025  -15.0240   24.2778 N   0  0  0  0  0  0  0  0  0  0  0  0
    8.8968  -15.6577   26.2872 C   0  0  0  0  0  0  0  0  0  0  0  0
    9.4473  -15.3803   27.3834 O   0  0  0  0  0  0  0  0  0  0  0  0
    9.0474  -16.9395   25.7984 O   0  0  0  0  0  0  0  0  0  0  0  0
  2  3  1  0
  2  1  1  0
  3  4  2  0
  5  6  1  0
  7  6  1  1
  7  9  1  0
  8  7  1  0
  8  3  1  0
  9 10  2  0
 12 11  1  6
 13 12  1  0
 14 12  1  0
 15 14  1  1
 15 17  1  0
 16  9  1  0
 16 15  1  0
 17 18  2  0
 17 19  1  0
M  END
$$$$
