GSL.pdb
     RDKit          3D

 19 18  0  0  1  0  0  0  0  0999 V2000
    8.0020  -12.4546   18.1772 N   0  0  0  0  0  0  0  0  0  0  0  0
    8.8548  -13.5503   18.5642 C   0  0  0  0  0  0  0  0  0  0  0  0
    8.3040  -14.2144   19.7748 C   0  0  0  0  0  0  0  0  0  0  0  0
    7.1816  -13.9002   20.1942 O   0  0  0  0  0  0  0  0  0  0  0  0
    8.4868  -18.0304   22.6822 O   0  0  0  0  0  0  0  0  0  0  0  0
    9.0686  -17.3997   21.5741 C   0  0  0  0  0  0  0  0  0  0  0  0
    8.5714  -15.9872   21.5625 C   0  0  2  0  0  0  0  0  0  0  0  0
    9.0546  -15.2093   20.4580 N   0  0  0  0  0  0  0  0  0  0  0  0
    8.8005  -15.2728   22.8487 C   0  0  0  0  0  0  0  0  0  0  0  0
    9.9602  -14.9280   23.1407 O   0  0  0  0  0  0  0  0  0  0  0  0
    5.6944  -12.2162   27.3537 C   0  0  0  0  0  0  0  0  0  0  0  0
    6.9365  -12.7896   26.7404 C   0  0  2  0  0  0  0  0  0  0  0  0
    7.9899  -11.6857   26.5248 C   0  0  0  0  0  0  0  0  0  0  0  0
    6.7443  -13.5521   25.4787 C   0  0  0  0  0  0  0  0  0  0  0  0
    7.9168  -14.3349   24.9806 C   0  0  2  0  0  0  0  0  0  0  0  0
    7.7067  -14.9891   23.7305 N   0  0  0  0  0  0  0  0  0  0  0  0
    8.4673  -15.2471   26.0153 C   0  0  0  0  0  0  0  0  0  0  0  0
    8.0106  -16.4148   26.1131 O   0  0  0  0  0  0  0  0  0  0  0  0
    9.4692  -14.8735   26.8878 O   0  0  0  0  0  0  0  0  0  0  0  0
  2  3  1  0
  2  1  1  0
  3  4  2  0
  5  6  1  0
  7  6  1  1
  7  9  1  0
  8  7  1  0
  8  3  1  0
  9 10  2  0
 12 11  1  6
 13 12  1  0
 14 12  1  0
 15 14  1  1
 15 17  1  0
 16  9  1  0
 16 15  1  0
 17 18  2  0
 17 19  1  0
M  END
$$$$
