GSL.pdb
     RDKit          3D

 19 18  0  0  1  0  0  0  0  0999 V2000
    8.1816  -12.4843   18.3102 N   0  0  0  0  0  0  0  0  0  0  0  0
    8.6247  -13.7706   18.7865 C   0  0  0  0  0  0  0  0  0  0  0  0
    8.0873  -14.0153   20.1507 C   0  0  0  0  0  0  0  0  0  0  0  0
    7.5694  -13.0864   20.7858 O   0  0  0  0  0  0  0  0  0  0  0  0
    8.2936  -17.8927   21.9252 O   0  0  0  0  0  0  0  0  0  0  0  0
    7.0906  -17.1736   21.9263 C   0  0  0  0  0  0  0  0  0  0  0  0
    7.4489  -15.7196   21.9108 C   0  0  2  0  0  0  0  0  0  0  0  0
    8.1619  -15.3085   20.7356 N   0  0  0  0  0  0  0  0  0  0  0  0
    8.1624  -15.2769   23.1404 C   0  0  0  0  0  0  0  0  0  0  0  0
    9.3957  -15.1169   23.0890 O   0  0  0  0  0  0  0  0  0  0  0  0
    7.7112  -11.5317   25.5293 C   0  0  0  0  0  0  0  0  0  0  0  0
    6.7216  -12.5741   25.9557 C   0  0  2  0  0  0  0  0  0  0  0  0
    5.7219  -11.9850   26.9697 C   0  0  0  0  0  0  0  0  0  0  0  0
    7.2984  -13.8339   26.4948 C   0  0  0  0  0  0  0  0  0  0  0  0
    8.1183  -14.6556   25.5524 C   0  0  2  0  0  0  0  0  0  0  0  0
    7.4420  -15.0403   24.3567 N   0  0  0  0  0  0  0  0  0  0  0  0
    8.7761  -15.8025   26.2289 C   0  0  0  0  0  0  0  0  0  0  0  0
    8.3645  -16.9693   26.0034 O   0  0  0  0  0  0  0  0  0  0  0  0
    9.8314  -15.6513   27.1052 O   0  0  0  0  0  0  0  0  0  0  0  0
  2  3  1  0
  2  1  1  0
  3  4  2  0
  5  6  1  0
  7  6  1  1
  7  9  1  0
  8  7  1  0
  8  3  1  0
  9 10  2  0
 12 11  1  1
 13 12  1  0
 14 12  1  0
 15 14  1  1
 15 17  1  0
 16  9  1  0
 16 15  1  0
 17 18  2  0
 17 19  1  0
M  END
$$$$
