GSL.pdb
     RDKit          3D

 19 18  0  0  1  0  0  0  0  0999 V2000
    8.1262  -12.4957   18.5486 N   0  0  0  0  0  0  0  0  0  0  0  0
    8.8149  -13.6523   19.0642 C   0  0  0  0  0  0  0  0  0  0  0  0
    8.1543  -14.1173   20.3121 C   0  0  0  0  0  0  0  0  0  0  0  0
    7.2682  -13.4277   20.8351 O   0  0  0  0  0  0  0  0  0  0  0  0
    9.2487  -17.8254   22.0241 O   0  0  0  0  0  0  0  0  0  0  0  0
    7.9154  -17.4033   22.1156 C   0  0  0  0  0  0  0  0  0  0  0  0
    7.9268  -15.9060   22.0894 C   0  0  2  0  0  0  0  0  0  0  0  0
    8.5304  -15.3492   20.9130 N   0  0  0  0  0  0  0  0  0  0  0  0
    8.5124  -15.3010   23.3174 C   0  0  0  0  0  0  0  0  0  0  0  0
    9.7160  -14.9838   23.3099 O   0  0  0  0  0  0  0  0  0  0  0  0
    7.4454  -11.4927   25.2461 C   0  0  0  0  0  0  0  0  0  0  0  0
    6.5647  -12.5853   25.7737 C   0  0  2  0  0  0  0  0  0  0  0  0
    5.4766  -12.0020   26.6960 C   0  0  0  0  0  0  0  0  0  0  0  0
    7.2608  -13.7027   26.4645 C   0  0  0  0  0  0  0  0  0  0  0  0
    8.2463  -14.4838   25.6556 C   0  0  2  0  0  0  0  0  0  0  0  0
    7.7052  -15.0892   24.4827 N   0  0  0  0  0  0  0  0  0  0  0  0
    9.0241  -15.4405   26.4834 C   0  0  0  0  0  0  0  0  0  0  0  0
    8.8356  -16.6755   26.3384 O   0  0  0  0  0  0  0  0  0  0  0  0
    9.9570  -15.0380   27.4173 O   0  0  0  0  0  0  0  0  0  0  0  0
  2  3  1  0
  2  1  1  0
  3  4  2  0
  5  6  1  0
  7  6  1  1
  7  9  1  0
  8  7  1  0
  8  3  1  0
  9 10  2  0
 12 11  1  1
 13 12  1  0
 14 12  1  0
 15 14  1  1
 15 17  1  0
 16  9  1  0
 16 15  1  0
 17 18  2  0
 17 19  1  0
M  END
$$$$
