GSL.pdb
     RDKit          3D

 19 18  0  0  1  0  0  0  0  0999 V2000
    5.0150  -19.6868   20.5850 N   0  0  0  0  0  0  0  0  0  0  0  0
    5.0211  -18.2575   20.3982 C   0  0  0  0  0  0  0  0  0  0  0  0
    6.3834  -17.7213   20.6563 C   0  0  0  0  0  0  0  0  0  0  0  0
    7.1701  -18.3546   21.3735 O   0  0  0  0  0  0  0  0  0  0  0  0
    7.4767  -14.3750   18.6081 O   0  0  0  0  0  0  0  0  0  0  0  0
    8.5697  -15.0911   19.1146 C   0  0  0  0  0  0  0  0  0  0  0  0
    8.0743  -15.8725   20.2922 C   0  0  2  0  0  0  0  0  0  0  0  0
    6.7936  -16.4855   20.0866 N   0  0  0  0  0  0  0  0  0  0  0  0
    8.0869  -15.0941   21.5614 C   0  0  0  0  0  0  0  0  0  0  0  0
    7.3349  -14.1075   21.6632 O   0  0  0  0  0  0  0  0  0  0  0  0
    6.3225  -14.1004   26.6118 C   0  0  0  0  0  0  0  0  0  0  0  0
    7.5353  -13.8314   25.7725 C   0  0  2  0  0  0  0  0  0  0  0  0
    7.7121  -12.3167   25.5511 C   0  0  0  0  0  0  0  0  0  0  0  0
    7.5895  -14.5385   24.4658 C   0  0  0  0  0  0  0  0  0  0  0  0
    8.9456  -14.7581   23.8756 C   0  0  2  0  0  0  0  0  0  0  0  0
    8.9478  -15.4750   22.6423 N   0  0  0  0  0  0  0  0  0  0  0  0
    9.9065  -15.3167   24.8608 C   0  0  0  0  0  0  0  0  0  0  0  0
    9.7641  -16.5019   25.2564 O   0  0  0  0  0  0  0  0  0  0  0  0
   10.9632  -14.5910   25.3718 O   0  0  0  0  0  0  0  0  0  0  0  0
  2  3  1  0
  2  1  1  0
  3  4  2  0
  5  6  1  0
  7  6  1  6
  7  9  1  0
  8  7  1  0
  8  3  1  0
  9 10  2  0
 12 11  1  6
 13 12  1  0
 14 12  1  0
 15 14  1  1
 15 17  1  0
 16  9  1  0
 16 15  1  0
 17 18  2  0
 17 19  1  0
M  END
$$$$
