GSL.pdb
     RDKit          3D

 19 18  0  0  1  0  0  0  0  0999 V2000
    8.0170  -12.8310   19.3783 N   0  0  0  0  0  0  0  0  0  0  0  0
    9.0054  -13.8401   19.6659 C   0  0  0  0  0  0  0  0  0  0  0  0
    8.7086  -14.4772   20.9758 C   0  0  0  0  0  0  0  0  0  0  0  0
    7.8944  -13.9516   21.7473 O   0  0  0  0  0  0  0  0  0  0  0  0
   10.3165  -18.3038   21.8930 O   0  0  0  0  0  0  0  0  0  0  0  0
    9.0121  -17.9465   22.2607 C   0  0  0  0  0  0  0  0  0  0  0  0
    9.0152  -16.4695   22.5077 C   0  0  2  0  0  0  0  0  0  0  0  0
    9.3517  -15.6871   21.3532 N   0  0  0  0  0  0  0  0  0  0  0  0
    9.8495  -16.0703   23.6747 C   0  0  0  0  0  0  0  0  0  0  0  0
   11.0283  -15.7247   23.4742 O   0  0  0  0  0  0  0  0  0  0  0  0
    9.4045  -14.4627   29.7031 C   0  0  0  0  0  0  0  0  0  0  0  0
   10.1721  -14.6943   28.4363 C   0  0  2  0  0  0  0  0  0  0  0  0
   11.0110  -13.4517   28.0799 C   0  0  0  0  0  0  0  0  0  0  0  0
    9.3676  -15.1108   27.2574 C   0  0  0  0  0  0  0  0  0  0  0  0
   10.1087  -15.7599   26.1327 C   0  0  2  0  0  0  0  0  0  0  0  0
    9.3043  -16.0845   25.0002 N   0  0  0  0  0  0  0  0  0  0  0  0
   10.9381  -16.9043   26.5891 C   0  0  0  0  0  0  0  0  0  0  0  0
   12.1684  -16.7337   26.7859 O   0  0  0  0  0  0  0  0  0  0  0  0
   10.4201  -18.1640   26.8115 O   0  0  0  0  0  0  0  0  0  0  0  0
  2  3  1  0
  2  1  1  0
  3  4  2  0
  5  6  1  0
  7  6  1  6
  7  9  1  0
  8  7  1  0
  8  3  1  0
  9 10  2  0
 12 11  1  1
 13 12  1  0
 14 12  1  0
 15 14  1  1
 15 17  1  0
 16  9  1  0
 16 15  1  0
 17 18  2  0
 17 19  1  0
M  END
$$$$
