GSL.pdb
     RDKit          3D

 19 18  0  0  1  0  0  0  0  0999 V2000
   12.2733  -14.0146   18.9696 N   0  0  0  0  0  0  0  0  0  0  0  0
   12.3011  -15.0926   19.9262 C   0  0  0  0  0  0  0  0  0  0  0  0
   10.9594  -15.2508   20.5463 C   0  0  0  0  0  0  0  0  0  0  0  0
   10.0454  -14.4701   20.2472 O   0  0  0  0  0  0  0  0  0  0  0  0
   10.1111  -18.5416   23.0959 O   0  0  0  0  0  0  0  0  0  0  0  0
    9.0992  -17.9361   22.3386 C   0  0  0  0  0  0  0  0  0  0  0  0
    9.4751  -16.4956   22.1765 C   0  0  2  0  0  0  0  0  0  0  0  0
   10.7139  -16.2922   21.4818 N   0  0  0  0  0  0  0  0  0  0  0  0
    9.4598  -15.7364   23.4572 C   0  0  0  0  0  0  0  0  0  0  0  0
   10.5368  -15.5501   24.0527 O   0  0  0  0  0  0  0  0  0  0  0  0
    5.5585  -12.3296   27.0253 C   0  0  0  0  0  0  0  0  0  0  0  0
    6.9170  -12.8366   26.6443 C   0  0  2  0  0  0  0  0  0  0  0  0
    7.9207  -11.6709   26.5524 C   0  0  0  0  0  0  0  0  0  0  0  0
    6.9803  -13.6514   25.4023 C   0  0  0  0  0  0  0  0  0  0  0  0
    8.2022  -14.4916   25.2107 C   0  0  2  0  0  0  0  0  0  0  0  0
    8.2292  -15.2314   23.9913 N   0  0  0  0  0  0  0  0  0  0  0  0
    8.4983  -15.3361   26.3960 C   0  0  0  0  0  0  0  0  0  0  0  0
    7.8920  -16.4283   26.5412 O   0  0  0  0  0  0  0  0  0  0  0  0
    9.4183  -14.9784   27.3604 O   0  0  0  0  0  0  0  0  0  0  0  0
  2  3  1  0
  2  1  1  0
  3  4  2  0
  5  6  1  0
  7  6  1  1
  7  9  1  0
  8  7  1  0
  8  3  1  0
  9 10  2  0
 12 11  1  6
 13 12  1  0
 14 12  1  0
 15 14  1  1
 15 17  1  0
 16  9  1  0
 16 15  1  0
 17 18  2  0
 17 19  1  0
M  END
$$$$
