GSL.pdb
     RDKit          3D

 19 18  0  0  1  0  0  0  0  0999 V2000
   -2.3313  -29.9113   26.8592 N   0  0  0  0  0  0  0  0  0  0  0  0
   -3.6808  -30.2011   27.2747 C   0  0  0  0  0  0  0  0  0  0  0  0
   -4.4569  -28.9378   27.3834 C   0  0  0  0  0  0  0  0  0  0  0  0
   -4.4149  -28.1068   26.4657 O   0  0  0  0  0  0  0  0  0  0  0  0
   -6.6291  -28.0515   30.9054 O   0  0  0  0  0  0  0  0  0  0  0  0
   -7.2245  -27.7539   29.6721 C   0  0  0  0  0  0  0  0  0  0  0  0
   -6.1146  -27.5395   28.6898 C   0  0  2  0  0  0  0  0  0  0  0  0
   -5.2490  -28.6730   28.5333 N   0  0  0  0  0  0  0  0  0  0  0  0
   -5.3234  -26.3067   28.9567 C   0  0  0  0  0  0  0  0  0  0  0  0
   -4.2965  -26.3968   29.6543 O   0  0  0  0  0  0  0  0  0  0  0  0
   -4.1697  -20.6553   26.6829 C   0  0  0  0  0  0  0  0  0  0  0  0
   -3.9922  -21.7363   27.7064 C   0  0  2  0  0  0  0  0  0  0  0  0
   -2.5029  -22.1073   27.8455 C   0  0  0  0  0  0  0  0  0  0  0  0
   -4.7977  -22.9680   27.4953 C   0  0  0  0  0  0  0  0  0  0  0  0
   -4.9994  -23.8518   28.6843 C   0  0  2  0  0  0  0  0  0  0  0  0
   -5.7375  -25.0437   28.4203 N   0  0  0  0  0  0  0  0  0  0  0  0
   -5.5207  -23.1075   29.8591 C   0  0  0  0  0  0  0  0  0  0  0  0
   -4.7514  -22.8610   30.8230 O   0  0  0  0  0  0  0  0  0  0  0  0
   -6.8251  -22.6661   29.9485 O   0  0  0  0  0  0  0  0  0  0  0  0
  2  3  1  0
  2  1  1  0
  3  4  2  0
  5  6  1  0
  7  6  1  1
  7  9  1  0
  8  7  1  0
  8  3  1  0
  9 10  2  0
 12 11  1  6
 13 12  1  0
 14 12  1  0
 15 14  1  6
 15 17  1  0
 16  9  1  0
 16 15  1  0
 17 18  2  0
 17 19  1  0
M  END
$$$$
