GSL.pdb
     RDKit          3D

 19 18  0  0  1  0  0  0  0  0999 V2000
    8.2006  -12.9350   17.5568 N   0  0  0  0  0  0  0  0  0  0  0  0
    9.0701  -13.5291   18.5411 C   0  0  0  0  0  0  0  0  0  0  0  0
    8.2595  -14.2215   19.5772 C   0  0  0  0  0  0  0  0  0  0  0  0
    7.0244  -14.1289   19.5581 O   0  0  0  0  0  0  0  0  0  0  0  0
    9.6998  -17.4687   21.6686 O   0  0  0  0  0  0  0  0  0  0  0  0
    8.3327  -17.1737   21.5773 C   0  0  0  0  0  0  0  0  0  0  0  0
    8.2003  -15.6835   21.6433 C   0  0  2  0  0  0  0  0  0  0  0  0
    8.8894  -14.9910   20.5926 N   0  0  0  0  0  0  0  0  0  0  0  0
    8.5649  -15.1193   22.9721 C   0  0  0  0  0  0  0  0  0  0  0  0
    9.7661  -14.9083   23.2209 O   0  0  0  0  0  0  0  0  0  0  0  0
    5.5374  -11.9115   27.0170 C   0  0  0  0  0  0  0  0  0  0  0  0
    6.8224  -12.5127   26.5321 C   0  0  2  0  0  0  0  0  0  0  0  0
    7.4329  -11.6478   25.4122 C   0  0  0  0  0  0  0  0  0  0  0  0
    6.7484  -13.9293   26.0871 C   0  0  0  0  0  0  0  0  0  0  0  0
    7.8940  -14.4393   25.2728 C   0  0  2  0  0  0  0  0  0  0  0  0
    7.5520  -14.8259   23.9429 N   0  0  0  0  0  0  0  0  0  0  0  0
    8.6738  -15.4825   25.9865 C   0  0  0  0  0  0  0  0  0  0  0  0
    8.3878  -16.6943   25.8096 O   0  0  0  0  0  0  0  0  0  0  0  0
    9.7116  -15.1858   26.8464 O   0  0  0  0  0  0  0  0  0  0  0  0
  2  3  1  0
  2  1  1  0
  3  4  2  0
  5  6  1  0
  7  6  1  1
  7  9  1  0
  8  7  1  0
  8  3  1  0
  9 10  2  0
 12 11  1  6
 13 12  1  0
 14 12  1  0
 15 14  1  1
 15 17  1  0
 16  9  1  0
 16 15  1  0
 17 18  2  0
 17 19  1  0
M  END
$$$$
