MTD.pdb
     RDKit          3D

 24 23  0  0  1  0  0  0  0  0999 V2000
   24.4479  -21.0952  -15.5482 C   0  0  0  0  0  0  0  0  0  0  0  0
   24.9025  -19.3597  -15.2265 S   0  0  0  0  0  0  0  0  0  0  0  0
   25.0956  -18.4860  -16.8009 C   0  0  0  0  0  0  0  0  0  0  0  0
   25.4991  -17.0375  -16.5688 C   0  0  0  0  0  0  0  0  0  0  0  0
   24.4567  -16.2983  -15.7715 C   0  0  2  0  0  0  0  0  0  0  0  0
   23.1411  -16.4410  -16.3345 N   0  0  0  0  0  0  0  0  0  0  0  0
   24.8553  -14.8572  -15.6740 C   0  0  0  0  0  0  0  0  0  0  0  0
   26.0460  -14.5154  -15.4619 O   0  0  0  0  0  0  0  0  0  0  0  0
   26.4560  -13.0145  -17.0359 C   0  0  0  0  0  0  0  0  0  0  0  0
   25.2397  -12.1626  -17.0056 C   0  0  1  0  0  0  0  0  0  0  0  0
   24.4631  -12.5673  -18.1268 O   0  0  0  0  0  0  0  0  0  0  0  0
   24.3172  -12.3799  -15.8246 C   0  0  2  0  0  0  0  0  0  0  0  0
   23.9057  -13.8092  -15.8167 N   0  0  0  0  0  0  0  0  0  0  0  0
   23.1250  -11.5212  -15.8219 C   0  0  0  0  0  0  0  0  0  0  0  0
   22.0223  -12.0184  -16.2138 O   0  0  0  0  0  0  0  0  0  0  0  0
   23.1237  -10.1904  -15.4141 N   0  0  0  0  0  0  0  0  0  0  0  0
   21.9393   -9.3345  -15.4615 C   0  0  1  0  0  0  0  0  0  0  0  0
   22.1159   -8.2403  -14.4416 C   0  0  0  0  0  0  0  0  0  0  0  0
   20.9736   -7.3270  -14.3421 C   0  0  0  0  0  0  0  0  0  0  0  0
   19.9491   -7.5290  -15.0300 O   0  0  0  0  0  0  0  0  0  0  0  0
   21.8458   -8.6959  -16.8105 C   0  0  0  0  0  0  0  0  0  0  0  0
   22.9028   -8.4546  -17.4445 O   0  0  0  0  0  0  0  0  0  0  0  0
   21.0509   -6.2368  -13.4724 O   0  0  0  0  0  0  0  0  0  0  0  0
   20.6196   -8.3788  -17.3460 O   0  0  0  0  0  0  0  0  0  0  0  0
  2  1  1  0
  2  3  1  0
  4  3  1  0
  4  5  1  0
  5  6  1  6
  7  5  1  0
  7  8  2  0
 10  9  1  1
 10 12  1  0
 11 10  1  0
 12 13  1  6
 12 14  1  0
 13  7  1  0
 14 16  1  0
 15 14  2  0
 16 17  1  0
 17 21  1  0
 17 18  1  1
 19 18  1  0
 20 19  2  0
 21 22  2  0
 21 24  1  0
 23 19  1  0
M  END
$$$$
