MTD.pdb
     RDKit          3D

 24 23  0  0  1  0  0  0  0  0999 V2000
   31.3654  -16.1929  -19.0425 C   0  0  0  0  0  0  0  0  0  0  0  0
   29.9612  -16.1632  -17.8808 S   0  0  0  0  0  0  0  0  0  0  0  0
   28.9942  -14.6549  -18.1435 C   0  0  0  0  0  0  0  0  0  0  0  0
   29.9015  -13.4871  -18.5013 C   0  0  0  0  0  0  0  0  0  0  0  0
   29.1078  -12.2311  -18.7486 C   0  0  2  0  0  0  0  0  0  0  0  0
   28.1356  -12.4008  -19.7946 N   0  0  0  0  0  0  0  0  0  0  0  0
   30.0564  -11.1141  -19.0611 C   0  0  0  0  0  0  0  0  0  0  0  0
   30.4756  -10.9122  -20.2286 O   0  0  0  0  0  0  0  0  0  0  0  0
   30.0563   -8.7222  -20.5116 C   0  0  0  0  0  0  0  0  0  0  0  0
   30.5949   -8.1249  -19.2629 C   0  0  1  0  0  0  0  0  0  0  0  0
   29.4563   -7.7928  -18.4774 O   0  0  0  0  0  0  0  0  0  0  0  0
   31.3885   -9.0628  -18.3777 C   0  0  2  0  0  0  0  0  0  0  0  0
   30.5266  -10.2304  -18.0519 N   0  0  0  0  0  0  0  0  0  0  0  0
   31.8828   -8.4505  -17.1369 C   0  0  0  0  0  0  0  0  0  0  0  0
   31.1650   -8.5415  -16.0914 O   0  0  0  0  0  0  0  0  0  0  0  0
   33.0946   -7.7740  -17.0304 N   0  0  0  0  0  0  0  0  0  0  0  0
   33.6296   -7.2741  -15.7649 C   0  0  1  0  0  0  0  0  0  0  0  0
   35.1070   -7.5660  -15.7374 C   0  0  0  0  0  0  0  0  0  0  0  0
   35.7845   -7.1025  -14.5230 C   0  0  0  0  0  0  0  0  0  0  0  0
   36.1523   -5.9112  -14.4275 O   0  0  0  0  0  0  0  0  0  0  0  0
   33.4521   -5.7904  -15.7061 C   0  0  0  0  0  0  0  0  0  0  0  0
   33.6207   -5.1999  -14.6106 O   0  0  0  0  0  0  0  0  0  0  0  0
   36.0095   -8.0088  -13.4842 O   0  0  0  0  0  0  0  0  0  0  0  0
   33.1094   -5.0860  -16.8363 O   0  0  0  0  0  0  0  0  0  0  0  0
  2  1  1  0
  2  3  1  0
  4  3  1  0
  4  5  1  0
  5  6  1  6
  7  5  1  0
  7  8  2  0
 10  9  1  6
 10 12  1  0
 11 10  1  0
 12 13  1  1
 12 14  1  0
 13  7  1  0
 14 16  1  0
 15 14  2  0
 16 17  1  0
 17 21  1  0
 17 18  1  6
 19 18  1  0
 20 19  2  0
 21 22  2  0
 21 24  1  0
 23 19  1  0
M  END
$$$$
