MTD.pdb
     RDKit          3D

 24 23  0  0  1  0  0  0  0  0999 V2000
   15.3694  -12.2655  -21.1251 C   0  0  0  0  0  0  0  0  0  0  0  0
   15.8436  -11.3443  -19.6256 S   0  0  0  0  0  0  0  0  0  0  0  0
   17.4017  -12.0046  -18.9809 C   0  0  0  0  0  0  0  0  0  0  0  0
   17.9105  -11.1563  -17.8249 C   0  0  0  0  0  0  0  0  0  0  0  0
   19.1779  -11.7251  -17.2428 C   0  0  2  0  0  0  0  0  0  0  0  0
   18.9866  -13.0500  -16.7172 N   0  0  0  0  0  0  0  0  0  0  0  0
   19.6888  -10.7889  -16.1905 C   0  0  0  0  0  0  0  0  0  0  0  0
   19.0932  -10.6415  -15.0936 O   0  0  0  0  0  0  0  0  0  0  0  0
   22.9963  -11.0974  -14.6325 C   0  0  0  0  0  0  0  0  0  0  0  0
   22.8637   -9.6746  -15.0374 C   0  0  1  0  0  0  0  0  0  0  0  0
   23.4925   -9.5804  -16.3100 O   0  0  0  0  0  0  0  0  0  0  0  0
   21.4501   -9.1951  -15.2920 C   0  0  2  0  0  0  0  0  0  0  0  0
   20.8709  -10.0234  -16.3832 N   0  0  0  0  0  0  0  0  0  0  0  0
   21.3477   -7.7720  -15.6426 C   0  0  0  0  0  0  0  0  0  0  0  0
   21.1176   -7.4641  -16.8546 O   0  0  0  0  0  0  0  0  0  0  0  0
   21.4855   -6.7319  -14.7279 N   0  0  0  0  0  0  0  0  0  0  0  0
   21.5193   -5.3214  -15.1111 C   0  0  1  0  0  0  0  0  0  0  0  0
   20.0982   -4.8510  -15.2776 C   0  0  0  0  0  0  0  0  0  0  0  0
   19.9710   -3.4122  -15.5272 C   0  0  0  0  0  0  0  0  0  0  0  0
   20.7598   -2.8409  -16.3115 O   0  0  0  0  0  0  0  0  0  0  0  0
   22.1416   -4.5255  -14.0085 C   0  0  0  0  0  0  0  0  0  0  0  0
   22.4006   -3.3123  -14.2046 O   0  0  0  0  0  0  0  0  0  0  0  0
   18.9611   -2.6981  -14.8782 O   0  0  0  0  0  0  0  0  0  0  0  0
   22.4250   -5.1160  -12.7994 O   0  0  0  0  0  0  0  0  0  0  0  0
  2  1  1  0
  2  3  1  0
  4  3  1  0
  4  5  1  0
  5  6  1  1
  7  5  1  0
  7  8  2  0
 10  9  1  6
 10 12  1  0
 11 10  1  0
 12 13  1  6
 12 14  1  0
 13  7  1  0
 14 16  1  0
 15 14  2  0
 16 17  1  0
 17 21  1  0
 17 18  1  1
 19 18  1  0
 20 19  2  0
 21 22  2  0
 21 24  1  0
 23 19  1  0
M  END
$$$$
