MTD.pdb
     RDKit          3D

 24 23  0  0  1  0  0  0  0  0999 V2000
   27.9187  -18.1641   -6.4855 C   0  0  0  0  0  0  0  0  0  0  0  0
   28.4871  -19.8493   -6.0870 S   0  0  0  0  0  0  0  0  0  0  0  0
   27.6411  -21.0392   -7.1583 C   0  0  0  0  0  0  0  0  0  0  0  0
   27.2150  -20.3833   -8.4633 C   0  0  0  0  0  0  0  0  0  0  0  0
   26.6284  -21.3900   -9.4177 C   0  0  2  0  0  0  0  0  0  0  0  0
   27.5477  -22.4551   -9.7156 N   0  0  0  0  0  0  0  0  0  0  0  0
   26.1946  -20.6790  -10.6633 C   0  0  0  0  0  0  0  0  0  0  0  0
   27.0278  -20.2289  -11.4896 O   0  0  0  0  0  0  0  0  0  0  0  0
   26.3764  -21.3579  -13.2640 C   0  0  0  0  0  0  0  0  0  0  0  0
   24.9081  -21.1380  -13.3062 C   0  0  1  0  0  0  0  0  0  0  0  0
   24.3271  -22.3588  -12.8635 O   0  0  0  0  0  0  0  0  0  0  0  0
   24.3723  -20.1056  -12.3366 C   0  0  2  0  0  0  0  0  0  0  0  0
   24.8207  -20.4801  -10.9688 N   0  0  0  0  0  0  0  0  0  0  0  0
   22.9106  -19.9586  -12.3558 C   0  0  0  0  0  0  0  0  0  0  0  0
   22.2392  -20.4787  -11.4095 O   0  0  0  0  0  0  0  0  0  0  0  0
   22.2082  -19.2811  -13.3484 N   0  0  0  0  0  0  0  0  0  0  0  0
   20.7609  -19.0769  -13.3144 C   0  0  1  0  0  0  0  0  0  0  0  0
   20.3816  -18.2410  -14.5086 C   0  0  0  0  0  0  0  0  0  0  0  0
   18.9450  -17.9703  -14.6157 C   0  0  0  0  0  0  0  0  0  0  0  0
   18.1773  -18.2858  -13.6805 O   0  0  0  0  0  0  0  0  0  0  0  0
   20.0731  -20.3988  -13.4404 C   0  0  0  0  0  0  0  0  0  0  0  0
   18.9931  -20.5842  -12.8267 O   0  0  0  0  0  0  0  0  0  0  0  0
   18.4545  -17.3589  -15.7718 O   0  0  0  0  0  0  0  0  0  0  0  0
   20.6176  -21.3945  -14.2171 O   0  0  0  0  0  0  0  0  0  0  0  0
  2  1  1  0
  2  3  1  0
  4  3  1  0
  4  5  1  0
  5  6  1  6
  7  5  1  0
  7  8  2  0
 10  9  1  1
 10 12  1  0
 11 10  1  0
 12 13  1  1
 12 14  1  0
 13  7  1  0
 14 16  1  0
 15 14  2  0
 16 17  1  0
 17 21  1  0
 17 18  1  6
 19 18  1  0
 20 19  2  0
 21 22  2  0
 21 24  1  0
 23 19  1  0
M  END
$$$$
