MTD.pdb
     RDKit          3D

 24 23  0  0  1  0  0  0  0  0999 V2000
   26.4698  -14.6939  -15.8827 C   0  0  0  0  0  0  0  0  0  0  0  0
   25.1820  -13.4125  -15.7354 S   0  0  0  0  0  0  0  0  0  0  0  0
   24.4746  -13.0792  -17.3687 C   0  0  0  0  0  0  0  0  0  0  0  0
   23.4845  -11.9259  -17.3033 C   0  0  0  0  0  0  0  0  0  0  0  0
   22.3871  -12.2002  -16.3087 C   0  0  2  0  0  0  0  0  0  0  0  0
   21.6497  -13.3924  -16.6296 N   0  0  0  0  0  0  0  0  0  0  0  0
   21.4876  -11.0039  -16.2398 C   0  0  0  0  0  0  0  0  0  0  0  0
   20.6586  -10.7490  -17.1494 O   0  0  0  0  0  0  0  0  0  0  0  0
   18.6916  -10.2527  -14.2101 C   0  0  0  0  0  0  0  0  0  0  0  0
   19.6262   -9.1185  -13.9954 C   0  0  1  0  0  0  0  0  0  0  0  0
   20.4035   -9.4753  -12.8586 O   0  0  0  0  0  0  0  0  0  0  0  0
   20.6533   -8.9006  -15.0866 C   0  0  2  0  0  0  0  0  0  0  0  0
   21.5295  -10.1012  -15.1425 N   0  0  0  0  0  0  0  0  0  0  0  0
   21.4751   -7.6953  -14.9122 C   0  0  0  0  0  0  0  0  0  0  0  0
   22.6984   -7.8394  -14.5966 O   0  0  0  0  0  0  0  0  0  0  0  0
   20.9990   -6.3972  -15.0726 N   0  0  0  0  0  0  0  0  0  0  0  0
   21.8179   -5.2060  -14.8538 C   0  0  1  0  0  0  0  0  0  0  0  0
   21.3342   -4.1311  -15.7914 C   0  0  0  0  0  0  0  0  0  0  0  0
   22.0328   -2.8510  -15.6431 C   0  0  0  0  0  0  0  0  0  0  0  0
   23.0355   -2.7676  -14.9006 O   0  0  0  0  0  0  0  0  0  0  0  0
   21.6177   -4.7202  -13.4537 C   0  0  0  0  0  0  0  0  0  0  0  0
   20.5105   -4.9152  -12.8940 O   0  0  0  0  0  0  0  0  0  0  0  0
   21.5613   -1.7364  -16.3405 O   0  0  0  0  0  0  0  0  0  0  0  0
   22.6327   -4.0701  -12.7917 O   0  0  0  0  0  0  0  0  0  0  0  0
  2  1  1  0
  2  3  1  0
  4  3  1  0
  4  5  1  0
  5  6  1  6
  7  5  1  0
  7  8  2  0
 10  9  1  6
 10 12  1  0
 11 10  1  0
 12 13  1  1
 12 14  1  0
 13  7  1  0
 14 16  1  0
 15 14  2  0
 16 17  1  0
 17 21  1  0
 17 18  1  6
 19 18  1  0
 20 19  2  0
 21 22  2  0
 21 24  1  0
 23 19  1  0
M  END
$$$$
