MTD.pdb
     RDKit          3D

 24 23  0  0  1  0  0  0  0  0999 V2000
   31.1955  -21.0844  -11.1246 C   0  0  0  0  0  0  0  0  0  0  0  0
   30.6657  -22.0486   -9.6714 S   0  0  0  0  0  0  0  0  0  0  0  0
   28.8910  -22.3893   -9.7893 C   0  0  0  0  0  0  0  0  0  0  0  0
   28.1781  -21.2824  -10.5517 C   0  0  0  0  0  0  0  0  0  0  0  0
   26.7097  -21.5802  -10.7064 C   0  0  2  0  0  0  0  0  0  0  0  0
   26.4750  -22.9100  -11.2010 N   0  0  0  0  0  0  0  0  0  0  0  0
   26.0996  -20.5480  -11.6049 C   0  0  0  0  0  0  0  0  0  0  0  0
   26.0474  -19.3359  -11.2766 O   0  0  0  0  0  0  0  0  0  0  0  0
   27.1184  -18.9464  -14.4929 C   0  0  0  0  0  0  0  0  0  0  0  0
   25.8157  -19.5471  -14.8776 C   0  0  1  0  0  0  0  0  0  0  0  0
   26.1319  -20.8149  -15.4403 O   0  0  0  0  0  0  0  0  0  0  0  0
   24.8832  -19.8784  -13.7314 C   0  0  2  0  0  0  0  0  0  0  0  0
   25.5512  -20.8910  -12.8706 N   0  0  0  0  0  0  0  0  0  0  0  0
   23.5646  -20.3746  -14.1480 C   0  0  0  0  0  0  0  0  0  0  0  0
   23.2759  -21.5906  -13.9140 O   0  0  0  0  0  0  0  0  0  0  0  0
   22.6037  -19.5946  -14.7849 N   0  0  0  0  0  0  0  0  0  0  0  0
   21.2932  -20.1014  -15.1888 C   0  0  1  0  0  0  0  0  0  0  0  0
   20.3417  -19.8973  -14.0391 C   0  0  0  0  0  0  0  0  0  0  0  0
   19.8484  -21.1428  -13.4442 C   0  0  0  0  0  0  0  0  0  0  0  0
   20.2060  -22.2453  -13.9137 O   0  0  0  0  0  0  0  0  0  0  0  0
   20.7915  -19.3025  -16.3492 C   0  0  0  0  0  0  0  0  0  0  0  0
   21.3423  -18.2061  -16.6171 O   0  0  0  0  0  0  0  0  0  0  0  0
   18.9793  -21.0753  -12.3528 O   0  0  0  0  0  0  0  0  0  0  0  0
   19.7428  -19.7641  -17.1095 O   0  0  0  0  0  0  0  0  0  0  0  0
  2  1  1  0
  2  3  1  0
  4  3  1  0
  4  5  1  0
  5  6  1  6
  7  5  1  0
  7  8  2  0
 10  9  1  1
 10 12  1  0
 11 10  1  0
 12 13  1  1
 12 14  1  0
 13  7  1  0
 14 16  1  0
 15 14  2  0
 16 17  1  0
 17 21  1  0
 17 18  1  1
 19 18  1  0
 20 19  2  0
 21 22  2  0
 21 24  1  0
 23 19  1  0
M  END
$$$$
