MTD.pdb
     RDKit          3D

 24 23  0  0  1  0  0  0  0  0999 V2000
   26.1888  -13.3947  -22.3986 C   0  0  0  0  0  0  0  0  0  0  0  0
   26.8913  -12.2979  -21.1236 S   0  0  0  0  0  0  0  0  0  0  0  0
   25.9889  -12.5253  -19.5701 C   0  0  0  0  0  0  0  0  0  0  0  0
   25.1468  -13.7916  -19.6151 C   0  0  0  0  0  0  0  0  0  0  0  0
   24.3120  -13.9401  -18.3702 C   0  0  2  0  0  0  0  0  0  0  0  0
   24.9788  -13.4243  -17.2051 N   0  0  0  0  0  0  0  0  0  0  0  0
   23.9530  -15.3847  -18.1989 C   0  0  0  0  0  0  0  0  0  0  0  0
   23.3565  -16.0271  -19.0995 O   0  0  0  0  0  0  0  0  0  0  0  0
   26.4426  -18.0974  -17.3024 C   0  0  0  0  0  0  0  0  0  0  0  0
   25.2697  -18.2255  -16.4002 C   0  0  1  0  0  0  0  0  0  0  0  0
   25.6157  -17.5084  -15.2213 O   0  0  0  0  0  0  0  0  0  0  0  0
   23.9997  -17.5530  -16.8775 C   0  0  2  0  0  0  0  0  0  0  0  0
   24.2702  -16.0964  -17.0100 N   0  0  0  0  0  0  0  0  0  0  0  0
   22.8380  -17.7635  -16.0030 C   0  0  0  0  0  0  0  0  0  0  0  0
   22.5761  -16.8820  -15.1248 O   0  0  0  0  0  0  0  0  0  0  0  0
   21.9989  -18.8717  -16.0748 N   0  0  0  0  0  0  0  0  0  0  0  0
   20.9261  -19.1332  -15.1165 C   0  0  1  0  0  0  0  0  0  0  0  0
   19.7065  -19.5613  -15.8899 C   0  0  0  0  0  0  0  0  0  0  0  0
   18.5433  -19.8637  -15.0507 C   0  0  0  0  0  0  0  0  0  0  0  0
   18.2600  -19.1234  -14.0836 O   0  0  0  0  0  0  0  0  0  0  0  0
   21.3265  -20.2648  -14.2246 C   0  0  0  0  0  0  0  0  0  0  0  0
   22.2978  -20.9881  -14.5573 O   0  0  0  0  0  0  0  0  0  0  0  0
   17.7647  -20.9842  -15.3494 O   0  0  0  0  0  0  0  0  0  0  0  0
   20.6395  -20.5073  -13.0583 O   0  0  0  0  0  0  0  0  0  0  0  0
  2  1  1  0
  2  3  1  0
  4  3  1  0
  4  5  1  0
  5  6  1  1
  7  5  1  0
  7  8  2  0
 10  9  1  6
 10 12  1  0
 11 10  1  0
 12 13  1  1
 12 14  1  0
 13  7  1  0
 14 16  1  0
 15 14  2  0
 16 17  1  0
 17 21  1  0
 17 18  1  6
 19 18  1  0
 20 19  2  0
 21 22  2  0
 21 24  1  0
 23 19  1  0
M  END
$$$$
