MTD.pdb
     RDKit          3D

 24 23  0  0  1  0  0  0  0  0999 V2000
   17.4606  -16.5279  -15.4742 C   0  0  0  0  0  0  0  0  0  0  0  0
   18.5027  -15.0416  -15.6381 S   0  0  0  0  0  0  0  0  0  0  0  0
   18.5571  -14.5330  -17.3753 C   0  0  0  0  0  0  0  0  0  0  0  0
   19.4731  -13.3319  -17.5580 C   0  0  0  0  0  0  0  0  0  0  0  0
   18.9686  -12.1358  -16.7942 C   0  0  2  0  0  0  0  0  0  0  0  0
   17.5649  -11.9080  -17.0081 N   0  0  0  0  0  0  0  0  0  0  0  0
   19.7812  -10.9378  -17.1812 C   0  0  0  0  0  0  0  0  0  0  0  0
   21.0141  -11.0232  -17.4096 O   0  0  0  0  0  0  0  0  0  0  0  0
   19.0861   -8.6649  -20.0915 C   0  0  0  0  0  0  0  0  0  0  0  0
   19.2847   -7.8095  -18.8936 C   0  0  1  0  0  0  0  0  0  0  0  0
   17.9793   -7.5451  -18.3936 O   0  0  0  0  0  0  0  0  0  0  0  0
   19.9954   -8.4674  -17.7296 C   0  0  2  0  0  0  0  0  0  0  0  0
   19.1959   -9.6487  -17.3082 N   0  0  0  0  0  0  0  0  0  0  0  0
   20.2169   -7.5828  -16.5776 C   0  0  0  0  0  0  0  0  0  0  0  0
   19.5876   -7.8262  -15.4999 O   0  0  0  0  0  0  0  0  0  0  0  0
   21.0778   -6.4891  -16.5888 N   0  0  0  0  0  0  0  0  0  0  0  0
   21.3071   -5.6325  -15.4263 C   0  0  1  0  0  0  0  0  0  0  0  0
   21.9034   -6.4813  -14.3343 C   0  0  0  0  0  0  0  0  0  0  0  0
   22.2176   -5.7422  -13.1080 C   0  0  0  0  0  0  0  0  0  0  0  0
   22.0462   -4.5044  -13.0621 O   0  0  0  0  0  0  0  0  0  0  0  0
   22.3019   -4.5741  -15.7821 C   0  0  0  0  0  0  0  0  0  0  0  0
   22.5703   -3.6827  -14.9390 O   0  0  0  0  0  0  0  0  0  0  0  0
   22.7076   -6.4406  -12.0021 O   0  0  0  0  0  0  0  0  0  0  0  0
   22.9117   -4.5794  -17.0146 O   0  0  0  0  0  0  0  0  0  0  0  0
  2  1  1  0
  2  3  1  0
  4  3  1  0
  4  5  1  0
  5  6  1  6
  7  5  1  0
  7  8  2  0
 10  9  1  6
 10 12  1  0
 11 10  1  0
 12 13  1  1
 12 14  1  0
 13  7  1  0
 14 16  1  0
 15 14  2  0
 16 17  1  0
 17 21  1  0
 17 18  1  1
 19 18  1  0
 20 19  2  0
 21 22  2  0
 21 24  1  0
 23 19  1  0
M  END
$$$$
