MTD.pdb
     RDKit          3D

 24 23  0  0  1  0  0  0  0  0999 V2000
   18.4670  -15.6755  -17.5953 C   0  0  0  0  0  0  0  0  0  0  0  0
   19.7949  -15.7831  -18.8391 S   0  0  0  0  0  0  0  0  0  0  0  0
   21.0495  -14.5244  -18.4910 C   0  0  0  0  0  0  0  0  0  0  0  0
   20.4520  -13.1279  -18.5777 C   0  0  0  0  0  0  0  0  0  0  0  0
   21.4628  -12.0744  -18.2075 C   0  0  2  0  0  0  0  0  0  0  0  0
   22.3979  -12.5428  -17.2204 N   0  0  0  0  0  0  0  0  0  0  0  0
   20.7359  -10.8526  -17.7343 C   0  0  0  0  0  0  0  0  0  0  0  0
   19.9229  -10.2417  -18.4729 O   0  0  0  0  0  0  0  0  0  0  0  0
   18.1834  -10.4096  -15.2696 C   0  0  0  0  0  0  0  0  0  0  0  0
   19.2695   -9.4776  -14.8725 C   0  0  1  0  0  0  0  0  0  0  0  0
   20.0718  -10.2000  -13.9461 O   0  0  0  0  0  0  0  0  0  0  0  0
   20.2373   -9.0933  -15.9720 C   0  0  2  0  0  0  0  0  0  0  0  0
   20.9316  -10.3271  -16.4282 N   0  0  0  0  0  0  0  0  0  0  0  0
   21.2293   -8.0832  -15.5793 C   0  0  0  0  0  0  0  0  0  0  0  0
   22.4505   -8.4308  -15.5119 O   0  0  0  0  0  0  0  0  0  0  0  0
   20.9174   -6.7610  -15.2757 N   0  0  0  0  0  0  0  0  0  0  0  0
   21.9025   -5.7886  -14.8050 C   0  0  1  0  0  0  0  0  0  0  0  0
   22.2842   -4.9132  -15.9697 C   0  0  0  0  0  0  0  0  0  0  0  0
   23.3003   -3.9058  -15.6514 C   0  0  0  0  0  0  0  0  0  0  0  0
   23.9186   -3.9618  -14.5660 O   0  0  0  0  0  0  0  0  0  0  0  0
   21.2776   -4.9194  -13.7609 C   0  0  0  0  0  0  0  0  0  0  0  0
   21.9862   -4.0606  -13.1797 O   0  0  0  0  0  0  0  0  0  0  0  0
   23.5620   -2.8913  -16.5753 O   0  0  0  0  0  0  0  0  0  0  0  0
   19.9470   -5.0606  -13.4440 O   0  0  0  0  0  0  0  0  0  0  0  0
  2  1  1  0
  2  3  1  0
  4  3  1  0
  4  5  1  0
  5  6  1  1
  7  5  1  0
  7  8  2  0
 10  9  1  6
 10 12  1  0
 11 10  1  0
 12 13  1  1
 12 14  1  0
 13  7  1  0
 14 16  1  0
 15 14  2  0
 16 17  1  0
 17 21  1  0
 17 18  1  6
 19 18  1  0
 20 19  2  0
 21 22  2  0
 21 24  1  0
 23 19  1  0
M  END
$$$$
