MTD.pdb
     RDKit          3D

 24 23  0  0  1  0  0  0  0  0999 V2000
   17.6427  -10.0630  -20.6209 C   0  0  0  0  0  0  0  0  0  0  0  0
   17.9746  -11.7721  -21.1602 S   0  0  0  0  0  0  0  0  0  0  0  0
   19.3125  -12.4703  -20.1593 C   0  0  0  0  0  0  0  0  0  0  0  0
   19.4957  -11.6772  -18.8739 C   0  0  0  0  0  0  0  0  0  0  0  0
   20.6314  -12.2234  -18.0491 C   0  0  2  0  0  0  0  0  0  0  0  0
   20.4605  -13.6191  -17.7472 N   0  0  0  0  0  0  0  0  0  0  0  0
   20.7575  -11.4062  -16.7995 C   0  0  0  0  0  0  0  0  0  0  0  0
   20.0045  -11.5931  -15.8108 O   0  0  0  0  0  0  0  0  0  0  0  0
   23.2821  -11.5227  -14.4635 C   0  0  0  0  0  0  0  0  0  0  0  0
   23.1868  -10.0687  -14.7511 C   0  0  1  0  0  0  0  0  0  0  0  0
   24.1857   -9.8077  -15.7299 O   0  0  0  0  0  0  0  0  0  0  0  0
   21.9016   -9.6143  -15.4104 C   0  0  2  0  0  0  0  0  0  0  0  0
   21.7343  -10.3813  -16.6738 N   0  0  0  0  0  0  0  0  0  0  0  0
   21.8434   -8.1739  -15.6941 C   0  0  0  0  0  0  0  0  0  0  0  0
   21.5951   -7.8028  -16.8846 O   0  0  0  0  0  0  0  0  0  0  0  0
   22.0420   -7.1823  -14.7376 N   0  0  0  0  0  0  0  0  0  0  0  0
   21.9877   -5.7523  -15.0366 C   0  0  1  0  0  0  0  0  0  0  0  0
   20.5847   -5.4221  -15.4738 C   0  0  0  0  0  0  0  0  0  0  0  0
   20.3595   -3.9967  -15.7313 C   0  0  0  0  0  0  0  0  0  0  0  0
   19.7553   -3.2965  -14.8897 O   0  0  0  0  0  0  0  0  0  0  0  0
   22.2765   -4.9766  -13.7911 C   0  0  0  0  0  0  0  0  0  0  0  0
   22.4520   -3.7357  -13.8734 O   0  0  0  0  0  0  0  0  0  0  0  0
   20.8285   -3.4407  -16.9238 O   0  0  0  0  0  0  0  0  0  0  0  0
   22.3483   -5.6153  -12.5754 O   0  0  0  0  0  0  0  0  0  0  0  0
  2  1  1  0
  2  3  1  0
  4  3  1  0
  4  5  1  0
  5  6  1  1
  7  5  1  0
  7  8  2  0
 10  9  1  6
 10 12  1  0
 11 10  1  0
 12 13  1  6
 12 14  1  0
 13  7  1  0
 14 16  1  0
 15 14  2  0
 16 17  1  0
 17 21  1  0
 17 18  1  1
 19 18  1  0
 20 19  2  0
 21 22  2  0
 21 24  1  0
 23 19  1  0
M  END
$$$$
