MTD.pdb
     RDKit          3D

 24 23  0  0  1  0  0  0  0  0999 V2000
   19.4186  -17.0588  -15.9673 C   0  0  0  0  0  0  0  0  0  0  0  0
   19.4973  -15.2606  -16.2540 S   0  0  0  0  0  0  0  0  0  0  0  0
   18.0835  -14.4607  -15.4537 C   0  0  0  0  0  0  0  0  0  0  0  0
   18.1520  -12.9500  -15.6203 C   0  0  0  0  0  0  0  0  0  0  0  0
   16.9136  -12.2817  -15.0834 C   0  0  2  0  0  0  0  0  0  0  0  0
   15.7139  -12.9797  -15.4600 N   0  0  0  0  0  0  0  0  0  0  0  0
   16.8888  -10.8599  -15.5553 C   0  0  0  0  0  0  0  0  0  0  0  0
   16.7521  -10.5708  -16.7707 O   0  0  0  0  0  0  0  0  0  0  0  0
   14.5731   -8.2677  -15.5365 C   0  0  0  0  0  0  0  0  0  0  0  0
   15.7472   -7.7076  -14.8196 C   0  0  1  0  0  0  0  0  0  0  0  0
   15.5298   -8.0015  -13.4447 O   0  0  0  0  0  0  0  0  0  0  0  0
   17.0768   -8.3636  -15.1277 C   0  0  2  0  0  0  0  0  0  0  0  0
   17.0188   -9.7712  -14.6506 N   0  0  0  0  0  0  0  0  0  0  0  0
   18.2376   -7.6866  -14.5336 C   0  0  0  0  0  0  0  0  0  0  0  0
   18.8920   -8.2936  -13.6280 O   0  0  0  0  0  0  0  0  0  0  0  0
   18.6716   -6.4162  -14.9014 N   0  0  0  0  0  0  0  0  0  0  0  0
   19.8409   -5.7633  -14.3149 C   0  0  1  0  0  0  0  0  0  0  0  0
   21.0510   -6.5997  -14.6386 C   0  0  0  0  0  0  0  0  0  0  0  0
   22.3249   -5.9722  -14.2751 C   0  0  0  0  0  0  0  0  0  0  0  0
   22.3775   -5.1738  -13.3142 O   0  0  0  0  0  0  0  0  0  0  0  0
   20.0258   -4.4212  -14.9481 C   0  0  0  0  0  0  0  0  0  0  0  0
   19.4108   -4.1597  -16.0114 O   0  0  0  0  0  0  0  0  0  0  0  0
   23.4682   -6.2803  -15.0160 O   0  0  0  0  0  0  0  0  0  0  0  0
   20.8576   -3.4897  -14.3724 O   0  0  0  0  0  0  0  0  0  0  0  0
  2  1  1  0
  2  3  1  0
  4  3  1  0
  4  5  1  0
  5  6  1  6
  7  5  1  0
  7  8  2  0
 10  9  1  6
 10 12  1  0
 11 10  1  0
 12 13  1  1
 12 14  1  0
 13  7  1  0
 14 16  1  0
 15 14  2  0
 16 17  1  0
 17 21  1  0
 17 18  1  6
 19 18  1  0
 20 19  2  0
 21 22  2  0
 21 24  1  0
 23 19  1  0
M  END
$$$$
