HKK.pdb
     RDKit          3D

 29 29  0  0  1  0  0  0  0  0999 V2000
   19.6991  -14.5190  -16.1044 N   0  0  0  0  0  0  0  0  0  0  0  0
   19.5719  -13.2372  -16.7638 C   0  0  1  0  0  0  0  0  0  0  0  0
   18.1385  -12.7937  -16.7713 C   0  0  0  0  0  0  0  0  0  0  0  0
   17.3387  -13.5852  -17.7238 C   0  0  0  0  0  0  0  0  0  0  0  0
   17.5832  -14.9401  -17.9649 C   0  0  0  0  0  0  0  0  0  0  0  0
   16.6761  -15.3461  -18.8810 N   0  0  0  0  0  0  0  0  0  0  0  0
   15.9097  -14.2830  -19.1865 C   0  0  0  0  0  0  0  0  0  0  0  0
   16.3079  -13.2086  -18.4856 N   0  0  0  0  0  0  0  0  0  0  0  0
   20.3399  -12.2129  -15.9664 C   0  0  0  0  0  0  0  0  0  0  0  0
   20.2945  -12.2813  -14.7234 O   0  0  0  0  0  0  0  0  0  0  0  0
   21.0874  -11.2079  -16.5820 N   0  0  0  0  0  0  0  0  0  0  0  0
   21.8513  -10.2551  -15.8882 C   0  0  1  0  0  0  0  0  0  0  0  0
   23.3019  -10.1336  -16.2113 C   0  0  0  0  0  0  0  0  0  0  0  0
   24.0957  -11.3430  -15.8347 C   0  0  0  0  0  0  0  0  0  0  0  0
   25.5628  -11.2062  -16.2765 C   0  0  0  0  0  0  0  0  0  0  0  0
   26.2526  -12.5254  -15.9549 C   0  0  0  0  0  0  0  0  0  0  0  0
   27.5887  -12.4872  -16.4765 N   0  0  0  0  0  0  0  0  0  0  0  0
   21.1964   -8.9222  -15.9498 C   0  0  0  0  0  0  0  0  0  0  0  0
   20.9814   -8.4336  -17.1076 O   0  0  0  0  0  0  0  0  0  0  0  0
   20.8266   -8.2226  -14.7997 N   0  0  0  0  0  0  0  0  0  0  0  0
   20.1822   -6.8793  -14.9816 C   0  0  1  0  0  0  0  0  0  0  0  0
   18.7810   -7.0498  -14.5402 C   0  0  0  0  0  0  0  0  0  0  0  0
   17.6361   -6.6227  -15.3387 C   0  0  0  0  0  0  0  0  0  0  0  0
   16.2501   -6.7517  -14.8190 C   0  0  0  0  0  0  0  0  0  0  0  0
   15.2014   -6.3275  -15.8242 C   0  0  0  0  0  0  0  0  0  0  0  0
   13.8661   -6.3845  -15.2617 N   0  0  0  0  0  0  0  0  0  0  0  0
   21.0651   -6.0151  -14.1681 C   0  0  0  0  0  0  0  0  0  0  0  0
   21.1715   -4.6420  -14.2258 O   0  0  0  0  0  0  0  0  0  0  0  0
   21.8387   -6.5537  -13.3068 O   0  0  0  0  0  0  0  0  0  0  0  0
  2  3  1  0
  2  1  1  1
  3  4  1  0
  4  5  2  0
  4  8  1  0
  5  6  1  0
  6  7  1  0
  8  7  2  0
  9  2  1  0
  9 11  1  0
 10  9  2  0
 12 11  1  0
 13 14  1  0
 12 13  1  6
 15 14  1  0
 16 15  1  0
 16 17  1  0
 18 12  1  0
 18 19  2  0
 20 18  1  0
 21 20  1  0
 21 27  1  0
 21 22  1  1
 23 22  1  0
 24 23  1  0
 25 24  1  0
 26 25  1  0
 27 28  1  0
 29 27  2  0
M  END
$$$$
