HKK.pdb
     RDKit          3D

 29 29  0  0  1  0  0  0  0  0999 V2000
   26.1830  -22.6083  -14.9261 N   0  0  0  0  0  0  0  0  0  0  0  0
   24.9752  -22.5664  -15.7222 C   0  0  1  0  0  0  0  0  0  0  0  0
   24.5484  -23.9551  -16.0971 C   0  0  0  0  0  0  0  0  0  0  0  0
   24.8414  -24.2406  -17.5135 C   0  0  0  0  0  0  0  0  0  0  0  0
   26.1451  -24.2902  -18.0150 C   0  0  0  0  0  0  0  0  0  0  0  0
   26.0485  -24.5721  -19.3334 N   0  0  0  0  0  0  0  0  0  0  0  0
   24.7399  -24.6897  -19.6246 C   0  0  0  0  0  0  0  0  0  0  0  0
   24.0005  -24.4891  -18.5214 N   0  0  0  0  0  0  0  0  0  0  0  0
   23.8687  -21.9840  -14.8789 C   0  0  0  0  0  0  0  0  0  0  0  0
   23.9534  -22.0941  -13.6409 O   0  0  0  0  0  0  0  0  0  0  0  0
   22.7713  -21.3356  -15.4472 N   0  0  0  0  0  0  0  0  0  0  0  0
   21.8096  -20.6216  -14.7137 C   0  0  1  0  0  0  0  0  0  0  0  0
   21.2650  -19.3601  -15.2928 C   0  0  0  0  0  0  0  0  0  0  0  0
   22.3186  -18.3426  -15.5916 C   0  0  0  0  0  0  0  0  0  0  0  0
   21.7044  -17.0609  -16.1802 C   0  0  0  0  0  0  0  0  0  0  0  0
   22.8596  -16.1469  -16.5666 C   0  0  0  0  0  0  0  0  0  0  0  0
   22.3263  -14.9531  -17.1577 N   0  0  0  0  0  0  0  0  0  0  0  0
   20.6998  -21.5208  -14.3025 C   0  0  0  0  0  0  0  0  0  0  0  0
   20.3608  -22.4372  -15.1216 O   0  0  0  0  0  0  0  0  0  0  0  0
   20.0466  -21.3816  -13.0766 N   0  0  0  0  0  0  0  0  0  0  0  0
   19.0348  -22.4267  -12.7066 C   0  0  1  0  0  0  0  0  0  0  0  0
   19.3474  -22.8033  -11.3111 C   0  0  0  0  0  0  0  0  0  0  0  0
   18.5811  -23.7946  -10.5622 C   0  0  0  0  0  0  0  0  0  0  0  0
   18.9647  -24.1713   -9.1770 C   0  0  0  0  0  0  0  0  0  0  0  0
   18.0336  -25.1952   -8.5648 C   0  0  0  0  0  0  0  0  0  0  0  0
   18.2646  -25.3459   -7.1412 N   0  0  0  0  0  0  0  0  0  0  0  0
   17.7648  -21.7132  -12.9644 C   0  0  0  0  0  0  0  0  0  0  0  0
   16.5489  -22.2695  -13.2990 O   0  0  0  0  0  0  0  0  0  0  0  0
   17.7420  -20.4390  -12.8873 O   0  0  0  0  0  0  0  0  0  0  0  0
  2  3  1  0
  2  1  1  1
  3  4  1  0
  4  5  2  0
  4  8  1  0
  5  6  1  0
  6  7  1  0
  8  7  2  0
  9  2  1  0
  9 11  1  0
 10  9  2  0
 12 11  1  0
 13 14  1  0
 12 13  1  6
 15 14  1  0
 16 15  1  0
 16 17  1  0
 18 12  1  0
 18 19  2  0
 20 18  1  0
 21 20  1  0
 21 27  1  0
 21 22  1  1
 23 22  1  0
 24 23  1  0
 25 24  1  0
 26 25  1  0
 27 28  1  0
 29 27  2  0
M  END
$$$$
