HKK.pdb
     RDKit          3D

 29 29  0  0  1  0  0  0  0  0999 V2000
   25.5368  -21.2082  -18.1338 N   0  0  0  0  0  0  0  0  0  0  0  0
   25.1958  -21.4460  -16.7477 C   0  0  1  0  0  0  0  0  0  0  0  0
   26.4090  -21.2939  -15.8780 C   0  0  0  0  0  0  0  0  0  0  0  0
   27.4657  -22.2473  -16.2625 C   0  0  0  0  0  0  0  0  0  0  0  0
   27.4264  -23.5970  -15.9015 C   0  0  0  0  0  0  0  0  0  0  0  0
   28.5373  -24.1730  -16.4126 N   0  0  0  0  0  0  0  0  0  0  0  0
   29.2261  -23.2144  -17.0588 C   0  0  0  0  0  0  0  0  0  0  0  0
   28.5792  -22.0406  -16.9710 N   0  0  0  0  0  0  0  0  0  0  0  0
   24.2123  -20.3893  -16.3109 C   0  0  0  0  0  0  0  0  0  0  0  0
   23.8427  -20.3864  -15.1212 O   0  0  0  0  0  0  0  0  0  0  0  0
   23.7164  -19.4316  -17.1967 N   0  0  0  0  0  0  0  0  0  0  0  0
   22.7258  -18.4914  -16.8691 C   0  0  1  0  0  0  0  0  0  0  0  0
   22.7047  -17.1943  -17.6042 C   0  0  0  0  0  0  0  0  0  0  0  0
   21.6191  -16.2731  -17.1486 C   0  0  0  0  0  0  0  0  0  0  0  0
   21.9065  -14.8219  -17.5703 C   0  0  0  0  0  0  0  0  0  0  0  0
   20.7645  -13.9661  -17.0383 C   0  0  0  0  0  0  0  0  0  0  0  0
   20.8703  -12.6515  -17.6035 N   0  0  0  0  0  0  0  0  0  0  0  0
   21.3811  -19.1238  -16.9014 C   0  0  0  0  0  0  0  0  0  0  0  0
   21.0235  -19.6728  -17.9952 O   0  0  0  0  0  0  0  0  0  0  0  0
   20.5343  -19.1254  -15.7916 N   0  0  0  0  0  0  0  0  0  0  0  0
   19.2044  -19.8065  -15.9342 C   0  0  1  0  0  0  0  0  0  0  0  0
   19.0765  -20.6770  -14.7454 C   0  0  0  0  0  0  0  0  0  0  0  0
   19.3221  -22.1155  -14.7806 C   0  0  0  0  0  0  0  0  0  0  0  0
   19.2145  -22.9403  -13.5494 C   0  0  0  0  0  0  0  0  0  0  0  0
   19.2732  -24.4266  -13.8281 C   0  0  0  0  0  0  0  0  0  0  0  0
   19.3899  -25.1968  -12.6051 N   0  0  0  0  0  0  0  0  0  0  0  0
   18.2900  -18.6493  -16.0479 C   0  0  0  0  0  0  0  0  0  0  0  0
   18.3463  -17.4691  -15.3381 O   0  0  0  0  0  0  0  0  0  0  0  0
   17.3208  -18.7032  -16.8773 O   0  0  0  0  0  0  0  0  0  0  0  0
  2  3  1  0
  2  1  1  6
  3  4  1  0
  4  5  2  0
  4  8  1  0
  5  6  1  0
  6  7  1  0
  8  7  2  0
  9  2  1  0
  9 11  1  0
 10  9  2  0
 12 11  1  0
 13 14  1  0
 12 13  1  6
 15 14  1  0
 16 15  1  0
 16 17  1  0
 18 12  1  0
 18 19  2  0
 20 18  1  0
 21 20  1  0
 21 27  1  0
 21 22  1  1
 23 22  1  0
 24 23  1  0
 25 24  1  0
 26 25  1  0
 27 28  1  0
 29 27  2  0
M  END
$$$$
