HKK.pdb
     RDKit          3D

 29 29  0  0  1  0  0  0  0  0999 V2000
   17.4978  -13.4294  -14.6783 N   0  0  0  0  0  0  0  0  0  0  0  0
   17.0798  -12.1392  -15.1832 C   0  0  1  0  0  0  0  0  0  0  0  0
   15.5880  -12.0034  -15.0981 C   0  0  0  0  0  0  0  0  0  0  0  0
   14.9134  -12.9118  -16.0432 C   0  0  0  0  0  0  0  0  0  0  0  0
   14.5308  -12.5107  -17.3263 C   0  0  0  0  0  0  0  0  0  0  0  0
   13.9472  -13.5788  -17.9142 N   0  0  0  0  0  0  0  0  0  0  0  0
   13.9726  -14.5900  -17.0266 C   0  0  0  0  0  0  0  0  0  0  0  0
   14.5592  -14.1903  -15.8863 N   0  0  0  0  0  0  0  0  0  0  0  0
   17.6653  -11.0683  -14.2972 C   0  0  0  0  0  0  0  0  0  0  0  0
   17.4821  -11.1575  -13.0682 O   0  0  0  0  0  0  0  0  0  0  0  0
   18.3952   -9.9983  -14.8169 N   0  0  0  0  0  0  0  0  0  0  0  0
   18.9573   -8.9738  -14.0377 C   0  0  1  0  0  0  0  0  0  0  0  0
   20.1571   -8.2591  -14.5600 C   0  0  0  0  0  0  0  0  0  0  0  0
   21.3732   -9.1247  -14.6415 C   0  0  0  0  0  0  0  0  0  0  0  0
   22.5793   -8.3411  -15.1872 C   0  0  0  0  0  0  0  0  0  0  0  0
   23.7078   -9.3425  -15.3942 C   0  0  0  0  0  0  0  0  0  0  0  0
   23.2723  -10.3433  -16.3257 N   0  0  0  0  0  0  0  0  0  0  0  0
   17.9116   -7.9979  -13.6337 C   0  0  0  0  0  0  0  0  0  0  0  0
   16.9785   -7.7664  -14.4711 O   0  0  0  0  0  0  0  0  0  0  0  0
   17.9353   -7.3541  -12.3952 N   0  0  0  0  0  0  0  0  0  0  0  0
   16.7972   -6.4308  -12.0709 C   0  0  1  0  0  0  0  0  0  0  0  0
   16.3602   -6.8052  -10.7086 C   0  0  0  0  0  0  0  0  0  0  0  0
   15.2995   -6.1047   -9.9909 C   0  0  0  0  0  0  0  0  0  0  0  0
   14.9478   -6.4728   -8.5950 C   0  0  0  0  0  0  0  0  0  0  0  0
   13.7027   -5.7721   -8.0961 C   0  0  0  0  0  0  0  0  0  0  0  0
   13.2431   -6.3277   -6.8380 N   0  0  0  0  0  0  0  0  0  0  0  0
   17.4288   -5.1061  -12.2570 C   0  0  0  0  0  0  0  0  0  0  0  0
   16.7975   -3.9135  -12.5385 O   0  0  0  0  0  0  0  0  0  0  0  0
   18.6980   -5.0048  -12.1626 O   0  0  0  0  0  0  0  0  0  0  0  0
  2  3  1  0
  2  1  1  1
  3  4  1  0
  4  5  2  0
  4  8  1  0
  5  6  1  0
  6  7  1  0
  8  7  2  0
  9  2  1  0
  9 11  1  0
 10  9  2  0
 12 11  1  0
 13 14  1  0
 12 13  1  6
 15 14  1  0
 16 15  1  0
 16 17  1  0
 18 12  1  0
 18 19  2  0
 20 18  1  0
 21 20  1  0
 21 27  1  0
 21 22  1  1
 23 22  1  0
 24 23  1  0
 25 24  1  0
 26 25  1  0
 27 28  1  0
 29 27  2  0
M  END
$$$$
