HKK.pdb
     RDKit          3D

 29 29  0  0  1  0  0  0  0  0999 V2000
   23.5960  -12.2556  -17.8722 N   0  0  0  0  0  0  0  0  0  0  0  0
   22.5223  -11.4815  -18.4574 C   0  0  1  0  0  0  0  0  0  0  0  0
   21.7532  -12.3147  -19.4399 C   0  0  0  0  0  0  0  0  0  0  0  0
   22.5737  -12.6442  -20.6196 C   0  0  0  0  0  0  0  0  0  0  0  0
   22.4600  -11.9537  -21.8295 C   0  0  0  0  0  0  0  0  0  0  0  0
   23.3483  -12.5088  -22.6837 N   0  0  0  0  0  0  0  0  0  0  0  0
   23.9782  -13.4973  -22.0225 C   0  0  0  0  0  0  0  0  0  0  0  0
   23.5112  -13.5846  -20.7662 N   0  0  0  0  0  0  0  0  0  0  0  0
   21.5583  -11.0999  -17.3621 C   0  0  0  0  0  0  0  0  0  0  0  0
   21.2976  -11.9476  -16.4871 O   0  0  0  0  0  0  0  0  0  0  0  0
   20.9628   -9.8388  -17.3097 N   0  0  0  0  0  0  0  0  0  0  0  0
   20.0925   -9.4187  -16.2905 C   0  0  1  0  0  0  0  0  0  0  0  0
   19.9874   -7.9598  -16.0007 C   0  0  0  0  0  0  0  0  0  0  0  0
   21.2390   -7.3787  -15.4258 C   0  0  0  0  0  0  0  0  0  0  0  0
   21.0811   -5.8726  -15.1558 C   0  0  0  0  0  0  0  0  0  0  0  0
   22.4381   -5.3547  -14.6978 C   0  0  0  0  0  0  0  0  0  0  0  0
   22.3899   -3.9218  -14.6390 N   0  0  0  0  0  0  0  0  0  0  0  0
   18.7404  -10.0027  -16.4911 C   0  0  0  0  0  0  0  0  0  0  0  0
   18.3466  -10.1560  -17.6940 O   0  0  0  0  0  0  0  0  0  0  0  0
   17.9249  -10.3725  -15.4202 N   0  0  0  0  0  0  0  0  0  0  0  0
   16.5507  -10.8853  -15.7390 C   0  0  1  0  0  0  0  0  0  0  0  0
   16.6699  -12.3594  -15.7435 C   0  0  0  0  0  0  0  0  0  0  0  0
   15.5207  -13.2517  -15.8610 C   0  0  0  0  0  0  0  0  0  0  0  0
   15.6883  -14.7270  -15.8019 C   0  0  0  0  0  0  0  0  0  0  0  0
   14.3882  -15.4766  -15.9970 C   0  0  0  0  0  0  0  0  0  0  0  0
   14.5355  -16.8893  -15.7053 N   0  0  0  0  0  0  0  0  0  0  0  0
   15.7452  -10.2581  -14.6685 C   0  0  0  0  0  0  0  0  0  0  0  0
   14.3716  -10.1615  -14.6064 O   0  0  0  0  0  0  0  0  0  0  0  0
   16.3422   -9.7272  -13.6726 O   0  0  0  0  0  0  0  0  0  0  0  0
  2  3  1  0
  2  1  1  1
  3  4  1  0
  4  5  2  0
  4  8  1  0
  5  6  1  0
  6  7  1  0
  8  7  2  0
  9  2  1  0
  9 11  1  0
 10  9  2  0
 12 11  1  0
 13 14  1  0
 12 13  1  6
 15 14  1  0
 16 15  1  0
 16 17  1  0
 18 12  1  0
 18 19  2  0
 20 18  1  0
 21 20  1  0
 21 27  1  0
 21 22  1  1
 23 22  1  0
 24 23  1  0
 25 24  1  0
 26 25  1  0
 27 28  1  0
 29 27  2  0
M  END
$$$$
