HKK.pdb
     RDKit          3D

 29 29  0  0  1  0  0  0  0  0999 V2000
   21.0202  -18.4670  -19.4449 N   0  0  0  0  0  0  0  0  0  0  0  0
   21.8957  -17.8882  -18.4486 C   0  0  1  0  0  0  0  0  0  0  0  0
   21.0961  -17.1460  -17.4185 C   0  0  0  0  0  0  0  0  0  0  0  0
   20.5831  -15.8725  -17.9554 C   0  0  0  0  0  0  0  0  0  0  0  0
   19.2623  -15.7171  -18.3857 C   0  0  0  0  0  0  0  0  0  0  0  0
   19.1353  -14.4405  -18.8114 N   0  0  0  0  0  0  0  0  0  0  0  0
   20.3291  -13.8415  -18.6476 C   0  0  0  0  0  0  0  0  0  0  0  0
   21.2141  -14.7076  -18.1272 N   0  0  0  0  0  0  0  0  0  0  0  0
   22.6021  -19.0083  -17.7267 C   0  0  0  0  0  0  0  0  0  0  0  0
   21.9280  -19.9915  -17.3649 O   0  0  0  0  0  0  0  0  0  0  0  0
   23.9715  -18.9665  -17.4604 N   0  0  0  0  0  0  0  0  0  0  0  0
   24.6761  -19.9787  -16.7884 C   0  0  1  0  0  0  0  0  0  0  0  0
   26.1202  -20.1719  -17.1058 C   0  0  0  0  0  0  0  0  0  0  0  0
   26.7539  -21.2810  -16.3293 C   0  0  0  0  0  0  0  0  0  0  0  0
   26.3738  -22.6545  -16.9085 C   0  0  0  0  0  0  0  0  0  0  0  0
   27.1924  -23.6984  -16.1604 C   0  0  0  0  0  0  0  0  0  0  0  0
   26.8497  -24.9990  -16.6601 N   0  0  0  0  0  0  0  0  0  0  0  0
   24.4834  -19.8559  -15.3197 C   0  0  0  0  0  0  0  0  0  0  0  0
   24.8159  -18.7493  -14.7808 O   0  0  0  0  0  0  0  0  0  0  0  0
   23.9623  -20.8970  -14.5495 N   0  0  0  0  0  0  0  0  0  0  0  0
   23.7814  -20.6501  -13.0800 C   0  0  1  0  0  0  0  0  0  0  0  0
   22.6704  -21.5334  -12.6644 C   0  0  0  0  0  0  0  0  0  0  0  0
   21.9332  -21.3540  -11.4174 C   0  0  0  0  0  0  0  0  0  0  0  0
   20.8863  -22.3230  -11.0013 C   0  0  0  0  0  0  0  0  0  0  0  0
   20.1969  -21.9295   -9.7129 C   0  0  0  0  0  0  0  0  0  0  0  0
   19.2718  -22.9528   -9.2662 N   0  0  0  0  0  0  0  0  0  0  0  0
   25.1346  -20.9471  -12.5614 C   0  0  0  0  0  0  0  0  0  0  0  0
   25.6966  -20.4912  -11.3882 O   0  0  0  0  0  0  0  0  0  0  0  0
   25.9091  -21.6995  -13.2427 O   0  0  0  0  0  0  0  0  0  0  0  0
  2  3  1  0
  2  1  1  6
  3  4  1  0
  4  5  2  0
  4  8  1  0
  5  6  1  0
  6  7  1  0
  8  7  2  0
  9  2  1  0
  9 11  1  0
 10  9  2  0
 12 11  1  0
 13 14  1  0
 12 13  1  1
 15 14  1  0
 16 15  1  0
 16 17  1  0
 18 12  1  0
 18 19  2  0
 20 18  1  0
 21 20  1  0
 21 27  1  0
 21 22  1  1
 23 22  1  0
 24 23  1  0
 25 24  1  0
 26 25  1  0
 27 28  1  0
 29 27  2  0
M  END
$$$$
