HKK.pdb
     RDKit          3D

 29 29  0  0  1  0  0  0  0  0999 V2000
   18.0612  -24.7547  -12.1369 N   0  0  0  0  0  0  0  0  0  0  0  0
   18.4213  -24.8981  -13.5312 C   0  0  1  0  0  0  0  0  0  0  0  0
   17.2291  -24.6471  -14.4069 C   0  0  0  0  0  0  0  0  0  0  0  0
   16.2659  -25.7606  -14.3313 C   0  0  0  0  0  0  0  0  0  0  0  0
   16.4865  -26.9880  -14.9626 C   0  0  0  0  0  0  0  0  0  0  0  0
   15.4170  -27.7682  -14.6894 N   0  0  0  0  0  0  0  0  0  0  0  0
   14.5784  -27.0468  -13.9231 C   0  0  0  0  0  0  0  0  0  0  0  0
   15.0894  -25.8245  -13.7017 N   0  0  0  0  0  0  0  0  0  0  0  0
   19.4412  -23.8403  -13.8712 C   0  0  0  0  0  0  0  0  0  0  0  0
   19.3332  -22.7241  -13.3287 O   0  0  0  0  0  0  0  0  0  0  0  0
   20.4850  -24.0822  -14.7654 N   0  0  0  0  0  0  0  0  0  0  0  0
   21.5181  -23.1706  -15.0379 C   0  0  1  0  0  0  0  0  0  0  0  0
   22.8805  -23.7039  -15.3258 C   0  0  0  0  0  0  0  0  0  0  0  0
   23.9013  -22.6339  -15.5440 C   0  0  0  0  0  0  0  0  0  0  0  0
   25.2297  -23.2253  -16.0459 C   0  0  0  0  0  0  0  0  0  0  0  0
   26.2010  -22.0647  -16.2163 C   0  0  0  0  0  0  0  0  0  0  0  0
   27.4895  -22.5886  -16.5687 N   0  0  0  0  0  0  0  0  0  0  0  0
   21.1019  -22.2194  -16.1015 C   0  0  0  0  0  0  0  0  0  0  0  0
   20.5544  -22.7141  -17.1413 O   0  0  0  0  0  0  0  0  0  0  0  0
   21.2946  -20.8419  -15.9829 N   0  0  0  0  0  0  0  0  0  0  0  0
   20.8315  -19.9759  -17.1180 C   0  0  1  0  0  0  0  0  0  0  0  0
   20.4928  -18.6720  -16.5080 C   0  0  0  0  0  0  0  0  0  0  0  0
   19.9212  -17.5623  -17.2647 C   0  0  0  0  0  0  0  0  0  0  0  0
   19.7055  -16.2354  -16.6318 C   0  0  0  0  0  0  0  0  0  0  0  0
   19.1926  -15.1948  -17.6035 C   0  0  0  0  0  0  0  0  0  0  0  0
   19.2207  -13.8642  -17.0278 N   0  0  0  0  0  0  0  0  0  0  0  0
   21.9960  -20.0339  -18.0285 C   0  0  0  0  0  0  0  0  0  0  0  0
   21.9950  -19.8591  -19.3957 O   0  0  0  0  0  0  0  0  0  0  0  0
   23.1518  -20.2764  -17.5432 O   0  0  0  0  0  0  0  0  0  0  0  0
  2  3  1  0
  2  1  1  1
  3  4  1  0
  4  5  2  0
  4  8  1  0
  5  6  1  0
  6  7  1  0
  8  7  2  0
  9  2  1  0
  9 11  1  0
 10  9  2  0
 12 11  1  0
 13 14  1  0
 12 13  1  6
 15 14  1  0
 16 15  1  0
 16 17  1  0
 18 12  1  0
 18 19  2  0
 20 18  1  0
 21 20  1  0
 21 27  1  0
 21 22  1  1
 23 22  1  0
 24 23  1  0
 25 24  1  0
 26 25  1  0
 27 28  1  0
 29 27  2  0
M  END
$$$$
