HKK.pdb
     RDKit          3D

 29 29  0  0  1  0  0  0  0  0999 V2000
   25.7923  -10.2002  -19.3100 N   0  0  0  0  0  0  0  0  0  0  0  0
   25.5401  -10.0576  -17.8922 C   0  0  1  0  0  0  0  0  0  0  0  0
   26.4076   -8.9789  -17.3133 C   0  0  0  0  0  0  0  0  0  0  0  0
   27.8271   -9.3771  -17.3122 C   0  0  0  0  0  0  0  0  0  0  0  0
   28.2601  -10.6137  -17.7992 C   0  0  0  0  0  0  0  0  0  0  0  0
   29.6029  -10.6470  -17.6482 N   0  0  0  0  0  0  0  0  0  0  0  0
   29.9741   -9.4792  -17.0921 C   0  0  0  0  0  0  0  0  0  0  0  0
   28.8981   -8.7023  -16.8853 N   0  0  0  0  0  0  0  0  0  0  0  0
   24.1109   -9.6138  -17.7047 C   0  0  0  0  0  0  0  0  0  0  0  0
   23.5835   -8.9346  -18.6060 O   0  0  0  0  0  0  0  0  0  0  0  0
   23.3801   -9.9427  -16.5621 N   0  0  0  0  0  0  0  0  0  0  0  0
   21.9848   -9.8222  -16.4558 C   0  0  1  0  0  0  0  0  0  0  0  0
   21.2212  -10.9317  -15.8161 C   0  0  0  0  0  0  0  0  0  0  0  0
   19.7399  -10.7903  -15.9589 C   0  0  0  0  0  0  0  0  0  0  0  0
   19.0107  -12.0577  -15.4809 C   0  0  0  0  0  0  0  0  0  0  0  0
   17.5350  -11.8770  -15.8112 C   0  0  0  0  0  0  0  0  0  0  0  0
   16.8531  -13.1168  -15.5725 N   0  0  0  0  0  0  0  0  0  0  0  0
   21.6236   -8.5220  -15.8326 C   0  0  0  0  0  0  0  0  0  0  0  0
   22.1976   -8.2253  -14.7335 O   0  0  0  0  0  0  0  0  0  0  0  0
   20.6984   -7.6522  -16.4124 N   0  0  0  0  0  0  0  0  0  0  0  0
   20.3625   -6.3959  -15.6628 C   0  0  1  0  0  0  0  0  0  0  0  0
   19.9653   -5.4139  -16.6948 C   0  0  0  0  0  0  0  0  0  0  0  0
   19.3976   -4.1075  -16.3756 C   0  0  0  0  0  0  0  0  0  0  0  0
   19.1073   -3.1175  -17.4448 C   0  0  0  0  0  0  0  0  0  0  0  0
   18.3997   -1.8830  -16.9294 C   0  0  0  0  0  0  0  0  0  0  0  0
   18.0112   -0.9978  -18.0101 N   0  0  0  0  0  0  0  0  0  0  0  0
   19.3225   -6.8784  -14.7279 C   0  0  0  0  0  0  0  0  0  0  0  0
   19.1125   -6.4665  -13.4294 O   0  0  0  0  0  0  0  0  0  0  0  0
   18.5081   -7.7812  -15.1177 O   0  0  0  0  0  0  0  0  0  0  0  0
  2  3  1  0
  2  1  1  6
  3  4  1  0
  4  5  2  0
  4  8  1  0
  5  6  1  0
  6  7  1  0
  8  7  2  0
  9  2  1  0
  9 11  1  0
 10  9  2  0
 12 11  1  0
 13 14  1  0
 12 13  1  1
 15 14  1  0
 16 15  1  0
 16 17  1  0
 18 12  1  0
 18 19  2  0
 20 18  1  0
 21 20  1  0
 21 27  1  0
 21 22  1  6
 23 22  1  0
 24 23  1  0
 25 24  1  0
 26 25  1  0
 27 28  1  0
 29 27  2  0
M  END
$$$$
