HKK.pdb
     RDKit          3D

 29 29  0  0  1  0  0  0  0  0999 V2000
   17.0385  -27.5953   -6.2358 N   0  0  0  0  0  0  0  0  0  0  0  0
   17.8696  -26.8150   -5.3444 C   0  0  1  0  0  0  0  0  0  0  0  0
   17.4648  -25.3708   -5.3834 C   0  0  0  0  0  0  0  0  0  0  0  0
   17.7744  -24.7636   -6.6906 C   0  0  0  0  0  0  0  0  0  0  0  0
   19.0799  -24.4589   -7.0864 C   0  0  0  0  0  0  0  0  0  0  0  0
   19.0000  -23.9214   -8.3240 N   0  0  0  0  0  0  0  0  0  0  0  0
   17.6995  -23.8989   -8.6693 C   0  0  0  0  0  0  0  0  0  0  0  0
   16.9489  -24.4100   -7.6797 N   0  0  0  0  0  0  0  0  0  0  0  0
   17.6360  -27.2943   -3.9336 C   0  0  0  0  0  0  0  0  0  0  0  0
   16.4633  -27.3423   -3.5159 O   0  0  0  0  0  0  0  0  0  0  0  0
   18.6882  -27.6784   -3.1011 N   0  0  0  0  0  0  0  0  0  0  0  0
   18.5221  -28.1870   -1.8025 C   0  0  1  0  0  0  0  0  0  0  0  0
   19.6467  -28.9482   -1.1869 C   0  0  0  0  0  0  0  0  0  0  0  0
   19.7050  -30.3762   -1.6249 C   0  0  0  0  0  0  0  0  0  0  0  0
   21.1462  -30.7984   -1.9583 C   0  0  0  0  0  0  0  0  0  0  0  0
   21.0952  -32.2540   -2.4034 C   0  0  0  0  0  0  0  0  0  0  0  0
   22.4327  -32.7056   -2.6601 N   0  0  0  0  0  0  0  0  0  0  0  0
   18.0607  -27.1151   -0.8820 C   0  0  0  0  0  0  0  0  0  0  0  0
   18.6611  -25.9923   -0.9506 O   0  0  0  0  0  0  0  0  0  0  0  0
   17.0172  -27.3125    0.0240 N   0  0  0  0  0  0  0  0  0  0  0  0
   16.6545  -26.1682    0.9252 C   0  0  1  0  0  0  0  0  0  0  0  0
   15.1765  -26.1585    0.9767 C   0  0  0  0  0  0  0  0  0  0  0  0
   14.4147  -25.2530    1.8313 C   0  0  0  0  0  0  0  0  0  0  0  0
   12.9297  -25.2270    1.7867 C   0  0  0  0  0  0  0  0  0  0  0  0
   12.3300  -24.1873    2.7084 C   0  0  0  0  0  0  0  0  0  0  0  0
   10.8885  -24.1146    2.5681 N   0  0  0  0  0  0  0  0  0  0  0  0
   17.3891  -26.5199    2.1601 C   0  0  0  0  0  0  0  0  0  0  0  0
   17.8979  -27.7537    2.5050 O   0  0  0  0  0  0  0  0  0  0  0  0
   17.5949  -25.6164    3.0385 O   0  0  0  0  0  0  0  0  0  0  0  0
  2  3  1  0
  2  1  1  6
  3  4  1  0
  4  5  2  0
  4  8  1  0
  5  6  1  0
  6  7  1  0
  8  7  2  0
  9  2  1  0
  9 11  1  0
 10  9  2  0
 12 11  1  0
 13 14  1  0
 12 13  1  1
 15 14  1  0
 16 15  1  0
 16 17  1  0
 18 12  1  0
 18 19  2  0
 20 18  1  0
 21 20  1  0
 21 27  1  0
 21 22  1  1
 23 22  1  0
 24 23  1  0
 25 24  1  0
 26 25  1  0
 27 28  1  0
 29 27  2  0
M  END
$$$$
