HKK.pdb
     RDKit          3D

 29 29  0  0  1  0  0  0  0  0999 V2000
   21.5422  -12.4833  -19.7681 N   0  0  0  0  0  0  0  0  0  0  0  0
   22.2886  -11.8829  -18.6833 C   0  0  1  0  0  0  0  0  0  0  0  0
   23.6020  -11.3562  -19.1818 C   0  0  0  0  0  0  0  0  0  0  0  0
   24.4992  -12.4535  -19.5871 C   0  0  0  0  0  0  0  0  0  0  0  0
   24.6674  -12.8312  -20.9223 C   0  0  0  0  0  0  0  0  0  0  0  0
   25.5488  -13.8560  -20.9328 N   0  0  0  0  0  0  0  0  0  0  0  0
   25.9038  -14.0939  -19.6568 C   0  0  0  0  0  0  0  0  0  0  0  0
   25.2686  -13.2439  -18.8334 N   0  0  0  0  0  0  0  0  0  0  0  0
   21.5113  -10.6971  -18.1691 C   0  0  0  0  0  0  0  0  0  0  0  0
   21.0879   -9.8683  -18.9972 O   0  0  0  0  0  0  0  0  0  0  0  0
   21.2611  -10.5126  -16.8086 N   0  0  0  0  0  0  0  0  0  0  0  0
   20.4484   -9.4929  -16.2866 C   0  0  1  0  0  0  0  0  0  0  0  0
   19.4212   -9.8528  -15.2675 C   0  0  0  0  0  0  0  0  0  0  0  0
   18.4034  -10.8253  -15.7704 C   0  0  0  0  0  0  0  0  0  0  0  0
   17.3655  -11.1569  -14.6846 C   0  0  0  0  0  0  0  0  0  0  0  0
   16.3981  -12.1693  -15.2836 C   0  0  0  0  0  0  0  0  0  0  0  0
   15.5478  -12.6685  -14.2411 N   0  0  0  0  0  0  0  0  0  0  0  0
   21.2835   -8.3637  -15.8000 C   0  0  0  0  0  0  0  0  0  0  0  0
   22.3595   -8.6604  -15.1837 O   0  0  0  0  0  0  0  0  0  0  0  0
   20.9199   -7.0309  -16.0005 N   0  0  0  0  0  0  0  0  0  0  0  0
   21.8953   -5.9734  -15.5725 C   0  0  1  0  0  0  0  0  0  0  0  0
   21.7422   -4.8750  -16.5509 C   0  0  0  0  0  0  0  0  0  0  0  0
   22.3917   -3.5765  -16.3997 C   0  0  0  0  0  0  0  0  0  0  0  0
   22.2527   -2.5256  -17.4409 C   0  0  0  0  0  0  0  0  0  0  0  0
   23.0708   -1.2879  -17.1427 C   0  0  0  0  0  0  0  0  0  0  0  0
   22.8700   -0.2589  -18.1444 N   0  0  0  0  0  0  0  0  0  0  0  0
   21.4688   -5.7244  -14.1781 C   0  0  0  0  0  0  0  0  0  0  0  0
   22.2386   -5.2332  -13.1457 O   0  0  0  0  0  0  0  0  0  0  0  0
   20.2646   -5.9834  -13.8417 O   0  0  0  0  0  0  0  0  0  0  0  0
  2  3  1  0
  2  1  1  6
  3  4  1  0
  4  5  2  0
  4  8  1  0
  5  6  1  0
  6  7  1  0
  8  7  2  0
  9  2  1  0
  9 11  1  0
 10  9  2  0
 12 11  1  0
 13 14  1  0
 12 13  1  1
 15 14  1  0
 16 15  1  0
 16 17  1  0
 18 12  1  0
 18 19  2  0
 20 18  1  0
 21 20  1  0
 21 27  1  0
 21 22  1  6
 23 22  1  0
 24 23  1  0
 25 24  1  0
 26 25  1  0
 27 28  1  0
 29 27  2  0
M  END
$$$$
