NEH.pdb
     RDKit          3D

 28 28  0  0  1  0  0  0  0  0999 V2000
    8.1835  -13.2969   17.2947 N   0  0  0  0  0  0  0  0  0  0  0  0
    8.7286  -12.8584   18.5095 C   0  0  0  0  0  0  0  0  0  0  0  0
    9.1100  -11.6655   18.6011 O   0  0  0  0  0  0  0  0  0  0  0  0
    8.8860  -13.7113   19.6980 C   0  0  0  0  0  0  0  0  0  0  0  0
    8.4565  -15.1556   19.4010 C   0  0  2  0  0  0  0  0  0  0  0  0
    7.0480  -15.2063   19.0670 N   0  0  0  0  0  0  0  0  0  0  0  0
    8.6602  -15.9006   20.6588 C   0  0  0  0  0  0  0  0  0  0  0  0
    7.6946  -16.0500   21.4373 O   0  0  0  0  0  0  0  0  0  0  0  0
    9.9456  -16.4196   20.9370 N   0  0  0  0  0  0  0  0  0  0  0  0
   10.1212  -17.2780   22.0743 C   0  0  1  0  0  0  0  0  0  0  0  0
   11.3154  -18.1942   21.9279 C   0  0  0  0  0  0  0  0  0  0  0  0
   11.3816  -19.2232   23.0272 C   0  0  0  0  0  0  0  0  0  0  0  0
   12.5660  -20.0845   22.7752 C   0  0  0  0  0  0  0  0  0  0  0  0
   12.5251  -21.0897   22.0107 O   0  0  0  0  0  0  0  0  0  0  0  0
   10.1799  -16.4619   23.2909 C   0  0  0  0  0  0  0  0  0  0  0  0
   10.0791  -15.2225   23.2300 O   0  0  0  0  0  0  0  0  0  0  0  0
   13.8027  -19.8262   23.3771 O   0  0  0  0  0  0  0  0  0  0  0  0
   10.3522  -17.0864   24.5435 N   0  0  0  0  0  0  0  0  0  0  0  0
    9.6406  -16.5221   25.6904 C   0  0  1  0  0  0  0  0  0  0  0  0
    8.1773  -16.5571   25.3287 C   0  0  0  0  0  0  0  0  0  0  0  0
    7.6847  -15.1864   25.0879 C   0  0  0  0  0  0  0  0  0  0  0  0
    8.3785  -14.0177   25.0947 C   0  0  0  0  0  0  0  0  0  0  0  0
    7.5158  -13.0018   24.8310 N   0  0  0  0  0  0  0  0  0  0  0  0
    6.3067  -13.5276   24.6630 C   0  0  0  0  0  0  0  0  0  0  0  0
    6.3980  -14.8441   24.8159 N   0  0  0  0  0  0  0  0  0  0  0  0
    9.9644  -17.3304   26.8733 C   0  0  0  0  0  0  0  0  0  0  0  0
    9.4903  -17.0285   27.9909 O   0  0  0  0  0  0  0  0  0  0  0  0
   10.7928  -18.4264   26.7585 O   0  0  0  0  0  0  0  0  0  0  0  0
  2  3  2  0
  2  1  1  0
  4  2  1  0
  5  7  1  0
  5  4  1  0
  5  6  1  1
  7  8  2  0
  9  7  1  0
  9 10  1  0
 10 11  1  6
 12 11  1  0
 13 17  1  0
 13 12  1  0
 14 13  2  0
 15 18  1  0
 15 10  1  0
 16 15  2  0
 19 26  1  0
 19 20  1  6
 19 18  1  0
 21 22  2  0
 21 20  1  0
 23 22  1  0
 24 25  2  0
 24 23  1  0
 25 21  1  0
 26 28  1  0
 27 26  2  0
M  END
$$$$
