NEH.pdb
     RDKit          3D

 28 28  0  0  1  0  0  0  0  0999 V2000
   13.2967  -14.8692   18.0664 N   0  0  0  0  0  0  0  0  0  0  0  0
   13.2075  -14.1394   19.2600 C   0  0  0  0  0  0  0  0  0  0  0  0
   14.2284  -13.5362   19.6733 O   0  0  0  0  0  0  0  0  0  0  0  0
   11.9844  -14.0313   20.0707 C   0  0  0  0  0  0  0  0  0  0  0  0
   10.8722  -14.9320   19.5135 C   0  0  2  0  0  0  0  0  0  0  0  0
   10.0940  -14.2201   18.5208 N   0  0  0  0  0  0  0  0  0  0  0  0
    9.9925  -15.2369   20.6588 C   0  0  0  0  0  0  0  0  0  0  0  0
    9.2280  -14.3473   21.0887 O   0  0  0  0  0  0  0  0  0  0  0  0
   10.0479  -16.5294   21.2291 N   0  0  0  0  0  0  0  0  0  0  0  0
    9.0247  -16.9296   22.1532 C   0  0  1  0  0  0  0  0  0  0  0  0
    8.6476  -18.3864   22.0026 C   0  0  0  0  0  0  0  0  0  0  0  0
    7.5496  -18.7913   22.9522 C   0  0  0  0  0  0  0  0  0  0  0  0
    7.1692  -20.1933   22.6388 C   0  0  0  0  0  0  0  0  0  0  0  0
    7.7548  -20.8738   21.7498 O   0  0  0  0  0  0  0  0  0  0  0  0
    9.4461  -16.5923   23.5164 C   0  0  0  0  0  0  0  0  0  0  0  0
   10.6539  -16.5459   23.8147 O   0  0  0  0  0  0  0  0  0  0  0  0
    6.1315  -20.8415   23.3180 O   0  0  0  0  0  0  0  0  0  0  0  0
    8.4740  -16.3174   24.5002 N   0  0  0  0  0  0  0  0  0  0  0  0
    8.9417  -15.9371   25.8333 C   0  0  1  0  0  0  0  0  0  0  0  0
    7.7398  -15.3757   26.5499 C   0  0  0  0  0  0  0  0  0  0  0  0
    7.3868  -14.0578   25.9859 C   0  0  0  0  0  0  0  0  0  0  0  0
    8.0641  -13.3118   25.0737 C   0  0  0  0  0  0  0  0  0  0  0  0
    7.3717  -12.1635   24.8552 N   0  0  0  0  0  0  0  0  0  0  0  0
    6.2831  -12.1932   25.6172 C   0  0  0  0  0  0  0  0  0  0  0  0
    6.2830  -13.3311   26.3027 N   0  0  0  0  0  0  0  0  0  0  0  0
    9.4969  -17.1322   26.4821 C   0  0  0  0  0  0  0  0  0  0  0  0
    9.4839  -18.2337   25.8893 O   0  0  0  0  0  0  0  0  0  0  0  0
   10.0356  -17.0467   27.7483 O   0  0  0  0  0  0  0  0  0  0  0  0
  2  3  2  0
  2  1  1  0
  4  2  1  0
  5  7  1  0
  5  4  1  0
  5  6  1  6
  7  8  2  0
  9  7  1  0
  9 10  1  0
 10 11  1  1
 12 11  1  0
 13 17  1  0
 13 12  1  0
 14 13  2  0
 15 18  1  0
 15 10  1  0
 16 15  2  0
 19 26  1  0
 19 20  1  1
 19 18  1  0
 21 22  2  0
 21 20  1  0
 23 22  1  0
 24 25  2  0
 24 23  1  0
 25 21  1  0
 26 28  1  0
 27 26  2  0
M  END
$$$$
