NEH.pdb
     RDKit          3D

 28 28  0  0  1  0  0  0  0  0999 V2000
   14.8924  -17.4937   11.4801 N   0  0  0  0  0  0  0  0  0  0  0  0
   14.8725  -18.3229   12.6103 C   0  0  0  0  0  0  0  0  0  0  0  0
   15.2368  -19.5181   12.4851 O   0  0  0  0  0  0  0  0  0  0  0  0
   14.4487  -17.8824   13.9485 C   0  0  0  0  0  0  0  0  0  0  0  0
   13.1817  -18.6250   14.3980 C   0  0  2  0  0  0  0  0  0  0  0  0
   12.0409  -18.2007   13.6128 N   0  0  0  0  0  0  0  0  0  0  0  0
   12.9553  -18.2190   15.7989 C   0  0  0  0  0  0  0  0  0  0  0  0
   12.5918  -17.0481   16.0387 O   0  0  0  0  0  0  0  0  0  0  0  0
   13.1590  -19.1740   16.8213 N   0  0  0  0  0  0  0  0  0  0  0  0
   12.9131  -18.8002   18.1855 C   0  0  1  0  0  0  0  0  0  0  0  0
   12.2800  -19.9165   18.9855 C   0  0  0  0  0  0  0  0  0  0  0  0
   10.9349  -20.3179   18.4369 C   0  0  0  0  0  0  0  0  0  0  0  0
   10.3827  -21.3816   19.3157 C   0  0  0  0  0  0  0  0  0  0  0  0
   10.5905  -22.6104   19.1082 O   0  0  0  0  0  0  0  0  0  0  0  0
   14.1587  -18.3108   18.7842 C   0  0  0  0  0  0  0  0  0  0  0  0
   15.2508  -18.8340   18.4952 O   0  0  0  0  0  0  0  0  0  0  0  0
    9.5949  -21.0763   20.4313 O   0  0  0  0  0  0  0  0  0  0  0  0
   14.1202  -17.2366   19.6970 N   0  0  0  0  0  0  0  0  0  0  0  0
   15.3948  -16.7188   20.1946 C   0  0  1  0  0  0  0  0  0  0  0  0
   15.2229  -15.2245   20.2992 C   0  0  0  0  0  0  0  0  0  0  0  0
   15.4255  -14.6002   18.9768 C   0  0  0  0  0  0  0  0  0  0  0  0
   15.8448  -15.1740   17.8183 C   0  0  0  0  0  0  0  0  0  0  0  0
   15.8938  -14.2170   16.8553 N   0  0  0  0  0  0  0  0  0  0  0  0
   15.5122  -13.0679   17.4035 C   0  0  0  0  0  0  0  0  0  0  0  0
   15.2278  -13.2883   18.6822 N   0  0  0  0  0  0  0  0  0  0  0  0
   15.6776  -17.3610   21.4850 C   0  0  0  0  0  0  0  0  0  0  0  0
   14.8149  -18.0842   22.0307 O   0  0  0  0  0  0  0  0  0  0  0  0
   16.8956  -17.1704   22.1022 O   0  0  0  0  0  0  0  0  0  0  0  0
  2  3  2  0
  2  1  1  0
  4  2  1  0
  5  7  1  0
  5  4  1  0
  5  6  1  6
  7  8  2  0
  9  7  1  0
  9 10  1  0
 10 11  1  1
 12 11  1  0
 13 17  1  0
 13 12  1  0
 14 13  2  0
 15 18  1  0
 15 10  1  0
 16 15  2  0
 19 26  1  0
 19 20  1  1
 19 18  1  0
 21 22  2  0
 21 20  1  0
 23 22  1  0
 24 25  2  0
 24 23  1  0
 25 21  1  0
 26 28  1  0
 27 26  2  0
M  END
$$$$
