NEH.pdb
     RDKit          3D

 28 28  0  0  1  0  0  0  0  0999 V2000
    7.9367  -13.4432   14.7419 N   0  0  0  0  0  0  0  0  0  0  0  0
    7.8679  -14.8048   15.0683 C   0  0  0  0  0  0  0  0  0  0  0  0
    7.2072  -15.5689   14.3223 O   0  0  0  0  0  0  0  0  0  0  0  0
    8.5250  -15.4060   16.2394 C   0  0  0  0  0  0  0  0  0  0  0  0
    8.9567  -14.3272   17.2437 C   0  0  2  0  0  0  0  0  0  0  0  0
    9.7056  -13.2835   16.5747 N   0  0  0  0  0  0  0  0  0  0  0  0
    9.8580  -15.0046   18.1963 C   0  0  0  0  0  0  0  0  0  0  0  0
    9.5153  -16.1064   18.6751 O   0  0  0  0  0  0  0  0  0  0  0  0
   11.0804  -14.3791   18.5328 N   0  0  0  0  0  0  0  0  0  0  0  0
   11.9697  -15.0322   19.4513 C   0  0  1  0  0  0  0  0  0  0  0  0
   13.4087  -14.6065   19.2640 C   0  0  0  0  0  0  0  0  0  0  0  0
   13.9721  -15.0690   17.9449 C   0  0  0  0  0  0  0  0  0  0  0  0
   15.3805  -14.6022   17.8615 C   0  0  0  0  0  0  0  0  0  0  0  0
   15.7094  -13.5375   17.2659 O   0  0  0  0  0  0  0  0  0  0  0  0
   11.4906  -14.8206   20.8207 C   0  0  0  0  0  0  0  0  0  0  0  0
   10.8050  -13.8215   21.1065 O   0  0  0  0  0  0  0  0  0  0  0  0
   16.4286  -15.3238   18.4437 O   0  0  0  0  0  0  0  0  0  0  0  0
   11.8092  -15.7579   21.8250 N   0  0  0  0  0  0  0  0  0  0  0  0
   10.7798  -16.0717   22.8160 C   0  0  1  0  0  0  0  0  0  0  0  0
    9.5496  -16.4498   22.0305 C   0  0  0  0  0  0  0  0  0  0  0  0
    8.5647  -15.3509   22.0767 C   0  0  0  0  0  0  0  0  0  0  0  0
    8.6599  -14.1463   22.6990 C   0  0  0  0  0  0  0  0  0  0  0  0
    7.5104  -13.4557   22.4813 N   0  0  0  0  0  0  0  0  0  0  0  0
    6.7135  -14.2158   21.7371 C   0  0  0  0  0  0  0  0  0  0  0  0
    7.3399  -15.3604   21.4879 N   0  0  0  0  0  0  0  0  0  0  0  0
   11.2800  -17.1589   23.6675 C   0  0  0  0  0  0  0  0  0  0  0  0
   11.8263  -18.1602   23.1539 O   0  0  0  0  0  0  0  0  0  0  0  0
   11.1503  -17.0819   25.0380 O   0  0  0  0  0  0  0  0  0  0  0  0
  2  3  2  0
  2  1  1  0
  4  2  1  0
  5  7  1  0
  5  4  1  0
  5  6  1  6
  7  8  2  0
  9  7  1  0
  9 10  1  0
 10 11  1  1
 12 11  1  0
 13 17  1  0
 13 12  1  0
 14 13  2  0
 15 18  1  0
 15 10  1  0
 16 15  2  0
 19 26  1  0
 19 20  1  6
 19 18  1  0
 21 22  2  0
 21 20  1  0
 23 22  1  0
 24 25  2  0
 24 23  1  0
 25 21  1  0
 26 28  1  0
 27 26  2  0
M  END
$$$$
