NEH.pdb
     RDKit          3D

 28 28  0  0  1  0  0  0  0  0999 V2000
   18.0528  -12.5204   18.4880 N   0  0  0  0  0  0  0  0  0  0  0  0
   17.0071  -12.9461   17.6571 C   0  0  0  0  0  0  0  0  0  0  0  0
   17.1932  -12.9577   16.4152 O   0  0  0  0  0  0  0  0  0  0  0  0
   15.6913  -13.3853   18.1472 C   0  0  0  0  0  0  0  0  0  0  0  0
   15.4331  -14.8568   17.7909 C   0  0  2  0  0  0  0  0  0  0  0  0
   15.1933  -14.9988   16.3696 N   0  0  0  0  0  0  0  0  0  0  0  0
   14.1986  -15.2317   18.5077 C   0  0  0  0  0  0  0  0  0  0  0  0
   14.1684  -15.1356   19.7529 O   0  0  0  0  0  0  0  0  0  0  0  0
   13.0916  -15.6876   17.7555 N   0  0  0  0  0  0  0  0  0  0  0  0
   11.8807  -16.0429   18.4401 C   0  0  1  0  0  0  0  0  0  0  0  0
   10.7201  -16.2484   17.4925 C   0  0  0  0  0  0  0  0  0  0  0  0
   10.3351  -14.9773   16.7801 C   0  0  0  0  0  0  0  0  0  0  0  0
    9.2295  -15.2979   15.8402 C   0  0  0  0  0  0  0  0  0  0  0  0
    8.2559  -16.0358   16.1626 O   0  0  0  0  0  0  0  0  0  0  0  0
   12.1312  -17.2113   19.2897 C   0  0  0  0  0  0  0  0  0  0  0  0
   12.8184  -18.1628   18.8747 O   0  0  0  0  0  0  0  0  0  0  0  0
    9.2071  -14.7949   14.5345 O   0  0  0  0  0  0  0  0  0  0  0  0
   11.5885  -17.2586   20.5903 N   0  0  0  0  0  0  0  0  0  0  0  0
   12.0897  -18.2878   21.5012 C   0  0  1  0  0  0  0  0  0  0  0  0
   13.5773  -18.0636   21.6020 C   0  0  0  0  0  0  0  0  0  0  0  0
   14.1678  -19.0221   22.5570 C   0  0  0  0  0  0  0  0  0  0  0  0
   13.5728  -20.0612   23.2000 C   0  0  0  0  0  0  0  0  0  0  0  0
   14.4972  -20.6665   23.9905 N   0  0  0  0  0  0  0  0  0  0  0  0
   15.6472  -20.0165   23.8430 C   0  0  0  0  0  0  0  0  0  0  0  0
   15.4591  -19.0234   22.9809 N   0  0  0  0  0  0  0  0  0  0  0  0
   11.3934  -18.1407   22.7862 C   0  0  0  0  0  0  0  0  0  0  0  0
   11.6438  -18.9217   23.7308 O   0  0  0  0  0  0  0  0  0  0  0  0
   10.4599  -17.1409   22.9585 O   0  0  0  0  0  0  0  0  0  0  0  0
  2  3  2  0
  2  1  1  0
  4  2  1  0
  5  7  1  0
  5  4  1  0
  5  6  1  6
  7  8  2  0
  9  7  1  0
  9 10  1  0
 10 11  1  6
 12 11  1  0
 13 17  1  0
 13 12  1  0
 14 13  2  0
 15 18  1  0
 15 10  1  0
 16 15  2  0
 19 26  1  0
 19 20  1  1
 19 18  1  0
 21 22  2  0
 21 20  1  0
 23 22  1  0
 24 25  2  0
 24 23  1  0
 25 21  1  0
 26 28  1  0
 27 26  2  0
M  END
$$$$
