NEH.pdb
     RDKit          3D

 28 28  0  0  1  0  0  0  0  0999 V2000
   -0.8228  -28.1521   28.2665 N   0  0  0  0  0  0  0  0  0  0  0  0
   -1.3438  -27.2807   29.2332 C   0  0  0  0  0  0  0  0  0  0  0  0
   -1.0377  -27.4662   30.4369 O   0  0  0  0  0  0  0  0  0  0  0  0
   -2.2354  -26.1505   28.9293 C   0  0  0  0  0  0  0  0  0  0  0  0
   -2.6033  -26.1238   27.4384 C   0  0  2  0  0  0  0  0  0  0  0  0
   -1.5179  -25.5649   26.6591 N   0  0  0  0  0  0  0  0  0  0  0  0
   -3.7645  -25.2192   27.3287 C   0  0  0  0  0  0  0  0  0  0  0  0
   -3.5890  -23.9897   27.4632 O   0  0  0  0  0  0  0  0  0  0  0  0
   -5.0372  -25.7800   27.0744 N   0  0  0  0  0  0  0  0  0  0  0  0
   -6.1765  -24.9117   26.9778 C   0  0  1  0  0  0  0  0  0  0  0  0
   -7.3099  -25.5309   26.1911 C   0  0  0  0  0  0  0  0  0  0  0  0
   -8.5245  -24.6397   26.1453 C   0  0  0  0  0  0  0  0  0  0  0  0
   -9.5940  -25.3633   25.4098 C   0  0  0  0  0  0  0  0  0  0  0  0
   -9.7580  -25.2487   24.1623 O   0  0  0  0  0  0  0  0  0  0  0  0
   -6.5828  -24.4964   28.3240 C   0  0  0  0  0  0  0  0  0  0  0  0
   -6.6551  -25.3256   29.2498 O   0  0  0  0  0  0  0  0  0  0  0  0
  -10.4859  -26.2191   26.0659 O   0  0  0  0  0  0  0  0  0  0  0  0
   -6.8949  -23.1441   28.5735 N   0  0  0  0  0  0  0  0  0  0  0  0
   -7.4149  -22.7971   29.8962 C   0  0  1  0  0  0  0  0  0  0  0  0
   -6.3901  -21.8823   30.5177 C   0  0  0  0  0  0  0  0  0  0  0  0
   -5.3454  -22.6791   31.1908 C   0  0  0  0  0  0  0  0  0  0  0  0
   -5.1789  -24.0280   31.2054 C   0  0  0  0  0  0  0  0  0  0  0  0
   -4.0880  -24.3204   31.9606 N   0  0  0  0  0  0  0  0  0  0  0  0
   -3.5840  -23.1749   32.4084 C   0  0  0  0  0  0  0  0  0  0  0  0
   -4.3349  -22.1796   31.9499 N   0  0  0  0  0  0  0  0  0  0  0  0
   -8.7275  -22.1619   29.7203 C   0  0  0  0  0  0  0  0  0  0  0  0
   -9.1884  -21.9768   28.5721 O   0  0  0  0  0  0  0  0  0  0  0  0
   -9.4591  -21.7661   30.8197 O   0  0  0  0  0  0  0  0  0  0  0  0
  2  3  2  0
  2  1  1  0
  4  2  1  0
  5  7  1  0
  5  4  1  0
  5  6  1  6
  7  8  2  0
  9  7  1  0
  9 10  1  0
 10 11  1  1
 12 11  1  0
 13 17  1  0
 13 12  1  0
 14 13  2  0
 15 18  1  0
 15 10  1  0
 16 15  2  0
 19 26  1  0
 19 20  1  6
 19 18  1  0
 21 22  2  0
 21 20  1  0
 23 22  1  0
 24 25  2  0
 24 23  1  0
 25 21  1  0
 26 28  1  0
 27 26  2  0
M  END
$$$$
