NEH.pdb
     RDKit          3D

 28 28  0  0  1  0  0  0  0  0999 V2000
    8.1122  -12.2284   17.8328 N   0  0  0  0  0  0  0  0  0  0  0  0
    9.1565  -12.9664   18.4072 C   0  0  0  0  0  0  0  0  0  0  0  0
   10.3230  -12.7932   17.9756 O   0  0  0  0  0  0  0  0  0  0  0  0
    8.9762  -13.9415   19.4941 C   0  0  0  0  0  0  0  0  0  0  0  0
    9.0319  -15.3801   18.9591 C   0  0  2  0  0  0  0  0  0  0  0  0
    7.8596  -15.6683   18.1588 N   0  0  0  0  0  0  0  0  0  0  0  0
    9.0041  -16.2516   20.1500 C   0  0  0  0  0  0  0  0  0  0  0  0
    7.9100  -16.4785   20.7088 O   0  0  0  0  0  0  0  0  0  0  0  0
   10.2214  -16.7993   20.6161 N   0  0  0  0  0  0  0  0  0  0  0  0
   10.2023  -17.6806   21.7492 C   0  0  1  0  0  0  0  0  0  0  0  0
   10.9888  -18.9495   21.5077 C   0  0  0  0  0  0  0  0  0  0  0  0
   11.0543  -19.8210   22.7356 C   0  0  0  0  0  0  0  0  0  0  0  0
   11.8495  -21.0296   22.3955 C   0  0  0  0  0  0  0  0  0  0  0  0
   11.4518  -21.8925   21.5626 O   0  0  0  0  0  0  0  0  0  0  0  0
   10.6567  -16.9506   22.9367 C   0  0  0  0  0  0  0  0  0  0  0  0
   11.6597  -16.2150   22.8849 O   0  0  0  0  0  0  0  0  0  0  0  0
   13.0937  -21.2793   22.9852 O   0  0  0  0  0  0  0  0  0  0  0  0
    9.9509  -17.0824   24.1504 N   0  0  0  0  0  0  0  0  0  0  0  0
   10.4699  -16.3752   25.3212 C   0  0  1  0  0  0  0  0  0  0  0  0
    9.3274  -15.5401   25.8414 C   0  0  0  0  0  0  0  0  0  0  0  0
    9.7436  -14.8208   27.0616 C   0  0  0  0  0  0  0  0  0  0  0  0
   10.9393  -14.8571   27.7066 C   0  0  0  0  0  0  0  0  0  0  0  0
   10.8699  -14.0422   28.7914 N   0  0  0  0  0  0  0  0  0  0  0  0
    9.6532  -13.5079   28.8220 C   0  0  0  0  0  0  0  0  0  0  0  0
    8.9666  -13.9710   27.7834 N   0  0  0  0  0  0  0  0  0  0  0  0
   10.9435  -17.3748   26.2875 C   0  0  0  0  0  0  0  0  0  0  0  0
   10.5684  -18.5648   26.1971 O   0  0  0  0  0  0  0  0  0  0  0  0
   11.8043  -17.0072   27.2998 O   0  0  0  0  0  0  0  0  0  0  0  0
  2  3  2  0
  2  1  1  0
  4  2  1  0
  5  7  1  0
  5  4  1  0
  5  6  1  6
  7  8  2  0
  9  7  1  0
  9 10  1  0
 10 11  1  6
 12 11  1  0
 13 17  1  0
 13 12  1  0
 14 13  2  0
 15 18  1  0
 15 10  1  0
 16 15  2  0
 19 26  1  0
 19 20  1  1
 19 18  1  0
 21 22  2  0
 21 20  1  0
 23 22  1  0
 24 25  2  0
 24 23  1  0
 25 21  1  0
 26 28  1  0
 27 26  2  0
M  END
$$$$
