NEH.pdb
     RDKit          3D

 28 28  0  0  1  0  0  0  0  0999 V2000
   17.1407  -16.4181   16.2282 N   0  0  0  0  0  0  0  0  0  0  0  0
   16.7569  -15.1859   16.7756 C   0  0  0  0  0  0  0  0  0  0  0  0
   17.5543  -14.2189   16.6969 O   0  0  0  0  0  0  0  0  0  0  0  0
   15.4683  -14.9463   17.4439 C   0  0  0  0  0  0  0  0  0  0  0  0
   14.3162  -15.6080   16.6735 C   0  0  2  0  0  0  0  0  0  0  0  0
   14.0521  -14.8907   15.4432 N   0  0  0  0  0  0  0  0  0  0  0  0
   13.1302  -15.4855   17.5435 C   0  0  0  0  0  0  0  0  0  0  0  0
   12.9819  -14.4472   18.2224 O   0  0  0  0  0  0  0  0  0  0  0  0
   12.2023  -16.5517   17.5766 N   0  0  0  0  0  0  0  0  0  0  0  0
   10.9765  -16.3887   18.3060 C   0  0  1  0  0  0  0  0  0  0  0  0
    9.8289  -17.1538   17.6859 C   0  0  0  0  0  0  0  0  0  0  0  0
    8.5106  -16.8333   18.3421 C   0  0  0  0  0  0  0  0  0  0  0  0
    7.4380  -17.5056   17.5636 C   0  0  0  0  0  0  0  0  0  0  0  0
    7.6830  -18.2602   16.5803 O   0  0  0  0  0  0  0  0  0  0  0  0
   11.1997  -16.7436   19.7109 C   0  0  0  0  0  0  0  0  0  0  0  0
   12.0579  -17.5895   20.0239 O   0  0  0  0  0  0  0  0  0  0  0  0
    6.0854  -17.3374   17.8809 O   0  0  0  0  0  0  0  0  0  0  0  0
   10.4347  -16.1209   20.7188 N   0  0  0  0  0  0  0  0  0  0  0  0
   10.7550  -16.4367   22.1109 C   0  0  1  0  0  0  0  0  0  0  0  0
    9.9717  -15.4581   22.9488 C   0  0  0  0  0  0  0  0  0  0  0  0
   10.1504  -15.7655   24.3817 C   0  0  0  0  0  0  0  0  0  0  0  0
   10.8480  -16.7813   24.9552 C   0  0  0  0  0  0  0  0  0  0  0  0
   10.7298  -16.6786   26.3047 N   0  0  0  0  0  0  0  0  0  0  0  0
    9.9724  -15.6184   26.5675 C   0  0  0  0  0  0  0  0  0  0  0  0
    9.6180  -15.0611   25.4148 N   0  0  0  0  0  0  0  0  0  0  0  0
   10.3866  -17.8367   22.3594 C   0  0  0  0  0  0  0  0  0  0  0  0
    9.5801  -18.4195   21.6012 O   0  0  0  0  0  0  0  0  0  0  0  0
   10.9277  -18.5165   23.4298 O   0  0  0  0  0  0  0  0  0  0  0  0
  2  3  2  0
  2  1  1  0
  4  2  1  0
  5  7  1  0
  5  4  1  0
  5  6  1  6
  7  8  2  0
  9  7  1  0
  9 10  1  0
 10 11  1  6
 12 11  1  0
 13 17  1  0
 13 12  1  0
 14 13  2  0
 15 18  1  0
 15 10  1  0
 16 15  2  0
 19 26  1  0
 19 20  1  1
 19 18  1  0
 21 22  2  0
 21 20  1  0
 23 22  1  0
 24 25  2  0
 24 23  1  0
 25 21  1  0
 26 28  1  0
 27 26  2  0
M  END
$$$$
