NEH.pdb
     RDKit          3D

 28 28  0  0  1  0  0  0  0  0999 V2000
    7.1588  -12.5608   15.3531 N   0  0  0  0  0  0  0  0  0  0  0  0
    8.0976  -13.5800   15.5653 C   0  0  0  0  0  0  0  0  0  0  0  0
    7.8832  -14.7093   15.0596 O   0  0  0  0  0  0  0  0  0  0  0  0
    9.3313  -13.4142   16.3496 C   0  0  0  0  0  0  0  0  0  0  0  0
   10.0648  -14.7536   16.5135 C   0  0  2  0  0  0  0  0  0  0  0  0
    9.1680  -15.8582   16.2424 N   0  0  0  0  0  0  0  0  0  0  0  0
   10.4642  -14.8203   17.9328 C   0  0  0  0  0  0  0  0  0  0  0  0
   11.2256  -13.9414   18.3895 O   0  0  0  0  0  0  0  0  0  0  0  0
    9.9685  -15.8805   18.7260 N   0  0  0  0  0  0  0  0  0  0  0  0
   10.4324  -16.0176   20.0778 C   0  0  1  0  0  0  0  0  0  0  0  0
    9.7719  -17.1697   20.8013 C   0  0  0  0  0  0  0  0  0  0  0  0
   10.2452  -17.2930   22.2269 C   0  0  0  0  0  0  0  0  0  0  0  0
    9.6903  -18.5537   22.7845 C   0  0  0  0  0  0  0  0  0  0  0  0
    9.0432  -19.3808   22.0819 O   0  0  0  0  0  0  0  0  0  0  0  0
   11.8954  -16.1128   20.0790 C   0  0  0  0  0  0  0  0  0  0  0  0
   12.5050  -16.5406   19.0813 O   0  0  0  0  0  0  0  0  0  0  0  0
    9.8563  -18.8962   24.1312 O   0  0  0  0  0  0  0  0  0  0  0  0
   12.6204  -15.7159   21.2215 N   0  0  0  0  0  0  0  0  0  0  0  0
   14.0810  -15.7249   21.1394 C   0  0  1  0  0  0  0  0  0  0  0  0
   14.4878  -14.3062   20.8311 C   0  0  0  0  0  0  0  0  0  0  0  0
   14.8553  -14.1856   19.4063 C   0  0  0  0  0  0  0  0  0  0  0  0
   14.8536  -15.1429   18.4414 C   0  0  0  0  0  0  0  0  0  0  0  0
   15.2749  -14.5835   17.2772 N   0  0  0  0  0  0  0  0  0  0  0  0
   15.5346  -13.3013   17.5122 C   0  0  0  0  0  0  0  0  0  0  0  0
   15.2848  -13.0515   18.7928 N   0  0  0  0  0  0  0  0  0  0  0  0
   14.6089  -16.2134   22.4201 C   0  0  0  0  0  0  0  0  0  0  0  0
   13.8382  -16.4040   23.3869 O   0  0  0  0  0  0  0  0  0  0  0  0
   15.9568  -16.4648   22.5639 O   0  0  0  0  0  0  0  0  0  0  0  0
  2  3  2  0
  2  1  1  0
  4  2  1  0
  5  7  1  0
  5  4  1  0
  5  6  1  1
  7  8  2  0
  9  7  1  0
  9 10  1  0
 10 11  1  6
 12 11  1  0
 13 17  1  0
 13 12  1  0
 14 13  2  0
 15 18  1  0
 15 10  1  0
 16 15  2  0
 19 26  1  0
 19 20  1  1
 19 18  1  0
 21 22  2  0
 21 20  1  0
 23 22  1  0
 24 25  2  0
 24 23  1  0
 25 21  1  0
 26 28  1  0
 27 26  2  0
M  END
$$$$
