NEH.pdb
     RDKit          3D

 28 28  0  0  1  0  0  0  0  0999 V2000
    8.3637  -12.7322   17.0584 N   0  0  0  0  0  0  0  0  0  0  0  0
    7.4552  -13.7747   17.2888 C   0  0  0  0  0  0  0  0  0  0  0  0
    6.6341  -14.0669   16.3848 O   0  0  0  0  0  0  0  0  0  0  0  0
    7.3982  -14.5586   18.5326 C   0  0  0  0  0  0  0  0  0  0  0  0
    8.2763  -13.9272   19.6231 C   0  0  2  0  0  0  0  0  0  0  0  0
    9.5573  -13.5313   19.0752 N   0  0  0  0  0  0  0  0  0  0  0  0
    8.5084  -14.9931   20.6173 C   0  0  0  0  0  0  0  0  0  0  0  0
    7.5249  -15.5358   21.1640 O   0  0  0  0  0  0  0  0  0  0  0  0
    9.8404  -15.3619   20.9152 N   0  0  0  0  0  0  0  0  0  0  0  0
   10.0787  -16.4112   21.8657 C   0  0  1  0  0  0  0  0  0  0  0  0
   11.3338  -17.1964   21.5571 C   0  0  0  0  0  0  0  0  0  0  0  0
   11.1091  -18.2299   20.4834 C   0  0  0  0  0  0  0  0  0  0  0  0
   12.4089  -18.8983   20.2144 C   0  0  0  0  0  0  0  0  0  0  0  0
   12.4921  -20.1165   19.8895 O   0  0  0  0  0  0  0  0  0  0  0  0
   10.0832  -15.8456   23.2184 C   0  0  0  0  0  0  0  0  0  0  0  0
   10.0140  -14.6149   23.3926 O   0  0  0  0  0  0  0  0  0  0  0  0
   13.6224  -18.2078   20.3074 O   0  0  0  0  0  0  0  0  0  0  0  0
   10.1669  -16.7039   24.3342 N   0  0  0  0  0  0  0  0  0  0  0  0
    9.4509  -16.3145   25.5491 C   0  0  1  0  0  0  0  0  0  0  0  0
    8.0044  -16.1693   25.1495 C   0  0  0  0  0  0  0  0  0  0  0  0
    7.4857  -14.8626   25.6001 C   0  0  0  0  0  0  0  0  0  0  0  0
    8.1387  -13.8653   26.2530 C   0  0  0  0  0  0  0  0  0  0  0  0
    7.2643  -12.8496   26.4752 N   0  0  0  0  0  0  0  0  0  0  0  0
    6.0880  -13.2072   25.9702 C   0  0  0  0  0  0  0  0  0  0  0  0
    6.2110  -14.4192   25.4405 N   0  0  0  0  0  0  0  0  0  0  0  0
    9.6702  -17.3542   26.5632 C   0  0  0  0  0  0  0  0  0  0  0  0
    9.5769  -18.5631   26.2555 O   0  0  0  0  0  0  0  0  0  0  0  0
    9.9801  -17.0035   27.8600 O   0  0  0  0  0  0  0  0  0  0  0  0
  2  3  2  0
  2  1  1  0
  4  2  1  0
  5  7  1  0
  5  4  1  0
  5  6  1  6
  7  8  2  0
  9  7  1  0
  9 10  1  0
 10 11  1  6
 12 11  1  0
 13 17  1  0
 13 12  1  0
 14 13  2  0
 15 18  1  0
 15 10  1  0
 16 15  2  0
 19 26  1  0
 19 20  1  6
 19 18  1  0
 21 22  2  0
 21 20  1  0
 23 22  1  0
 24 25  2  0
 24 23  1  0
 25 21  1  0
 26 28  1  0
 27 26  2  0
M  END
$$$$
