NEH.pdb
     RDKit          3D

 28 28  0  0  1  0  0  0  0  0999 V2000
    6.7190  -12.3657   19.1711 N   0  0  0  0  0  0  0  0  0  0  0  0
    7.8029  -13.2408   19.0143 C   0  0  0  0  0  0  0  0  0  0  0  0
    8.3757  -13.2940   17.8980 O   0  0  0  0  0  0  0  0  0  0  0  0
    8.3206  -14.1113   20.0815 C   0  0  0  0  0  0  0  0  0  0  0  0
    8.1692  -15.5930   19.7065 C   0  0  2  0  0  0  0  0  0  0  0  0
    6.7698  -15.9394   19.5674 N   0  0  0  0  0  0  0  0  0  0  0  0
    8.7224  -16.3526   20.8448 C   0  0  0  0  0  0  0  0  0  0  0  0
    7.9683  -16.6573   21.7930 O   0  0  0  0  0  0  0  0  0  0  0  0
   10.0904  -16.7086   20.8195 N   0  0  0  0  0  0  0  0  0  0  0  0
   10.6295  -17.4877   21.8983 C   0  0  1  0  0  0  0  0  0  0  0  0
   11.8852  -18.2317   21.5026 C   0  0  0  0  0  0  0  0  0  0  0  0
   11.6300  -19.2387   20.4107 C   0  0  0  0  0  0  0  0  0  0  0  0
   12.9439  -19.6409   19.8447 C   0  0  0  0  0  0  0  0  0  0  0  0
   13.6245  -20.5945   20.3178 O   0  0  0  0  0  0  0  0  0  0  0  0
   10.8280  -16.6236   23.0660 C   0  0  0  0  0  0  0  0  0  0  0  0
   11.3121  -15.4838   22.9379 O   0  0  0  0  0  0  0  0  0  0  0  0
   13.5036  -18.9785   18.7464 O   0  0  0  0  0  0  0  0  0  0  0  0
   10.4670  -17.0875   24.3478 N   0  0  0  0  0  0  0  0  0  0  0  0
   10.7129  -16.2033   25.4871 C   0  0  1  0  0  0  0  0  0  0  0  0
    9.3559  -15.8678   26.0521 C   0  0  0  0  0  0  0  0  0  0  0  0
    9.5063  -15.0600   27.2786 C   0  0  0  0  0  0  0  0  0  0  0  0
    9.9071  -15.4549   28.5158 C   0  0  0  0  0  0  0  0  0  0  0  0
    9.8883  -14.3758   29.3410 N   0  0  0  0  0  0  0  0  0  0  0  0
    9.4831  -13.3276   28.6312 C   0  0  0  0  0  0  0  0  0  0  0  0
    9.2502  -13.7296   27.3866 N   0  0  0  0  0  0  0  0  0  0  0  0
   11.5774  -16.9128   26.4393 C   0  0  0  0  0  0  0  0  0  0  0  0
   12.3282  -16.2709   27.2069 O   0  0  0  0  0  0  0  0  0  0  0  0
   11.5663  -18.2904   26.4925 O   0  0  0  0  0  0  0  0  0  0  0  0
  2  3  2  0
  2  1  1  0
  4  2  1  0
  5  7  1  0
  5  4  1  0
  5  6  1  1
  7  8  2  0
  9  7  1  0
  9 10  1  0
 10 11  1  6
 12 11  1  0
 13 17  1  0
 13 12  1  0
 14 13  2  0
 15 18  1  0
 15 10  1  0
 16 15  2  0
 19 26  1  0
 19 20  1  1
 19 18  1  0
 21 22  2  0
 21 20  1  0
 23 22  1  0
 24 25  2  0
 24 23  1  0
 25 21  1  0
 26 28  1  0
 27 26  2  0
M  END
$$$$
