NEH.pdb
     RDKit          3D

 28 28  0  0  1  0  0  0  0  0999 V2000
    9.0140  -18.9631   15.7398 N   0  0  0  0  0  0  0  0  0  0  0  0
    9.3385  -18.9071   17.1025 C   0  0  0  0  0  0  0  0  0  0  0  0
   10.4422  -19.3746   17.4770 O   0  0  0  0  0  0  0  0  0  0  0  0
    8.4632  -18.3311   18.1353 C   0  0  0  0  0  0  0  0  0  0  0  0
    9.1550  -17.1650   18.8567 C   0  0  2  0  0  0  0  0  0  0  0  0
   10.5729  -17.1568   18.5613 N   0  0  0  0  0  0  0  0  0  0  0  0
    8.9850  -17.4291   20.2989 C   0  0  0  0  0  0  0  0  0  0  0  0
    7.8330  -17.4319   20.7822 O   0  0  0  0  0  0  0  0  0  0  0  0
   10.1366  -17.6699   21.0830 N   0  0  0  0  0  0  0  0  0  0  0  0
    9.9873  -17.8932   22.4933 C   0  0  1  0  0  0  0  0  0  0  0  0
   10.9474  -18.9372   23.0179 C   0  0  0  0  0  0  0  0  0  0  0  0
   10.4913  -20.3389   22.7040 C   0  0  0  0  0  0  0  0  0  0  0  0
   11.4987  -21.2812   23.2571 C   0  0  0  0  0  0  0  0  0  0  0  0
   11.1775  -22.3033   23.9268 O   0  0  0  0  0  0  0  0  0  0  0  0
   10.1015  -16.6134   23.1997 C   0  0  0  0  0  0  0  0  0  0  0  0
   10.1869  -15.5443   22.5674 O   0  0  0  0  0  0  0  0  0  0  0  0
   12.8707  -21.0851   23.0640 O   0  0  0  0  0  0  0  0  0  0  0  0
   10.1149  -16.5925   24.6096 N   0  0  0  0  0  0  0  0  0  0  0  0
    9.7039  -15.3572   25.2770 C   0  0  1  0  0  0  0  0  0  0  0  0
    8.3005  -15.0767   24.8026 C   0  0  0  0  0  0  0  0  0  0  0  0
    7.7735  -13.8714   25.4727 C   0  0  0  0  0  0  0  0  0  0  0  0
    8.3922  -13.0513   26.3626 C   0  0  0  0  0  0  0  0  0  0  0  0
    7.5230  -12.0717   26.7238 N   0  0  0  0  0  0  0  0  0  0  0  0
    6.3835  -12.2774   26.0712 C   0  0  0  0  0  0  0  0  0  0  0  0
    6.5243  -13.3600   25.3143 N   0  0  0  0  0  0  0  0  0  0  0  0
    9.7935  -15.5688   26.7277 C   0  0  0  0  0  0  0  0  0  0  0  0
    9.5603  -14.6265   27.5168 O   0  0  0  0  0  0  0  0  0  0  0  0
   10.1351  -16.8072   27.2281 O   0  0  0  0  0  0  0  0  0  0  0  0
  2  3  2  0
  2  1  1  0
  4  2  1  0
  5  7  1  0
  5  4  1  0
  5  6  1  1
  7  8  2  0
  9  7  1  0
  9 10  1  0
 10 11  1  1
 12 11  1  0
 13 17  1  0
 13 12  1  0
 14 13  2  0
 15 18  1  0
 15 10  1  0
 16 15  2  0
 19 26  1  0
 19 20  1  1
 19 18  1  0
 21 22  2  0
 21 20  1  0
 23 22  1  0
 24 25  2  0
 24 23  1  0
 25 21  1  0
 26 28  1  0
 27 26  2  0
M  END
$$$$
