MNL.pdb
     RDKit          3D

 25 24  0  0  1  0  0  0  0  0999 V2000
    8.2754  -10.9314   18.9379 C   0  0  0  0  0  0  0  0  0  0  0  0
    7.8761  -12.0985   20.2405 S   0  0  0  0  0  0  0  0  0  0  0  0
    8.2754  -13.7931   19.7077 C   0  0  0  0  0  0  0  0  0  0  0  0
    7.9556  -14.7301   20.8527 C   0  0  0  0  0  0  0  0  0  0  0  0
    8.4199  -16.1401   20.5318 C   0  0  2  0  0  0  0  0  0  0  0  0
    7.4927  -16.6678   19.5486 N   0  0  0  0  0  0  0  0  0  0  0  0
    8.3212  -16.9377   21.8075 C   0  0  0  0  0  0  0  0  0  0  0  0
    7.7601  -18.0680   21.7682 O   0  0  0  0  0  0  0  0  0  0  0  0
   13.6922  -17.1339   23.0901 N   0  0  0  0  0  0  0  0  0  0  0  0
   12.3891  -17.6387   23.3423 C   0  0  0  0  0  0  0  0  0  0  0  0
   12.2851  -18.6067   24.1327 O   0  0  0  0  0  0  0  0  0  0  0  0
   11.1867  -17.0562   22.7050 C   0  0  0  0  0  0  0  0  0  0  0  0
   10.0077  -17.0243   23.6285 C   0  0  2  0  0  0  0  0  0  0  0  0
    8.8341  -16.4559   23.0246 N   0  0  0  0  0  0  0  0  0  0  0  0
   10.3438  -16.3363   24.9187 C   0  0  0  0  0  0  0  0  0  0  0  0
   11.4161  -16.6129   25.5132 O   0  0  0  0  0  0  0  0  0  0  0  0
    7.2282  -12.3159   26.1186 C   0  0  0  0  0  0  0  0  0  0  0  0
    7.6254  -13.7206   26.3235 C   0  0  2  0  0  0  0  0  0  0  0  0
    6.3283  -14.5591   26.5281 C   0  0  0  0  0  0  0  0  0  0  0  0
    8.6285  -14.0845   27.3308 C   0  0  0  0  0  0  0  0  0  0  0  0
    9.7359  -14.9615   26.9160 C   0  0  2  0  0  0  0  0  0  0  0  0
    9.4842  -15.3752   25.4960 N   0  0  0  0  0  0  0  0  0  0  0  0
    9.8184  -16.2248   27.6455 C   0  0  0  0  0  0  0  0  0  0  0  0
    9.3879  -17.2995   27.1817 O   0  0  0  0  0  0  0  0  0  0  0  0
   10.4149  -16.2205   28.9329 O   0  0  0  0  0  0  0  0  0  0  0  0
  2  1  1  0
  3  2  1  0
  4  3  1  0
  5  4  1  0
  5  6  1  6
  7  8  2  0
  7  5  1  0
  9 10  1  0
 10 12  1  0
 10 11  2  0
 13 12  1  6
 13 14  1  0
 14  7  1  0
 15 16  2  0
 15 13  1  0
 18 17  1  1
 18 20  1  0
 18 19  1  0
 21 20  1  1
 21 22  1  0
 22 15  1  0
 23 21  1  0
 24 23  2  0
 25 23  1  0
M  END
$$$$
