MNL.pdb
     RDKit          3D

 25 24  0  0  1  0  0  0  0  0999 V2000
    9.0207  -15.1767   15.0463 C   0  0  0  0  0  0  0  0  0  0  0  0
    7.9023  -14.3815   16.2018 S   0  0  0  0  0  0  0  0  0  0  0  0
    8.7582  -14.0485   17.7740 C   0  0  0  0  0  0  0  0  0  0  0  0
    7.7555  -13.4416   18.7319 C   0  0  0  0  0  0  0  0  0  0  0  0
    8.4283  -13.0722   20.0426 C   0  0  2  0  0  0  0  0  0  0  0  0
    9.8193  -12.8008   19.7321 N   0  0  0  0  0  0  0  0  0  0  0  0
    8.3312  -14.2778   20.9429 C   0  0  0  0  0  0  0  0  0  0  0  0
    7.1854  -14.6757   21.2936 O   0  0  0  0  0  0  0  0  0  0  0  0
   10.7743  -18.2561   19.8577 N   0  0  0  0  0  0  0  0  0  0  0  0
    9.9425  -18.0116   20.9824 C   0  0  0  0  0  0  0  0  0  0  0  0
    8.8210  -18.5722   21.0071 O   0  0  0  0  0  0  0  0  0  0  0  0
   10.3669  -17.1305   22.0937 C   0  0  0  0  0  0  0  0  0  0  0  0
    9.3891  -16.0261   22.3542 C   0  0  2  0  0  0  0  0  0  0  0  0
    9.4745  -14.9597   21.3946 N   0  0  0  0  0  0  0  0  0  0  0  0
    9.5126  -15.5077   23.7567 C   0  0  0  0  0  0  0  0  0  0  0  0
   10.6095  -15.0419   24.1562 O   0  0  0  0  0  0  0  0  0  0  0  0
    8.2729  -11.8904   26.0422 C   0  0  0  0  0  0  0  0  0  0  0  0
    7.2722  -12.9606   25.8796 C   0  0  2  0  0  0  0  0  0  0  0  0
    5.8858  -12.3864   26.2989 C   0  0  0  0  0  0  0  0  0  0  0  0
    7.4751  -14.2843   26.4794 C   0  0  0  0  0  0  0  0  0  0  0  0
    8.6567  -15.0570   26.0618 C   0  0  2  0  0  0  0  0  0  0  0  0
    8.4229  -15.5256   24.6557 N   0  0  0  0  0  0  0  0  0  0  0  0
    8.8762  -16.2893   26.8157 C   0  0  0  0  0  0  0  0  0  0  0  0
    8.5079  -17.4065   26.4017 O   0  0  0  0  0  0  0  0  0  0  0  0
    9.5369  -16.2027   28.0684 O   0  0  0  0  0  0  0  0  0  0  0  0
  2  1  1  0
  3  2  1  0
  4  3  1  0
  5  4  1  0
  5  6  1  6
  7  8  2  0
  7  5  1  0
  9 10  1  0
 10 12  1  0
 10 11  2  0
 13 12  1  6
 13 14  1  0
 14  7  1  0
 15 16  2  0
 15 13  1  0
 18 17  1  1
 18 20  1  0
 18 19  1  0
 21 20  1  1
 21 22  1  0
 22 15  1  0
 23 21  1  0
 24 23  2  0
 25 23  1  0
M  END
$$$$
