MNL.pdb
     RDKit          3D

 25 24  0  0  1  0  0  0  0  0999 V2000
    7.5380  -12.8996   16.4879 C   0  0  0  0  0  0  0  0  0  0  0  0
    7.8837  -13.8299   17.9824 S   0  0  0  0  0  0  0  0  0  0  0  0
    6.5532  -13.5775   19.1995 C   0  0  0  0  0  0  0  0  0  0  0  0
    6.8381  -14.4639   20.3931 C   0  0  0  0  0  0  0  0  0  0  0  0
    8.1160  -14.0263   21.0876 C   0  0  2  0  0  0  0  0  0  0  0  0
    9.1549  -14.0153   20.0748 N   0  0  0  0  0  0  0  0  0  0  0  0
    8.4299  -15.0689   22.1306 C   0  0  0  0  0  0  0  0  0  0  0  0
    7.5450  -15.3485   22.9867 O   0  0  0  0  0  0  0  0  0  0  0  0
   11.9836  -18.0365   20.5341 N   0  0  0  0  0  0  0  0  0  0  0  0
   11.1030  -18.2527   21.6270 C   0  0  0  0  0  0  0  0  0  0  0  0
   10.2125  -19.1250   21.4904 O   0  0  0  0  0  0  0  0  0  0  0  0
   11.2171  -17.4862   22.8882 C   0  0  0  0  0  0  0  0  0  0  0  0
    9.9832  -16.6919   23.1892 C   0  0  2  0  0  0  0  0  0  0  0  0
    9.6710  -15.7280   22.1701 N   0  0  0  0  0  0  0  0  0  0  0  0
   10.0656  -16.0474   24.5415 C   0  0  0  0  0  0  0  0  0  0  0  0
   11.0361  -15.2984   24.8184 O   0  0  0  0  0  0  0  0  0  0  0  0
    8.5357  -12.3887   26.4102 C   0  0  0  0  0  0  0  0  0  0  0  0
    7.6836  -13.5827   26.2644 C   0  0  2  0  0  0  0  0  0  0  0  0
    6.2004  -13.1342   26.4271 C   0  0  0  0  0  0  0  0  0  0  0  0
    7.9364  -14.7941   27.0530 C   0  0  0  0  0  0  0  0  0  0  0  0
    9.2003  -15.5141   26.8253 C   0  0  2  0  0  0  0  0  0  0  0  0
    9.0758  -16.2568   25.5276 N   0  0  0  0  0  0  0  0  0  0  0  0
    9.4921  -16.5573   27.8059 C   0  0  0  0  0  0  0  0  0  0  0  0
    9.2773  -17.7662   27.5870 O   0  0  0  0  0  0  0  0  0  0  0  0
   10.0430  -16.1711   29.0551 O   0  0  0  0  0  0  0  0  0  0  0  0
  2  1  1  0
  3  2  1  0
  4  3  1  0
  5  4  1  0
  5  6  1  6
  7  8  2  0
  7  5  1  0
  9 10  1  0
 10 12  1  0
 10 11  2  0
 13 12  1  6
 13 14  1  0
 14  7  1  0
 15 16  2  0
 15 13  1  0
 18 17  1  1
 18 20  1  0
 18 19  1  0
 21 20  1  1
 21 22  1  0
 22 15  1  0
 23 21  1  0
 24 23  2  0
 25 23  1  0
M  END
$$$$
