MNL.pdb
     RDKit          3D

 25 24  0  0  1  0  0  0  0  0999 V2000
    8.7690  -11.5753   20.1123 C   0  0  0  0  0  0  0  0  0  0  0  0
    7.5803  -12.2711   18.9629 S   0  0  0  0  0  0  0  0  0  0  0  0
    7.9449  -14.0313   18.6731 C   0  0  0  0  0  0  0  0  0  0  0  0
    7.7433  -14.7709   19.9783 C   0  0  0  0  0  0  0  0  0  0  0  0
    9.0824  -15.1218   20.6032 C   0  0  2  0  0  0  0  0  0  0  0  0
    9.7287  -16.0558   19.7004 N   0  0  0  0  0  0  0  0  0  0  0  0
    8.7909  -15.8001   21.9179 C   0  0  0  0  0  0  0  0  0  0  0  0
    7.7254  -15.5012   22.5256 O   0  0  0  0  0  0  0  0  0  0  0  0
   10.7659  -20.1085   22.2274 N   0  0  0  0  0  0  0  0  0  0  0  0
    9.9196  -19.6055   23.2508 C   0  0  0  0  0  0  0  0  0  0  0  0
    8.8113  -20.1686   23.4157 O   0  0  0  0  0  0  0  0  0  0  0  0
   10.3144  -18.4598   24.1009 C   0  0  0  0  0  0  0  0  0  0  0  0
    9.5059  -17.2311   23.8176 C   0  0  2  0  0  0  0  0  0  0  0  0
    9.6691  -16.7463   22.4746 N   0  0  0  0  0  0  0  0  0  0  0  0
    9.7820  -16.1524   24.8232 C   0  0  0  0  0  0  0  0  0  0  0  0
   10.8894  -15.5582   24.8137 O   0  0  0  0  0  0  0  0  0  0  0  0
    8.1132  -12.1442   25.2450 C   0  0  0  0  0  0  0  0  0  0  0  0
    7.4029  -13.2169   25.9647 C   0  0  2  0  0  0  0  0  0  0  0  0
    6.0070  -12.6672   26.3854 C   0  0  0  0  0  0  0  0  0  0  0  0
    8.0314  -13.9187   27.0897 C   0  0  0  0  0  0  0  0  0  0  0  0
    9.2172  -14.7456   26.8109 C   0  0  2  0  0  0  0  0  0  0  0  0
    8.8264  -15.7769   25.7937 N   0  0  0  0  0  0  0  0  0  0  0  0
    9.6936  -15.5300   27.9480 C   0  0  0  0  0  0  0  0  0  0  0  0
   10.2469  -15.0122   28.9385 O   0  0  0  0  0  0  0  0  0  0  0  0
    9.5148  -16.9372   27.9166 O   0  0  0  0  0  0  0  0  0  0  0  0
  2  1  1  0
  3  2  1  0
  4  3  1  0
  5  4  1  0
  5  6  1  6
  7  8  2  0
  7  5  1  0
  9 10  1  0
 10 12  1  0
 10 11  2  0
 13 12  1  1
 13 14  1  0
 14  7  1  0
 15 16  2  0
 15 13  1  0
 18 17  1  1
 18 20  1  0
 18 19  1  0
 21 20  1  1
 21 22  1  0
 22 15  1  0
 23 21  1  0
 24 23  2  0
 25 23  1  0
M  END
$$$$
