MNL.pdb
     RDKit          3D

 25 24  0  0  1  0  0  0  0  0999 V2000
    8.8854  -11.4715   20.0420 C   0  0  0  0  0  0  0  0  0  0  0  0
    7.5061  -12.3212   19.2712 S   0  0  0  0  0  0  0  0  0  0  0  0
    7.8816  -14.0940   19.0950 C   0  0  0  0  0  0  0  0  0  0  0  0
    8.1049  -14.6638   20.4794 C   0  0  0  0  0  0  0  0  0  0  0  0
    8.5192  -16.1225   20.3938 C   0  0  2  0  0  0  0  0  0  0  0  0
    7.3902  -16.8416   19.8341 N   0  0  0  0  0  0  0  0  0  0  0  0
    8.7759  -16.5912   21.8037 C   0  0  0  0  0  0  0  0  0  0  0  0
    7.8052  -17.0416   22.4739 O   0  0  0  0  0  0  0  0  0  0  0  0
   12.7039  -19.1279   21.9331 N   0  0  0  0  0  0  0  0  0  0  0  0
   11.7045  -18.9713   22.9298 C   0  0  0  0  0  0  0  0  0  0  0  0
   10.8677  -19.8959   23.0622 O   0  0  0  0  0  0  0  0  0  0  0  0
   11.6377  -17.7683   23.7897 C   0  0  0  0  0  0  0  0  0  0  0  0
   10.3178  -17.0668   23.6916 C   0  0  2  0  0  0  0  0  0  0  0  0
   10.0567  -16.5382   22.3810 N   0  0  0  0  0  0  0  0  0  0  0  0
   10.1846  -16.0053   24.7434 C   0  0  0  0  0  0  0  0  0  0  0  0
   11.0448  -15.0924   24.8221 O   0  0  0  0  0  0  0  0  0  0  0  0
    7.7685  -12.3916   25.7593 C   0  0  0  0  0  0  0  0  0  0  0  0
    7.1795  -13.6981   26.1047 C   0  0  2  0  0  0  0  0  0  0  0  0
    5.6825  -13.4662   26.4688 C   0  0  0  0  0  0  0  0  0  0  0  0
    7.8124  -14.5755   27.0960 C   0  0  0  0  0  0  0  0  0  0  0  0
    9.1788  -15.0512   26.8236 C   0  0  2  0  0  0  0  0  0  0  0  0
    9.1103  -15.9971   25.6609 N   0  0  0  0  0  0  0  0  0  0  0  0
    9.7716  -15.8475   27.8958 C   0  0  0  0  0  0  0  0  0  0  0  0
    9.7745  -17.0946   27.8855 O   0  0  0  0  0  0  0  0  0  0  0  0
   10.3669  -15.1666   28.9891 O   0  0  0  0  0  0  0  0  0  0  0  0
  2  1  1  0
  3  2  1  0
  4  3  1  0
  5  4  1  0
  5  6  1  1
  7  8  2  0
  7  5  1  0
  9 10  1  0
 10 12  1  0
 10 11  2  0
 13 12  1  6
 13 14  1  0
 14  7  1  0
 15 16  2  0
 15 13  1  0
 18 17  1  1
 18 20  1  0
 18 19  1  0
 21 20  1  1
 21 22  1  0
 22 15  1  0
 23 21  1  0
 24 23  2  0
 25 23  1  0
M  END
$$$$
