MNL.pdb
     RDKit          3D

 25 24  0  0  1  0  0  0  0  0999 V2000
    7.9298  -11.4073   19.7706 C   0  0  0  0  0  0  0  0  0  0  0  0
    7.9435  -12.7251   18.5534 S   0  0  0  0  0  0  0  0  0  0  0  0
    8.8224  -14.1773   19.2119 C   0  0  0  0  0  0  0  0  0  0  0  0
    7.9063  -14.8700   20.1979 C   0  0  0  0  0  0  0  0  0  0  0  0
    8.6972  -15.3837   21.3885 C   0  0  2  0  0  0  0  0  0  0  0  0
   10.0652  -14.9386   21.2001 N   0  0  0  0  0  0  0  0  0  0  0  0
    8.6383  -16.8896   21.3401 C   0  0  0  0  0  0  0  0  0  0  0  0
    8.1105  -17.4387   20.3332 O   0  0  0  0  0  0  0  0  0  0  0  0
   13.6027  -17.5348   22.9654 N   0  0  0  0  0  0  0  0  0  0  0  0
   12.6920  -16.4708   22.7300 C   0  0  0  0  0  0  0  0  0  0  0  0
   13.0428  -15.3190   23.0806 O   0  0  0  0  0  0  0  0  0  0  0  0
   11.3733  -16.6945   22.0957 C   0  0  0  0  0  0  0  0  0  0  0  0
   10.4091  -17.3881   23.0084 C   0  0  2  0  0  0  0  0  0  0  0  0
    9.1518  -17.6853   22.3791 N   0  0  0  0  0  0  0  0  0  0  0  0
   10.2126  -16.6185   24.2812 C   0  0  0  0  0  0  0  0  0  0  0  0
   11.1975  -16.3776   25.0239 O   0  0  0  0  0  0  0  0  0  0  0  0
    5.9103  -12.9307   26.8166 C   0  0  0  0  0  0  0  0  0  0  0  0
    7.2891  -13.4439   26.7235 C   0  0  2  0  0  0  0  0  0  0  0  0
    8.2592  -12.2289   26.8245 C   0  0  0  0  0  0  0  0  0  0  0  0
    7.6955  -14.3271   25.6244 C   0  0  0  0  0  0  0  0  0  0  0  0
    8.8671  -15.1939   25.8333 C   0  0  2  0  0  0  0  0  0  0  0  0
    8.9408  -16.1490   24.6786 N   0  0  0  0  0  0  0  0  0  0  0  0
    8.7823  -16.0602   27.0069 C   0  0  0  0  0  0  0  0  0  0  0  0
    9.2015  -15.7157   28.1298 O   0  0  0  0  0  0  0  0  0  0  0  0
    8.1969  -17.3437   26.8547 O   0  0  0  0  0  0  0  0  0  0  0  0
  2  1  1  0
  3  2  1  0
  4  3  1  0
  5  4  1  0
  5  6  1  6
  7  8  2  0
  7  5  1  0
  9 10  1  0
 10 12  1  0
 10 11  2  0
 13 12  1  6
 13 14  1  0
 14  7  1  0
 15 16  2  0
 15 13  1  0
 18 17  1  6
 18 20  1  0
 18 19  1  0
 21 20  1  6
 21 22  1  0
 22 15  1  0
 23 21  1  0
 24 23  2  0
 25 23  1  0
M  END
$$$$
