MNL.pdb
     RDKit          3D

 25 24  0  0  1  0  0  0  0  0999 V2000
    7.9560  -11.3819   20.4942 C   0  0  0  0  0  0  0  0  0  0  0  0
    7.3344  -12.3570   19.1226 S   0  0  0  0  0  0  0  0  0  0  0  0
    7.0053  -14.0635   19.6652 C   0  0  0  0  0  0  0  0  0  0  0  0
    8.0257  -14.4216   20.7244 C   0  0  0  0  0  0  0  0  0  0  0  0
    8.1226  -15.9291   20.8816 C   0  0  2  0  0  0  0  0  0  0  0  0
    7.1332  -16.3066   21.8733 N   0  0  0  0  0  0  0  0  0  0  0  0
    9.5063  -16.2301   21.3995 C   0  0  0  0  0  0  0  0  0  0  0  0
   10.4957  -15.9640   20.6617 O   0  0  0  0  0  0  0  0  0  0  0  0
   14.3972  -15.2859   23.0742 N   0  0  0  0  0  0  0  0  0  0  0  0
   13.3548  -16.2276   22.8662 C   0  0  0  0  0  0  0  0  0  0  0  0
   13.6579  -17.4441   22.8960 O   0  0  0  0  0  0  0  0  0  0  0  0
   11.9568  -15.8071   22.6218 C   0  0  0  0  0  0  0  0  0  0  0  0
   10.9668  -16.6519   23.3634 C   0  0  2  0  0  0  0  0  0  0  0  0
    9.7159  -16.7937   22.6703 N   0  0  0  0  0  0  0  0  0  0  0  0
   10.7605  -16.1497   24.7621 C   0  0  0  0  0  0  0  0  0  0  0  0
   11.7546  -15.9141   25.4942 O   0  0  0  0  0  0  0  0  0  0  0  0
    8.9303  -12.3636   26.3398 C   0  0  0  0  0  0  0  0  0  0  0  0
    8.0437  -13.5152   26.0932 C   0  0  2  0  0  0  0  0  0  0  0  0
    6.5750  -12.9952   26.0877 C   0  0  0  0  0  0  0  0  0  0  0  0
    8.1463  -14.7361   26.9007 C   0  0  0  0  0  0  0  0  0  0  0  0
    9.3504  -15.5685   26.7426 C   0  0  2  0  0  0  0  0  0  0  0  0
    9.4692  -15.9296   25.2912 N   0  0  0  0  0  0  0  0  0  0  0  0
    9.2931  -16.8584   27.4268 C   0  0  0  0  0  0  0  0  0  0  0  0
    9.0397  -17.9251   26.8324 O   0  0  0  0  0  0  0  0  0  0  0  0
    9.5380  -16.8901   28.8240 O   0  0  0  0  0  0  0  0  0  0  0  0
  2  1  1  0
  3  2  1  0
  4  3  1  0
  5  4  1  0
  5  6  1  1
  7  8  2  0
  7  5  1  0
  9 10  1  0
 10 12  1  0
 10 11  2  0
 13 12  1  6
 13 14  1  0
 14  7  1  0
 15 16  2  0
 15 13  1  0
 18 17  1  1
 18 20  1  0
 18 19  1  0
 21 20  1  6
 21 22  1  0
 22 15  1  0
 23 21  1  0
 24 23  2  0
 25 23  1  0
M  END
$$$$
