MNL.pdb
     RDKit          3D

 25 24  0  0  1  0  0  0  0  0999 V2000
    6.4368  -12.5588   26.5332 C   0  0  0  0  0  0  0  0  0  0  0  0
    6.6282  -12.2694   24.7731 S   0  0  0  0  0  0  0  0  0  0  0  0
    6.3547  -13.8150   23.8504 C   0  0  0  0  0  0  0  0  0  0  0  0
    7.4238  -14.8025   24.2666 C   0  0  0  0  0  0  0  0  0  0  0  0
    7.8553  -15.6498   23.0822 C   0  0  2  0  0  0  0  0  0  0  0  0
    6.7114  -16.4641   22.7169 N   0  0  0  0  0  0  0  0  0  0  0  0
    8.9804  -16.5332   23.5589 C   0  0  0  0  0  0  0  0  0  0  0  0
    8.6903  -17.6014   24.1662 O   0  0  0  0  0  0  0  0  0  0  0  0
   12.4622  -16.2372   20.5920 N   0  0  0  0  0  0  0  0  0  0  0  0
   12.3349  -17.2394   21.5901 C   0  0  0  0  0  0  0  0  0  0  0  0
   11.9599  -18.3786   21.2236 O   0  0  0  0  0  0  0  0  0  0  0  0
   12.6297  -16.9674   23.0150 C   0  0  0  0  0  0  0  0  0  0  0  0
   11.4001  -16.9977   23.8700 C   0  0  2  0  0  0  0  0  0  0  0  0
   10.3285  -16.1972   23.3445 N   0  0  0  0  0  0  0  0  0  0  0  0
   11.7131  -16.6247   25.2891 C   0  0  0  0  0  0  0  0  0  0  0  0
   12.8833  -16.2912   25.6038 O   0  0  0  0  0  0  0  0  0  0  0  0
   11.3183  -13.3512   27.8970 C   0  0  0  0  0  0  0  0  0  0  0  0
   10.1759  -14.2830   27.8927 C   0  0  2  0  0  0  0  0  0  0  0  0
    8.9609  -13.5526   28.5389 C   0  0  0  0  0  0  0  0  0  0  0  0
   10.3025  -15.6384   28.4404 C   0  0  0  0  0  0  0  0  0  0  0  0
   11.1704  -16.5915   27.7291 C   0  0  2  0  0  0  0  0  0  0  0  0
   10.7236  -16.6359   26.2974 N   0  0  0  0  0  0  0  0  0  0  0  0
   11.0537  -17.9761   28.1814 C   0  0  0  0  0  0  0  0  0  0  0  0
   11.5956  -18.3913   29.2251 O   0  0  0  0  0  0  0  0  0  0  0  0
   10.2903  -18.8782   27.3962 O   0  0  0  0  0  0  0  0  0  0  0  0
  2  1  1  0
  3  2  1  0
  4  3  1  0
  5  4  1  0
  5  6  1  1
  7  8  2  0
  7  5  1  0
  9 10  1  0
 10 12  1  0
 10 11  2  0
 13 12  1  6
 13 14  1  0
 14  7  1  0
 15 16  2  0
 15 13  1  0
 18 17  1  1
 18 20  1  0
 18 19  1  0
 21 20  1  1
 21 22  1  0
 22 15  1  0
 23 21  1  0
 24 23  2  0
 25 23  1  0
M  END
$$$$
