MNL.pdb
     RDKit          3D

 25 24  0  0  1  0  0  0  0  0999 V2000
    7.9847  -22.3293   14.6071 C   0  0  0  0  0  0  0  0  0  0  0  0
    6.5117  -21.3842   14.2128 S   0  0  0  0  0  0  0  0  0  0  0  0
    6.4094  -19.9102   15.2767 C   0  0  0  0  0  0  0  0  0  0  0  0
    7.4570  -20.0436   16.3612 C   0  0  0  0  0  0  0  0  0  0  0  0
    7.3395  -18.9032   17.3575 C   0  0  2  0  0  0  0  0  0  0  0  0
    7.1940  -17.6871   16.5797 N   0  0  0  0  0  0  0  0  0  0  0  0
    8.6310  -18.8619   18.1344 C   0  0  0  0  0  0  0  0  0  0  0  0
    8.9034  -19.8282   18.9000 O   0  0  0  0  0  0  0  0  0  0  0  0
   12.1098  -19.8585   17.4104 N   0  0  0  0  0  0  0  0  0  0  0  0
   12.4482  -18.5137   17.1039 C   0  0  0  0  0  0  0  0  0  0  0  0
   13.2024  -18.3149   16.1220 O   0  0  0  0  0  0  0  0  0  0  0  0
   11.9388  -17.3764   17.9029 C   0  0  0  0  0  0  0  0  0  0  0  0
   10.7658  -17.7545   18.7542 C   0  0  2  0  0  0  0  0  0  0  0  0
    9.5272  -17.7842   18.0260 N   0  0  0  0  0  0  0  0  0  0  0  0
   10.6645  -16.8748   19.9653 C   0  0  0  0  0  0  0  0  0  0  0  0
   11.7058  -16.5469   20.5881 O   0  0  0  0  0  0  0  0  0  0  0  0
    9.1439  -12.5052   20.2551 C   0  0  0  0  0  0  0  0  0  0  0  0
    8.1907  -13.6267   20.3377 C   0  0  2  0  0  0  0  0  0  0  0  0
    6.7539  -13.0455   20.1796 C   0  0  0  0  0  0  0  0  0  0  0  0
    8.2336  -14.5758   21.4560 C   0  0  0  0  0  0  0  0  0  0  0  0
    9.4227  -15.4339   21.5872 C   0  0  2  0  0  0  0  0  0  0  0  0
    9.4214  -16.3960   20.4359 N   0  0  0  0  0  0  0  0  0  0  0  0
    9.4261  -16.2933   22.7691 C   0  0  0  0  0  0  0  0  0  0  0  0
    9.1552  -17.5095   22.7179 O   0  0  0  0  0  0  0  0  0  0  0  0
    9.7530  -15.7128   24.0218 O   0  0  0  0  0  0  0  0  0  0  0  0
  2  1  1  0
  3  2  1  0
  4  3  1  0
  5  4  1  0
  5  6  1  6
  7  8  2  0
  7  5  1  0
  9 10  1  0
 10 12  1  0
 10 11  2  0
 13 12  1  6
 13 14  1  0
 14  7  1  0
 15 16  2  0
 15 13  1  0
 18 17  1  1
 18 20  1  0
 18 19  1  0
 21 20  1  1
 21 22  1  0
 22 15  1  0
 23 21  1  0
 24 23  2  0
 25 23  1  0
M  END
$$$$
