MNL.pdb
     RDKit          3D

 25 24  0  0  1  0  0  0  0  0999 V2000
    9.2339  -11.8460   19.3834 C   0  0  0  0  0  0  0  0  0  0  0  0
    7.6546  -12.3634   18.7078 S   0  0  0  0  0  0  0  0  0  0  0  0
    7.5495  -14.1809   18.6812 C   0  0  0  0  0  0  0  0  0  0  0  0
    7.9696  -14.6929   20.0423 C   0  0  0  0  0  0  0  0  0  0  0  0
    8.1432  -16.2014   20.0129 C   0  0  2  0  0  0  0  0  0  0  0  0
    6.8360  -16.7633   19.7294 N   0  0  0  0  0  0  0  0  0  0  0  0
    8.5921  -16.6203   21.3900 C   0  0  0  0  0  0  0  0  0  0  0  0
    7.7117  -16.9142   22.2460 O   0  0  0  0  0  0  0  0  0  0  0  0
   13.1753  -18.6296   21.2207 N   0  0  0  0  0  0  0  0  0  0  0  0
   12.1075  -18.6743   22.1558 C   0  0  0  0  0  0  0  0  0  0  0  0
   11.4050  -19.7128   22.1847 O   0  0  0  0  0  0  0  0  0  0  0  0
   11.8196  -17.5465   23.0704 C   0  0  0  0  0  0  0  0  0  0  0  0
   10.3801  -17.1339   23.0353 C   0  0  2  0  0  0  0  0  0  0  0  0
    9.9526  -16.6899   21.7371 N   0  0  0  0  0  0  0  0  0  0  0  0
   10.0809  -16.1074   24.0878 C   0  0  0  0  0  0  0  0  0  0  0  0
   10.7565  -15.0487   24.1376 O   0  0  0  0  0  0  0  0  0  0  0  0
    5.8239  -12.8737   26.5561 C   0  0  0  0  0  0  0  0  0  0  0  0
    7.1626  -13.4753   26.6944 C   0  0  2  0  0  0  0  0  0  0  0  0
    8.1959  -12.3167   26.8266 C   0  0  0  0  0  0  0  0  0  0  0  0
    7.6446  -14.4777   25.7373 C   0  0  0  0  0  0  0  0  0  0  0  0
    8.8564  -15.2376   26.0860 C   0  0  2  0  0  0  0  0  0  0  0  0
    9.0517  -16.2930   25.0376 N   0  0  0  0  0  0  0  0  0  0  0  0
    8.7652  -15.9898   27.3354 C   0  0  0  0  0  0  0  0  0  0  0  0
    8.2005  -17.0990   27.4139 O   0  0  0  0  0  0  0  0  0  0  0  0
    9.3462  -15.4290   28.5021 O   0  0  0  0  0  0  0  0  0  0  0  0
  2  1  1  0
  3  2  1  0
  4  3  1  0
  5  4  1  0
  5  6  1  1
  7  8  2  0
  7  5  1  0
  9 10  1  0
 10 12  1  0
 10 11  2  0
 13 12  1  6
 13 14  1  0
 14  7  1  0
 15 16  2  0
 15 13  1  0
 18 17  1  6
 18 20  1  0
 18 19  1  0
 21 20  1  6
 21 22  1  0
 22 15  1  0
 23 21  1  0
 24 23  2  0
 25 23  1  0
M  END
$$$$
