MNL.pdb
     RDKit          3D

 25 24  0  0  1  0  0  0  0  0999 V2000
    7.8237  -11.5780   19.0728 C   0  0  0  0  0  0  0  0  0  0  0  0
    7.8076  -12.1384   20.7770 S   0  0  0  0  0  0  0  0  0  0  0  0
    8.2440  -13.9041   20.8603 C   0  0  0  0  0  0  0  0  0  0  0  0
    7.0102  -14.7070   20.5076 C   0  0  0  0  0  0  0  0  0  0  0  0
    7.3290  -16.1919   20.4899 C   0  0  2  0  0  0  0  0  0  0  0  0
    6.1087  -16.8729   20.1001 N   0  0  0  0  0  0  0  0  0  0  0  0
    7.7032  -16.5791   21.8983 C   0  0  0  0  0  0  0  0  0  0  0  0
    6.7796  -16.7317   22.7455 O   0  0  0  0  0  0  0  0  0  0  0  0
   10.9938  -20.3857   24.8037 N   0  0  0  0  0  0  0  0  0  0  0  0
   10.7053  -18.9952   24.7989 C   0  0  0  0  0  0  0  0  0  0  0  0
   10.5807  -18.4250   25.9089 O   0  0  0  0  0  0  0  0  0  0  0  0
   10.5539  -18.2311   23.5402 C   0  0  0  0  0  0  0  0  0  0  0  0
    9.3886  -17.2907   23.5778 C   0  0  2  0  0  0  0  0  0  0  0  0
    9.0414  -16.7715   22.2835 N   0  0  0  0  0  0  0  0  0  0  0  0
    9.6118  -16.1845   24.5663 C   0  0  0  0  0  0  0  0  0  0  0  0
   10.4901  -15.3139   24.3418 O   0  0  0  0  0  0  0  0  0  0  0  0
    7.8795  -12.2817   25.6174 C   0  0  0  0  0  0  0  0  0  0  0  0
    7.2101  -13.4768   26.1620 C   0  0  2  0  0  0  0  0  0  0  0  0
    5.8295  -13.0334   26.7320 C   0  0  0  0  0  0  0  0  0  0  0  0
    7.8929  -14.3584   27.1157 C   0  0  0  0  0  0  0  0  0  0  0  0
    9.1696  -14.9643   26.7028 C   0  0  2  0  0  0  0  0  0  0  0  0
    8.8581  -16.0868   25.7573 N   0  0  0  0  0  0  0  0  0  0  0  0
    9.9169  -15.6055   27.7825 C   0  0  0  0  0  0  0  0  0  0  0  0
    9.8402  -16.8271   28.0213 O   0  0  0  0  0  0  0  0  0  0  0  0
   10.7626  -14.7985   28.5867 O   0  0  0  0  0  0  0  0  0  0  0  0
  2  1  1  0
  3  2  1  0
  4  3  1  0
  5  4  1  0
  5  6  1  1
  7  8  2  0
  7  5  1  0
  9 10  1  0
 10 12  1  0
 10 11  2  0
 13 12  1  6
 13 14  1  0
 14  7  1  0
 15 16  2  0
 15 13  1  0
 18 17  1  1
 18 20  1  0
 18 19  1  0
 21 20  1  1
 21 22  1  0
 22 15  1  0
 23 21  1  0
 24 23  2  0
 25 23  1  0
M  END
$$$$
