MNL.pdb
     RDKit          3D

 25 24  0  0  1  0  0  0  0  0999 V2000
    8.0127  -11.5162   18.2052 C   0  0  0  0  0  0  0  0  0  0  0  0
    7.9475  -12.5338   19.6812 S   0  0  0  0  0  0  0  0  0  0  0  0
    7.0950  -14.1025   19.3238 C   0  0  0  0  0  0  0  0  0  0  0  0
    6.8842  -14.8285   20.6352 C   0  0  0  0  0  0  0  0  0  0  0  0
    8.2163  -15.2535   21.2281 C   0  0  2  0  0  0  0  0  0  0  0  0
    8.8292  -16.1522   20.2680 N   0  0  0  0  0  0  0  0  0  0  0  0
    7.9135  -15.9976   22.5040 C   0  0  0  0  0  0  0  0  0  0  0  0
    6.8894  -16.7352   22.5415 O   0  0  0  0  0  0  0  0  0  0  0  0
   12.1614  -19.3356   23.3728 N   0  0  0  0  0  0  0  0  0  0  0  0
   10.8291  -19.0114   23.7424 C   0  0  0  0  0  0  0  0  0  0  0  0
   10.2690  -19.7429   24.5931 O   0  0  0  0  0  0  0  0  0  0  0  0
   10.1126  -17.8566   23.1557 C   0  0  0  0  0  0  0  0  0  0  0  0
    9.4161  -17.0285   24.1914 C   0  0  2  0  0  0  0  0  0  0  0  0
    8.7365  -15.8892   23.6386 N   0  0  0  0  0  0  0  0  0  0  0  0
   10.3561  -16.6226   25.2881 C   0  0  0  0  0  0  0  0  0  0  0  0
   10.9402  -17.5035   25.9681 O   0  0  0  0  0  0  0  0  0  0  0  0
    6.0840  -13.4887   26.4974 C   0  0  0  0  0  0  0  0  0  0  0  0
    7.4429  -13.7760   26.9912 C   0  0  2  0  0  0  0  0  0  0  0  0
    7.9328  -12.5332   27.7931 C   0  0  0  0  0  0  0  0  0  0  0  0
    8.4966  -14.2400   26.0815 C   0  0  0  0  0  0  0  0  0  0  0  0
    9.7964  -14.6121   26.6642 C   0  0  2  0  0  0  0  0  0  0  0  0
   10.6104  -15.2652   25.5863 N   0  0  0  0  0  0  0  0  0  0  0  0
    9.7248  -15.6223   27.7176 C   0  0  0  0  0  0  0  0  0  0  0  0
    9.1027  -16.6946   27.5809 O   0  0  0  0  0  0  0  0  0  0  0  0
   10.3937  -15.3657   28.9422 O   0  0  0  0  0  0  0  0  0  0  0  0
  2  1  1  0
  3  2  1  0
  4  3  1  0
  5  4  1  0
  5  6  1  6
  7  8  2  0
  7  5  1  0
  9 10  1  0
 10 12  1  0
 10 11  2  0
 13 12  1  6
 13 14  1  0
 14  7  1  0
 15 16  2  0
 15 13  1  0
 18 17  1  6
 18 20  1  0
 18 19  1  0
 21 20  1  6
 21 22  1  0
 22 15  1  0
 23 21  1  0
 24 23  2  0
 25 23  1  0
M  END
$$$$
