YTY.pdb
     RDKit          3D

 32 33  0  0  1  0  0  0  0  0999 V2000
   28.5644  -31.4197  -16.1178 O   0  0  0  0  0  0  0  0  0  0  0  0
   28.3362  -30.0487  -16.1833 C   0  0  0  0  0  0  0  0  0  0  0  0
   27.1571  -29.4945  -15.7300 C   0  0  0  0  0  0  0  0  0  0  0  0
   26.9436  -28.1312  -15.8011 C   0  0  0  0  0  0  0  0  0  0  0  0
   27.8829  -27.2639  -16.3209 C   0  0  0  0  0  0  0  0  0  0  0  0
   27.6242  -25.8003  -16.3842 C   0  0  0  0  0  0  0  0  0  0  0  0
   26.6653  -25.5798  -17.5594 C   0  0  2  0  0  0  0  0  0  0  0  0
   27.3883  -25.8110  -18.7717 N   0  0  0  0  0  0  0  0  0  0  0  0
   26.0661  -24.2222  -17.4980 C   0  0  0  0  0  0  0  0  0  0  0  0
   26.3987  -23.3421  -18.3317 O   0  0  0  0  0  0  0  0  0  0  0  0
   29.0633  -27.8155  -16.7751 C   0  0  0  0  0  0  0  0  0  0  0  0
   29.2721  -29.1782  -16.7020 C   0  0  0  0  0  0  0  0  0  0  0  0
   24.7046  -22.4297  -19.0153 C   0  0  0  0  0  0  0  0  0  0  0  0
   23.6913  -22.4557  -17.8811 C   0  0  1  0  0  0  0  0  0  0  0  0
   22.8172  -23.5073  -18.1024 O   0  0  0  0  0  0  0  0  0  0  0  0
   24.4194  -22.5996  -16.5478 C   0  0  2  0  0  0  0  0  0  0  0  0
   25.1137  -23.8872  -16.5081 N   0  0  0  0  0  0  0  0  0  0  0  0
   23.4573  -22.4922  -15.4279 C   0  0  0  0  0  0  0  0  0  0  0  0
   22.8772  -23.5034  -14.9428 O   0  0  0  0  0  0  0  0  0  0  0  0
   20.7911  -15.9816  -17.3478 O   0  0  0  0  0  0  0  0  0  0  0  0
   21.1462  -16.9004  -16.3633 C   0  0  0  0  0  0  0  0  0  0  0  0
   22.4459  -17.3066  -16.1738 C   0  0  0  0  0  0  0  0  0  0  0  0
   22.7965  -18.2192  -15.1957 C   0  0  0  0  0  0  0  0  0  0  0  0
   21.8383  -18.7625  -14.3628 C   0  0  0  0  0  0  0  0  0  0  0  0
   22.1563  -19.7360  -13.3143 C   0  0  0  0  0  0  0  0  0  0  0  0
   22.1354  -21.1750  -13.7786 C   0  0  2  0  0  0  0  0  0  0  0  0
   23.1437  -21.2491  -14.8476 N   0  0  0  0  0  0  0  0  0  0  0  0
   20.8113  -21.5669  -14.2719 C   0  0  0  0  0  0  0  0  0  0  0  0
   20.6108  -21.6037  -15.5160 O   0  0  0  0  0  0  0  0  0  0  0  0
   20.5164  -18.3562  -14.5477 C   0  0  0  0  0  0  0  0  0  0  0  0
   20.1964  -17.4507  -15.5240 C   0  0  0  0  0  0  0  0  0  0  0  0
   19.7704  -21.8993  -13.4226 O   0  0  0  0  0  0  0  0  0  0  0  0
  1  2  1  0
  2  3  2  0
  3  4  1  0
  5  6  1  0
  5  4  2  0
  7  8  1  6
  7  6  1  0
  9  7  1  0
  9 10  2  0
 11  5  1  0
 12 11  2  0
 12  2  1  0
 14 13  1  6
 14 15  1  0
 14 16  1  0
 16 17  1  6
 16 18  1  0
 17  9  1  0
 18 19  2  0
 18 27  1  0
 20 21  1  0
 21 31  2  0
 21 22  1  0
 22 23  2  0
 23 24  1  0
 24 25  1  0
 26 25  1  6
 26 28  1  0
 27 26  1  0
 28 29  2  0
 28 32  1  0
 30 24  2  0
 31 30  1  0
M  END
$$$$
