YTY.pdb
     RDKit          3D

 32 33  0  0  1  0  0  0  0  0999 V2000
   26.4880  -27.0171  -22.1907 O   0  0  0  0  0  0  0  0  0  0  0  0
   27.4164  -28.0143  -21.9085 C   0  0  0  0  0  0  0  0  0  0  0  0
   28.1283  -28.6377  -22.9122 C   0  0  0  0  0  0  0  0  0  0  0  0
   29.0473  -29.6266  -22.6177 C   0  0  0  0  0  0  0  0  0  0  0  0
   29.2990  -30.0378  -21.3245 C   0  0  0  0  0  0  0  0  0  0  0  0
   30.2948  -31.1054  -21.0387 C   0  0  0  0  0  0  0  0  0  0  0  0
   31.6259  -30.3955  -20.7675 C   0  0  2  0  0  0  0  0  0  0  0  0
   32.0986  -29.8514  -22.0029 N   0  0  0  0  0  0  0  0  0  0  0  0
   32.5977  -31.3277  -20.1410 C   0  0  0  0  0  0  0  0  0  0  0  0
   33.2624  -32.1246  -20.8506 O   0  0  0  0  0  0  0  0  0  0  0  0
   28.5883  -29.4160  -20.3185 C   0  0  0  0  0  0  0  0  0  0  0  0
   27.6711  -28.4284  -20.6176 C   0  0  0  0  0  0  0  0  0  0  0  0
   35.7462  -30.8847  -18.7094 C   0  0  0  0  0  0  0  0  0  0  0  0
   34.9353  -31.4818  -17.5693 C   0  0  1  0  0  0  0  0  0  0  0  0
   34.5125  -30.4492  -16.7484 O   0  0  0  0  0  0  0  0  0  0  0  0
   33.7573  -32.2686  -18.1367 C   0  0  2  0  0  0  0  0  0  0  0  0
   32.7989  -31.3428  -18.7416 N   0  0  0  0  0  0  0  0  0  0  0  0
   33.1111  -33.0609  -17.0661 C   0  0  0  0  0  0  0  0  0  0  0  0
   32.8550  -32.5711  -15.9308 O   0  0  0  0  0  0  0  0  0  0  0  0
   27.4713  -30.6638  -16.3398 O   0  0  0  0  0  0  0  0  0  0  0  0
   28.2558  -31.8103  -16.4382 C   0  0  0  0  0  0  0  0  0  0  0  0
   28.7074  -32.2885  -17.6454 C   0  0  0  0  0  0  0  0  0  0  0  0
   29.4863  -33.4272  -17.7410 C   0  0  0  0  0  0  0  0  0  0  0  0
   29.8428  -34.1342  -16.6095 C   0  0  0  0  0  0  0  0  0  0  0  0
   30.6621  -35.3485  -16.6564 C   0  0  0  0  0  0  0  0  0  0  0  0
   32.0860  -35.1532  -16.1863 C   0  0  2  0  0  0  0  0  0  0  0  0
   32.7489  -34.4059  -17.2666 N   0  0  0  0  0  0  0  0  0  0  0  0
   32.7566  -36.4338  -15.9399 C   0  0  0  0  0  0  0  0  0  0  0  0
   33.7574  -36.7425  -16.6415 O   0  0  0  0  0  0  0  0  0  0  0  0
   29.3891  -33.6563  -15.3797 C   0  0  0  0  0  0  0  0  0  0  0  0
   28.6189  -32.5258  -15.3132 C   0  0  0  0  0  0  0  0  0  0  0  0
   32.3327  -37.3188  -14.9640 O   0  0  0  0  0  0  0  0  0  0  0  0
  1  2  1  0
  2  3  2  0
  3  4  1  0
  5  6  1  0
  5  4  2  0
  7  8  1  6
  7  6  1  0
  9  7  1  0
  9 10  2  0
 11  5  1  0
 12 11  2  0
 12  2  1  0
 14 13  1  6
 14 15  1  0
 14 16  1  0
 16 17  1  1
 16 18  1  0
 17  9  1  0
 18 19  2  0
 18 27  1  0
 20 21  1  0
 21 31  2  0
 21 22  1  0
 22 23  2  0
 23 24  1  0
 24 25  1  0
 26 25  1  6
 26 28  1  0
 27 26  1  0
 28 29  2  0
 28 32  1  0
 30 24  2  0
 31 30  1  0
M  END
$$$$
