YTY.pdb
     RDKit          3D

 32 33  0  0  1  0  0  0  0  0999 V2000
   18.8318  -14.8186  -17.3689 O   0  0  0  0  0  0  0  0  0  0  0  0
   18.7238  -13.4782  -17.0118 C   0  0  0  0  0  0  0  0  0  0  0  0
   18.9557  -12.4707  -17.9250 C   0  0  0  0  0  0  0  0  0  0  0  0
   18.8448  -11.1435  -17.5569 C   0  0  0  0  0  0  0  0  0  0  0  0
   18.5016  -10.7598  -16.2763 C   0  0  0  0  0  0  0  0  0  0  0  0
   18.3900   -9.3224  -15.9098 C   0  0  0  0  0  0  0  0  0  0  0  0
   19.7726   -8.8949  -15.4049 C   0  0  2  0  0  0  0  0  0  0  0  0
   20.6840   -9.9716  -15.6415 N   0  0  0  0  0  0  0  0  0  0  0  0
   19.7083   -8.5006  -13.9745 C   0  0  0  0  0  0  0  0  0  0  0  0
   20.1530   -9.2673  -13.0830 O   0  0  0  0  0  0  0  0  0  0  0  0
   18.2689  -11.7655  -15.3607 C   0  0  0  0  0  0  0  0  0  0  0  0
   18.3810  -13.0901  -15.7332 C   0  0  0  0  0  0  0  0  0  0  0  0
   21.4525   -5.8888  -12.4215 C   0  0  0  0  0  0  0  0  0  0  0  0
   20.0136   -5.5871  -12.0310 C   0  0  1  0  0  0  0  0  0  0  0  0
   19.5486   -4.5631  -12.8398 O   0  0  0  0  0  0  0  0  0  0  0  0
   19.1682   -6.8489  -12.1779 C   0  0  2  0  0  0  0  0  0  0  0  0
   19.1498   -7.2625  -13.5815 N   0  0  0  0  0  0  0  0  0  0  0  0
   17.7928   -6.6001  -11.6904 C   0  0  0  0  0  0  0  0  0  0  0  0
   16.8441   -6.3180  -12.4744 O   0  0  0  0  0  0  0  0  0  0  0  0
   10.6486   -6.4083   -6.4868 O   0  0  0  0  0  0  0  0  0  0  0  0
   11.9152   -6.5981   -7.0339 C   0  0  0  0  0  0  0  0  0  0  0  0
   13.0014   -5.8504   -6.6452 C   0  0  0  0  0  0  0  0  0  0  0  0
   14.2584   -6.0403   -7.1897 C   0  0  0  0  0  0  0  0  0  0  0  0
   14.4690   -7.0025   -8.1578 C   0  0  0  0  0  0  0  0  0  0  0  0
   15.7793   -7.2407   -8.7697 C   0  0  0  0  0  0  0  0  0  0  0  0
   16.1437   -6.2543   -9.8564 C   0  0  2  0  0  0  0  0  0  0  0  0
   17.4771   -6.6685  -10.3207 N   0  0  0  0  0  0  0  0  0  0  0  0
   16.1624   -4.8766   -9.3546 C   0  0  0  0  0  0  0  0  0  0  0  0
   17.1933   -4.4578   -8.7621 O   0  0  0  0  0  0  0  0  0  0  0  0
   13.3723   -7.7663   -8.5586 C   0  0  0  0  0  0  0  0  0  0  0  0
   12.1381   -7.5576   -8.0029 C   0  0  0  0  0  0  0  0  0  0  0  0
   15.0896   -4.0157   -9.5071 O   0  0  0  0  0  0  0  0  0  0  0  0
  1  2  1  0
  2  3  2  0
  3  4  1  0
  5  6  1  0
  5  4  2  0
  7  8  1  1
  7  6  1  0
  9  7  1  0
  9 10  2  0
 11  5  1  0
 12 11  2  0
 12  2  1  0
 14 13  1  6
 14 15  1  0
 14 16  1  0
 16 17  1  6
 16 18  1  0
 17  9  1  0
 18 19  2  0
 18 27  1  0
 20 21  1  0
 21 31  2  0
 21 22  1  0
 22 23  2  0
 23 24  1  0
 24 25  1  0
 26 25  1  1
 26 28  1  0
 27 26  1  0
 28 29  2  0
 28 32  1  0
 30 24  2  0
 31 30  1  0
M  END
$$$$
