YTY.pdb
     RDKit          3D

 32 33  0  0  1  0  0  0  0  0999 V2000
   20.1625  -19.2347  -14.1526 O   0  0  0  0  0  0  0  0  0  0  0  0
   20.5080  -18.0036  -14.7012 C   0  0  0  0  0  0  0  0  0  0  0  0
   19.6696  -16.9126  -14.6027 C   0  0  0  0  0  0  0  0  0  0  0  0
   20.0254  -15.6958  -15.1522 C   0  0  0  0  0  0  0  0  0  0  0  0
   21.2193  -15.5086  -15.8187 C   0  0  0  0  0  0  0  0  0  0  0  0
   21.5747  -14.1861  -16.4000 C   0  0  0  0  0  0  0  0  0  0  0  0
   20.7696  -14.0521  -17.6973 C   0  0  2  0  0  0  0  0  0  0  0  0
   21.4298  -14.8160  -18.7105 N   0  0  0  0  0  0  0  0  0  0  0  0
   20.6095  -12.6229  -18.0683 C   0  0  0  0  0  0  0  0  0  0  0  0
   21.5692  -11.9851  -18.5707 O   0  0  0  0  0  0  0  0  0  0  0  0
   22.0600  -16.5981  -15.9188 C   0  0  0  0  0  0  0  0  0  0  0  0
   21.7002  -17.8120  -15.3682 C   0  0  0  0  0  0  0  0  0  0  0  0
   17.6099   -8.9262  -19.2830 C   0  0  0  0  0  0  0  0  0  0  0  0
   17.7898  -10.3647  -18.8221 C   0  0  1  0  0  0  0  0  0  0  0  0
   17.5081  -11.2021  -19.8891 O   0  0  0  0  0  0  0  0  0  0  0  0
   19.2136  -10.5638  -18.3106 C   0  0  2  0  0  0  0  0  0  0  0  0
   19.3833  -11.9481  -17.8677 N   0  0  0  0  0  0  0  0  0  0  0  0
   19.4921   -9.6243  -17.2010 C   0  0  0  0  0  0  0  0  0  0  0  0
   19.1622   -9.8779  -16.0088 O   0  0  0  0  0  0  0  0  0  0  0  0
   22.4218   -1.7828  -14.0836 O   0  0  0  0  0  0  0  0  0  0  0  0
   22.2395   -3.0255  -14.6854 C   0  0  0  0  0  0  0  0  0  0  0  0
   21.8758   -3.1549  -16.0049 C   0  0  0  0  0  0  0  0  0  0  0  0
   21.6951   -4.3897  -16.6008 C   0  0  0  0  0  0  0  0  0  0  0  0
   21.8765   -5.5535  -15.8796 C   0  0  0  0  0  0  0  0  0  0  0  0
   21.6935   -6.8859  -16.4619 C   0  0  0  0  0  0  0  0  0  0  0  0
   20.2919   -7.4358  -16.3215 C   0  0  2  0  0  0  0  0  0  0  0  0
   20.1432   -8.3971  -17.4255 N   0  0  0  0  0  0  0  0  0  0  0  0
   19.2823   -6.3755  -16.4035 C   0  0  0  0  0  0  0  0  0  0  0  0
   18.8336   -6.0475  -17.5351 O   0  0  0  0  0  0  0  0  0  0  0  0
   22.2457   -5.4319  -14.5396 C   0  0  0  0  0  0  0  0  0  0  0  0
   22.4181   -4.1966  -13.9742 C   0  0  0  0  0  0  0  0  0  0  0  0
   18.8011   -5.7195  -15.2840 O   0  0  0  0  0  0  0  0  0  0  0  0
  1  2  1  0
  2  3  2  0
  3  4  1  0
  5  6  1  0
  5  4  2  0
  7  8  1  6
  7  6  1  0
  9  7  1  0
  9 10  2  0
 11  5  1  0
 12 11  2  0
 12  2  1  0
 14 13  1  6
 14 15  1  0
 14 16  1  0
 16 17  1  1
 16 18  1  0
 17  9  1  0
 18 19  2  0
 18 27  1  0
 20 21  1  0
 21 31  2  0
 21 22  1  0
 22 23  2  0
 23 24  1  0
 24 25  1  0
 26 25  1  6
 26 28  1  0
 27 26  1  0
 28 29  2  0
 28 32  1  0
 30 24  2  0
 31 30  1  0
M  END
$$$$
