YTY.pdb
     RDKit          3D

 32 33  0  0  1  0  0  0  0  0999 V2000
   44.7671   -4.9766   -2.5142 O   0  0  0  0  0  0  0  0  0  0  0  0
   43.8377   -3.9984   -2.8535 C   0  0  0  0  0  0  0  0  0  0  0  0
   44.1846   -2.6642   -2.9027 C   0  0  0  0  0  0  0  0  0  0  0  0
   43.2514   -1.7031   -3.2412 C   0  0  0  0  0  0  0  0  0  0  0  0
   41.9427   -2.0204   -3.5436 C   0  0  0  0  0  0  0  0  0  0  0  0
   40.9604   -0.9631   -3.9047 C   0  0  0  0  0  0  0  0  0  0  0  0
   40.8803   -0.9501   -5.4353 C   0  0  2  0  0  0  0  0  0  0  0  0
   42.1612   -0.5669   -5.9436 N   0  0  0  0  0  0  0  0  0  0  0  0
   39.7885   -0.0539   -5.8944 C   0  0  0  0  0  0  0  0  0  0  0  0
   39.9398    1.1939   -5.8753 O   0  0  0  0  0  0  0  0  0  0  0  0
   41.5928   -3.3542   -3.4953 C   0  0  0  0  0  0  0  0  0  0  0  0
   42.5287   -4.3109   -3.1565 C   0  0  0  0  0  0  0  0  0  0  0  0
   36.1936    1.0113   -8.8419 C   0  0  0  0  0  0  0  0  0  0  0  0
   37.2675    0.0634   -8.3298 C   0  0  1  0  0  0  0  0  0  0  0  0
   38.4181    0.2662   -9.0740 O   0  0  0  0  0  0  0  0  0  0  0  0
   37.5061    0.3156   -6.8438 C   0  0  2  0  0  0  0  0  0  0  0  0
   38.5606   -0.5769   -6.3612 N   0  0  0  0  0  0  0  0  0  0  0  0
   36.2542    0.1015   -6.0834 C   0  0  0  0  0  0  0  0  0  0  0  0
   35.9428   -1.0262   -5.6082 O   0  0  0  0  0  0  0  0  0  0  0  0
   30.6570   -0.0741    0.2946 O   0  0  0  0  0  0  0  0  0  0  0  0
   31.6491    0.1434   -0.6582 C   0  0  0  0  0  0  0  0  0  0  0  0
   32.2127    1.3809   -0.8607 C   0  0  0  0  0  0  0  0  0  0  0  0
   33.1979    1.5949   -1.8074 C   0  0  0  0  0  0  0  0  0  0  0  0
   33.6564    0.5568   -2.5943 C   0  0  0  0  0  0  0  0  0  0  0  0
   34.6945    0.7311   -3.6141 C   0  0  0  0  0  0  0  0  0  0  0  0
   34.1598    0.9233   -5.0154 C   0  0  2  0  0  0  0  0  0  0  0  0
   35.3478    1.1529   -5.8526 N   0  0  0  0  0  0  0  0  0  0  0  0
   33.2318    2.0562   -5.0915 C   0  0  0  0  0  0  0  0  0  0  0  0
   33.6832    3.1945   -5.3910 O   0  0  0  0  0  0  0  0  0  0  0  0
   33.0903   -0.7029   -2.3958 C   0  0  0  0  0  0  0  0  0  0  0  0
   32.1160   -0.8874   -1.4512 C   0  0  0  0  0  0  0  0  0  0  0  0
   31.8761    1.9238   -4.8472 O   0  0  0  0  0  0  0  0  0  0  0  0
  1  2  1  0
  2  3  2  0
  3  4  1  0
  5  6  1  0
  5  4  2  0
  7  8  1  6
  7  6  1  0
  9  7  1  0
  9 10  2  0
 11  5  1  0
 12 11  2  0
 12  2  1  0
 14 13  1  6
 14 15  1  0
 14 16  1  0
 16 17  1  1
 16 18  1  0
 17  9  1  0
 18 19  2  0
 18 27  1  0
 20 21  1  0
 21 31  2  0
 21 22  1  0
 22 23  2  0
 23 24  1  0
 24 25  1  0
 26 25  1  1
 26 28  1  0
 27 26  1  0
 28 29  2  0
 28 32  1  0
 30 24  2  0
 31 30  1  0
M  END
$$$$
