YTY.pdb
     RDKit          3D

 32 33  0  0  1  0  0  0  0  0999 V2000
   28.7526  -27.3082  -22.6085 O   0  0  0  0  0  0  0  0  0  0  0  0
   28.8170  -26.3863  -21.5684 C   0  0  0  0  0  0  0  0  0  0  0  0
   27.6738  -25.8832  -20.9828 C   0  0  0  0  0  0  0  0  0  0  0  0
   27.7523  -24.9681  -19.9505 C   0  0  0  0  0  0  0  0  0  0  0  0
   28.9589  -24.5149  -19.4571 C   0  0  0  0  0  0  0  0  0  0  0  0
   29.0115  -23.5289  -18.3443 C   0  0  0  0  0  0  0  0  0  0  0  0
   28.7523  -22.1542  -18.9705 C   0  0  2  0  0  0  0  0  0  0  0  0
   29.9559  -21.7249  -19.6131 N   0  0  0  0  0  0  0  0  0  0  0  0
   28.2752  -21.1932  -17.9435 C   0  0  0  0  0  0  0  0  0  0  0  0
   29.0945  -20.4799  -17.3109 O   0  0  0  0  0  0  0  0  0  0  0  0
   30.1041  -25.0164  -20.0409 C   0  0  0  0  0  0  0  0  0  0  0  0
   30.0206  -25.9306  -21.0721 C   0  0  0  0  0  0  0  0  0  0  0  0
   26.2213  -18.3132  -18.5101 C   0  0  0  0  0  0  0  0  0  0  0  0
   25.4699  -19.0892  -17.4390 C   0  0  1  0  0  0  0  0  0  0  0  0
   24.4360  -19.7816  -18.0478 O   0  0  0  0  0  0  0  0  0  0  0  0
   26.4316  -20.0307  -16.7199 C   0  0  2  0  0  0  0  0  0  0  0  0
   26.8981  -21.0568  -17.6530 N   0  0  0  0  0  0  0  0  0  0  0  0
   25.7610  -20.6519  -15.5556 C   0  0  0  0  0  0  0  0  0  0  0  0
   25.3007  -21.8271  -15.5951 O   0  0  0  0  0  0  0  0  0  0  0  0
   22.5861  -21.3781   -7.2617 O   0  0  0  0  0  0  0  0  0  0  0  0
   23.2639  -20.9989   -8.4176 C   0  0  0  0  0  0  0  0  0  0  0  0
   24.5890  -21.3018   -8.6235 C   0  0  0  0  0  0  0  0  0  0  0  0
   25.2604  -20.9243   -9.7722 C   0  0  0  0  0  0  0  0  0  0  0  0
   24.6128  -20.2189  -10.7673 C   0  0  0  0  0  0  0  0  0  0  0  0
   25.2790  -19.7914  -12.0007 C   0  0  0  0  0  0  0  0  0  0  0  0
   24.8861  -20.5880  -13.2246 C   0  0  2  0  0  0  0  0  0  0  0  0
   25.6056  -19.9565  -14.3420 N   0  0  0  0  0  0  0  0  0  0  0  0
   23.4368  -20.5624  -13.4465 C   0  0  0  0  0  0  0  0  0  0  0  0
   22.9330  -19.5901  -14.0710 O   0  0  0  0  0  0  0  0  0  0  0  0
   23.2676  -19.9070  -10.5671 C   0  0  0  0  0  0  0  0  0  0  0  0
   22.6266  -20.2931   -9.4202 C   0  0  0  0  0  0  0  0  0  0  0  0
   22.5985  -21.5672  -12.9962 O   0  0  0  0  0  0  0  0  0  0  0  0
  1  2  1  0
  2  3  2  0
  3  4  1  0
  5  6  1  0
  5  4  2  0
  7  8  1  1
  7  6  1  0
  9  7  1  0
  9 10  2  0
 11  5  1  0
 12 11  2  0
 12  2  1  0
 14 13  1  6
 14 15  1  0
 14 16  1  0
 16 17  1  6
 16 18  1  0
 17  9  1  0
 18 19  2  0
 18 27  1  0
 20 21  1  0
 21 31  2  0
 21 22  1  0
 22 23  2  0
 23 24  1  0
 24 25  1  0
 26 25  1  1
 26 28  1  0
 27 26  1  0
 28 29  2  0
 28 32  1  0
 30 24  2  0
 31 30  1  0
M  END
$$$$
