YTY.pdb
     RDKit          3D

 32 33  0  0  1  0  0  0  0  0999 V2000
   18.7971  -17.3854  -14.4540 O   0  0  0  0  0  0  0  0  0  0  0  0
   19.6703  -18.4590  -14.3097 C   0  0  0  0  0  0  0  0  0  0  0  0
   20.6544  -18.4595  -13.3430 C   0  0  0  0  0  0  0  0  0  0  0  0
   21.5149  -19.5325  -13.2108 C   0  0  0  0  0  0  0  0  0  0  0  0
   21.4380  -20.6441  -14.0253 C   0  0  0  0  0  0  0  0  0  0  0  0
   22.3788  -21.7843  -13.8586 C   0  0  0  0  0  0  0  0  0  0  0  0
   23.5874  -21.4833  -14.7520 C   0  0  2  0  0  0  0  0  0  0  0  0
   23.4406  -22.2292  -15.9636 N   0  0  0  0  0  0  0  0  0  0  0  0
   24.8539  -21.7891  -14.0391 C   0  0  0  0  0  0  0  0  0  0  0  0
   25.4281  -22.8944  -14.2087 O   0  0  0  0  0  0  0  0  0  0  0  0
   20.4546  -20.6463  -14.9931 C   0  0  0  0  0  0  0  0  0  0  0  0
   19.5971  -19.5719  -15.1215 C   0  0  0  0  0  0  0  0  0  0  0  0
   28.1440  -20.2462  -14.2269 C   0  0  0  0  0  0  0  0  0  0  0  0
   27.7397  -20.1292  -12.7651 C   0  0  1  0  0  0  0  0  0  0  0  0
   27.2747  -18.8433  -12.5437 O   0  0  0  0  0  0  0  0  0  0  0  0
   26.6769  -21.1757  -12.4429 C   0  0  2  0  0  0  0  0  0  0  0  0
   25.4419  -20.8523  -13.1582 N   0  0  0  0  0  0  0  0  0  0  0  0
   26.4357  -21.2240  -10.9832 C   0  0  0  0  0  0  0  0  0  0  0  0
   25.2837  -21.0742  -10.4884 O   0  0  0  0  0  0  0  0  0  0  0  0
   28.6753  -19.6423   -2.5416 O   0  0  0  0  0  0  0  0  0  0  0  0
   28.6697  -19.9772   -3.8934 C   0  0  0  0  0  0  0  0  0  0  0  0
   28.8263  -21.2718   -4.3289 C   0  0  0  0  0  0  0  0  0  0  0  0
   28.8205  -21.6024   -5.6717 C   0  0  0  0  0  0  0  0  0  0  0  0
   28.6548  -20.6283   -6.6365 C   0  0  0  0  0  0  0  0  0  0  0  0
   28.6455  -20.9248   -8.0718 C   0  0  0  0  0  0  0  0  0  0  0  0
   27.2714  -21.2058   -8.6371 C   0  0  2  0  0  0  0  0  0  0  0  0
   27.4870  -21.4419  -10.0733 N   0  0  0  0  0  0  0  0  0  0  0  0
   26.3541  -20.0831   -8.4171 C   0  0  0  0  0  0  0  0  0  0  0  0
   26.5979  -18.9789   -8.9745 O   0  0  0  0  0  0  0  0  0  0  0  0
   28.4950  -19.3114   -6.2040 C   0  0  0  0  0  0  0  0  0  0  0  0
   28.5045  -19.0114   -4.8678 C   0  0  0  0  0  0  0  0  0  0  0  0
   25.2280  -20.1889   -7.6199 O   0  0  0  0  0  0  0  0  0  0  0  0
  1  2  1  0
  2  3  2  0
  3  4  1  0
  5  6  1  0
  5  4  2  0
  7  8  1  6
  7  6  1  0
  9  7  1  0
  9 10  2  0
 11  5  1  0
 12 11  2  0
 12  2  1  0
 14 13  1  6
 14 15  1  0
 14 16  1  0
 16 17  1  6
 16 18  1  0
 17  9  1  0
 18 19  2  0
 18 27  1  0
 20 21  1  0
 21 31  2  0
 21 22  1  0
 22 23  2  0
 23 24  1  0
 24 25  1  0
 26 25  1  1
 26 28  1  0
 27 26  1  0
 28 29  2  0
 28 32  1  0
 30 24  2  0
 31 30  1  0
M  END
$$$$
