YTY.pdb
     RDKit          3D

 32 33  0  0  1  0  0  0  0  0999 V2000
   24.3217  -33.9988  -24.6503 O   0  0  0  0  0  0  0  0  0  0  0  0
   24.6578  -33.4147  -23.4330 C   0  0  0  0  0  0  0  0  0  0  0  0
   24.4484  -32.0715  -23.1987 C   0  0  0  0  0  0  0  0  0  0  0  0
   24.7869  -31.5044  -21.9851 C   0  0  0  0  0  0  0  0  0  0  0  0
   25.3439  -32.2388  -20.9578 C   0  0  0  0  0  0  0  0  0  0  0  0
   25.6979  -31.6000  -19.6618 C   0  0  0  0  0  0  0  0  0  0  0  0
   24.4044  -30.9881  -19.1123 C   0  0  2  0  0  0  0  0  0  0  0  0
   24.5007  -29.5659  -19.2308 N   0  0  0  0  0  0  0  0  0  0  0  0
   24.1673  -31.4334  -17.7154 C   0  0  0  0  0  0  0  0  0  0  0  0
   24.3750  -30.6500  -16.7545 O   0  0  0  0  0  0  0  0  0  0  0  0
   25.5545  -33.5826  -21.1893 C   0  0  0  0  0  0  0  0  0  0  0  0
   25.2147  -34.1448  -22.4036 C   0  0  0  0  0  0  0  0  0  0  0  0
   22.1216  -34.6665  -14.5947 C   0  0  0  0  0  0  0  0  0  0  0  0
   22.3257  -34.1734  -16.0191 C   0  0  1  0  0  0  0  0  0  0  0  0
   21.1375  -33.6149  -16.4609 O   0  0  0  0  0  0  0  0  0  0  0  0
   23.4692  -33.1634  -16.0520 C   0  0  2  0  0  0  0  0  0  0  0  0
   23.7055  -32.7395  -17.4325 N   0  0  0  0  0  0  0  0  0  0  0  0
   24.6938  -33.7617  -15.4742 C   0  0  0  0  0  0  0  0  0  0  0  0
   25.3844  -34.6129  -16.1009 O   0  0  0  0  0  0  0  0  0  0  0  0
   29.6782  -30.9679  -18.3347 O   0  0  0  0  0  0  0  0  0  0  0  0
   29.0893  -31.3991  -17.1486 C   0  0  0  0  0  0  0  0  0  0  0  0
   28.1082  -30.6764  -16.5120 C   0  0  0  0  0  0  0  0  0  0  0  0
   27.5246  -31.1062  -15.3342 C   0  0  0  0  0  0  0  0  0  0  0  0
   27.9134  -32.2946  -14.7478 C   0  0  0  0  0  0  0  0  0  0  0  0
   27.3303  -32.7926  -13.4988 C   0  0  0  0  0  0  0  0  0  0  0  0
   26.4038  -33.9744  -13.6760 C   0  0  2  0  0  0  0  0  0  0  0  0
   25.1483  -33.4054  -14.1908 N   0  0  0  0  0  0  0  0  0  0  0  0
   26.1836  -34.6856  -12.4126 C   0  0  0  0  0  0  0  0  0  0  0  0
   25.0294  -34.6841  -11.9057 O   0  0  0  0  0  0  0  0  0  0  0  0
   28.9085  -33.0350  -15.3869 C   0  0  0  0  0  0  0  0  0  0  0  0
   29.4698  -32.5863  -16.5527 C   0  0  0  0  0  0  0  0  0  0  0  0
   27.1962  -35.3607  -11.7538 O   0  0  0  0  0  0  0  0  0  0  0  0
  1  2  1  0
  2  3  2  0
  3  4  1  0
  5  6  1  0
  5  4  2  0
  7  8  1  1
  7  6  1  0
  9  7  1  0
  9 10  2  0
 11  5  1  0
 12 11  2  0
 12  2  1  0
 14 13  1  1
 14 15  1  0
 14 16  1  0
 16 17  1  6
 16 18  1  0
 17  9  1  0
 18 19  2  0
 18 27  1  0
 20 21  1  0
 21 31  2  0
 21 22  1  0
 22 23  2  0
 23 24  1  0
 24 25  1  0
 26 25  1  1
 26 28  1  0
 27 26  1  0
 28 29  2  0
 28 32  1  0
 30 24  2  0
 31 30  1  0
M  END
$$$$
