YTY.pdb
     RDKit          3D

 32 33  0  0  1  0  0  0  0  0999 V2000
   15.4415   -4.9266  -16.4416 O   0  0  0  0  0  0  0  0  0  0  0  0
   15.3554   -3.7564  -17.1892 C   0  0  0  0  0  0  0  0  0  0  0  0
   15.0569   -2.5465  -16.5976 C   0  0  0  0  0  0  0  0  0  0  0  0
   14.9746   -1.3918  -17.3521 C   0  0  0  0  0  0  0  0  0  0  0  0
   15.1830   -1.3861  -18.7164 C   0  0  0  0  0  0  0  0  0  0  0  0
   15.0875   -0.1266  -19.5021 C   0  0  0  0  0  0  0  0  0  0  0  0
   16.4511    0.5633  -19.3830 C   0  0  2  0  0  0  0  0  0  0  0  0
   16.3288    1.8839  -19.9188 N   0  0  0  0  0  0  0  0  0  0  0  0
   17.5029   -0.2366  -20.0610 C   0  0  0  0  0  0  0  0  0  0  0  0
   17.4406   -0.4504  -21.2982 O   0  0  0  0  0  0  0  0  0  0  0  0
   15.4818   -2.5949  -19.3109 C   0  0  0  0  0  0  0  0  0  0  0  0
   15.5629   -3.7459  -18.5529 C   0  0  0  0  0  0  0  0  0  0  0  0
   21.2710    0.1601  -20.3066 C   0  0  0  0  0  0  0  0  0  0  0  0
   20.9821   -1.1746  -19.6363 C   0  0  1  0  0  0  0  0  0  0  0  0
   21.1308   -1.0159  -18.2683 O   0  0  0  0  0  0  0  0  0  0  0  0
   19.5735   -1.6353  -20.0000 C   0  0  2  0  0  0  0  0  0  0  0  0
   18.5929   -0.7740  -19.3382 N   0  0  0  0  0  0  0  0  0  0  0  0
   19.3803   -3.0473  -19.5998 C   0  0  0  0  0  0  0  0  0  0  0  0
   19.0587   -3.3728  -18.4229 O   0  0  0  0  0  0  0  0  0  0  0  0
   18.5447  -11.8667  -20.3825 O   0  0  0  0  0  0  0  0  0  0  0  0
   18.6675  -10.4972  -20.6039 C   0  0  0  0  0  0  0  0  0  0  0  0
   19.8537   -9.9205  -20.9920 C   0  0  0  0  0  0  0  0  0  0  0  0
   19.9736   -8.5604  -21.2113 C   0  0  0  0  0  0  0  0  0  0  0  0
   18.8892   -7.7215  -21.0454 C   0  0  0  0  0  0  0  0  0  0  0  0
   18.9642   -6.2737  -21.2605 C   0  0  0  0  0  0  0  0  0  0  0  0
   19.4521   -5.4939  -20.0602 C   0  0  2  0  0  0  0  0  0  0  0  0
   19.5463   -4.0993  -20.5198 N   0  0  0  0  0  0  0  0  0  0  0  0
   20.7504   -5.9837  -19.5861 C   0  0  0  0  0  0  0  0  0  0  0  0
   21.8012   -5.5501  -20.1311 O   0  0  0  0  0  0  0  0  0  0  0  0
   17.6811   -8.2978  -20.6517 C   0  0  0  0  0  0  0  0  0  0  0  0
   17.5896   -9.6480  -20.4413 C   0  0  0  0  0  0  0  0  0  0  0  0
   20.8673   -6.9054  -18.5605 O   0  0  0  0  0  0  0  0  0  0  0  0
  1  2  1  0
  2  3  2  0
  3  4  1  0
  5  6  1  0
  5  4  2  0
  7  8  1  6
  7  6  1  0
  9  7  1  0
  9 10  2  0
 11  5  1  0
 12 11  2  0
 12  2  1  0
 14 13  1  6
 14 15  1  0
 14 16  1  0
 16 17  1  1
 16 18  1  0
 17  9  1  0
 18 19  2  0
 18 27  1  0
 20 21  1  0
 21 31  2  0
 21 22  1  0
 22 23  2  0
 23 24  1  0
 24 25  1  0
 26 25  1  6
 26 28  1  0
 27 26  1  0
 28 29  2  0
 28 32  1  0
 30 24  2  0
 31 30  1  0
M  END
$$$$
