YTY.pdb
     RDKit          3D

 32 33  0  0  1  0  0  0  0  0999 V2000
   30.1715  -14.9116  -22.6771 O   0  0  0  0  0  0  0  0  0  0  0  0
   29.0367  -14.2532  -22.2138 C   0  0  0  0  0  0  0  0  0  0  0  0
   27.7791  -14.8012  -22.3585 C   0  0  0  0  0  0  0  0  0  0  0  0
   26.6605  -14.1363  -21.8937 C   0  0  0  0  0  0  0  0  0  0  0  0
   26.7392  -12.9079  -21.2695 C   0  0  0  0  0  0  0  0  0  0  0  0
   25.5167  -12.2163  -20.7794 C   0  0  0  0  0  0  0  0  0  0  0  0
   25.2775  -12.7184  -19.3511 C   0  0  2  0  0  0  0  0  0  0  0  0
   25.0384  -14.1274  -19.4101 N   0  0  0  0  0  0  0  0  0  0  0  0
   24.1621  -11.9726  -18.7144 C   0  0  0  0  0  0  0  0  0  0  0  0
   22.9979  -12.4469  -18.7153 O   0  0  0  0  0  0  0  0  0  0  0  0
   27.9959  -12.3574  -21.1233 C   0  0  0  0  0  0  0  0  0  0  0  0
   29.1106  -13.0254  -21.5894 C   0  0  0  0  0  0  0  0  0  0  0  0
   24.1840  -11.1994  -15.3041 C   0  0  0  0  0  0  0  0  0  0  0  0
   22.9397  -10.9254  -16.1352 C   0  0  1  0  0  0  0  0  0  0  0  0
   22.0060  -10.2978  -15.3271 O   0  0  0  0  0  0  0  0  0  0  0  0
   23.3089  -10.0664  -17.3412 C   0  0  2  0  0  0  0  0  0  0  0  0
   24.3790  -10.7198  -18.0957 N   0  0  0  0  0  0  0  0  0  0  0  0
   23.7329   -8.7196  -16.8965 C   0  0  0  0  0  0  0  0  0  0  0  0
   24.9069   -8.4844  -16.4956 O   0  0  0  0  0  0  0  0  0  0  0  0
   24.1118    0.0896  -16.5453 O   0  0  0  0  0  0  0  0  0  0  0  0
   23.7753   -1.2417  -16.7775 C   0  0  0  0  0  0  0  0  0  0  0  0
   22.6292   -1.8075  -16.2712 C   0  0  0  0  0  0  0  0  0  0  0  0
   22.2967   -3.1297  -16.5029 C   0  0  0  0  0  0  0  0  0  0  0  0
   23.1176   -3.9400  -17.2625 C   0  0  0  0  0  0  0  0  0  0  0  0
   22.8137   -5.3478  -17.5339 C   0  0  0  0  0  0  0  0  0  0  0  0
   23.3048   -6.3035  -16.4699 C   0  0  2  0  0  0  0  0  0  0  0  0
   22.8405   -7.6314  -16.9014 N   0  0  0  0  0  0  0  0  0  0  0  0
   22.7738   -5.9615  -15.1465 C   0  0  0  0  0  0  0  0  0  0  0  0
   21.6959   -6.4934  -14.7663 O   0  0  0  0  0  0  0  0  0  0  0  0
   24.2831   -3.3745  -17.7806 C   0  0  0  0  0  0  0  0  0  0  0  0
   24.5885   -2.0621  -17.5359 C   0  0  0  0  0  0  0  0  0  0  0  0
   23.4120   -5.0756  -14.2961 O   0  0  0  0  0  0  0  0  0  0  0  0
  1  2  1  0
  2  3  2  0
  3  4  1  0
  5  6  1  0
  5  4  2  0
  7  8  1  6
  7  6  1  0
  9  7  1  0
  9 10  2  0
 11  5  1  0
 12 11  2  0
 12  2  1  0
 14 13  1  1
 14 15  1  0
 14 16  1  0
 16 17  1  1
 16 18  1  0
 17  9  1  0
 18 19  2  0
 18 27  1  0
 20 21  1  0
 21 31  2  0
 21 22  1  0
 22 23  2  0
 23 24  1  0
 24 25  1  0
 26 25  1  6
 26 28  1  0
 27 26  1  0
 28 29  2  0
 28 32  1  0
 30 24  2  0
 31 30  1  0
M  END
$$$$
