EQL.pdb
     RDKit          3D

 27 26  0  0  1  0  0  0  0  0999 V2000
   28.5633  -21.8510  -16.0430 N   0  0  0  0  0  0  0  0  0  0  0  0
   28.6069  -20.3782  -15.8044 C   0  0  1  0  0  0  0  0  0  0  0  0
   28.1678  -19.7326  -17.0977 C   0  0  0  0  0  0  0  0  0  0  0  0
   28.0195  -18.2562  -17.0727 C   0  0  0  0  0  0  0  0  0  0  0  0
   27.4933  -17.6899  -18.3275 C   0  0  0  0  0  0  0  0  0  0  0  0
   26.2780  -17.5404  -18.5875 O   0  0  0  0  0  0  0  0  0  0  0  0
   27.5559  -20.0970  -14.7664 C   0  0  0  0  0  0  0  0  0  0  0  0
   27.4200  -18.8893  -14.4147 O   0  0  0  0  0  0  0  0  0  0  0  0
   28.4295  -17.2854  -19.3083 O   0  0  0  0  0  0  0  0  0  0  0  0
   23.5370  -25.0113  -13.3170 N   0  0  0  0  0  0  0  0  0  0  0  0
   23.2785  -23.6211  -13.5078 C   0  0  0  0  0  0  0  0  0  0  0  0
   22.1707  -23.1973  -13.1705 O   0  0  0  0  0  0  0  0  0  0  0  0
   24.3400  -22.7332  -14.0985 C   0  0  0  0  0  0  0  0  0  0  0  0
   24.3519  -21.3868  -13.4725 C   0  0  0  0  0  0  0  0  0  0  0  0
   25.7105  -20.8121  -13.1739 C   0  0  2  0  0  0  0  0  0  0  0  0
   26.7210  -21.0384  -14.1609 N   0  0  0  0  0  0  0  0  0  0  0  0
   26.0800  -21.0770  -11.7843 C   0  0  0  0  0  0  0  0  0  0  0  0
   26.7309  -22.1512  -11.5808 O   0  0  0  0  0  0  0  0  0  0  0  0
   26.9054  -20.7478   -6.5684 C   0  0  0  0  0  0  0  0  0  0  0  0
   27.5065  -19.6435   -7.3975 C   0  0  2  0  0  0  0  0  0  0  0  0
   27.6239  -18.3258   -6.6801 C   0  0  0  0  0  0  0  0  0  0  0  0
   27.0067  -19.5559   -8.7809 C   0  0  0  0  0  0  0  0  0  0  0  0
   26.0699  -20.5576   -9.2968 C   0  0  2  0  0  0  0  0  0  0  0  0
   25.7551  -20.2182  -10.6953 N   0  0  0  0  0  0  0  0  0  0  0  0
   24.8407  -20.8402   -8.5849 C   0  0  0  0  0  0  0  0  0  0  0  0
   23.6502  -20.2120   -8.9997 O   0  0  0  0  0  0  0  0  0  0  0  0
   24.6712  -21.6027   -7.6023 O   0  0  0  0  0  0  0  0  0  0  0  0
  2  1  1  6
  3  2  1  0
  3  4  1  0
  5  6  2  0
  5  4  1  0
  7  8  2  0
  7  2  1  0
  9  5  1  0
 10 11  1  0
 11 12  2  0
 11 13  1  0
 13 14  1  0
 15 14  1  6
 15 16  1  0
 16  7  1  0
 17 18  2  0
 17 15  1  0
 20 22  1  0
 20 19  1  1
 21 20  1  0
 23 24  1  0
 23 22  1  1
 24 17  1  0
 25 23  1  0
 26 25  1  0
 27 25  2  0
M  END
$$$$
