EQL.pdb
     RDKit          3D

 27 26  0  0  1  0  0  0  0  0999 V2000
   26.4789  -17.1557  -17.6940 N   0  0  0  0  0  0  0  0  0  0  0  0
   27.1038  -18.4065  -17.1714 C   0  0  1  0  0  0  0  0  0  0  0  0
   28.3487  -17.9742  -16.4328 C   0  0  0  0  0  0  0  0  0  0  0  0
   29.5031  -17.5769  -17.2764 C   0  0  0  0  0  0  0  0  0  0  0  0
   29.7198  -18.4549  -18.4400 C   0  0  0  0  0  0  0  0  0  0  0  0
   29.7699  -18.0642  -19.6282 O   0  0  0  0  0  0  0  0  0  0  0  0
   26.1361  -18.9610  -16.1627 C   0  0  0  0  0  0  0  0  0  0  0  0
   25.4886  -18.1160  -15.4792 O   0  0  0  0  0  0  0  0  0  0  0  0
   29.8838  -19.8391  -18.1962 O   0  0  0  0  0  0  0  0  0  0  0  0
   24.6166  -24.7048  -14.8653 N   0  0  0  0  0  0  0  0  0  0  0  0
   23.5437  -24.0774  -14.1643 C   0  0  0  0  0  0  0  0  0  0  0  0
   22.8934  -24.7726  -13.3805 O   0  0  0  0  0  0  0  0  0  0  0  0
   23.2457  -22.6206  -14.3940 C   0  0  0  0  0  0  0  0  0  0  0  0
   24.1450  -22.0219  -15.4126 C   0  0  0  0  0  0  0  0  0  0  0  0
   25.0043  -20.8795  -14.9416 C   0  0  2  0  0  0  0  0  0  0  0  0
   25.8868  -20.3123  -15.9142 N   0  0  0  0  0  0  0  0  0  0  0  0
   25.5794  -21.1827  -13.6320 C   0  0  0  0  0  0  0  0  0  0  0  0
   26.6298  -21.9006  -13.6426 O   0  0  0  0  0  0  0  0  0  0  0  0
   27.5253  -19.3171   -8.5673 C   0  0  0  0  0  0  0  0  0  0  0  0
   27.3972  -20.5264   -9.4558 C   0  0  2  0  0  0  0  0  0  0  0  0
   28.6609  -21.3330   -9.5879 C   0  0  0  0  0  0  0  0  0  0  0  0
   26.6674  -20.3031  -10.7162 C   0  0  0  0  0  0  0  0  0  0  0  0
   25.5494  -21.1731  -11.0911 C   0  0  2  0  0  0  0  0  0  0  0  0
   25.0349  -20.7267  -12.3972 N   0  0  0  0  0  0  0  0  0  0  0  0
   24.4397  -21.3662  -10.1806 C   0  0  0  0  0  0  0  0  0  0  0  0
   24.5690  -22.2986   -9.1328 O   0  0  0  0  0  0  0  0  0  0  0  0
   23.3221  -20.7946  -10.1877 O   0  0  0  0  0  0  0  0  0  0  0  0
  2  1  1  1
  3  2  1  0
  3  4  1  0
  5  6  2  0
  5  4  1  0
  7  8  2  0
  7  2  1  0
  9  5  1  0
 10 11  1  0
 11 12  2  0
 11 13  1  0
 13 14  1  0
 15 14  1  6
 15 16  1  0
 16  7  1  0
 17 18  2  0
 17 15  1  0
 20 22  1  0
 20 19  1  6
 21 20  1  0
 23 24  1  0
 23 22  1  1
 24 17  1  0
 25 23  1  0
 26 25  1  0
 27 25  2  0
M  END
$$$$
