EQL.pdb
     RDKit          3D

 27 26  0  0  1  0  0  0  0  0999 V2000
   16.0827  -20.8835    2.2375 N   0  0  0  0  0  0  0  0  0  0  0  0
   15.5502  -20.6215    3.6071 C   0  0  1  0  0  0  0  0  0  0  0  0
   16.5403  -21.2406    4.5655 C   0  0  0  0  0  0  0  0  0  0  0  0
   16.5377  -22.7227    4.6395 C   0  0  0  0  0  0  0  0  0  0  0  0
   17.6065  -23.3596    3.8498 C   0  0  0  0  0  0  0  0  0  0  0  0
   18.4273  -22.7431    3.1334 O   0  0  0  0  0  0  0  0  0  0  0  0
   15.5991  -19.1297    3.7905 C   0  0  0  0  0  0  0  0  0  0  0  0
   16.3780  -18.4929    3.0235 O   0  0  0  0  0  0  0  0  0  0  0  0
   17.7131  -24.7695    3.9062 O   0  0  0  0  0  0  0  0  0  0  0  0
   11.3512  -15.3054    6.7570 N   0  0  0  0  0  0  0  0  0  0  0  0
   11.2068  -15.7158    5.3980 C   0  0  0  0  0  0  0  0  0  0  0  0
   10.1008  -15.5666    4.8737 O   0  0  0  0  0  0  0  0  0  0  0  0
   12.3803  -16.3021    4.6611 C   0  0  0  0  0  0  0  0  0  0  0  0
   13.5829  -16.4110    5.5253 C   0  0  0  0  0  0  0  0  0  0  0  0
   14.8176  -16.9660    4.8676 C   0  0  2  0  0  0  0  0  0  0  0  0
   14.8683  -18.3881    4.7210 N   0  0  0  0  0  0  0  0  0  0  0  0
   16.0137  -16.3191    5.4048 C   0  0  0  0  0  0  0  0  0  0  0  0
   16.8126  -17.0768    6.0424 O   0  0  0  0  0  0  0  0  0  0  0  0
   19.2345  -11.1119    4.4868 C   0  0  0  0  0  0  0  0  0  0  0  0
   19.0768  -12.3639    5.3090 C   0  0  2  0  0  0  0  0  0  0  0  0
   20.3581  -13.1202    5.5353 C   0  0  0  0  0  0  0  0  0  0  0  0
   17.9146  -13.1999    4.9603 C   0  0  0  0  0  0  0  0  0  0  0  0
   17.5123  -14.3108    5.8271 C   0  0  2  0  0  0  0  0  0  0  0  0
   16.3088  -14.9341    5.2500 N   0  0  0  0  0  0  0  0  0  0  0  0
   17.3047  -14.0912    7.2435 C   0  0  0  0  0  0  0  0  0  0  0  0
   18.3928  -14.2399    8.1254 O   0  0  0  0  0  0  0  0  0  0  0  0
   16.2428  -13.7704    7.8312 O   0  0  0  0  0  0  0  0  0  0  0  0
  2  1  1  6
  3  2  1  0
  3  4  1  0
  5  6  2  0
  5  4  1  0
  7  8  2  0
  7  2  1  0
  9  5  1  0
 10 11  1  0
 11 12  2  0
 11 13  1  0
 13 14  1  0
 15 14  1  1
 15 16  1  0
 16  7  1  0
 17 18  2  0
 17 15  1  0
 20 22  1  0
 20 19  1  6
 21 20  1  0
 23 24  1  0
 23 22  1  6
 24 17  1  0
 25 23  1  0
 26 25  1  0
 27 25  2  0
M  END
$$$$
