EQL.pdb
     RDKit          3D

 27 26  0  0  1  0  0  0  0  0999 V2000
   27.0042  -23.3764  -17.8114 N   0  0  0  0  0  0  0  0  0  0  0  0
   25.9090  -23.5528  -16.8126 C   0  0  1  0  0  0  0  0  0  0  0  0
   26.1052  -24.9269  -16.2163 C   0  0  0  0  0  0  0  0  0  0  0  0
   24.9319  -25.5093  -15.5189 C   0  0  0  0  0  0  0  0  0  0  0  0
   24.0151  -26.2437  -16.4089 C   0  0  0  0  0  0  0  0  0  0  0  0
   24.2084  -27.4074  -16.8279 O   0  0  0  0  0  0  0  0  0  0  0  0
   26.1676  -22.5384  -15.7331 C   0  0  0  0  0  0  0  0  0  0  0  0
   27.3696  -22.4045  -15.3618 O   0  0  0  0  0  0  0  0  0  0  0  0
   22.8309  -25.5863  -16.8185 O   0  0  0  0  0  0  0  0  0  0  0  0
   27.2427  -18.0981  -14.4224 N   0  0  0  0  0  0  0  0  0  0  0  0
   26.4826  -18.1219  -15.6298 C   0  0  0  0  0  0  0  0  0  0  0  0
   26.9887  -17.6089  -16.6303 O   0  0  0  0  0  0  0  0  0  0  0  0
   25.1195  -18.7589  -15.6475 C   0  0  0  0  0  0  0  0  0  0  0  0
   24.7874  -19.4001  -14.3500 C   0  0  0  0  0  0  0  0  0  0  0  0
   25.4187  -20.7432  -14.0993 C   0  0  2  0  0  0  0  0  0  0  0  0
   25.2109  -21.7353  -15.1089 N   0  0  0  0  0  0  0  0  0  0  0  0
   25.1956  -21.1591  -12.7155 C   0  0  0  0  0  0  0  0  0  0  0  0
   24.1560  -21.8636  -12.5110 O   0  0  0  0  0  0  0  0  0  0  0  0
   25.3574  -20.1458   -7.3811 C   0  0  0  0  0  0  0  0  0  0  0  0
   26.6796  -20.6317   -7.9139 C   0  0  2  0  0  0  0  0  0  0  0  0
   27.8769  -20.1081   -7.1675 C   0  0  0  0  0  0  0  0  0  0  0  0
   26.8068  -20.6173   -9.3818 C   0  0  0  0  0  0  0  0  0  0  0  0
   25.7062  -21.0876  -10.2272 C   0  0  2  0  0  0  0  0  0  0  0  0
   26.0579  -20.8221  -11.6329 N   0  0  0  0  0  0  0  0  0  0  0  0
   24.3528  -20.6354   -9.9792 C   0  0  0  0  0  0  0  0  0  0  0  0
   23.9301  -19.4090  -10.5280 O   0  0  0  0  0  0  0  0  0  0  0  0
   23.4542  -21.2056   -9.3134 O   0  0  0  0  0  0  0  0  0  0  0  0
  2  1  1  6
  3  2  1  0
  3  4  1  0
  5  6  2  0
  5  4  1  0
  7  8  2  0
  7  2  1  0
  9  5  1  0
 10 11  1  0
 11 12  2  0
 11 13  1  0
 13 14  1  0
 15 14  1  6
 15 16  1  0
 16  7  1  0
 17 18  2  0
 17 15  1  0
 20 22  1  0
 20 19  1  6
 21 20  1  0
 23 24  1  0
 23 22  1  1
 24 17  1  0
 25 23  1  0
 26 25  1  0
 27 25  2  0
M  END
$$$$
