EQL.pdb
     RDKit          3D

 27 26  0  0  1  0  0  0  0  0999 V2000
   18.5792  -14.0022  -20.1822 N   0  0  0  0  0  0  0  0  0  0  0  0
   18.0003  -13.7975  -18.8217 C   0  0  1  0  0  0  0  0  0  0  0  0
   18.8294  -14.6430  -17.8836 C   0  0  0  0  0  0  0  0  0  0  0  0
   18.6571  -16.1120  -18.0045 C   0  0  0  0  0  0  0  0  0  0  0  0
   19.5469  -16.8897  -17.1239 C   0  0  0  0  0  0  0  0  0  0  0  0
   20.7640  -17.0898  -17.3376 O   0  0  0  0  0  0  0  0  0  0  0  0
   18.2453  -12.3532  -18.4819 C   0  0  0  0  0  0  0  0  0  0  0  0
   19.2171  -11.7936  -19.0675 O   0  0  0  0  0  0  0  0  0  0  0  0
   18.9850  -17.4495  -15.9520 O   0  0  0  0  0  0  0  0  0  0  0  0
   15.2731   -7.9286  -14.9474 N   0  0  0  0  0  0  0  0  0  0  0  0
   14.7240   -9.2119  -15.2432 C   0  0  0  0  0  0  0  0  0  0  0  0
   13.7246   -9.5619  -14.6115 O   0  0  0  0  0  0  0  0  0  0  0  0
   15.3633  -10.0791  -16.2937 C   0  0  0  0  0  0  0  0  0  0  0  0
   16.4834   -9.3877  -16.9808 C   0  0  0  0  0  0  0  0  0  0  0  0
   17.7192  -10.2132  -17.2185 C   0  0  2  0  0  0  0  0  0  0  0  0
   17.5035  -11.5783  -17.5880 N   0  0  0  0  0  0  0  0  0  0  0  0
   18.7051   -9.9662  -16.1675 C   0  0  0  0  0  0  0  0  0  0  0  0
   18.8644  -10.9079  -15.3268 O   0  0  0  0  0  0  0  0  0  0  0  0
   23.9367  -10.5170  -15.3678 C   0  0  0  0  0  0  0  0  0  0  0  0
   22.8459   -9.7370  -14.6821 C   0  0  2  0  0  0  0  0  0  0  0  0
   22.7276  -10.0064  -13.2062 C   0  0  0  0  0  0  0  0  0  0  0  0
   21.5650   -9.6803  -15.4084 C   0  0  0  0  0  0  0  0  0  0  0  0
   20.5900   -8.6271  -15.1130 C   0  0  2  0  0  0  0  0  0  0  0  0
   19.4627   -8.7654  -16.0511 N   0  0  0  0  0  0  0  0  0  0  0  0
   21.0066   -7.2408  -15.0672 C   0  0  0  0  0  0  0  0  0  0  0  0
   20.8682   -6.4465  -16.2221 O   0  0  0  0  0  0  0  0  0  0  0  0
   21.4976   -6.6100  -14.0992 O   0  0  0  0  0  0  0  0  0  0  0  0
  2  1  1  6
  3  2  1  0
  3  4  1  0
  5  6  2  0
  5  4  1  0
  7  8  2  0
  7  2  1  0
  9  5  1  0
 10 11  1  0
 11 12  2  0
 11 13  1  0
 13 14  1  0
 15 14  1  1
 15 16  1  0
 16  7  1  0
 17 18  2  0
 17 15  1  0
 20 22  1  0
 20 19  1  6
 21 20  1  0
 23 24  1  0
 23 22  1  6
 24 17  1  0
 25 23  1  0
 26 25  1  0
 27 25  2  0
M  END
$$$$
