EQL.pdb
     RDKit          3D

 27 26  0  0  1  0  0  0  0  0999 V2000
   15.9532  -13.9143  -18.6917 N   0  0  0  0  0  0  0  0  0  0  0  0
   15.8725  -13.0362  -17.4873 C   0  0  1  0  0  0  0  0  0  0  0  0
   16.2515  -13.9050  -16.3110 C   0  0  0  0  0  0  0  0  0  0  0  0
   15.2416  -14.9064  -15.8871 C   0  0  0  0  0  0  0  0  0  0  0  0
   15.6669  -15.7325  -14.7431 C   0  0  0  0  0  0  0  0  0  0  0  0
   15.1422  -15.7009  -13.6070 O   0  0  0  0  0  0  0  0  0  0  0  0
   16.9462  -11.9978  -17.6609 C   0  0  0  0  0  0  0  0  0  0  0  0
   18.0353  -12.3929  -18.1691 O   0  0  0  0  0  0  0  0  0  0  0  0
   16.7454  -16.6263  -14.9440 O   0  0  0  0  0  0  0  0  0  0  0  0
   16.0734   -6.0643  -18.9105 N   0  0  0  0  0  0  0  0  0  0  0  0
   16.0070   -6.2677  -17.4998 C   0  0  0  0  0  0  0  0  0  0  0  0
   15.4067   -5.4231  -16.8313 O   0  0  0  0  0  0  0  0  0  0  0  0
   16.6534   -7.4788  -16.8837 C   0  0  0  0  0  0  0  0  0  0  0  0
   17.3969   -8.2838  -17.8857 C   0  0  0  0  0  0  0  0  0  0  0  0
   17.8614   -9.6398  -17.4266 C   0  0  2  0  0  0  0  0  0  0  0  0
   16.8521  -10.6477  -17.3171 N   0  0  0  0  0  0  0  0  0  0  0  0
   18.7803   -9.5065  -16.2972 C   0  0  0  0  0  0  0  0  0  0  0  0
   18.2708   -9.6898  -15.1458 O   0  0  0  0  0  0  0  0  0  0  0  0
   24.6490  -10.5244  -15.0402 C   0  0  0  0  0  0  0  0  0  0  0  0
   23.3666   -9.9019  -14.5540 C   0  0  2  0  0  0  0  0  0  0  0  0
   22.9222  -10.3807  -13.1983 C   0  0  0  0  0  0  0  0  0  0  0  0
   22.2956   -9.8061  -15.5615 C   0  0  0  0  0  0  0  0  0  0  0  0
   21.0620   -9.0723  -15.2664 C   0  0  2  0  0  0  0  0  0  0  0  0
   20.1638   -9.1934  -16.4277 N   0  0  0  0  0  0  0  0  0  0  0  0
   21.1209   -7.6864  -14.8498 C   0  0  0  0  0  0  0  0  0  0  0  0
   21.1082   -6.6762  -15.8312 O   0  0  0  0  0  0  0  0  0  0  0  0
   21.1839   -7.2294  -13.6824 O   0  0  0  0  0  0  0  0  0  0  0  0
  2  1  1  6
  3  2  1  0
  3  4  1  0
  5  6  2  0
  5  4  1  0
  7  8  2  0
  7  2  1  0
  9  5  1  0
 10 11  1  0
 11 12  2  0
 11 13  1  0
 13 14  1  0
 15 14  1  1
 15 16  1  0
 16  7  1  0
 17 18  2  0
 17 15  1  0
 20 22  1  0
 20 19  1  6
 21 20  1  0
 23 24  1  0
 23 22  1  6
 24 17  1  0
 25 23  1  0
 26 25  1  0
 27 25  2  0
M  END
$$$$
