EQL.pdb
     RDKit          3D

 27 26  0  0  1  0  0  0  0  0999 V2000
   27.6620  -21.3318  -14.6968 N   0  0  0  0  0  0  0  0  0  0  0  0
   27.8160  -19.8732  -14.4198 C   0  0  1  0  0  0  0  0  0  0  0  0
   27.1964  -19.1570  -15.5968 C   0  0  0  0  0  0  0  0  0  0  0  0
   26.0661  -19.8513  -16.2620 C   0  0  0  0  0  0  0  0  0  0  0  0
   24.9857  -18.9480  -16.6961 C   0  0  0  0  0  0  0  0  0  0  0  0
   24.9620  -17.7138  -16.4883 O   0  0  0  0  0  0  0  0  0  0  0  0
   26.9700  -19.5915  -13.2089 C   0  0  0  0  0  0  0  0  0  0  0  0
   26.6845  -18.3785  -12.9907 O   0  0  0  0  0  0  0  0  0  0  0  0
   23.8974  -19.5167  -17.3992 O   0  0  0  0  0  0  0  0  0  0  0  0
   21.5994  -21.5885  -11.3478 N   0  0  0  0  0  0  0  0  0  0  0  0
   21.9806  -20.5159  -12.2082 C   0  0  0  0  0  0  0  0  0  0  0  0
   21.1107  -20.0369  -12.9392 O   0  0  0  0  0  0  0  0  0  0  0  0
   23.3979  -20.0106  -12.1972 C   0  0  0  0  0  0  0  0  0  0  0  0
   24.2424  -20.7421  -11.2192 C   0  0  0  0  0  0  0  0  0  0  0  0
   25.6821  -20.3105  -11.1407 C   0  0  2  0  0  0  0  0  0  0  0  0
   26.4727  -20.5383  -12.3110 N   0  0  0  0  0  0  0  0  0  0  0  0
   26.2664  -20.7200   -9.8646 C   0  0  0  0  0  0  0  0  0  0  0  0
   26.9046  -21.8207   -9.8769 O   0  0  0  0  0  0  0  0  0  0  0  0
   29.3087  -21.0166   -5.7040 C   0  0  0  0  0  0  0  0  0  0  0  0
   28.6584  -19.6655   -5.8458 C   0  0  2  0  0  0  0  0  0  0  0  0
   28.0154  -19.1536   -4.5851 C   0  0  0  0  0  0  0  0  0  0  0  0
   27.8603  -19.4800   -7.0705 C   0  0  0  0  0  0  0  0  0  0  0  0
   26.7709  -20.4051   -7.3940 C   0  0  2  0  0  0  0  0  0  0  0  0
   26.1554  -19.9690   -8.6593 N   0  0  0  0  0  0  0  0  0  0  0  0
   25.7300  -20.6727   -6.4231 C   0  0  0  0  0  0  0  0  0  0  0  0
   26.0106  -21.5241   -5.3367 O   0  0  0  0  0  0  0  0  0  0  0  0
   24.5539  -20.2341   -6.4061 O   0  0  0  0  0  0  0  0  0  0  0  0
  2  1  1  6
  3  2  1  0
  3  4  1  0
  5  6  2  0
  5  4  1  0
  7  8  2  0
  7  2  1  0
  9  5  1  0
 10 11  1  0
 11 12  2  0
 11 13  1  0
 13 14  1  0
 15 14  1  6
 15 16  1  0
 16  7  1  0
 17 18  2  0
 17 15  1  0
 20 22  1  0
 20 19  1  1
 21 20  1  0
 23 24  1  0
 23 22  1  1
 24 17  1  0
 25 23  1  0
 26 25  1  0
 27 25  2  0
M  END
$$$$
