EQL.pdb
     RDKit          3D

 27 26  0  0  1  0  0  0  0  0999 V2000
   27.7129  -19.4666  -17.2173 N   0  0  0  0  0  0  0  0  0  0  0  0
   28.2380  -19.1090  -15.8665 C   0  0  1  0  0  0  0  0  0  0  0  0
   28.3862  -17.6057  -15.8607 C   0  0  0  0  0  0  0  0  0  0  0  0
   28.9390  -16.9996  -17.0973 C   0  0  0  0  0  0  0  0  0  0  0  0
   27.9829  -16.1396  -17.8171 C   0  0  0  0  0  0  0  0  0  0  0  0
   26.7955  -15.9480  -17.4701 O   0  0  0  0  0  0  0  0  0  0  0  0
   27.1512  -19.4709  -14.8922 C   0  0  0  0  0  0  0  0  0  0  0  0
   26.1666  -18.6791  -14.8266 O   0  0  0  0  0  0  0  0  0  0  0  0
   28.4404  -15.4828  -18.9840 O   0  0  0  0  0  0  0  0  0  0  0  0
   23.9455  -24.5208  -14.4659 N   0  0  0  0  0  0  0  0  0  0  0  0
   23.3834  -23.7868  -13.3790 C   0  0  0  0  0  0  0  0  0  0  0  0
   22.3311  -24.2074  -12.8931 O   0  0  0  0  0  0  0  0  0  0  0  0
   24.0754  -22.5523  -12.8679 C   0  0  0  0  0  0  0  0  0  0  0  0
   25.2825  -22.2195  -13.6661 C   0  0  0  0  0  0  0  0  0  0  0  0
   26.0720  -21.0265  -13.1986 C   0  0  2  0  0  0  0  0  0  0  0  0
   27.1278  -20.5926  -14.0609 N   0  0  0  0  0  0  0  0  0  0  0  0
   26.3963  -21.1565  -11.7789 C   0  0  0  0  0  0  0  0  0  0  0  0
   27.3854  -21.9084  -11.5047 O   0  0  0  0  0  0  0  0  0  0  0  0
   26.1965  -20.4753   -6.3561 C   0  0  0  0  0  0  0  0  0  0  0  0
   27.1816  -19.8794   -7.3271 C   0  0  2  0  0  0  0  0  0  0  0  0
   27.9126  -18.6725   -6.8035 C   0  0  0  0  0  0  0  0  0  0  0  0
   26.7000  -19.7610   -8.7146 C   0  0  0  0  0  0  0  0  0  0  0  0
   25.8870  -20.8241   -9.3116 C   0  0  2  0  0  0  0  0  0  0  0  0
   25.6808  -20.5035  -10.7346 N   0  0  0  0  0  0  0  0  0  0  0  0
   24.6195  -21.1933   -8.7160 C   0  0  0  0  0  0  0  0  0  0  0  0
   24.6049  -22.1317   -7.6658 O   0  0  0  0  0  0  0  0  0  0  0  0
   23.4727  -20.7778   -9.0128 O   0  0  0  0  0  0  0  0  0  0  0  0
  2  1  1  6
  3  2  1  0
  3  4  1  0
  5  6  2  0
  5  4  1  0
  7  8  2  0
  7  2  1  0
  9  5  1  0
 10 11  1  0
 11 12  2  0
 11 13  1  0
 13 14  1  0
 15 14  1  6
 15 16  1  0
 16  7  1  0
 17 18  2  0
 17 15  1  0
 20 22  1  0
 20 19  1  1
 21 20  1  0
 23 24  1  0
 23 22  1  1
 24 17  1  0
 25 23  1  0
 26 25  1  0
 27 25  2  0
M  END
$$$$
