EQL.pdb
     RDKit          3D

 27 26  0  0  1  0  0  0  0  0999 V2000
   27.1120  -22.6552  -16.6862 N   0  0  0  0  0  0  0  0  0  0  0  0
   27.0387  -21.3603  -15.9473 C   0  0  1  0  0  0  0  0  0  0  0  0
   26.5325  -20.3409  -16.9406 C   0  0  0  0  0  0  0  0  0  0  0  0
   27.5350  -19.8060  -17.8951 C   0  0  0  0  0  0  0  0  0  0  0  0
   27.0184  -18.7301  -18.7597 C   0  0  0  0  0  0  0  0  0  0  0  0
   27.6689  -18.1771  -19.6752 O   0  0  0  0  0  0  0  0  0  0  0  0
   25.9813  -21.5452  -14.8942 C   0  0  0  0  0  0  0  0  0  0  0  0
   24.9610  -22.2130  -15.2312 O   0  0  0  0  0  0  0  0  0  0  0  0
   25.6912  -18.2914  -18.5395 O   0  0  0  0  0  0  0  0  0  0  0  0
   26.2714  -20.4385   -8.5598 N   0  0  0  0  0  0  0  0  0  0  0  0
   24.9441  -20.9282   -8.7454 C   0  0  0  0  0  0  0  0  0  0  0  0
   24.2908  -21.1969   -7.7347 O   0  0  0  0  0  0  0  0  0  0  0  0
   24.3924  -21.0963  -10.1352 C   0  0  0  0  0  0  0  0  0  0  0  0
   25.4253  -20.8644  -11.1764 C   0  0  0  0  0  0  0  0  0  0  0  0
   24.9907  -21.0991  -12.5981 C   0  0  2  0  0  0  0  0  0  0  0  0
   26.0224  -21.0533  -13.5880 N   0  0  0  0  0  0  0  0  0  0  0  0
   23.7707  -20.3470  -12.8871 C   0  0  0  0  0  0  0  0  0  0  0  0
   23.9009  -19.0825  -12.9416 O   0  0  0  0  0  0  0  0  0  0  0  0
   19.3308  -20.1879  -16.6450 C   0  0  0  0  0  0  0  0  0  0  0  0
   20.0370  -19.4426  -15.5431 C   0  0  2  0  0  0  0  0  0  0  0  0
   20.3263  -18.0000  -15.8594 C   0  0  0  0  0  0  0  0  0  0  0  0
   21.1450  -20.1731  -14.9030 C   0  0  0  0  0  0  0  0  0  0  0  0
   21.2987  -20.1610  -13.4457 C   0  0  2  0  0  0  0  0  0  0  0  0
   22.4963  -20.9464  -13.1013 N   0  0  0  0  0  0  0  0  0  0  0  0
   20.1996  -20.5664  -12.5941 C   0  0  0  0  0  0  0  0  0  0  0  0
   19.2608  -19.6003  -12.1827 O   0  0  0  0  0  0  0  0  0  0  0  0
   19.9471  -21.7115  -12.1460 O   0  0  0  0  0  0  0  0  0  0  0  0
  2  1  1  6
  3  2  1  0
  3  4  1  0
  5  6  2  0
  5  4  1  0
  7  8  2  0
  7  2  1  0
  9  5  1  0
 10 11  1  0
 11 12  2  0
 11 13  1  0
 13 14  1  0
 15 14  1  1
 15 16  1  0
 16  7  1  0
 17 18  2  0
 17 15  1  0
 20 22  1  0
 20 19  1  6
 21 20  1  0
 23 24  1  0
 23 22  1  6
 24 17  1  0
 25 23  1  0
 26 25  1  0
 27 25  2  0
M  END
$$$$
