EQL.pdb
     RDKit          3D

 27 26  0  0  1  0  0  0  0  0999 V2000
   26.7496  -19.6609  -17.5227 N   0  0  0  0  0  0  0  0  0  0  0  0
   27.1694  -20.5670  -16.4133 C   0  0  1  0  0  0  0  0  0  0  0  0
   28.6308  -20.2748  -16.1659 C   0  0  0  0  0  0  0  0  0  0  0  0
   29.5922  -20.9288  -17.0879 C   0  0  0  0  0  0  0  0  0  0  0  0
   29.2565  -22.3289  -17.4024 C   0  0  0  0  0  0  0  0  0  0  0  0
   28.9978  -23.2085  -16.5501 O   0  0  0  0  0  0  0  0  0  0  0  0
   26.3969  -20.1220  -15.2022 C   0  0  0  0  0  0  0  0  0  0  0  0
   26.4727  -18.8946  -14.9051 O   0  0  0  0  0  0  0  0  0  0  0  0
   29.2235  -22.7056  -18.7659 O   0  0  0  0  0  0  0  0  0  0  0  0
   20.6376  -21.3450  -13.5076 N   0  0  0  0  0  0  0  0  0  0  0  0
   21.0904  -20.6763  -12.3311 C   0  0  0  0  0  0  0  0  0  0  0  0
   20.2412  -20.3586  -11.4955 O   0  0  0  0  0  0  0  0  0  0  0  0
   22.5557  -20.3875  -12.1475 C   0  0  0  0  0  0  0  0  0  0  0  0
   23.3466  -20.7291  -13.3569 C   0  0  0  0  0  0  0  0  0  0  0  0
   24.8359  -20.5434  -13.2431 C   0  0  2  0  0  0  0  0  0  0  0  0
   25.6081  -20.9321  -14.3828 N   0  0  0  0  0  0  0  0  0  0  0  0
   25.3081  -21.0107  -11.9407 C   0  0  0  0  0  0  0  0  0  0  0  0
   25.3859  -22.2731  -11.8015 O   0  0  0  0  0  0  0  0  0  0  0  0
   27.5072  -18.6308   -6.6790 C   0  0  0  0  0  0  0  0  0  0  0  0
   27.4162  -19.8710   -7.5288 C   0  0  2  0  0  0  0  0  0  0  0  0
   28.6103  -20.7809   -7.4243 C   0  0  0  0  0  0  0  0  0  0  0  0
   26.9156  -19.6567   -8.8980 C   0  0  0  0  0  0  0  0  0  0  0  0
   26.0522  -20.6533   -9.5374 C   0  0  2  0  0  0  0  0  0  0  0  0
   25.6694  -20.1473  -10.8668 N   0  0  0  0  0  0  0  0  0  0  0  0
   24.8725  -21.1411   -8.8533 C   0  0  0  0  0  0  0  0  0  0  0  0
   24.9687  -22.3094   -8.0726 O   0  0  0  0  0  0  0  0  0  0  0  0
   23.7173  -20.6500   -8.8533 O   0  0  0  0  0  0  0  0  0  0  0  0
  2  1  1  6
  3  2  1  0
  3  4  1  0
  5  6  2  0
  5  4  1  0
  7  8  2  0
  7  2  1  0
  9  5  1  0
 10 11  1  0
 11 12  2  0
 11 13  1  0
 13 14  1  0
 15 14  1  6
 15 16  1  0
 16  7  1  0
 17 18  2  0
 17 15  1  0
 20 22  1  0
 20 19  1  6
 21 20  1  0
 23 24  1  0
 23 22  1  1
 24 17  1  0
 25 23  1  0
 26 25  1  0
 27 25  2  0
M  END
$$$$
