EQL.pdb
     RDKit          3D

 27 26  0  0  1  0  0  0  0  0999 V2000
   28.1766  -20.9860  -15.3949 N   0  0  0  0  0  0  0  0  0  0  0  0
   27.3545  -19.8905  -14.8014 C   0  0  1  0  0  0  0  0  0  0  0  0
   26.9288  -19.0151  -15.9567 C   0  0  0  0  0  0  0  0  0  0  0  0
   28.0062  -18.2386  -16.6188 C   0  0  0  0  0  0  0  0  0  0  0  0
   27.8226  -18.0872  -18.0732 C   0  0  0  0  0  0  0  0  0  0  0  0
   26.8091  -18.4601  -18.7063 O   0  0  0  0  0  0  0  0  0  0  0  0
   26.1246  -20.5527  -14.2445 C   0  0  0  0  0  0  0  0  0  0  0  0
   25.7362  -21.6042  -14.8310 O   0  0  0  0  0  0  0  0  0  0  0  0
   28.8668  -17.4754  -18.8064 O   0  0  0  0  0  0  0  0  0  0  0  0
   24.3292  -21.2686   -8.2790 N   0  0  0  0  0  0  0  0  0  0  0  0
   25.5926  -21.1589   -8.9331 C   0  0  0  0  0  0  0  0  0  0  0  0
   26.6031  -21.1946   -8.2274 O   0  0  0  0  0  0  0  0  0  0  0  0
   25.6541  -21.0091  -10.4291 C   0  0  0  0  0  0  0  0  0  0  0  0
   24.3033  -20.8788  -11.0318 C   0  0  0  0  0  0  0  0  0  0  0  0
   24.2605  -20.7652  -12.5320 C   0  0  2  0  0  0  0  0  0  0  0  0
   25.3785  -20.1184  -13.1470 N   0  0  0  0  0  0  0  0  0  0  0  0
   22.9329  -20.3387  -12.9715 C   0  0  0  0  0  0  0  0  0  0  0  0
   22.6459  -19.1177  -12.7576 O   0  0  0  0  0  0  0  0  0  0  0  0
   21.3504  -18.8895  -16.3284 C   0  0  0  0  0  0  0  0  0  0  0  0
   21.2655  -20.3858  -16.4767 C   0  0  2  0  0  0  0  0  0  0  0  0
   21.0095  -20.8540  -17.8838 C   0  0  0  0  0  0  0  0  0  0  0  0
   20.4774  -21.0743  -15.4393 C   0  0  0  0  0  0  0  0  0  0  0  0
   20.6545  -20.7349  -14.0248 C   0  0  2  0  0  0  0  0  0  0  0  0
   21.9879  -21.1976  -13.6026 N   0  0  0  0  0  0  0  0  0  0  0  0
   19.6715  -21.1529  -13.0468 C   0  0  0  0  0  0  0  0  0  0  0  0
   18.3873  -20.5751  -13.0779 O   0  0  0  0  0  0  0  0  0  0  0  0
   19.8020  -21.9987  -12.1285 O   0  0  0  0  0  0  0  0  0  0  0  0
  2  1  1  6
  3  2  1  0
  3  4  1  0
  5  6  2  0
  5  4  1  0
  7  8  2  0
  7  2  1  0
  9  5  1  0
 10 11  1  0
 11 12  2  0
 11 13  1  0
 13 14  1  0
 15 14  1  1
 15 16  1  0
 16  7  1  0
 17 18  2  0
 17 15  1  0
 20 22  1  0
 20 19  1  6
 21 20  1  0
 23 24  1  0
 23 22  1  6
 24 17  1  0
 25 23  1  0
 26 25  1  0
 27 25  2  0
M  END
$$$$
