EAV.pdb
     RDKit          3D

 22 21  0  0  1  0  0  0  0  0999 V2000
    9.1454  -18.5018   20.8356 N   0  0  0  0  0  0  0  0  0  0  0  0
   10.2442  -18.0022   21.5643 C   0  0  1  0  0  0  0  0  0  0  0  0
   11.2319  -17.1912   20.8047 C   0  0  0  0  0  0  0  0  0  0  0  0
   11.2054  -17.3663   19.3425 C   0  0  0  0  0  0  0  0  0  0  0  0
   12.4981  -17.2062   18.6776 C   0  0  0  0  0  0  0  0  0  0  0  0
   12.6734  -17.4934   17.4866 O   0  0  0  0  0  0  0  0  0  0  0  0
    9.8265  -17.2754   22.8038 C   0  0  0  0  0  0  0  0  0  0  0  0
   10.1987  -16.0721   22.9990 O   0  0  0  0  0  0  0  0  0  0  0  0
   13.5692  -16.7018   19.4521 O   0  0  0  0  0  0  0  0  0  0  0  0
    7.4248  -18.0513   25.5199 C   0  0  0  0  0  0  0  0  0  0  0  0
    8.4478  -17.1345   24.8848 C   0  0  2  0  0  0  0  0  0  0  0  0
    9.0324  -17.8875   23.7641 N   0  0  0  0  0  0  0  0  0  0  0  0
    9.5575  -16.9058   25.8418 C   0  0  0  0  0  0  0  0  0  0  0  0
   10.6347  -17.5582   25.8353 O   0  0  0  0  0  0  0  0  0  0  0  0
   10.2796  -13.1706   27.2933 C   0  0  0  0  0  0  0  0  0  0  0  0
   10.2954  -14.2101   28.3624 C   0  0  1  0  0  0  0  0  0  0  0  0
    9.0859  -14.0755   29.2521 C   0  0  0  0  0  0  0  0  0  0  0  0
   10.4310  -15.6127   27.8057 C   0  0  2  0  0  0  0  0  0  0  0  0
    9.4050  -15.8921   26.8276 N   0  0  0  0  0  0  0  0  0  0  0  0
   10.3877  -16.6346   28.8737 C   0  0  0  0  0  0  0  0  0  0  0  0
    9.3105  -17.4730   29.1092 O   0  0  0  0  0  0  0  0  0  0  0  0
   11.3806  -16.7659   29.6246 O   0  0  0  0  0  0  0  0  0  0  0  0
  2  1  1  6
  3  2  1  0
  4  3  1  0
  4  5  1  0
  5  9  1  0
  5  6  2  0
  7  2  1  0
  8  7  2  0
 11 10  1  1
 11 13  1  0
 11 12  1  0
 12  7  1  0
 13 19  1  0
 14 13  2  0
 16 15  1  6
 16 17  1  0
 18 16  1  0
 18 20  1  0
 18 19  1  6
 20 22  2  0
 20 21  1  0
M  END
$$$$
