EAV.pdb
     RDKit          3D

 22 21  0  0  1  0  0  0  0  0999 V2000
   11.3581  -16.8404   20.4950 N   0  0  0  0  0  0  0  0  0  0  0  0
   10.1091  -17.0409   21.1177 C   0  0  1  0  0  0  0  0  0  0  0  0
    9.6566  -18.4498   21.2611 C   0  0  0  0  0  0  0  0  0  0  0  0
   10.6118  -19.3588   21.9173 C   0  0  0  0  0  0  0  0  0  0  0  0
   10.2066  -20.7637   21.9478 C   0  0  0  0  0  0  0  0  0  0  0  0
   10.1101  -21.4503   20.9227 O   0  0  0  0  0  0  0  0  0  0  0  0
   10.0030  -16.3304   22.4303 C   0  0  0  0  0  0  0  0  0  0  0  0
   11.0533  -15.9241   23.0273 O   0  0  0  0  0  0  0  0  0  0  0  0
    9.9208  -21.3303   23.2122 O   0  0  0  0  0  0  0  0  0  0  0  0
    7.1385  -15.1392   24.4782 C   0  0  0  0  0  0  0  0  0  0  0  0
    8.6203  -15.1937   24.1760 C   0  0  2  0  0  0  0  0  0  0  0  0
    8.7706  -16.0996   23.0263 N   0  0  0  0  0  0  0  0  0  0  0  0
    9.3237  -15.8511   25.3042 C   0  0  0  0  0  0  0  0  0  0  0  0
    9.7188  -17.0466   25.2830 O   0  0  0  0  0  0  0  0  0  0  0  0
   11.1061  -13.2792   28.1290 C   0  0  0  0  0  0  0  0  0  0  0  0
   10.5632  -14.5652   28.6536 C   0  0  1  0  0  0  0  0  0  0  0  0
    9.2885  -14.3291   29.4230 C   0  0  0  0  0  0  0  0  0  0  0  0
   10.3797  -15.6039   27.5660 C   0  0  2  0  0  0  0  0  0  0  0  0
    9.5707  -15.0944   26.4828 N   0  0  0  0  0  0  0  0  0  0  0  0
    9.7769  -16.8483   28.0904 C   0  0  0  0  0  0  0  0  0  0  0  0
   10.4608  -17.7927   28.8381 O   0  0  0  0  0  0  0  0  0  0  0  0
    8.5699  -17.0812   27.8534 O   0  0  0  0  0  0  0  0  0  0  0  0
  2  1  1  1
  3  2  1  0
  4  3  1  0
  4  5  1  0
  5  9  1  0
  5  6  2  0
  7  2  1  0
  8  7  2  0
 11 10  1  1
 11 13  1  0
 11 12  1  0
 12  7  1  0
 13 19  1  0
 14 13  2  0
 16 15  1  6
 16 17  1  0
 18 16  1  0
 18 20  1  0
 18 19  1  6
 20 22  2  0
 20 21  1  0
M  END
$$$$
