EAV.pdb
     RDKit          3D

 22 21  0  0  1  0  0  0  0  0999 V2000
    8.9521  -17.9033   19.9731 N   0  0  0  0  0  0  0  0  0  0  0  0
    9.5642  -17.7632   21.2355 C   0  0  1  0  0  0  0  0  0  0  0  0
   10.9656  -17.2668   21.2432 C   0  0  0  0  0  0  0  0  0  0  0  0
   11.9742  -18.2075   20.7263 C   0  0  0  0  0  0  0  0  0  0  0  0
   13.1618  -17.5822   20.1454 C   0  0  0  0  0  0  0  0  0  0  0  0
   13.3009  -16.3544   20.0772 O   0  0  0  0  0  0  0  0  0  0  0  0
    8.7313  -16.9673   22.1905 C   0  0  0  0  0  0  0  0  0  0  0  0
    8.4875  -15.7378   21.9594 O   0  0  0  0  0  0  0  0  0  0  0  0
   14.1721  -18.4404   19.6512 O   0  0  0  0  0  0  0  0  0  0  0  0
    6.6359  -17.8910   25.1011 C   0  0  0  0  0  0  0  0  0  0  0  0
    7.2227  -16.8431   24.1804 C   0  0  2  0  0  0  0  0  0  0  0  0
    8.2097  -17.5413   23.3419 N   0  0  0  0  0  0  0  0  0  0  0  0
    7.9945  -15.8650   24.9850 C   0  0  0  0  0  0  0  0  0  0  0  0
    9.2352  -15.9456   25.1854 O   0  0  0  0  0  0  0  0  0  0  0  0
    6.6514  -11.9238   25.2196 C   0  0  0  0  0  0  0  0  0  0  0  0
    7.1009  -12.5214   26.5098 C   0  0  1  0  0  0  0  0  0  0  0  0
    5.9185  -12.8297   27.3928 C   0  0  0  0  0  0  0  0  0  0  0  0
    7.9854  -13.7351   26.3099 C   0  0  2  0  0  0  0  0  0  0  0  0
    7.3010  -14.7686   25.5677 N   0  0  0  0  0  0  0  0  0  0  0  0
    8.4637  -14.2847   27.5968 C   0  0  0  0  0  0  0  0  0  0  0  0
    9.4843  -13.7305   28.3517 O   0  0  0  0  0  0  0  0  0  0  0  0
    7.9228  -15.3186   28.0503 O   0  0  0  0  0  0  0  0  0  0  0  0
  2  1  1  6
  3  2  1  0
  4  3  1  0
  4  5  1  0
  5  9  1  0
  5  6  2  0
  7  2  1  0
  8  7  2  0
 11 10  1  1
 11 13  1  0
 11 12  1  0
 12  7  1  0
 13 19  1  0
 14 13  2  0
 16 15  1  6
 16 17  1  0
 18 16  1  0
 18 20  1  0
 18 19  1  1
 20 22  2  0
 20 21  1  0
M  END
$$$$
