EAV.pdb
     RDKit          3D

 22 21  0  0  1  0  0  0  0  0999 V2000
    8.1137  -17.9797   19.9845 N   0  0  0  0  0  0  0  0  0  0  0  0
    8.6439  -18.2352   21.2658 C   0  0  1  0  0  0  0  0  0  0  0  0
   10.1097  -18.0474   21.4280 C   0  0  0  0  0  0  0  0  0  0  0  0
   10.6704  -16.8475   20.7837 C   0  0  0  0  0  0  0  0  0  0  0  0
   12.1199  -16.6990   20.9092 C   0  0  0  0  0  0  0  0  0  0  0  0
   12.8744  -16.6870   19.9283 O   0  0  0  0  0  0  0  0  0  0  0  0
    7.9092  -17.5049   22.3456 C   0  0  0  0  0  0  0  0  0  0  0  0
    7.4093  -16.3548   22.1176 O   0  0  0  0  0  0  0  0  0  0  0  0
   12.6490  -16.5664   22.2145 O   0  0  0  0  0  0  0  0  0  0  0  0
    6.8340  -18.4000   25.7846 C   0  0  0  0  0  0  0  0  0  0  0  0
    6.9339  -17.4085   24.6458 C   0  0  2  0  0  0  0  0  0  0  0  0
    7.7563  -18.0550   23.6110 N   0  0  0  0  0  0  0  0  0  0  0  0
    7.7065  -16.2253   25.0964 C   0  0  0  0  0  0  0  0  0  0  0  0
    8.9523  -16.1063   24.9558 O   0  0  0  0  0  0  0  0  0  0  0  0
    7.3544  -11.6560   27.0849 C   0  0  0  0  0  0  0  0  0  0  0  0
    6.6904  -12.8745   26.5390 C   0  0  1  0  0  0  0  0  0  0  0  0
    5.8044  -12.5190   25.3722 C   0  0  0  0  0  0  0  0  0  0  0  0
    7.6807  -13.9641   26.1818 C   0  0  2  0  0  0  0  0  0  0  0  0
    7.0076  -15.1580   25.7249 N   0  0  0  0  0  0  0  0  0  0  0  0
    8.5637  -14.2990   27.3198 C   0  0  0  0  0  0  0  0  0  0  0  0
    8.4553  -15.4522   28.0794 O   0  0  0  0  0  0  0  0  0  0  0  0
    9.4754  -13.5002   27.6323 O   0  0  0  0  0  0  0  0  0  0  0  0
  2  1  1  6
  3  2  1  0
  4  3  1  0
  4  5  1  0
  5  9  1  0
  5  6  2  0
  7  2  1  0
  8  7  2  0
 11 10  1  1
 11 13  1  0
 11 12  1  0
 12  7  1  0
 13 19  1  0
 14 13  2  0
 16 15  1  6
 16 17  1  0
 18 16  1  0
 18 20  1  0
 18 19  1  1
 20 22  2  0
 20 21  1  0
M  END
$$$$
