EAV.pdb
     RDKit          3D

 22 21  0  0  1  0  0  0  0  0999 V2000
   10.2994  -18.3823   21.1921 N   0  0  0  0  0  0  0  0  0  0  0  0
    9.7074  -17.1776   20.7609 C   0  0  1  0  0  0  0  0  0  0  0  0
    9.2404  -17.1343   19.3501 C   0  0  0  0  0  0  0  0  0  0  0  0
    9.4233  -18.3785   18.5833 C   0  0  0  0  0  0  0  0  0  0  0  0
    8.8472  -18.3662   17.2391 C   0  0  0  0  0  0  0  0  0  0  0  0
    8.3758  -17.3429   16.7271 O   0  0  0  0  0  0  0  0  0  0  0  0
    8.6191  -16.7141   21.6774 C   0  0  0  0  0  0  0  0  0  0  0  0
    7.9483  -15.6666   21.3997 O   0  0  0  0  0  0  0  0  0  0  0  0
    8.8432  -19.5860   16.5226 O   0  0  0  0  0  0  0  0  0  0  0  0
    6.9716  -18.0760   24.6962 C   0  0  0  0  0  0  0  0  0  0  0  0
    7.3306  -16.9016   23.8118 C   0  0  2  0  0  0  0  0  0  0  0  0
    8.3165  -17.4053   22.8427 N   0  0  0  0  0  0  0  0  0  0  0  0
    8.0420  -15.8822   24.6207 C   0  0  0  0  0  0  0  0  0  0  0  0
    9.2958  -15.8136   24.7171 O   0  0  0  0  0  0  0  0  0  0  0  0
    7.4518  -11.6953   27.2803 C   0  0  0  0  0  0  0  0  0  0  0  0
    6.8517  -12.8142   26.4981 C   0  0  1  0  0  0  0  0  0  0  0  0
    6.0605  -12.2817   25.3307 C   0  0  0  0  0  0  0  0  0  0  0  0
    7.8829  -13.8343   26.0604 C   0  0  2  0  0  0  0  0  0  0  0  0
    7.2711  -14.9218   25.3321 N   0  0  0  0  0  0  0  0  0  0  0  0
    8.6440  -14.3739   27.2078 C   0  0  0  0  0  0  0  0  0  0  0  0
    8.4055  -15.6064   27.7930 O   0  0  0  0  0  0  0  0  0  0  0  0
    9.5690  -13.6860   27.6960 O   0  0  0  0  0  0  0  0  0  0  0  0
  2  1  1  1
  3  2  1  0
  4  3  1  0
  4  5  1  0
  5  9  1  0
  5  6  2  0
  7  2  1  0
  8  7  2  0
 11 10  1  1
 11 13  1  0
 11 12  1  0
 12  7  1  0
 13 19  1  0
 14 13  2  0
 16 15  1  6
 16 17  1  0
 18 16  1  0
 18 20  1  0
 18 19  1  1
 20 22  2  0
 20 21  1  0
M  END
$$$$
