EAV.pdb
     RDKit          3D

 22 21  0  0  1  0  0  0  0  0999 V2000
   11.3173  -18.8764   21.2392 N   0  0  0  0  0  0  0  0  0  0  0  0
   11.8253  -17.5693   21.3853 C   0  0  1  0  0  0  0  0  0  0  0  0
   11.9682  -16.7688   20.1407 C   0  0  0  0  0  0  0  0  0  0  0  0
   12.7865  -17.3839   19.0817 C   0  0  0  0  0  0  0  0  0  0  0  0
   12.5252  -16.8863   17.7316 C   0  0  0  0  0  0  0  0  0  0  0  0
   12.1259  -15.7356   17.5126 O   0  0  0  0  0  0  0  0  0  0  0  0
   11.0885  -16.7812   22.4221 C   0  0  0  0  0  0  0  0  0  0  0  0
   11.3683  -15.5526   22.6139 O   0  0  0  0  0  0  0  0  0  0  0  0
   12.7466  -17.7784   16.6561 O   0  0  0  0  0  0  0  0  0  0  0  0
    8.1073  -17.4276   24.5174 C   0  0  0  0  0  0  0  0  0  0  0  0
    9.3198  -16.5878   24.1787 C   0  0  2  0  0  0  0  0  0  0  0  0
   10.0926  -17.3626   23.1951 N   0  0  0  0  0  0  0  0  0  0  0  0
   10.1858  -16.4769   25.3776 C   0  0  0  0  0  0  0  0  0  0  0  0
   11.2103  -17.1833   25.5703 O   0  0  0  0  0  0  0  0  0  0  0  0
   10.7519  -12.9248   27.3452 C   0  0  0  0  0  0  0  0  0  0  0  0
   10.3782  -14.0480   28.2521 C   0  0  1  0  0  0  0  0  0  0  0  0
    8.9684  -13.8760   28.7575 C   0  0  0  0  0  0  0  0  0  0  0  0
   10.5841  -15.4048   27.6102 C   0  0  2  0  0  0  0  0  0  0  0  0
    9.8470  -15.5190   26.3728 N   0  0  0  0  0  0  0  0  0  0  0  0
   10.1994  -16.5068   28.5183 C   0  0  0  0  0  0  0  0  0  0  0  0
    9.0705  -17.2931   28.3578 O   0  0  0  0  0  0  0  0  0  0  0  0
   10.9299  -16.7610   29.5026 O   0  0  0  0  0  0  0  0  0  0  0  0
  2  1  1  6
  3  2  1  0
  4  3  1  0
  4  5  1  0
  5  9  1  0
  5  6  2  0
  7  2  1  0
  8  7  2  0
 11 10  1  1
 11 13  1  0
 11 12  1  0
 12  7  1  0
 13 19  1  0
 14 13  2  0
 16 15  1  6
 16 17  1  0
 18 16  1  0
 18 20  1  0
 18 19  1  6
 20 22  2  0
 20 21  1  0
M  END
$$$$
