EAV.pdb
     RDKit          3D

 22 21  0  0  1  0  0  0  0  0999 V2000
    7.9325  -18.3592   19.5531 N   0  0  0  0  0  0  0  0  0  0  0  0
    8.6866  -17.9776   20.6817 C   0  0  1  0  0  0  0  0  0  0  0  0
    9.9086  -17.1715   20.4228 C   0  0  0  0  0  0  0  0  0  0  0  0
   11.0182  -17.8922   19.7755 C   0  0  0  0  0  0  0  0  0  0  0  0
   12.2590  -17.1289   19.6468 C   0  0  0  0  0  0  0  0  0  0  0  0
   12.3805  -15.9783   20.0862 O   0  0  0  0  0  0  0  0  0  0  0  0
    7.8500  -17.3201   21.7338 C   0  0  0  0  0  0  0  0  0  0  0  0
    7.1553  -16.2897   21.4508 O   0  0  0  0  0  0  0  0  0  0  0  0
   13.3431  -17.7570   18.9898 O   0  0  0  0  0  0  0  0  0  0  0  0
    6.7143  -18.2989   25.0944 C   0  0  0  0  0  0  0  0  0  0  0  0
    6.9415  -17.2171   24.0608 C   0  0  2  0  0  0  0  0  0  0  0  0
    7.8109  -17.8096   23.0323 N   0  0  0  0  0  0  0  0  0  0  0  0
    7.7277  -16.1176   24.6713 C   0  0  0  0  0  0  0  0  0  0  0  0
    8.9836  -16.0413   24.6201 O   0  0  0  0  0  0  0  0  0  0  0  0
    7.4445  -11.7702   27.1121 C   0  0  0  0  0  0  0  0  0  0  0  0
    6.7643  -12.8881   26.3969 C   0  0  1  0  0  0  0  0  0  0  0  0
    6.0031  -12.3698   25.2034 C   0  0  0  0  0  0  0  0  0  0  0  0
    7.7206  -13.9994   26.0150 C   0  0  2  0  0  0  0  0  0  0  0  0
    7.0305  -15.0845   25.3564 N   0  0  0  0  0  0  0  0  0  0  0  0
    8.4551  -14.5201   27.1881 C   0  0  0  0  0  0  0  0  0  0  0  0
    9.6573  -14.0078   27.6474 O   0  0  0  0  0  0  0  0  0  0  0  0
    7.9745  -15.4873   27.8210 O   0  0  0  0  0  0  0  0  0  0  0  0
  2  1  1  6
  3  2  1  0
  4  3  1  0
  4  5  1  0
  5  9  1  0
  5  6  2  0
  7  2  1  0
  8  7  2  0
 11 10  1  1
 11 13  1  0
 11 12  1  0
 12  7  1  0
 13 19  1  0
 14 13  2  0
 16 15  1  6
 16 17  1  0
 18 16  1  0
 18 20  1  0
 18 19  1  1
 20 22  2  0
 20 21  1  0
M  END
$$$$
