EAV.pdb
     RDKit          3D

 22 21  0  0  1  0  0  0  0  0999 V2000
    8.0702  -17.6757   19.3682 N   0  0  0  0  0  0  0  0  0  0  0  0
    8.7350  -17.7176   20.6109 C   0  0  1  0  0  0  0  0  0  0  0  0
   10.1325  -17.2111   20.6343 C   0  0  0  0  0  0  0  0  0  0  0  0
   11.0249  -17.7645   19.6014 C   0  0  0  0  0  0  0  0  0  0  0  0
   12.4426  -17.4520   19.7778 C   0  0  0  0  0  0  0  0  0  0  0  0
   12.8614  -16.7750   20.7254 O   0  0  0  0  0  0  0  0  0  0  0  0
    7.9394  -17.0829   21.7078 C   0  0  0  0  0  0  0  0  0  0  0  0
    7.3018  -16.0000   21.4947 O   0  0  0  0  0  0  0  0  0  0  0  0
   13.3445  -17.9571   18.8119 O   0  0  0  0  0  0  0  0  0  0  0  0
    6.7393  -18.2800   24.9738 C   0  0  0  0  0  0  0  0  0  0  0  0
    6.9742  -17.1341   24.0136 C   0  0  2  0  0  0  0  0  0  0  0  0
    7.8774  -17.6505   22.9732 N   0  0  0  0  0  0  0  0  0  0  0  0
    7.7281  -16.0627   24.7090 C   0  0  0  0  0  0  0  0  0  0  0  0
    8.9826  -15.9563   24.6806 O   0  0  0  0  0  0  0  0  0  0  0  0
    7.2733  -11.7905   27.2556 C   0  0  0  0  0  0  0  0  0  0  0  0
    6.6345  -12.9480   26.5660 C   0  0  1  0  0  0  0  0  0  0  0  0
    5.7467  -12.4737   25.4437 C   0  0  0  0  0  0  0  0  0  0  0  0
    7.6465  -13.9697   26.0891 C   0  0  2  0  0  0  0  0  0  0  0  0
    6.9996  -15.0944   25.4535 N   0  0  0  0  0  0  0  0  0  0  0  0
    8.5036  -14.4516   27.1937 C   0  0  0  0  0  0  0  0  0  0  0  0
    9.6938  -13.8553   27.5761 O   0  0  0  0  0  0  0  0  0  0  0  0
    8.1463  -15.4640   27.8377 O   0  0  0  0  0  0  0  0  0  0  0  0
  2  1  1  6
  3  2  1  0
  4  3  1  0
  4  5  1  0
  5  9  1  0
  5  6  2  0
  7  2  1  0
  8  7  2  0
 11 10  1  1
 11 13  1  0
 11 12  1  0
 12  7  1  0
 13 19  1  0
 14 13  2  0
 16 15  1  6
 16 17  1  0
 18 16  1  0
 18 20  1  0
 18 19  1  1
 20 22  2  0
 20 21  1  0
M  END
$$$$
