CNS.pdb
     RDKit          3D

 21 20  0  0  1  0  0  0  0  0999 V2000
   23.9090  -34.6767  -12.3050 N   0  0  0  0  0  0  0  0  0  0  0  0
   24.2032  -33.5282  -11.5063 C   0  0  1  0  0  0  0  0  0  0  0  0
   23.0933  -32.5258  -11.6826 C   0  0  0  0  0  0  0  0  0  0  0  0
   23.4414  -31.5991  -13.2101 S   0  0  0  0  0  0  0  0  0  0  0  0
   24.4516  -33.8929  -10.1116 C   0  0  0  0  0  0  0  0  0  0  0  0
   23.9264  -34.9495   -9.6763 O   0  0  0  0  0  0  0  0  0  0  0  0
   27.4373  -32.7197   -4.9962 N   0  0  0  0  0  0  0  0  0  0  0  0
   27.2369  -33.5972   -6.0768 C   0  0  0  0  0  0  0  0  0  0  0  0
   27.4291  -34.8338   -5.9766 O   0  0  0  0  0  0  0  0  0  0  0  0
   26.7857  -33.0574   -7.3772 C   0  0  0  0  0  0  0  0  0  0  0  0
   25.4858  -33.6660   -7.8519 C   0  0  2  0  0  0  0  0  0  0  0  0
   25.2389  -33.1494   -9.2080 N   0  0  0  0  0  0  0  0  0  0  0  0
   24.3895  -33.2551   -6.9406 C   0  0  0  0  0  0  0  0  0  0  0  0
   23.9778  -32.0802   -6.8587 O   0  0  0  0  0  0  0  0  0  0  0  0
   22.2836  -36.1359   -4.7364 O   0  0  0  0  0  0  0  0  0  0  0  0
   21.6569  -34.9224   -4.9923 C   0  0  0  0  0  0  0  0  0  0  0  0
   22.6692  -33.8109   -5.1907 C   0  0  2  0  0  0  0  0  0  0  0  0
   23.7310  -34.2086   -6.0870 N   0  0  0  0  0  0  0  0  0  0  0  0
   23.2391  -33.5101   -3.8571 C   0  0  0  0  0  0  0  0  0  0  0  0
   22.4620  -33.0572   -2.8109 O   0  0  0  0  0  0  0  0  0  0  0  0
   24.4635  -33.6720   -3.6746 O   0  0  0  0  0  0  0  0  0  0  0  0
  2  5  1  0
  2  1  1  6
  3  2  1  0
  4  3  1  0
  5 12  1  0
  6  5  2  0
  7  8  1  0
  8 10  1  0
  9  8  2  0
 11 10  1  1
 11 13  1  0
 12 11  1  0
 13 14  2  0
 13 18  1  0
 15 16  1  0
 17 16  1  1
 17 19  1  0
 18 17  1  0
 19 20  1  0
 21 19  2  0
M  END
$$$$
