CNS.pdb
     RDKit          3D

 21 20  0  0  1  0  0  0  0  0999 V2000
   21.4680  -13.1931  -17.5518 N   0  0  0  0  0  0  0  0  0  0  0  0
   21.8942  -12.4010  -16.4408 C   0  0  1  0  0  0  0  0  0  0  0  0
   23.3897  -12.5228  -16.3122 C   0  0  0  0  0  0  0  0  0  0  0  0
   23.7303  -14.0801  -15.4335 S   0  0  0  0  0  0  0  0  0  0  0  0
   21.4230  -11.0207  -16.5527 C   0  0  0  0  0  0  0  0  0  0  0  0
   21.3709  -10.5070  -17.6995 O   0  0  0  0  0  0  0  0  0  0  0  0
   17.8242   -7.1763  -16.4594 N   0  0  0  0  0  0  0  0  0  0  0  0
   18.4476   -7.5010  -15.2413 C   0  0  0  0  0  0  0  0  0  0  0  0
   18.4652   -6.7076  -14.2685 O   0  0  0  0  0  0  0  0  0  0  0  0
   19.1065   -8.8160  -15.0901 C   0  0  0  0  0  0  0  0  0  0  0  0
   20.4801   -8.8658  -15.7194 C   0  0  2  0  0  0  0  0  0  0  0  0
   21.0191  -10.2125  -15.4697 N   0  0  0  0  0  0  0  0  0  0  0  0
   21.3477   -7.8421  -15.0864 C   0  0  0  0  0  0  0  0  0  0  0  0
   21.9977   -8.0531  -14.0427 O   0  0  0  0  0  0  0  0  0  0  0  0
   23.5874   -3.5184  -15.5303 O   0  0  0  0  0  0  0  0  0  0  0  0
   22.6362   -4.3954  -16.0371 C   0  0  0  0  0  0  0  0  0  0  0  0
   22.3958   -5.5547  -15.0897 C   0  0  2  0  0  0  0  0  0  0  0  0
   21.4874   -6.5271  -15.6542 N   0  0  0  0  0  0  0  0  0  0  0  0
   21.8010   -4.9836  -13.8592 C   0  0  0  0  0  0  0  0  0  0  0  0
   22.5256   -4.8313  -12.6951 O   0  0  0  0  0  0  0  0  0  0  0  0
   20.6042   -4.6286  -13.8771 O   0  0  0  0  0  0  0  0  0  0  0  0
  2  5  1  0
  2  1  1  6
  3  2  1  0
  4  3  1  0
  5 12  1  0
  6  5  2  0
  7  8  1  0
  8 10  1  0
  9  8  2  0
 11 10  1  1
 11 13  1  0
 12 11  1  0
 13 14  2  0
 13 18  1  0
 15 16  1  0
 17 16  1  6
 17 19  1  0
 18 17  1  0
 19 20  1  0
 21 19  2  0
M  END
$$$$
