CNS.pdb
     RDKit          3D

 21 20  0  0  1  0  0  0  0  0999 V2000
   30.2980  -10.6473  -18.7183 N   0  0  0  0  0  0  0  0  0  0  0  0
   30.5778   -9.2454  -18.7246 C   0  0  1  0  0  0  0  0  0  0  0  0
   29.2838   -8.5003  -18.9201 C   0  0  0  0  0  0  0  0  0  0  0  0
   28.9781   -8.4116  -20.7122 S   0  0  0  0  0  0  0  0  0  0  0  0
   31.3166   -8.8395  -17.5291 C   0  0  0  0  0  0  0  0  0  0  0  0
   31.1444   -9.5048  -16.4758 O   0  0  0  0  0  0  0  0  0  0  0  0
   35.6821   -9.5201  -14.5995 N   0  0  0  0  0  0  0  0  0  0  0  0
   35.0540   -8.3656  -15.1001 C   0  0  0  0  0  0  0  0  0  0  0  0
   35.2122   -7.2377  -14.5720 O   0  0  0  0  0  0  0  0  0  0  0  0
   34.1772   -8.4716  -16.2859 C   0  0  0  0  0  0  0  0  0  0  0  0
   32.9994   -7.5251  -16.2378 C   0  0  2  0  0  0  0  0  0  0  0  0
   32.2138   -7.7534  -17.4615 N   0  0  0  0  0  0  0  0  0  0  0  0
   33.4943   -6.1268  -16.2012 C   0  0  0  0  0  0  0  0  0  0  0  0
   34.2471   -5.6490  -17.0738 O   0  0  0  0  0  0  0  0  0  0  0  0
   31.4591   -2.9362  -14.4392 O   0  0  0  0  0  0  0  0  0  0  0  0
   32.8039   -3.0321  -14.1026 C   0  0  0  0  0  0  0  0  0  0  0  0
   33.5689   -3.8562  -15.1200 C   0  0  2  0  0  0  0  0  0  0  0  0
   33.1247   -5.2315  -15.1367 N   0  0  0  0  0  0  0  0  0  0  0  0
   34.9953   -3.8055  -14.7241 C   0  0  0  0  0  0  0  0  0  0  0  0
   35.7657   -2.6739  -14.8953 O   0  0  0  0  0  0  0  0  0  0  0  0
   35.5167   -4.8211  -14.2188 O   0  0  0  0  0  0  0  0  0  0  0  0
  2  5  1  0
  2  1  1  1
  3  2  1  0
  4  3  1  0
  5 12  1  0
  6  5  2  0
  7  8  1  0
  8 10  1  0
  9  8  2  0
 11 10  1  6
 11 13  1  0
 12 11  1  0
 13 14  2  0
 13 18  1  0
 15 16  1  0
 17 16  1  1
 17 19  1  0
 18 17  1  0
 19 20  1  0
 21 19  2  0
M  END
$$$$
