CNS.pdb
     RDKit          3D

 21 20  0  0  1  0  0  0  0  0999 V2000
   13.6721  -10.5617  -10.7144 N   0  0  0  0  0  0  0  0  0  0  0  0
   15.0912  -10.5605  -10.5420 C   0  0  1  0  0  0  0  0  0  0  0  0
   15.6727  -11.6875  -11.3541 C   0  0  0  0  0  0  0  0  0  0  0  0
   15.2781  -13.2376  -10.4855 S   0  0  0  0  0  0  0  0  0  0  0  0
   15.6690   -9.2525  -10.8510 C   0  0  0  0  0  0  0  0  0  0  0  0
   15.2463   -8.6473  -11.8692 O   0  0  0  0  0  0  0  0  0  0  0  0
   15.2548   -5.8791   -7.6413 N   0  0  0  0  0  0  0  0  0  0  0  0
   15.7189   -5.9010   -8.9688 C   0  0  0  0  0  0  0  0  0  0  0  0
   15.0123   -5.5080   -9.9291 O   0  0  0  0  0  0  0  0  0  0  0  0
   17.0808   -6.4009   -9.2542 C   0  0  0  0  0  0  0  0  0  0  0  0
   17.1448   -7.2735  -10.4870 C   0  0  2  0  0  0  0  0  0  0  0  0
   16.6699   -8.6100  -10.0932 N   0  0  0  0  0  0  0  0  0  0  0  0
   18.5481   -7.3491  -10.9628 C   0  0  0  0  0  0  0  0  0  0  0  0
   19.4601   -7.8920  -10.3071 O   0  0  0  0  0  0  0  0  0  0  0  0
   19.7612   -8.5116  -14.3650 O   0  0  0  0  0  0  0  0  0  0  0  0
   20.3690   -7.2790  -14.1595 C   0  0  0  0  0  0  0  0  0  0  0  0
   20.3022   -6.8683  -12.7014 C   0  0  2  0  0  0  0  0  0  0  0  0
   18.9381   -6.7893  -12.2301 N   0  0  0  0  0  0  0  0  0  0  0  0
   20.9331   -5.5316  -12.6055 C   0  0  0  0  0  0  0  0  0  0  0  0
   22.3025   -5.3636  -12.6039 O   0  0  0  0  0  0  0  0  0  0  0  0
   20.2004   -4.5241  -12.5234 O   0  0  0  0  0  0  0  0  0  0  0  0
  2  5  1  0
  2  1  1  6
  3  2  1  0
  4  3  1  0
  5 12  1  0
  6  5  2  0
  7  8  1  0
  8 10  1  0
  9  8  2  0
 11 10  1  1
 11 13  1  0
 12 11  1  0
 13 14  2  0
 13 18  1  0
 15 16  1  0
 17 16  1  6
 17 19  1  0
 18 17  1  0
 19 20  1  0
 21 19  2  0
M  END
$$$$
