CNS.pdb
     RDKit          3D

 21 20  0  0  1  0  0  0  0  0999 V2000
   18.4965  -14.0980  -15.0849 N   0  0  0  0  0  0  0  0  0  0  0  0
   18.7296  -13.5913  -16.4011 C   0  0  1  0  0  0  0  0  0  0  0  0
   18.0824  -14.5211  -17.3933 C   0  0  0  0  0  0  0  0  0  0  0  0
   18.8074  -16.1711  -17.1383 S   0  0  0  0  0  0  0  0  0  0  0  0
   18.2942  -12.2004  -16.5265 C   0  0  0  0  0  0  0  0  0  0  0  0
   18.5248  -11.6062  -17.6107 O   0  0  0  0  0  0  0  0  0  0  0  0
   13.8766  -11.3835  -15.1349 N   0  0  0  0  0  0  0  0  0  0  0  0
   14.7965  -10.6107  -15.8660 C   0  0  0  0  0  0  0  0  0  0  0  0
   14.7415  -10.5141  -17.1165 O   0  0  0  0  0  0  0  0  0  0  0  0
   15.8666   -9.8844  -15.1496 C   0  0  0  0  0  0  0  0  0  0  0  0
   17.2303  -10.0721  -15.7744 C   0  0  2  0  0  0  0  0  0  0  0  0
   17.6312  -11.4657  -15.5216 N   0  0  0  0  0  0  0  0  0  0  0  0
   18.1940   -9.1395  -15.1397 C   0  0  0  0  0  0  0  0  0  0  0  0
   18.7423   -9.3708  -14.0432 O   0  0  0  0  0  0  0  0  0  0  0  0
   22.0155   -7.0004  -14.9357 O   0  0  0  0  0  0  0  0  0  0  0  0
   20.9648   -7.8185  -15.3328 C   0  0  0  0  0  0  0  0  0  0  0  0
   19.6397   -7.0842  -15.2666 C   0  0  2  0  0  0  0  0  0  0  0  0
   18.5534   -7.8954  -15.7677 N   0  0  0  0  0  0  0  0  0  0  0  0
   19.7795   -5.8751  -16.1107 C   0  0  0  0  0  0  0  0  0  0  0  0
   20.3928   -4.7268  -15.6539 O   0  0  0  0  0  0  0  0  0  0  0  0
   19.3270   -5.8969  -17.2741 O   0  0  0  0  0  0  0  0  0  0  0  0
  2  5  1  0
  2  1  1  1
  3  2  1  0
  4  3  1  0
  5 12  1  0
  6  5  2  0
  7  8  1  0
  8 10  1  0
  9  8  2  0
 11 10  1  1
 11 13  1  0
 12 11  1  0
 13 14  2  0
 13 18  1  0
 15 16  1  0
 17 16  1  6
 17 19  1  0
 18 17  1  0
 19 20  1  0
 21 19  2  0
M  END
$$$$
