CNS.pdb
     RDKit          3D

 21 20  0  0  1  0  0  0  0  0999 V2000
   13.1877  -11.0689  -10.7477 N   0  0  0  0  0  0  0  0  0  0  0  0
   12.6768   -9.7534  -10.9756 C   0  0  1  0  0  0  0  0  0  0  0  0
   11.5712   -9.4917   -9.9872 C   0  0  0  0  0  0  0  0  0  0  0  0
   10.1786  -10.5742  -10.4367 S   0  0  0  0  0  0  0  0  0  0  0  0
   13.7418   -8.7509  -10.9474 C   0  0  0  0  0  0  0  0  0  0  0  0
   14.6204   -8.8496  -10.0530 O   0  0  0  0  0  0  0  0  0  0  0  0
   16.9875   -4.9142  -14.2802 N   0  0  0  0  0  0  0  0  0  0  0  0
   16.7656   -5.6788  -13.1209 C   0  0  0  0  0  0  0  0  0  0  0  0
   17.4976   -5.5793  -12.1058 O   0  0  0  0  0  0  0  0  0  0  0  0
   15.6371   -6.6334  -13.0850 C   0  0  0  0  0  0  0  0  0  0  0  0
   14.9897   -6.7338  -11.7226 C   0  0  2  0  0  0  0  0  0  0  0  0
   13.8640   -7.6736  -11.8494 N   0  0  0  0  0  0  0  0  0  0  0  0
   14.4954   -5.3958  -11.3140 C   0  0  0  0  0  0  0  0  0  0  0  0
   13.6190   -4.7725  -11.9464 O   0  0  0  0  0  0  0  0  0  0  0  0
   13.6420   -2.1001   -7.9824 O   0  0  0  0  0  0  0  0  0  0  0  0
   14.0572   -3.3772   -8.3393 C   0  0  0  0  0  0  0  0  0  0  0  0
   14.5649   -3.4122   -9.7677 C   0  0  2  0  0  0  0  0  0  0  0  0
   15.0110   -4.7344  -10.1443 N   0  0  0  0  0  0  0  0  0  0  0  0
   15.7059   -2.4704   -9.8380 C   0  0  0  0  0  0  0  0  0  0  0  0
   15.5416   -1.1062   -9.7136 O   0  0  0  0  0  0  0  0  0  0  0  0
   16.8542   -2.9271  -10.0157 O   0  0  0  0  0  0  0  0  0  0  0  0
  2  5  1  0
  2  1  1  1
  3  2  1  0
  4  3  1  0
  5 12  1  0
  6  5  2  0
  7  8  1  0
  8 10  1  0
  9  8  2  0
 11 10  1  6
 11 13  1  0
 12 11  1  0
 13 14  2  0
 13 18  1  0
 15 16  1  0
 17 16  1  1
 17 19  1  0
 18 17  1  0
 19 20  1  0
 21 19  2  0
M  END
$$$$
