CNS.pdb
     RDKit          3D

 21 20  0  0  1  0  0  0  0  0999 V2000
   21.2768  -15.7831  -16.4169 N   0  0  0  0  0  0  0  0  0  0  0  0
   21.6259  -14.6994  -17.2812 C   0  0  1  0  0  0  0  0  0  0  0  0
   20.4065  -14.3070  -18.0729 C   0  0  0  0  0  0  0  0  0  0  0  0
   20.1308  -15.6059  -19.3179 S   0  0  0  0  0  0  0  0  0  0  0  0
   22.2277  -13.5920  -16.5386 C   0  0  0  0  0  0  0  0  0  0  0  0
   21.6339  -13.1818  -15.5086 O   0  0  0  0  0  0  0  0  0  0  0  0
   25.2015   -9.7895  -14.7025 N   0  0  0  0  0  0  0  0  0  0  0  0
   25.9965  -10.5523  -15.5766 C   0  0  0  0  0  0  0  0  0  0  0  0
   27.2224  -10.3291  -15.7299 O   0  0  0  0  0  0  0  0  0  0  0  0
   25.3797  -11.6548  -16.3447 C   0  0  0  0  0  0  0  0  0  0  0  0
   23.8931  -11.7855  -16.1028 C   0  0  2  0  0  0  0  0  0  0  0  0
   23.4297  -12.9418  -16.8870 N   0  0  0  0  0  0  0  0  0  0  0  0
   23.2106  -10.5503  -16.5607 C   0  0  0  0  0  0  0  0  0  0  0  0
   22.9787  -10.3072  -17.7622 O   0  0  0  0  0  0  0  0  0  0  0  0
   19.5537   -8.0286  -16.5284 O   0  0  0  0  0  0  0  0  0  0  0  0
   20.4248   -9.0215  -16.0967 C   0  0  0  0  0  0  0  0  0  0  0  0
   21.8487   -8.5068  -16.0133 C   0  0  2  0  0  0  0  0  0  0  0  0
   22.7719   -9.5488  -15.6248 N   0  0  0  0  0  0  0  0  0  0  0  0
   21.8561   -7.4371  -14.9888 C   0  0  0  0  0  0  0  0  0  0  0  0
   22.3609   -7.6376  -13.7206 O   0  0  0  0  0  0  0  0  0  0  0  0
   21.3899   -6.3171  -15.2837 O   0  0  0  0  0  0  0  0  0  0  0  0
  2  5  1  0
  2  1  1  1
  3  2  1  0
  4  3  1  0
  5 12  1  0
  6  5  2  0
  7  8  1  0
  8 10  1  0
  9  8  2  0
 11 10  1  6
 11 13  1  0
 12 11  1  0
 13 14  2  0
 13 18  1  0
 15 16  1  0
 17 16  1  1
 17 19  1  0
 18 17  1  0
 19 20  1  0
 21 19  2  0
M  END
$$$$
