CNS.pdb
     RDKit          3D

 21 20  0  0  1  0  0  0  0  0999 V2000
   13.9630  -10.5252  -10.4445 N   0  0  0  0  0  0  0  0  0  0  0  0
   15.3836  -10.4554  -10.3014 C   0  0  1  0  0  0  0  0  0  0  0  0
   15.9996  -11.5812  -11.0894 C   0  0  0  0  0  0  0  0  0  0  0  0
   15.8010  -13.0997  -10.1057 S   0  0  0  0  0  0  0  0  0  0  0  0
   15.8959   -9.1338  -10.6633 C   0  0  0  0  0  0  0  0  0  0  0  0
   15.5522   -8.6522  -11.7731 O   0  0  0  0  0  0  0  0  0  0  0  0
   15.3268   -4.9434   -7.8309 N   0  0  0  0  0  0  0  0  0  0  0  0
   15.7212   -5.5119   -9.0554 C   0  0  0  0  0  0  0  0  0  0  0  0
   14.9517   -5.5627  -10.0460 O   0  0  0  0  0  0  0  0  0  0  0  0
   17.0834   -6.0705   -9.1918 C   0  0  0  0  0  0  0  0  0  0  0  0
   17.2134   -7.0385  -10.3457 C   0  0  2  0  0  0  0  0  0  0  0  0
   16.7510   -8.3495   -9.8616 N   0  0  0  0  0  0  0  0  0  0  0  0
   18.6355   -7.1192  -10.7611 C   0  0  0  0  0  0  0  0  0  0  0  0
   19.5293   -7.6006  -10.0361 O   0  0  0  0  0  0  0  0  0  0  0  0
   21.6716   -7.8119  -14.3525 O   0  0  0  0  0  0  0  0  0  0  0  0
   20.3857   -7.5163  -13.9166 C   0  0  0  0  0  0  0  0  0  0  0  0
   20.4029   -6.8875  -12.5368 C   0  0  2  0  0  0  0  0  0  0  0  0
   19.0663   -6.6369  -12.0469 N   0  0  0  0  0  0  0  0  0  0  0  0
   21.1286   -5.6024  -12.6629 C   0  0  0  0  0  0  0  0  0  0  0  0
   22.4873   -5.5014  -12.4457 O   0  0  0  0  0  0  0  0  0  0  0  0
   20.4887   -4.5772  -12.9761 O   0  0  0  0  0  0  0  0  0  0  0  0
  2  5  1  0
  2  1  1  6
  3  2  1  0
  4  3  1  0
  5 12  1  0
  6  5  2  0
  7  8  1  0
  8 10  1  0
  9  8  2  0
 11 10  1  1
 11 13  1  0
 12 11  1  0
 13 14  2  0
 13 18  1  0
 15 16  1  0
 17 16  1  6
 17 19  1  0
 18 17  1  0
 19 20  1  0
 21 19  2  0
M  END
$$$$
