CNS.pdb
     RDKit          3D

 21 20  0  0  1  0  0  0  0  0999 V2000
   14.1125  -12.5377  -11.2808 N   0  0  0  0  0  0  0  0  0  0  0  0
   15.3552  -11.8417  -11.1597 C   0  0  1  0  0  0  0  0  0  0  0  0
   16.2081  -12.1740  -12.3555 C   0  0  0  0  0  0  0  0  0  0  0  0
   16.9133  -13.8280  -12.0720 S   0  0  0  0  0  0  0  0  0  0  0  0
   15.1505  -10.4067  -10.9627 C   0  0  0  0  0  0  0  0  0  0  0  0
   14.2137   -9.8531  -11.5932 O   0  0  0  0  0  0  0  0  0  0  0  0
   14.5316   -5.6316   -8.2782 N   0  0  0  0  0  0  0  0  0  0  0  0
   15.7911   -6.2241   -8.4798 C   0  0  0  0  0  0  0  0  0  0  0  0
   16.8477   -5.5474   -8.5219 O   0  0  0  0  0  0  0  0  0  0  0  0
   15.8859   -7.6899   -8.6488 C   0  0  0  0  0  0  0  0  0  0  0  0
   15.6859   -8.1350  -10.0796 C   0  0  2  0  0  0  0  0  0  0  0  0
   15.9250   -9.5870  -10.1157 N   0  0  0  0  0  0  0  0  0  0  0  0
   16.6597   -7.4344  -10.9526 C   0  0  0  0  0  0  0  0  0  0  0  0
   17.8263   -7.8388  -11.1312 O   0  0  0  0  0  0  0  0  0  0  0  0
   17.9018   -5.5922  -14.8961 O   0  0  0  0  0  0  0  0  0  0  0  0
   16.9963   -6.1507  -14.0022 C   0  0  0  0  0  0  0  0  0  0  0  0
   17.2031   -5.6119  -12.6000 C   0  0  2  0  0  0  0  0  0  0  0  0
   16.3026   -6.2284  -11.6522 N   0  0  0  0  0  0  0  0  0  0  0  0
   16.9336   -4.1566  -12.6582 C   0  0  0  0  0  0  0  0  0  0  0  0
   17.8976   -3.2453  -13.0373 O   0  0  0  0  0  0  0  0  0  0  0  0
   15.7960   -3.7418  -12.3539 O   0  0  0  0  0  0  0  0  0  0  0  0
  2  5  1  0
  2  1  1  6
  3  2  1  0
  4  3  1  0
  5 12  1  0
  6  5  2  0
  7  8  1  0
  8 10  1  0
  9  8  2  0
 11 10  1  1
 11 13  1  0
 12 11  1  0
 13 14  2  0
 13 18  1  0
 15 16  1  0
 17 16  1  6
 17 19  1  0
 18 17  1  0
 19 20  1  0
 21 19  2  0
M  END
$$$$
