CNS.pdb
     RDKit          3D

 21 20  0  0  1  0  0  0  0  0999 V2000
   20.3357  -11.2807  -17.3377 N   0  0  0  0  0  0  0  0  0  0  0  0
   20.4187   -9.9583  -17.8742 C   0  0  1  0  0  0  0  0  0  0  0  0
   19.4454   -9.8440  -19.0176 C   0  0  0  0  0  0  0  0  0  0  0  0
   20.3344  -10.3222  -20.5323 S   0  0  0  0  0  0  0  0  0  0  0  0
   20.2302   -8.9446  -16.8365 C   0  0  0  0  0  0  0  0  0  0  0  0
   19.2196   -9.0419  -16.0943 O   0  0  0  0  0  0  0  0  0  0  0  0
   20.6968   -4.9649  -13.5243 N   0  0  0  0  0  0  0  0  0  0  0  0
   21.9696   -5.4576  -13.8638 C   0  0  0  0  0  0  0  0  0  0  0  0
   22.9974   -5.1589  -13.2078 O   0  0  0  0  0  0  0  0  0  0  0  0
   22.1137   -6.3568  -15.0287 C   0  0  0  0  0  0  0  0  0  0  0  0
   20.7924   -6.8958  -15.5276 C   0  0  2  0  0  0  0  0  0  0  0  0
   21.0972   -7.8579  -16.5991 N   0  0  0  0  0  0  0  0  0  0  0  0
   19.9759   -5.7777  -16.0612 C   0  0  0  0  0  0  0  0  0  0  0  0
   20.1867   -5.2521  -17.1728 O   0  0  0  0  0  0  0  0  0  0  0  0
   15.7892   -3.7192  -16.5999 O   0  0  0  0  0  0  0  0  0  0  0  0
   16.6223   -4.7271  -16.1300 C   0  0  0  0  0  0  0  0  0  0  0  0
   18.0212   -4.2059  -15.8636 C   0  0  2  0  0  0  0  0  0  0  0  0
   18.8771   -5.2306  -15.3098 N   0  0  0  0  0  0  0  0  0  0  0  0
   17.8855   -3.0995  -14.8882 C   0  0  0  0  0  0  0  0  0  0  0  0
   17.7200   -1.7879  -15.2830 O   0  0  0  0  0  0  0  0  0  0  0  0
   17.9222   -3.3636  -13.6685 O   0  0  0  0  0  0  0  0  0  0  0  0
  2  5  1  0
  2  1  1  1
  3  2  1  0
  4  3  1  0
  5 12  1  0
  6  5  2  0
  7  8  1  0
  8 10  1  0
  9  8  2  0
 11 10  1  6
 11 13  1  0
 12 11  1  0
 13 14  2  0
 13 18  1  0
 15 16  1  0
 17 16  1  1
 17 19  1  0
 18 17  1  0
 19 20  1  0
 21 19  2  0
M  END
$$$$
