CNS.pdb
     RDKit          3D

 21 20  0  0  1  0  0  0  0  0999 V2000
   16.7069   -9.2044  -10.6919 N   0  0  0  0  0  0  0  0  0  0  0  0
   16.3923   -8.6290  -11.9622 C   0  0  1  0  0  0  0  0  0  0  0  0
   15.1013   -7.8644  -11.8345 C   0  0  0  0  0  0  0  0  0  0  0  0
   13.7911   -9.0751  -11.4727 S   0  0  0  0  0  0  0  0  0  0  0  0
   17.5023   -7.8287  -12.4793 C   0  0  0  0  0  0  0  0  0  0  0  0
   18.0774   -7.0381  -11.6881 O   0  0  0  0  0  0  0  0  0  0  0  0
   21.5171   -7.2251  -12.9455 N   0  0  0  0  0  0  0  0  0  0  0  0
   21.3672   -7.9477  -14.1427 C   0  0  0  0  0  0  0  0  0  0  0  0
   22.2700   -8.6989  -14.5861 O   0  0  0  0  0  0  0  0  0  0  0  0
   20.1104   -7.8265  -14.9121 C   0  0  0  0  0  0  0  0  0  0  0  0
   19.0724   -6.9729  -14.2198 C   0  0  2  0  0  0  0  0  0  0  0  0
   17.9837   -7.8722  -13.8042 N   0  0  0  0  0  0  0  0  0  0  0  0
   18.5604   -5.9550  -15.1701 C   0  0  0  0  0  0  0  0  0  0  0  0
   18.1058   -6.2434  -16.2956 O   0  0  0  0  0  0  0  0  0  0  0  0
   17.2540   -2.3178  -13.8435 O   0  0  0  0  0  0  0  0  0  0  0  0
   16.9011   -2.7719  -15.1084 C   0  0  0  0  0  0  0  0  0  0  0  0
   18.0275   -3.5638  -15.7435 C   0  0  2  0  0  0  0  0  0  0  0  0
   18.5614   -4.5549  -14.8369 N   0  0  0  0  0  0  0  0  0  0  0  0
   19.0901   -2.5917  -16.0894 C   0  0  0  0  0  0  0  0  0  0  0  0
   20.3682   -2.6872  -15.5786 O   0  0  0  0  0  0  0  0  0  0  0  0
   18.8193   -1.6550  -16.8691 O   0  0  0  0  0  0  0  0  0  0  0  0
  2  5  1  0
  2  1  1  1
  3  2  1  0
  4  3  1  0
  5 12  1  0
  6  5  2  0
  7  8  1  0
  8 10  1  0
  9  8  2  0
 11 10  1  6
 11 13  1  0
 12 11  1  0
 13 14  2  0
 13 18  1  0
 15 16  1  0
 17 16  1  1
 17 19  1  0
 18 17  1  0
 19 20  1  0
 21 19  2  0
M  END
$$$$
