CNS.pdb
     RDKit          3D

 21 20  0  0  1  0  0  0  0  0999 V2000
   28.0475  -20.6390  -15.6716 N   0  0  0  0  0  0  0  0  0  0  0  0
   27.1037  -19.8080  -14.9918 C   0  0  1  0  0  0  0  0  0  0  0  0
   26.6567  -18.7218  -15.9342 C   0  0  0  0  0  0  0  0  0  0  0  0
   28.0040  -17.5015  -16.0284 S   0  0  0  0  0  0  0  0  0  0  0  0
   26.0029  -20.5919  -14.4317 C   0  0  0  0  0  0  0  0  0  0  0  0
   25.5887  -21.5802  -15.0900 O   0  0  0  0  0  0  0  0  0  0  0  0
   26.0007  -20.5481   -9.6073 N   0  0  0  0  0  0  0  0  0  0  0  0
   25.3921  -21.4380  -10.5104 C   0  0  0  0  0  0  0  0  0  0  0  0
   25.8486  -22.5878  -10.7240 O   0  0  0  0  0  0  0  0  0  0  0  0
   24.1753  -21.0168  -11.2370 C   0  0  0  0  0  0  0  0  0  0  0  0
   24.2825  -21.2088  -12.7326 C   0  0  2  0  0  0  0  0  0  0  0  0
   25.3631  -20.3268  -13.2031 N   0  0  0  0  0  0  0  0  0  0  0  0
   22.9978  -20.8284  -13.3700 C   0  0  0  0  0  0  0  0  0  0  0  0
   22.6275  -19.6442  -13.4993 O   0  0  0  0  0  0  0  0  0  0  0  0
   19.2856  -22.2241  -16.2128 O   0  0  0  0  0  0  0  0  0  0  0  0
   20.3826  -22.6093  -15.4519 C   0  0  0  0  0  0  0  0  0  0  0  0
   20.9032  -21.4578  -14.6137 C   0  0  2  0  0  0  0  0  0  0  0  0
   22.0944  -21.8249  -13.8820 N   0  0  0  0  0  0  0  0  0  0  0  0
   19.8281  -21.1065  -13.6572 C   0  0  0  0  0  0  0  0  0  0  0  0
   18.9066  -20.1138  -13.9196 O   0  0  0  0  0  0  0  0  0  0  0  0
   19.7544  -21.7298  -12.5781 O   0  0  0  0  0  0  0  0  0  0  0  0
  2  5  1  0
  2  1  1  6
  3  2  1  0
  4  3  1  0
  5 12  1  0
  6  5  2  0
  7  8  1  0
  8 10  1  0
  9  8  2  0
 11 10  1  1
 11 13  1  0
 12 11  1  0
 13 14  2  0
 13 18  1  0
 15 16  1  0
 17 16  1  1
 17 19  1  0
 18 17  1  0
 19 20  1  0
 21 19  2  0
M  END
$$$$
