CNS.pdb
     RDKit          3D

 21 20  0  0  1  0  0  0  0  0999 V2000
   14.1822  -12.1485  -11.2866 N   0  0  0  0  0  0  0  0  0  0  0  0
   14.3964  -10.7699  -11.5984 C   0  0  1  0  0  0  0  0  0  0  0  0
   14.5730  -10.0099  -10.3105 C   0  0  0  0  0  0  0  0  0  0  0  0
   12.9528   -9.9689   -9.4820 S   0  0  0  0  0  0  0  0  0  0  0  0
   15.5021  -10.5975  -12.5406 C   0  0  0  0  0  0  0  0  0  0  0  0
   16.4973  -11.3579  -12.4266 O   0  0  0  0  0  0  0  0  0  0  0  0
   15.9118  -11.7667  -16.0965 N   0  0  0  0  0  0  0  0  0  0  0  0
   15.6760  -10.4885  -16.6335 C   0  0  0  0  0  0  0  0  0  0  0  0
   15.1058  -10.3243  -17.7398 O   0  0  0  0  0  0  0  0  0  0  0  0
   16.1090   -9.2925  -15.8797 C   0  0  0  0  0  0  0  0  0  0  0  0
   16.6737   -9.6238  -14.5171 C   0  0  2  0  0  0  0  0  0  0  0  0
   15.5427   -9.6397  -13.5750 N   0  0  0  0  0  0  0  0  0  0  0  0
   17.6522   -8.5802  -14.1239 C   0  0  0  0  0  0  0  0  0  0  0  0
   17.3152   -7.4738  -13.6562 O   0  0  0  0  0  0  0  0  0  0  0  0
   22.3065   -7.3905  -13.2477 O   0  0  0  0  0  0  0  0  0  0  0  0
   21.3846   -8.3765  -13.5775 C   0  0  0  0  0  0  0  0  0  0  0  0
   20.0252   -7.7789  -13.8846 C   0  0  2  0  0  0  0  0  0  0  0  0
   19.0686   -8.7936  -14.2644 N   0  0  0  0  0  0  0  0  0  0  0  0
   20.2177   -6.8387  -15.0128 C   0  0  0  0  0  0  0  0  0  0  0  0
   20.5461   -5.5131  -14.8169 O   0  0  0  0  0  0  0  0  0  0  0  0
   20.0780   -7.2607  -16.1795 O   0  0  0  0  0  0  0  0  0  0  0  0
  2  5  1  0
  2  1  1  1
  3  2  1  0
  4  3  1  0
  5 12  1  0
  6  5  2  0
  7  8  1  0
  8 10  1  0
  9  8  2  0
 11 10  1  6
 11 13  1  0
 12 11  1  0
 13 14  2  0
 13 18  1  0
 15 16  1  0
 17 16  1  6
 17 19  1  0
 18 17  1  0
 19 20  1  0
 21 19  2  0
M  END
$$$$
