YFQ.pdb
     RDKit          3D

 33 34  0  0  1  0  0  0  0  0999 V2000
   29.7647  -15.8668  -18.0830 O   0  0  0  0  0  0  0  0  0  0  0  0
   28.9891  -16.6711  -17.2676 C   0  0  0  0  0  0  0  0  0  0  0  0
   27.6359  -16.7218  -17.4184 C   0  0  0  0  0  0  0  0  0  0  0  0
   26.9004  -17.5398  -16.5808 C   0  0  0  0  0  0  0  0  0  0  0  0
   27.5116  -18.2989  -15.6029 C   0  0  0  0  0  0  0  0  0  0  0  0
   26.6609  -19.1545  -14.7389 C   0  0  0  0  0  0  0  0  0  0  0  0
   27.5752  -19.9154  -13.8005 C   0  0  2  0  0  0  0  0  0  0  0  0
   28.3491  -20.8471  -14.5907 N   0  0  0  0  0  0  0  0  0  0  0  0
   26.6841  -20.6532  -12.8495 C   0  0  0  0  0  0  0  0  0  0  0  0
   26.3241  -21.8269  -13.0340 O   0  0  0  0  0  0  0  0  0  0  0  0
   28.8815  -18.2352  -15.4646 C   0  0  0  0  0  0  0  0  0  0  0  0
   29.6181  -17.4273  -16.2903 C   0  0  0  0  0  0  0  0  0  0  0  0
   26.2351  -19.9869  -11.6958 N   0  0  0  0  0  0  0  0  0  0  0  0
   25.2323  -20.5708  -10.7885 C   0  0  1  0  0  0  0  0  0  0  0  0
   25.2899  -19.7025   -9.5524 C   0  0  0  0  0  0  0  0  0  0  0  0
   26.4746  -19.9412   -8.7291 C   0  0  0  0  0  0  0  0  0  0  0  0
   27.0849  -18.9715   -7.9546 C   0  0  0  0  0  0  0  0  0  0  0  0
   28.1939  -19.2359   -7.1895 C   0  0  0  0  0  0  0  0  0  0  0  0
   28.7489  -20.4924   -7.1634 C   0  0  0  0  0  0  0  0  0  0  0  0
   28.1630  -21.4794   -7.9250 C   0  0  0  0  0  0  0  0  0  0  0  0
   27.0562  -21.2092   -8.6864 C   0  0  0  0  0  0  0  0  0  0  0  0
   23.8886  -20.5211  -11.4112 C   0  0  0  0  0  0  0  0  0  0  0  0
   23.6221  -19.4982  -12.1043 O   0  0  0  0  0  0  0  0  0  0  0  0
   21.2315  -24.1971  -15.0686 N   0  0  0  0  0  0  0  0  0  0  0  0
   20.0514  -23.6949  -14.4772 C   0  0  0  0  0  0  0  0  0  0  0  0
   18.9237  -23.8443  -15.0726 O   0  0  0  0  0  0  0  0  0  0  0  0
   20.0181  -22.9931  -13.1784 C   0  0  0  0  0  0  0  0  0  0  0  0
   21.3086  -22.7993  -12.4971 C   0  0  0  0  0  0  0  0  0  0  0  0
   21.6360  -21.4139  -12.0277 C   0  0  2  0  0  0  0  0  0  0  0  0
   22.9187  -21.5188  -11.2795 N   0  0  0  0  0  0  0  0  0  0  0  0
   20.6434  -20.7005  -11.2726 C   0  0  0  0  0  0  0  0  0  0  0  0
   20.6717  -20.6692   -9.8720 O   0  0  0  0  0  0  0  0  0  0  0  0
   19.7099  -20.0752  -11.8187 O   0  0  0  0  0  0  0  0  0  0  0  0
  2  1  1  0
  3  2  2  0
  4  3  1  0
  5  4  2  0
  5 11  1  0
  6  7  1  0
  6  5  1  0
  7  8  1  6
  9  7  1  0
  9 13  1  0
 10  9  2  0
 11 12  2  0
 12  2  1  0
 13 14  1  0
 15 16  1  0
 14 15  1  1
 16 17  2  0
 17 18  1  0
 19 18  2  0
 20 21  2  0
 20 19  1  0
 21 16  1  0
 22 23  2  0
 22 14  1  0
 24 25  1  0
 25 27  1  0
 26 25  2  0
 27 28  1  0
 29 28  1  1
 29 30  1  0
 29 31  1  0
 30 22  1  0
 31 32  1  0
 33 31  2  0
M  END
$$$$
