YFQ.pdb
     RDKit          3D

 33 34  0  0  1  0  0  0  0  0999 V2000
   23.7930  -17.6201  -24.9617 O   0  0  0  0  0  0  0  0  0  0  0  0
   23.6685  -18.2542  -23.7388 C   0  0  0  0  0  0  0  0  0  0  0  0
   23.1604  -17.5973  -22.6588 C   0  0  0  0  0  0  0  0  0  0  0  0
   23.0543  -18.2709  -21.4559 C   0  0  0  0  0  0  0  0  0  0  0  0
   23.4522  -19.5873  -21.3346 C   0  0  0  0  0  0  0  0  0  0  0  0
   23.3103  -20.2485  -20.0137 C   0  0  0  0  0  0  0  0  0  0  0  0
   24.2499  -19.5555  -19.0481 C   0  0  2  0  0  0  0  0  0  0  0  0
   25.6034  -19.9183  -19.4058 N   0  0  0  0  0  0  0  0  0  0  0  0
   23.9137  -20.0765  -17.6849 C   0  0  0  0  0  0  0  0  0  0  0  0
   24.6346  -20.8805  -17.0725 O   0  0  0  0  0  0  0  0  0  0  0  0
   23.9640  -20.2363  -22.4375 C   0  0  0  0  0  0  0  0  0  0  0  0
   24.0726  -19.5764  -23.6334 C   0  0  0  0  0  0  0  0  0  0  0  0
   22.7283  -19.6355  -17.0710 N   0  0  0  0  0  0  0  0  0  0  0  0
   22.3867  -19.9780  -15.6797 C   0  0  1  0  0  0  0  0  0  0  0  0
   22.3340  -18.6470  -14.9648 C   0  0  0  0  0  0  0  0  0  0  0  0
   21.3740  -17.7111  -15.5489 C   0  0  0  0  0  0  0  0  0  0  0  0
   21.6551  -16.8865  -16.6229 C   0  0  0  0  0  0  0  0  0  0  0  0
   20.7244  -16.0241  -17.1475 C   0  0  0  0  0  0  0  0  0  0  0  0
   19.4592  -15.9453  -16.6178 C   0  0  0  0  0  0  0  0  0  0  0  0
   19.1496  -16.7545  -15.5470 C   0  0  0  0  0  0  0  0  0  0  0  0
   20.0829  -17.6133  -15.0281 C   0  0  0  0  0  0  0  0  0  0  0  0
   21.0729  -20.6613  -15.6289 C   0  0  0  0  0  0  0  0  0  0  0  0
   20.2731  -20.4242  -16.5786 O   0  0  0  0  0  0  0  0  0  0  0  0
   19.4323  -26.2159  -13.2574 N   0  0  0  0  0  0  0  0  0  0  0  0
   18.1996  -25.5467  -13.4233 C   0  0  0  0  0  0  0  0  0  0  0  0
   17.1005  -26.2082  -13.3709 O   0  0  0  0  0  0  0  0  0  0  0  0
   18.0787  -24.0932  -13.6537 C   0  0  0  0  0  0  0  0  0  0  0  0
   19.3346  -23.3388  -13.7980 C   0  0  0  0  0  0  0  0  0  0  0  0
   19.2850  -22.0682  -14.5918 C   0  0  2  0  0  0  0  0  0  0  0  0
   20.6746  -21.5347  -14.6130 N   0  0  0  0  0  0  0  0  0  0  0  0
   18.3401  -21.0593  -14.2001 C   0  0  0  0  0  0  0  0  0  0  0  0
   16.9793  -21.1690  -14.5153 O   0  0  0  0  0  0  0  0  0  0  0  0
   18.6775  -20.0390  -13.5630 O   0  0  0  0  0  0  0  0  0  0  0  0
  2  1  1  0
  3  2  2  0
  4  3  1  0
  5  4  2  0
  5 11  1  0
  6  7  1  0
  6  5  1  0
  7  8  1  6
  9  7  1  0
  9 13  1  0
 10  9  2  0
 11 12  2  0
 12  2  1  0
 13 14  1  0
 15 16  1  0
 14 15  1  1
 16 17  2  0
 17 18  1  0
 19 18  2  0
 20 21  2  0
 20 19  1  0
 21 16  1  0
 22 23  2  0
 22 14  1  0
 24 25  1  0
 25 27  1  0
 26 25  2  0
 27 28  1  0
 29 28  1  1
 29 30  1  0
 29 31  1  0
 30 22  1  0
 31 32  1  0
 33 31  2  0
M  END
$$$$
