YFQ.pdb
     RDKit          3D

 33 34  0  0  1  0  0  0  0  0999 V2000
   26.5764  -14.5901  -22.1116 O   0  0  0  0  0  0  0  0  0  0  0  0
   26.2677  -15.5452  -21.1598 C   0  0  0  0  0  0  0  0  0  0  0  0
   26.2235  -15.2249  -19.8363 C   0  0  0  0  0  0  0  0  0  0  0  0
   25.9105  -16.2119  -18.9199 C   0  0  0  0  0  0  0  0  0  0  0  0
   25.6447  -17.5054  -19.3230 C   0  0  0  0  0  0  0  0  0  0  0  0
   25.3161  -18.5143  -18.2857 C   0  0  0  0  0  0  0  0  0  0  0  0
   26.6062  -18.8956  -17.5886 C   0  0  2  0  0  0  0  0  0  0  0  0
   27.4300  -19.6123  -18.5369 N   0  0  0  0  0  0  0  0  0  0  0  0
   26.2223  -19.7906  -16.4509 C   0  0  0  0  0  0  0  0  0  0  0  0
   25.9818  -21.0000  -16.5945 O   0  0  0  0  0  0  0  0  0  0  0  0
   25.6940  -17.8115  -20.6659 C   0  0  0  0  0  0  0  0  0  0  0  0
   26.0033  -16.8396  -21.5808 C   0  0  0  0  0  0  0  0  0  0  0  0
   26.1303  -19.2365  -15.1621 N   0  0  0  0  0  0  0  0  0  0  0  0
   25.7887  -20.0451  -13.9792 C   0  0  1  0  0  0  0  0  0  0  0  0
   26.4593  -19.3317  -12.8273 C   0  0  0  0  0  0  0  0  0  0  0  0
   26.1881  -19.9441  -11.5273 C   0  0  0  0  0  0  0  0  0  0  0  0
   25.1840  -19.5279  -10.6722 C   0  0  0  0  0  0  0  0  0  0  0  0
   24.9564  -20.1325   -9.4606 C   0  0  0  0  0  0  0  0  0  0  0  0
   25.7287  -21.1898   -9.0445 C   0  0  0  0  0  0  0  0  0  0  0  0
   26.7370  -21.6268   -9.8749 C   0  0  0  0  0  0  0  0  0  0  0  0
   26.9590  -21.0192  -11.0830 C   0  0  0  0  0  0  0  0  0  0  0  0
   24.3190  -20.0871  -13.7954 C   0  0  0  0  0  0  0  0  0  0  0  0
   23.6971  -18.9969  -13.9452 O   0  0  0  0  0  0  0  0  0  0  0  0
   20.4264  -25.0296  -14.6391 N   0  0  0  0  0  0  0  0  0  0  0  0
   20.0444  -23.8048  -15.2296 C   0  0  0  0  0  0  0  0  0  0  0  0
   19.1597  -23.7917  -16.1600 O   0  0  0  0  0  0  0  0  0  0  0  0
   20.6019  -22.4948  -14.8376 C   0  0  0  0  0  0  0  0  0  0  0  0
   21.5776  -22.4934  -13.7353 C   0  0  0  0  0  0  0  0  0  0  0  0
   22.1184  -21.1653  -13.2988 C   0  0  2  0  0  0  0  0  0  0  0  0
   23.5952  -21.2383  -13.4725 N   0  0  0  0  0  0  0  0  0  0  0  0
   21.7657  -20.6851  -11.9914 C   0  0  0  0  0  0  0  0  0  0  0  0
   20.6969  -19.7994  -11.8007 O   0  0  0  0  0  0  0  0  0  0  0  0
   22.3871  -21.0281  -10.9633 O   0  0  0  0  0  0  0  0  0  0  0  0
  2  1  1  0
  3  2  2  0
  4  3  1  0
  5  4  2  0
  5 11  1  0
  6  7  1  0
  6  5  1  0
  7  8  1  6
  9  7  1  0
  9 13  1  0
 10  9  2  0
 11 12  2  0
 12  2  1  0
 13 14  1  0
 15 16  1  0
 14 15  1  1
 16 17  2  0
 17 18  1  0
 19 18  2  0
 20 21  2  0
 20 19  1  0
 21 16  1  0
 22 23  2  0
 22 14  1  0
 24 25  1  0
 25 27  1  0
 26 25  2  0
 27 28  1  0
 29 28  1  1
 29 30  1  0
 29 31  1  0
 30 22  1  0
 31 32  1  0
 33 31  2  0
M  END
$$$$
