YFQ.pdb
     RDKit          3D

 33 34  0  0  1  0  0  0  0  0999 V2000
   29.5843  -15.6753  -20.4514 O   0  0  0  0  0  0  0  0  0  0  0  0
   28.8917  -16.4542  -19.5421 C   0  0  0  0  0  0  0  0  0  0  0  0
   27.6327  -16.8967  -19.8162 C   0  0  0  0  0  0  0  0  0  0  0  0
   26.9779  -17.6729  -18.8777 C   0  0  0  0  0  0  0  0  0  0  0  0
   27.5761  -18.0028  -17.6779 C   0  0  0  0  0  0  0  0  0  0  0  0
   26.8154  -18.8390  -16.7166 C   0  0  0  0  0  0  0  0  0  0  0  0
   27.6799  -20.0302  -16.3573 C   0  0  2  0  0  0  0  0  0  0  0  0
   27.8022  -20.8629  -17.5334 N   0  0  0  0  0  0  0  0  0  0  0  0
   26.9557  -20.7649  -15.2717 C   0  0  0  0  0  0  0  0  0  0  0  0
   26.1255  -21.6594  -15.4992 O   0  0  0  0  0  0  0  0  0  0  0  0
   28.8502  -17.5464  -17.4174 C   0  0  0  0  0  0  0  0  0  0  0  0
   29.5063  -16.7768  -18.3418 C   0  0  0  0  0  0  0  0  0  0  0  0
   27.2282  -20.4265  -13.9346 N   0  0  0  0  0  0  0  0  0  0  0  0
   26.4798  -21.0070  -12.8065 C   0  0  1  0  0  0  0  0  0  0  0  0
   27.2523  -20.5783  -11.5798 C   0  0  0  0  0  0  0  0  0  0  0  0
   26.4577  -20.6082  -10.3526 C   0  0  0  0  0  0  0  0  0  0  0  0
   26.1542  -19.4872   -9.6016 C   0  0  0  0  0  0  0  0  0  0  0  0
   25.3996  -19.5548   -8.4566 C   0  0  0  0  0  0  0  0  0  0  0  0
   24.9094  -20.7564   -8.0056 C   0  0  0  0  0  0  0  0  0  0  0  0
   25.1954  -21.8909   -8.7325 C   0  0  0  0  0  0  0  0  0  0  0  0
   25.9491  -21.8168   -9.8746 C   0  0  0  0  0  0  0  0  0  0  0  0
   25.0986  -20.4713  -12.7792 C   0  0  0  0  0  0  0  0  0  0  0  0
   24.9648  -19.2356  -13.0091 O   0  0  0  0  0  0  0  0  0  0  0  0
   21.6104  -19.6671  -16.5122 N   0  0  0  0  0  0  0  0  0  0  0  0
   20.5455  -20.0539  -15.6689 C   0  0  0  0  0  0  0  0  0  0  0  0
   19.3365  -19.7683  -15.9932 O   0  0  0  0  0  0  0  0  0  0  0  0
   20.7269  -20.7925  -14.4032 C   0  0  0  0  0  0  0  0  0  0  0  0
   22.1084  -21.1378  -14.0300 C   0  0  0  0  0  0  0  0  0  0  0  0
   22.6054  -20.6445  -12.7047 C   0  0  2  0  0  0  0  0  0  0  0  0
   23.9585  -21.2369  -12.5194 N   0  0  0  0  0  0  0  0  0  0  0  0
   21.7774  -20.8522  -11.5490 C   0  0  0  0  0  0  0  0  0  0  0  0
   22.2129  -21.6277  -10.4663 O   0  0  0  0  0  0  0  0  0  0  0  0
   20.6349  -20.3570  -11.4477 O   0  0  0  0  0  0  0  0  0  0  0  0
  2  1  1  0
  3  2  2  0
  4  3  1  0
  5  4  2  0
  5 11  1  0
  6  7  1  0
  6  5  1  0
  7  8  1  6
  9  7  1  0
  9 13  1  0
 10  9  2  0
 11 12  2  0
 12  2  1  0
 13 14  1  0
 15 16  1  0
 14 15  1  1
 16 17  2  0
 17 18  1  0
 19 18  2  0
 20 21  2  0
 20 19  1  0
 21 16  1  0
 22 23  2  0
 22 14  1  0
 24 25  1  0
 25 27  1  0
 26 25  2  0
 27 28  1  0
 29 28  1  6
 29 30  1  0
 29 31  1  0
 30 22  1  0
 31 32  1  0
 33 31  2  0
M  END
$$$$
