YFQ.pdb
     RDKit          3D

 33 34  0  0  1  0  0  0  0  0999 V2000
   12.6360  -23.8144    1.3702 O   0  0  0  0  0  0  0  0  0  0  0  0
   13.5804  -22.9526    1.8980 C   0  0  0  0  0  0  0  0  0  0  0  0
   13.2195  -21.7317    2.3832 C   0  0  0  0  0  0  0  0  0  0  0  0
   14.1974  -20.9029    2.9016 C   0  0  0  0  0  0  0  0  0  0  0  0
   15.5219  -21.2910    2.9343 C   0  0  0  0  0  0  0  0  0  0  0  0
   16.5188  -20.3512    3.5045 C   0  0  0  0  0  0  0  0  0  0  0  0
   16.7306  -19.2381    2.4987 C   0  0  2  0  0  0  0  0  0  0  0  0
   17.3050  -19.8192    1.3054 N   0  0  0  0  0  0  0  0  0  0  0  0
   17.6943  -18.2794    3.1272 C   0  0  0  0  0  0  0  0  0  0  0  0
   18.9247  -18.4422    3.0982 O   0  0  0  0  0  0  0  0  0  0  0  0
   15.8689  -22.5296    2.4392 C   0  0  0  0  0  0  0  0  0  0  0  0
   14.9064  -23.3572    1.9237 C   0  0  0  0  0  0  0  0  0  0  0  0
   17.1828  -17.1439    3.7796 N   0  0  0  0  0  0  0  0  0  0  0  0
   18.0542  -16.1413    4.4162 C   0  0  1  0  0  0  0  0  0  0  0  0
   17.3389  -14.8271    4.2001 C   0  0  0  0  0  0  0  0  0  0  0  0
   18.0256  -13.6856    4.8034 C   0  0  0  0  0  0  0  0  0  0  0  0
   17.7010  -13.1536    6.0379 C   0  0  0  0  0  0  0  0  0  0  0  0
   18.3735  -12.0833    6.5741 C   0  0  0  0  0  0  0  0  0  0  0  0
   19.4102  -11.4904    5.8949 C   0  0  0  0  0  0  0  0  0  0  0  0
   19.7566  -11.9983    4.6622 C   0  0  0  0  0  0  0  0  0  0  0  0
   19.0815  -13.0668    4.1326 C   0  0  0  0  0  0  0  0  0  0  0  0
   18.2015  -16.4353    5.8610 C   0  0  0  0  0  0  0  0  0  0  0  0
   17.1945  -16.9273    6.4454 O   0  0  0  0  0  0  0  0  0  0  0  0
   22.4271  -19.2866   11.0620 N   0  0  0  0  0  0  0  0  0  0  0  0
   22.0604  -18.7166    9.8229 C   0  0  0  0  0  0  0  0  0  0  0  0
   22.7798  -18.9322    8.7816 O   0  0  0  0  0  0  0  0  0  0  0  0
   20.8673  -17.8680    9.6302 C   0  0  0  0  0  0  0  0  0  0  0  0
   20.6213  -17.3710    8.2665 C   0  0  0  0  0  0  0  0  0  0  0  0
   19.4008  -16.5274    8.0530 C   0  0  2  0  0  0  0  0  0  0  0  0
   19.3652  -16.2049    6.6001 N   0  0  0  0  0  0  0  0  0  0  0  0
   19.2414  -15.3479    8.8577 C   0  0  0  0  0  0  0  0  0  0  0  0
   18.5404  -15.3784   10.0705 O   0  0  0  0  0  0  0  0  0  0  0  0
   19.7148  -14.2414    8.5228 O   0  0  0  0  0  0  0  0  0  0  0  0
  2  1  1  0
  3  2  2  0
  4  3  1  0
  5  4  2  0
  5 11  1  0
  6  7  1  0
  6  5  1  0
  7  8  1  6
  9  7  1  0
  9 13  1  0
 10  9  2  0
 11 12  2  0
 12  2  1  0
 13 14  1  0
 15 16  1  0
 14 15  1  1
 16 17  2  0
 17 18  1  0
 19 18  2  0
 20 21  2  0
 20 19  1  0
 21 16  1  0
 22 23  2  0
 22 14  1  0
 24 25  1  0
 25 27  1  0
 26 25  2  0
 27 28  1  0
 29 28  1  1
 29 30  1  0
 29 31  1  0
 30 22  1  0
 31 32  1  0
 33 31  2  0
M  END
$$$$
