YFQ.pdb
     RDKit          3D

 33 34  0  0  1  0  0  0  0  0999 V2000
   28.9107  -17.2760  -22.2926 O   0  0  0  0  0  0  0  0  0  0  0  0
   28.3064  -18.0263  -21.3000 C   0  0  0  0  0  0  0  0  0  0  0  0
   28.1254  -17.5159  -20.0498 C   0  0  0  0  0  0  0  0  0  0  0  0
   27.5166  -18.3019  -19.0888 C   0  0  0  0  0  0  0  0  0  0  0  0
   27.0934  -19.5844  -19.3751 C   0  0  0  0  0  0  0  0  0  0  0  0
   26.4479  -20.3721  -18.2958 C   0  0  0  0  0  0  0  0  0  0  0  0
   27.5411  -20.8739  -17.3746 C   0  0  2  0  0  0  0  0  0  0  0  0
   28.2377  -21.9451  -18.0520 N   0  0  0  0  0  0  0  0  0  0  0  0
   26.8547  -21.3920  -16.1485 C   0  0  0  0  0  0  0  0  0  0  0  0
   26.3723  -22.5335  -16.0761 O   0  0  0  0  0  0  0  0  0  0  0  0
   27.2847  -20.0845  -20.6452 C   0  0  0  0  0  0  0  0  0  0  0  0
   27.8871  -19.3126  -21.6035 C   0  0  0  0  0  0  0  0  0  0  0  0
   26.7521  -20.5477  -15.0290 N   0  0  0  0  0  0  0  0  0  0  0  0
   26.0899  -20.9688  -13.7825 C   0  0  1  0  0  0  0  0  0  0  0  0
   26.7301  -20.1189  -12.7086 C   0  0  0  0  0  0  0  0  0  0  0  0
   26.1625  -20.3378  -11.3788 C   0  0  0  0  0  0  0  0  0  0  0  0
   26.6316  -21.2832  -10.4850 C   0  0  0  0  0  0  0  0  0  0  0  0
   26.0752  -21.4552   -9.2416 C   0  0  0  0  0  0  0  0  0  0  0  0
   25.0152  -20.6837   -8.8310 C   0  0  0  0  0  0  0  0  0  0  0  0
   24.5257  -19.7334   -9.6997 C   0  0  0  0  0  0  0  0  0  0  0  0
   25.0855  -19.5666  -10.9394 C   0  0  0  0  0  0  0  0  0  0  0  0
   24.6329  -20.7123  -13.8655 C   0  0  0  0  0  0  0  0  0  0  0  0
   24.2797  -19.5949  -14.3392 O   0  0  0  0  0  0  0  0  0  0  0  0
   19.9691  -24.6730  -15.2010 N   0  0  0  0  0  0  0  0  0  0  0  0
   19.8209  -23.3679  -15.7201 C   0  0  0  0  0  0  0  0  0  0  0  0
   18.9953  -23.1508  -16.6790 O   0  0  0  0  0  0  0  0  0  0  0  0
   20.5662  -22.1955  -15.2195 C   0  0  0  0  0  0  0  0  0  0  0  0
   21.4914  -22.4282  -14.0983 C   0  0  0  0  0  0  0  0  0  0  0  0
   22.2095  -21.2358  -13.5419 C   0  0  2  0  0  0  0  0  0  0  0  0
   23.6466  -21.6153  -13.4588 N   0  0  0  0  0  0  0  0  0  0  0  0
   21.7404  -20.6774  -12.3040 C   0  0  0  0  0  0  0  0  0  0  0  0
   22.1792  -21.1677  -11.0670 O   0  0  0  0  0  0  0  0  0  0  0  0
   20.9235  -19.7331  -12.2639 O   0  0  0  0  0  0  0  0  0  0  0  0
  2  1  1  0
  3  2  2  0
  4  3  1  0
  5  4  2  0
  5 11  1  0
  6  7  1  0
  6  5  1  0
  7  8  1  6
  9  7  1  0
  9 13  1  0
 10  9  2  0
 11 12  2  0
 12  2  1  0
 13 14  1  0
 15 16  1  0
 14 15  1  1
 16 17  2  0
 17 18  1  0
 19 18  2  0
 20 21  2  0
 20 19  1  0
 21 16  1  0
 22 23  2  0
 22 14  1  0
 24 25  1  0
 25 27  1  0
 26 25  2  0
 27 28  1  0
 29 28  1  1
 29 30  1  0
 29 31  1  0
 30 22  1  0
 31 32  1  0
 33 31  2  0
M  END
$$$$
