YFQ.pdb
     RDKit          3D

 33 34  0  0  1  0  0  0  0  0999 V2000
   22.8411  -17.6601  -17.5230 O   0  0  0  0  0  0  0  0  0  0  0  0
   23.1077  -18.3300  -16.3425 C   0  0  0  0  0  0  0  0  0  0  0  0
   23.6280  -17.6736  -15.2679 C   0  0  0  0  0  0  0  0  0  0  0  0
   23.8785  -18.3836  -14.1082 C   0  0  0  0  0  0  0  0  0  0  0  0
   23.6116  -19.7355  -14.0242 C   0  0  0  0  0  0  0  0  0  0  0  0
   23.9054  -20.4349  -12.7487 C   0  0  0  0  0  0  0  0  0  0  0  0
   25.4058  -20.4031  -12.5407 C   0  0  2  0  0  0  0  0  0  0  0  0
   26.0107  -21.2719  -13.5261 N   0  0  0  0  0  0  0  0  0  0  0  0
   25.6516  -20.9299  -11.1605 C   0  0  0  0  0  0  0  0  0  0  0  0
   25.4973  -22.1234  -10.8558 O   0  0  0  0  0  0  0  0  0  0  0  0
   23.0855  -20.3834  -15.1210 C   0  0  0  0  0  0  0  0  0  0  0  0
   22.8341  -19.6876  -16.2742 C   0  0  0  0  0  0  0  0  0  0  0  0
   26.0761  -20.0325  -10.1650 N   0  0  0  0  0  0  0  0  0  0  0  0
   26.3125  -20.4534   -8.7734 C   0  0  1  0  0  0  0  0  0  0  0  0
   27.2035  -19.3758   -8.1987 C   0  0  0  0  0  0  0  0  0  0  0  0
   27.6009  -19.6274   -6.8141 C   0  0  0  0  0  0  0  0  0  0  0  0
   27.3629  -18.7511   -5.7710 C   0  0  0  0  0  0  0  0  0  0  0  0
   27.7468  -19.0256   -4.4816 C   0  0  0  0  0  0  0  0  0  0  0  0
   28.3920  -20.1986   -4.1730 C   0  0  0  0  0  0  0  0  0  0  0  0
   28.6433  -21.0915   -5.1913 C   0  0  0  0  0  0  0  0  0  0  0  0
   28.2575  -20.8117   -6.4762 C   0  0  0  0  0  0  0  0  0  0  0  0
   25.0289  -20.5307   -8.0373 C   0  0  0  0  0  0  0  0  0  0  0  0
   24.2990  -19.4990   -8.0597 O   0  0  0  0  0  0  0  0  0  0  0  0
   21.2891  -24.5769   -4.9043 N   0  0  0  0  0  0  0  0  0  0  0  0
   20.5295  -23.7350   -5.7464 C   0  0  0  0  0  0  0  0  0  0  0  0
   19.2547  -23.6726   -5.6070 O   0  0  0  0  0  0  0  0  0  0  0  0
   21.1146  -22.8890   -6.8059 C   0  0  0  0  0  0  0  0  0  0  0  0
   22.5825  -22.8889   -6.9182 C   0  0  0  0  0  0  0  0  0  0  0  0
   23.2958  -21.6109   -6.5946 C   0  0  2  0  0  0  0  0  0  0  0  0
   24.5872  -21.6549   -7.3339 N   0  0  0  0  0  0  0  0  0  0  0  0
   23.4924  -21.2745   -5.2117 C   0  0  0  0  0  0  0  0  0  0  0  0
   22.5781  -20.4721   -4.5164 O   0  0  0  0  0  0  0  0  0  0  0  0
   24.4801  -21.6755   -4.5603 O   0  0  0  0  0  0  0  0  0  0  0  0
  2  1  1  0
  3  2  2  0
  4  3  1  0
  5  4  2  0
  5 11  1  0
  6  7  1  0
  6  5  1  0
  7  8  1  6
  9  7  1  0
  9 13  1  0
 10  9  2  0
 11 12  2  0
 12  2  1  0
 13 14  1  0
 15 16  1  0
 14 15  1  1
 16 17  2  0
 17 18  1  0
 19 18  2  0
 20 21  2  0
 20 19  1  0
 21 16  1  0
 22 23  2  0
 22 14  1  0
 24 25  1  0
 25 27  1  0
 26 25  2  0
 27 28  1  0
 29 28  1  1
 29 30  1  0
 29 31  1  0
 30 22  1  0
 31 32  1  0
 33 31  2  0
M  END
$$$$
