YFQ.pdb
     RDKit          3D

 33 34  0  0  1  0  0  0  0  0999 V2000
   28.8885  -17.2929  -21.7704 O   0  0  0  0  0  0  0  0  0  0  0  0
   28.2616  -18.0417  -20.7908 C   0  0  0  0  0  0  0  0  0  0  0  0
   27.7814  -19.2874  -21.0627 C   0  0  0  0  0  0  0  0  0  0  0  0
   27.1618  -19.9999  -20.0526 C   0  0  0  0  0  0  0  0  0  0  0  0
   27.0239  -19.4722  -18.7843 C   0  0  0  0  0  0  0  0  0  0  0  0
   26.3480  -20.2921  -17.7485 C   0  0  0  0  0  0  0  0  0  0  0  0
   27.4222  -20.9955  -16.9442 C   0  0  2  0  0  0  0  0  0  0  0  0
   27.8616  -22.1479  -17.6995 N   0  0  0  0  0  0  0  0  0  0  0  0
   26.7759  -21.4270  -15.6639 C   0  0  0  0  0  0  0  0  0  0  0  0
   26.0554  -22.4342  -15.5771 O   0  0  0  0  0  0  0  0  0  0  0  0
   27.5156  -18.2106  -18.5271 C   0  0  0  0  0  0  0  0  0  0  0  0
   28.1311  -17.4975  -19.5222 C   0  0  0  0  0  0  0  0  0  0  0  0
   26.9951  -20.6570  -14.5082 N   0  0  0  0  0  0  0  0  0  0  0  0
   26.4062  -21.0074  -13.2043 C   0  0  1  0  0  0  0  0  0  0  0  0
   27.1812  -20.1794  -12.2048 C   0  0  0  0  0  0  0  0  0  0  0  0
   26.6325  -20.2392  -10.8506 C   0  0  0  0  0  0  0  0  0  0  0  0
   25.8187  -19.2640  -10.3035 C   0  0  0  0  0  0  0  0  0  0  0  0
   25.3176  -19.3586   -9.0287 C   0  0  0  0  0  0  0  0  0  0  0  0
   25.6096  -20.4415   -8.2352 C   0  0  0  0  0  0  0  0  0  0  0  0
   26.4182  -21.4293   -8.7528 C   0  0  0  0  0  0  0  0  0  0  0  0
   26.9151  -21.3291  -10.0259 C   0  0  0  0  0  0  0  0  0  0  0  0
   24.9666  -20.6571  -13.1825 C   0  0  0  0  0  0  0  0  0  0  0  0
   24.6250  -19.6215  -13.8217 O   0  0  0  0  0  0  0  0  0  0  0  0
   20.5422  -23.8130  -15.3570 N   0  0  0  0  0  0  0  0  0  0  0  0
   19.8344  -22.7827  -14.6997 C   0  0  0  0  0  0  0  0  0  0  0  0
   18.5743  -22.6426  -14.9015 O   0  0  0  0  0  0  0  0  0  0  0  0
   20.4574  -21.8275  -13.7615 C   0  0  0  0  0  0  0  0  0  0  0  0
   21.9091  -21.9555  -13.5527 C   0  0  0  0  0  0  0  0  0  0  0  0
   22.5552  -20.9862  -12.6095 C   0  0  2  0  0  0  0  0  0  0  0  0
   23.9846  -21.3900  -12.5102 N   0  0  0  0  0  0  0  0  0  0  0  0
   21.9674  -20.8083  -11.3106 C   0  0  0  0  0  0  0  0  0  0  0  0
   22.4817  -21.4557  -10.1795 O   0  0  0  0  0  0  0  0  0  0  0  0
   20.9750  -20.0734  -11.1211 O   0  0  0  0  0  0  0  0  0  0  0  0
  2  1  1  0
  3  2  2  0
  4  3  1  0
  5  4  2  0
  5 11  1  0
  6  7  1  0
  6  5  1  0
  7  8  1  6
  9  7  1  0
  9 13  1  0
 10  9  2  0
 11 12  2  0
 12  2  1  0
 13 14  1  0
 15 16  1  0
 14 15  1  1
 16 17  2  0
 17 18  1  0
 19 18  2  0
 20 21  2  0
 20 19  1  0
 21 16  1  0
 22 23  2  0
 22 14  1  0
 24 25  1  0
 25 27  1  0
 26 25  2  0
 27 28  1  0
 29 28  1  1
 29 30  1  0
 29 31  1  0
 30 22  1  0
 31 32  1  0
 33 31  2  0
M  END
$$$$
