YFQ.pdb
     RDKit          3D

 33 34  0  0  1  0  0  0  0  0999 V2000
   29.1196  -18.8720  -22.5798 O   0  0  0  0  0  0  0  0  0  0  0  0
   28.4205  -19.4999  -21.5648 C   0  0  0  0  0  0  0  0  0  0  0  0
   28.0391  -20.8027  -21.6803 C   0  0  0  0  0  0  0  0  0  0  0  0
   27.3419  -21.3897  -20.6405 C   0  0  0  0  0  0  0  0  0  0  0  0
   27.0294  -20.6812  -19.4975 C   0  0  0  0  0  0  0  0  0  0  0  0
   26.2787  -21.3738  -18.4210 C   0  0  0  0  0  0  0  0  0  0  0  0
   27.2702  -21.7585  -17.3419 C   0  0  2  0  0  0  0  0  0  0  0  0
   28.0146  -22.9068  -17.8096 N   0  0  0  0  0  0  0  0  0  0  0  0
   26.4608  -22.1186  -16.1344 C   0  0  0  0  0  0  0  0  0  0  0  0
   25.9896  -23.2524  -15.9508 O   0  0  0  0  0  0  0  0  0  0  0  0
   27.4232  -19.3641  -19.3978 C   0  0  0  0  0  0  0  0  0  0  0  0
   28.1145  -18.7746  -20.4233 C   0  0  0  0  0  0  0  0  0  0  0  0
   26.2238  -21.1283  -15.1650 N   0  0  0  0  0  0  0  0  0  0  0  0
   25.5129  -21.4116  -13.9064 C   0  0  1  0  0  0  0  0  0  0  0  0
   26.0671  -20.4047  -12.9244 C   0  0  0  0  0  0  0  0  0  0  0  0
   25.4624  -20.4948  -11.5960 C   0  0  0  0  0  0  0  0  0  0  0  0
   26.0054  -21.2149  -10.5475 C   0  0  0  0  0  0  0  0  0  0  0  0
   25.4102  -21.2708   -9.3115 C   0  0  0  0  0  0  0  0  0  0  0  0
   24.2346  -20.6040   -9.0646 C   0  0  0  0  0  0  0  0  0  0  0  0
   23.6694  -19.8782  -10.0898 C   0  0  0  0  0  0  0  0  0  0  0  0
   24.2685  -19.8262  -11.3212 C   0  0  0  0  0  0  0  0  0  0  0  0
   24.0541  -21.2276  -14.0903 C   0  0  0  0  0  0  0  0  0  0  0  0
   23.6893  -20.2175  -14.7568 O   0  0  0  0  0  0  0  0  0  0  0  0
   19.4183  -25.5878  -14.0545 N   0  0  0  0  0  0  0  0  0  0  0  0
   18.7532  -24.3432  -13.9969 C   0  0  0  0  0  0  0  0  0  0  0  0
   17.4699  -24.3032  -13.9929 O   0  0  0  0  0  0  0  0  0  0  0  0
   19.4491  -23.0423  -13.9324 C   0  0  0  0  0  0  0  0  0  0  0  0
   20.9151  -23.0812  -13.8036 C   0  0  0  0  0  0  0  0  0  0  0  0
   21.6354  -21.7674  -13.7586 C   0  0  2  0  0  0  0  0  0  0  0  0
   23.0781  -22.0882  -13.5801 N   0  0  0  0  0  0  0  0  0  0  0  0
   21.1941  -20.7832  -12.8095 C   0  0  0  0  0  0  0  0  0  0  0  0
   20.4361  -19.6731  -13.2049 O   0  0  0  0  0  0  0  0  0  0  0  0
   21.4596  -20.8632  -11.5913 O   0  0  0  0  0  0  0  0  0  0  0  0
  2  1  1  0
  3  2  2  0
  4  3  1  0
  5  4  2  0
  5 11  1  0
  6  7  1  0
  6  5  1  0
  7  8  1  6
  9  7  1  0
  9 13  1  0
 10  9  2  0
 11 12  2  0
 12  2  1  0
 13 14  1  0
 15 16  1  0
 14 15  1  1
 16 17  2  0
 17 18  1  0
 19 18  2  0
 20 21  2  0
 20 19  1  0
 21 16  1  0
 22 23  2  0
 22 14  1  0
 24 25  1  0
 25 27  1  0
 26 25  2  0
 27 28  1  0
 29 28  1  1
 29 30  1  0
 29 31  1  0
 30 22  1  0
 31 32  1  0
 33 31  2  0
M  END
$$$$
