YFQ.pdb
     RDKit          3D

 33 34  0  0  1  0  0  0  0  0999 V2000
   29.7841  -16.2249  -20.0560 O   0  0  0  0  0  0  0  0  0  0  0  0
   29.0445  -16.9204  -19.1166 C   0  0  0  0  0  0  0  0  0  0  0  0
   29.5678  -17.2163  -17.8940 C   0  0  0  0  0  0  0  0  0  0  0  0
   28.7923  -17.9135  -16.9860 C   0  0  0  0  0  0  0  0  0  0  0  0
   27.5072  -18.3104  -17.2976 C   0  0  0  0  0  0  0  0  0  0  0  0
   26.7314  -19.0556  -16.2754 C   0  0  0  0  0  0  0  0  0  0  0  0
   27.4636  -20.3523  -15.9961 C   0  0  2  0  0  0  0  0  0  0  0  0
   27.3949  -21.1685  -17.1880 N   0  0  0  0  0  0  0  0  0  0  0  0
   26.7338  -21.0143  -14.8683 C   0  0  0  0  0  0  0  0  0  0  0  0
   25.7452  -21.7452  -15.0403 O   0  0  0  0  0  0  0  0  0  0  0  0
   26.9939  -18.0024  -18.5391 C   0  0  0  0  0  0  0  0  0  0  0  0
   27.7555  -17.3119  -19.4449 C   0  0  0  0  0  0  0  0  0  0  0  0
   27.1887  -20.7986  -13.5556 N   0  0  0  0  0  0  0  0  0  0  0  0
   26.3678  -21.1173  -12.3748 C   0  0  1  0  0  0  0  0  0  0  0  0
   27.2113  -20.6799  -11.1989 C   0  0  0  0  0  0  0  0  0  0  0  0
   26.4702  -20.6280   -9.9393 C   0  0  0  0  0  0  0  0  0  0  0  0
   26.4615  -19.5342   -9.0931 C   0  0  0  0  0  0  0  0  0  0  0  0
   25.7478  -19.5213   -7.9202 C   0  0  0  0  0  0  0  0  0  0  0  0
   25.0040  -20.6105   -7.5358 C   0  0  0  0  0  0  0  0  0  0  0  0
   24.9933  -21.7154   -8.3583 C   0  0  0  0  0  0  0  0  0  0  0  0
   25.7076  -21.7220   -9.5278 C   0  0  0  0  0  0  0  0  0  0  0  0
   25.0911  -20.3668  -12.4218 C   0  0  0  0  0  0  0  0  0  0  0  0
   25.1658  -19.1375  -12.7062 O   0  0  0  0  0  0  0  0  0  0  0  0
   22.9831  -19.1208  -16.5329 N   0  0  0  0  0  0  0  0  0  0  0  0
   21.9646  -19.9778  -16.0608 C   0  0  0  0  0  0  0  0  0  0  0  0
   21.2082  -20.5932  -16.8959 O   0  0  0  0  0  0  0  0  0  0  0  0
   21.7019  -20.2308  -14.6298 C   0  0  0  0  0  0  0  0  0  0  0  0
   22.5764  -19.5447  -13.6645 C   0  0  0  0  0  0  0  0  0  0  0  0
   22.6117  -20.0837  -12.2663 C   0  0  2  0  0  0  0  0  0  0  0  0
   23.8348  -20.9274  -12.1749 N   0  0  0  0  0  0  0  0  0  0  0  0
   21.4542  -20.7806  -11.7778 C   0  0  0  0  0  0  0  0  0  0  0  0
   20.2326  -20.1230  -11.5814 O   0  0  0  0  0  0  0  0  0  0  0  0
   21.4739  -21.9995  -11.5044 O   0  0  0  0  0  0  0  0  0  0  0  0
  2  1  1  0
  3  2  2  0
  4  3  1  0
  5  4  2  0
  5 11  1  0
  6  7  1  0
  6  5  1  0
  7  8  1  6
  9  7  1  0
  9 13  1  0
 10  9  2  0
 11 12  2  0
 12  2  1  0
 13 14  1  0
 15 16  1  0
 14 15  1  1
 16 17  2  0
 17 18  1  0
 19 18  2  0
 20 21  2  0
 20 19  1  0
 21 16  1  0
 22 23  2  0
 22 14  1  0
 24 25  1  0
 25 27  1  0
 26 25  2  0
 27 28  1  0
 29 28  1  6
 29 30  1  0
 29 31  1  0
 30 22  1  0
 31 32  1  0
 33 31  2  0
M  END
$$$$
