YFQ.pdb
     RDKit          3D

 33 34  0  0  1  0  0  0  0  0999 V2000
   16.2419  -26.5983  -13.6707 O   0  0  0  0  0  0  0  0  0  0  0  0
   17.1855  -25.6063  -13.8675 C   0  0  0  0  0  0  0  0  0  0  0  0
   16.8676  -24.4608  -14.5333 C   0  0  0  0  0  0  0  0  0  0  0  0
   17.8428  -23.4961  -14.7067 C   0  0  0  0  0  0  0  0  0  0  0  0
   19.1222  -23.6751  -14.2196 C   0  0  0  0  0  0  0  0  0  0  0  0
   20.1191  -22.5986  -14.4420 C   0  0  0  0  0  0  0  0  0  0  0  0
   20.4278  -21.9715  -13.0978 C   0  0  2  0  0  0  0  0  0  0  0  0
   19.2473  -21.2633  -12.6548 N   0  0  0  0  0  0  0  0  0  0  0  0
   21.5549  -21.0128  -13.3284 C   0  0  0  0  0  0  0  0  0  0  0  0
   21.3784  -19.8332  -13.6729 O   0  0  0  0  0  0  0  0  0  0  0  0
   19.4261  -24.8401  -13.5487 C   0  0  0  0  0  0  0  0  0  0  0  0
   18.4658  -25.8013  -13.3722 C   0  0  0  0  0  0  0  0  0  0  0  0
   22.8723  -21.4688  -13.1466 N   0  0  0  0  0  0  0  0  0  0  0  0
   24.0453  -20.6517  -13.5021 C   0  0  1  0  0  0  0  0  0  0  0  0
   25.1639  -21.2051  -12.6491 C   0  0  0  0  0  0  0  0  0  0  0  0
   26.4776  -20.6592  -12.9877 C   0  0  0  0  0  0  0  0  0  0  0  0
   26.8770  -19.3686  -12.6922 C   0  0  0  0  0  0  0  0  0  0  0  0
   28.1224  -18.8937  -13.0217 C   0  0  0  0  0  0  0  0  0  0  0  0
   29.0336  -19.6938  -13.6675 C   0  0  0  0  0  0  0  0  0  0  0  0
   28.6644  -20.9846  -13.9754 C   0  0  0  0  0  0  0  0  0  0  0  0
   27.4199  -21.4527  -13.6437 C   0  0  0  0  0  0  0  0  0  0  0  0
   24.3532  -20.7990  -14.9440 C   0  0  0  0  0  0  0  0  0  0  0  0
   24.0420  -21.9002  -15.4810 O   0  0  0  0  0  0  0  0  0  0  0  0
   21.7254  -20.1316  -19.8494 N   0  0  0  0  0  0  0  0  0  0  0  0
   21.4831  -19.3551  -18.6948 C   0  0  0  0  0  0  0  0  0  0  0  0
   20.4841  -18.5493  -18.6638 O   0  0  0  0  0  0  0  0  0  0  0  0
   22.3188  -19.4091  -17.4785 C   0  0  0  0  0  0  0  0  0  0  0  0
   23.4296  -20.3752  -17.4805 C   0  0  0  0  0  0  0  0  0  0  0  0
   24.8039  -19.8418  -17.2095 C   0  0  2  0  0  0  0  0  0  0  0  0
   24.9555  -19.8117  -15.7288 N   0  0  0  0  0  0  0  0  0  0  0  0
   25.1741  -18.5863  -17.8018 C   0  0  0  0  0  0  0  0  0  0  0  0
   25.1188  -17.3895  -17.0752 O   0  0  0  0  0  0  0  0  0  0  0  0
   25.5617  -18.4944  -18.9859 O   0  0  0  0  0  0  0  0  0  0  0  0
  2  1  1  0
  3  2  2  0
  4  3  1  0
  5  4  2  0
  5 11  1  0
  6  7  1  0
  6  5  1  0
  7  8  1  6
  9  7  1  0
  9 13  1  0
 10  9  2  0
 11 12  2  0
 12  2  1  0
 13 14  1  0
 15 16  1  0
 14 15  1  1
 16 17  2  0
 17 18  1  0
 19 18  2  0
 20 21  2  0
 20 19  1  0
 21 16  1  0
 22 23  2  0
 22 14  1  0
 24 25  1  0
 25 27  1  0
 26 25  2  0
 27 28  1  0
 29 28  1  1
 29 30  1  0
 29 31  1  0
 30 22  1  0
 31 32  1  0
 33 31  2  0
M  END
$$$$
