LHY.pdb
     RDKit          3D

 31 32  0  0  1  0  0  0  0  0999 V2000
    7.6884  -12.1321   20.0949 C   0  0  0  0  0  0  0  0  0  0  0  0
    7.7285  -13.4101   19.2436 C   0  0  1  0  0  0  0  0  0  0  0  0
    8.6586  -13.1399   18.0970 C   0  0  0  0  0  0  0  0  0  0  0  0
    8.2406  -14.4912   20.1349 C   0  0  0  0  0  0  0  0  0  0  0  0
    8.2813  -15.8563   19.5279 C   0  0  2  0  0  0  0  0  0  0  0  0
    6.9254  -16.2570   19.2083 N   0  0  0  0  0  0  0  0  0  0  0  0
    8.8611  -16.7670   20.5813 C   0  0  0  0  0  0  0  0  0  0  0  0
    8.1416  -17.1087   21.5665 O   0  0  0  0  0  0  0  0  0  0  0  0
   10.1927  -17.1968   20.4121 N   0  0  0  0  0  0  0  0  0  0  0  0
   10.8102  -18.0294   21.4247 C   0  0  1  0  0  0  0  0  0  0  0  0
   12.1037  -18.6037   20.9723 C   0  0  0  0  0  0  0  0  0  0  0  0
   12.6437  -19.5997   21.9203 C   0  0  0  0  0  0  0  0  0  0  0  0
   12.0706  -19.9848   23.1412 C   0  0  0  0  0  0  0  0  0  0  0  0
   12.8584  -20.9084   23.7075 N   0  0  0  0  0  0  0  0  0  0  0  0
   13.9015  -21.1354   22.9190 C   0  0  0  0  0  0  0  0  0  0  0  0
   13.7736  -20.3518   21.8481 N   0  0  0  0  0  0  0  0  0  0  0  0
   11.0511  -17.2577   22.6749 C   0  0  0  0  0  0  0  0  0  0  0  0
   11.3345  -16.0360   22.6786 O   0  0  0  0  0  0  0  0  0  0  0  0
    9.5170  -13.1105   29.9963 O   0  0  0  0  0  0  0  0  0  0  0  0
    9.6349  -13.8261   28.8013 C   0  0  0  0  0  0  0  0  0  0  0  0
   10.8080  -14.4327   28.4179 C   0  0  0  0  0  0  0  0  0  0  0  0
   10.9052  -15.1300   27.2432 C   0  0  0  0  0  0  0  0  0  0  0  0
    9.8197  -15.2588   26.3792 C   0  0  0  0  0  0  0  0  0  0  0  0
    9.9132  -15.9915   25.1058 C   0  0  0  0  0  0  0  0  0  0  0  0
   10.9746  -17.0462   25.1831 C   0  0  2  0  0  0  0  0  0  0  0  0
   10.9735  -17.8687   23.9610 N   0  0  0  0  0  0  0  0  0  0  0  0
   10.8651  -17.9625   26.3233 C   0  0  0  0  0  0  0  0  0  0  0  0
   11.7003  -17.9172   27.2473 O   0  0  0  0  0  0  0  0  0  0  0  0
    8.6550  -14.6504   26.7705 C   0  0  0  0  0  0  0  0  0  0  0  0
    8.5514  -13.9447   27.9566 C   0  0  0  0  0  0  0  0  0  0  0  0
    9.8426  -18.8821   26.3895 O   0  0  0  0  0  0  0  0  0  0  0  0
  2  1  1  1
  3  2  1  0
  4  5  1  0
  4  2  1  0
  5  6  1  1
  7  5  1  0
  7  8  2  0
  9  7  1  0
 10  9  1  0
 10 11  1  6
 12 11  1  0
 13 12  2  0
 14 15  1  0
 14 13  1  0
 15 16  2  0
 16 12  1  0
 17 10  1  0
 18 17  2  0
 20 19  1  0
 20 30  2  0
 21 20  1  0
 22 21  2  0
 22 23  1  0
 23 29  2  0
 24 23  1  0
 25 26  1  0
 25 24  1  6
 26 17  1  0
 27 25  1  0
 28 27  2  0
 29 30  1  0
 31 27  1  0
M  END
$$$$
