LHY.pdb
     RDKit          3D

 31 32  0  0  1  0  0  0  0  0999 V2000
    7.2296  -12.3324   19.3721 C   0  0  0  0  0  0  0  0  0  0  0  0
    7.7876  -13.5873   18.6840 C   0  0  1  0  0  0  0  0  0  0  0  0
    8.9691  -13.1477   17.8694 C   0  0  0  0  0  0  0  0  0  0  0  0
    8.1803  -14.5244   19.7762 C   0  0  0  0  0  0  0  0  0  0  0  0
    8.7722  -15.8208   19.3262 C   0  0  2  0  0  0  0  0  0  0  0  0
    7.7644  -16.5523   18.5843 N   0  0  0  0  0  0  0  0  0  0  0  0
    9.1445  -16.5704   20.5810 C   0  0  0  0  0  0  0  0  0  0  0  0
    8.2371  -17.1570   21.2424 O   0  0  0  0  0  0  0  0  0  0  0  0
   10.5026  -16.5793   20.9578 N   0  0  0  0  0  0  0  0  0  0  0  0
   10.9137  -17.3161   22.1360 C   0  0  1  0  0  0  0  0  0  0  0  0
   12.2842  -17.8746   22.0036 C   0  0  0  0  0  0  0  0  0  0  0  0
   12.3524  -18.9828   21.0290 C   0  0  0  0  0  0  0  0  0  0  0  0
   12.2246  -20.3506   21.3118 C   0  0  0  0  0  0  0  0  0  0  0  0
   12.3449  -21.0341   20.1660 N   0  0  0  0  0  0  0  0  0  0  0  0
   12.5422  -20.1820   19.1679 C   0  0  0  0  0  0  0  0  0  0  0  0
   12.5468  -18.9529   19.6841 N   0  0  0  0  0  0  0  0  0  0  0  0
   10.8749  -16.4502   23.3465 C   0  0  0  0  0  0  0  0  0  0  0  0
   11.3270  -15.2805   23.3633 O   0  0  0  0  0  0  0  0  0  0  0  0
    5.7026  -11.5546   27.9444 O   0  0  0  0  0  0  0  0  0  0  0  0
    6.4095  -12.4547   27.1419 C   0  0  0  0  0  0  0  0  0  0  0  0
    7.6693  -12.1826   26.6623 C   0  0  0  0  0  0  0  0  0  0  0  0
    8.3473  -13.0765   25.8770 C   0  0  0  0  0  0  0  0  0  0  0  0
    7.7932  -14.3058   25.5257 C   0  0  0  0  0  0  0  0  0  0  0  0
    8.5030  -15.2702   24.6693 C   0  0  0  0  0  0  0  0  0  0  0  0
    9.5694  -15.9786   25.4477 C   0  0  2  0  0  0  0  0  0  0  0  0
   10.3142  -16.9041   24.5765 N   0  0  0  0  0  0  0  0  0  0  0  0
    9.0942  -16.7536   26.5989 C   0  0  0  0  0  0  0  0  0  0  0  0
    8.5566  -17.8651   26.4284 O   0  0  0  0  0  0  0  0  0  0  0  0
    6.5370  -14.5674   26.0086 C   0  0  0  0  0  0  0  0  0  0  0  0
    5.8476  -13.6674   26.8026 C   0  0  0  0  0  0  0  0  0  0  0  0
    9.2342  -16.2669   27.8792 O   0  0  0  0  0  0  0  0  0  0  0  0
  2  1  1  1
  3  2  1  0
  4  5  1  0
  4  2  1  0
  5  6  1  1
  7  5  1  0
  7  8  2  0
  9  7  1  0
 10  9  1  0
 10 11  1  6
 12 11  1  0
 13 12  2  0
 14 15  1  0
 14 13  1  0
 15 16  2  0
 16 12  1  0
 17 10  1  0
 18 17  2  0
 20 19  1  0
 20 30  2  0
 21 20  1  0
 22 21  2  0
 22 23  1  0
 23 29  2  0
 24 23  1  0
 25 26  1  0
 25 24  1  6
 26 17  1  0
 27 25  1  0
 28 27  2  0
 29 30  1  0
 31 27  1  0
M  END
$$$$
