LHY.pdb
     RDKit          3D

 31 32  0  0  1  0  0  0  0  0999 V2000
    7.2394  -12.1841   20.4834 C   0  0  0  0  0  0  0  0  0  0  0  0
    7.5123  -13.2728   19.4347 C   0  0  1  0  0  0  0  0  0  0  0  0
    8.3648  -12.6470   18.3697 C   0  0  0  0  0  0  0  0  0  0  0  0
    8.2266  -14.3715   20.1475 C   0  0  0  0  0  0  0  0  0  0  0  0
    8.6038  -15.5447   19.3022 C   0  0  2  0  0  0  0  0  0  0  0  0
    7.3930  -16.1239   18.7546 N   0  0  0  0  0  0  0  0  0  0  0  0
    9.2819  -16.5263   20.2250 C   0  0  0  0  0  0  0  0  0  0  0  0
    8.5720  -17.3051   20.9281 O   0  0  0  0  0  0  0  0  0  0  0  0
   10.6910  -16.5261   20.2574 N   0  0  0  0  0  0  0  0  0  0  0  0
   11.3866  -17.4292   21.1522 C   0  0  1  0  0  0  0  0  0  0  0  0
   12.6995  -17.8632   20.6087 C   0  0  0  0  0  0  0  0  0  0  0  0
   12.5621  -18.8345   19.5041 C   0  0  0  0  0  0  0  0  0  0  0  0
   12.2598  -20.1986   19.6263 C   0  0  0  0  0  0  0  0  0  0  0  0
   12.2243  -20.7372   18.4003 N   0  0  0  0  0  0  0  0  0  0  0  0
   12.4864  -19.7959   17.5022 C   0  0  0  0  0  0  0  0  0  0  0  0
   12.6889  -18.6558   18.1627 N   0  0  0  0  0  0  0  0  0  0  0  0
   11.6150  -16.7936   22.4790 C   0  0  0  0  0  0  0  0  0  0  0  0
   12.2940  -15.7496   22.6275 O   0  0  0  0  0  0  0  0  0  0  0  0
   10.9153  -14.3830   30.8960 O   0  0  0  0  0  0  0  0  0  0  0  0
   10.6882  -14.8954   29.6155 C   0  0  0  0  0  0  0  0  0  0  0  0
   10.7161  -16.2434   29.3451 C   0  0  0  0  0  0  0  0  0  0  0  0
   10.4911  -16.7278   28.0840 C   0  0  0  0  0  0  0  0  0  0  0  0
   10.2228  -15.8777   27.0131 C   0  0  0  0  0  0  0  0  0  0  0  0
    9.9948  -16.3821   25.6490 C   0  0  0  0  0  0  0  0  0  0  0  0
   11.2989  -16.6819   24.9749 C   0  0  2  0  0  0  0  0  0  0  0  0
   11.0686  -17.3402   23.6773 N   0  0  0  0  0  0  0  0  0  0  0  0
   12.2167  -17.5348   25.7377 C   0  0  0  0  0  0  0  0  0  0  0  0
   12.0431  -18.7685   25.7739 O   0  0  0  0  0  0  0  0  0  0  0  0
   10.1974  -14.5357   27.2930 C   0  0  0  0  0  0  0  0  0  0  0  0
   10.4240  -14.0412   28.5657 C   0  0  0  0  0  0  0  0  0  0  0  0
   13.2788  -16.9878   26.4219 O   0  0  0  0  0  0  0  0  0  0  0  0
  2  1  1  1
  3  2  1  0
  4  5  1  0
  4  2  1  0
  5  6  1  1
  7  5  1  0
  7  8  2  0
  9  7  1  0
 10  9  1  0
 10 11  1  6
 12 11  1  0
 13 12  2  0
 14 15  1  0
 14 13  1  0
 15 16  2  0
 16 12  1  0
 17 10  1  0
 18 17  2  0
 20 19  1  0
 20 30  2  0
 21 20  1  0
 22 21  2  0
 22 23  1  0
 23 29  2  0
 24 23  1  0
 25 26  1  0
 25 24  1  1
 26 17  1  0
 27 25  1  0
 28 27  2  0
 29 30  1  0
 31 27  1  0
M  END
$$$$
