LHY.pdb
     RDKit          3D

 31 32  0  0  1  0  0  0  0  0999 V2000
    6.4054  -13.1379   18.7721 C   0  0  0  0  0  0  0  0  0  0  0  0
    7.8283  -13.6350   19.0680 C   0  0  1  0  0  0  0  0  0  0  0  0
    8.7300  -12.4369   19.0028 C   0  0  0  0  0  0  0  0  0  0  0  0
    7.7885  -14.2298   20.4355 C   0  0  0  0  0  0  0  0  0  0  0  0
    9.1205  -14.5322   21.0417 C   0  0  2  0  0  0  0  0  0  0  0  0
    9.9736  -15.0990   20.0159 N   0  0  0  0  0  0  0  0  0  0  0  0
    8.8664  -15.5459   22.1294 C   0  0  0  0  0  0  0  0  0  0  0  0
    7.9039  -15.3623   22.9324 O   0  0  0  0  0  0  0  0  0  0  0  0
    9.7257  -16.6611   22.1965 N   0  0  0  0  0  0  0  0  0  0  0  0
    9.5240  -17.6590   23.2277 C   0  0  1  0  0  0  0  0  0  0  0  0
   10.3608  -18.8683   23.0152 C   0  0  0  0  0  0  0  0  0  0  0  0
   10.0007  -19.9736   23.9269 C   0  0  0  0  0  0  0  0  0  0  0  0
    8.7087  -20.4552   24.1837 C   0  0  0  0  0  0  0  0  0  0  0  0
    8.7975  -21.4601   25.0649 N   0  0  0  0  0  0  0  0  0  0  0  0
   10.0715  -21.6482   25.3858 C   0  0  0  0  0  0  0  0  0  0  0  0
   10.7929  -20.7580   24.7045 N   0  0  0  0  0  0  0  0  0  0  0  0
    9.8343  -17.1043   24.5740 C   0  0  0  0  0  0  0  0  0  0  0  0
   10.7783  -16.3050   24.7815 O   0  0  0  0  0  0  0  0  0  0  0  0
    6.3744  -11.5196   25.8548 O   0  0  0  0  0  0  0  0  0  0  0  0
    6.8489  -12.7374   26.3506 C   0  0  0  0  0  0  0  0  0  0  0  0
    8.0242  -12.8379   27.0577 C   0  0  0  0  0  0  0  0  0  0  0  0
    8.4739  -14.0397   27.5362 C   0  0  0  0  0  0  0  0  0  0  0  0
    7.7621  -15.2196   27.3296 C   0  0  0  0  0  0  0  0  0  0  0  0
    8.2405  -16.5212   27.8238 C   0  0  0  0  0  0  0  0  0  0  0  0
    9.4516  -16.9607   27.0589 C   0  0  2  0  0  0  0  0  0  0  0  0
    9.0674  -17.4528   25.7246 N   0  0  0  0  0  0  0  0  0  0  0  0
   10.2474  -18.0143   27.6977 C   0  0  0  0  0  0  0  0  0  0  0  0
   10.0957  -19.2054   27.3633 O   0  0  0  0  0  0  0  0  0  0  0  0
    6.5920  -15.1088   26.6236 C   0  0  0  0  0  0  0  0  0  0  0  0
    6.1331  -13.8966   26.1380 C   0  0  0  0  0  0  0  0  0  0  0  0
   11.1698  -17.7048   28.6719 O   0  0  0  0  0  0  0  0  0  0  0  0
  2  1  1  1
  3  2  1  0
  4  5  1  0
  4  2  1  0
  5  6  1  6
  7  5  1  0
  7  8  2  0
  9  7  1  0
 10  9  1  0
 10 11  1  6
 12 11  1  0
 13 12  2  0
 14 15  1  0
 14 13  1  0
 15 16  2  0
 16 12  1  0
 17 10  1  0
 18 17  2  0
 20 19  1  0
 20 30  2  0
 21 20  1  0
 22 21  2  0
 22 23  1  0
 23 29  2  0
 24 23  1  0
 25 26  1  0
 25 24  1  1
 26 17  1  0
 27 25  1  0
 28 27  2  0
 29 30  1  0
 31 27  1  0
M  END
$$$$
