LHY.pdb
     RDKit          3D

 31 32  0  0  1  0  0  0  0  0999 V2000
    6.2670  -12.7616   18.1370 C   0  0  0  0  0  0  0  0  0  0  0  0
    7.7571  -13.1242   18.2244 C   0  0  1  0  0  0  0  0  0  0  0  0
    8.4806  -11.8866   18.6689 C   0  0  0  0  0  0  0  0  0  0  0  0
    7.8627  -14.2232   19.2276 C   0  0  0  0  0  0  0  0  0  0  0  0
    9.2516  -14.5618   19.6632 C   0  0  2  0  0  0  0  0  0  0  0  0
    9.9979  -15.0144   18.5058 N   0  0  0  0  0  0  0  0  0  0  0  0
    9.1160  -15.6790   20.6674 C   0  0  0  0  0  0  0  0  0  0  0  0
    8.1977  -15.6190   21.5381 O   0  0  0  0  0  0  0  0  0  0  0  0
   10.0314  -16.7475   20.5835 N   0  0  0  0  0  0  0  0  0  0  0  0
   10.0235  -17.7785   21.6017 C   0  0  1  0  0  0  0  0  0  0  0  0
   10.8382  -18.9597   21.2162 C   0  0  0  0  0  0  0  0  0  0  0  0
   10.1847  -19.7843   20.1791 C   0  0  0  0  0  0  0  0  0  0  0  0
    9.0167  -20.5454   20.3327 C   0  0  0  0  0  0  0  0  0  0  0  0
    8.7467  -21.1485   19.1675 N   0  0  0  0  0  0  0  0  0  0  0  0
    9.6746  -20.8166   18.2786 C   0  0  0  0  0  0  0  0  0  0  0  0
   10.5365  -19.9993   18.8839 N   0  0  0  0  0  0  0  0  0  0  0  0
   10.5408  -17.2537   22.8954 C   0  0  0  0  0  0  0  0  0  0  0  0
   11.7318  -16.8963   23.0593 O   0  0  0  0  0  0  0  0  0  0  0  0
   11.0564  -14.1440   31.1261 O   0  0  0  0  0  0  0  0  0  0  0  0
   10.5683  -14.6448   29.9158 C   0  0  0  0  0  0  0  0  0  0  0  0
   10.4787  -15.9926   29.6582 C   0  0  0  0  0  0  0  0  0  0  0  0
    9.9977  -16.4655   28.4663 C   0  0  0  0  0  0  0  0  0  0  0  0
    9.5757  -15.6033   27.4563 C   0  0  0  0  0  0  0  0  0  0  0  0
    9.0715  -16.0961   26.1639 C   0  0  0  0  0  0  0  0  0  0  0  0
   10.2089  -16.4926   25.2728 C   0  0  2  0  0  0  0  0  0  0  0  0
    9.7029  -17.1241   24.0419 N   0  0  0  0  0  0  0  0  0  0  0  0
   11.1781  -17.4183   25.8689 C   0  0  0  0  0  0  0  0  0  0  0  0
   12.2612  -16.9918   26.3145 O   0  0  0  0  0  0  0  0  0  0  0  0
    9.6692  -14.2617   27.7229 C   0  0  0  0  0  0  0  0  0  0  0  0
   10.1544  -13.7787   28.9258 C   0  0  0  0  0  0  0  0  0  0  0  0
   10.9073  -18.7660   25.9447 O   0  0  0  0  0  0  0  0  0  0  0  0
  2  1  1  1
  3  2  1  0
  4  5  1  0
  4  2  1  0
  5  6  1  6
  7  5  1  0
  7  8  2  0
  9  7  1  0
 10  9  1  0
 10 11  1  6
 12 11  1  0
 13 12  2  0
 14 15  1  0
 14 13  1  0
 15 16  2  0
 16 12  1  0
 17 10  1  0
 18 17  2  0
 20 19  1  0
 20 30  2  0
 21 20  1  0
 22 21  2  0
 22 23  1  0
 23 29  2  0
 24 23  1  0
 25 26  1  0
 25 24  1  1
 26 17  1  0
 27 25  1  0
 28 27  2  0
 29 30  1  0
 31 27  1  0
M  END
$$$$
