LHY.pdb
     RDKit          3D

 31 32  0  0  1  0  0  0  0  0999 V2000
    8.1168  -12.3055   19.0404 C   0  0  0  0  0  0  0  0  0  0  0  0
    8.0850  -13.6948   18.3859 C   0  0  1  0  0  0  0  0  0  0  0  0
    8.3768  -13.4952   16.9272 C   0  0  0  0  0  0  0  0  0  0  0  0
    9.1430  -14.5006   19.0616 C   0  0  0  0  0  0  0  0  0  0  0  0
    9.1718  -15.9508   18.7017 C   0  0  2  0  0  0  0  0  0  0  0  0
    8.0283  -16.2369   17.8580 N   0  0  0  0  0  0  0  0  0  0  0  0
    9.0650  -16.7082   20.0016 C   0  0  0  0  0  0  0  0  0  0  0  0
    7.9335  -16.8197   20.5605 O   0  0  0  0  0  0  0  0  0  0  0  0
   10.2470  -17.2608   20.5347 N   0  0  0  0  0  0  0  0  0  0  0  0
   10.2113  -17.9166   21.8264 C   0  0  1  0  0  0  0  0  0  0  0  0
   11.4484  -18.6927   22.1004 C   0  0  0  0  0  0  0  0  0  0  0  0
   11.3750  -19.4462   23.3690 C   0  0  0  0  0  0  0  0  0  0  0  0
   10.4194  -20.4148   23.7092 C   0  0  0  0  0  0  0  0  0  0  0  0
   10.6911  -20.8649   24.9413 N   0  0  0  0  0  0  0  0  0  0  0  0
   11.7648  -20.2397   25.4077 C   0  0  0  0  0  0  0  0  0  0  0  0
   12.1751  -19.3896   24.4663 N   0  0  0  0  0  0  0  0  0  0  0  0
   10.0267  -16.9258   22.9222 C   0  0  0  0  0  0  0  0  0  0  0  0
   10.6584  -15.8437   22.9771 O   0  0  0  0  0  0  0  0  0  0  0  0
    6.3805  -11.0717   28.0523 O   0  0  0  0  0  0  0  0  0  0  0  0
    6.6370  -12.1399   27.1879 C   0  0  0  0  0  0  0  0  0  0  0  0
    5.8268  -13.2493   27.1262 C   0  0  0  0  0  0  0  0  0  0  0  0
    6.0935  -14.2867   26.2728 C   0  0  0  0  0  0  0  0  0  0  0  0
    7.1993  -14.2684   25.4253 C   0  0  0  0  0  0  0  0  0  0  0  0
    7.5081  -15.3828   24.5142 C   0  0  0  0  0  0  0  0  0  0  0  0
    8.7743  -16.0668   24.9310 C   0  0  2  0  0  0  0  0  0  0  0  0
    9.1085  -17.1498   23.9899 N   0  0  0  0  0  0  0  0  0  0  0  0
    8.7569  -16.6507   26.2765 C   0  0  0  0  0  0  0  0  0  0  0  0
    9.4030  -16.1185   27.2000 O   0  0  0  0  0  0  0  0  0  0  0  0
    8.0008  -13.1581   25.4946 C   0  0  0  0  0  0  0  0  0  0  0  0
    7.7356  -12.1070   26.3551 C   0  0  0  0  0  0  0  0  0  0  0  0
    8.0300  -17.7903   26.5383 O   0  0  0  0  0  0  0  0  0  0  0  0
  2  1  1  1
  3  2  1  0
  4  5  1  0
  4  2  1  0
  5  6  1  6
  7  5  1  0
  7  8  2  0
  9  7  1  0
 10  9  1  0
 10 11  1  1
 12 11  1  0
 13 12  2  0
 14 15  1  0
 14 13  1  0
 15 16  2  0
 16 12  1  0
 17 10  1  0
 18 17  2  0
 20 19  1  0
 20 30  2  0
 21 20  1  0
 22 21  2  0
 22 23  1  0
 23 29  2  0
 24 23  1  0
 25 26  1  0
 25 24  1  6
 26 17  1  0
 27 25  1  0
 28 27  2  0
 29 30  1  0
 31 27  1  0
M  END
$$$$
