LHY.pdb
     RDKit          3D

 31 32  0  0  1  0  0  0  0  0999 V2000
    7.3734  -12.0047   19.2531 C   0  0  0  0  0  0  0  0  0  0  0  0
    8.2311  -13.0615   18.5412 C   0  0  1  0  0  0  0  0  0  0  0  0
    9.6022  -12.4724   18.3800 C   0  0  0  0  0  0  0  0  0  0  0  0
    8.2398  -14.2610   19.4282 C   0  0  0  0  0  0  0  0  0  0  0  0
    9.0475  -15.4172   18.9343 C   0  0  2  0  0  0  0  0  0  0  0  0
    8.3608  -16.0063   17.8018 N   0  0  0  0  0  0  0  0  0  0  0  0
    9.1132  -16.4014   20.0755 C   0  0  0  0  0  0  0  0  0  0  0  0
    8.0857  -16.5841   20.7936 O   0  0  0  0  0  0  0  0  0  0  0  0
   10.3324  -17.0764   20.2865 N   0  0  0  0  0  0  0  0  0  0  0  0
   10.4536  -18.0069   21.3908 C   0  0  1  0  0  0  0  0  0  0  0  0
   11.4749  -19.0556   21.1365 C   0  0  0  0  0  0  0  0  0  0  0  0
   11.5734  -20.0303   22.2424 C   0  0  0  0  0  0  0  0  0  0  0  0
   10.5443  -20.8540   22.7217 C   0  0  0  0  0  0  0  0  0  0  0  0
   11.0269  -21.5937   23.7288 N   0  0  0  0  0  0  0  0  0  0  0  0
   12.3045  -21.2901   23.9204 C   0  0  0  0  0  0  0  0  0  0  0  0
   12.6327  -20.3535   23.0303 N   0  0  0  0  0  0  0  0  0  0  0  0
   10.8133  -17.2968   22.6489 C   0  0  0  0  0  0  0  0  0  0  0  0
   11.7899  -16.5146   22.7355 O   0  0  0  0  0  0  0  0  0  0  0  0
   10.5697  -13.8759   30.7769 O   0  0  0  0  0  0  0  0  0  0  0  0
   10.2340  -14.4678   29.5558 C   0  0  0  0  0  0  0  0  0  0  0  0
    9.9619  -13.7289   28.4284 C   0  0  0  0  0  0  0  0  0  0  0  0
    9.6347  -14.3260   27.2401 C   0  0  0  0  0  0  0  0  0  0  0  0
    9.5616  -15.7119   27.1158 C   0  0  0  0  0  0  0  0  0  0  0  0
    9.1956  -16.3678   25.8496 C   0  0  0  0  0  0  0  0  0  0  0  0
   10.4236  -16.7300   25.0714 C   0  0  2  0  0  0  0  0  0  0  0  0
   10.0598  -17.4650   23.8477 N   0  0  0  0  0  0  0  0  0  0  0  0
   11.4042  -17.5477   25.7937 C   0  0  0  0  0  0  0  0  0  0  0  0
   11.2047  -18.7669   25.9588 O   0  0  0  0  0  0  0  0  0  0  0  0
    9.8345  -16.4394   28.2454 C   0  0  0  0  0  0  0  0  0  0  0  0
   10.1657  -15.8409   29.4486 C   0  0  0  0  0  0  0  0  0  0  0  0
   12.5543  -16.9832   26.2977 O   0  0  0  0  0  0  0  0  0  0  0  0
  2  1  1  1
  3  2  1  0
  4  5  1  0
  4  2  1  0
  5  6  1  6
  7  5  1  0
  7  8  2  0
  9  7  1  0
 10  9  1  0
 10 11  1  6
 12 11  1  0
 13 12  2  0
 14 15  1  0
 14 13  1  0
 15 16  2  0
 16 12  1  0
 17 10  1  0
 18 17  2  0
 20 19  1  0
 20 30  2  0
 21 20  1  0
 22 21  2  0
 22 23  1  0
 23 29  2  0
 24 23  1  0
 25 26  1  0
 25 24  1  1
 26 17  1  0
 27 25  1  0
 28 27  2  0
 29 30  1  0
 31 27  1  0
M  END
$$$$
