LHY.pdb
     RDKit          3D

 31 32  0  0  1  0  0  0  0  0999 V2000
    6.9046  -11.8995   21.0595 C   0  0  0  0  0  0  0  0  0  0  0  0
    7.4269  -13.0452   20.1798 C   0  0  1  0  0  0  0  0  0  0  0  0
    8.4497  -12.4522   19.2551 C   0  0  0  0  0  0  0  0  0  0  0  0
    8.0279  -14.0461   21.1086 C   0  0  0  0  0  0  0  0  0  0  0  0
    8.5246  -15.3000   20.4650 C   0  0  2  0  0  0  0  0  0  0  0  0
    7.4669  -15.8390   19.6332 N   0  0  0  0  0  0  0  0  0  0  0  0
    8.8412  -16.2527   21.5908 C   0  0  0  0  0  0  0  0  0  0  0  0
    7.9626  -17.0878   21.9589 O   0  0  0  0  0  0  0  0  0  0  0  0
   10.1170  -16.1629   22.1832 N   0  0  0  0  0  0  0  0  0  0  0  0
   10.5302  -17.1624   23.1477 C   0  0  1  0  0  0  0  0  0  0  0  0
   11.8809  -17.7072   22.8533 C   0  0  0  0  0  0  0  0  0  0  0  0
   11.8829  -18.6184   21.6904 C   0  0  0  0  0  0  0  0  0  0  0  0
   12.3314  -18.3171   20.3961 C   0  0  0  0  0  0  0  0  0  0  0  0
   12.1686  -19.4018   19.6271 N   0  0  0  0  0  0  0  0  0  0  0  0
   11.6421  -20.3784   20.3554 C   0  0  0  0  0  0  0  0  0  0  0  0
   11.4707  -19.9098   21.5917 N   0  0  0  0  0  0  0  0  0  0  0  0
   10.5413  -16.6002   24.5262 C   0  0  0  0  0  0  0  0  0  0  0  0
   11.2916  -15.6566   24.8721 O   0  0  0  0  0  0  0  0  0  0  0  0
    6.3755  -11.3537   25.6523 O   0  0  0  0  0  0  0  0  0  0  0  0
    6.8896  -12.5684   26.1149 C   0  0  0  0  0  0  0  0  0  0  0  0
    8.0471  -12.6457   26.8533 C   0  0  0  0  0  0  0  0  0  0  0  0
    8.5363  -13.8449   27.2985 C   0  0  0  0  0  0  0  0  0  0  0  0
    7.8845  -15.0456   27.0245 C   0  0  0  0  0  0  0  0  0  0  0  0
    8.4064  -16.3438   27.4823 C   0  0  0  0  0  0  0  0  0  0  0  0
    9.7762  -16.5853   26.9254 C   0  0  2  0  0  0  0  0  0  0  0  0
    9.6886  -17.1071   25.5505 N   0  0  0  0  0  0  0  0  0  0  0  0
   10.6082  -17.5191   27.6919 C   0  0  0  0  0  0  0  0  0  0  0  0
   10.8703  -17.2891   28.8886 O   0  0  0  0  0  0  0  0  0  0  0  0
    6.7317  -14.9578   26.2876 C   0  0  0  0  0  0  0  0  0  0  0  0
    6.2331  -13.7484   25.8355 C   0  0  0  0  0  0  0  0  0  0  0  0
   11.1098  -18.6584   27.1037 O   0  0  0  0  0  0  0  0  0  0  0  0
  2  1  1  1
  3  2  1  0
  4  5  1  0
  4  2  1  0
  5  6  1  6
  7  5  1  0
  7  8  2  0
  9  7  1  0
 10  9  1  0
 10 11  1  6
 12 11  1  0
 13 12  2  0
 14 15  1  0
 14 13  1  0
 15 16  2  0
 16 12  1  0
 17 10  1  0
 18 17  2  0
 20 19  1  0
 20 30  2  0
 21 20  1  0
 22 21  2  0
 22 23  1  0
 23 29  2  0
 24 23  1  0
 25 26  1  0
 25 24  1  1
 26 17  1  0
 27 25  1  0
 28 27  2  0
 29 30  1  0
 31 27  1  0
M  END
$$$$
