LHY.pdb
     RDKit          3D

 31 32  0  0  1  0  0  0  0  0999 V2000
    6.2974  -12.9234   18.1934 C   0  0  0  0  0  0  0  0  0  0  0  0
    7.8145  -13.1454   18.2876 C   0  0  1  0  0  0  0  0  0  0  0  0
    8.4321  -11.8095   18.5817 C   0  0  0  0  0  0  0  0  0  0  0  0
    8.0275  -14.1160   19.4003 C   0  0  0  0  0  0  0  0  0  0  0  0
    9.4466  -14.2911   19.8348 C   0  0  2  0  0  0  0  0  0  0  0  0
   10.2492  -14.5989   18.6676 N   0  0  0  0  0  0  0  0  0  0  0  0
    9.4514  -15.4550   20.7942 C   0  0  0  0  0  0  0  0  0  0  0  0
    8.5846  -15.4983   21.7171 O   0  0  0  0  0  0  0  0  0  0  0  0
   10.4343  -16.4484   20.6111 N   0  0  0  0  0  0  0  0  0  0  0  0
   10.5626  -17.5160   21.5826 C   0  0  1  0  0  0  0  0  0  0  0  0
   11.5175  -18.5668   21.1446 C   0  0  0  0  0  0  0  0  0  0  0  0
   10.9520  -19.4465   20.1011 C   0  0  0  0  0  0  0  0  0  0  0  0
    9.6469  -19.9587   20.0600 C   0  0  0  0  0  0  0  0  0  0  0  0
    9.5210  -20.7121   18.9595 N   0  0  0  0  0  0  0  0  0  0  0  0
   10.6701  -20.7107   18.2956 C   0  0  0  0  0  0  0  0  0  0  0  0
   11.5279  -19.9527   18.9789 N   0  0  0  0  0  0  0  0  0  0  0  0
   11.0175  -16.9875   22.8980 C   0  0  0  0  0  0  0  0  0  0  0  0
   12.1340  -16.4412   23.0646 O   0  0  0  0  0  0  0  0  0  0  0  0
   11.0772  -14.3349   31.3312 O   0  0  0  0  0  0  0  0  0  0  0  0
   10.6828  -14.7369   30.0518 C   0  0  0  0  0  0  0  0  0  0  0  0
   10.4694  -13.8410   29.0306 C   0  0  0  0  0  0  0  0  0  0  0  0
   10.0832  -14.2529   27.7829 C   0  0  0  0  0  0  0  0  0  0  0  0
    9.8876  -15.6005   27.4875 C   0  0  0  0  0  0  0  0  0  0  0  0
    9.4571  -16.0574   26.1559 C   0  0  0  0  0  0  0  0  0  0  0  0
   10.6404  -16.4660   25.3327 C   0  0  2  0  0  0  0  0  0  0  0  0
   10.2007  -17.0716   24.0639 N   0  0  0  0  0  0  0  0  0  0  0  0
   11.5518  -17.4186   25.9757 C   0  0  0  0  0  0  0  0  0  0  0  0
   12.5840  -17.0132   26.5448 O   0  0  0  0  0  0  0  0  0  0  0  0
   10.1028  -16.4855   28.5124 C   0  0  0  0  0  0  0  0  0  0  0  0
   10.4932  -16.0744   29.7750 C   0  0  0  0  0  0  0  0  0  0  0  0
   11.2820  -18.7686   25.9603 O   0  0  0  0  0  0  0  0  0  0  0  0
  2  1  1  1
  3  2  1  0
  4  5  1  0
  4  2  1  0
  5  6  1  6
  7  5  1  0
  7  8  2  0
  9  7  1  0
 10  9  1  0
 10 11  1  6
 12 11  1  0
 13 12  2  0
 14 15  1  0
 14 13  1  0
 15 16  2  0
 16 12  1  0
 17 10  1  0
 18 17  2  0
 20 19  1  0
 20 30  2  0
 21 20  1  0
 22 21  2  0
 22 23  1  0
 23 29  2  0
 24 23  1  0
 25 26  1  0
 25 24  1  1
 26 17  1  0
 27 25  1  0
 28 27  2  0
 29 30  1  0
 31 27  1  0
M  END
$$$$
