LHY.pdb
     RDKit          3D

 31 32  0  0  1  0  0  0  0  0999 V2000
    9.8173  -13.0021   18.8019 C   0  0  0  0  0  0  0  0  0  0  0  0
    8.7024  -13.7213   19.5761 C   0  0  1  0  0  0  0  0  0  0  0  0
    7.7060  -12.6731   19.9777 C   0  0  0  0  0  0  0  0  0  0  0  0
    8.1148  -14.7184   18.6349 C   0  0  0  0  0  0  0  0  0  0  0  0
    8.8928  -15.9843   18.4747 C   0  0  2  0  0  0  0  0  0  0  0  0
    8.1650  -16.8598   17.5775 N   0  0  0  0  0  0  0  0  0  0  0  0
    8.9805  -16.5998   19.8489 C   0  0  0  0  0  0  0  0  0  0  0  0
    7.9232  -17.0202   20.4062 O   0  0  0  0  0  0  0  0  0  0  0  0
   10.2529  -16.6766   20.4503 N   0  0  0  0  0  0  0  0  0  0  0  0
   10.4020  -17.3459   21.7269 C   0  0  1  0  0  0  0  0  0  0  0  0
   11.7433  -17.9648   21.8872 C   0  0  0  0  0  0  0  0  0  0  0  0
   11.8685  -19.2424   21.1561 C   0  0  0  0  0  0  0  0  0  0  0  0
   10.8671  -20.2106   20.9921 C   0  0  0  0  0  0  0  0  0  0  0  0
   11.3685  -21.2220   20.2709 N   0  0  0  0  0  0  0  0  0  0  0  0
   12.6321  -20.9557   19.9649 C   0  0  0  0  0  0  0  0  0  0  0  0
   12.9324  -19.7699   20.4949 N   0  0  0  0  0  0  0  0  0  0  0  0
   10.1850  -16.3978   22.8541 C   0  0  0  0  0  0  0  0  0  0  0  0
   10.7027  -15.2561   22.8946 O   0  0  0  0  0  0  0  0  0  0  0  0
    5.5455  -11.4090   28.2323 O   0  0  0  0  0  0  0  0  0  0  0  0
    6.1115  -12.2640   27.2823 C   0  0  0  0  0  0  0  0  0  0  0  0
    7.3829  -12.0818   26.7910 C   0  0  0  0  0  0  0  0  0  0  0  0
    7.9215  -12.9299   25.8602 C   0  0  0  0  0  0  0  0  0  0  0  0
    7.2069  -14.0190   25.3656 C   0  0  0  0  0  0  0  0  0  0  0  0
    7.7662  -14.9299   24.3532 C   0  0  0  0  0  0  0  0  0  0  0  0
    8.9239  -15.6955   24.9176 C   0  0  2  0  0  0  0  0  0  0  0  0
    9.3649  -16.7344   23.9710 N   0  0  0  0  0  0  0  0  0  0  0  0
    8.6705  -16.3575   26.2018 C   0  0  0  0  0  0  0  0  0  0  0  0
    9.0063  -15.8071   27.2686 O   0  0  0  0  0  0  0  0  0  0  0  0
    5.9404  -14.1918   25.8615 C   0  0  0  0  0  0  0  0  0  0  0  0
    5.3916  -13.3377   26.8023 C   0  0  0  0  0  0  0  0  0  0  0  0
    8.0608  -17.5910   26.2479 O   0  0  0  0  0  0  0  0  0  0  0  0
  2  1  1  6
  3  2  1  0
  4  5  1  0
  4  2  1  0
  5  6  1  6
  7  5  1  0
  7  8  2  0
  9  7  1  0
 10  9  1  0
 10 11  1  1
 12 11  1  0
 13 12  2  0
 14 15  1  0
 14 13  1  0
 15 16  2  0
 16 12  1  0
 17 10  1  0
 18 17  2  0
 20 19  1  0
 20 30  2  0
 21 20  1  0
 22 21  2  0
 22 23  1  0
 23 29  2  0
 24 23  1  0
 25 26  1  0
 25 24  1  6
 26 17  1  0
 27 25  1  0
 28 27  2  0
 29 30  1  0
 31 27  1  0
M  END
$$$$
