LHY.pdb
     RDKit          3D

 31 32  0  0  1  0  0  0  0  0999 V2000
    6.5130  -12.8667   17.7781 C   0  0  0  0  0  0  0  0  0  0  0  0
    8.0032  -13.2079   17.9276 C   0  0  1  0  0  0  0  0  0  0  0  0
    8.7212  -11.9159   18.1884 C   0  0  0  0  0  0  0  0  0  0  0  0
    8.1045  -14.1459   19.0831 C   0  0  0  0  0  0  0  0  0  0  0  0
    9.4948  -14.4739   19.5222 C   0  0  2  0  0  0  0  0  0  0  0  0
   10.2273  -14.9867   18.3812 N   0  0  0  0  0  0  0  0  0  0  0  0
    9.3603  -15.5410   20.5797 C   0  0  0  0  0  0  0  0  0  0  0  0
    8.5630  -15.3556   21.5466 O   0  0  0  0  0  0  0  0  0  0  0  0
   10.1402  -16.7061   20.4348 N   0  0  0  0  0  0  0  0  0  0  0  0
   10.1223  -17.7135   21.4764 C   0  0  1  0  0  0  0  0  0  0  0  0
   10.9452  -18.9007   21.1284 C   0  0  0  0  0  0  0  0  0  0  0  0
   10.8887  -19.9523   22.1644 C   0  0  0  0  0  0  0  0  0  0  0  0
    9.7369  -20.4264   22.8091 C   0  0  0  0  0  0  0  0  0  0  0  0
   10.0990  -21.3767   23.6810 N   0  0  0  0  0  0  0  0  0  0  0  0
   11.4154  -21.5371   23.6303 C   0  0  0  0  0  0  0  0  0  0  0  0
   11.8893  -20.6840   22.7220 N   0  0  0  0  0  0  0  0  0  0  0  0
   10.6218  -17.1574   22.7640 C   0  0  0  0  0  0  0  0  0  0  0  0
   11.7680  -16.6657   22.8959 O   0  0  0  0  0  0  0  0  0  0  0  0
   11.2308  -14.5166   31.1476 O   0  0  0  0  0  0  0  0  0  0  0  0
   10.7359  -14.9077   29.9002 C   0  0  0  0  0  0  0  0  0  0  0  0
   10.2666  -16.1775   29.6583 C   0  0  0  0  0  0  0  0  0  0  0  0
    9.7852  -16.5433   28.4295 C   0  0  0  0  0  0  0  0  0  0  0  0
    9.7476  -15.6460   27.3641 C   0  0  0  0  0  0  0  0  0  0  0  0
    9.2480  -16.0289   26.0332 C   0  0  0  0  0  0  0  0  0  0  0  0
   10.3491  -16.6244   25.2100 C   0  0  2  0  0  0  0  0  0  0  0  0
    9.8169  -17.1502   23.9410 N   0  0  0  0  0  0  0  0  0  0  0  0
   11.0932  -17.7129   25.8530 C   0  0  0  0  0  0  0  0  0  0  0  0
   12.2128  -17.4962   26.3560 O   0  0  0  0  0  0  0  0  0  0  0  0
   10.2178  -14.3829   27.6154 C   0  0  0  0  0  0  0  0  0  0  0  0
   10.7052  -14.0082   28.8555 C   0  0  0  0  0  0  0  0  0  0  0  0
   10.5683  -18.9844   25.9101 O   0  0  0  0  0  0  0  0  0  0  0  0
  2  1  1  1
  3  2  1  0
  4  5  1  0
  4  2  1  0
  5  6  1  6
  7  5  1  0
  7  8  2  0
  9  7  1  0
 10  9  1  0
 10 11  1  6
 12 11  1  0
 13 12  2  0
 14 15  1  0
 14 13  1  0
 15 16  2  0
 16 12  1  0
 17 10  1  0
 18 17  2  0
 20 19  1  0
 20 30  2  0
 21 20  1  0
 22 21  2  0
 22 23  1  0
 23 29  2  0
 24 23  1  0
 25 26  1  0
 25 24  1  1
 26 17  1  0
 27 25  1  0
 28 27  2  0
 29 30  1  0
 31 27  1  0
M  END
$$$$
