LET.pdb
     RDKit          3D

 25 24  0  0  1  0  0  0  0  0999 V2000
   18.3053  -15.9875  -17.1911 C   0  0  0  0  0  0  0  0  0  0  0  0
   17.8308  -14.7662  -17.9911 C   0  0  2  0  0  0  0  0  0  0  0  0
   17.7168  -15.1461  -19.4367 C   0  0  0  0  0  0  0  0  0  0  0  0
   18.8076  -13.6760  -17.6998 C   0  0  0  0  0  0  0  0  0  0  0  0
   18.8007  -13.2187  -16.2461 C   0  0  2  0  0  0  0  0  0  0  0  0
   17.5617  -13.5880  -15.6176 N   0  0  0  0  0  0  0  0  0  0  0  0
   18.9023  -11.7385  -16.2918 C   0  0  0  0  0  0  0  0  0  0  0  0
   19.8615  -11.1663  -16.8841 O   0  0  0  0  0  0  0  0  0  0  0  0
   17.9096  -10.9614  -15.6621 N   0  0  0  0  0  0  0  0  0  0  0  0
   17.8053   -9.5408  -15.6967 C   0  0  1  0  0  0  0  0  0  0  0  0
   16.4544   -8.9753  -15.2991 C   0  0  0  0  0  0  0  0  0  0  0  0
   16.4465   -7.5071  -15.5531 C   0  0  0  0  0  0  0  0  0  0  0  0
   15.1034   -6.9062  -15.2359 C   0  0  0  0  0  0  0  0  0  0  0  0
   14.9274   -6.2174  -14.2092 O   0  0  0  0  0  0  0  0  0  0  0  0
   18.9528   -8.8930  -15.0716 C   0  0  0  0  0  0  0  0  0  0  0  0
   19.2552   -9.0831  -13.8426 O   0  0  0  0  0  0  0  0  0  0  0  0
   14.0668   -7.1351  -16.1095 O   0  0  0  0  0  0  0  0  0  0  0  0
   22.5064   -9.3260  -15.4522 C   0  0  0  0  0  0  0  0  0  0  0  0
   22.2541   -7.8846  -15.7346 C   0  0  1  0  0  0  0  0  0  0  0  0
   22.1102   -7.7152  -17.1154 O   0  0  0  0  0  0  0  0  0  0  0  0
   20.9719   -7.3676  -15.1057 C   0  0  2  0  0  0  0  0  0  0  0  0
   19.8361   -7.9995  -15.7557 N   0  0  0  0  0  0  0  0  0  0  0  0
   20.8802   -5.8864  -15.1745 C   0  0  0  0  0  0  0  0  0  0  0  0
   21.7510   -5.0370  -14.5072 O   0  0  0  0  0  0  0  0  0  0  0  0
   19.9746   -5.3562  -15.8672 O   0  0  0  0  0  0  0  0  0  0  0  0
  2  1  1  1
  2  3  1  0
  4  2  1  0
  4  5  1  0
  5  6  1  6
  5  7  1  0
  7  8  2  0
  9  7  1  0
  9 10  1  0
 10 11  1  1
 12 13  1  0
 12 11  1  0
 13 14  2  0
 15 10  1  0
 15 16  2  0
 17 13  1  0
 19 18  1  6
 19 21  1  0
 20 19  1  0
 21 22  1  6
 22 15  1  0
 23 21  1  0
 24 23  1  0
 25 23  2  0
M  END
$$$$
