LET.pdb
     RDKit          3D

 25 24  0  0  1  0  0  0  0  0999 V2000
   26.7674  -12.6954  -15.5671 C   0  0  0  0  0  0  0  0  0  0  0  0
   26.9779  -11.9577  -16.8969 C   0  0  2  0  0  0  0  0  0  0  0  0
   28.3571  -11.3706  -16.9145 C   0  0  0  0  0  0  0  0  0  0  0  0
   25.8678  -10.9655  -16.9997 C   0  0  0  0  0  0  0  0  0  0  0  0
   24.4865  -11.5998  -17.1101 C   0  0  2  0  0  0  0  0  0  0  0  0
   24.3928  -12.3726  -18.3185 N   0  0  0  0  0  0  0  0  0  0  0  0
   23.5303  -10.4666  -17.1804 C   0  0  0  0  0  0  0  0  0  0  0  0
   23.4008   -9.7840  -18.2367 O   0  0  0  0  0  0  0  0  0  0  0  0
   22.7555  -10.1495  -16.0469 N   0  0  0  0  0  0  0  0  0  0  0  0
   21.7599   -9.1335  -15.9657 C   0  0  1  0  0  0  0  0  0  0  0  0
   20.3694   -9.6103  -15.5885 C   0  0  0  0  0  0  0  0  0  0  0  0
   19.4155   -8.4715  -15.7037 C   0  0  0  0  0  0  0  0  0  0  0  0
   18.0134   -8.8980  -15.3604 C   0  0  0  0  0  0  0  0  0  0  0  0
   17.6822  -10.1022  -15.3662 O   0  0  0  0  0  0  0  0  0  0  0  0
   22.2306   -7.9641  -15.2321 C   0  0  0  0  0  0  0  0  0  0  0  0
   22.8259   -8.0634  -14.1035 O   0  0  0  0  0  0  0  0  0  0  0  0
   17.0987   -7.9237  -15.0378 O   0  0  0  0  0  0  0  0  0  0  0  0
   24.6668   -5.2237  -16.3296 C   0  0  0  0  0  0  0  0  0  0  0  0
   23.3901   -4.5938  -15.8891 C   0  0  1  0  0  0  0  0  0  0  0  0
   22.5860   -4.3740  -17.0121 O   0  0  0  0  0  0  0  0  0  0  0  0
   22.5816   -5.4735  -14.9515 C   0  0  2  0  0  0  0  0  0  0  0  0
   22.0771   -6.6180  -15.6915 N   0  0  0  0  0  0  0  0  0  0  0  0
   21.4787   -4.7208  -14.3003 C   0  0  0  0  0  0  0  0  0  0  0  0
   21.6885   -3.7254  -13.3568 O   0  0  0  0  0  0  0  0  0  0  0  0
   20.2878   -4.9841  -14.6060 O   0  0  0  0  0  0  0  0  0  0  0  0
  2  1  1  1
  2  3  1  0
  4  2  1  0
  4  5  1  0
  5  6  1  6
  5  7  1  0
  7  8  2  0
  9  7  1  0
  9 10  1  0
 10 11  1  1
 12 13  1  0
 12 11  1  0
 13 14  2  0
 15 10  1  0
 15 16  2  0
 17 13  1  0
 19 18  1  6
 19 21  1  0
 20 19  1  0
 21 22  1  6
 22 15  1  0
 23 21  1  0
 24 23  1  0
 25 23  2  0
M  END
$$$$
