LET.pdb
     RDKit          3D

 25 24  0  0  1  0  0  0  0  0999 V2000
   28.0903  -20.6163  -15.2109 C   0  0  0  0  0  0  0  0  0  0  0  0
   27.1425  -19.5289  -15.7363 C   0  0  2  0  0  0  0  0  0  0  0  0
   27.9472  -18.3190  -16.1050 C   0  0  0  0  0  0  0  0  0  0  0  0
   26.1286  -19.3101  -14.6632 C   0  0  0  0  0  0  0  0  0  0  0  0
   25.3927  -20.5780  -14.2470 C   0  0  2  0  0  0  0  0  0  0  0  0
   25.4183  -21.5380  -15.3166 N   0  0  0  0  0  0  0  0  0  0  0  0
   23.9896  -20.1627  -13.9977 C   0  0  0  0  0  0  0  0  0  0  0  0
   23.7112  -19.2825  -13.1340 O   0  0  0  0  0  0  0  0  0  0  0  0
   22.9527  -20.7632  -14.7394 N   0  0  0  0  0  0  0  0  0  0  0  0
   21.5635  -20.4635  -14.6385 C   0  0  1  0  0  0  0  0  0  0  0  0
   20.9382  -19.8414  -15.8734 C   0  0  0  0  0  0  0  0  0  0  0  0
   19.5394  -19.4353  -15.5597 C   0  0  0  0  0  0  0  0  0  0  0  0
   18.8639  -18.8330  -16.7625 C   0  0  0  0  0  0  0  0  0  0  0  0
   19.5067  -18.1685  -17.6022 O   0  0  0  0  0  0  0  0  0  0  0  0
   20.8076  -21.5650  -14.0533 C   0  0  0  0  0  0  0  0  0  0  0  0
   21.0205  -22.7844  -14.3783 O   0  0  0  0  0  0  0  0  0  0  0  0
   17.5125  -19.0328  -16.9164 O   0  0  0  0  0  0  0  0  0  0  0  0
   20.1544  -22.3845  -10.3151 C   0  0  0  0  0  0  0  0  0  0  0  0
   18.8560  -22.3349  -11.0449 C   0  0  1  0  0  0  0  0  0  0  0  0
   18.2791  -21.0756  -10.8517 O   0  0  0  0  0  0  0  0  0  0  0  0
   19.0069  -22.5089  -12.5462 C   0  0  2  0  0  0  0  0  0  0  0  0
   19.7746  -21.3956  -13.0782 N   0  0  0  0  0  0  0  0  0  0  0  0
   17.6905  -22.6319  -13.2238 C   0  0  0  0  0  0  0  0  0  0  0  0
   16.8009  -23.6681  -12.9787 O   0  0  0  0  0  0  0  0  0  0  0  0
   17.3466  -21.7631  -14.0653 O   0  0  0  0  0  0  0  0  0  0  0  0
  2  1  1  1
  2  3  1  0
  4  2  1  0
  4  5  1  0
  5  6  1  6
  5  7  1  0
  7  8  2  0
  9  7  1  0
  9 10  1  0
 10 11  1  6
 12 13  1  0
 12 11  1  0
 13 14  2  0
 15 10  1  0
 15 16  2  0
 17 13  1  0
 19 18  1  1
 19 21  1  0
 20 19  1  0
 21 22  1  6
 22 15  1  0
 23 21  1  0
 24 23  1  0
 25 23  2  0
M  END
$$$$
