LET.pdb
     RDKit          3D

 25 24  0  0  1  0  0  0  0  0999 V2000
   17.1351  -13.0510  -17.1525 C   0  0  0  0  0  0  0  0  0  0  0  0
   18.1485  -13.2244  -16.0125 C   0  0  2  0  0  0  0  0  0  0  0  0
   17.7175  -14.3714  -15.1488 C   0  0  0  0  0  0  0  0  0  0  0  0
   18.2213  -11.9046  -15.3194 C   0  0  0  0  0  0  0  0  0  0  0  0
   18.6289  -10.7543  -16.2320 C   0  0  2  0  0  0  0  0  0  0  0  0
   19.9721  -10.9507  -16.7049 N   0  0  0  0  0  0  0  0  0  0  0  0
   18.5832   -9.5361  -15.3851 C   0  0  0  0  0  0  0  0  0  0  0  0
   17.7740   -9.4411  -14.4183 O   0  0  0  0  0  0  0  0  0  0  0  0
   19.4590   -8.4689  -15.6677 N   0  0  0  0  0  0  0  0  0  0  0  0
   19.4883   -7.2070  -15.0068 C   0  0  1  0  0  0  0  0  0  0  0  0
   20.8536   -6.7551  -14.5223 C   0  0  0  0  0  0  0  0  0  0  0  0
   20.7024   -5.4912  -13.7479 C   0  0  0  0  0  0  0  0  0  0  0  0
   22.0426   -4.9226  -13.3654 C   0  0  0  0  0  0  0  0  0  0  0  0
   22.3548   -3.7483  -13.6536 O   0  0  0  0  0  0  0  0  0  0  0  0
   18.7238   -6.1949  -15.7268 C   0  0  0  0  0  0  0  0  0  0  0  0
   19.0038   -5.8587  -16.9295 O   0  0  0  0  0  0  0  0  0  0  0  0
   22.9217   -5.7324  -12.6861 O   0  0  0  0  0  0  0  0  0  0  0  0
   14.9289   -5.9514  -16.4494 C   0  0  0  0  0  0  0  0  0  0  0  0
   15.3907   -4.7159  -15.7558 C   0  0  1  0  0  0  0  0  0  0  0  0
   15.1503   -4.8530  -14.3848 O   0  0  0  0  0  0  0  0  0  0  0  0
   16.8818   -4.4685  -15.9045 C   0  0  2  0  0  0  0  0  0  0  0  0
   17.6081   -5.4921  -15.1719 N   0  0  0  0  0  0  0  0  0  0  0  0
   17.2640   -3.1056  -15.4534 C   0  0  0  0  0  0  0  0  0  0  0  0
   16.7687   -1.9449  -16.0302 O   0  0  0  0  0  0  0  0  0  0  0  0
   18.0762   -2.9760  -14.5023 O   0  0  0  0  0  0  0  0  0  0  0  0
  2  1  1  6
  2  3  1  0
  4  2  1  0
  4  5  1  0
  5  6  1  1
  5  7  1  0
  7  8  2  0
  9  7  1  0
  9 10  1  0
 10 11  1  6
 12 13  1  0
 12 11  1  0
 13 14  2  0
 15 10  1  0
 15 16  2  0
 17 13  1  0
 19 18  1  6
 19 21  1  0
 20 19  1  0
 21 22  1  1
 22 15  1  0
 23 21  1  0
 24 23  1  0
 25 23  2  0
M  END
$$$$
