LET.pdb
     RDKit          3D

 25 24  0  0  1  0  0  0  0  0999 V2000
   26.6215  -10.9646  -15.2247 C   0  0  0  0  0  0  0  0  0  0  0  0
   25.4800  -11.7525  -15.8825 C   0  0  2  0  0  0  0  0  0  0  0  0
   26.0544  -12.6583  -16.9298 C   0  0  0  0  0  0  0  0  0  0  0  0
   24.5131  -10.7347  -16.3892 C   0  0  0  0  0  0  0  0  0  0  0  0
   23.0830  -11.2495  -16.5006 C   0  0  2  0  0  0  0  0  0  0  0  0
   22.9398  -12.0596  -17.6793 N   0  0  0  0  0  0  0  0  0  0  0  0
   22.2319  -10.0406  -16.6330 C   0  0  0  0  0  0  0  0  0  0  0  0
   22.1081   -9.4455  -17.7416 O   0  0  0  0  0  0  0  0  0  0  0  0
   21.5519   -9.5510  -15.5000 N   0  0  0  0  0  0  0  0  0  0  0  0
   20.6043   -8.4871  -15.4820 C   0  0  1  0  0  0  0  0  0  0  0  0
   19.2297   -8.8457  -14.9483 C   0  0  0  0  0  0  0  0  0  0  0  0
   18.5056   -9.6535  -15.9697 C   0  0  0  0  0  0  0  0  0  0  0  0
   17.1264  -10.0238  -15.4941 C   0  0  0  0  0  0  0  0  0  0  0  0
   16.3760  -10.7475  -16.1818 O   0  0  0  0  0  0  0  0  0  0  0  0
   21.1733   -7.2573  -14.9426 C   0  0  0  0  0  0  0  0  0  0  0  0
   21.7711   -7.2234  -13.8114 O   0  0  0  0  0  0  0  0  0  0  0  0
   16.7085   -9.5431  -14.2758 O   0  0  0  0  0  0  0  0  0  0  0  0
   23.9340   -5.0410  -16.1530 C   0  0  0  0  0  0  0  0  0  0  0  0
   22.7042   -4.2091  -16.0241 C   0  0  1  0  0  0  0  0  0  0  0  0
   22.0629   -4.1587  -17.2659 O   0  0  0  0  0  0  0  0  0  0  0  0
   21.6942   -4.7828  -15.0456 C   0  0  2  0  0  0  0  0  0  0  0  0
   21.1211   -5.9931  -15.6101 N   0  0  0  0  0  0  0  0  0  0  0  0
   20.6398   -3.7960  -14.6968 C   0  0  0  0  0  0  0  0  0  0  0  0
   20.8748   -2.6735  -13.9159 O   0  0  0  0  0  0  0  0  0  0  0  0
   19.4688   -3.9689  -15.1211 O   0  0  0  0  0  0  0  0  0  0  0  0
  2  1  1  6
  2  3  1  0
  4  2  1  0
  4  5  1  0
  5  6  1  6
  5  7  1  0
  7  8  2  0
  9  7  1  0
  9 10  1  0
 10 11  1  1
 12 13  1  0
 12 11  1  0
 13 14  2  0
 15 10  1  0
 15 16  2  0
 17 13  1  0
 19 18  1  6
 19 21  1  0
 20 19  1  0
 21 22  1  6
 22 15  1  0
 23 21  1  0
 24 23  1  0
 25 23  2  0
M  END
$$$$
