LET.pdb
     RDKit          3D

 25 24  0  0  1  0  0  0  0  0999 V2000
   25.1845  -12.2454  -21.3760 C   0  0  0  0  0  0  0  0  0  0  0  0
   23.7268  -12.6804  -21.1703 C   0  0  2  0  0  0  0  0  0  0  0  0
   23.1571  -13.1111  -22.4883 C   0  0  0  0  0  0  0  0  0  0  0  0
   23.0356  -11.5220  -20.5318 C   0  0  0  0  0  0  0  0  0  0  0  0
   23.6544  -11.0928  -19.2070 C   0  0  2  0  0  0  0  0  0  0  0  0
   23.7267  -12.2131  -18.3093 N   0  0  0  0  0  0  0  0  0  0  0  0
   22.7308  -10.0759  -18.6447 C   0  0  0  0  0  0  0  0  0  0  0  0
   22.4815   -9.0034  -19.2660 O   0  0  0  0  0  0  0  0  0  0  0  0
   22.1234  -10.3146  -17.3957 N   0  0  0  0  0  0  0  0  0  0  0  0
   21.1860   -9.4652  -16.7400 C   0  0  1  0  0  0  0  0  0  0  0  0
   20.0135  -10.1704  -16.0837 C   0  0  0  0  0  0  0  0  0  0  0  0
   19.1160   -9.1534  -15.4670 C   0  0  0  0  0  0  0  0  0  0  0  0
   17.9833   -9.8065  -14.7213 C   0  0  0  0  0  0  0  0  0  0  0  0
   17.7608  -11.0312  -14.8231 O   0  0  0  0  0  0  0  0  0  0  0  0
   21.8442   -8.4618  -15.9110 C   0  0  0  0  0  0  0  0  0  0  0  0
   22.7776   -8.7642  -15.0892 O   0  0  0  0  0  0  0  0  0  0  0  0
   17.1932   -9.0175  -13.9192 O   0  0  0  0  0  0  0  0  0  0  0  0
   21.7350   -4.2285  -16.7944 C   0  0  0  0  0  0  0  0  0  0  0  0
   22.8049   -5.0277  -16.1330 C   0  0  1  0  0  0  0  0  0  0  0  0
   23.5984   -4.1690  -15.3654 O   0  0  0  0  0  0  0  0  0  0  0  0
   22.2634   -6.0763  -15.1770 C   0  0  2  0  0  0  0  0  0  0  0  0
   21.5188   -7.0689  -15.9335 N   0  0  0  0  0  0  0  0  0  0  0  0
   21.4278   -5.4713  -14.1079 C   0  0  0  0  0  0  0  0  0  0  0  0
   20.0901   -5.7857  -13.9164 O   0  0  0  0  0  0  0  0  0  0  0  0
   21.9403   -4.6297  -13.3269 O   0  0  0  0  0  0  0  0  0  0  0  0
  2  1  1  6
  2  3  1  0
  4  2  1  0
  4  5  1  0
  5  6  1  1
  5  7  1  0
  7  8  2  0
  9  7  1  0
  9 10  1  0
 10 11  1  1
 12 13  1  0
 12 11  1  0
 13 14  2  0
 15 10  1  0
 15 16  2  0
 17 13  1  0
 19 18  1  1
 19 21  1  0
 20 19  1  0
 21 22  1  6
 22 15  1  0
 23 21  1  0
 24 23  1  0
 25 23  2  0
M  END
$$$$
