LET.pdb
     RDKit          3D

 25 24  0  0  1  0  0  0  0  0999 V2000
   27.0465  -18.6435   -6.1740 C   0  0  0  0  0  0  0  0  0  0  0  0
   27.2982  -20.1482   -6.3452 C   0  0  2  0  0  0  0  0  0  0  0  0
   28.6868  -20.4654   -5.8778 C   0  0  0  0  0  0  0  0  0  0  0  0
   27.0308  -20.4515   -7.7819 C   0  0  0  0  0  0  0  0  0  0  0  0
   25.6295  -20.0652   -8.2397 C   0  0  2  0  0  0  0  0  0  0  0  0
   24.6457  -20.8099   -7.5022 N   0  0  0  0  0  0  0  0  0  0  0  0
   25.5572  -20.4470   -9.6723 C   0  0  0  0  0  0  0  0  0  0  0  0
   26.5619  -20.9231  -10.2743 O   0  0  0  0  0  0  0  0  0  0  0  0
   24.3451  -20.2735  -10.3698 N   0  0  0  0  0  0  0  0  0  0  0  0
   24.0944  -20.6371  -11.7244 C   0  0  1  0  0  0  0  0  0  0  0  0
   22.6334  -20.8193  -12.0920 C   0  0  0  0  0  0  0  0  0  0  0  0
   22.5431  -21.3666  -13.4749 C   0  0  0  0  0  0  0  0  0  0  0  0
   21.1143  -21.6415  -13.8602 C   0  0  0  0  0  0  0  0  0  0  0  0
   20.8195  -22.0663  -14.9970 O   0  0  0  0  0  0  0  0  0  0  0  0
   24.8691  -19.8294  -12.6596 C   0  0  0  0  0  0  0  0  0  0  0  0
   24.9143  -18.5528  -12.5805 O   0  0  0  0  0  0  0  0  0  0  0  0
   20.1336  -21.4124  -12.9243 O   0  0  0  0  0  0  0  0  0  0  0  0
   28.4948  -19.6089  -13.3710 C   0  0  0  0  0  0  0  0  0  0  0  0
   27.8271  -19.9169  -14.6673 C   0  0  1  0  0  0  0  0  0  0  0  0
   27.8809  -21.2975  -14.8842 O   0  0  0  0  0  0  0  0  0  0  0  0
   26.3561  -19.5392  -14.6868 C   0  0  2  0  0  0  0  0  0  0  0  0
   25.6396  -20.3723  -13.7358 N   0  0  0  0  0  0  0  0  0  0  0  0
   25.7747  -19.6499  -16.0495 C   0  0  0  0  0  0  0  0  0  0  0  0
   26.2546  -18.9430  -17.1426 O   0  0  0  0  0  0  0  0  0  0  0  0
   24.7978  -20.4177  -16.2425 O   0  0  0  0  0  0  0  0  0  0  0  0
  2  1  1  6
  2  3  1  0
  4  2  1  0
  4  5  1  0
  5  6  1  1
  5  7  1  0
  7  8  2  0
  9  7  1  0
  9 10  1  0
 10 11  1  6
 12 13  1  0
 12 11  1  0
 13 14  2  0
 15 10  1  0
 15 16  2  0
 17 13  1  0
 19 18  1  1
 19 21  1  0
 20 19  1  0
 21 22  1  1
 22 15  1  0
 23 21  1  0
 24 23  1  0
 25 23  2  0
M  END
$$$$
