LET.pdb
     RDKit          3D

 25 24  0  0  1  0  0  0  0  0999 V2000
   27.3176  -21.2287   -6.2663 C   0  0  0  0  0  0  0  0  0  0  0  0
   27.9885  -20.0718   -7.0200 C   0  0  2  0  0  0  0  0  0  0  0  0
   28.1797  -18.9226   -6.0765 C   0  0  0  0  0  0  0  0  0  0  0  0
   27.1169  -19.7842   -8.1970 C   0  0  0  0  0  0  0  0  0  0  0  0
   27.0079  -20.9455   -9.1777 C   0  0  2  0  0  0  0  0  0  0  0  0
   28.3141  -21.3220   -9.6451 N   0  0  0  0  0  0  0  0  0  0  0  0
   26.2106  -20.4316  -10.3193 C   0  0  0  0  0  0  0  0  0  0  0  0
   26.4507  -19.2995  -10.8284 O   0  0  0  0  0  0  0  0  0  0  0  0
   25.1683  -21.2231  -10.8417 N   0  0  0  0  0  0  0  0  0  0  0  0
   24.5952  -21.1088  -12.1411 C   0  0  1  0  0  0  0  0  0  0  0  0
   25.2817  -21.9117  -13.2306 C   0  0  0  0  0  0  0  0  0  0  0  0
   24.6793  -21.5613  -14.5476 C   0  0  0  0  0  0  0  0  0  0  0  0
   25.7347  -21.1417  -15.5354 C   0  0  0  0  0  0  0  0  0  0  0  0
   26.8249  -21.7456  -15.6151 O   0  0  0  0  0  0  0  0  0  0  0  0
   23.1420  -21.2286  -12.1102 C   0  0  0  0  0  0  0  0  0  0  0  0
   22.5470  -22.1091  -11.3969 O   0  0  0  0  0  0  0  0  0  0  0  0
   25.4685  -20.0699  -16.3542 O   0  0  0  0  0  0  0  0  0  0  0  0
   20.5667  -18.0386  -12.3765 C   0  0  0  0  0  0  0  0  0  0  0  0
   20.2750  -19.4098  -11.8709 C   0  0  1  0  0  0  0  0  0  0  0  0
   18.8883  -19.5845  -11.8188 O   0  0  0  0  0  0  0  0  0  0  0  0
   20.8092  -20.5068  -12.7753 C   0  0  2  0  0  0  0  0  0  0  0  0
   22.2555  -20.3912  -12.8582 N   0  0  0  0  0  0  0  0  0  0  0  0
   20.1845  -20.4660  -14.1226 C   0  0  0  0  0  0  0  0  0  0  0  0
   18.8405  -20.7265  -14.3477 O   0  0  0  0  0  0  0  0  0  0  0  0
   20.8927  -20.1831  -15.1223 O   0  0  0  0  0  0  0  0  0  0  0  0
  2  1  1  1
  2  3  1  0
  4  2  1  0
  4  5  1  0
  5  6  1  6
  5  7  1  0
  7  8  2  0
  9  7  1  0
  9 10  1  0
 10 11  1  6
 12 13  1  0
 12 11  1  0
 13 14  2  0
 15 10  1  0
 15 16  2  0
 17 13  1  0
 19 18  1  6
 19 21  1  0
 20 19  1  0
 21 22  1  6
 22 15  1  0
 23 21  1  0
 24 23  1  0
 25 23  2  0
M  END
$$$$
