LET.pdb
     RDKit          3D

 25 24  0  0  1  0  0  0  0  0999 V2000
   27.9298  -18.4436   -6.1679 C   0  0  0  0  0  0  0  0  0  0  0  0
   27.9576  -19.9784   -6.1756 C   0  0  2  0  0  0  0  0  0  0  0  0
   29.2715  -20.4439   -5.6238 C   0  0  0  0  0  0  0  0  0  0  0  0
   27.6826  -20.3901   -7.5836 C   0  0  0  0  0  0  0  0  0  0  0  0
   26.3952  -19.8063   -8.1529 C   0  0  2  0  0  0  0  0  0  0  0  0
   25.2754  -20.1906   -7.3376 N   0  0  0  0  0  0  0  0  0  0  0  0
   26.2456  -20.4073   -9.5019 C   0  0  0  0  0  0  0  0  0  0  0  0
   27.1884  -21.0579  -10.0368 O   0  0  0  0  0  0  0  0  0  0  0  0
   25.0292  -20.2469  -10.1949 N   0  0  0  0  0  0  0  0  0  0  0  0
   24.7645  -20.6526  -11.5349 C   0  0  1  0  0  0  0  0  0  0  0  0
   23.3258  -20.4976  -11.9921 C   0  0  0  0  0  0  0  0  0  0  0  0
   22.4227  -21.1066  -10.9753 C   0  0  0  0  0  0  0  0  0  0  0  0
   20.9764  -20.9052  -11.3404 C   0  0  0  0  0  0  0  0  0  0  0  0
   20.6486  -20.2715  -12.3655 O   0  0  0  0  0  0  0  0  0  0  0  0
   25.7653  -20.1465  -12.4672 C   0  0  0  0  0  0  0  0  0  0  0  0
   26.2894  -18.9859  -12.3387 O   0  0  0  0  0  0  0  0  0  0  0  0
   20.0172  -21.4391  -10.5128 O   0  0  0  0  0  0  0  0  0  0  0  0
   28.1488  -22.6899  -14.8571 C   0  0  0  0  0  0  0  0  0  0  0  0
   28.4759  -21.2927  -14.4550 C   0  0  1  0  0  0  0  0  0  0  0  0
   29.4016  -20.7683  -15.3628 O   0  0  0  0  0  0  0  0  0  0  0  0
   27.2743  -20.3643  -14.4873 C   0  0  2  0  0  0  0  0  0  0  0  0
   26.2509  -20.8814  -13.5945 N   0  0  0  0  0  0  0  0  0  0  0  0
   26.7503  -20.1857  -15.8659 C   0  0  0  0  0  0  0  0  0  0  0  0
   27.5201  -19.7116  -16.9184 O   0  0  0  0  0  0  0  0  0  0  0  0
   25.5511  -20.4731  -16.1119 O   0  0  0  0  0  0  0  0  0  0  0  0
  2  1  1  6
  2  3  1  0
  4  2  1  0
  4  5  1  0
  5  6  1  1
  5  7  1  0
  7  8  2  0
  9  7  1  0
  9 10  1  0
 10 11  1  6
 12 13  1  0
 12 11  1  0
 13 14  2  0
 15 10  1  0
 15 16  2  0
 17 13  1  0
 19 18  1  6
 19 21  1  0
 20 19  1  0
 21 22  1  1
 22 15  1  0
 23 21  1  0
 24 23  1  0
 25 23  2  0
M  END
$$$$
