LET.pdb
     RDKit          3D

 25 24  0  0  1  0  0  0  0  0999 V2000
   23.8248  -14.8554  -14.6002 C   0  0  0  0  0  0  0  0  0  0  0  0
   24.3863  -14.2101  -15.8750 C   0  0  2  0  0  0  0  0  0  0  0  0
   25.8587  -13.9893  -15.7004 C   0  0  0  0  0  0  0  0  0  0  0  0
   23.5842  -12.9716  -16.0994 C   0  0  0  0  0  0  0  0  0  0  0  0
   22.1036  -13.2359  -16.3448 C   0  0  2  0  0  0  0  0  0  0  0  0
   21.9327  -14.0226  -17.5357 N   0  0  0  0  0  0  0  0  0  0  0  0
   21.4874  -11.9011  -16.5493 C   0  0  0  0  0  0  0  0  0  0  0  0
   21.7885  -11.1873  -17.5485 O   0  0  0  0  0  0  0  0  0  0  0  0
   20.5508  -11.4250  -15.6102 N   0  0  0  0  0  0  0  0  0  0  0  0
   19.7881  -10.2262  -15.7162 C   0  0  1  0  0  0  0  0  0  0  0  0
   18.3708  -10.3042  -15.1795 C   0  0  0  0  0  0  0  0  0  0  0  0
   17.5744  -11.2255  -16.0380 C   0  0  0  0  0  0  0  0  0  0  0  0
   16.1761  -11.3935  -15.5067 C   0  0  0  0  0  0  0  0  0  0  0  0
   15.5952  -12.4982  -15.5478 O   0  0  0  0  0  0  0  0  0  0  0  0
   20.5460   -9.0563  -15.2872 C   0  0  0  0  0  0  0  0  0  0  0  0
   21.2536   -9.0578  -14.2207 O   0  0  0  0  0  0  0  0  0  0  0  0
   15.5484  -10.2939  -14.9709 O   0  0  0  0  0  0  0  0  0  0  0  0
   22.7362   -4.7548  -16.3625 C   0  0  0  0  0  0  0  0  0  0  0  0
   21.9263   -5.9487  -16.7363 C   0  0  1  0  0  0  0  0  0  0  0  0
   22.7596   -6.8782  -17.3667 O   0  0  0  0  0  0  0  0  0  0  0  0
   21.3230   -6.6608  -15.5381 C   0  0  2  0  0  0  0  0  0  0  0  0
   20.5735   -7.8167  -16.0008 N   0  0  0  0  0  0  0  0  0  0  0  0
   20.4720   -5.7532  -14.7261 C   0  0  0  0  0  0  0  0  0  0  0  0
   19.1047   -5.6160  -14.9178 O   0  0  0  0  0  0  0  0  0  0  0  0
   20.9986   -5.0661  -13.8141 O   0  0  0  0  0  0  0  0  0  0  0  0
  2  1  1  1
  2  3  1  0
  4  2  1  0
  4  5  1  0
  5  6  1  6
  5  7  1  0
  7  8  2  0
  9  7  1  0
  9 10  1  0
 10 11  1  1
 12 13  1  0
 12 11  1  0
 13 14  2  0
 15 10  1  0
 15 16  2  0
 17 13  1  0
 19 18  1  1
 19 21  1  0
 20 19  1  0
 21 22  1  6
 22 15  1  0
 23 21  1  0
 24 23  1  0
 25 23  2  0
M  END
$$$$
