LET.pdb
     RDKit          3D

 25 24  0  0  1  0  0  0  0  0999 V2000
   28.5496  -20.1219   -9.2216 C   0  0  0  0  0  0  0  0  0  0  0  0
   28.4044  -21.4983   -9.8858 C   0  0  2  0  0  0  0  0  0  0  0  0
   29.7609  -22.1240  -10.0099 C   0  0  0  0  0  0  0  0  0  0  0  0
   27.6977  -21.2612  -11.1788 C   0  0  0  0  0  0  0  0  0  0  0  0
   26.3982  -20.4786  -11.0329 C   0  0  2  0  0  0  0  0  0  0  0  0
   25.4093  -21.2822  -10.3678 N   0  0  0  0  0  0  0  0  0  0  0  0
   25.9449  -20.1941  -12.4174 C   0  0  0  0  0  0  0  0  0  0  0  0
   26.7160  -19.6523  -13.2603 O   0  0  0  0  0  0  0  0  0  0  0  0
   24.6308  -20.5356  -12.7945 N   0  0  0  0  0  0  0  0  0  0  0  0
   24.0664  -20.3989  -14.0956 C   0  0  1  0  0  0  0  0  0  0  0  0
   22.7224  -21.0737  -14.2986 C   0  0  0  0  0  0  0  0  0  0  0  0
   22.3595  -21.0132  -15.7425 C   0  0  0  0  0  0  0  0  0  0  0  0
   20.9908  -21.5904  -15.9853 C   0  0  0  0  0  0  0  0  0  0  0  0
   19.9862  -20.8557  -16.0884 O   0  0  0  0  0  0  0  0  0  0  0  0
   24.1478  -19.0276  -14.5856 C   0  0  0  0  0  0  0  0  0  0  0  0
   23.5730  -18.0551  -13.9841 O   0  0  0  0  0  0  0  0  0  0  0  0
   20.8713  -22.9559  -16.0917 O   0  0  0  0  0  0  0  0  0  0  0  0
   27.0488  -16.7018  -15.1126 C   0  0  0  0  0  0  0  0  0  0  0  0
   26.3287  -16.8267  -16.4114 C   0  0  1  0  0  0  0  0  0  0  0  0
   26.9613  -17.8057  -17.1843 O   0  0  0  0  0  0  0  0  0  0  0  0
   24.8857  -17.2740  -16.2544 C   0  0  2  0  0  0  0  0  0  0  0  0
   24.8635  -18.6412  -15.7625 N   0  0  0  0  0  0  0  0  0  0  0  0
   24.1248  -17.1426  -17.5236 C   0  0  0  0  0  0  0  0  0  0  0  0
   23.9520  -15.9365  -18.1874 O   0  0  0  0  0  0  0  0  0  0  0  0
   23.6033  -18.1644  -18.0385 O   0  0  0  0  0  0  0  0  0  0  0  0
  2  1  1  6
  2  3  1  0
  4  2  1  0
  4  5  1  0
  5  6  1  6
  5  7  1  0
  7  8  2  0
  9  7  1  0
  9 10  1  0
 10 11  1  1
 12 13  1  0
 12 11  1  0
 13 14  2  0
 15 10  1  0
 15 16  2  0
 17 13  1  0
 19 18  1  1
 19 21  1  0
 20 19  1  0
 21 22  1  6
 22 15  1  0
 23 21  1  0
 24 23  1  0
 25 23  2  0
M  END
$$$$
