LET.pdb
     RDKit          3D

 25 24  0  0  1  0  0  0  0  0999 V2000
   18.0840  -11.7091  -19.3076 C   0  0  0  0  0  0  0  0  0  0  0  0
   17.0513  -11.9500  -18.1976 C   0  0  2  0  0  0  0  0  0  0  0  0
   15.6821  -11.9874  -18.8069 C   0  0  0  0  0  0  0  0  0  0  0  0
   17.2654  -10.8686  -17.1915 C   0  0  0  0  0  0  0  0  0  0  0  0
   18.6292  -10.9230  -16.5136 C   0  0  2  0  0  0  0  0  0  0  0  0
   18.7436  -12.1220  -15.7289 N   0  0  0  0  0  0  0  0  0  0  0  0
   18.6755   -9.7442  -15.6128 C   0  0  0  0  0  0  0  0  0  0  0  0
   18.1190   -9.7654  -14.4778 O   0  0  0  0  0  0  0  0  0  0  0  0
   19.3528   -8.5827  -16.0347 N   0  0  0  0  0  0  0  0  0  0  0  0
   19.5195   -7.3852  -15.2808 C   0  0  1  0  0  0  0  0  0  0  0  0
   20.9556   -6.9955  -14.9831 C   0  0  0  0  0  0  0  0  0  0  0  0
   20.9625   -5.7737  -14.1303 C   0  0  0  0  0  0  0  0  0  0  0  0
   22.3652   -5.3839  -13.7477 C   0  0  0  0  0  0  0  0  0  0  0  0
   22.7025   -5.2688  -12.5508 O   0  0  0  0  0  0  0  0  0  0  0  0
   18.6781   -6.3035  -15.7797 C   0  0  0  0  0  0  0  0  0  0  0  0
   18.7348   -5.9022  -16.9937 O   0  0  0  0  0  0  0  0  0  0  0  0
   23.2733   -5.1557  -14.7543 O   0  0  0  0  0  0  0  0  0  0  0  0
   14.9312   -5.9825  -16.0482 C   0  0  0  0  0  0  0  0  0  0  0  0
   15.4406   -4.8413  -15.2363 C   0  0  1  0  0  0  0  0  0  0  0  0
   15.3539   -5.1787  -13.8818 O   0  0  0  0  0  0  0  0  0  0  0  0
   16.9014   -4.5225  -15.5036 C   0  0  2  0  0  0  0  0  0  0  0  0
   17.7256   -5.5980  -14.9786 N   0  0  0  0  0  0  0  0  0  0  0  0
   17.2947   -3.2095  -14.9305 C   0  0  0  0  0  0  0  0  0  0  0  0
   16.7608   -2.0015  -15.3557 O   0  0  0  0  0  0  0  0  0  0  0  0
   18.1534   -3.1696  -14.0128 O   0  0  0  0  0  0  0  0  0  0  0  0
  2  1  1  6
  2  3  1  0
  4  2  1  0
  4  5  1  0
  5  6  1  1
  5  7  1  0
  7  8  2  0
  9  7  1  0
  9 10  1  0
 10 11  1  6
 12 13  1  0
 12 11  1  0
 13 14  2  0
 15 10  1  0
 15 16  2  0
 17 13  1  0
 19 18  1  6
 19 21  1  0
 20 19  1  0
 21 22  1  1
 22 15  1  0
 23 21  1  0
 24 23  1  0
 25 23  2  0
M  END
$$$$
