QCR.pdb
     RDKit          3D

 27 26  0  0  1  0  0  0  0  0999 V2000
    7.7675  -17.3872   15.4333 N   0  0  0  0  0  0  0  0  0  0  0  0
    9.0292  -16.8008   15.7617 C   0  0  0  0  0  0  0  0  0  0  0  0
   10.0989  -17.3366   15.3719 O   0  0  0  0  0  0  0  0  0  0  0  0
    9.0387  -15.5540   16.5680 C   0  0  0  0  0  0  0  0  0  0  0  0
    7.6325  -15.1734   16.9328 C   0  0  0  0  0  0  0  0  0  0  0  0
    7.5246  -13.8630   17.6359 C   0  0  2  0  0  0  0  0  0  0  0  0
    7.8569  -12.7212   16.8571 N   0  0  0  0  0  0  0  0  0  0  0  0
    8.2609  -13.9171   18.9349 C   0  0  0  0  0  0  0  0  0  0  0  0
    9.4928  -13.6634   18.9812 O   0  0  0  0  0  0  0  0  0  0  0  0
    7.5154  -14.2615   20.0886 N   0  0  0  0  0  0  0  0  0  0  0  0
    8.1342  -14.3124   21.3904 C   0  0  1  0  0  0  0  0  0  0  0  0
    7.1108  -14.6914   22.4676 C   0  0  0  0  0  0  0  0  0  0  0  0
    7.8884  -14.7015   24.0911 S   0  0  0  0  0  0  0  0  0  0  0  0
    9.1676  -15.3932   21.3969 C   0  0  0  0  0  0  0  0  0  0  0  0
    8.9575  -16.4819   20.7931 O   0  0  0  0  0  0  0  0  0  0  0  0
   16.9501  -13.8875   19.4162 N   0  0  0  0  0  0  0  0  0  0  0  0
   15.8343  -14.1350   18.5654 C   0  0  0  0  0  0  0  0  0  0  0  0
   15.7855  -13.6281   17.3802 N   0  0  0  0  0  0  0  0  0  0  0  0
   14.7430  -14.9403   18.9836 N   0  0  0  0  0  0  0  0  0  0  0  0
   14.8512  -15.7832   20.2155 C   0  0  0  0  0  0  0  0  0  0  0  0
   13.5747  -16.4920   20.4466 C   0  0  0  0  0  0  0  0  0  0  0  0
   12.3722  -15.8255   20.8945 C   0  0  0  0  0  0  0  0  0  0  0  0
   11.4741  -16.2989   21.9701 C   0  0  2  0  0  0  0  0  0  0  0  0
   10.3876  -15.2386   22.0635 N   0  0  0  0  0  0  0  0  0  0  0  0
   11.9937  -16.4654   23.3230 C   0  0  0  0  0  0  0  0  0  0  0  0
   12.9829  -17.3477   23.6791 O   0  0  0  0  0  0  0  0  0  0  0  0
   11.5297  -15.7705   24.3079 O   0  0  0  0  0  0  0  0  0  0  0  0
  2  1  1  0
  2  3  2  0
  4  2  1  0
  5  4  1  0
  5  6  1  0
  6  8  1  0
  6  7  1  6
  8  9  2  0
 10 11  1  0
 10  8  1  0
 11 12  1  1
 12 13  1  0
 14 11  1  0
 15 14  2  0
 16 17  1  0
 17 19  1  0
 18 17  2  0
 20 19  1  0
 21 22  1  0
 21 20  1  0
 23 24  1  0
 23 22  1  6
 24 14  1  0
 25 23  1  0
 26 25  1  0
 27 25  2  0
M  END
$$$$
