QCR.pdb
     RDKit          3D

 27 26  0  0  1  0  0  0  0  0999 V2000
   11.2381  -19.0269   16.0358 N   0  0  0  0  0  0  0  0  0  0  0  0
   11.9263  -17.9851   15.3397 C   0  0  0  0  0  0  0  0  0  0  0  0
   13.1258  -18.1387   14.9920 O   0  0  0  0  0  0  0  0  0  0  0  0
   11.1905  -16.7299   15.0430 C   0  0  0  0  0  0  0  0  0  0  0  0
    9.7454  -16.8860   15.4207 C   0  0  0  0  0  0  0  0  0  0  0  0
    9.0748  -15.6052   15.7852 C   0  0  2  0  0  0  0  0  0  0  0  0
    9.1320  -14.5822   14.7998 N   0  0  0  0  0  0  0  0  0  0  0  0
    9.5416  -15.1473   17.1287 C   0  0  0  0  0  0  0  0  0  0  0  0
   10.7590  -15.2195   17.4401 O   0  0  0  0  0  0  0  0  0  0  0  0
    8.5626  -14.6376   18.0159 N   0  0  0  0  0  0  0  0  0  0  0  0
    8.9278  -14.1057   19.3059 C   0  0  1  0  0  0  0  0  0  0  0  0
    7.9654  -12.9895   19.7292 C   0  0  0  0  0  0  0  0  0  0  0  0
    6.2717  -13.5992   19.7466 S   0  0  0  0  0  0  0  0  0  0  0  0
    8.7950  -15.1841   20.3332 C   0  0  0  0  0  0  0  0  0  0  0  0
    8.2291  -16.2752   20.0448 O   0  0  0  0  0  0  0  0  0  0  0  0
   15.7231  -18.8370   19.7212 N   0  0  0  0  0  0  0  0  0  0  0  0
   15.1388  -19.5129   20.8311 C   0  0  0  0  0  0  0  0  0  0  0  0
   15.5626  -20.6773   21.1898 N   0  0  0  0  0  0  0  0  0  0  0  0
   14.0778  -18.9383   21.5785 N   0  0  0  0  0  0  0  0  0  0  0  0
   13.3368  -17.7494   21.0521 C   0  0  0  0  0  0  0  0  0  0  0  0
   12.1378  -17.5039   21.8812 C   0  0  0  0  0  0  0  0  0  0  0  0
   11.1912  -16.4461   21.6055 C   0  0  0  0  0  0  0  0  0  0  0  0
    9.9530  -16.1771   22.3683 C   0  0  2  0  0  0  0  0  0  0  0  0
    9.2864  -15.0245   21.6331 N   0  0  0  0  0  0  0  0  0  0  0  0
   10.0408  -15.7681   23.7659 C   0  0  0  0  0  0  0  0  0  0  0  0
   10.1027  -16.6303   24.8320 O   0  0  0  0  0  0  0  0  0  0  0  0
   10.0582  -14.5200   24.0976 O   0  0  0  0  0  0  0  0  0  0  0  0
  2  1  1  0
  2  3  2  0
  4  2  1  0
  5  4  1  0
  5  6  1  0
  6  8  1  0
  6  7  1  6
  8  9  2  0
 10 11  1  0
 10  8  1  0
 11 12  1  1
 12 13  1  0
 14 11  1  0
 15 14  2  0
 16 17  1  0
 17 19  1  0
 18 17  2  0
 20 19  1  0
 21 22  1  0
 21 20  1  0
 23 24  1  0
 23 22  1  6
 24 14  1  0
 25 23  1  0
 26 25  1  0
 27 25  2  0
M  END
$$$$
