QCR.pdb
     RDKit          3D

 27 26  0  0  1  0  0  0  0  0999 V2000
    9.9357  -14.6179   18.0101 N   0  0  0  0  0  0  0  0  0  0  0  0
    8.5844  -14.3504   17.6278 C   0  0  0  0  0  0  0  0  0  0  0  0
    8.1771  -14.6591   16.4780 O   0  0  0  0  0  0  0  0  0  0  0  0
    7.6862  -13.7043   18.6182 C   0  0  0  0  0  0  0  0  0  0  0  0
    8.3655  -13.6416   19.9560 C   0  0  0  0  0  0  0  0  0  0  0  0
    8.0113  -14.7680   20.8665 C   0  0  2  0  0  0  0  0  0  0  0  0
    6.6206  -15.0250   21.0100 N   0  0  0  0  0  0  0  0  0  0  0  0
    8.7126  -14.6074   22.1760 C   0  0  0  0  0  0  0  0  0  0  0  0
    9.9390  -14.3265   22.2130 O   0  0  0  0  0  0  0  0  0  0  0  0
    7.9411  -14.7840   23.3503 N   0  0  0  0  0  0  0  0  0  0  0  0
    8.5435  -14.7085   24.6586 C   0  0  1  0  0  0  0  0  0  0  0  0
    7.6065  -14.0119   25.6526 C   0  0  0  0  0  0  0  0  0  0  0  0
    6.1072  -13.4659   24.8191 S   0  0  0  0  0  0  0  0  0  0  0  0
    8.7509  -16.0944   25.1804 C   0  0  0  0  0  0  0  0  0  0  0  0
    7.8649  -16.9786   25.0153 O   0  0  0  0  0  0  0  0  0  0  0  0
   11.9692  -19.7563   31.2273 N   0  0  0  0  0  0  0  0  0  0  0  0
   12.7179  -20.2585   30.1240 C   0  0  0  0  0  0  0  0  0  0  0  0
   13.3970  -21.3499   30.2320 N   0  0  0  0  0  0  0  0  0  0  0  0
   12.7467  -19.5848   28.8751 N   0  0  0  0  0  0  0  0  0  0  0  0
   12.1312  -20.2097   27.6624 C   0  0  0  0  0  0  0  0  0  0  0  0
   12.3024  -19.3129   26.4998 C   0  0  0  0  0  0  0  0  0  0  0  0
   11.6041  -18.0539   26.3652 C   0  0  0  0  0  0  0  0  0  0  0  0
   10.1354  -17.8806   26.3474 C   0  0  2  0  0  0  0  0  0  0  0  0
    9.9183  -16.4559   25.8611 N   0  0  0  0  0  0  0  0  0  0  0  0
    9.3791  -18.0036   27.5888 C   0  0  0  0  0  0  0  0  0  0  0  0
    8.9133  -19.1854   28.1084 O   0  0  0  0  0  0  0  0  0  0  0  0
    9.0836  -16.9651   28.2976 O   0  0  0  0  0  0  0  0  0  0  0  0
  2  1  1  0
  2  3  2  0
  4  2  1  0
  5  4  1  0
  5  6  1  0
  6  8  1  0
  6  7  1  1
  8  9  2  0
 10 11  1  0
 10  8  1  0
 11 12  1  1
 12 13  1  0
 14 11  1  0
 15 14  2  0
 16 17  1  0
 17 19  1  0
 18 17  2  0
 20 19  1  0
 21 22  1  0
 21 20  1  0
 23 24  1  0
 23 22  1  1
 24 14  1  0
 25 23  1  0
 26 25  1  0
 27 25  2  0
M  END
$$$$
