QCR.pdb
     RDKit          3D

 27 26  0  0  1  0  0  0  0  0999 V2000
    9.9194  -21.2519   17.6334 N   0  0  0  0  0  0  0  0  0  0  0  0
   10.7210  -20.0691   17.5876 C   0  0  0  0  0  0  0  0  0  0  0  0
   11.9629  -20.1507   17.4026 O   0  0  0  0  0  0  0  0  0  0  0  0
   10.0506  -18.7558   17.7632 C   0  0  0  0  0  0  0  0  0  0  0  0
    8.5936  -18.9643   18.0616 C   0  0  0  0  0  0  0  0  0  0  0  0
    7.8075  -17.7002   18.1458 C   0  0  2  0  0  0  0  0  0  0  0  0
    7.6108  -17.0185   16.9139 N   0  0  0  0  0  0  0  0  0  0  0  0
    8.3665  -16.8203   19.2162 C   0  0  0  0  0  0  0  0  0  0  0  0
    9.1988  -15.9198   18.9323 O   0  0  0  0  0  0  0  0  0  0  0  0
    7.9197  -17.0474   20.5407 N   0  0  0  0  0  0  0  0  0  0  0  0
    8.4149  -16.2584   21.6419 C   0  0  1  0  0  0  0  0  0  0  0  0
    7.4683  -16.3444   22.8451 C   0  0  0  0  0  0  0  0  0  0  0  0
    8.1586  -15.4511   24.2473 S   0  0  0  0  0  0  0  0  0  0  0  0
    9.7223  -16.8234   22.0973 C   0  0  0  0  0  0  0  0  0  0  0  0
    9.9796  -18.0489   21.9363 O   0  0  0  0  0  0  0  0  0  0  0  0
   15.4182  -15.3234   16.7295 N   0  0  0  0  0  0  0  0  0  0  0  0
   15.8716  -14.4834   17.7872 C   0  0  0  0  0  0  0  0  0  0  0  0
   16.6496  -13.4832   17.5457 N   0  0  0  0  0  0  0  0  0  0  0  0
   15.4897  -14.7113   19.1351 N   0  0  0  0  0  0  0  0  0  0  0  0
   14.0645  -14.5403   19.5584 C   0  0  0  0  0  0  0  0  0  0  0  0
   13.8897  -15.0520   20.9342 C   0  0  0  0  0  0  0  0  0  0  0  0
   12.5984  -15.1684   21.5745 C   0  0  0  0  0  0  0  0  0  0  0  0
   12.1761  -16.2675   22.4695 C   0  0  2  0  0  0  0  0  0  0  0  0
   10.6940  -16.0250   22.7098 N   0  0  0  0  0  0  0  0  0  0  0  0
   12.7836  -16.3970   23.7895 C   0  0  0  0  0  0  0  0  0  0  0  0
   12.1665  -16.0709   24.9713 O   0  0  0  0  0  0  0  0  0  0  0  0
   13.9900  -16.8363   23.9303 O   0  0  0  0  0  0  0  0  0  0  0  0
  2  1  1  0
  2  3  2  0
  4  2  1  0
  5  4  1  0
  5  6  1  0
  6  8  1  0
  6  7  1  6
  8  9  2  0
 10 11  1  0
 10  8  1  0
 11 12  1  1
 12 13  1  0
 14 11  1  0
 15 14  2  0
 16 17  1  0
 17 19  1  0
 18 17  2  0
 20 19  1  0
 21 22  1  0
 21 20  1  0
 23 24  1  0
 23 22  1  1
 24 14  1  0
 25 23  1  0
 26 25  1  0
 27 25  2  0
M  END
$$$$
