QCR.pdb
     RDKit          3D

 27 26  0  0  1  0  0  0  0  0999 V2000
    8.5665  -12.2138   18.8662 N   0  0  0  0  0  0  0  0  0  0  0  0
    7.9644  -13.4250   18.4033 C   0  0  0  0  0  0  0  0  0  0  0  0
    7.8352  -13.6388   17.1701 O   0  0  0  0  0  0  0  0  0  0  0  0
    7.5011  -14.4120   19.4113 C   0  0  0  0  0  0  0  0  0  0  0  0
    7.7674  -13.8902   20.7941 C   0  0  0  0  0  0  0  0  0  0  0  0
    7.5520  -14.8979   21.8717 C   0  0  2  0  0  0  0  0  0  0  0  0
    6.2225  -15.3850   21.9975 N   0  0  0  0  0  0  0  0  0  0  0  0
    8.1133  -14.3953   23.1620 C   0  0  0  0  0  0  0  0  0  0  0  0
    9.3233  -14.0584   23.2435 O   0  0  0  0  0  0  0  0  0  0  0  0
    7.2305  -14.3187   24.2666 N   0  0  0  0  0  0  0  0  0  0  0  0
    7.6869  -13.8665   25.5580 C   0  0  1  0  0  0  0  0  0  0  0  0
    6.5661  -13.1386   26.3097 C   0  0  0  0  0  0  0  0  0  0  0  0
    6.0243  -11.6965   25.3784 S   0  0  0  0  0  0  0  0  0  0  0  0
    8.0461  -15.0549   26.3915 C   0  0  0  0  0  0  0  0  0  0  0  0
    7.1843  -15.9423   26.6441 O   0  0  0  0  0  0  0  0  0  0  0  0
    7.7562  -22.2840   27.8356 N   0  0  0  0  0  0  0  0  0  0  0  0
    7.5196  -21.4999   26.6697 C   0  0  0  0  0  0  0  0  0  0  0  0
    6.4371  -21.6501   25.9843 N   0  0  0  0  0  0  0  0  0  0  0  0
    8.4558  -20.5325   26.2201 N   0  0  0  0  0  0  0  0  0  0  0  0
    8.7768  -19.3388   27.0639 C   0  0  0  0  0  0  0  0  0  0  0  0
    9.8536  -18.5533   26.4247 C   0  0  0  0  0  0  0  0  0  0  0  0
   10.3992  -17.3457   27.0036 C   0  0  0  0  0  0  0  0  0  0  0  0
    9.6573  -16.3818   27.8449 C   0  0  2  0  0  0  0  0  0  0  0  0
    9.3326  -15.2235   26.9142 N   0  0  0  0  0  0  0  0  0  0  0  0
   10.3061  -15.7933   29.0115 C   0  0  0  0  0  0  0  0  0  0  0  0
   10.4402  -16.4126   30.2289 O   0  0  0  0  0  0  0  0  0  0  0  0
   10.8061  -14.6031   28.9693 O   0  0  0  0  0  0  0  0  0  0  0  0
  2  1  1  0
  2  3  2  0
  4  2  1  0
  5  4  1  0
  5  6  1  0
  6  8  1  0
  6  7  1  1
  8  9  2  0
 10 11  1  0
 10  8  1  0
 11 12  1  1
 12 13  1  0
 14 11  1  0
 15 14  2  0
 16 17  1  0
 17 19  1  0
 18 17  2  0
 20 19  1  0
 21 22  1  0
 21 20  1  0
 23 24  1  0
 23 22  1  6
 24 14  1  0
 25 23  1  0
 26 25  1  0
 27 25  2  0
M  END
$$$$
