QCR.pdb
     RDKit          3D

 27 26  0  0  1  0  0  0  0  0999 V2000
    8.7812  -12.7119   18.7663 N   0  0  0  0  0  0  0  0  0  0  0  0
    7.6331  -13.5466   18.5964 C   0  0  0  0  0  0  0  0  0  0  0  0
    6.7280  -13.2235   17.7843 O   0  0  0  0  0  0  0  0  0  0  0  0
    7.5424  -14.7928   19.3988 C   0  0  0  0  0  0  0  0  0  0  0  0
    8.8093  -14.9871   20.1815 C   0  0  0  0  0  0  0  0  0  0  0  0
    8.5956  -15.5458   21.5472 C   0  0  2  0  0  0  0  0  0  0  0  0
    7.3781  -16.2551   21.7349 N   0  0  0  0  0  0  0  0  0  0  0  0
    8.8160  -14.4838   22.5748 C   0  0  0  0  0  0  0  0  0  0  0  0
    9.7263  -13.6279   22.4231 O   0  0  0  0  0  0  0  0  0  0  0  0
    7.9641  -14.4898   23.7060 N   0  0  0  0  0  0  0  0  0  0  0  0
    8.2474  -13.6711   24.8591 C   0  0  1  0  0  0  0  0  0  0  0  0
    7.0050  -12.8804   25.2866 C   0  0  0  0  0  0  0  0  0  0  0  0
    5.9909  -13.8659   26.4005 S   0  0  0  0  0  0  0  0  0  0  0  0
    8.5963  -14.5570   26.0121 C   0  0  0  0  0  0  0  0  0  0  0  0
    7.9153  -15.5929   26.2510 O   0  0  0  0  0  0  0  0  0  0  0  0
   14.6521  -15.9949   23.2330 N   0  0  0  0  0  0  0  0  0  0  0  0
   13.8902  -17.1910   23.3711 C   0  0  0  0  0  0  0  0  0  0  0  0
   13.6356  -17.9310   22.3457 N   0  0  0  0  0  0  0  0  0  0  0  0
   13.3858  -17.6115   24.6294 N   0  0  0  0  0  0  0  0  0  0  0  0
   13.3601  -16.6669   25.7899 C   0  0  0  0  0  0  0  0  0  0  0  0
   11.9659  -16.4708   26.2405 C   0  0  0  0  0  0  0  0  0  0  0  0
   11.6041  -15.5817   27.3220 C   0  0  0  0  0  0  0  0  0  0  0  0
   10.2295  -15.3257   27.8040 C   0  0  2  0  0  0  0  0  0  0  0  0
    9.6752  -14.2733   26.8560 N   0  0  0  0  0  0  0  0  0  0  0  0
   10.0223  -14.8055   29.1511 C   0  0  0  0  0  0  0  0  0  0  0  0
   10.1356  -15.5444   30.3021 O   0  0  0  0  0  0  0  0  0  0  0  0
    9.6988  -13.5708   29.3488 O   0  0  0  0  0  0  0  0  0  0  0  0
  2  1  1  0
  2  3  2  0
  4  2  1  0
  5  4  1  0
  5  6  1  0
  6  8  1  0
  6  7  1  6
  8  9  2  0
 10 11  1  0
 10  8  1  0
 11 12  1  1
 12 13  1  0
 14 11  1  0
 15 14  2  0
 16 17  1  0
 17 19  1  0
 18 17  2  0
 20 19  1  0
 21 22  1  0
 21 20  1  0
 23 24  1  0
 23 22  1  6
 24 14  1  0
 25 23  1  0
 26 25  1  0
 27 25  2  0
M  END
$$$$
