QCR.pdb
     RDKit          3D

 27 26  0  0  1  0  0  0  0  0999 V2000
    7.4822  -19.6058   30.3318 N   0  0  0  0  0  0  0  0  0  0  0  0
    8.1912  -20.6389   29.6435 C   0  0  0  0  0  0  0  0  0  0  0  0
    8.9705  -21.4011   30.2719 O   0  0  0  0  0  0  0  0  0  0  0  0
    7.9823  -20.7831   28.1804 C   0  0  0  0  0  0  0  0  0  0  0  0
    6.9419  -19.8047   27.7162 C   0  0  0  0  0  0  0  0  0  0  0  0
    7.1946  -19.2558   26.3532 C   0  0  2  0  0  0  0  0  0  0  0  0
    8.4686  -19.5563   25.7988 N   0  0  0  0  0  0  0  0  0  0  0  0
    6.8745  -17.7967   26.3215 C   0  0  0  0  0  0  0  0  0  0  0  0
    5.6981  -17.3969   26.5223 O   0  0  0  0  0  0  0  0  0  0  0  0
    7.9425  -16.9045   26.0594 N   0  0  0  0  0  0  0  0  0  0  0  0
    7.7236  -15.6616   25.3611 C   0  0  1  0  0  0  0  0  0  0  0  0
    8.1029  -14.4654   26.2423 C   0  0  0  0  0  0  0  0  0  0  0  0
    9.3150  -14.9599   27.4779 S   0  0  0  0  0  0  0  0  0  0  0  0
    8.6259  -15.6062   24.1700 C   0  0  0  0  0  0  0  0  0  0  0  0
    9.5902  -16.4138   24.0607 O   0  0  0  0  0  0  0  0  0  0  0  0
    8.5202  -15.1260   16.6245 N   0  0  0  0  0  0  0  0  0  0  0  0
    8.1631  -13.7801   16.3228 C   0  0  0  0  0  0  0  0  0  0  0  0
    8.3022  -13.3146   15.1277 N   0  0  0  0  0  0  0  0  0  0  0  0
    7.6458  -12.9066   17.3146 N   0  0  0  0  0  0  0  0  0  0  0  0
    7.2023  -13.4422   18.6398 C   0  0  0  0  0  0  0  0  0  0  0  0
    8.3836  -13.7265   19.4817 C   0  0  0  0  0  0  0  0  0  0  0  0
    8.3157  -13.8484   20.9210 C   0  0  0  0  0  0  0  0  0  0  0  0
    8.8514  -14.9741   21.7168 C   0  0  2  0  0  0  0  0  0  0  0  0
    8.4365  -14.6700   23.1481 N   0  0  0  0  0  0  0  0  0  0  0  0
   10.2905  -15.2105   21.7548 C   0  0  0  0  0  0  0  0  0  0  0  0
   10.9934  -15.9170   20.8111 O   0  0  0  0  0  0  0  0  0  0  0  0
   11.0173  -14.7578   22.7217 O   0  0  0  0  0  0  0  0  0  0  0  0
  2  1  1  0
  2  3  2  0
  4  2  1  0
  5  4  1  0
  5  6  1  0
  6  8  1  0
  6  7  1  1
  8  9  2  0
 10 11  1  0
 10  8  1  0
 11 12  1  1
 12 13  1  0
 14 11  1  0
 15 14  2  0
 16 17  1  0
 17 19  1  0
 18 17  2  0
 20 19  1  0
 21 22  1  0
 21 20  1  0
 23 24  1  0
 23 22  1  6
 24 14  1  0
 25 23  1  0
 26 25  1  0
 27 25  2  0
M  END
$$$$
