QCR.pdb
     RDKit          3D

 27 26  0  0  1  0  0  0  0  0999 V2000
    7.2581  -23.1709   25.7483 N   0  0  0  0  0  0  0  0  0  0  0  0
    6.2049  -22.9861   26.6971 C   0  0  0  0  0  0  0  0  0  0  0  0
    5.9886  -23.8536   27.5824 O   0  0  0  0  0  0  0  0  0  0  0  0
    5.3830  -21.7526   26.6068 C   0  0  0  0  0  0  0  0  0  0  0  0
    5.7806  -20.9642   25.3921 C   0  0  0  0  0  0  0  0  0  0  0  0
    6.8991  -20.0080   25.6323 C   0  0  2  0  0  0  0  0  0  0  0  0
    7.3103  -19.8747   26.9865 N   0  0  0  0  0  0  0  0  0  0  0  0
    6.5998  -18.6965   24.9821 C   0  0  0  0  0  0  0  0  0  0  0  0
    5.9632  -18.6526   23.8972 O   0  0  0  0  0  0  0  0  0  0  0  0
    7.0601  -17.5284   25.6371 N   0  0  0  0  0  0  0  0  0  0  0  0
    7.2834  -16.3029   24.9101 C   0  0  1  0  0  0  0  0  0  0  0  0
    7.4592  -15.1213   25.8714 C   0  0  0  0  0  0  0  0  0  0  0  0
    7.5283  -13.5746   24.9531 S   0  0  0  0  0  0  0  0  0  0  0  0
    8.5646  -16.4153   24.1473 C   0  0  0  0  0  0  0  0  0  0  0  0
    9.5954  -16.8950   24.6964 O   0  0  0  0  0  0  0  0  0  0  0  0
    6.8811  -13.9938   16.5717 N   0  0  0  0  0  0  0  0  0  0  0  0
    8.0928  -13.5285   17.1593 C   0  0  0  0  0  0  0  0  0  0  0  0
    8.5543  -12.3577   16.8760 N   0  0  0  0  0  0  0  0  0  0  0  0
    8.8333  -14.3264   18.0701 N   0  0  0  0  0  0  0  0  0  0  0  0
    8.2595  -15.6034   18.5992 C   0  0  0  0  0  0  0  0  0  0  0  0
    9.2050  -16.2138   19.5576 C   0  0  0  0  0  0  0  0  0  0  0  0
    9.6978  -15.5226   20.7283 C   0  0  0  0  0  0  0  0  0  0  0  0
    9.9685  -16.1412   22.0442 C   0  0  2  0  0  0  0  0  0  0  0  0
    8.6656  -15.9985   22.8158 N   0  0  0  0  0  0  0  0  0  0  0  0
   11.0093  -15.5859   22.9023 C   0  0  0  0  0  0  0  0  0  0  0  0
   12.3549  -15.8043   22.7431 O   0  0  0  0  0  0  0  0  0  0  0  0
   10.7147  -14.8316   23.9085 O   0  0  0  0  0  0  0  0  0  0  0  0
  2  1  1  0
  2  3  2  0
  4  2  1  0
  5  4  1  0
  5  6  1  0
  6  8  1  0
  6  7  1  1
  8  9  2  0
 10 11  1  0
 10  8  1  0
 11 12  1  1
 12 13  1  0
 14 11  1  0
 15 14  2  0
 16 17  1  0
 17 19  1  0
 18 17  2  0
 20 19  1  0
 21 22  1  0
 21 20  1  0
 23 24  1  0
 23 22  1  6
 24 14  1  0
 25 23  1  0
 26 25  1  0
 27 25  2  0
M  END
$$$$
