GTA.pdb
     RDKit          3D

 17 16  0  0  1  0  0  0  0  0999 V2000
    8.2066  -25.9252   30.0751 N   0  0  0  0  0  0  0  0  0  0  0  0
    8.6888  -24.5823   30.0294 C   0  0  0  0  0  0  0  0  0  0  0  0
   10.1585  -24.5964   29.8608 C   0  0  0  0  0  0  0  0  0  0  0  0
   10.8833  -25.5232   30.3266 O   0  0  0  0  0  0  0  0  0  0  0  0
   12.0379  -24.1401   26.4614 C   0  0  0  0  0  0  0  0  0  0  0  0
   12.4713  -23.1171   27.4759 C   0  0  1  0  0  0  0  0  0  0  0  0
   11.7936  -21.9481   27.2458 O   0  0  0  0  0  0  0  0  0  0  0  0
   12.2128  -23.6394   28.8734 C   0  0  2  0  0  0  0  0  0  0  0  0
   10.7893  -23.5563   29.1641 N   0  0  0  0  0  0  0  0  0  0  0  0
   12.9419  -22.7510   29.8373 C   0  0  0  0  0  0  0  0  0  0  0  0
   14.2001  -22.7346   29.7500 O   0  0  0  0  0  0  0  0  0  0  0  0
   13.8481  -21.9155   32.6751 C   0  0  0  0  0  0  0  0  0  0  0  0
   12.9168  -21.1608   31.7982 C   0  0  2  0  0  0  0  0  0  0  0  0
   12.2757  -21.9595   30.8053 N   0  0  0  0  0  0  0  0  0  0  0  0
   13.5048  -19.9015   31.2312 C   0  0  0  0  0  0  0  0  0  0  0  0
   13.3551  -19.6530   29.9866 O   0  0  0  0  0  0  0  0  0  0  0  0
   14.2131  -18.9619   31.9389 O   0  0  0  0  0  0  0  0  0  0  0  0
  2  1  1  0
  3  2  1  0
  4  3  2  0
  6  5  1  6
  6  8  1  0
  7  6  1  0
  8  9  1  1
  9  3  1  0
 10  8  1  0
 10 14  1  0
 11 10  2  0
 13 12  1  6
 13 14  1  0
 13 15  1  0
 15 17  1  0
 16 15  2  0
M  END
$$$$
