GTA.pdb
     RDKit          3D

 17 16  0  0  1  0  0  0  0  0999 V2000
    7.4046  -17.1345   17.3506 N   0  0  0  0  0  0  0  0  0  0  0  0
    8.8280  -17.0926   17.2501 C   0  0  0  0  0  0  0  0  0  0  0  0
    9.3694  -16.2429   18.3333 C   0  0  0  0  0  0  0  0  0  0  0  0
   10.5683  -15.8381   18.3396 O   0  0  0  0  0  0  0  0  0  0  0  0
    7.6884  -13.1598   20.0713 C   0  0  0  0  0  0  0  0  0  0  0  0
    8.0536  -14.2009   21.0941 C   0  0  1  0  0  0  0  0  0  0  0  0
    6.9220  -14.8846   21.4560 O   0  0  0  0  0  0  0  0  0  0  0  0
    9.1034  -15.1321   20.5257 C   0  0  2  0  0  0  0  0  0  0  0  0
    8.5419  -15.8620   19.3988 N   0  0  0  0  0  0  0  0  0  0  0  0
    9.4652  -16.1217   21.5933 C   0  0  0  0  0  0  0  0  0  0  0  0
    8.7668  -17.1704   21.6520 O   0  0  0  0  0  0  0  0  0  0  0  0
   12.4438  -17.0775   23.4844 C   0  0  0  0  0  0  0  0  0  0  0  0
   10.9755  -16.8535   23.4796 C   0  0  2  0  0  0  0  0  0  0  0  0
   10.5328  -15.9144   22.5013 N   0  0  0  0  0  0  0  0  0  0  0  0
   10.3996  -16.5818   24.8389 C   0  0  0  0  0  0  0  0  0  0  0  0
   10.5829  -17.4358   25.7718 O   0  0  0  0  0  0  0  0  0  0  0  0
    9.6692  -15.4733   25.1897 O   0  0  0  0  0  0  0  0  0  0  0  0
  2  1  1  0
  3  2  1  0
  4  3  2  0
  6  5  1  6
  6  8  1  0
  7  6  1  0
  8  9  1  6
  9  3  1  0
 10  8  1  0
 10 14  1  0
 11 10  2  0
 13 12  1  1
 13 14  1  0
 13 15  1  0
 15 17  1  0
 16 15  2  0
M  END
$$$$
