GTA.pdb
     RDKit          3D

 17 16  0  0  1  0  0  0  0  0999 V2000
    8.5910  -13.6144   16.7059 N   0  0  0  0  0  0  0  0  0  0  0  0
    9.2031  -14.3332   17.7767 C   0  0  0  0  0  0  0  0  0  0  0  0
    8.4453  -14.0910   19.0238 C   0  0  0  0  0  0  0  0  0  0  0  0
    7.6010  -13.1545   19.1306 O   0  0  0  0  0  0  0  0  0  0  0  0
    5.7727  -15.2441   20.1920 C   0  0  0  0  0  0  0  0  0  0  0  0
    6.6703  -15.6067   21.3436 C   0  0  1  0  0  0  0  0  0  0  0  0
    7.0302  -16.9244   21.2288 O   0  0  0  0  0  0  0  0  0  0  0  0
    7.8839  -14.7015   21.3527 C   0  0  2  0  0  0  0  0  0  0  0  0
    8.6552  -14.9162   20.1374 N   0  0  0  0  0  0  0  0  0  0  0  0
    8.7362  -15.0885   22.5247 C   0  0  0  0  0  0  0  0  0  0  0  0
    9.7496  -15.7975   22.2770 O   0  0  0  0  0  0  0  0  0  0  0  0
    8.8740  -14.3077   26.2264 C   0  0  0  0  0  0  0  0  0  0  0  0
    9.1392  -15.1279   25.0168 C   0  0  2  0  0  0  0  0  0  0  0  0
    8.4413  -14.6906   23.8521 N   0  0  0  0  0  0  0  0  0  0  0  0
    9.0062  -16.6055   25.2456 C   0  0  0  0  0  0  0  0  0  0  0  0
    7.9599  -17.2063   24.8245 O   0  0  0  0  0  0  0  0  0  0  0  0
    9.9249  -17.4002   25.8857 O   0  0  0  0  0  0  0  0  0  0  0  0
  2  1  1  0
  3  2  1  0
  4  3  2  0
  6  5  1  6
  6  8  1  0
  7  6  1  0
  8  9  1  6
  9  3  1  0
 10  8  1  0
 10 14  1  0
 11 10  2  0
 13 12  1  1
 13 14  1  0
 13 15  1  0
 15 17  1  0
 16 15  2  0
M  END
$$$$
