GTA.pdb
     RDKit          3D

 17 16  0  0  1  0  0  0  0  0999 V2000
   11.6893  -17.2864   19.2627 N   0  0  0  0  0  0  0  0  0  0  0  0
   10.6890  -17.5872   20.2358 C   0  0  0  0  0  0  0  0  0  0  0  0
   10.1462  -16.3252   20.7845 C   0  0  0  0  0  0  0  0  0  0  0  0
   10.7427  -15.2175   20.6492 O   0  0  0  0  0  0  0  0  0  0  0  0
    6.9019  -14.4859   20.3788 C   0  0  0  0  0  0  0  0  0  0  0  0
    7.0253  -14.8777   21.8261 C   0  0  1  0  0  0  0  0  0  0  0  0
    6.2559  -15.9893   22.0528 O   0  0  0  0  0  0  0  0  0  0  0  0
    8.4784  -15.1331   22.1662 C   0  0  2  0  0  0  0  0  0  0  0  0
    8.9301  -16.3354   21.4819 N   0  0  0  0  0  0  0  0  0  0  0  0
    8.5686  -15.3717   23.6443 C   0  0  0  0  0  0  0  0  0  0  0  0
    8.7966  -16.5563   24.0127 O   0  0  0  0  0  0  0  0  0  0  0  0
    8.1036  -13.2749   26.7783 C   0  0  0  0  0  0  0  0  0  0  0  0
    8.3495  -14.5233   26.0121 C   0  0  2  0  0  0  0  0  0  0  0  0
    8.4109  -14.3371   24.5992 N   0  0  0  0  0  0  0  0  0  0  0  0
    7.4519  -15.6611   26.4034 C   0  0  0  0  0  0  0  0  0  0  0  0
    6.3036  -15.7626   25.8519 O   0  0  0  0  0  0  0  0  0  0  0  0
    7.7504  -16.6324   27.3268 O   0  0  0  0  0  0  0  0  0  0  0  0
  2  1  1  0
  3  2  1  0
  4  3  2  0
  6  5  1  6
  6  8  1  0
  7  6  1  0
  8  9  1  6
  9  3  1  0
 10  8  1  0
 10 14  1  0
 11 10  2  0
 13 12  1  1
 13 14  1  0
 13 15  1  0
 15 17  1  0
 16 15  2  0
M  END
$$$$
