GTA.pdb
     RDKit          3D

 17 16  0  0  1  0  0  0  0  0999 V2000
   -7.2863  -27.6561   33.3037 N   0  0  0  0  0  0  0  0  0  0  0  0
   -6.9631  -26.2977   33.0068 C   0  0  0  0  0  0  0  0  0  0  0  0
   -7.6861  -25.8791   31.7859 C   0  0  0  0  0  0  0  0  0  0  0  0
   -7.9084  -26.6735   30.8264 O   0  0  0  0  0  0  0  0  0  0  0  0
  -11.0631  -24.2286   31.5948 C   0  0  0  0  0  0  0  0  0  0  0  0
  -10.0862  -23.3464   30.8662 C   0  0  1  0  0  0  0  0  0  0  0  0
   -9.7498  -22.2926   31.6756 O   0  0  0  0  0  0  0  0  0  0  0  0
   -8.8658  -24.1503   30.4703 C   0  0  2  0  0  0  0  0  0  0  0  0
   -8.1490  -24.5612   31.6684 N   0  0  0  0  0  0  0  0  0  0  0  0
   -7.9674  -23.2557   29.6688 C   0  0  0  0  0  0  0  0  0  0  0  0
   -7.0529  -22.6600   30.3010 O   0  0  0  0  0  0  0  0  0  0  0  0
   -5.9176  -22.7807   27.2452 C   0  0  0  0  0  0  0  0  0  0  0  0
   -7.2866  -22.2453   27.4575 C   0  0  2  0  0  0  0  0  0  0  0  0
   -8.1157  -23.0725   28.2718 N   0  0  0  0  0  0  0  0  0  0  0  0
   -7.9709  -21.8128   26.1934 C   0  0  0  0  0  0  0  0  0  0  0  0
   -7.4042  -20.9430   25.4481 O   0  0  0  0  0  0  0  0  0  0  0  0
   -9.1854  -22.2711   25.7459 O   0  0  0  0  0  0  0  0  0  0  0  0
  2  1  1  0
  3  2  1  0
  4  3  2  0
  6  5  1  1
  6  8  1  0
  7  6  1  0
  8  9  1  1
  9  3  1  0
 10  8  1  0
 10 14  1  0
 11 10  2  0
 13 12  1  6
 13 14  1  0
 13 15  1  0
 15 17  1  0
 16 15  2  0
M  END
$$$$
