GTA.pdb
     RDKit          3D

 17 16  0  0  1  0  0  0  0  0999 V2000
   13.7837  -14.6193   18.5211 N   0  0  0  0  0  0  0  0  0  0  0  0
   12.5699  -15.3352   18.7491 C   0  0  0  0  0  0  0  0  0  0  0  0
   11.7645  -14.6206   19.7637 C   0  0  0  0  0  0  0  0  0  0  0  0
   12.2895  -13.8734   20.6396 O   0  0  0  0  0  0  0  0  0  0  0  0
    8.3789  -12.6997   19.0673 C   0  0  0  0  0  0  0  0  0  0  0  0
    8.2212  -13.7147   20.1665 C   0  0  1  0  0  0  0  0  0  0  0  0
    7.6124  -14.8317   19.6560 O   0  0  0  0  0  0  0  0  0  0  0  0
    9.5754  -14.0452   20.7575 C   0  0  2  0  0  0  0  0  0  0  0  0
   10.3700  -14.7630   19.7720 N   0  0  0  0  0  0  0  0  0  0  0  0
    9.3544  -14.9507   21.9328 C   0  0  0  0  0  0  0  0  0  0  0  0
    9.6435  -16.1677   21.7708 O   0  0  0  0  0  0  0  0  0  0  0  0
    8.1414  -14.5585   25.5107 C   0  0  0  0  0  0  0  0  0  0  0  0
    8.5421  -15.3129   24.2957 C   0  0  2  0  0  0  0  0  0  0  0  0
    8.8491  -14.4883   23.1730 N   0  0  0  0  0  0  0  0  0  0  0  0
    7.6107  -16.4369   23.9457 C   0  0  0  0  0  0  0  0  0  0  0  0
    6.6980  -16.2369   23.0738 O   0  0  0  0  0  0  0  0  0  0  0  0
    7.6409  -17.6975   24.4891 O   0  0  0  0  0  0  0  0  0  0  0  0
  2  1  1  0
  3  2  1  0
  4  3  2  0
  6  5  1  6
  6  8  1  0
  7  6  1  0
  8  9  1  6
  9  3  1  0
 10  8  1  0
 10 14  1  0
 11 10  2  0
 13 12  1  1
 13 14  1  0
 13 15  1  0
 15 17  1  0
 16 15  2  0
M  END
$$$$
