GTA.pdb
     RDKit          3D

 17 16  0  0  1  0  0  0  0  0999 V2000
    8.5088  -13.1315   17.9281 N   0  0  0  0  0  0  0  0  0  0  0  0
    9.1335  -13.6736   19.0916 C   0  0  0  0  0  0  0  0  0  0  0  0
    8.1525  -13.7157   20.1981 C   0  0  0  0  0  0  0  0  0  0  0  0
    7.1168  -12.9887   20.2112 O   0  0  0  0  0  0  0  0  0  0  0  0
    6.0724  -16.3976   21.2860 C   0  0  0  0  0  0  0  0  0  0  0  0
    6.8542  -16.0253   22.5163 C   0  0  1  0  0  0  0  0  0  0  0  0
    7.8626  -16.9365   22.6948 O   0  0  0  0  0  0  0  0  0  0  0  0
    7.3989  -14.6200   22.3720 C   0  0  2  0  0  0  0  0  0  0  0  0
    8.3589  -14.5843   21.2789 N   0  0  0  0  0  0  0  0  0  0  0  0
    8.1192  -14.2745   23.6415 C   0  0  0  0  0  0  0  0  0  0  0  0
    9.3597  -14.5017   23.6673 O   0  0  0  0  0  0  0  0  0  0  0  0
    7.3349  -12.2987   26.7523 C   0  0  0  0  0  0  0  0  0  0  0  0
    8.1078  -13.2962   25.9690 C   0  0  2  0  0  0  0  0  0  0  0  0
    7.4641  -13.7193   24.7684 N   0  0  0  0  0  0  0  0  0  0  0  0
    8.6135  -14.4488   26.7869 C   0  0  0  0  0  0  0  0  0  0  0  0
    8.1232  -15.6122   26.5883 O   0  0  0  0  0  0  0  0  0  0  0  0
    9.5787  -14.3742   27.7606 O   0  0  0  0  0  0  0  0  0  0  0  0
  2  1  1  0
  3  2  1  0
  4  3  2  0
  6  5  1  6
  6  8  1  0
  7  6  1  0
  8  9  1  6
  9  3  1  0
 10  8  1  0
 10 14  1  0
 11 10  2  0
 13 12  1  1
 13 14  1  0
 13 15  1  0
 15 17  1  0
 16 15  2  0
M  END
$$$$
