GTA.pdb
     RDKit          3D

 17 16  0  0  1  0  0  0  0  0999 V2000
    9.0333  -15.6831   14.9965 N   0  0  0  0  0  0  0  0  0  0  0  0
    8.3418  -16.0249   16.1977 C   0  0  0  0  0  0  0  0  0  0  0  0
    9.0512  -15.4354   17.3543 C   0  0  0  0  0  0  0  0  0  0  0  0
   10.2220  -14.9645   17.2607 O   0  0  0  0  0  0  0  0  0  0  0  0
    7.5335  -12.8055   19.5245 C   0  0  0  0  0  0  0  0  0  0  0  0
    8.0739  -13.8583   20.4535 C   0  0  1  0  0  0  0  0  0  0  0  0
    7.0298  -14.6051   20.9343 O   0  0  0  0  0  0  0  0  0  0  0  0
    9.0791  -14.7216   19.7210 C   0  0  2  0  0  0  0  0  0  0  0  0
    8.4220  -15.3873   18.6061 N   0  0  0  0  0  0  0  0  0  0  0  0
    9.5638  -15.7720   20.6758 C   0  0  0  0  0  0  0  0  0  0  0  0
    8.9635  -16.8810   20.6485 O   0  0  0  0  0  0  0  0  0  0  0  0
   12.4832  -16.2638   23.0113 C   0  0  0  0  0  0  0  0  0  0  0  0
   11.0841  -16.4814   22.5626 C   0  0  2  0  0  0  0  0  0  0  0  0
   10.6396  -15.5561   21.5722 N   0  0  0  0  0  0  0  0  0  0  0  0
   10.1033  -16.6333   23.6887 C   0  0  0  0  0  0  0  0  0  0  0  0
   10.2850  -17.5615   24.5480 O   0  0  0  0  0  0  0  0  0  0  0  0
    8.9931  -15.8512   23.8915 O   0  0  0  0  0  0  0  0  0  0  0  0
  2  1  1  0
  3  2  1  0
  4  3  2  0
  6  5  1  6
  6  8  1  0
  7  6  1  0
  8  9  1  6
  9  3  1  0
 10  8  1  0
 10 14  1  0
 11 10  2  0
 13 12  1  1
 13 14  1  0
 13 15  1  0
 15 17  1  0
 16 15  2  0
M  END
$$$$
