GTA.pdb
     RDKit          3D

 17 16  0  0  1  0  0  0  0  0999 V2000
    7.1373  -19.2118   17.2893 N   0  0  0  0  0  0  0  0  0  0  0  0
    6.8934  -19.8019   18.5661 C   0  0  0  0  0  0  0  0  0  0  0  0
    6.4666  -18.7514   19.5163 C   0  0  0  0  0  0  0  0  0  0  0  0
    6.3522  -17.5381   19.1757 O   0  0  0  0  0  0  0  0  0  0  0  0
    3.3622  -18.4575   21.4019 C   0  0  0  0  0  0  0  0  0  0  0  0
    4.4588  -18.4512   22.4319 C   0  0  1  0  0  0  0  0  0  0  0  0
    4.5388  -19.6945   23.0035 O   0  0  0  0  0  0  0  0  0  0  0  0
    5.7689  -18.0561   21.7837 C   0  0  2  0  0  0  0  0  0  0  0  0
    6.1742  -19.0913   20.8445 N   0  0  0  0  0  0  0  0  0  0  0  0
    6.8067  -17.9685   22.8631 C   0  0  0  0  0  0  0  0  0  0  0  0
    7.5963  -18.9465   22.9688 O   0  0  0  0  0  0  0  0  0  0  0  0
    7.9914  -15.3911   25.3674 C   0  0  0  0  0  0  0  0  0  0  0  0
    7.7934  -16.7709   24.8548 C   0  0  2  0  0  0  0  0  0  0  0  0
    6.9172  -16.8551   23.7323 N   0  0  0  0  0  0  0  0  0  0  0  0
    7.4577  -17.7715   25.9222 C   0  0  0  0  0  0  0  0  0  0  0  0
    6.2386  -18.1183   26.0854 O   0  0  0  0  0  0  0  0  0  0  0  0
    8.3587  -18.3674   26.7698 O   0  0  0  0  0  0  0  0  0  0  0  0
  2  1  1  0
  3  2  1  0
  4  3  2  0
  6  5  1  6
  6  8  1  0
  7  6  1  0
  8  9  1  6
  9  3  1  0
 10  8  1  0
 10 14  1  0
 11 10  2  0
 13 12  1  1
 13 14  1  0
 13 15  1  0
 15 17  1  0
 16 15  2  0
M  END
$$$$
