GTA.pdb
     RDKit          3D

 17 16  0  0  1  0  0  0  0  0999 V2000
   10.4119  -15.8739   15.1393 N   0  0  0  0  0  0  0  0  0  0  0  0
    9.4418  -16.1701   16.1439 C   0  0  0  0  0  0  0  0  0  0  0  0
    9.7740  -15.4257   17.3784 C   0  0  0  0  0  0  0  0  0  0  0  0
   10.9049  -14.8878   17.5596 O   0  0  0  0  0  0  0  0  0  0  0  0
    7.4534  -12.9175   19.3658 C   0  0  0  0  0  0  0  0  0  0  0  0
    7.9466  -14.0221   20.2603 C   0  0  1  0  0  0  0  0  0  0  0  0
    6.9399  -14.9361   20.4341 O   0  0  0  0  0  0  0  0  0  0  0  0
    9.1761  -14.6636   19.6528 C   0  0  2  0  0  0  0  0  0  0  0  0
    8.8166  -15.3005   18.3946 N   0  0  0  0  0  0  0  0  0  0  0  0
    9.6535  -15.7262   20.5978 C   0  0  0  0  0  0  0  0  0  0  0  0
    9.3721  -16.9183   20.2966 O   0  0  0  0  0  0  0  0  0  0  0  0
   11.7705  -15.8623   23.7418 C   0  0  0  0  0  0  0  0  0  0  0  0
   10.8117  -16.3936   22.7397 C   0  0  2  0  0  0  0  0  0  0  0  0
   10.3861  -15.4333   21.7746 N   0  0  0  0  0  0  0  0  0  0  0  0
    9.6640  -17.1512   23.3414 C   0  0  0  0  0  0  0  0  0  0  0  0
    9.9060  -18.2058   24.0214 O   0  0  0  0  0  0  0  0  0  0  0  0
    8.3377  -16.8148   23.2271 O   0  0  0  0  0  0  0  0  0  0  0  0
  2  1  1  0
  3  2  1  0
  4  3  2  0
  6  5  1  6
  6  8  1  0
  7  6  1  0
  8  9  1  6
  9  3  1  0
 10  8  1  0
 10 14  1  0
 11 10  2  0
 13 12  1  1
 13 14  1  0
 13 15  1  0
 15 17  1  0
 16 15  2  0
M  END
$$$$
