GTA.pdb
     RDKit          3D

 17 16  0  0  1  0  0  0  0  0999 V2000
    7.4949  -17.5995   16.4495 N   0  0  0  0  0  0  0  0  0  0  0  0
    6.9296  -17.1321   17.6742 C   0  0  0  0  0  0  0  0  0  0  0  0
    7.9729  -16.4380   18.4604 C   0  0  0  0  0  0  0  0  0  0  0  0
    9.1897  -16.4330   18.1129 O   0  0  0  0  0  0  0  0  0  0  0  0
    7.5548  -12.8841   20.0362 C   0  0  0  0  0  0  0  0  0  0  0  0
    8.0395  -13.8555   21.0777 C   0  0  1  0  0  0  0  0  0  0  0  0
    6.9870  -14.2055   21.8831 O   0  0  0  0  0  0  0  0  0  0  0  0
    8.6470  -15.0681   20.4047 C   0  0  2  0  0  0  0  0  0  0  0  0
    7.6222  -15.7565   19.6341 N   0  0  0  0  0  0  0  0  0  0  0  0
    9.1292  -15.9962   21.4800 C   0  0  0  0  0  0  0  0  0  0  0  0
    8.2478  -16.6615   22.0894 O   0  0  0  0  0  0  0  0  0  0  0  0
   11.5022  -18.3230   22.2498 C   0  0  0  0  0  0  0  0  0  0  0  0
   11.0184  -17.0301   22.7977 C   0  0  2  0  0  0  0  0  0  0  0  0
   10.4989  -16.1382   21.8131 N   0  0  0  0  0  0  0  0  0  0  0  0
   11.9935  -16.3609   23.7221 C   0  0  0  0  0  0  0  0  0  0  0  0
   12.5036  -15.2404   23.3795 O   0  0  0  0  0  0  0  0  0  0  0  0
   12.4074  -16.8504   24.9364 O   0  0  0  0  0  0  0  0  0  0  0  0
  2  1  1  0
  3  2  1  0
  4  3  2  0
  6  5  1  6
  6  8  1  0
  7  6  1  0
  8  9  1  1
  9  3  1  0
 10  8  1  0
 10 14  1  0
 11 10  2  0
 13 12  1  6
 13 14  1  0
 13 15  1  0
 15 17  1  0
 16 15  2  0
M  END
$$$$
