GTA.pdb
     RDKit          3D

 17 16  0  0  1  0  0  0  0  0999 V2000
    2.2234  -19.7508   21.1125 N   0  0  0  0  0  0  0  0  0  0  0  0
    2.7990  -18.5187   21.5466 C   0  0  0  0  0  0  0  0  0  0  0  0
    4.2126  -18.7445   21.9196 C   0  0  0  0  0  0  0  0  0  0  0  0
    4.7476  -19.8906   21.8786 O   0  0  0  0  0  0  0  0  0  0  0  0
    7.0214  -16.9813   20.4108 C   0  0  0  0  0  0  0  0  0  0  0  0
    7.2396  -16.8416   21.8928 C   0  0  1  0  0  0  0  0  0  0  0  0
    6.9061  -15.5676   22.2730 O   0  0  0  0  0  0  0  0  0  0  0  0
    6.4134  -17.8727   22.6322 C   0  0  2  0  0  0  0  0  0  0  0  0
    5.0039  -17.6647   22.3356 N   0  0  0  0  0  0  0  0  0  0  0  0
    6.6209  -17.6584   24.1023 C   0  0  0  0  0  0  0  0  0  0  0  0
    5.7519  -16.9673   24.7009 O   0  0  0  0  0  0  0  0  0  0  0  0
    6.8445  -18.4167   27.0747 C   0  0  0  0  0  0  0  0  0  0  0  0
    7.9778  -18.0205   26.2003 C   0  0  2  0  0  0  0  0  0  0  0  0
    7.7269  -18.1945   24.8069 N   0  0  0  0  0  0  0  0  0  0  0  0
    9.2986  -18.5954   26.6225 C   0  0  0  0  0  0  0  0  0  0  0  0
   10.0078  -19.2177   25.7606 O   0  0  0  0  0  0  0  0  0  0  0  0
    9.8358  -18.5195   27.8839 O   0  0  0  0  0  0  0  0  0  0  0  0
  2  1  1  0
  3  2  1  0
  4  3  2  0
  6  5  1  6
  6  8  1  0
  7  6  1  0
  8  9  1  1
  9  3  1  0
 10  8  1  0
 10 14  1  0
 11 10  2  0
 13 12  1  1
 13 14  1  0
 13 15  1  0
 15 17  1  0
 16 15  2  0
M  END
$$$$
