GTA.pdb
     RDKit          3D

 17 16  0  0  1  0  0  0  0  0999 V2000
    7.1414  -14.1042   20.0811 N   0  0  0  0  0  0  0  0  0  0  0  0
    6.4341  -14.5075   21.2537 C   0  0  0  0  0  0  0  0  0  0  0  0
    7.3486  -14.4623   22.4156 C   0  0  0  0  0  0  0  0  0  0  0  0
    8.5923  -14.2661   22.2896 O   0  0  0  0  0  0  0  0  0  0  0  0
    6.7687  -12.3589   25.5766 C   0  0  0  0  0  0  0  0  0  0  0  0
    7.0042  -13.7910   25.9729 C   0  0  1  0  0  0  0  0  0  0  0  0
    5.7983  -14.3778   26.2561 O   0  0  0  0  0  0  0  0  0  0  0  0
    7.7247  -14.5196   24.8583 C   0  0  2  0  0  0  0  0  0  0  0  0
    6.8395  -14.6406   23.7095 N   0  0  0  0  0  0  0  0  0  0  0  0
    8.0506  -15.8995   25.3478 C   0  0  0  0  0  0  0  0  0  0  0  0
    7.1155  -16.7454   25.3177 O   0  0  0  0  0  0  0  0  0  0  0  0
   10.6224  -18.3125   25.4991 C   0  0  0  0  0  0  0  0  0  0  0  0
    9.6873  -17.5375   26.3541 C   0  0  2  0  0  0  0  0  0  0  0  0
    9.3352  -16.2610   25.8237 N   0  0  0  0  0  0  0  0  0  0  0  0
   10.1012  -17.4668   27.7952 C   0  0  0  0  0  0  0  0  0  0  0  0
   10.3771  -18.5499   28.4148 O   0  0  0  0  0  0  0  0  0  0  0  0
   10.2131  -16.3177   28.5384 O   0  0  0  0  0  0  0  0  0  0  0  0
  2  1  1  0
  3  2  1  0
  4  3  2  0
  6  5  1  6
  6  8  1  0
  7  6  1  0
  8  9  1  6
  9  3  1  0
 10  8  1  0
 10 14  1  0
 11 10  2  0
 13 12  1  6
 13 14  1  0
 13 15  1  0
 15 17  1  0
 16 15  2  0
M  END
$$$$
