GTA.pdb
     RDKit          3D

 17 16  0  0  1  0  0  0  0  0999 V2000
    1.6516  -18.8570   19.7689 N   0  0  0  0  0  0  0  0  0  0  0  0
    2.4108  -17.8106   20.3744 C   0  0  0  0  0  0  0  0  0  0  0  0
    3.6799  -18.3655   20.8940 C   0  0  0  0  0  0  0  0  0  0  0  0
    3.8213  -19.5944   21.1603 O   0  0  0  0  0  0  0  0  0  0  0  0
    6.8747  -18.2671   19.2427 C   0  0  0  0  0  0  0  0  0  0  0  0
    7.1401  -17.6689   20.5974 C   0  0  1  0  0  0  0  0  0  0  0  0
    7.2215  -16.3062   20.4733 O   0  0  0  0  0  0  0  0  0  0  0  0
    6.0424  -18.0712   21.5596 C   0  0  2  0  0  0  0  0  0  0  0  0
    4.7756  -17.5171   21.1056 N   0  0  0  0  0  0  0  0  0  0  0  0
    6.3638  -17.4745   22.8977 C   0  0  0  0  0  0  0  0  0  0  0  0
    5.7415  -16.4233   23.2119 O   0  0  0  0  0  0  0  0  0  0  0  0
    6.4740  -17.2783   25.9470 C   0  0  0  0  0  0  0  0  0  0  0  0
    7.6470  -17.5297   25.0713 C   0  0  2  0  0  0  0  0  0  0  0  0
    7.3127  -18.0428   23.7830 N   0  0  0  0  0  0  0  0  0  0  0  0
    8.7422  -18.3126   25.7353 C   0  0  0  0  0  0  0  0  0  0  0  0
    9.1241  -17.9735   26.9067 O   0  0  0  0  0  0  0  0  0  0  0  0
    9.3974  -19.3892   25.1902 O   0  0  0  0  0  0  0  0  0  0  0  0
  2  1  1  0
  3  2  1  0
  4  3  2  0
  6  5  1  6
  6  8  1  0
  7  6  1  0
  8  9  1  6
  9  3  1  0
 10  8  1  0
 10 14  1  0
 11 10  2  0
 13 12  1  1
 13 14  1  0
 13 15  1  0
 15 17  1  0
 16 15  2  0
M  END
$$$$
