VCW.pdb
     RDKit          3D

 28 29  0  0  1  0  0  0  0  0999 V2000
    7.4771  -12.3915   19.1230 C   0  0  0  0  0  0  0  0  0  0  0  0
    7.6963  -13.4337   20.1820 C   0  0  2  0  0  0  0  0  0  0  0  0
    8.6110  -12.8499   21.2297 C   0  0  0  0  0  0  0  0  0  0  0  0
    8.2246  -14.7148   19.6017 C   0  0  2  0  0  0  0  0  0  0  0  0
    7.3397  -15.1344   18.5399 N   0  0  0  0  0  0  0  0  0  0  0  0
    8.3114  -15.7289   20.7008 C   0  0  0  0  0  0  0  0  0  0  0  0
    7.2343  -16.2549   21.0859 O   0  0  0  0  0  0  0  0  0  0  0  0
    9.4941  -16.1212   21.3163 N   0  0  0  0  0  0  0  0  0  0  0  0
    9.6499  -17.1420   22.3079 C   0  0  1  0  0  0  0  0  0  0  0  0
   10.4408  -18.3427   21.8967 C   0  0  0  0  0  0  0  0  0  0  0  0
   10.4321  -19.6360   23.1704 S   0  0  0  0  0  0  0  0  0  0  0  0
    9.9923  -16.5852   23.6260 C   0  0  0  0  0  0  0  0  0  0  0  0
   10.8319  -15.6129   23.7188 O   0  0  0  0  0  0  0  0  0  0  0  0
    9.4789  -17.0116   24.8895 N   0  0  0  0  0  0  0  0  0  0  0  0
   10.0744  -16.5429   26.1209 C   0  0  1  0  0  0  0  0  0  0  0  0
    9.2006  -15.8810   27.0995 C   0  0  0  0  0  0  0  0  0  0  0  0
    7.9942  -15.2342   26.6291 C   0  0  0  0  0  0  0  0  0  0  0  0
    6.8769  -15.9443   26.1578 C   0  0  0  0  0  0  0  0  0  0  0  0
    5.9551  -15.0801   25.7575 N   0  0  0  0  0  0  0  0  0  0  0  0
    6.3925  -13.8165   25.9366 C   0  0  0  0  0  0  0  0  0  0  0  0
    5.8120  -12.5903   25.6914 C   0  0  0  0  0  0  0  0  0  0  0  0
    6.4690  -11.4141   25.9781 C   0  0  0  0  0  0  0  0  0  0  0  0
    7.7171  -11.5031   26.5151 C   0  0  0  0  0  0  0  0  0  0  0  0
    8.3084  -12.7289   26.7623 C   0  0  0  0  0  0  0  0  0  0  0  0
    7.6743  -13.9265   26.4846 C   0  0  0  0  0  0  0  0  0  0  0  0
   10.8223  -17.7020   26.7735 C   0  0  0  0  0  0  0  0  0  0  0  0
   11.6192  -17.4606   27.8770 O   0  0  0  0  0  0  0  0  0  0  0  0
   10.7470  -18.8714   26.3528 O   0  0  0  0  0  0  0  0  0  0  0  0
  2  3  1  1
  2  1  1  0
  4  2  1  0
  4  5  1  6
  6  7  2  0
  6  4  1  0
  8  6  1  0
  9 12  1  0
  9  8  1  0
  9 10  1  6
 11 10  1  0
 12 13  2  0
 14 15  1  0
 14 12  1  0
 15 16  1  1
 17 16  1  0
 18 17  2  0
 19 20  1  0
 19 18  1  0
 20 25  2  0
 21 22  2  0
 21 20  1  0
 22 23  1  0
 23 24  2  0
 25 24  1  0
 25 17  1  0
 26 15  1  0
 26 27  1  0
 28 26  2  0
M  END
$$$$
