VCW.pdb
     RDKit          3D

 28 29  0  0  1  0  0  0  0  0999 V2000
    7.0855  -12.5883   19.3525 C   0  0  0  0  0  0  0  0  0  0  0  0
    7.5192  -13.5410   20.4294 C   0  0  2  0  0  0  0  0  0  0  0  0
    8.4665  -12.8091   21.3470 C   0  0  0  0  0  0  0  0  0  0  0  0
    8.1204  -14.7930   19.8564 C   0  0  2  0  0  0  0  0  0  0  0  0
    7.2018  -15.3370   18.8835 N   0  0  0  0  0  0  0  0  0  0  0  0
    8.3841  -15.7462   20.9815 C   0  0  0  0  0  0  0  0  0  0  0  0
    7.3890  -16.3249   21.4916 O   0  0  0  0  0  0  0  0  0  0  0  0
    9.6452  -16.0287   21.4928 N   0  0  0  0  0  0  0  0  0  0  0  0
    9.9668  -16.9849   22.5085 C   0  0  1  0  0  0  0  0  0  0  0  0
   10.9831  -18.0183   22.1404 C   0  0  0  0  0  0  0  0  0  0  0  0
   11.2057  -19.2551   23.4503 S   0  0  0  0  0  0  0  0  0  0  0  0
   10.1616  -16.3520   23.8223 C   0  0  0  0  0  0  0  0  0  0  0  0
   10.9516  -15.3418   23.9426 O   0  0  0  0  0  0  0  0  0  0  0  0
    9.5470  -16.7390   25.0530 N   0  0  0  0  0  0  0  0  0  0  0  0
   10.1156  -16.3317   26.3185 C   0  0  1  0  0  0  0  0  0  0  0  0
    9.3188  -15.4446   27.1771 C   0  0  0  0  0  0  0  0  0  0  0  0
    8.0600  -14.9368   26.6746 C   0  0  0  0  0  0  0  0  0  0  0  0
    7.0464  -15.7664   26.1656 C   0  0  0  0  0  0  0  0  0  0  0  0
    6.0430  -15.0105   25.7429 N   0  0  0  0  0  0  0  0  0  0  0  0
    6.3261  -13.7066   25.9428 C   0  0  0  0  0  0  0  0  0  0  0  0
    5.6153  -12.5533   25.6876 C   0  0  0  0  0  0  0  0  0  0  0  0
    6.1234  -11.3119   26.0011 C   0  0  0  0  0  0  0  0  0  0  0  0
    7.3572  -11.2615   26.5749 C   0  0  0  0  0  0  0  0  0  0  0  0
    8.0786  -12.4133   26.8323 C   0  0  0  0  0  0  0  0  0  0  0  0
    7.5955  -13.6733   26.5284 C   0  0  0  0  0  0  0  0  0  0  0  0
   10.5371  -17.5800   27.0885 C   0  0  0  0  0  0  0  0  0  0  0  0
   11.3001  -17.4462   28.2335 O   0  0  0  0  0  0  0  0  0  0  0  0
   10.2212  -18.7293   26.7288 O   0  0  0  0  0  0  0  0  0  0  0  0
  2  3  1  1
  2  1  1  0
  4  2  1  0
  4  5  1  6
  6  7  2  0
  6  4  1  0
  8  6  1  0
  9 12  1  0
  9  8  1  0
  9 10  1  6
 11 10  1  0
 12 13  2  0
 14 15  1  0
 14 12  1  0
 15 16  1  1
 17 16  1  0
 18 17  2  0
 19 20  1  0
 19 18  1  0
 20 25  2  0
 21 22  2  0
 21 20  1  0
 22 23  1  0
 23 24  2  0
 25 24  1  0
 25 17  1  0
 26 15  1  0
 26 27  1  0
 28 26  2  0
M  END
$$$$
