VCW.pdb
     RDKit          3D

 28 29  0  0  1  0  0  0  0  0999 V2000
    7.0870  -12.4464   18.9219 C   0  0  0  0  0  0  0  0  0  0  0  0
    7.3730  -13.4856   19.9678 C   0  0  2  0  0  0  0  0  0  0  0  0
    7.8533  -12.7780   21.2104 C   0  0  0  0  0  0  0  0  0  0  0  0
    8.3484  -14.5171   19.4760 C   0  0  2  0  0  0  0  0  0  0  0  0
    7.9024  -14.9888   18.1856 N   0  0  0  0  0  0  0  0  0  0  0  0
    8.4189  -15.6189   20.4885 C   0  0  0  0  0  0  0  0  0  0  0  0
    7.4509  -16.4227   20.5337 O   0  0  0  0  0  0  0  0  0  0  0  0
    9.4747  -15.8072   21.3724 N   0  0  0  0  0  0  0  0  0  0  0  0
    9.6544  -16.9029   22.2761 C   0  0  1  0  0  0  0  0  0  0  0  0
   10.4489  -18.0589   21.7578 C   0  0  0  0  0  0  0  0  0  0  0  0
   11.8392  -17.5230   20.7211 S   0  0  0  0  0  0  0  0  0  0  0  0
   10.0127  -16.4507   23.6295 C   0  0  0  0  0  0  0  0  0  0  0  0
   10.8540  -15.4883   23.7881 O   0  0  0  0  0  0  0  0  0  0  0  0
    9.5138  -16.9745   24.8619 N   0  0  0  0  0  0  0  0  0  0  0  0
   10.1320  -16.6131   26.1181 C   0  0  1  0  0  0  0  0  0  0  0  0
    9.3136  -15.8982   27.1071 C   0  0  0  0  0  0  0  0  0  0  0  0
    8.1032  -15.2402   26.6632 C   0  0  0  0  0  0  0  0  0  0  0  0
    7.0077  -15.9336   26.1212 C   0  0  0  0  0  0  0  0  0  0  0  0
    6.0765  -15.0589   25.7682 N   0  0  0  0  0  0  0  0  0  0  0  0
    6.4868  -13.8042   26.0468 C   0  0  0  0  0  0  0  0  0  0  0  0
    5.8873  -12.5738   25.8809 C   0  0  0  0  0  0  0  0  0  0  0  0
    6.5169  -11.4103   26.2643 C   0  0  0  0  0  0  0  0  0  0  0  0
    7.7573  -11.5162   26.8161 C   0  0  0  0  0  0  0  0  0  0  0  0
    8.3675  -12.7462   26.9840 C   0  0  0  0  0  0  0  0  0  0  0  0
    7.7610  -13.9313   26.6085 C   0  0  0  0  0  0  0  0  0  0  0  0
   10.7439  -17.8657   26.7390 C   0  0  0  0  0  0  0  0  0  0  0  0
   11.5476  -17.7459   27.8574 O   0  0  0  0  0  0  0  0  0  0  0  0
   10.5500  -19.0064   26.2792 O   0  0  0  0  0  0  0  0  0  0  0  0
  2  3  1  1
  2  1  1  0
  4  2  1  0
  4  5  1  6
  6  7  2  0
  6  4  1  0
  8  6  1  0
  9 12  1  0
  9  8  1  0
  9 10  1  6
 11 10  1  0
 12 13  2  0
 14 15  1  0
 14 12  1  0
 15 16  1  1
 17 16  1  0
 18 17  2  0
 19 20  1  0
 19 18  1  0
 20 25  2  0
 21 22  2  0
 21 20  1  0
 22 23  1  0
 23 24  2  0
 25 24  1  0
 25 17  1  0
 26 15  1  0
 26 27  1  0
 28 26  2  0
M  END
$$$$
