VCW.pdb
     RDKit          3D

 28 29  0  0  1  0  0  0  0  0999 V2000
    7.4301  -12.4292   18.9379 C   0  0  0  0  0  0  0  0  0  0  0  0
    7.6233  -13.4922   19.9811 C   0  0  2  0  0  0  0  0  0  0  0  0
    8.2474  -12.8484   21.1941 C   0  0  0  0  0  0  0  0  0  0  0  0
    8.4316  -14.6456   19.4580 C   0  0  2  0  0  0  0  0  0  0  0  0
    7.8146  -15.1212   18.2416 N   0  0  0  0  0  0  0  0  0  0  0  0
    8.4837  -15.7030   20.5177 C   0  0  0  0  0  0  0  0  0  0  0  0
    7.4502  -16.4023   20.6852 O   0  0  0  0  0  0  0  0  0  0  0  0
    9.5896  -15.9575   21.3200 N   0  0  0  0  0  0  0  0  0  0  0  0
    9.7335  -17.0131   22.2763 C   0  0  1  0  0  0  0  0  0  0  0  0
   10.5527  -18.1864   21.8421 C   0  0  0  0  0  0  0  0  0  0  0  0
   11.9482  -17.6942   20.7908 S   0  0  0  0  0  0  0  0  0  0  0  0
   10.0320  -16.5023   23.6234 C   0  0  0  0  0  0  0  0  0  0  0  0
   10.8318  -15.5040   23.7737 O   0  0  0  0  0  0  0  0  0  0  0  0
    9.5142  -17.0029   24.8575 N   0  0  0  0  0  0  0  0  0  0  0  0
   10.0615  -16.5566   26.1193 C   0  0  1  0  0  0  0  0  0  0  0  0
    9.1457  -15.9334   27.0846 C   0  0  0  0  0  0  0  0  0  0  0  0
    7.9735  -15.2453   26.5870 C   0  0  0  0  0  0  0  0  0  0  0  0
    6.8603  -15.9152   26.0515 C   0  0  0  0  0  0  0  0  0  0  0  0
    5.9745  -15.0186   25.6414 N   0  0  0  0  0  0  0  0  0  0  0  0
    6.4324  -13.7712   25.8750 C   0  0  0  0  0  0  0  0  0  0  0  0
    5.8894  -12.5253   25.6438 C   0  0  0  0  0  0  0  0  0  0  0  0
    6.5604  -11.3735   25.9908 C   0  0  0  0  0  0  0  0  0  0  0  0
    7.7840  -11.5070   26.5732 C   0  0  0  0  0  0  0  0  0  0  0  0
    8.3377  -12.7529   26.8067 C   0  0  0  0  0  0  0  0  0  0  0  0
    7.6887  -13.9269   26.4690 C   0  0  0  0  0  0  0  0  0  0  0  0
   10.8064  -17.7204   26.7671 C   0  0  0  0  0  0  0  0  0  0  0  0
   11.6316  -17.4799   27.8498 O   0  0  0  0  0  0  0  0  0  0  0  0
   10.7038  -18.8928   26.3606 O   0  0  0  0  0  0  0  0  0  0  0  0
  2  3  1  1
  2  1  1  0
  4  2  1  0
  4  5  1  6
  6  7  2  0
  6  4  1  0
  8  6  1  0
  9 12  1  0
  9  8  1  0
  9 10  1  6
 11 10  1  0
 12 13  2  0
 14 15  1  0
 14 12  1  0
 15 16  1  1
 17 16  1  0
 18 17  2  0
 19 20  1  0
 19 18  1  0
 20 25  2  0
 21 22  2  0
 21 20  1  0
 22 23  1  0
 23 24  2  0
 25 24  1  0
 25 17  1  0
 26 15  1  0
 26 27  1  0
 28 26  2  0
M  END
$$$$
