VCW.pdb
     RDKit          3D

 28 29  0  0  1  0  0  0  0  0999 V2000
    6.7094  -14.4486   18.7258 C   0  0  0  0  0  0  0  0  0  0  0  0
    7.7584  -13.3764   18.8002 C   0  0  2  0  0  0  0  0  0  0  0  0
    7.8227  -12.6917   17.4577 C   0  0  0  0  0  0  0  0  0  0  0  0
    9.0876  -13.9267   19.2332 C   0  0  2  0  0  0  0  0  0  0  0  0
    9.5978  -14.7714   18.1784 N   0  0  0  0  0  0  0  0  0  0  0  0
    8.8916  -14.6769   20.5149 C   0  0  0  0  0  0  0  0  0  0  0  0
    8.4149  -14.0380   21.4894 O   0  0  0  0  0  0  0  0  0  0  0  0
    9.2003  -16.0201   20.6942 N   0  0  0  0  0  0  0  0  0  0  0  0
    9.0365  -16.7876   21.8916 C   0  0  1  0  0  0  0  0  0  0  0  0
    8.9875  -18.2722   21.7192 C   0  0  0  0  0  0  0  0  0  0  0  0
   10.6457  -19.0048   21.6266 S   0  0  0  0  0  0  0  0  0  0  0  0
    9.9055  -16.3096   22.9783 C   0  0  0  0  0  0  0  0  0  0  0  0
   11.1770  -16.5081   22.9242 O   0  0  0  0  0  0  0  0  0  0  0  0
    9.4918  -15.6102   24.1538 N   0  0  0  0  0  0  0  0  0  0  0  0
   10.0421  -15.9545   25.4458 C   0  0  1  0  0  0  0  0  0  0  0  0
    9.1612  -15.8548   26.6176 C   0  0  0  0  0  0  0  0  0  0  0  0
    7.9212  -15.1183   26.4949 C   0  0  0  0  0  0  0  0  0  0  0  0
    6.6808  -15.7374   26.2652 C   0  0  0  0  0  0  0  0  0  0  0  0
    5.7472  -14.8030   26.1548 N   0  0  0  0  0  0  0  0  0  0  0  0
    6.2945  -13.5785   26.3010 C   0  0  0  0  0  0  0  0  0  0  0  0
    5.7517  -12.3114   26.2806 C   0  0  0  0  0  0  0  0  0  0  0  0
    6.5318  -11.1924   26.4723 C   0  0  0  0  0  0  0  0  0  0  0  0
    7.8636  -11.3804   26.6842 C   0  0  0  0  0  0  0  0  0  0  0  0
    8.4174  -12.6479   26.7038 C   0  0  0  0  0  0  0  0  0  0  0  0
    7.6602  -13.7898   26.5140 C   0  0  0  0  0  0  0  0  0  0  0  0
   10.6565  -17.3488   25.3588 C   0  0  0  0  0  0  0  0  0  0  0  0
   11.4875  -17.7890   26.3720 O   0  0  0  0  0  0  0  0  0  0  0  0
   10.4409  -18.1191   24.4048 O   0  0  0  0  0  0  0  0  0  0  0  0
  2  3  1  6
  2  1  1  0
  4  2  1  0
  4  5  1  6
  6  7  2  0
  6  4  1  0
  8  6  1  0
  9 12  1  0
  9  8  1  0
  9 10  1  6
 11 10  1  0
 12 13  2  0
 14 15  1  0
 14 12  1  0
 15 16  1  1
 17 16  1  0
 18 17  2  0
 19 20  1  0
 19 18  1  0
 20 25  2  0
 21 22  2  0
 21 20  1  0
 22 23  1  0
 23 24  2  0
 25 24  1  0
 25 17  1  0
 26 15  1  0
 26 27  1  0
 28 26  2  0
M  END
$$$$
