VCW.pdb
     RDKit          3D

 28 29  0  0  1  0  0  0  0  0999 V2000
    7.5415  -12.9565   18.5482 C   0  0  0  0  0  0  0  0  0  0  0  0
    7.8013  -13.7075   19.8226 C   0  0  2  0  0  0  0  0  0  0  0  0
    8.7199  -12.8715   20.6785 C   0  0  0  0  0  0  0  0  0  0  0  0
    8.3484  -15.0815   19.5579 C   0  0  2  0  0  0  0  0  0  0  0  0
    7.4948  -15.7349   18.5931 N   0  0  0  0  0  0  0  0  0  0  0  0
    8.4061  -15.8238   20.8577 C   0  0  0  0  0  0  0  0  0  0  0  0
    7.5169  -16.6902   21.0664 O   0  0  0  0  0  0  0  0  0  0  0  0
    9.3695  -15.6177   21.8381 N   0  0  0  0  0  0  0  0  0  0  0  0
    9.7938  -16.5520   22.8364 C   0  0  1  0  0  0  0  0  0  0  0  0
    9.9568  -17.9682   22.3845 C   0  0  0  0  0  0  0  0  0  0  0  0
   11.4406  -18.1934   21.3633 S   0  0  0  0  0  0  0  0  0  0  0  0
   10.8951  -16.0234   23.6563 C   0  0  0  0  0  0  0  0  0  0  0  0
   12.1147  -16.1552   23.2633 O   0  0  0  0  0  0  0  0  0  0  0  0
   10.7742  -15.3406   24.9057 N   0  0  0  0  0  0  0  0  0  0  0  0
    9.9688  -15.8946   25.9712 C   0  0  1  0  0  0  0  0  0  0  0  0
    8.5783  -16.2576   25.6650 C   0  0  0  0  0  0  0  0  0  0  0  0
    7.5377  -15.2770   25.8901 C   0  0  0  0  0  0  0  0  0  0  0  0
    6.1708  -15.5570   25.7237 C   0  0  0  0  0  0  0  0  0  0  0  0
    5.4739  -14.4539   25.9566 N   0  0  0  0  0  0  0  0  0  0  0  0
    6.3027  -13.4382   26.2756 C   0  0  0  0  0  0  0  0  0  0  0  0
    6.0703  -12.1204   26.6072 C   0  0  0  0  0  0  0  0  0  0  0  0
    7.1044  -11.2632   26.9125 C   0  0  0  0  0  0  0  0  0  0  0  0
    8.3703  -11.7634   26.8763 C   0  0  0  0  0  0  0  0  0  0  0  0
    8.6132  -13.0836   26.5422 C   0  0  0  0  0  0  0  0  0  0  0  0
    7.5961  -13.9677   26.2304 C   0  0  0  0  0  0  0  0  0  0  0  0
   10.7092  -17.0849   26.5743 C   0  0  0  0  0  0  0  0  0  0  0  0
   11.2874  -18.0203   25.7365 O   0  0  0  0  0  0  0  0  0  0  0  0
   10.8187  -17.2552   27.8028 O   0  0  0  0  0  0  0  0  0  0  0  0
  2  3  1  1
  2  1  1  0
  4  2  1  0
  4  5  1  6
  6  7  2  0
  6  4  1  0
  8  6  1  0
  9 12  1  0
  9  8  1  0
  9 10  1  6
 11 10  1  0
 12 13  2  0
 14 15  1  0
 14 12  1  0
 15 16  1  6
 17 16  1  0
 18 17  2  0
 19 20  1  0
 19 18  1  0
 20 25  2  0
 21 22  2  0
 21 20  1  0
 22 23  1  0
 23 24  2  0
 25 24  1  0
 25 17  1  0
 26 15  1  0
 26 27  1  0
 28 26  2  0
M  END
$$$$
