VCW.pdb
     RDKit          3D

 28 29  0  0  1  0  0  0  0  0999 V2000
    6.9747  -13.3820   20.9868 C   0  0  0  0  0  0  0  0  0  0  0  0
    8.1491  -13.3237   20.0524 C   0  0  2  0  0  0  0  0  0  0  0  0
    7.8578  -12.2827   19.0004 C   0  0  0  0  0  0  0  0  0  0  0  0
    8.4595  -14.6705   19.4633 C   0  0  2  0  0  0  0  0  0  0  0  0
    7.4330  -14.9954   18.5003 N   0  0  0  0  0  0  0  0  0  0  0  0
    8.5261  -15.6682   20.5786 C   0  0  0  0  0  0  0  0  0  0  0  0
    7.4469  -16.2139   20.9288 O   0  0  0  0  0  0  0  0  0  0  0  0
    9.6924  -16.0253   21.2448 N   0  0  0  0  0  0  0  0  0  0  0  0
    9.8503  -17.0851   22.1942 C   0  0  1  0  0  0  0  0  0  0  0  0
   10.6655  -18.2551   21.7437 C   0  0  0  0  0  0  0  0  0  0  0  0
    9.7350  -19.3500   20.6343 S   0  0  0  0  0  0  0  0  0  0  0  0
   10.1657  -16.5803   23.5396 C   0  0  0  0  0  0  0  0  0  0  0  0
   11.0809  -15.6878   23.6971 O   0  0  0  0  0  0  0  0  0  0  0  0
    9.5466  -16.9778   24.7646 N   0  0  0  0  0  0  0  0  0  0  0  0
   10.0799  -16.5375   26.0344 C   0  0  1  0  0  0  0  0  0  0  0  0
    9.1275  -16.1325   27.0775 C   0  0  0  0  0  0  0  0  0  0  0  0
    7.9842  -15.3286   26.7012 C   0  0  0  0  0  0  0  0  0  0  0  0
    6.8279  -15.8675   26.1119 C   0  0  0  0  0  0  0  0  0  0  0  0
    5.9831  -14.8825   25.8420 N   0  0  0  0  0  0  0  0  0  0  0  0
    6.5098  -13.7001   26.2223 C   0  0  0  0  0  0  0  0  0  0  0  0
    6.0288  -12.4093   26.1662 C   0  0  0  0  0  0  0  0  0  0  0  0
    6.7654  -11.3468   26.6413 C   0  0  0  0  0  0  0  0  0  0  0  0
    7.9906  -11.6151   27.1715 C   0  0  0  0  0  0  0  0  0  0  0  0
    8.4823  -12.9067   27.2296 C   0  0  0  0  0  0  0  0  0  0  0  0
    7.7667  -13.9934   26.7603 C   0  0  0  0  0  0  0  0  0  0  0  0
   11.0259  -17.6110   26.5651 C   0  0  0  0  0  0  0  0  0  0  0  0
   11.0993  -18.8309   25.9189 O   0  0  0  0  0  0  0  0  0  0  0  0
   11.7449  -17.4368   27.5665 O   0  0  0  0  0  0  0  0  0  0  0  0
  2  3  1  6
  2  1  1  0
  4  2  1  0
  4  5  1  6
  6  7  2  0
  6  4  1  0
  8  6  1  0
  9 12  1  0
  9  8  1  0
  9 10  1  6
 11 10  1  0
 12 13  2  0
 14 15  1  0
 14 12  1  0
 15 16  1  1
 17 16  1  0
 18 17  2  0
 19 20  1  0
 19 18  1  0
 20 25  2  0
 21 22  2  0
 21 20  1  0
 22 23  1  0
 23 24  2  0
 25 24  1  0
 25 17  1  0
 26 15  1  0
 26 27  1  0
 28 26  2  0
M  END
$$$$
