VCW.pdb
     RDKit          3D

 28 29  0  0  1  0  0  0  0  0999 V2000
   13.5250  -19.5032   19.7281 C   0  0  0  0  0  0  0  0  0  0  0  0
   12.6024  -18.4465   20.2646 C   0  0  2  0  0  0  0  0  0  0  0  0
   12.3999  -18.7067   21.7365 C   0  0  0  0  0  0  0  0  0  0  0  0
   11.3086  -18.3976   19.5024 C   0  0  2  0  0  0  0  0  0  0  0  0
   11.6110  -18.3773   18.0901 N   0  0  0  0  0  0  0  0  0  0  0  0
   10.5518  -17.1801   19.9372 C   0  0  0  0  0  0  0  0  0  0  0  0
   11.0284  -16.0600   19.6156 O   0  0  0  0  0  0  0  0  0  0  0  0
    9.3691  -17.2090   20.6664 N   0  0  0  0  0  0  0  0  0  0  0  0
    8.5569  -16.0883   21.0324 C   0  0  1  0  0  0  0  0  0  0  0  0
    7.2318  -15.9850   20.3471 C   0  0  0  0  0  0  0  0  0  0  0  0
    5.9880  -15.1650   21.3842 S   0  0  0  0  0  0  0  0  0  0  0  0
    8.5297  -15.8767   22.4881 C   0  0  0  0  0  0  0  0  0  0  0  0
    7.8608  -14.8951   22.9863 O   0  0  0  0  0  0  0  0  0  0  0  0
    9.1891  -16.6709   23.4761 N   0  0  0  0  0  0  0  0  0  0  0  0
    9.9887  -16.0473   24.5069 C   0  0  1  0  0  0  0  0  0  0  0  0
    9.3683  -15.8283   25.8207 C   0  0  0  0  0  0  0  0  0  0  0  0
    8.0741  -15.1828   25.8799 C   0  0  0  0  0  0  0  0  0  0  0  0
    6.8627  -15.8769   25.7211 C   0  0  0  0  0  0  0  0  0  0  0  0
    5.8601  -15.0119   25.7792 N   0  0  0  0  0  0  0  0  0  0  0  0
    6.3330  -13.7632   25.9722 C   0  0  0  0  0  0  0  0  0  0  0  0
    5.7044  -12.5439   26.1091 C   0  0  0  0  0  0  0  0  0  0  0  0
    6.4204  -11.3856   26.3159 C   0  0  0  0  0  0  0  0  0  0  0  0
    7.7768  -11.4853   26.3816 C   0  0  0  0  0  0  0  0  0  0  0  0
    8.4163  -12.7040   26.2429 C   0  0  0  0  0  0  0  0  0  0  0  0
    7.7248  -13.8836   26.0337 C   0  0  0  0  0  0  0  0  0  0  0  0
   11.2896  -16.8309   24.6565 C   0  0  0  0  0  0  0  0  0  0  0  0
   12.2733  -16.3582   25.5049 O   0  0  0  0  0  0  0  0  0  0  0  0
   11.5093  -17.8911   24.0418 O   0  0  0  0  0  0  0  0  0  0  0  0
  2  3  1  1
  2  1  1  0
  4  2  1  0
  4  5  1  6
  6  7  2  0
  6  4  1  0
  8  6  1  0
  9 12  1  0
  9  8  1  0
  9 10  1  1
 11 10  1  0
 12 13  2  0
 14 15  1  0
 14 12  1  0
 15 16  1  1
 17 16  1  0
 18 17  2  0
 19 20  1  0
 19 18  1  0
 20 25  2  0
 21 22  2  0
 21 20  1  0
 22 23  1  0
 23 24  2  0
 25 24  1  0
 25 17  1  0
 26 15  1  0
 26 27  1  0
 28 26  2  0
M  END
$$$$
