VCW.pdb
     RDKit          3D

 28 29  0  0  1  0  0  0  0  0999 V2000
    7.1869  -12.3167   18.9701 C   0  0  0  0  0  0  0  0  0  0  0  0
    7.4943  -13.3321   20.0332 C   0  0  2  0  0  0  0  0  0  0  0  0
    8.1802  -12.6217   21.1734 C   0  0  0  0  0  0  0  0  0  0  0  0
    8.3048  -14.4760   19.4930 C   0  0  2  0  0  0  0  0  0  0  0  0
    7.6560  -14.9733   18.3022 N   0  0  0  0  0  0  0  0  0  0  0  0
    8.4110  -15.5226   20.5594 C   0  0  0  0  0  0  0  0  0  0  0  0
    7.3592  -16.1442   20.8635 O   0  0  0  0  0  0  0  0  0  0  0  0
    9.5855  -15.8470   21.2279 N   0  0  0  0  0  0  0  0  0  0  0  0
    9.7838  -16.9315   22.1411 C   0  0  1  0  0  0  0  0  0  0  0  0
   10.6299  -18.0611   21.6465 C   0  0  0  0  0  0  0  0  0  0  0  0
    9.9604  -18.8042   20.1317 S   0  0  0  0  0  0  0  0  0  0  0  0
   10.0957  -16.4609   23.4997 C   0  0  0  0  0  0  0  0  0  0  0  0
   10.8879  -15.4598   23.6711 O   0  0  0  0  0  0  0  0  0  0  0  0
    9.5996  -17.0056   24.7240 N   0  0  0  0  0  0  0  0  0  0  0  0
   10.0965  -16.5288   25.9954 C   0  0  1  0  0  0  0  0  0  0  0  0
    9.1141  -16.1787   27.0305 C   0  0  0  0  0  0  0  0  0  0  0  0
    7.9646  -15.3822   26.6576 C   0  0  0  0  0  0  0  0  0  0  0  0
    6.7968  -15.9331   26.1030 C   0  0  0  0  0  0  0  0  0  0  0  0
    5.9479  -14.9536   25.8265 N   0  0  0  0  0  0  0  0  0  0  0  0
    6.4828  -13.7633   26.1691 C   0  0  0  0  0  0  0  0  0  0  0  0
    6.0019  -12.4736   26.0923 C   0  0  0  0  0  0  0  0  0  0  0  0
    6.7483  -11.4013   26.5286 C   0  0  0  0  0  0  0  0  0  0  0  0
    7.9831  -11.6588   27.0415 C   0  0  0  0  0  0  0  0  0  0  0  0
    8.4748  -12.9494   27.1201 C   0  0  0  0  0  0  0  0  0  0  0  0
    7.7494  -14.0458   26.6898 C   0  0  0  0  0  0  0  0  0  0  0  0
   11.1026  -17.5405   26.5367 C   0  0  0  0  0  0  0  0  0  0  0  0
   11.3119  -18.7229   25.8518 O   0  0  0  0  0  0  0  0  0  0  0  0
   11.7529  -17.3480   27.5808 O   0  0  0  0  0  0  0  0  0  0  0  0
  2  3  1  1
  2  1  1  0
  4  2  1  0
  4  5  1  6
  6  7  2  0
  6  4  1  0
  8  6  1  0
  9 12  1  0
  9  8  1  0
  9 10  1  6
 11 10  1  0
 12 13  2  0
 14 15  1  0
 14 12  1  0
 15 16  1  1
 17 16  1  0
 18 17  2  0
 19 20  1  0
 19 18  1  0
 20 25  2  0
 21 22  2  0
 21 20  1  0
 22 23  1  0
 23 24  2  0
 25 24  1  0
 25 17  1  0
 26 15  1  0
 26 27  1  0
 28 26  2  0
M  END
$$$$
