VCW.pdb
     RDKit          3D

 28 29  0  0  1  0  0  0  0  0999 V2000
    7.4883  -12.4172   18.9580 C   0  0  0  0  0  0  0  0  0  0  0  0
    7.6992  -13.4786   19.9994 C   0  0  2  0  0  0  0  0  0  0  0  0
    8.3406  -12.8324   21.2020 C   0  0  0  0  0  0  0  0  0  0  0  0
    8.5014  -14.6312   19.4653 C   0  0  2  0  0  0  0  0  0  0  0  0
    7.8758  -15.0990   18.2503 N   0  0  0  0  0  0  0  0  0  0  0  0
    8.5574  -15.6943   20.5193 C   0  0  0  0  0  0  0  0  0  0  0  0
    7.5162  -16.3774   20.7045 O   0  0  0  0  0  0  0  0  0  0  0  0
    9.6750  -15.9706   21.2979 N   0  0  0  0  0  0  0  0  0  0  0  0
    9.8241  -17.0386   22.2396 C   0  0  1  0  0  0  0  0  0  0  0  0
   10.6304  -18.2115   21.7810 C   0  0  0  0  0  0  0  0  0  0  0  0
   11.2370  -18.0022   20.0829 S   0  0  0  0  0  0  0  0  0  0  0  0
   10.1427  -16.5460   23.5888 C   0  0  0  0  0  0  0  0  0  0  0  0
   10.9815  -15.5808   23.7434 O   0  0  0  0  0  0  0  0  0  0  0  0
    9.6054  -17.0312   24.8209 N   0  0  0  0  0  0  0  0  0  0  0  0
   10.0819  -16.5145   26.0845 C   0  0  1  0  0  0  0  0  0  0  0  0
    9.0828  -16.1044   27.0808 C   0  0  0  0  0  0  0  0  0  0  0  0
    7.9337  -15.3423   26.6405 C   0  0  0  0  0  0  0  0  0  0  0  0
    6.7608  -15.9388   26.1472 C   0  0  0  0  0  0  0  0  0  0  0  0
    5.9135  -14.9865   25.7839 N   0  0  0  0  0  0  0  0  0  0  0  0
    6.4544  -13.7712   26.0093 C   0  0  0  0  0  0  0  0  0  0  0  0
    5.9774  -12.4927   25.8134 C   0  0  0  0  0  0  0  0  0  0  0  0
    6.7300  -11.3868   26.1420 C   0  0  0  0  0  0  0  0  0  0  0  0
    7.9669  -11.5994   26.6700 C   0  0  0  0  0  0  0  0  0  0  0  0
    8.4548  -12.8786   26.8678 C   0  0  0  0  0  0  0  0  0  0  0  0
    7.7232  -14.0080   26.5473 C   0  0  0  0  0  0  0  0  0  0  0  0
   11.0534  -17.5241   26.6894 C   0  0  0  0  0  0  0  0  0  0  0  0
   11.7728  -17.1814   27.8190 O   0  0  0  0  0  0  0  0  0  0  0  0
   11.2306  -18.6579   26.2064 O   0  0  0  0  0  0  0  0  0  0  0  0
  2  3  1  1
  2  1  1  0
  4  2  1  0
  4  5  1  6
  6  7  2  0
  6  4  1  0
  8  6  1  0
  9 12  1  0
  9  8  1  0
  9 10  1  6
 11 10  1  0
 12 13  2  0
 14 15  1  0
 14 12  1  0
 15 16  1  1
 17 16  1  0
 18 17  2  0
 19 20  1  0
 19 18  1  0
 20 25  2  0
 21 22  2  0
 21 20  1  0
 22 23  1  0
 23 24  2  0
 25 24  1  0
 25 17  1  0
 26 15  1  0
 26 27  1  0
 28 26  2  0
M  END
$$$$
