VCW.pdb
     RDKit          3D

 28 29  0  0  1  0  0  0  0  0999 V2000
    6.8871  -13.3905   20.5058 C   0  0  0  0  0  0  0  0  0  0  0  0
    8.2648  -13.2203   19.9326 C   0  0  2  0  0  0  0  0  0  0  0  0
    8.2368  -12.0421   18.9911 C   0  0  0  0  0  0  0  0  0  0  0  0
    8.7521  -14.4781   19.2709 C   0  0  2  0  0  0  0  0  0  0  0  0
    7.9292  -14.7324   18.1113 N   0  0  0  0  0  0  0  0  0  0  0  0
    8.6834  -15.5924   20.2697 C   0  0  0  0  0  0  0  0  0  0  0  0
    7.6588  -16.3238   20.2475 O   0  0  0  0  0  0  0  0  0  0  0  0
    9.6693  -15.8665   21.2101 N   0  0  0  0  0  0  0  0  0  0  0  0
    9.6884  -16.9507   22.1448 C   0  0  1  0  0  0  0  0  0  0  0  0
   10.3026  -18.2253   21.6606 C   0  0  0  0  0  0  0  0  0  0  0  0
   12.1088  -18.2259   21.8423 S   0  0  0  0  0  0  0  0  0  0  0  0
   10.1131  -16.5181   23.4853 C   0  0  0  0  0  0  0  0  0  0  0  0
   11.0343  -15.6273   23.6156 O   0  0  0  0  0  0  0  0  0  0  0  0
    9.6004  -16.9881   24.7336 N   0  0  0  0  0  0  0  0  0  0  0  0
   10.2727  -16.6658   25.9725 C   0  0  1  0  0  0  0  0  0  0  0  0
    9.7648  -15.5311   26.7558 C   0  0  0  0  0  0  0  0  0  0  0  0
    8.3917  -15.1144   26.5667 C   0  0  0  0  0  0  0  0  0  0  0  0
    7.3529  -16.0106   26.2630 C   0  0  0  0  0  0  0  0  0  0  0  0
    6.2278  -15.3281   26.1047 N   0  0  0  0  0  0  0  0  0  0  0  0
    6.4527  -14.0106   26.2887 C   0  0  0  0  0  0  0  0  0  0  0  0
    5.6205  -12.9124   26.2446 C   0  0  0  0  0  0  0  0  0  0  0  0
    6.0942  -11.6418   26.4867 C   0  0  0  0  0  0  0  0  0  0  0  0
    7.4184  -11.5058   26.7733 C   0  0  0  0  0  0  0  0  0  0  0  0
    8.2613  -12.6017   26.8173 C   0  0  0  0  0  0  0  0  0  0  0  0
    7.8154  -13.8891   26.5782 C   0  0  0  0  0  0  0  0  0  0  0  0
   10.3348  -17.9229   26.8354 C   0  0  0  0  0  0  0  0  0  0  0  0
   11.1571  -17.9438   27.9465 O   0  0  0  0  0  0  0  0  0  0  0  0
    9.6701  -18.9447   26.5822 O   0  0  0  0  0  0  0  0  0  0  0  0
  2  3  1  6
  2  1  1  0
  4  2  1  0
  4  5  1  6
  6  7  2  0
  6  4  1  0
  8  6  1  0
  9 12  1  0
  9  8  1  0
  9 10  1  6
 11 10  1  0
 12 13  2  0
 14 15  1  0
 14 12  1  0
 15 16  1  1
 17 16  1  0
 18 17  2  0
 19 20  1  0
 19 18  1  0
 20 25  2  0
 21 22  2  0
 21 20  1  0
 22 23  1  0
 23 24  2  0
 25 24  1  0
 25 17  1  0
 26 15  1  0
 26 27  1  0
 28 26  2  0
M  END
$$$$
