VCW.pdb
     RDKit          3D

 28 29  0  0  1  0  0  0  0  0999 V2000
    6.9790  -14.3469   19.3599 C   0  0  0  0  0  0  0  0  0  0  0  0
    7.9974  -13.3346   19.8000 C   0  0  2  0  0  0  0  0  0  0  0  0
    8.0809  -12.2647   18.7400 C   0  0  0  0  0  0  0  0  0  0  0  0
    9.3280  -13.9711   20.0856 C   0  0  2  0  0  0  0  0  0  0  0  0
    9.8243  -14.5601   18.8637 N   0  0  0  0  0  0  0  0  0  0  0  0
    9.1403  -14.9882   21.1693 C   0  0  0  0  0  0  0  0  0  0  0  0
    8.5883  -14.6018   22.2328 O   0  0  0  0  0  0  0  0  0  0  0  0
    9.5339  -16.3178   21.0757 N   0  0  0  0  0  0  0  0  0  0  0  0
    9.4465  -17.3146   22.0996 C   0  0  1  0  0  0  0  0  0  0  0  0
    9.7674  -18.7146   21.6832 C   0  0  0  0  0  0  0  0  0  0  0  0
    9.7914  -18.9023   19.8779 S   0  0  0  0  0  0  0  0  0  0  0  0
   10.0725  -16.8735   23.3558 C   0  0  0  0  0  0  0  0  0  0  0  0
   11.3506  -16.7298   23.4257 O   0  0  0  0  0  0  0  0  0  0  0  0
    9.4010  -16.5648   24.5788 N   0  0  0  0  0  0  0  0  0  0  0  0
   10.1519  -16.3499   25.7957 C   0  0  1  0  0  0  0  0  0  0  0  0
    9.5433  -15.5162   26.8415 C   0  0  0  0  0  0  0  0  0  0  0  0
    8.2289  -14.9569   26.6081 C   0  0  0  0  0  0  0  0  0  0  0  0
    7.0854  -15.7464   26.3989 C   0  0  0  0  0  0  0  0  0  0  0  0
    6.0499  -14.9517   26.1686 N   0  0  0  0  0  0  0  0  0  0  0  0
    6.4354  -13.6596   26.2137 C   0  0  0  0  0  0  0  0  0  0  0  0
    5.7425  -12.4786   26.0536 C   0  0  0  0  0  0  0  0  0  0  0  0
    6.3699  -11.2571   26.1616 C   0  0  0  0  0  0  0  0  0  0  0  0
    7.7040  -11.2548   26.4339 C   0  0  0  0  0  0  0  0  0  0  0  0
    8.4079  -12.4349   26.5937 C   0  0  0  0  0  0  0  0  0  0  0  0
    7.8060  -13.6760   26.4904 C   0  0  0  0  0  0  0  0  0  0  0  0
   10.5573  -17.7065   26.3650 C   0  0  0  0  0  0  0  0  0  0  0  0
   11.5444  -17.7700   27.3307 O   0  0  0  0  0  0  0  0  0  0  0  0
   10.0329  -18.7735   25.9956 O   0  0  0  0  0  0  0  0  0  0  0  0
  2  3  1  6
  2  1  1  0
  4  2  1  0
  4  5  1  6
  6  7  2  0
  6  4  1  0
  8  6  1  0
  9 12  1  0
  9  8  1  0
  9 10  1  6
 11 10  1  0
 12 13  2  0
 14 15  1  0
 14 12  1  0
 15 16  1  1
 17 16  1  0
 18 17  2  0
 19 20  1  0
 19 18  1  0
 20 25  2  0
 21 22  2  0
 21 20  1  0
 22 23  1  0
 23 24  2  0
 25 24  1  0
 25 17  1  0
 26 15  1  0
 26 27  1  0
 28 26  2  0
M  END
$$$$
