CFG.pdb
     RDKit          3D

 22 22  0  0  1  0  0  0  0  0999 V2000
   28.9853  -20.7665  -14.1449 N   0  0  0  0  0  0  0  0  0  0  0  0
   28.0187  -19.8634  -13.5951 C   0  0  1  0  0  0  0  0  0  0  0  0
   27.3212  -19.1767  -14.7773 C   0  0  0  0  0  0  0  0  0  0  0  0
   28.0112  -17.5291  -15.0643 S   0  0  0  0  0  0  0  0  0  0  0  0
   26.9463  -20.5696  -12.8396 C   0  0  0  0  0  0  0  0  0  0  0  0
   26.5386  -21.6986  -13.2106 O   0  0  0  0  0  0  0  0  0  0  0  0
   26.3704  -19.9869  -11.6978 N   0  0  0  0  0  0  0  0  0  0  0  0
   25.3813  -20.6651  -10.8847 C   0  0  1  0  0  0  0  0  0  0  0  0
   25.5149  -20.0805   -9.4970 C   0  0  0  0  0  0  0  0  0  0  0  0
   26.7887  -20.3765   -8.8368 C   0  0  0  0  0  0  0  0  0  0  0  0
   27.7025  -21.2695   -9.3236 C   0  0  0  0  0  0  0  0  0  0  0  0
   28.9065  -21.5275   -8.6745 C   0  0  0  0  0  0  0  0  0  0  0  0
   29.2047  -20.8772   -7.5102 C   0  0  0  0  0  0  0  0  0  0  0  0
   28.2960  -19.9645   -6.9912 C   0  0  0  0  0  0  0  0  0  0  0  0
   27.0938  -19.7231   -7.6625 C   0  0  0  0  0  0  0  0  0  0  0  0
   24.0586  -20.4467  -11.4964 C   0  0  0  0  0  0  0  0  0  0  0  0
   23.6918  -19.3330  -11.9405 O   0  0  0  0  0  0  0  0  0  0  0  0
   23.1563  -21.5317  -11.5918 N   0  0  0  0  0  0  0  0  0  0  0  0
   21.7844  -21.3367  -11.9938 C   0  0  0  0  0  0  0  0  0  0  0  0
   21.5332  -21.6763  -13.4035 C   0  0  0  0  0  0  0  0  0  0  0  0
   22.4025  -22.1051  -14.2025 O   0  0  0  0  0  0  0  0  0  0  0  0
   20.2518  -21.5154  -13.8938 O   0  0  0  0  0  0  0  0  0  0  0  0
  2  1  1  6
  2  3  1  0
  2  5  1  0
  4  3  1  0
  5  6  2  0
  7  8  1  0
  7  5  1  0
  9 10  1  0
  8  9  1  1
 10 15  2  0
 11 12  2  0
 11 10  1  0
 12 13  1  0
 13 14  2  0
 15 14  1  0
 16  8  1  0
 16 17  2  0
 18 16  1  0
 19 18  1  0
 19 20  1  0
 20 21  2  0
 20 22  1  0
M  END
$$$$
