CFG.pdb
     RDKit          3D

 22 22  0  0  1  0  0  0  0  0999 V2000
   29.0133  -20.9681  -13.5084 N   0  0  0  0  0  0  0  0  0  0  0  0
   28.0284  -20.0730  -12.9783 C   0  0  1  0  0  0  0  0  0  0  0  0
   27.1588  -19.6122  -14.1561 C   0  0  0  0  0  0  0  0  0  0  0  0
   25.9884  -18.3358  -13.6326 S   0  0  0  0  0  0  0  0  0  0  0  0
   27.1036  -20.7462  -12.0239 C   0  0  0  0  0  0  0  0  0  0  0  0
   26.8584  -21.9741  -12.1278 O   0  0  0  0  0  0  0  0  0  0  0  0
   26.4877  -20.0213  -10.9894 N   0  0  0  0  0  0  0  0  0  0  0  0
   25.8507  -20.6594   -9.8553 C   0  0  1  0  0  0  0  0  0  0  0  0
   25.9695  -19.6810   -8.7091 C   0  0  0  0  0  0  0  0  0  0  0  0
   27.1723  -19.8523   -7.8906 C   0  0  0  0  0  0  0  0  0  0  0  0
   28.0263  -20.9127   -8.0152 C   0  0  0  0  0  0  0  0  0  0  0  0
   29.1638  -21.0464   -7.2243 C   0  0  0  0  0  0  0  0  0  0  0  0
   29.4551  -20.0970   -6.2856 C   0  0  0  0  0  0  0  0  0  0  0  0
   28.6063  -19.0083   -6.1359 C   0  0  0  0  0  0  0  0  0  0  0  0
   27.4702  -18.8973   -6.9428 C   0  0  0  0  0  0  0  0  0  0  0  0
   24.4596  -20.9717  -10.2280 C   0  0  0  0  0  0  0  0  0  0  0  0
   23.5936  -21.3166   -9.3895 O   0  0  0  0  0  0  0  0  0  0  0  0
   24.0737  -20.8822  -11.5857 N   0  0  0  0  0  0  0  0  0  0  0  0
   22.6998  -21.0558  -11.9907 C   0  0  0  0  0  0  0  0  0  0  0  0
   22.4754  -20.8056  -13.4234 C   0  0  0  0  0  0  0  0  0  0  0  0
   22.3771  -21.7004  -14.2996 O   0  0  0  0  0  0  0  0  0  0  0  0
   22.3632  -19.4953  -13.8460 O   0  0  0  0  0  0  0  0  0  0  0  0
  2  1  1  6
  2  3  1  0
  2  5  1  0
  4  3  1  0
  5  6  2  0
  7  8  1  0
  7  5  1  0
  9 10  1  0
  8  9  1  1
 10 15  2  0
 11 12  2  0
 11 10  1  0
 12 13  1  0
 13 14  2  0
 15 14  1  0
 16  8  1  0
 16 17  2  0
 18 16  1  0
 19 18  1  0
 19 20  1  0
 20 21  2  0
 20 22  1  0
M  END
$$$$
