CFG.pdb
     RDKit          3D

 22 22  0  0  1  0  0  0  0  0999 V2000
   29.2713  -23.3412  -17.7255 N   0  0  0  0  0  0  0  0  0  0  0  0
   28.4249  -22.2105  -17.4860 C   0  0  1  0  0  0  0  0  0  0  0  0
   27.4999  -22.0750  -18.7033 C   0  0  0  0  0  0  0  0  0  0  0  0
   28.4053  -21.4344  -20.1326 S   0  0  0  0  0  0  0  0  0  0  0  0
   27.5307  -22.4087  -16.3109 C   0  0  0  0  0  0  0  0  0  0  0  0
   27.0831  -23.5490  -16.0318 O   0  0  0  0  0  0  0  0  0  0  0  0
   27.1708  -21.3246  -15.4923 N   0  0  0  0  0  0  0  0  0  0  0  0
   26.3177  -21.4681  -14.3301 C   0  0  1  0  0  0  0  0  0  0  0  0
   26.9015  -20.5586  -13.2731 C   0  0  0  0  0  0  0  0  0  0  0  0
   26.1917  -20.5876  -11.9920 C   0  0  0  0  0  0  0  0  0  0  0  0
   24.9947  -19.9627  -11.7771 C   0  0  0  0  0  0  0  0  0  0  0  0
   24.3426  -20.0108  -10.5483 C   0  0  0  0  0  0  0  0  0  0  0  0
   24.9004  -20.7003   -9.5086 C   0  0  0  0  0  0  0  0  0  0  0  0
   26.1156  -21.3452   -9.6968 C   0  0  0  0  0  0  0  0  0  0  0  0
   26.7503  -21.2816  -10.9407 C   0  0  0  0  0  0  0  0  0  0  0  0
   24.9429  -21.1137  -14.7252 C   0  0  0  0  0  0  0  0  0  0  0  0
   24.6732  -20.0943  -15.4035 O   0  0  0  0  0  0  0  0  0  0  0  0
   23.8746  -21.9512  -14.3281 N   0  0  0  0  0  0  0  0  0  0  0  0
   22.5012  -21.5944  -14.5893 C   0  0  0  0  0  0  0  0  0  0  0  0
   21.7004  -21.4145  -13.3678 C   0  0  0  0  0  0  0  0  0  0  0  0
   22.0679  -21.7510  -12.2147 O   0  0  0  0  0  0  0  0  0  0  0  0
   20.4523  -20.8345  -13.4868 O   0  0  0  0  0  0  0  0  0  0  0  0
  2  1  1  6
  2  3  1  0
  2  5  1  0
  4  3  1  0
  5  6  2  0
  7  8  1  0
  7  5  1  0
  9 10  1  0
  8  9  1  1
 10 15  2  0
 11 12  2  0
 11 10  1  0
 12 13  1  0
 13 14  2  0
 15 14  1  0
 16  8  1  0
 16 17  2  0
 18 16  1  0
 19 18  1  0
 19 20  1  0
 20 21  2  0
 20 22  1  0
M  END
$$$$
