CFG.pdb
     RDKit          3D

 22 22  0  0  1  0  0  0  0  0999 V2000
   27.5188  -17.7271  -17.1888 N   0  0  0  0  0  0  0  0  0  0  0  0
   26.8439  -17.9438  -15.9439 C   0  0  1  0  0  0  0  0  0  0  0  0
   26.0422  -16.6710  -15.6392 C   0  0  0  0  0  0  0  0  0  0  0  0
   27.1355  -15.3338  -15.1010 S   0  0  0  0  0  0  0  0  0  0  0  0
   25.8470  -19.0481  -16.0225 C   0  0  0  0  0  0  0  0  0  0  0  0
   25.1949  -19.2484  -17.0777 O   0  0  0  0  0  0  0  0  0  0  0  0
   25.6167  -19.8867  -14.9187 N   0  0  0  0  0  0  0  0  0  0  0  0
   24.7692  -21.0598  -14.9875 C   0  0  1  0  0  0  0  0  0  0  0  0
   25.5848  -22.1943  -14.4105 C   0  0  0  0  0  0  0  0  0  0  0  0
   26.6803  -22.6490  -15.2703 C   0  0  0  0  0  0  0  0  0  0  0  0
   27.9358  -22.1082  -15.2440 C   0  0  0  0  0  0  0  0  0  0  0  0
   28.9576  -22.5640  -16.0720 C   0  0  0  0  0  0  0  0  0  0  0  0
   28.7190  -23.5856  -16.9478 C   0  0  0  0  0  0  0  0  0  0  0  0
   27.4535  -24.1550  -16.9971 C   0  0  0  0  0  0  0  0  0  0  0  0
   26.4445  -23.6789  -16.1549 C   0  0  0  0  0  0  0  0  0  0  0  0
   23.5329  -20.7757  -14.2376 C   0  0  0  0  0  0  0  0  0  0  0  0
   23.4894  -19.9632  -13.2837 O   0  0  0  0  0  0  0  0  0  0  0  0
   22.3390  -21.4419  -14.6000 N   0  0  0  0  0  0  0  0  0  0  0  0
   21.1238  -21.2754  -13.8403 C   0  0  0  0  0  0  0  0  0  0  0  0
   20.0633  -20.5712  -14.5786 C   0  0  0  0  0  0  0  0  0  0  0  0
   20.2084  -20.0402  -15.7077 O   0  0  0  0  0  0  0  0  0  0  0  0
   18.8137  -20.4818  -13.9967 O   0  0  0  0  0  0  0  0  0  0  0  0
  2  1  1  6
  2  3  1  0
  2  5  1  0
  4  3  1  0
  5  6  2  0
  7  8  1  0
  7  5  1  0
  9 10  1  0
  8  9  1  1
 10 15  2  0
 11 12  2  0
 11 10  1  0
 12 13  1  0
 13 14  2  0
 15 14  1  0
 16  8  1  0
 16 17  2  0
 18 16  1  0
 19 18  1  0
 19 20  1  0
 20 21  2  0
 20 22  1  0
M  END
$$$$
