CFG.pdb
     RDKit          3D

 22 22  0  0  1  0  0  0  0  0999 V2000
   28.5664  -20.8361  -14.1397 N   0  0  0  0  0  0  0  0  0  0  0  0
   27.7479  -19.9174  -13.4062 C   0  0  1  0  0  0  0  0  0  0  0  0
   26.9402  -19.1142  -14.4348 C   0  0  0  0  0  0  0  0  0  0  0  0
   27.8962  -17.7059  -15.0478 S   0  0  0  0  0  0  0  0  0  0  0  0
   26.7464  -20.6092  -12.5473 C   0  0  0  0  0  0  0  0  0  0  0  0
   26.4073  -21.7951  -12.7869 O   0  0  0  0  0  0  0  0  0  0  0  0
   26.1618  -19.9493  -11.4529 N   0  0  0  0  0  0  0  0  0  0  0  0
   25.3094  -20.6228  -10.4943 C   0  0  1  0  0  0  0  0  0  0  0  0
   25.4881  -19.8817   -9.1889 C   0  0  0  0  0  0  0  0  0  0  0  0
   26.7480  -20.1687   -8.4988 C   0  0  0  0  0  0  0  0  0  0  0  0
   27.6236  -21.1403   -8.8974 C   0  0  0  0  0  0  0  0  0  0  0  0
   28.8153  -21.3877   -8.2221 C   0  0  0  0  0  0  0  0  0  0  0  0
   29.1402  -20.6460   -7.1213 C   0  0  0  0  0  0  0  0  0  0  0  0
   28.2706  -19.6520   -6.6925 C   0  0  0  0  0  0  0  0  0  0  0  0
   27.0799  -19.4233   -7.3883 C   0  0  0  0  0  0  0  0  0  0  0  0
   23.9291  -20.5936  -11.0097 C   0  0  0  0  0  0  0  0  0  0  0  0
   22.9400  -20.9378  -10.3205 O   0  0  0  0  0  0  0  0  0  0  0  0
   23.6984  -20.1609  -12.3364 N   0  0  0  0  0  0  0  0  0  0  0  0
   22.3620  -20.0355  -12.8655 C   0  0  0  0  0  0  0  0  0  0  0  0
   21.6809  -21.3271  -13.0487 C   0  0  0  0  0  0  0  0  0  0  0  0
   20.6431  -21.6823  -12.4366 O   0  0  0  0  0  0  0  0  0  0  0  0
   22.2132  -22.2211  -13.9573 O   0  0  0  0  0  0  0  0  0  0  0  0
  2  1  1  6
  2  3  1  0
  2  5  1  0
  4  3  1  0
  5  6  2  0
  7  8  1  0
  7  5  1  0
  9 10  1  0
  8  9  1  1
 10 15  2  0
 11 12  2  0
 11 10  1  0
 12 13  1  0
 13 14  2  0
 15 14  1  0
 16  8  1  0
 16 17  2  0
 18 16  1  0
 19 18  1  0
 19 20  1  0
 20 21  2  0
 20 22  1  0
M  END
$$$$
