CFG.pdb
     RDKit          3D

 22 22  0  0  1  0  0  0  0  0999 V2000
   28.0497  -22.0138  -16.3996 N   0  0  0  0  0  0  0  0  0  0  0  0
   27.1443  -20.9934  -15.9623 C   0  0  1  0  0  0  0  0  0  0  0  0
   26.1135  -20.7964  -17.0823 C   0  0  0  0  0  0  0  0  0  0  0  0
   25.0732  -19.3530  -16.7544 S   0  0  0  0  0  0  0  0  0  0  0  0
   26.3685  -21.4004  -14.7573 C   0  0  0  0  0  0  0  0  0  0  0  0
   26.1251  -22.6122  -14.5314 O   0  0  0  0  0  0  0  0  0  0  0  0
   25.8940  -20.4374  -13.8505 N   0  0  0  0  0  0  0  0  0  0  0  0
   25.3818  -20.7793  -12.5391 C   0  0  1  0  0  0  0  0  0  0  0  0
   26.2041  -19.9821  -11.5525 C   0  0  0  0  0  0  0  0  0  0  0  0
   27.5741  -20.4694  -11.3748 C   0  0  0  0  0  0  0  0  0  0  0  0
   27.9343  -21.3802  -10.4208 C   0  0  0  0  0  0  0  0  0  0  0  0
   29.2449  -21.8266  -10.2784 C   0  0  0  0  0  0  0  0  0  0  0  0
   30.2198  -21.3512  -11.1097 C   0  0  0  0  0  0  0  0  0  0  0  0
   29.8842  -20.4252  -12.0885 C   0  0  0  0  0  0  0  0  0  0  0  0
   28.5605  -19.9929  -12.2109 C   0  0  0  0  0  0  0  0  0  0  0  0
   23.9440  -20.4572  -12.5112 C   0  0  0  0  0  0  0  0  0  0  0  0
   23.2026  -20.7458  -11.5423 O   0  0  0  0  0  0  0  0  0  0  0  0
   23.3652  -19.7946  -13.6187 N   0  0  0  0  0  0  0  0  0  0  0  0
   22.5920  -20.5106  -14.6042 C   0  0  0  0  0  0  0  0  0  0  0  0
   21.3767  -21.1333  -14.0559 C   0  0  0  0  0  0  0  0  0  0  0  0
   20.2302  -20.6212  -14.0940 O   0  0  0  0  0  0  0  0  0  0  0  0
   21.4939  -22.3709  -13.4535 O   0  0  0  0  0  0  0  0  0  0  0  0
  2  1  1  6
  2  3  1  0
  2  5  1  0
  4  3  1  0
  5  6  2  0
  7  8  1  0
  7  5  1  0
  9 10  1  0
  8  9  1  1
 10 15  2  0
 11 12  2  0
 11 10  1  0
 12 13  1  0
 13 14  2  0
 15 14  1  0
 16  8  1  0
 16 17  2  0
 18 16  1  0
 19 18  1  0
 19 20  1  0
 20 21  2  0
 20 22  1  0
M  END
$$$$
