CFG.pdb
     RDKit          3D

 22 22  0  0  1  0  0  0  0  0999 V2000
   29.7953  -29.9559  -20.5544 N   0  0  0  0  0  0  0  0  0  0  0  0
   29.1126  -28.6985  -20.4837 C   0  0  1  0  0  0  0  0  0  0  0  0
   28.6284  -28.3689  -21.9024 C   0  0  0  0  0  0  0  0  0  0  0  0
   27.6920  -26.8211  -21.9206 S   0  0  0  0  0  0  0  0  0  0  0  0
   27.8887  -28.7631  -19.6368 C   0  0  0  0  0  0  0  0  0  0  0  0
   27.0646  -29.7018  -19.7727 O   0  0  0  0  0  0  0  0  0  0  0  0
   27.6323  -27.7761  -18.6699 N   0  0  0  0  0  0  0  0  0  0  0  0
   26.4657  -27.8029  -17.8111 C   0  0  1  0  0  0  0  0  0  0  0  0
   26.9881  -28.0222  -16.4096 C   0  0  0  0  0  0  0  0  0  0  0  0
   27.5554  -29.3527  -16.1775 C   0  0  0  0  0  0  0  0  0  0  0  0
   28.8535  -29.6797  -16.4556 C   0  0  0  0  0  0  0  0  0  0  0  0
   29.3646  -30.9529  -16.2211 C   0  0  0  0  0  0  0  0  0  0  0  0
   28.5587  -31.9235  -15.6958 C   0  0  0  0  0  0  0  0  0  0  0  0
   27.2355  -31.6211  -15.4031 C   0  0  0  0  0  0  0  0  0  0  0  0
   26.7465  -30.3346  -15.6479 C   0  0  0  0  0  0  0  0  0  0  0  0
   25.7418  -26.5309  -17.9830 C   0  0  0  0  0  0  0  0  0  0  0  0
   26.3198  -25.4185  -18.0031 O   0  0  0  0  0  0  0  0  0  0  0  0
   24.3355  -26.5535  -18.1324 N   0  0  0  0  0  0  0  0  0  0  0  0
   23.4557  -26.4036  -16.9988 C   0  0  0  0  0  0  0  0  0  0  0  0
   23.3907  -25.0258  -16.4859 C   0  0  0  0  0  0  0  0  0  0  0  0
   24.3890  -24.2949  -16.2687 O   0  0  0  0  0  0  0  0  0  0  0  0
   22.1465  -24.4875  -16.2208 O   0  0  0  0  0  0  0  0  0  0  0  0
  2  1  1  6
  2  3  1  0
  2  5  1  0
  4  3  1  0
  5  6  2  0
  7  8  1  0
  7  5  1  0
  9 10  1  0
  8  9  1  1
 10 15  2  0
 11 12  2  0
 11 10  1  0
 12 13  1  0
 13 14  2  0
 15 14  1  0
 16  8  1  0
 16 17  2  0
 18 16  1  0
 19 18  1  0
 19 20  1  0
 20 21  2  0
 20 22  1  0
M  END
$$$$
