CFG.pdb
     RDKit          3D

 22 22  0  0  1  0  0  0  0  0999 V2000
   25.8678  -10.8217  -18.4990 N   0  0  0  0  0  0  0  0  0  0  0  0
   25.5675   -9.6478  -19.2631 C   0  0  1  0  0  0  0  0  0  0  0  0
   24.0570   -9.4048  -19.1397 C   0  0  0  0  0  0  0  0  0  0  0  0
   23.1226  -10.7996  -19.8138 S   0  0  0  0  0  0  0  0  0  0  0  0
   26.2256   -8.4289  -18.7147 C   0  0  0  0  0  0  0  0  0  0  0  0
   26.4254   -8.3095  -17.4799 O   0  0  0  0  0  0  0  0  0  0  0  0
   26.6354   -7.3897  -19.5672 N   0  0  0  0  0  0  0  0  0  0  0  0
   27.3485   -6.2209  -19.0934 C   0  0  1  0  0  0  0  0  0  0  0  0
   28.7333   -6.3094  -19.6931 C   0  0  0  0  0  0  0  0  0  0  0  0
   29.6493   -7.1951  -18.9702 C   0  0  0  0  0  0  0  0  0  0  0  0
   29.7863   -8.5274  -19.2450 C   0  0  0  0  0  0  0  0  0  0  0  0
   30.6680   -9.3433  -18.5419 C   0  0  0  0  0  0  0  0  0  0  0  0
   31.4317   -8.8147  -17.5395 C   0  0  0  0  0  0  0  0  0  0  0  0
   31.3145   -7.4645  -17.2375 C   0  0  0  0  0  0  0  0  0  0  0  0
   30.4216   -6.6665  -17.9587 C   0  0  0  0  0  0  0  0  0  0  0  0
   26.5956   -5.0250  -19.5112 C   0  0  0  0  0  0  0  0  0  0  0  0
   27.0117   -3.8585  -19.3157 O   0  0  0  0  0  0  0  0  0  0  0  0
   25.3498   -5.1876  -20.1609 N   0  0  0  0  0  0  0  0  0  0  0  0
   24.5542   -4.0515  -20.5584 C   0  0  0  0  0  0  0  0  0  0  0  0
   23.5473   -3.6628  -19.5582 C   0  0  0  0  0  0  0  0  0  0  0  0
   22.3894   -4.1443  -19.4834 O   0  0  0  0  0  0  0  0  0  0  0  0
   23.8898   -2.6994  -18.6294 O   0  0  0  0  0  0  0  0  0  0  0  0
  2  1  1  1
  2  3  1  0
  2  5  1  0
  4  3  1  0
  5  6  2  0
  7  8  1  0
  7  5  1  0
  9 10  1  0
  8  9  1  6
 10 15  2  0
 11 12  2  0
 11 10  1  0
 12 13  1  0
 13 14  2  0
 15 14  1  0
 16  8  1  0
 16 17  2  0
 18 16  1  0
 19 18  1  0
 19 20  1  0
 20 21  2  0
 20 22  1  0
M  END
$$$$
