CFG.pdb
     RDKit          3D

 22 22  0  0  1  0  0  0  0  0999 V2000
   27.9169  -34.1926   -6.5928 N   0  0  0  0  0  0  0  0  0  0  0  0
   27.0573  -34.8302   -5.6405 C   0  0  1  0  0  0  0  0  0  0  0  0
   27.3464  -36.3359   -5.7109 C   0  0  0  0  0  0  0  0  0  0  0  0
   29.1223  -36.6578   -5.5868 S   0  0  0  0  0  0  0  0  0  0  0  0
   27.3569  -34.4196   -4.2401 C   0  0  0  0  0  0  0  0  0  0  0  0
   28.3878  -33.7519   -3.9750 O   0  0  0  0  0  0  0  0  0  0  0  0
   26.4929  -34.7709   -3.1890 N   0  0  0  0  0  0  0  0  0  0  0  0
   26.7283  -34.3773   -1.8146 C   0  0  1  0  0  0  0  0  0  0  0  0
   25.4047  -33.8593   -1.2998 C   0  0  0  0  0  0  0  0  0  0  0  0
   25.1467  -32.4502   -1.6066 C   0  0  0  0  0  0  0  0  0  0  0  0
   25.5381  -31.4176   -0.8005 C   0  0  0  0  0  0  0  0  0  0  0  0
   25.2808  -30.0877   -1.1206 C   0  0  0  0  0  0  0  0  0  0  0  0
   24.6159  -29.7821   -2.2748 C   0  0  0  0  0  0  0  0  0  0  0  0
   24.2059  -30.8098   -3.1137 C   0  0  0  0  0  0  0  0  0  0  0  0
   24.4767  -32.1373   -2.7694 C   0  0  0  0  0  0  0  0  0  0  0  0
   27.2317  -35.5526   -1.0820 C   0  0  0  0  0  0  0  0  0  0  0  0
   26.6169  -36.6447   -1.0465 O   0  0  0  0  0  0  0  0  0  0  0  0
   28.4590  -35.4563   -0.3857 N   0  0  0  0  0  0  0  0  0  0  0  0
   28.9984  -36.5760    0.3473 C   0  0  0  0  0  0  0  0  0  0  0  0
   28.9900  -37.8343   -0.4156 C   0  0  0  0  0  0  0  0  0  0  0  0
   29.6872  -38.0573   -1.4364 O   0  0  0  0  0  0  0  0  0  0  0  0
   28.1585  -38.8505    0.0133 O   0  0  0  0  0  0  0  0  0  0  0  0
  2  1  1  6
  2  3  1  0
  2  5  1  0
  4  3  1  0
  5  6  2  0
  7  8  1  0
  7  5  1  0
  9 10  1  0
  8  9  1  1
 10 15  2  0
 11 12  2  0
 11 10  1  0
 12 13  1  0
 13 14  2  0
 15 14  1  0
 16  8  1  0
 16 17  2  0
 18 16  1  0
 19 18  1  0
 19 20  1  0
 20 21  2  0
 20 22  1  0
M  END
$$$$
