CFG.pdb
     RDKit          3D

 22 22  0  0  1  0  0  0  0  0999 V2000
   28.3657  -20.8915  -13.6219 N   0  0  0  0  0  0  0  0  0  0  0  0
   27.5526  -20.0677  -12.7778 C   0  0  1  0  0  0  0  0  0  0  0  0
   26.1491  -20.0350  -13.3981 C   0  0  0  0  0  0  0  0  0  0  0  0
   26.0817  -18.8684  -14.7793 S   0  0  0  0  0  0  0  0  0  0  0  0
   27.3853  -20.6424  -11.4136 C   0  0  0  0  0  0  0  0  0  0  0  0
   27.4961  -21.8792  -11.2215 O   0  0  0  0  0  0  0  0  0  0  0  0
   27.1004  -19.8129  -10.3156 N   0  0  0  0  0  0  0  0  0  0  0  0
   27.1049  -20.2917   -8.9482 C   0  0  1  0  0  0  0  0  0  0  0  0
   27.5120  -19.1104   -8.0972 C   0  0  0  0  0  0  0  0  0  0  0  0
   27.8868  -19.4558   -6.7238 C   0  0  0  0  0  0  0  0  0  0  0  0
   28.9295  -20.2828   -6.4103 C   0  0  0  0  0  0  0  0  0  0  0  0
   29.2632  -20.5901   -5.0945 C   0  0  0  0  0  0  0  0  0  0  0  0
   28.5370  -20.0580   -4.0664 C   0  0  0  0  0  0  0  0  0  0  0  0
   27.4721  -19.2145   -4.3537 C   0  0  0  0  0  0  0  0  0  0  0  0
   27.1575  -18.9215   -5.6838 C   0  0  0  0  0  0  0  0  0  0  0  0
   25.7602  -20.8100   -8.6405 C   0  0  0  0  0  0  0  0  0  0  0  0
   25.4263  -21.1927   -7.4942 O   0  0  0  0  0  0  0  0  0  0  0  0
   24.7973  -20.8836   -9.6739 N   0  0  0  0  0  0  0  0  0  0  0  0
   23.4694  -21.3926   -9.4306 C   0  0  0  0  0  0  0  0  0  0  0  0
   22.4195  -20.6616  -10.1578 C   0  0  0  0  0  0  0  0  0  0  0  0
   21.3213  -20.3052   -9.6628 O   0  0  0  0  0  0  0  0  0  0  0  0
   22.6480  -20.3388  -11.4813 O   0  0  0  0  0  0  0  0  0  0  0  0
  2  1  1  6
  2  3  1  0
  2  5  1  0
  4  3  1  0
  5  6  2  0
  7  8  1  0
  7  5  1  0
  9 10  1  0
  8  9  1  1
 10 15  2  0
 11 12  2  0
 11 10  1  0
 12 13  1  0
 13 14  2  0
 15 14  1  0
 16  8  1  0
 16 17  2  0
 18 16  1  0
 19 18  1  0
 19 20  1  0
 20 21  2  0
 20 22  1  0
M  END
$$$$
