CFG.pdb
     RDKit          3D

 22 22  0  0  1  0  0  0  0  0999 V2000
   20.5923   -9.0013  -17.9700 N   0  0  0  0  0  0  0  0  0  0  0  0
   20.4441   -7.6001  -17.7109 C   0  0  1  0  0  0  0  0  0  0  0  0
   19.0084   -7.2203  -18.0983 C   0  0  0  0  0  0  0  0  0  0  0  0
   18.7513   -5.4357  -17.9496 S   0  0  0  0  0  0  0  0  0  0  0  0
   20.5793   -7.2724  -16.2639 C   0  0  0  0  0  0  0  0  0  0  0  0
   20.0031   -7.9706  -15.3925 O   0  0  0  0  0  0  0  0  0  0  0  0
   21.3533   -6.1766  -15.8457 N   0  0  0  0  0  0  0  0  0  0  0  0
   21.5518   -5.8430  -14.4498 C   0  0  1  0  0  0  0  0  0  0  0  0
   22.9978   -6.1649  -14.1487 C   0  0  0  0  0  0  0  0  0  0  0  0
   23.3375   -7.5852  -14.2649 C   0  0  0  0  0  0  0  0  0  0  0  0
   22.9490   -8.5316  -13.3579 C   0  0  0  0  0  0  0  0  0  0  0  0
   23.2852   -9.8751  -13.4971 C   0  0  0  0  0  0  0  0  0  0  0  0
   24.0279  -10.2830  -14.5692 C   0  0  0  0  0  0  0  0  0  0  0  0
   24.4371   -9.3445  -15.5072 C   0  0  0  0  0  0  0  0  0  0  0  0
   24.0862   -8.0011  -15.3444 C   0  0  0  0  0  0  0  0  0  0  0  0
   21.2089   -4.4216  -14.2659 C   0  0  0  0  0  0  0  0  0  0  0  0
   22.0720   -3.5124  -14.2464 O   0  0  0  0  0  0  0  0  0  0  0  0
   19.8524   -4.0559  -14.1034 N   0  0  0  0  0  0  0  0  0  0  0  0
   19.4622   -2.6812  -13.9041 C   0  0  0  0  0  0  0  0  0  0  0  0
   18.9449   -2.0368  -15.1218 C   0  0  0  0  0  0  0  0  0  0  0  0
   19.6559   -1.6339  -16.0759 O   0  0  0  0  0  0  0  0  0  0  0  0
   17.5799   -1.8569  -15.2339 O   0  0  0  0  0  0  0  0  0  0  0  0
  2  1  1  1
  2  3  1  0
  2  5  1  0
  4  3  1  0
  5  6  2  0
  7  8  1  0
  7  5  1  0
  9 10  1  0
  8  9  1  6
 10 15  2  0
 11 12  2  0
 11 10  1  0
 12 13  1  0
 13 14  2  0
 15 14  1  0
 16  8  1  0
 16 17  2  0
 18 16  1  0
 19 18  1  0
 19 20  1  0
 20 21  2  0
 20 22  1  0
M  END
$$$$
