CFG.pdb
     RDKit          3D

 22 22  0  0  1  0  0  0  0  0999 V2000
   21.7488  -11.3969  -18.7923 N   0  0  0  0  0  0  0  0  0  0  0  0
   21.2457  -10.1160  -19.1904 C   0  0  1  0  0  0  0  0  0  0  0  0
   19.8978  -10.3577  -19.8836 C   0  0  0  0  0  0  0  0  0  0  0  0
   19.2599   -8.8258  -20.6044 S   0  0  0  0  0  0  0  0  0  0  0  0
   20.9562   -9.2324  -18.0264 C   0  0  0  0  0  0  0  0  0  0  0  0
   20.3589   -9.6797  -17.0155 O   0  0  0  0  0  0  0  0  0  0  0  0
   21.3453   -7.8821  -18.0365 N   0  0  0  0  0  0  0  0  0  0  0  0
   21.0300   -6.9664  -16.9589 C   0  0  1  0  0  0  0  0  0  0  0  0
   22.3402   -6.6815  -16.2608 C   0  0  0  0  0  0  0  0  0  0  0  0
   22.8366   -7.7842  -15.4340 C   0  0  0  0  0  0  0  0  0  0  0  0
   22.2491   -8.1741  -14.2626 C   0  0  0  0  0  0  0  0  0  0  0  0
   22.7428   -9.2285  -13.4998 C   0  0  0  0  0  0  0  0  0  0  0  0
   23.8510   -9.9102  -13.9179 C   0  0  0  0  0  0  0  0  0  0  0  0
   24.4694   -9.5371  -15.1039 C   0  0  0  0  0  0  0  0  0  0  0  0
   23.9537   -8.4746  -15.8517 C   0  0  0  0  0  0  0  0  0  0  0  0
   20.3968   -5.7715  -17.5445 C   0  0  0  0  0  0  0  0  0  0  0  0
   20.7526   -5.2849  -18.6439 O   0  0  0  0  0  0  0  0  0  0  0  0
   19.3425   -5.1383  -16.8459 N   0  0  0  0  0  0  0  0  0  0  0  0
   18.6882   -3.9653  -17.3727 C   0  0  0  0  0  0  0  0  0  0  0  0
   17.6417   -3.4308  -16.4868 C   0  0  0  0  0  0  0  0  0  0  0  0
   16.9619   -4.1190  -15.6854 O   0  0  0  0  0  0  0  0  0  0  0  0
   17.3798   -2.0752  -16.5319 O   0  0  0  0  0  0  0  0  0  0  0  0
  2  1  1  1
  2  3  1  0
  2  5  1  0
  4  3  1  0
  5  6  2  0
  7  8  1  0
  7  5  1  0
  9 10  1  0
  8  9  1  6
 10 15  2  0
 11 12  2  0
 11 10  1  0
 12 13  1  0
 13 14  2  0
 15 14  1  0
 16  8  1  0
 16 17  2  0
 18 16  1  0
 19 18  1  0
 19 20  1  0
 20 21  2  0
 20 22  1  0
M  END
$$$$
