CFG.pdb
     RDKit          3D

 22 22  0  0  1  0  0  0  0  0999 V2000
   22.2210  -11.7655  -17.4119 N   0  0  0  0  0  0  0  0  0  0  0  0
   22.1982  -10.3895  -17.8098 C   0  0  1  0  0  0  0  0  0  0  0  0
   21.0675  -10.2368  -18.8365 C   0  0  0  0  0  0  0  0  0  0  0  0
   21.6006  -10.8003  -20.4709 S   0  0  0  0  0  0  0  0  0  0  0  0
   21.8553   -9.4776  -16.6827 C   0  0  0  0  0  0  0  0  0  0  0  0
   20.9601   -9.7877  -15.8574 O   0  0  0  0  0  0  0  0  0  0  0  0
   22.5261   -8.2534  -16.5209 N   0  0  0  0  0  0  0  0  0  0  0  0
   22.2850   -7.3686  -15.3991 C   0  0  1  0  0  0  0  0  0  0  0  0
   23.5037   -7.4829  -14.5122 C   0  0  0  0  0  0  0  0  0  0  0  0
   24.5622   -8.3425  -15.0477 C   0  0  0  0  0  0  0  0  0  0  0  0
   25.3431   -8.0023  -16.1172 C   0  0  0  0  0  0  0  0  0  0  0  0
   26.3438   -8.8398  -16.6016 C   0  0  0  0  0  0  0  0  0  0  0  0
   26.5697  -10.0471  -16.0025 C   0  0  0  0  0  0  0  0  0  0  0  0
   25.7925  -10.4200  -14.9140 C   0  0  0  0  0  0  0  0  0  0  0  0
   24.7937   -9.5607  -14.4468 C   0  0  0  0  0  0  0  0  0  0  0  0
   22.0597   -6.0114  -15.9272 C   0  0  0  0  0  0  0  0  0  0  0  0
   22.6715   -5.5611  -16.9247 O   0  0  0  0  0  0  0  0  0  0  0  0
   21.1162   -5.1722  -15.2900 N   0  0  0  0  0  0  0  0  0  0  0  0
   20.8253   -3.8506  -15.7905 C   0  0  0  0  0  0  0  0  0  0  0  0
   19.7325   -3.8249  -16.7758 C   0  0  0  0  0  0  0  0  0  0  0  0
   19.8836   -3.9555  -18.0160 O   0  0  0  0  0  0  0  0  0  0  0  0
   18.4432   -3.6445  -16.3141 O   0  0  0  0  0  0  0  0  0  0  0  0
  2  1  1  1
  2  3  1  0
  2  5  1  0
  4  3  1  0
  5  6  2  0
  7  8  1  0
  7  5  1  0
  9 10  1  0
  8  9  1  1
 10 15  2  0
 11 12  2  0
 11 10  1  0
 12 13  1  0
 13 14  2  0
 15 14  1  0
 16  8  1  0
 16 17  2  0
 18 16  1  0
 19 18  1  0
 19 20  1  0
 20 21  2  0
 20 22  1  0
M  END
$$$$
