MHF.pdb
     RDKit          3D

 30 31  0  0  1  0  0  0  0  0999 V2000
    8.6420  -11.3971   19.8281 C   0  0  0  0  0  0  0  0  0  0  0  0
    7.2202  -12.4873   19.7393 S   0  0  0  0  0  0  0  0  0  0  0  0
    7.7432  -14.2326   19.6906 C   0  0  0  0  0  0  0  0  0  0  0  0
    7.9347  -14.7919   21.0556 C   0  0  0  0  0  0  0  0  0  0  0  0
    8.4272  -16.1964   21.0567 C   0  0  2  0  0  0  0  0  0  0  0  0
    7.3984  -17.0685   20.4767 N   0  0  0  0  0  0  0  0  0  0  0  0
    8.8140  -16.6750   22.4008 C   0  0  0  0  0  0  0  0  0  0  0  0
    7.9589  -17.2414   23.1194 O   0  0  0  0  0  0  0  0  0  0  0  0
   10.1160  -16.5319   22.9403 N   0  0  0  0  0  0  0  0  0  0  0  0
   10.5201  -17.1344   24.2046 C   0  0  1  0  0  0  0  0  0  0  0  0
   11.8303  -17.9042   24.0185 C   0  0  0  0  0  0  0  0  0  0  0  0
   11.6454  -19.1501   23.2468 C   0  0  0  0  0  0  0  0  0  0  0  0
   11.4606  -19.3589   21.8965 C   0  0  0  0  0  0  0  0  0  0  0  0
   11.3297  -20.6861   21.6549 N   0  0  0  0  0  0  0  0  0  0  0  0
   11.4313  -21.3021   22.8395 C   0  0  0  0  0  0  0  0  0  0  0  0
   11.6206  -20.3791   23.7933 N   0  0  0  0  0  0  0  0  0  0  0  0
   10.5664  -16.1500   25.2856 C   0  0  0  0  0  0  0  0  0  0  0  0
   11.3131  -15.1405   25.1979 O   0  0  0  0  0  0  0  0  0  0  0  0
    9.7990  -16.2418   26.4907 N   0  0  0  0  0  0  0  0  0  0  0  0
   10.1297  -15.4373   27.6728 C   0  0  1  0  0  0  0  0  0  0  0  0
    8.8173  -15.0329   28.3048 C   0  0  0  0  0  0  0  0  0  0  0  0
    8.0642  -14.1603   27.3933 C   0  0  0  0  0  0  0  0  0  0  0  0
    7.0784  -14.6601   26.5895 C   0  0  0  0  0  0  0  0  0  0  0  0
    6.3730  -13.8241   25.7492 C   0  0  0  0  0  0  0  0  0  0  0  0
    6.6658  -12.4810   25.7226 C   0  0  0  0  0  0  0  0  0  0  0  0
    7.6549  -11.9415   26.5208 C   0  0  0  0  0  0  0  0  0  0  0  0
    8.3488  -12.8165   27.3591 C   0  0  0  0  0  0  0  0  0  0  0  0
   11.0321  -16.1470   28.5747 C   0  0  0  0  0  0  0  0  0  0  0  0
   11.3936  -17.4728   28.2857 O   0  0  0  0  0  0  0  0  0  0  0  0
   11.5235  -15.6544   29.6149 O   0  0  0  0  0  0  0  0  0  0  0  0
  1  2  1  0
  2  3  1  0
  4  3  1  0
  5  6  1  1
  5  4  1  0
  7  5  1  0
  8  7  2  0
  9  7  1  0
 10  9  1  0
 10 11  1  6
 11 12  1  0
 12 13  2  0
 12 16  1  0
 13 14  1  0
 14 15  1  0
 16 15  2  0
 17 18  2  0
 17 10  1  0
 19 17  1  0
 20 19  1  0
 21 22  1  0
 20 21  1  1
 22 23  2  0
 22 27  1  0
 23 24  1  0
 24 25  2  0
 26 25  1  0
 27 26  2  0
 28 29  1  0
 28 20  1  0
 30 28  2  0
M  END
$$$$
