MHF.pdb
     RDKit          3D

 30 31  0  0  1  0  0  0  0  0999 V2000
    4.8452  -19.2382   23.9941 C   0  0  0  0  0  0  0  0  0  0  0  0
    5.3368  -19.0943   22.2749 S   0  0  0  0  0  0  0  0  0  0  0  0
    6.9976  -19.7985   22.0141 C   0  0  0  0  0  0  0  0  0  0  0  0
    7.4417  -19.6621   20.6011 C   0  0  0  0  0  0  0  0  0  0  0  0
    7.1223  -18.3363   20.0050 C   0  0  2  0  0  0  0  0  0  0  0  0
    7.3080  -18.4044   18.5503 N   0  0  0  0  0  0  0  0  0  0  0  0
    7.9232  -17.2339   20.5781 C   0  0  0  0  0  0  0  0  0  0  0  0
    9.1657  -17.2334   20.4219 O   0  0  0  0  0  0  0  0  0  0  0  0
    7.3652  -16.1553   21.3076 N   0  0  0  0  0  0  0  0  0  0  0  0
    8.1778  -15.1384   21.9637 C   0  0  1  0  0  0  0  0  0  0  0  0
    7.8148  -13.7534   21.4219 C   0  0  0  0  0  0  0  0  0  0  0  0
    8.0983  -13.6226   19.9780 C   0  0  0  0  0  0  0  0  0  0  0  0
    7.3075  -13.1848   18.9369 C   0  0  0  0  0  0  0  0  0  0  0  0
    8.0055  -13.2495   17.7769 N   0  0  0  0  0  0  0  0  0  0  0  0
    9.2193  -13.7223   18.0870 C   0  0  0  0  0  0  0  0  0  0  0  0
    9.2731  -13.9456   19.4079 N   0  0  0  0  0  0  0  0  0  0  0  0
    8.0999  -15.2372   23.4211 C   0  0  0  0  0  0  0  0  0  0  0  0
    7.0016  -15.4790   23.9866 O   0  0  0  0  0  0  0  0  0  0  0  0
    9.2187  -15.0747   24.2994 N   0  0  0  0  0  0  0  0  0  0  0  0
    9.1050  -15.3299   25.7402 C   0  0  1  0  0  0  0  0  0  0  0  0
    7.6286  -15.4326   26.0485 C   0  0  0  0  0  0  0  0  0  0  0  0
    7.0962  -14.1144   26.4204 C   0  0  0  0  0  0  0  0  0  0  0  0
    7.9168  -13.1274   26.8898 C   0  0  0  0  0  0  0  0  0  0  0  0
    7.4017  -11.8918   27.2222 C   0  0  0  0  0  0  0  0  0  0  0  0
    6.0548  -11.6551   27.0792 C   0  0  0  0  0  0  0  0  0  0  0  0
    5.1965  -12.6286   26.6080 C   0  0  0  0  0  0  0  0  0  0  0  0
    5.7518  -13.8674   26.2812 C   0  0  0  0  0  0  0  0  0  0  0  0
    9.8813  -16.4980   26.1455 C   0  0  0  0  0  0  0  0  0  0  0  0
   10.3344  -17.3978   25.1672 O   0  0  0  0  0  0  0  0  0  0  0  0
   10.1840  -16.7698   27.3289 O   0  0  0  0  0  0  0  0  0  0  0  0
  1  2  1  0
  2  3  1  0
  4  3  1  0
  5  6  1  6
  5  4  1  0
  7  5  1  0
  8  7  2  0
  9  7  1  0
 10  9  1  0
 10 11  1  1
 11 12  1  0
 12 13  2  0
 12 16  1  0
 13 14  1  0
 14 15  1  0
 16 15  2  0
 17 18  2  0
 17 10  1  0
 19 17  1  0
 20 19  1  0
 21 22  1  0
 20 21  1  6
 22 23  2  0
 22 27  1  0
 23 24  1  0
 24 25  2  0
 26 25  1  0
 27 26  2  0
 28 29  1  0
 28 20  1  0
 30 28  2  0
M  END
$$$$
