MHF.pdb
     RDKit          3D

 30 31  0  0  1  0  0  0  0  0999 V2000
    8.7437  -11.7788   18.6320 C   0  0  0  0  0  0  0  0  0  0  0  0
    7.6004  -12.5990   19.7446 S   0  0  0  0  0  0  0  0  0  0  0  0
    7.8157  -14.4077   19.6781 C   0  0  0  0  0  0  0  0  0  0  0  0
    9.1007  -14.7894   19.0334 C   0  0  0  0  0  0  0  0  0  0  0  0
    9.2807  -16.2604   18.8963 C   0  0  2  0  0  0  0  0  0  0  0  0
    8.1422  -16.8185   18.1561 N   0  0  0  0  0  0  0  0  0  0  0  0
    9.4421  -16.9491   20.1943 C   0  0  0  0  0  0  0  0  0  0  0  0
    8.4338  -17.1575   20.9072 O   0  0  0  0  0  0  0  0  0  0  0  0
   10.6889  -17.3984   20.6947 N   0  0  0  0  0  0  0  0  0  0  0  0
   10.8260  -18.1006   21.9647 C   0  0  1  0  0  0  0  0  0  0  0  0
   11.9420  -19.1437   21.8643 C   0  0  0  0  0  0  0  0  0  0  0  0
   11.5517  -20.3070   21.0419 C   0  0  0  0  0  0  0  0  0  0  0  0
   10.3422  -20.9553   20.9080 C   0  0  0  0  0  0  0  0  0  0  0  0
   10.4714  -21.9839   20.0350 N   0  0  0  0  0  0  0  0  0  0  0  0
   11.7465  -21.9806   19.6264 C   0  0  0  0  0  0  0  0  0  0  0  0
   12.3931  -20.9740   20.2315 N   0  0  0  0  0  0  0  0  0  0  0  0
   10.9889  -17.1729   23.0840 C   0  0  0  0  0  0  0  0  0  0  0  0
   11.6875  -16.1338   22.9552 O   0  0  0  0  0  0  0  0  0  0  0  0
   10.3935  -17.3551   24.3731 N   0  0  0  0  0  0  0  0  0  0  0  0
   10.6749  -16.4377   25.4836 C   0  0  1  0  0  0  0  0  0  0  0  0
    9.3969  -16.3162   26.2819 C   0  0  0  0  0  0  0  0  0  0  0  0
    9.6214  -15.4862   27.4736 C   0  0  0  0  0  0  0  0  0  0  0  0
    9.2917  -14.1599   27.4835 C   0  0  0  0  0  0  0  0  0  0  0  0
    9.4977  -13.3987   28.6152 C   0  0  0  0  0  0  0  0  0  0  0  0
   10.0378  -13.9806   29.7378 C   0  0  0  0  0  0  0  0  0  0  0  0
   10.3825  -15.3174   29.7635 C   0  0  0  0  0  0  0  0  0  0  0  0
   10.1604  -16.0579   28.6007 C   0  0  0  0  0  0  0  0  0  0  0  0
   11.8276  -16.8735   26.2663 C   0  0  0  0  0  0  0  0  0  0  0  0
   11.9101  -18.2111   26.6858 O   0  0  0  0  0  0  0  0  0  0  0  0
   12.7755  -16.1293   26.6032 O   0  0  0  0  0  0  0  0  0  0  0  0
  1  2  1  0
  2  3  1  0
  4  3  1  0
  5  6  1  1
  5  4  1  0
  7  5  1  0
  8  7  2  0
  9  7  1  0
 10  9  1  0
 10 11  1  6
 11 12  1  0
 12 13  2  0
 12 16  1  0
 13 14  1  0
 14 15  1  0
 16 15  2  0
 17 18  2  0
 17 10  1  0
 19 17  1  0
 20 19  1  0
 21 22  1  0
 20 21  1  1
 22 23  2  0
 22 27  1  0
 23 24  1  0
 24 25  2  0
 26 25  1  0
 27 26  2  0
 28 29  1  0
 28 20  1  0
 30 28  2  0
M  END
$$$$
