MHF.pdb
     RDKit          3D

 30 31  0  0  1  0  0  0  0  0999 V2000
    8.6440  -12.1287   19.7261 C   0  0  0  0  0  0  0  0  0  0  0  0
    8.3628  -12.9241   18.1430 S   0  0  0  0  0  0  0  0  0  0  0  0
    8.2094  -14.7293   18.3424 C   0  0  0  0  0  0  0  0  0  0  0  0
    7.7380  -15.0983   19.7041 C   0  0  0  0  0  0  0  0  0  0  0  0
    7.5975  -16.5663   19.9048 C   0  0  2  0  0  0  0  0  0  0  0  0
    6.5821  -17.0844   18.9796 N   0  0  0  0  0  0  0  0  0  0  0  0
    7.2638  -16.9325   21.2976 C   0  0  0  0  0  0  0  0  0  0  0  0
    6.1511  -16.6030   21.7683 O   0  0  0  0  0  0  0  0  0  0  0  0
    8.1388  -17.6470   22.1524 N   0  0  0  0  0  0  0  0  0  0  0  0
    7.8670  -17.8550   23.5693 C   0  0  1  0  0  0  0  0  0  0  0  0
    7.6262  -19.3425   23.8396 C   0  0  0  0  0  0  0  0  0  0  0  0
    6.4073  -19.8448   23.1732 C   0  0  0  0  0  0  0  0  0  0  0  0
    5.4469  -19.1904   22.4312 C   0  0  0  0  0  0  0  0  0  0  0  0
    4.5035  -20.0752   22.0263 N   0  0  0  0  0  0  0  0  0  0  0  0
    4.8680  -21.2701   22.5086 C   0  0  0  0  0  0  0  0  0  0  0  0
    6.0102  -21.1299   23.1964 N   0  0  0  0  0  0  0  0  0  0  0  0
    8.9055  -17.2658   24.4142 C   0  0  0  0  0  0  0  0  0  0  0  0
   10.1221  -17.4143   24.1274 O   0  0  0  0  0  0  0  0  0  0  0  0
    8.6433  -16.4989   25.5944 N   0  0  0  0  0  0  0  0  0  0  0  0
    9.7336  -15.9508   26.4099 C   0  0  1  0  0  0  0  0  0  0  0  0
    9.7237  -14.4538   26.1995 C   0  0  0  0  0  0  0  0  0  0  0  0
    8.4164  -13.8983   26.5759 C   0  0  0  0  0  0  0  0  0  0  0  0
    7.3420  -13.9877   25.7359 C   0  0  0  0  0  0  0  0  0  0  0  0
    6.1190  -13.4719   26.1108 C   0  0  0  0  0  0  0  0  0  0  0  0
    5.9833  -12.8650   27.3371 C   0  0  0  0  0  0  0  0  0  0  0  0
    7.0468  -12.7570   28.2110 C   0  0  0  0  0  0  0  0  0  0  0  0
    8.2700  -13.2900   27.7992 C   0  0  0  0  0  0  0  0  0  0  0  0
    9.6205  -16.3572   27.8075 C   0  0  0  0  0  0  0  0  0  0  0  0
   10.6323  -15.9999   28.7133 O   0  0  0  0  0  0  0  0  0  0  0  0
    8.6667  -17.0176   28.2767 O   0  0  0  0  0  0  0  0  0  0  0  0
  1  2  1  0
  2  3  1  0
  4  3  1  0
  5  6  1  6
  5  4  1  0
  7  5  1  0
  8  7  2  0
  9  7  1  0
 10  9  1  0
 10 11  1  6
 11 12  1  0
 12 13  2  0
 12 16  1  0
 13 14  1  0
 14 15  1  0
 16 15  2  0
 17 18  2  0
 17 10  1  0
 19 17  1  0
 20 19  1  0
 21 22  1  0
 20 21  1  1
 22 23  2  0
 22 27  1  0
 23 24  1  0
 24 25  2  0
 26 25  1  0
 27 26  2  0
 28 29  1  0
 28 20  1  0
 30 28  2  0
M  END
$$$$
