MHF.pdb
     RDKit          3D

 30 31  0  0  1  0  0  0  0  0999 V2000
    9.4559  -12.1139   19.6258 C   0  0  0  0  0  0  0  0  0  0  0  0
    7.7704  -12.0163   19.0196 S   0  0  0  0  0  0  0  0  0  0  0  0
    7.0445  -13.6796   18.8509 C   0  0  0  0  0  0  0  0  0  0  0  0
    7.1666  -14.4675   20.1067 C   0  0  0  0  0  0  0  0  0  0  0  0
    8.5498  -14.9483   20.3723 C   0  0  2  0  0  0  0  0  0  0  0  0
    9.0638  -15.6237   19.1744 N   0  0  0  0  0  0  0  0  0  0  0  0
    8.6387  -15.8403   21.5478 C   0  0  0  0  0  0  0  0  0  0  0  0
    7.6538  -15.9443   22.3143 O   0  0  0  0  0  0  0  0  0  0  0  0
    9.7892  -16.6011   21.8705 N   0  0  0  0  0  0  0  0  0  0  0  0
    9.8488  -17.4996   23.0168 C   0  0  1  0  0  0  0  0  0  0  0  0
   11.0239  -18.4679   22.8580 C   0  0  0  0  0  0  0  0  0  0  0  0
   10.8223  -19.4187   21.7455 C   0  0  0  0  0  0  0  0  0  0  0  0
    9.6799  -19.7901   21.0687 C   0  0  0  0  0  0  0  0  0  0  0  0
    9.9906  -20.7077   20.1208 N   0  0  0  0  0  0  0  0  0  0  0  0
   11.3119  -20.9091   20.2023 C   0  0  0  0  0  0  0  0  0  0  0  0
   11.8092  -20.1351   21.1775 N   0  0  0  0  0  0  0  0  0  0  0  0
    9.8600  -16.7661   24.2823 C   0  0  0  0  0  0  0  0  0  0  0  0
   10.2383  -15.5662   24.3213 O   0  0  0  0  0  0  0  0  0  0  0  0
    9.4584  -17.3230   25.5386 N   0  0  0  0  0  0  0  0  0  0  0  0
    9.1315  -16.4684   26.6861 C   0  0  1  0  0  0  0  0  0  0  0  0
    7.6974  -16.0262   26.5045 C   0  0  0  0  0  0  0  0  0  0  0  0
    7.6133  -14.5593   26.5273 C   0  0  0  0  0  0  0  0  0  0  0  0
    8.6394  -13.7998   27.0154 C   0  0  0  0  0  0  0  0  0  0  0  0
    8.5485  -12.4235   27.0174 C   0  0  0  0  0  0  0  0  0  0  0  0
    7.4180  -11.8154   26.5249 C   0  0  0  0  0  0  0  0  0  0  0  0
    6.3622  -12.5509   26.0241 C   0  0  0  0  0  0  0  0  0  0  0  0
    6.4880  -13.9416   26.0373 C   0  0  0  0  0  0  0  0  0  0  0  0
    9.3913  -17.1433   27.9543 C   0  0  0  0  0  0  0  0  0  0  0  0
    9.6097  -18.5305   27.9650 O   0  0  0  0  0  0  0  0  0  0  0  0
    9.4361  -16.5683   29.0649 O   0  0  0  0  0  0  0  0  0  0  0  0
  1  2  1  0
  2  3  1  0
  4  3  1  0
  5  6  1  6
  5  4  1  0
  7  5  1  0
  8  7  2  0
  9  7  1  0
 10  9  1  0
 10 11  1  6
 11 12  1  0
 12 13  2  0
 12 16  1  0
 13 14  1  0
 14 15  1  0
 16 15  2  0
 17 18  2  0
 17 10  1  0
 19 17  1  0
 20 19  1  0
 21 22  1  0
 20 21  1  1
 22 23  2  0
 22 27  1  0
 23 24  1  0
 24 25  2  0
 26 25  1  0
 27 26  2  0
 28 29  1  0
 28 20  1  0
 30 28  2  0
M  END
$$$$
