MHF.pdb
     RDKit          3D

 30 31  0  0  1  0  0  0  0  0999 V2000
    7.9159  -11.2708   20.5359 C   0  0  0  0  0  0  0  0  0  0  0  0
    8.5072  -12.2409   19.1477 S   0  0  0  0  0  0  0  0  0  0  0  0
    7.3450  -13.5895   18.7570 C   0  0  0  0  0  0  0  0  0  0  0  0
    7.2555  -14.5813   19.8620 C   0  0  0  0  0  0  0  0  0  0  0  0
    8.3248  -15.6156   19.8179 C   0  0  2  0  0  0  0  0  0  0  0  0
    8.0954  -16.4974   18.6666 N   0  0  0  0  0  0  0  0  0  0  0  0
    8.4205  -16.4052   21.0639 C   0  0  0  0  0  0  0  0  0  0  0  0
    7.4388  -17.0898   21.4327 O   0  0  0  0  0  0  0  0  0  0  0  0
    9.5743  -16.4390   21.8850 N   0  0  0  0  0  0  0  0  0  0  0  0
    9.6909  -17.3045   23.0521 C   0  0  1  0  0  0  0  0  0  0  0  0
   10.8187  -18.3174   22.8377 C   0  0  0  0  0  0  0  0  0  0  0  0
   10.4679  -19.3456   21.8368 C   0  0  0  0  0  0  0  0  0  0  0  0
    9.3062  -19.5556   21.1245 C   0  0  0  0  0  0  0  0  0  0  0  0
    9.4539  -20.6375   20.3217 N   0  0  0  0  0  0  0  0  0  0  0  0
   10.6934  -21.1003   20.5281 C   0  0  0  0  0  0  0  0  0  0  0  0
   11.3002  -20.3241   21.4373 N   0  0  0  0  0  0  0  0  0  0  0  0
    9.8210  -16.5346   24.2890 C   0  0  0  0  0  0  0  0  0  0  0  0
   10.6572  -15.5974   24.3725 O   0  0  0  0  0  0  0  0  0  0  0  0
    9.0419  -16.7675   25.4673 N   0  0  0  0  0  0  0  0  0  0  0  0
    9.3877  -16.1439   26.7501 C   0  0  1  0  0  0  0  0  0  0  0  0
    8.0909  -15.6733   27.3685 C   0  0  0  0  0  0  0  0  0  0  0  0
    7.7073  -14.3696   26.8094 C   0  0  0  0  0  0  0  0  0  0  0  0
    6.5995  -14.2373   26.0199 C   0  0  0  0  0  0  0  0  0  0  0  0
    6.2472  -13.0034   25.5140 C   0  0  0  0  0  0  0  0  0  0  0  0
    7.0169  -11.9025   25.8076 C   0  0  0  0  0  0  0  0  0  0  0  0
    8.1423  -11.9990   26.6017 C   0  0  0  0  0  0  0  0  0  0  0  0
    8.4695  -13.2631   27.0968 C   0  0  0  0  0  0  0  0  0  0  0  0
   10.1602  -17.0459   27.5991 C   0  0  0  0  0  0  0  0  0  0  0  0
   10.3750  -18.3697   27.1826 O   0  0  0  0  0  0  0  0  0  0  0  0
   10.6607  -16.7250   28.7002 O   0  0  0  0  0  0  0  0  0  0  0  0
  1  2  1  0
  2  3  1  0
  4  3  1  0
  5  6  1  6
  5  4  1  0
  7  5  1  0
  8  7  2  0
  9  7  1  0
 10  9  1  0
 10 11  1  6
 11 12  1  0
 12 13  2  0
 12 16  1  0
 13 14  1  0
 14 15  1  0
 16 15  2  0
 17 18  2  0
 17 10  1  0
 19 17  1  0
 20 19  1  0
 21 22  1  0
 20 21  1  1
 22 23  2  0
 22 27  1  0
 23 24  1  0
 24 25  2  0
 26 25  1  0
 27 26  2  0
 28 29  1  0
 28 20  1  0
 30 28  2  0
M  END
$$$$
