MHF.pdb
     RDKit          3D

 30 31  0  0  1  0  0  0  0  0999 V2000
    9.3447  -11.5680   20.0565 C   0  0  0  0  0  0  0  0  0  0  0  0
    7.7143  -12.1271   19.5591 S   0  0  0  0  0  0  0  0  0  0  0  0
    7.7121  -13.9225   19.2454 C   0  0  0  0  0  0  0  0  0  0  0  0
    9.0900  -14.4578   19.0798 C   0  0  0  0  0  0  0  0  0  0  0  0
    9.1360  -15.9370   18.9217 C   0  0  2  0  0  0  0  0  0  0  0  0
    8.3152  -16.3241   17.7676 N   0  0  0  0  0  0  0  0  0  0  0  0
    8.7017  -16.6642   20.1332 C   0  0  0  0  0  0  0  0  0  0  0  0
    7.5713  -17.2028   20.1526 O   0  0  0  0  0  0  0  0  0  0  0  0
    9.4974  -16.7943   21.2979 N   0  0  0  0  0  0  0  0  0  0  0  0
    9.1510  -17.6854   22.3983 C   0  0  1  0  0  0  0  0  0  0  0  0
    9.8220  -19.0466   22.1960 C   0  0  0  0  0  0  0  0  0  0  0  0
    9.5432  -19.9811   23.3056 C   0  0  0  0  0  0  0  0  0  0  0  0
    8.7912  -19.8268   24.4509 C   0  0  0  0  0  0  0  0  0  0  0  0
    8.8347  -20.9678   25.1810 N   0  0  0  0  0  0  0  0  0  0  0  0
    9.6046  -21.8273   24.5016 C   0  0  0  0  0  0  0  0  0  0  0  0
   10.0288  -21.2335   23.3768 N   0  0  0  0  0  0  0  0  0  0  0  0
    9.4346  -17.0790   23.6989 C   0  0  0  0  0  0  0  0  0  0  0  0
   10.6015  -16.7061   23.9884 O   0  0  0  0  0  0  0  0  0  0  0  0
    8.4520  -16.8635   24.7175 N   0  0  0  0  0  0  0  0  0  0  0  0
    8.8245  -16.3742   26.0501 C   0  0  1  0  0  0  0  0  0  0  0  0
    7.5582  -15.8559   26.6928 C   0  0  0  0  0  0  0  0  0  0  0  0
    7.3579  -14.4415   26.3481 C   0  0  0  0  0  0  0  0  0  0  0  0
    6.1056  -13.9353   26.1392 C   0  0  0  0  0  0  0  0  0  0  0  0
    5.9353  -12.6022   25.8288 C   0  0  0  0  0  0  0  0  0  0  0  0
    7.0335  -11.7808   25.7298 C   0  0  0  0  0  0  0  0  0  0  0  0
    8.3130  -12.2578   25.9343 C   0  0  0  0  0  0  0  0  0  0  0  0
    8.4486  -13.6121   26.2468 C   0  0  0  0  0  0  0  0  0  0  0  0
    9.5123  -17.3991   26.8298 C   0  0  0  0  0  0  0  0  0  0  0  0
   10.3370  -17.0142   27.8992 O   0  0  0  0  0  0  0  0  0  0  0  0
    9.4235  -18.6288   26.6153 O   0  0  0  0  0  0  0  0  0  0  0  0
  1  2  1  0
  2  3  1  0
  4  3  1  0
  5  6  1  6
  5  4  1  0
  7  5  1  0
  8  7  2  0
  9  7  1  0
 10  9  1  0
 10 11  1  6
 11 12  1  0
 12 13  2  0
 12 16  1  0
 13 14  1  0
 14 15  1  0
 16 15  2  0
 17 18  2  0
 17 10  1  0
 19 17  1  0
 20 19  1  0
 21 22  1  0
 20 21  1  1
 22 23  2  0
 22 27  1  0
 23 24  1  0
 24 25  2  0
 26 25  1  0
 27 26  2  0
 28 29  1  0
 28 20  1  0
 30 28  2  0
M  END
$$$$
