MHF.pdb
     RDKit          3D

 30 31  0  0  1  0  0  0  0  0999 V2000
    8.2139  -12.6022   21.2263 C   0  0  0  0  0  0  0  0  0  0  0  0
    7.8484  -13.3957   22.7931 S   0  0  0  0  0  0  0  0  0  0  0  0
    6.7251  -14.8114   22.5566 C   0  0  0  0  0  0  0  0  0  0  0  0
    6.9857  -15.5172   21.2734 C   0  0  0  0  0  0  0  0  0  0  0  0
    6.9043  -16.9990   21.3851 C   0  0  2  0  0  0  0  0  0  0  0  0
    5.6587  -17.3630   22.0717 N   0  0  0  0  0  0  0  0  0  0  0  0
    8.0685  -17.5941   22.0747 C   0  0  0  0  0  0  0  0  0  0  0  0
    7.9173  -18.0933   23.2132 O   0  0  0  0  0  0  0  0  0  0  0  0
    9.3713  -17.6376   21.5201 N   0  0  0  0  0  0  0  0  0  0  0  0
   10.5207  -18.1733   22.2390 C   0  0  1  0  0  0  0  0  0  0  0  0
   11.6753  -18.4191   21.2642 C   0  0  0  0  0  0  0  0  0  0  0  0
   11.4399  -19.5926   20.3984 C   0  0  0  0  0  0  0  0  0  0  0  0
   10.5165  -20.6125   20.4885 C   0  0  0  0  0  0  0  0  0  0  0  0
   10.6900  -21.4758   19.4581 N   0  0  0  0  0  0  0  0  0  0  0  0
   11.7099  -21.0028   18.7308 C   0  0  0  0  0  0  0  0  0  0  0  0
   12.1586  -19.8731   19.2964 N   0  0  0  0  0  0  0  0  0  0  0  0
   10.8856  -17.3362   23.3816 C   0  0  0  0  0  0  0  0  0  0  0  0
   11.0593  -16.0980   23.2360 O   0  0  0  0  0  0  0  0  0  0  0  0
   11.0705  -17.8285   24.7132 N   0  0  0  0  0  0  0  0  0  0  0  0
   11.2292  -16.9165   25.8521 C   0  0  1  0  0  0  0  0  0  0  0  0
    9.8383  -16.4984   26.2716 C   0  0  0  0  0  0  0  0  0  0  0  0
    9.9096  -15.5769   27.4140 C   0  0  0  0  0  0  0  0  0  0  0  0
   10.2081  -16.0286   28.6689 C   0  0  0  0  0  0  0  0  0  0  0  0
   10.2832  -15.1475   29.7275 C   0  0  0  0  0  0  0  0  0  0  0  0
   10.0560  -13.8081   29.5156 C   0  0  0  0  0  0  0  0  0  0  0  0
    9.7522  -13.3167   28.2616 C   0  0  0  0  0  0  0  0  0  0  0  0
    9.6844  -14.2365   27.2131 C   0  0  0  0  0  0  0  0  0  0  0  0
   12.0185  -17.5196   26.9220 C   0  0  0  0  0  0  0  0  0  0  0  0
   11.7702  -18.8503   27.2956 O   0  0  0  0  0  0  0  0  0  0  0  0
   12.9247  -16.9289   27.5510 O   0  0  0  0  0  0  0  0  0  0  0  0
  1  2  1  0
  2  3  1  0
  4  3  1  0
  5  6  1  1
  5  4  1  0
  7  5  1  0
  8  7  2  0
  9  7  1  0
 10  9  1  0
 10 11  1  6
 11 12  1  0
 12 13  2  0
 12 16  1  0
 13 14  1  0
 14 15  1  0
 16 15  2  0
 17 18  2  0
 17 10  1  0
 19 17  1  0
 20 19  1  0
 21 22  1  0
 20 21  1  1
 22 23  2  0
 22 27  1  0
 23 24  1  0
 24 25  2  0
 26 25  1  0
 27 26  2  0
 28 29  1  0
 28 20  1  0
 30 28  2  0
M  END
$$$$
