MHF.pdb
     RDKit          3D

 30 31  0  0  1  0  0  0  0  0999 V2000
    9.2432  -11.6307   19.9330 C   0  0  0  0  0  0  0  0  0  0  0  0
    8.1786  -12.2996   18.6535 S   0  0  0  0  0  0  0  0  0  0  0  0
    8.2789  -14.1190   18.6119 C   0  0  0  0  0  0  0  0  0  0  0  0
    8.3715  -14.7002   19.9780 C   0  0  0  0  0  0  0  0  0  0  0  0
    8.4949  -16.1834   19.9837 C   0  0  2  0  0  0  0  0  0  0  0  0
    7.3500  -16.7651   19.2722 N   0  0  0  0  0  0  0  0  0  0  0  0
    8.6023  -16.7518   21.3441 C   0  0  0  0  0  0  0  0  0  0  0  0
    7.5593  -16.9628   22.0043 O   0  0  0  0  0  0  0  0  0  0  0  0
    9.8337  -17.0805   21.9624 N   0  0  0  0  0  0  0  0  0  0  0  0
    9.9184  -17.6943   23.2818 C   0  0  1  0  0  0  0  0  0  0  0  0
   10.6211  -19.0507   23.1801 C   0  0  0  0  0  0  0  0  0  0  0  0
    9.8402  -20.0310   22.3982 C   0  0  0  0  0  0  0  0  0  0  0  0
    8.7972  -20.8551   22.7640 C   0  0  0  0  0  0  0  0  0  0  0  0
    8.4029  -21.5913   21.6965 N   0  0  0  0  0  0  0  0  0  0  0  0
    9.1893  -21.2330   20.6736 C   0  0  0  0  0  0  0  0  0  0  0  0
   10.0509  -20.2969   21.0964 N   0  0  0  0  0  0  0  0  0  0  0  0
   10.5222  -16.7929   24.2630 C   0  0  0  0  0  0  0  0  0  0  0  0
   11.7053  -16.3891   24.1155 O   0  0  0  0  0  0  0  0  0  0  0  0
    9.8505  -16.3086   25.4308 N   0  0  0  0  0  0  0  0  0  0  0  0
   10.5597  -15.5363   26.4578 C   0  0  1  0  0  0  0  0  0  0  0  0
   10.2477  -14.0798   26.1996 C   0  0  0  0  0  0  0  0  0  0  0  0
    8.8328  -13.8066   26.4869 C   0  0  0  0  0  0  0  0  0  0  0  0
    8.4582  -13.1297   27.6136 C   0  0  0  0  0  0  0  0  0  0  0  0
    7.1261  -12.8709   27.8610 C   0  0  0  0  0  0  0  0  0  0  0  0
    6.1725  -13.2978   26.9673 C   0  0  0  0  0  0  0  0  0  0  0  0
    6.5145  -13.9841   25.8190 C   0  0  0  0  0  0  0  0  0  0  0  0
    7.8718  -14.2286   25.6002 C   0  0  0  0  0  0  0  0  0  0  0  0
   10.2220  -15.9888   27.8041 C   0  0  0  0  0  0  0  0  0  0  0  0
   10.9007  -15.4426   28.9054 O   0  0  0  0  0  0  0  0  0  0  0  0
    9.3511  -16.8493   28.0630 O   0  0  0  0  0  0  0  0  0  0  0  0
  1  2  1  0
  2  3  1  0
  4  3  1  0
  5  6  1  1
  5  4  1  0
  7  5  1  0
  8  7  2  0
  9  7  1  0
 10  9  1  0
 10 11  1  6
 11 12  1  0
 12 13  2  0
 12 16  1  0
 13 14  1  0
 14 15  1  0
 16 15  2  0
 17 18  2  0
 17 10  1  0
 19 17  1  0
 20 19  1  0
 21 22  1  0
 20 21  1  1
 22 23  2  0
 22 27  1  0
 23 24  1  0
 24 25  2  0
 26 25  1  0
 27 26  2  0
 28 29  1  0
 28 20  1  0
 30 28  2  0
M  END
$$$$
