MHF.pdb
     RDKit          3D

 30 31  0  0  1  0  0  0  0  0999 V2000
    2.9548  -17.4582   18.5422 C   0  0  0  0  0  0  0  0  0  0  0  0
    2.4279  -18.5288   19.8817 S   0  0  0  0  0  0  0  0  0  0  0  0
    3.4579  -18.2693   21.3628 C   0  0  0  0  0  0  0  0  0  0  0  0
    4.8685  -18.6833   21.1362 C   0  0  0  0  0  0  0  0  0  0  0  0
    5.7459  -18.4701   22.3193 C   0  0  2  0  0  0  0  0  0  0  0  0
    4.9503  -17.8984   23.4128 N   0  0  0  0  0  0  0  0  0  0  0  0
    6.9157  -17.6145   22.0280 C   0  0  0  0  0  0  0  0  0  0  0  0
    7.8237  -18.0502   21.2838 O   0  0  0  0  0  0  0  0  0  0  0  0
    7.0799  -16.3065   22.5465 N   0  0  0  0  0  0  0  0  0  0  0  0
    8.3527  -15.5966   22.5164 C   0  0  1  0  0  0  0  0  0  0  0  0
    8.1710  -14.2315   21.8478 C   0  0  0  0  0  0  0  0  0  0  0  0
    8.1708  -14.3233   20.3734 C   0  0  0  0  0  0  0  0  0  0  0  0
    8.3511  -15.4023   19.5342 C   0  0  0  0  0  0  0  0  0  0  0  0
    8.2721  -14.9938   18.2443 N   0  0  0  0  0  0  0  0  0  0  0  0
    8.0450  -13.6745   18.2744 C   0  0  0  0  0  0  0  0  0  0  0  0
    7.9845  -13.2740   19.5525 N   0  0  0  0  0  0  0  0  0  0  0  0
    8.9658  -15.5234   23.8425 C   0  0  0  0  0  0  0  0  0  0  0  0
   10.0660  -14.9339   24.0053 O   0  0  0  0  0  0  0  0  0  0  0  0
    8.3942  -16.0919   25.0256 N   0  0  0  0  0  0  0  0  0  0  0  0
    9.0453  -15.9538   26.3337 C   0  0  1  0  0  0  0  0  0  0  0  0
    7.9627  -15.5826   27.3214 C   0  0  0  0  0  0  0  0  0  0  0  0
    7.3835  -14.2783   26.9711 C   0  0  0  0  0  0  0  0  0  0  0  0
    6.1583  -14.1868   26.3723 C   0  0  0  0  0  0  0  0  0  0  0  0
    5.6243  -12.9535   26.0619 C   0  0  0  0  0  0  0  0  0  0  0  0
    6.3310  -11.8119   26.3580 C   0  0  0  0  0  0  0  0  0  0  0  0
    7.5711  -11.8666   26.9627 C   0  0  0  0  0  0  0  0  0  0  0  0
    8.0813  -13.1313   27.2628 C   0  0  0  0  0  0  0  0  0  0  0  0
    9.7950  -17.1536   26.6938 C   0  0  0  0  0  0  0  0  0  0  0  0
   10.5347  -17.1720   27.8874 O   0  0  0  0  0  0  0  0  0  0  0  0
    9.8326  -18.1972   26.0043 O   0  0  0  0  0  0  0  0  0  0  0  0
  1  2  1  0
  2  3  1  0
  4  3  1  0
  5  6  1  1
  5  4  1  0
  7  5  1  0
  8  7  2  0
  9  7  1  0
 10  9  1  0
 10 11  1  1
 11 12  1  0
 12 13  2  0
 12 16  1  0
 13 14  1  0
 14 15  1  0
 16 15  2  0
 17 18  2  0
 17 10  1  0
 19 17  1  0
 20 19  1  0
 21 22  1  0
 20 21  1  1
 22 23  2  0
 22 27  1  0
 23 24  1  0
 24 25  2  0
 26 25  1  0
 27 26  2  0
 28 29  1  0
 28 20  1  0
 30 28  2  0
M  END
$$$$
