MHF.pdb
     RDKit          3D

 30 31  0  0  1  0  0  0  0  0999 V2000
    8.5652  -11.1967   20.4534 C   0  0  0  0  0  0  0  0  0  0  0  0
    7.6612  -11.9603   19.1053 S   0  0  0  0  0  0  0  0  0  0  0  0
    8.1433  -13.7069   18.9084 C   0  0  0  0  0  0  0  0  0  0  0  0
    8.3465  -14.3770   20.2207 C   0  0  0  0  0  0  0  0  0  0  0  0
    8.7992  -15.7897   20.1009 C   0  0  2  0  0  0  0  0  0  0  0  0
    7.9604  -16.4828   19.1152 N   0  0  0  0  0  0  0  0  0  0  0  0
    8.7894  -16.5138   21.3896 C   0  0  0  0  0  0  0  0  0  0  0  0
    7.7238  -17.0339   21.7924 O   0  0  0  0  0  0  0  0  0  0  0  0
    9.9307  -16.6611   22.2158 N   0  0  0  0  0  0  0  0  0  0  0  0
    9.9514  -17.5223   23.3917 C   0  0  1  0  0  0  0  0  0  0  0  0
   10.9920  -18.6298   23.2069 C   0  0  0  0  0  0  0  0  0  0  0  0
   10.5941  -19.6084   22.1744 C   0  0  0  0  0  0  0  0  0  0  0  0
   11.0526  -19.8039   20.8888 C   0  0  0  0  0  0  0  0  0  0  0  0
   10.3744  -20.8272   20.3145 N   0  0  0  0  0  0  0  0  0  0  0  0
    9.5012  -21.2680   21.2290 C   0  0  0  0  0  0  0  0  0  0  0  0
    9.6344  -20.5356   22.3440 N   0  0  0  0  0  0  0  0  0  0  0  0
   10.1243  -16.7545   24.6247 C   0  0  0  0  0  0  0  0  0  0  0  0
   11.0779  -15.9412   24.7417 O   0  0  0  0  0  0  0  0  0  0  0  0
    9.2609  -16.8543   25.7624 N   0  0  0  0  0  0  0  0  0  0  0  0
    9.6022  -16.2200   27.0411 C   0  0  1  0  0  0  0  0  0  0  0  0
    8.2955  -15.8528   27.7069 C   0  0  0  0  0  0  0  0  0  0  0  0
    7.7133  -14.6685   27.0604 C   0  0  0  0  0  0  0  0  0  0  0  0
    8.1778  -13.4129   27.3355 C   0  0  0  0  0  0  0  0  0  0  0  0
    7.6279  -12.3135   26.7098 C   0  0  0  0  0  0  0  0  0  0  0  0
    6.6070  -12.4852   25.8050 C   0  0  0  0  0  0  0  0  0  0  0  0
    6.1130  -13.7387   25.5029 C   0  0  0  0  0  0  0  0  0  0  0  0
    6.6928  -14.8291   26.1545 C   0  0  0  0  0  0  0  0  0  0  0  0
   10.4665  -17.0713   27.8533 C   0  0  0  0  0  0  0  0  0  0  0  0
   10.7836  -18.3626   27.4016 O   0  0  0  0  0  0  0  0  0  0  0  0
   10.9617  -16.7329   28.9516 O   0  0  0  0  0  0  0  0  0  0  0  0
  1  2  1  0
  2  3  1  0
  4  3  1  0
  5  6  1  6
  5  4  1  0
  7  5  1  0
  8  7  2  0
  9  7  1  0
 10  9  1  0
 10 11  1  6
 11 12  1  0
 12 13  2  0
 12 16  1  0
 13 14  1  0
 14 15  1  0
 16 15  2  0
 17 18  2  0
 17 10  1  0
 19 17  1  0
 20 19  1  0
 21 22  1  0
 20 21  1  1
 22 23  2  0
 22 27  1  0
 23 24  1  0
 24 25  2  0
 26 25  1  0
 27 26  2  0
 28 29  1  0
 28 20  1  0
 30 28  2  0
M  END
$$$$
