TTI.pdb
     RDKit          3D

 23 22  0  0  1  0  0  0  0  0999 V2000
   15.4854  -11.5902  -16.4307 C   0  0  0  0  0  0  0  0  0  0  0  0
   16.8034  -10.9383  -16.1503 C   0  0  1  0  0  0  0  0  0  0  0  0
   17.3342  -11.3017  -14.9160 O   0  0  0  0  0  0  0  0  0  0  0  0
   17.7963  -11.2638  -17.2748 C   0  0  2  0  0  0  0  0  0  0  0  0
   18.0393  -12.6685  -17.2374 N   0  0  0  0  0  0  0  0  0  0  0  0
   18.9968  -10.4370  -17.0215 C   0  0  0  0  0  0  0  0  0  0  0  0
   19.9734  -11.0016  -16.4674 O   0  0  0  0  0  0  0  0  0  0  0  0
   21.0475   -8.6437  -19.5642 C   0  0  0  0  0  0  0  0  0  0  0  0
   20.6332   -7.6786  -18.4743 C   0  0  1  0  0  0  0  0  0  0  0  0
   19.4310   -7.0600  -18.8825 O   0  0  0  0  0  0  0  0  0  0  0  0
   20.3958   -8.4002  -17.1426 C   0  0  2  0  0  0  0  0  0  0  0  0
   19.1065   -9.0815  -17.3585 N   0  0  0  0  0  0  0  0  0  0  0  0
   20.1688   -7.3965  -16.0861 C   0  0  0  0  0  0  0  0  0  0  0  0
   18.9890   -6.9213  -15.9657 O   0  0  0  0  0  0  0  0  0  0  0  0
   21.7219   -7.6701  -11.0149 C   0  0  0  0  0  0  0  0  0  0  0  0
   21.9179   -7.0893  -12.4033 C   0  0  0  0  0  0  0  0  0  0  0  0
   20.6216   -6.4966  -12.8373 C   0  0  2  0  0  0  0  0  0  0  0  0
   19.5696   -7.5873  -12.8297 C   0  0  0  0  0  0  0  0  0  0  0  0
   20.7605   -5.8822  -14.2206 C   0  0  2  0  0  0  0  0  0  0  0  0
   21.1390   -6.9086  -15.1846 N   0  0  0  0  0  0  0  0  0  0  0  0
   21.7861   -4.8284  -14.2604 C   0  0  0  0  0  0  0  0  0  0  0  0
   21.5762   -3.6342  -13.6131 O   0  0  0  0  0  0  0  0  0  0  0  0
   22.8554   -5.0023  -14.8793 O   0  0  0  0  0  0  0  0  0  0  0  0
  2  1  1  6
  2  3  1  0
  2  4  1  0
  4  5  1  1
  6 12  1  0
  6  4  1  0
  7  6  2  0
  9  8  1  6
  9 11  1  0
 10  9  1  0
 11 13  1  0
 11 12  1  6
 13 14  2  0
 16 15  1  0
 17 18  1  6
 17 16  1  0
 19 17  1  0
 20 13  1  0
 19 20  1  6
 21 22  1  0
 21 19  1  0
 23 21  2  0
M  END
$$$$
