TTI.pdb
     RDKit          3D

 23 22  0  0  1  0  0  0  0  0999 V2000
   17.1549  -12.1544  -17.0877 C   0  0  0  0  0  0  0  0  0  0  0  0
   17.9150  -13.2391  -17.7851 C   0  0  1  0  0  0  0  0  0  0  0  0
   17.1796  -14.4131  -17.9204 O   0  0  0  0  0  0  0  0  0  0  0  0
   18.3882  -12.7445  -19.1590 C   0  0  2  0  0  0  0  0  0  0  0  0
   19.0150  -13.8437  -19.8166 N   0  0  0  0  0  0  0  0  0  0  0  0
   19.2911  -11.6013  -18.9009 C   0  0  0  0  0  0  0  0  0  0  0  0
   20.4644  -11.8698  -18.5390 O   0  0  0  0  0  0  0  0  0  0  0  0
   20.0840   -6.7142  -19.0646 C   0  0  0  0  0  0  0  0  0  0  0  0
   19.2887   -7.9594  -19.3934 C   0  0  1  0  0  0  0  0  0  0  0  0
   19.2514   -8.0864  -20.7995 O   0  0  0  0  0  0  0  0  0  0  0  0
   19.9348   -9.2150  -18.7962 C   0  0  2  0  0  0  0  0  0  0  0  0
   18.9198  -10.2570  -19.0345 N   0  0  0  0  0  0  0  0  0  0  0  0
   20.0360   -9.0537  -17.3337 C   0  0  0  0  0  0  0  0  0  0  0  0
   18.9556   -9.1215  -16.6553 O   0  0  0  0  0  0  0  0  0  0  0  0
   23.5167  -11.5657  -14.3795 C   0  0  0  0  0  0  0  0  0  0  0  0
   22.2526  -10.9018  -14.8940 C   0  0  0  0  0  0  0  0  0  0  0  0
   22.3046   -9.4629  -14.5111 C   0  0  2  0  0  0  0  0  0  0  0  0
   22.2423   -9.3666  -13.0000 C   0  0  0  0  0  0  0  0  0  0  0  0
   21.1544   -8.7052  -15.1540 C   0  0  2  0  0  0  0  0  0  0  0  0
   21.2243   -8.8331  -16.6048 N   0  0  0  0  0  0  0  0  0  0  0  0
   21.1818   -7.2712  -14.8274 C   0  0  0  0  0  0  0  0  0  0  0  0
   21.9516   -6.4075  -15.5696 O   0  0  0  0  0  0  0  0  0  0  0  0
   20.5107   -6.8205  -13.8770 O   0  0  0  0  0  0  0  0  0  0  0  0
  2  1  1  6
  2  3  1  0
  2  4  1  0
  4  5  1  1
  6 12  1  0
  6  4  1  0
  7  6  2  0
  9  8  1  6
  9 11  1  0
 10  9  1  0
 11 13  1  0
 11 12  1  1
 13 14  2  0
 16 15  1  0
 17 18  1  1
 17 16  1  0
 19 17  1  0
 20 13  1  0
 19 20  1  6
 21 22  1  0
 21 19  1  0
 23 21  2  0
M  END
$$$$
