TTI.pdb
     RDKit          3D

 23 22  0  0  1  0  0  0  0  0999 V2000
   20.7373  -13.6136  -18.4883 C   0  0  0  0  0  0  0  0  0  0  0  0
   21.1414  -14.9870  -18.0513 C   0  0  1  0  0  0  0  0  0  0  0  0
   20.7894  -15.9717  -18.9697 O   0  0  0  0  0  0  0  0  0  0  0  0
   22.6519  -15.0252  -17.7806 C   0  0  2  0  0  0  0  0  0  0  0  0
   22.9938  -16.3704  -17.4534 N   0  0  0  0  0  0  0  0  0  0  0  0
   22.9036  -14.0567  -16.6910 C   0  0  0  0  0  0  0  0  0  0  0  0
   22.6311  -14.4281  -15.5216 O   0  0  0  0  0  0  0  0  0  0  0  0
   26.0125  -12.3586  -15.4508 C   0  0  0  0  0  0  0  0  0  0  0  0
   24.9794  -11.3312  -15.8608 C   0  0  1  0  0  0  0  0  0  0  0  0
   25.2126  -11.0042  -17.2148 O   0  0  0  0  0  0  0  0  0  0  0  0
   23.5538  -11.8771  -15.7179 C   0  0  2  0  0  0  0  0  0  0  0  0
   23.4204  -12.7688  -16.8841 N   0  0  0  0  0  0  0  0  0  0  0  0
   22.5949  -10.7750  -15.9199 C   0  0  0  0  0  0  0  0  0  0  0  0
   22.2937  -10.4663  -17.1225 O   0  0  0  0  0  0  0  0  0  0  0  0
   17.7690  -10.7804  -15.6105 C   0  0  0  0  0  0  0  0  0  0  0  0
   19.1750  -10.3528  -15.9896 C   0  0  0  0  0  0  0  0  0  0  0  0
   19.6295   -9.3433  -14.9925 C   0  0  2  0  0  0  0  0  0  0  0  0
   18.7037   -8.1459  -15.0669 C   0  0  0  0  0  0  0  0  0  0  0  0
   21.0680   -8.9389  -15.2710 C   0  0  2  0  0  0  0  0  0  0  0  0
   21.9696  -10.0237  -14.9017 N   0  0  0  0  0  0  0  0  0  0  0  0
   21.4670   -7.7446  -14.5106 C   0  0  0  0  0  0  0  0  0  0  0  0
   21.3088   -6.4928  -15.0558 O   0  0  0  0  0  0  0  0  0  0  0  0
   21.9524   -7.8500  -13.3660 O   0  0  0  0  0  0  0  0  0  0  0  0
  2  1  1  6
  2  3  1  0
  2  4  1  0
  4  5  1  1
  6 12  1  0
  6  4  1  0
  7  6  2  0
  9  8  1  6
  9 11  1  0
 10  9  1  0
 11 13  1  0
 11 12  1  6
 13 14  2  0
 16 15  1  0
 17 18  1  6
 17 16  1  0
 19 17  1  0
 20 13  1  0
 19 20  1  1
 21 22  1  0
 21 19  1  0
 23 21  2  0
M  END
$$$$
