TTI.pdb
     RDKit          3D

 23 22  0  0  1  0  0  0  0  0999 V2000
   19.7707  -13.9999  -20.5708 C   0  0  0  0  0  0  0  0  0  0  0  0
   19.9323  -13.2302  -19.2972 C   0  0  1  0  0  0  0  0  0  0  0  0
   18.7244  -13.0115  -18.6411 O   0  0  0  0  0  0  0  0  0  0  0  0
   20.9190  -13.9546  -18.3712 C   0  0  2  0  0  0  0  0  0  0  0  0
   20.3289  -15.2012  -18.0088 N   0  0  0  0  0  0  0  0  0  0  0  0
   21.1601  -13.0464  -17.2285 C   0  0  0  0  0  0  0  0  0  0  0  0
   20.3790  -13.1409  -16.2484 O   0  0  0  0  0  0  0  0  0  0  0  0
   24.2946  -12.5379  -15.0970 C   0  0  0  0  0  0  0  0  0  0  0  0
   23.8259  -11.2385  -15.7157 C   0  0  1  0  0  0  0  0  0  0  0  0
   24.5042  -11.0782  -16.9440 O   0  0  0  0  0  0  0  0  0  0  0  0
   22.3154  -11.2515  -15.9780 C   0  0  2  0  0  0  0  0  0  0  0  0
   22.1930  -12.1013  -17.1762 N   0  0  0  0  0  0  0  0  0  0  0  0
   21.8855   -9.8983  -16.3769 C   0  0  0  0  0  0  0  0  0  0  0  0
   22.0365   -9.5670  -17.6014 O   0  0  0  0  0  0  0  0  0  0  0  0
   17.6321   -6.4349  -17.5132 C   0  0  0  0  0  0  0  0  0  0  0  0
   19.0304   -6.3097  -16.9368 C   0  0  0  0  0  0  0  0  0  0  0  0
   19.4807   -7.6710  -16.5318 C   0  0  2  0  0  0  0  0  0  0  0  0
   18.5794   -8.1620  -15.4169 C   0  0  0  0  0  0  0  0  0  0  0  0
   20.9325   -7.6336  -16.0832 C   0  0  2  0  0  0  0  0  0  0  0  0
   21.3145   -8.9264  -15.5275 N   0  0  0  0  0  0  0  0  0  0  0  0
   21.1692   -6.6130  -15.0507 C   0  0  0  0  0  0  0  0  0  0  0  0
   21.3542   -6.9847  -13.7404 O   0  0  0  0  0  0  0  0  0  0  0  0
   21.2049   -5.4017  -15.3476 O   0  0  0  0  0  0  0  0  0  0  0  0
  2  1  1  6
  2  3  1  0
  2  4  1  0
  4  5  1  1
  6 12  1  0
  6  4  1  0
  7  6  2  0
  9  8  1  6
  9 11  1  0
 10  9  1  0
 11 13  1  0
 11 12  1  6
 13 14  2  0
 16 15  1  0
 17 18  1  1
 17 16  1  0
 19 17  1  0
 20 13  1  0
 19 20  1  1
 21 22  1  0
 21 19  1  0
 23 21  2  0
M  END
$$$$
