TTI.pdb
     RDKit          3D

 23 22  0  0  1  0  0  0  0  0999 V2000
   18.4841  -16.5976  -18.6278 C   0  0  0  0  0  0  0  0  0  0  0  0
   18.6875  -15.1249  -18.8021 C   0  0  1  0  0  0  0  0  0  0  0  0
   17.8342  -14.5702  -19.7515 O   0  0  0  0  0  0  0  0  0  0  0  0
   18.5206  -14.4117  -17.4531 C   0  0  2  0  0  0  0  0  0  0  0  0
   17.1601  -14.5647  -17.0540 N   0  0  0  0  0  0  0  0  0  0  0  0
   18.9309  -13.0073  -17.6718 C   0  0  0  0  0  0  0  0  0  0  0  0
   20.1226  -12.8070  -18.0175 O   0  0  0  0  0  0  0  0  0  0  0  0
   17.6599   -8.2420  -18.0836 C   0  0  0  0  0  0  0  0  0  0  0  0
   17.3426   -9.7192  -17.9927 C   0  0  1  0  0  0  0  0  0  0  0  0
   16.7221  -10.1006  -19.2027 O   0  0  0  0  0  0  0  0  0  0  0  0
   18.6114  -10.5572  -17.7969 C   0  0  2  0  0  0  0  0  0  0  0  0
   18.0810  -11.9041  -17.5183 N   0  0  0  0  0  0  0  0  0  0  0  0
   19.2959  -10.1128  -16.5685 C   0  0  0  0  0  0  0  0  0  0  0  0
   18.7145  -10.3379  -15.4533 O   0  0  0  0  0  0  0  0  0  0  0  0
   23.7562  -11.7622  -14.9327 C   0  0  0  0  0  0  0  0  0  0  0  0
   22.3596  -11.1943  -15.1070 C   0  0  0  0  0  0  0  0  0  0  0  0
   22.4550   -9.7105  -15.0106 C   0  0  2  0  0  0  0  0  0  0  0  0
   23.0290   -9.3544  -13.6541 C   0  0  0  0  0  0  0  0  0  0  0  0
   21.0853   -9.0811  -15.2058 C   0  0  2  0  0  0  0  0  0  0  0  0
   20.5454   -9.4594  -16.5064 N   0  0  0  0  0  0  0  0  0  0  0  0
   21.1355   -7.6120  -15.1502 C   0  0  0  0  0  0  0  0  0  0  0  0
   20.9239   -6.9573  -13.9604 O   0  0  0  0  0  0  0  0  0  0  0  0
   21.3693   -6.9426  -16.1769 O   0  0  0  0  0  0  0  0  0  0  0  0
  2  1  1  1
  2  3  1  0
  2  4  1  0
  4  5  1  6
  6 12  1  0
  6  4  1  0
  7  6  2  0
  9  8  1  6
  9 11  1  0
 10  9  1  0
 11 13  1  0
 11 12  1  1
 13 14  2  0
 16 15  1  0
 17 18  1  1
 17 16  1  0
 19 17  1  0
 20 13  1  0
 19 20  1  6
 21 22  1  0
 21 19  1  0
 23 21  2  0
M  END
$$$$
