TTI.pdb
     RDKit          3D

 23 22  0  0  1  0  0  0  0  0999 V2000
   17.5462   -9.3299  -17.2206 C   0  0  0  0  0  0  0  0  0  0  0  0
   17.9787  -10.7606  -17.3026 C   0  0  1  0  0  0  0  0  0  0  0  0
   16.9535  -11.6128  -17.7023 O   0  0  0  0  0  0  0  0  0  0  0  0
   19.1795  -10.8893  -18.2499 C   0  0  2  0  0  0  0  0  0  0  0  0
   19.5165  -12.2728  -18.3275 N   0  0  0  0  0  0  0  0  0  0  0  0
   20.2491  -10.0387  -17.6832 C   0  0  0  0  0  0  0  0  0  0  0  0
   20.8797  -10.4947  -16.6963 O   0  0  0  0  0  0  0  0  0  0  0  0
   22.8727   -8.1288  -19.9031 C   0  0  0  0  0  0  0  0  0  0  0  0
   22.2843   -7.2615  -18.8110 C   0  0  1  0  0  0  0  0  0  0  0  0
   21.1924   -6.5567  -19.3638 O   0  0  0  0  0  0  0  0  0  0  0  0
   21.7882   -8.1026  -17.6290 C   0  0  2  0  0  0  0  0  0  0  0  0
   20.5947   -8.7733  -18.1755 N   0  0  0  0  0  0  0  0  0  0  0  0
   21.3124   -7.2004  -16.5638 C   0  0  0  0  0  0  0  0  0  0  0  0
   20.1368   -6.7143  -16.6820 O   0  0  0  0  0  0  0  0  0  0  0  0
   20.2477   -8.4565  -11.8674 C   0  0  0  0  0  0  0  0  0  0  0  0
   20.3105   -7.7643  -13.2166 C   0  0  0  0  0  0  0  0  0  0  0  0
   21.2741   -6.6334  -13.1050 C   0  0  2  0  0  0  0  0  0  0  0  0
   20.7731   -5.6806  -12.0383 C   0  0  0  0  0  0  0  0  0  0  0  0
   21.4153   -5.9279  -14.4440 C   0  0  2  0  0  0  0  0  0  0  0  0
   22.0374   -6.8219  -15.4135 N   0  0  0  0  0  0  0  0  0  0  0  0
   22.2469   -4.7182  -14.3500 C   0  0  0  0  0  0  0  0  0  0  0  0
   21.6656   -3.4964  -14.1084 O   0  0  0  0  0  0  0  0  0  0  0  0
   23.4853   -4.7834  -14.4879 O   0  0  0  0  0  0  0  0  0  0  0  0
  2  1  1  6
  2  3  1  0
  2  4  1  0
  4  5  1  1
  6 12  1  0
  6  4  1  0
  7  6  2  0
  9  8  1  6
  9 11  1  0
 10  9  1  0
 11 13  1  0
 11 12  1  6
 13 14  2  0
 16 15  1  0
 17 18  1  1
 17 16  1  0
 19 17  1  0
 20 13  1  0
 19 20  1  6
 21 22  1  0
 21 19  1  0
 23 21  2  0
M  END
$$$$
