TTI.pdb
     RDKit          3D

 23 22  0  0  1  0  0  0  0  0999 V2000
   14.8484  -11.9175  -14.3058 C   0  0  0  0  0  0  0  0  0  0  0  0
   16.0017  -11.1276  -14.8411 C   0  0  1  0  0  0  0  0  0  0  0  0
   17.1287  -11.9093  -15.0775 O   0  0  0  0  0  0  0  0  0  0  0  0
   15.5821  -10.3948  -16.1230 C   0  0  2  0  0  0  0  0  0  0  0  0
   15.3350  -11.3842  -17.1197 N   0  0  0  0  0  0  0  0  0  0  0  0
   16.6876   -9.4687  -16.4532 C   0  0  0  0  0  0  0  0  0  0  0  0
   17.4091   -9.7677  -17.4380 O   0  0  0  0  0  0  0  0  0  0  0  0
   16.2818   -6.0745  -17.6207 C   0  0  0  0  0  0  0  0  0  0  0  0
   17.2048   -6.0527  -16.4213 C   0  0  1  0  0  0  0  0  0  0  0  0
   16.4085   -5.8672  -15.2697 O   0  0  0  0  0  0  0  0  0  0  0  0
   17.9819   -7.3672  -16.2839 C   0  0  2  0  0  0  0  0  0  0  0  0
   16.9727   -8.2954  -15.7426 N   0  0  0  0  0  0  0  0  0  0  0  0
   19.0110   -7.2098  -15.2393 C   0  0  0  0  0  0  0  0  0  0  0  0
   18.6526   -7.3831  -14.0253 O   0  0  0  0  0  0  0  0  0  0  0  0
   22.9849  -10.1660  -14.6381 C   0  0  0  0  0  0  0  0  0  0  0  0
   21.8251   -9.1966  -14.5024 C   0  0  0  0  0  0  0  0  0  0  0  0
   22.3866   -7.8174  -14.4524 C   0  0  2  0  0  0  0  0  0  0  0  0
   23.3490   -7.7339  -13.2848 C   0  0  0  0  0  0  0  0  0  0  0  0
   21.2677   -6.7982  -14.3111 C   0  0  2  0  0  0  0  0  0  0  0  0
   20.3678   -6.8864  -15.4551 N   0  0  0  0  0  0  0  0  0  0  0  0
   21.7765   -5.4196  -14.2449 C   0  0  0  0  0  0  0  0  0  0  0  0
   22.3608   -4.9527  -13.0917 O   0  0  0  0  0  0  0  0  0  0  0  0
   21.6852   -4.6582  -15.2291 O   0  0  0  0  0  0  0  0  0  0  0  0
  2  1  1  6
  2  3  1  0
  2  4  1  0
  4  5  1  6
  6 12  1  0
  6  4  1  0
  7  6  2  0
  9  8  1  6
  9 11  1  0
 10  9  1  0
 11 13  1  0
 11 12  1  1
 13 14  2  0
 16 15  1  0
 17 18  1  1
 17 16  1  0
 19 17  1  0
 20 13  1  0
 19 20  1  6
 21 22  1  0
 21 19  1  0
 23 21  2  0
M  END
$$$$
