TTI.pdb
     RDKit          3D

 23 22  0  0  1  0  0  0  0  0999 V2000
   18.0685  -14.2180  -15.7943 C   0  0  0  0  0  0  0  0  0  0  0  0
   17.9995  -14.7779  -17.1808 C   0  0  1  0  0  0  0  0  0  0  0  0
   17.4783  -16.0679  -17.2173 O   0  0  0  0  0  0  0  0  0  0  0  0
   17.1773  -13.8445  -18.0802 C   0  0  2  0  0  0  0  0  0  0  0  0
   17.0138  -14.4970  -19.3376 N   0  0  0  0  0  0  0  0  0  0  0  0
   17.9272  -12.5714  -18.1542 C   0  0  0  0  0  0  0  0  0  0  0  0
   18.9918  -12.5729  -18.8223 O   0  0  0  0  0  0  0  0  0  0  0  0
   16.5135   -9.1989  -19.2042 C   0  0  0  0  0  0  0  0  0  0  0  0
   17.2642   -9.0705  -17.8962 C   0  0  1  0  0  0  0  0  0  0  0  0
   16.3259   -9.1963  -16.8482 O   0  0  0  0  0  0  0  0  0  0  0  0
   18.3281  -10.1644  -17.7471 C   0  0  2  0  0  0  0  0  0  0  0  0
   17.5257  -11.3820  -17.5320 N   0  0  0  0  0  0  0  0  0  0  0  0
   19.0833   -9.9334  -16.5015 C   0  0  0  0  0  0  0  0  0  0  0  0
   18.6266  -10.4543  -15.4281 O   0  0  0  0  0  0  0  0  0  0  0  0
   24.1060  -10.9455  -13.9464 C   0  0  0  0  0  0  0  0  0  0  0  0
   22.9246   -9.9976  -13.8505 C   0  0  0  0  0  0  0  0  0  0  0  0
   22.2237  -10.0075  -15.1653 C   0  0  2  0  0  0  0  0  0  0  0  0
   23.1783   -9.4873  -16.2211 C   0  0  0  0  0  0  0  0  0  0  0  0
   20.9671   -9.1550  -15.0984 C   0  0  2  0  0  0  0  0  0  0  0  0
   20.2755   -9.1876  -16.3817 N   0  0  0  0  0  0  0  0  0  0  0  0
   21.2650   -7.7492  -14.7841 C   0  0  0  0  0  0  0  0  0  0  0  0
   21.4595   -7.3580  -13.4809 O   0  0  0  0  0  0  0  0  0  0  0  0
   21.3448   -6.8960  -15.6911 O   0  0  0  0  0  0  0  0  0  0  0  0
  2  1  1  1
  2  3  1  0
  2  4  1  0
  4  5  1  6
  6 12  1  0
  6  4  1  0
  7  6  2  0
  9  8  1  6
  9 11  1  0
 10  9  1  0
 11 13  1  0
 11 12  1  1
 13 14  2  0
 16 15  1  0
 17 18  1  6
 17 16  1  0
 19 17  1  0
 20 13  1  0
 19 20  1  6
 21 22  1  0
 21 19  1  0
 23 21  2  0
M  END
$$$$
