TTI.pdb
     RDKit          3D

 23 22  0  0  1  0  0  0  0  0999 V2000
   26.6233  -17.8329  -15.0183 C   0  0  0  0  0  0  0  0  0  0  0  0
   27.3061  -18.7433  -15.9907 C   0  0  1  0  0  0  0  0  0  0  0  0
   28.0831  -18.0570  -16.9194 O   0  0  0  0  0  0  0  0  0  0  0  0
   28.1611  -19.7689  -15.2335 C   0  0  2  0  0  0  0  0  0  0  0  0
   28.9680  -20.4459  -16.1948 N   0  0  0  0  0  0  0  0  0  0  0  0
   27.2144  -20.6487  -14.5135 C   0  0  0  0  0  0  0  0  0  0  0  0
   27.4587  -21.8816  -14.5241 O   0  0  0  0  0  0  0  0  0  0  0  0
   26.6193  -20.1339  -11.0763 C   0  0  0  0  0  0  0  0  0  0  0  0
   26.2909  -21.4081  -11.8244 C   0  0  1  0  0  0  0  0  0  0  0  0
   25.6766  -22.2950  -10.9130 O   0  0  0  0  0  0  0  0  0  0  0  0
   25.3298  -21.1458  -12.9898 C   0  0  2  0  0  0  0  0  0  0  0  0
   26.0784  -20.1943  -13.8308 N   0  0  0  0  0  0  0  0  0  0  0  0
   24.1489  -20.4210  -12.4848 C   0  0  0  0  0  0  0  0  0  0  0  0
   24.3119  -19.2082  -12.1176 O   0  0  0  0  0  0  0  0  0  0  0  0
   21.3130  -18.9546  -16.5355 C   0  0  0  0  0  0  0  0  0  0  0  0
   20.9052  -19.2573  -15.1053 C   0  0  0  0  0  0  0  0  0  0  0  0
   21.9985  -20.0512  -14.4773 C   0  0  2  0  0  0  0  0  0  0  0  0
   22.0798  -21.3925  -15.1777 C   0  0  0  0  0  0  0  0  0  0  0  0
   21.7344  -20.2269  -12.9908 C   0  0  2  0  0  0  0  0  0  0  0  0
   22.8426  -20.9432  -12.3704 N   0  0  0  0  0  0  0  0  0  0  0  0
   20.5043  -20.9906  -12.7312 C   0  0  0  0  0  0  0  0  0  0  0  0
   19.2937  -20.3450  -12.6491 O   0  0  0  0  0  0  0  0  0  0  0  0
   20.5419  -22.2289  -12.5821 O   0  0  0  0  0  0  0  0  0  0  0  0
  2  1  1  1
  2  3  1  0
  2  4  1  0
  4  5  1  6
  6 12  1  0
  6  4  1  0
  7  6  2  0
  9  8  1  1
  9 11  1  0
 10  9  1  0
 11 13  1  0
 11 12  1  6
 13 14  2  0
 16 15  1  0
 17 18  1  6
 17 16  1  0
 19 17  1  0
 20 13  1  0
 19 20  1  6
 21 22  1  0
 21 19  1  0
 23 21  2  0
M  END
$$$$
