TTI.pdb
     RDKit          3D

 23 22  0  0  1  0  0  0  0  0999 V2000
   23.8442  -13.3221  -14.7846 C   0  0  0  0  0  0  0  0  0  0  0  0
   23.8213  -14.2802  -15.9344 C   0  0  1  0  0  0  0  0  0  0  0  0
   24.3752  -15.5172  -15.6180 O   0  0  0  0  0  0  0  0  0  0  0  0
   22.3826  -14.4535  -16.4408 C   0  0  2  0  0  0  0  0  0  0  0  0
   22.4060  -15.4472  -17.4634 N   0  0  0  0  0  0  0  0  0  0  0  0
   21.9420  -13.1199  -16.9055 C   0  0  0  0  0  0  0  0  0  0  0  0
   22.4914  -12.6646  -17.9402 O   0  0  0  0  0  0  0  0  0  0  0  0
   18.5009   -9.6474  -17.0270 C   0  0  0  0  0  0  0  0  0  0  0  0
   19.0702  -10.9974  -16.6469 C   0  0  1  0  0  0  0  0  0  0  0  0
   18.4556  -11.9691  -17.4671 O   0  0  0  0  0  0  0  0  0  0  0  0
   20.5873  -11.0503  -16.8621 C   0  0  2  0  0  0  0  0  0  0  0  0
   20.9626  -12.3464  -16.2687 N   0  0  0  0  0  0  0  0  0  0  0  0
   21.2262  -10.0092  -16.0356 C   0  0  0  0  0  0  0  0  0  0  0  0
   21.2486  -10.1892  -14.7710 O   0  0  0  0  0  0  0  0  0  0  0  0
   25.9719   -8.2224  -16.8446 C   0  0  0  0  0  0  0  0  0  0  0  0
   24.6737   -8.6766  -16.2029 C   0  0  0  0  0  0  0  0  0  0  0  0
   23.8026   -7.4790  -16.0382 C   0  0  2  0  0  0  0  0  0  0  0  0
   24.4610   -6.5402  -15.0475 C   0  0  0  0  0  0  0  0  0  0  0  0
   22.4208   -7.8948  -15.5605 C   0  0  2  0  0  0  0  0  0  0  0  0
   21.8241   -8.8233  -16.5134 N   0  0  0  0  0  0  0  0  0  0  0  0
   21.5117   -6.7468  -15.4221 C   0  0  0  0  0  0  0  0  0  0  0  0
   21.3202   -6.1602  -14.1939 O   0  0  0  0  0  0  0  0  0  0  0  0
   20.9040   -6.2915  -16.4123 O   0  0  0  0  0  0  0  0  0  0  0  0
  2  1  1  1
  2  3  1  0
  2  4  1  0
  4  5  1  6
  6 12  1  0
  6  4  1  0
  7  6  2  0
  9  8  1  6
  9 11  1  0
 10  9  1  0
 11 13  1  0
 11 12  1  1
 13 14  2  0
 16 15  1  0
 17 18  1  1
 17 16  1  0
 19 17  1  0
 20 13  1  0
 19 20  1  6
 21 22  1  0
 21 19  1  0
 23 21  2  0
M  END
$$$$
