TTI.pdb
     RDKit          3D

 23 22  0  0  1  0  0  0  0  0999 V2000
   16.8490  -13.1816  -15.0005 C   0  0  0  0  0  0  0  0  0  0  0  0
   16.2265  -13.7239  -16.2491 C   0  0  1  0  0  0  0  0  0  0  0  0
   15.3004  -14.7319  -15.9974 O   0  0  0  0  0  0  0  0  0  0  0  0
   15.5727  -12.5848  -17.0436 C   0  0  2  0  0  0  0  0  0  0  0  0
   14.9153  -13.1689  -18.1662 N   0  0  0  0  0  0  0  0  0  0  0  0
   16.6614  -11.6493  -17.4015 C   0  0  0  0  0  0  0  0  0  0  0  0
   17.5361  -12.0689  -18.2006 O   0  0  0  0  0  0  0  0  0  0  0  0
   16.3674   -8.2368  -18.9695 C   0  0  0  0  0  0  0  0  0  0  0  0
   17.1830   -8.1619  -17.6966 C   0  0  1  0  0  0  0  0  0  0  0  0
   16.3005   -7.8516  -16.6386 O   0  0  0  0  0  0  0  0  0  0  0  0
   17.8771   -9.4947  -17.3926 C   0  0  2  0  0  0  0  0  0  0  0  0
   16.7724  -10.3425  -16.9089 N   0  0  0  0  0  0  0  0  0  0  0  0
   18.7946   -9.3095  -16.2529 C   0  0  0  0  0  0  0  0  0  0  0  0
   18.3142   -9.4528  -15.0778 O   0  0  0  0  0  0  0  0  0  0  0  0
   23.3764  -11.1172  -13.5779 C   0  0  0  0  0  0  0  0  0  0  0  0
   23.0605   -9.7145  -14.0638 C   0  0  0  0  0  0  0  0  0  0  0  0
   22.1879   -9.8335  -15.2656 C   0  0  2  0  0  0  0  0  0  0  0  0
   22.9971   -9.4427  -16.4858 C   0  0  0  0  0  0  0  0  0  0  0  0
   20.9626   -8.9465  -15.1164 C   0  0  2  0  0  0  0  0  0  0  0  0
   20.1666   -8.9892  -16.3374 N   0  0  0  0  0  0  0  0  0  0  0  0
   21.3203   -7.5425  -14.8621 C   0  0  0  0  0  0  0  0  0  0  0  0
   21.2061   -6.6074  -15.8630 O   0  0  0  0  0  0  0  0  0  0  0  0
   21.7307   -7.1821  -13.7403 O   0  0  0  0  0  0  0  0  0  0  0  0
  2  1  1  1
  2  3  1  0
  2  4  1  0
  4  5  1  6
  6 12  1  0
  6  4  1  0
  7  6  2  0
  9  8  1  6
  9 11  1  0
 10  9  1  0
 11 13  1  0
 11 12  1  1
 13 14  2  0
 16 15  1  0
 17 18  1  6
 17 16  1  0
 19 17  1  0
 20 13  1  0
 19 20  1  6
 21 22  1  0
 21 19  1  0
 23 21  2  0
M  END
$$$$
