RNQ.pdb
     RDKit          3D

 29 28  0  0  1  0  0  0  0  0999 V2000
    8.6644  -12.6130   18.0489 N   0  0  0  0  0  0  0  0  0  0  0  0
    8.1925  -12.5950   19.3722 C   0  0  0  0  0  0  0  0  0  0  0  0
    8.5849  -11.6491   20.1869 N   0  0  0  0  0  0  0  0  0  0  0  0
    7.2911  -13.5957   19.8445 N   0  0  0  0  0  0  0  0  0  0  0  0
    7.9206  -14.8644   20.2448 C   0  0  0  0  0  0  0  0  0  0  0  0
    7.0691  -15.9458   19.6940 C   0  0  0  0  0  0  0  0  0  0  0  0
    6.2692  -16.7474   20.6696 C   0  0  0  0  0  0  0  0  0  0  0  0
    7.0654  -17.7119   21.4429 C   0  0  2  0  0  0  0  0  0  0  0  0
    7.1150  -19.0527   21.0019 N   0  0  0  0  0  0  0  0  0  0  0  0
    6.9290  -17.5950   22.9302 C   0  0  0  0  0  0  0  0  0  0  0  0
    6.0654  -16.8132   23.3583 O   0  0  0  0  0  0  0  0  0  0  0  0
    8.2333  -11.6881   21.1757 N   0  0  0  0  0  0  0  0  0  0  0  0
    6.8366  -19.8018   28.3968 C   0  0  0  0  0  0  0  0  0  0  0  0
    7.8156  -19.3361   27.4787 O   0  0  0  0  0  0  0  0  0  0  0  0
    8.8088  -18.7689   27.9872 C   0  0  0  0  0  0  0  0  0  0  0  0
    7.7026  -19.4958   26.0258 C   0  0  1  0  0  0  0  0  0  0  0  0
    7.6615  -18.2169   25.2695 N   0  0  0  0  0  0  0  0  0  0  0  0
    7.7170  -18.3066   23.8426 C   0  0  0  0  0  0  0  0  0  0  0  0
    8.5760  -17.2241   25.8548 O   0  0  0  0  0  0  0  0  0  0  0  0
    9.8108  -17.3880   25.7407 N   0  0  0  0  0  0  0  0  0  0  0  0
    7.0694  -11.2162   24.5523 C   0  0  0  0  0  0  0  0  0  0  0  0
    7.4331  -11.9713   25.7180 O   0  0  0  0  0  0  0  0  0  0  0  0
    7.2578  -11.3939   26.8201 C   0  0  0  0  0  0  0  0  0  0  0  0
    7.9749  -13.3319   25.6254 C   0  0  0  0  0  0  0  0  0  0  0  0
    8.5290  -13.6959   26.9840 C   0  0  2  0  0  0  0  0  0  0  0  0
    9.1015  -15.0782   27.0657 N   0  0  0  0  0  0  0  0  0  0  0  0
    8.1557  -16.0721   26.5538 C   0  0  0  0  0  0  0  0  0  0  0  0
    9.4562  -15.3260   28.4885 O   0  0  0  0  0  0  0  0  0  0  0  0
    8.8378  -16.2371   29.0896 O   0  0  0  0  0  0  0  0  0  0  0  0
  2  3  2  0
  2  1  1  0
  4  2  1  0
  5  4  1  0
  6  5  1  0
  7  6  1  0
  8  7  1  0
  8 10  1  0
  8  9  1  6
 10 17  1  0
 10 11  2  0
 13 12  1  0
 14 13  2  0
 15 13  1  0
 16 15  1  6
 17 16  1  0
 18 16  1  0
 18 19  2  0
 20 21  1  0
 21 22  2  0
 23 21  1  0
 23 24  1  0
 25 24  1  6
 25 26  1  0
 26 18  1  0
 27 25  1  0
 28 27  2  0
 29 27  1  0
M  END
$$$$
