RNQ.pdb
     RDKit          3D

 29 28  0  0  1  0  0  0  0  0999 V2000
    9.9281  -14.4517   13.1470 N   0  0  0  0  0  0  0  0  0  0  0  0
    8.6547  -14.7002   12.6078 C   0  0  0  0  0  0  0  0  0  0  0  0
    8.5474  -15.3033   11.4515 N   0  0  0  0  0  0  0  0  0  0  0  0
    7.4726  -14.3027   13.3018 N   0  0  0  0  0  0  0  0  0  0  0  0
    7.6993  -13.6852   14.6184 C   0  0  0  0  0  0  0  0  0  0  0  0
    8.0966  -14.7829   15.5323 C   0  0  0  0  0  0  0  0  0  0  0  0
    8.3708  -14.4190   16.9559 C   0  0  0  0  0  0  0  0  0  0  0  0
    8.7197  -15.5659   17.8074 C   0  0  2  0  0  0  0  0  0  0  0  0
    7.8416  -16.6716   17.8426 N   0  0  0  0  0  0  0  0  0  0  0  0
    9.2569  -15.2085   19.1595 C   0  0  0  0  0  0  0  0  0  0  0  0
   10.2573  -14.4746   19.1936 O   0  0  0  0  0  0  0  0  0  0  0  0
    7.5797  -15.4408   11.0674 N   0  0  0  0  0  0  0  0  0  0  0  0
    7.0357  -12.8405   21.6910 C   0  0  0  0  0  0  0  0  0  0  0  0
    6.9305  -14.1988   22.0936 O   0  0  0  0  0  0  0  0  0  0  0  0
    5.8061  -14.7253   21.9350 C   0  0  0  0  0  0  0  0  0  0  0  0
    8.0464  -14.9636   22.6584 C   0  0  2  0  0  0  0  0  0  0  0  0
    9.1167  -15.2981   21.6829 N   0  0  0  0  0  0  0  0  0  0  0  0
    8.6998  -15.6581   20.3625 C   0  0  0  0  0  0  0  0  0  0  0  0
   10.1125  -16.2038   22.2768 O   0  0  0  0  0  0  0  0  0  0  0  0
    9.9012  -17.4366   22.2660 N   0  0  0  0  0  0  0  0  0  0  0  0
   16.0626  -14.7747   22.2342 C   0  0  0  0  0  0  0  0  0  0  0  0
   16.1524  -16.0718   22.8432 O   0  0  0  0  0  0  0  0  0  0  0  0
   17.3148  -16.4840   23.0830 C   0  0  0  0  0  0  0  0  0  0  0  0
   14.9598  -16.8642   23.1645 C   0  0  0  0  0  0  0  0  0  0  0  0
   13.7492  -16.0214   22.8336 C   0  0  1  0  0  0  0  0  0  0  0  0
   12.4378  -16.6890   23.1163 N   0  0  0  0  0  0  0  0  0  0  0  0
   11.3182  -15.7769   22.8738 C   0  0  0  0  0  0  0  0  0  0  0  0
   12.4778  -17.1615   24.5259 O   0  0  0  0  0  0  0  0  0  0  0  0
   11.7497  -16.5673   25.3570 O   0  0  0  0  0  0  0  0  0  0  0  0
  2  3  2  0
  2  1  1  0
  4  2  1  0
  5  4  1  0
  6  5  1  0
  7  6  1  0
  8  7  1  0
  8 10  1  0
  8  9  1  1
 10 17  1  0
 10 11  2  0
 13 12  1  0
 14 13  2  0
 15 13  1  0
 16 15  1  6
 17 16  1  0
 18 16  1  0
 18 19  2  0
 20 21  1  0
 21 22  2  0
 23 21  1  0
 23 24  1  0
 25 24  1  6
 25 26  1  0
 26 18  1  0
 27 25  1  0
 28 27  2  0
 29 27  1  0
M  END
$$$$
