RNQ.pdb
     RDKit          3D

 29 28  0  0  1  0  0  0  0  0999 V2000
    8.1762  -14.9831   21.9444 N   0  0  0  0  0  0  0  0  0  0  0  0
    7.6865  -13.6799   22.1342 C   0  0  0  0  0  0  0  0  0  0  0  0
    7.3936  -13.2676   23.3411 N   0  0  0  0  0  0  0  0  0  0  0  0
    7.5008  -12.7964   21.0288 N   0  0  0  0  0  0  0  0  0  0  0  0
    7.8274  -13.3667   19.7119 C   0  0  0  0  0  0  0  0  0  0  0  0
    8.8741  -12.4951   19.1266 C   0  0  0  0  0  0  0  0  0  0  0  0
   10.2920  -12.9490   19.2600 C   0  0  0  0  0  0  0  0  0  0  0  0
   10.6835  -13.9756   18.2827 C   0  0  2  0  0  0  0  0  0  0  0  0
    9.6784  -14.8016   17.7331 N   0  0  0  0  0  0  0  0  0  0  0  0
   11.9317  -14.7301   18.6248 C   0  0  0  0  0  0  0  0  0  0  0  0
   11.8108  -15.9414   18.8667 O   0  0  0  0  0  0  0  0  0  0  0  0
    7.1579  -12.2511   23.4592 N   0  0  0  0  0  0  0  0  0  0  0  0
   16.1416  -13.2562   16.2776 C   0  0  0  0  0  0  0  0  0  0  0  0
   15.7858  -14.3494   17.1123 O   0  0  0  0  0  0  0  0  0  0  0  0
   15.5609  -15.4304   16.5227 C   0  0  0  0  0  0  0  0  0  0  0  0
   15.6829  -14.2527   18.5714 C   0  0  2  0  0  0  0  0  0  0  0  0
   14.4088  -14.7733   19.1324 N   0  0  0  0  0  0  0  0  0  0  0  0
   13.2020  -14.1452   18.6893 C   0  0  0  0  0  0  0  0  0  0  0  0
   14.5041  -14.9528   20.5895 O   0  0  0  0  0  0  0  0  0  0  0  0
   15.1327  -14.1120   21.2695 N   0  0  0  0  0  0  0  0  0  0  0  0
   10.9894  -18.2357   24.3699 C   0  0  0  0  0  0  0  0  0  0  0  0
   12.1340  -18.1005   25.2261 O   0  0  0  0  0  0  0  0  0  0  0  0
   11.9594  -18.4245   26.4275 C   0  0  0  0  0  0  0  0  0  0  0  0
   13.4255  -17.6146   24.7268 C   0  0  0  0  0  0  0  0  0  0  0  0
   13.2714  -17.3478   23.2468 C   0  0  1  0  0  0  0  0  0  0  0  0
   14.0522  -16.1699   22.7486 N   0  0  0  0  0  0  0  0  0  0  0  0
   13.9264  -16.0293   21.2965 C   0  0  0  0  0  0  0  0  0  0  0  0
   15.4648  -16.3662   23.1702 O   0  0  0  0  0  0  0  0  0  0  0  0
   16.1767  -17.1289   22.4735 O   0  0  0  0  0  0  0  0  0  0  0  0
  2  3  2  0
  2  1  1  0
  4  2  1  0
  5  4  1  0
  6  5  1  0
  7  6  1  0
  8  7  1  0
  8 10  1  0
  8  9  1  1
 10 17  1  0
 10 11  2  0
 13 12  1  0
 14 13  2  0
 15 13  1  0
 16 15  1  6
 17 16  1  0
 18 16  1  0
 18 19  2  0
 20 21  1  0
 21 22  2  0
 23 21  1  0
 23 24  1  0
 25 24  1  1
 25 26  1  0
 26 18  1  0
 27 25  1  0
 28 27  2  0
 29 27  1  0
M  END
$$$$
