RNQ.pdb
     RDKit          3D

 29 28  0  0  1  0  0  0  0  0999 V2000
    7.8164  -16.8702   17.0090 N   0  0  0  0  0  0  0  0  0  0  0  0
    7.5274  -16.0514   15.9043 C   0  0  0  0  0  0  0  0  0  0  0  0
    6.7509  -16.5000   14.9513 N   0  0  0  0  0  0  0  0  0  0  0  0
    8.0700  -14.7352   15.8033 N   0  0  0  0  0  0  0  0  0  0  0  0
    8.8607  -14.2950   16.9640 C   0  0  0  0  0  0  0  0  0  0  0  0
    8.1676  -13.1062   17.5156 C   0  0  0  0  0  0  0  0  0  0  0  0
    7.3652  -13.3020   18.7614 C   0  0  0  0  0  0  0  0  0  0  0  0
    8.1794  -13.4649   19.9751 C   0  0  2  0  0  0  0  0  0  0  0  0
    9.4384  -12.8276   20.0332 N   0  0  0  0  0  0  0  0  0  0  0  0
    8.2057  -14.8536   20.5364 C   0  0  0  0  0  0  0  0  0  0  0  0
    7.4778  -15.6974   19.9899 O   0  0  0  0  0  0  0  0  0  0  0  0
    6.5575  -15.8565   14.1442 N   0  0  0  0  0  0  0  0  0  0  0  0
   10.5020  -18.4661   19.4417 C   0  0  0  0  0  0  0  0  0  0  0  0
   10.5941  -17.0507   19.3618 O   0  0  0  0  0  0  0  0  0  0  0  0
   10.3182  -16.5518   18.2475 C   0  0  0  0  0  0  0  0  0  0  0  0
   10.9808  -16.2004   20.4917 C   0  0  2  0  0  0  0  0  0  0  0  0
   10.0273  -16.2239   21.6316 N   0  0  0  0  0  0  0  0  0  0  0  0
    8.9916  -15.2367   21.6297 C   0  0  0  0  0  0  0  0  0  0  0  0
   10.7355  -16.3631   22.9137 O   0  0  0  0  0  0  0  0  0  0  0  0
   11.9571  -16.1004   22.9692 N   0  0  0  0  0  0  0  0  0  0  0  0
    7.7666  -15.4732   28.1274 C   0  0  0  0  0  0  0  0  0  0  0  0
    8.8456  -14.5437   27.9456 O   0  0  0  0  0  0  0  0  0  0  0  0
    8.7578  -13.4707   28.5934 C   0  0  0  0  0  0  0  0  0  0  0  0
    9.9786  -14.8313   27.0585 C   0  0  0  0  0  0  0  0  0  0  0  0
    9.7533  -16.2012   26.4601 C   0  0  2  0  0  0  0  0  0  0  0  0
   10.7605  -16.5934   25.4224 N   0  0  0  0  0  0  0  0  0  0  0  0
   10.1263  -16.7820   24.1161 C   0  0  0  0  0  0  0  0  0  0  0  0
   11.4296  -17.8319   25.9022 O   0  0  0  0  0  0  0  0  0  0  0  0
   11.2233  -18.8886   25.2582 O   0  0  0  0  0  0  0  0  0  0  0  0
  2  3  2  0
  2  1  1  0
  4  2  1  0
  5  4  1  0
  6  5  1  0
  7  6  1  0
  8  7  1  0
  8 10  1  0
  8  9  1  6
 10 17  1  0
 10 11  2  0
 13 12  1  0
 14 13  2  0
 15 13  1  0
 16 15  1  6
 17 16  1  0
 18 16  1  0
 18 19  2  0
 20 21  1  0
 21 22  2  0
 23 21  1  0
 23 24  1  0
 25 24  1  6
 25 26  1  0
 26 18  1  0
 27 25  1  0
 28 27  2  0
 29 27  1  0
M  END
$$$$
