RNQ.pdb
     RDKit          3D

 29 28  0  0  1  0  0  0  0  0999 V2000
    8.5102  -13.8554   17.1468 N   0  0  0  0  0  0  0  0  0  0  0  0
    7.6308  -13.3553   18.1219 C   0  0  0  0  0  0  0  0  0  0  0  0
    7.1645  -12.1377   18.0100 N   0  0  0  0  0  0  0  0  0  0  0  0
    7.2380  -14.1551   19.2368 N   0  0  0  0  0  0  0  0  0  0  0  0
    7.7549  -15.5332   19.2295 C   0  0  0  0  0  0  0  0  0  0  0  0
    9.2075  -15.4364   19.5098 C   0  0  0  0  0  0  0  0  0  0  0  0
    9.6322  -15.5141   20.9408 C   0  0  0  0  0  0  0  0  0  0  0  0
   10.2925  -16.7783   21.2987 C   0  0  2  0  0  0  0  0  0  0  0  0
   10.3773  -17.7949   20.3219 N   0  0  0  0  0  0  0  0  0  0  0  0
    9.9504  -17.3070   22.6580 C   0  0  0  0  0  0  0  0  0  0  0  0
    9.8055  -16.4748   23.5674 O   0  0  0  0  0  0  0  0  0  0  0  0
    6.4899  -11.8105   18.7453 N   0  0  0  0  0  0  0  0  0  0  0  0
    7.0010  -20.1714   22.6550 C   0  0  0  0  0  0  0  0  0  0  0  0
    8.0552  -21.0143   23.0982 O   0  0  0  0  0  0  0  0  0  0  0  0
    8.1673  -22.1048   22.4941 C   0  0  0  0  0  0  0  0  0  0  0  0
    8.9711  -20.6595   24.1865 C   0  0  2  0  0  0  0  0  0  0  0  0
    9.3873  -19.2327   24.1974 N   0  0  0  0  0  0  0  0  0  0  0  0
    9.7951  -18.6677   22.9478 C   0  0  0  0  0  0  0  0  0  0  0  0
   10.2971  -18.9534   25.3195 O   0  0  0  0  0  0  0  0  0  0  0  0
   11.5288  -18.8984   25.1090 N   0  0  0  0  0  0  0  0  0  0  0  0
    9.9669  -13.7677   28.1037 C   0  0  0  0  0  0  0  0  0  0  0  0
   10.2253  -14.6435   29.2117 O   0  0  0  0  0  0  0  0  0  0  0  0
    9.8544  -14.2255   30.3370 C   0  0  0  0  0  0  0  0  0  0  0  0
   10.8814  -15.9446   29.0379 C   0  0  0  0  0  0  0  0  0  0  0  0
   10.1532  -16.6791   27.9354 C   0  0  1  0  0  0  0  0  0  0  0  0
   10.7064  -18.0379   27.6307 N   0  0  0  0  0  0  0  0  0  0  0  0
    9.8753  -18.7382   26.6492 C   0  0  0  0  0  0  0  0  0  0  0  0
   10.7937  -18.7780   28.9177 O   0  0  0  0  0  0  0  0  0  0  0  0
    9.9149  -19.6428   29.1495 O   0  0  0  0  0  0  0  0  0  0  0  0
  2  3  2  0
  2  1  1  0
  4  2  1  0
  5  4  1  0
  6  5  1  0
  7  6  1  0
  8  7  1  0
  8 10  1  0
  8  9  1  6
 10 17  1  0
 10 11  2  0
 13 12  1  0
 14 13  2  0
 15 13  1  0
 16 15  1  6
 17 16  1  0
 18 16  1  0
 18 19  2  0
 20 21  1  0
 21 22  2  0
 23 21  1  0
 23 24  1  0
 25 24  1  6
 25 26  1  0
 26 18  1  0
 27 25  1  0
 28 27  2  0
 29 27  1  0
M  END
$$$$
