RNQ.pdb
     RDKit          3D

 29 28  0  0  1  0  0  0  0  0999 V2000
    8.2196  -11.9199   18.6290 N   0  0  0  0  0  0  0  0  0  0  0  0
    9.2076  -12.9159   18.7056 C   0  0  0  0  0  0  0  0  0  0  0  0
   10.4715  -12.5772   18.6871 N   0  0  0  0  0  0  0  0  0  0  0  0
    8.8544  -14.2954   18.8014 N   0  0  0  0  0  0  0  0  0  0  0  0
    7.4167  -14.5824   18.6715 C   0  0  0  0  0  0  0  0  0  0  0  0
    7.2704  -16.0521   18.7997 C   0  0  0  0  0  0  0  0  0  0  0  0
    7.4672  -16.6407   20.1595 C   0  0  0  0  0  0  0  0  0  0  0  0
    8.8777  -16.7695   20.5546 C   0  0  2  0  0  0  0  0  0  0  0  0
    9.7241  -17.5892   19.7758 N   0  0  0  0  0  0  0  0  0  0  0  0
    9.1096  -16.9285   22.0261 C   0  0  0  0  0  0  0  0  0  0  0  0
    8.2373  -16.4803   22.7867 O   0  0  0  0  0  0  0  0  0  0  0  0
   11.1784  -13.3536   18.6711 N   0  0  0  0  0  0  0  0  0  0  0  0
   10.5375  -20.4753   23.0117 C   0  0  0  0  0  0  0  0  0  0  0  0
   11.6291  -19.9716   23.7687 O   0  0  0  0  0  0  0  0  0  0  0  0
   12.5686  -20.7750   23.9651 C   0  0  0  0  0  0  0  0  0  0  0  0
   11.6846  -18.6053   24.2972 C   0  0  2  0  0  0  0  0  0  0  0  0
   10.5020  -17.7696   23.9624 N   0  0  0  0  0  0  0  0  0  0  0  0
   10.2430  -17.5408   22.5740 C   0  0  0  0  0  0  0  0  0  0  0  0
   10.4514  -16.5610   24.8000 O   0  0  0  0  0  0  0  0  0  0  0  0
   11.4919  -15.8864   24.9636 N   0  0  0  0  0  0  0  0  0  0  0  0
    5.3882  -13.2176   26.4755 C   0  0  0  0  0  0  0  0  0  0  0  0
    6.4937  -12.4416   26.9624 O   0  0  0  0  0  0  0  0  0  0  0  0
    6.2531  -11.2295   27.1891 C   0  0  0  0  0  0  0  0  0  0  0  0
    7.8203  -13.0299   27.1810 C   0  0  0  0  0  0  0  0  0  0  0  0
    7.9136  -14.2746   26.3282 C   0  0  1  0  0  0  0  0  0  0  0  0
    9.2838  -14.8778   26.2666 N   0  0  0  0  0  0  0  0  0  0  0  0
    9.2890  -16.0935   25.4501 C   0  0  0  0  0  0  0  0  0  0  0  0
    9.7129  -15.1431   27.6656 O   0  0  0  0  0  0  0  0  0  0  0  0
    9.8420  -14.1559   28.4290 O   0  0  0  0  0  0  0  0  0  0  0  0
  2  3  2  0
  2  1  1  0
  4  2  1  0
  5  4  1  0
  6  5  1  0
  7  6  1  0
  8  7  1  0
  8 10  1  0
  8  9  1  6
 10 17  1  0
 10 11  2  0
 13 12  1  0
 14 13  2  0
 15 13  1  0
 16 15  1  6
 17 16  1  0
 18 16  1  0
 18 19  2  0
 20 21  1  0
 21 22  2  0
 23 21  1  0
 23 24  1  0
 25 24  1  6
 25 26  1  0
 26 18  1  0
 27 25  1  0
 28 27  2  0
 29 27  1  0
M  END
$$$$
