RNQ.pdb
     RDKit          3D

 29 28  0  0  1  0  0  0  0  0999 V2000
    8.8664  -12.9784   16.7997 N   0  0  0  0  0  0  0  0  0  0  0  0
    8.0833  -12.6498   17.9190 C   0  0  0  0  0  0  0  0  0  0  0  0
    8.4451  -11.6598   18.6944 N   0  0  0  0  0  0  0  0  0  0  0  0
    6.8970  -13.3815   18.2261 N   0  0  0  0  0  0  0  0  0  0  0  0
    6.9349  -14.8096   17.8718 C   0  0  0  0  0  0  0  0  0  0  0  0
    7.4273  -15.5255   19.0729 C   0  0  0  0  0  0  0  0  0  0  0  0
    8.8708  -15.9133   19.0913 C   0  0  0  0  0  0  0  0  0  0  0  0
    9.2943  -16.5750   20.3343 C   0  0  2  0  0  0  0  0  0  0  0  0
    8.6387  -17.7643   20.7224 N   0  0  0  0  0  0  0  0  0  0  0  0
    9.5505  -15.6516   21.4858 C   0  0  0  0  0  0  0  0  0  0  0  0
    9.5312  -14.4336   21.2479 O   0  0  0  0  0  0  0  0  0  0  0  0
    7.8995  -11.5172   19.5803 N   0  0  0  0  0  0  0  0  0  0  0  0
    6.7892  -13.9967   25.5829 C   0  0  0  0  0  0  0  0  0  0  0  0
    6.9539  -15.3417   25.1560 O   0  0  0  0  0  0  0  0  0  0  0  0
    6.4855  -16.2142   25.9216 C   0  0  0  0  0  0  0  0  0  0  0  0
    7.6206  -15.7175   23.9057 C   0  0  1  0  0  0  0  0  0  0  0  0
    9.1053  -15.7058   23.9747 N   0  0  0  0  0  0  0  0  0  0  0  0
    9.8114  -16.0875   22.7903 C   0  0  0  0  0  0  0  0  0  0  0  0
    9.5849  -16.3520   25.2063 O   0  0  0  0  0  0  0  0  0  0  0  0
    8.9210  -17.2878   25.7043 N   0  0  0  0  0  0  0  0  0  0  0  0
   10.8617  -13.7640   29.9617 C   0  0  0  0  0  0  0  0  0  0  0  0
   10.7726  -15.0879   30.5100 O   0  0  0  0  0  0  0  0  0  0  0  0
   10.9787  -15.1829   31.7458 C   0  0  0  0  0  0  0  0  0  0  0  0
   10.4600  -16.2551   29.6773 C   0  0  0  0  0  0  0  0  0  0  0  0
   10.2468  -15.7631   28.2638 C   0  0  1  0  0  0  0  0  0  0  0  0
   11.0753  -16.4694   27.2342 N   0  0  0  0  0  0  0  0  0  0  0  0
   10.7664  -15.9867   25.8866 C   0  0  0  0  0  0  0  0  0  0  0  0
   10.8125  -17.9259   27.3793 O   0  0  0  0  0  0  0  0  0  0  0  0
    9.7500  -18.3750   26.8861 O   0  0  0  0  0  0  0  0  0  0  0  0
  2  3  2  0
  2  1  1  0
  4  2  1  0
  5  4  1  0
  6  5  1  0
  7  6  1  0
  8  7  1  0
  8 10  1  0
  8  9  1  1
 10 17  1  0
 10 11  2  0
 13 12  1  0
 14 13  2  0
 15 13  1  0
 16 15  1  6
 17 16  1  0
 18 16  1  0
 18 19  2  0
 20 21  1  0
 21 22  2  0
 23 21  1  0
 23 24  1  0
 25 24  1  1
 25 26  1  0
 26 18  1  0
 27 25  1  0
 28 27  2  0
 29 27  1  0
M  END
$$$$
