RNQ.pdb
     RDKit          3D

 29 28  0  0  1  0  0  0  0  0999 V2000
    9.3088  -13.1627   18.8339 N   0  0  0  0  0  0  0  0  0  0  0  0
    8.3632  -12.2382   19.3086 C   0  0  0  0  0  0  0  0  0  0  0  0
    8.7519  -11.0423   19.6707 N   0  0  0  0  0  0  0  0  0  0  0  0
    6.9817  -12.5837   19.4046 N   0  0  0  0  0  0  0  0  0  0  0  0
    6.6518  -13.9581   18.9940 C   0  0  0  0  0  0  0  0  0  0  0  0
    7.5911  -14.8477   19.7181 C   0  0  0  0  0  0  0  0  0  0  0  0
    7.0706  -15.5429   20.9347 C   0  0  0  0  0  0  0  0  0  0  0  0
    7.9851  -16.5582   21.4778 C   0  0  2  0  0  0  0  0  0  0  0  0
    8.3553  -17.6429   20.6525 N   0  0  0  0  0  0  0  0  0  0  0  0
    7.7019  -16.9733   22.8891 C   0  0  0  0  0  0  0  0  0  0  0  0
    7.4875  -16.0687   23.7115 O   0  0  0  0  0  0  0  0  0  0  0  0
    8.0209  -10.3937   20.0552 N   0  0  0  0  0  0  0  0  0  0  0  0
    6.3310  -19.7243   27.2627 C   0  0  0  0  0  0  0  0  0  0  0  0
    6.5328  -20.5591   26.1310 O   0  0  0  0  0  0  0  0  0  0  0  0
    6.6083  -21.7856   26.3691 C   0  0  0  0  0  0  0  0  0  0  0  0
    6.6464  -20.0503   24.7608 C   0  0  1  0  0  0  0  0  0  0  0  0
    7.3916  -18.7698   24.6417 N   0  0  0  0  0  0  0  0  0  0  0  0
    7.6736  -18.3056   23.3181 C   0  0  0  0  0  0  0  0  0  0  0  0
    8.5423  -18.7378   25.5579 O   0  0  0  0  0  0  0  0  0  0  0  0
    9.5775  -19.3745   25.2621 N   0  0  0  0  0  0  0  0  0  0  0  0
   10.3081  -13.1005   28.2735 C   0  0  0  0  0  0  0  0  0  0  0  0
   10.4183  -14.2313   29.1513 O   0  0  0  0  0  0  0  0  0  0  0  0
   10.1807  -14.0069   30.3645 C   0  0  0  0  0  0  0  0  0  0  0  0
   10.7853  -15.5644   28.6597 C   0  0  0  0  0  0  0  0  0  0  0  0
    9.5817  -16.1340   27.9439 C   0  0  1  0  0  0  0  0  0  0  0  0
    9.8059  -17.4888   27.3441 N   0  0  0  0  0  0  0  0  0  0  0  0
    8.5675  -18.0261   26.7766 C   0  0  0  0  0  0  0  0  0  0  0  0
   10.3532  -18.3615   28.4167 O   0  0  0  0  0  0  0  0  0  0  0  0
    9.5840  -19.2175   28.9162 O   0  0  0  0  0  0  0  0  0  0  0  0
  2  3  2  0
  2  1  1  0
  4  2  1  0
  5  4  1  0
  6  5  1  0
  7  6  1  0
  8  7  1  0
  8 10  1  0
  8  9  1  6
 10 17  1  0
 10 11  2  0
 13 12  1  0
 14 13  2  0
 15 13  1  0
 16 15  1  6
 17 16  1  0
 18 16  1  0
 18 19  2  0
 20 21  1  0
 21 22  2  0
 23 21  1  0
 23 24  1  0
 25 24  1  6
 25 26  1  0
 26 18  1  0
 27 25  1  0
 28 27  2  0
 29 27  1  0
M  END
$$$$
