RNQ.pdb
     RDKit          3D

 29 28  0  0  1  0  0  0  0  0999 V2000
    8.9232  -14.6461   16.9279 N   0  0  0  0  0  0  0  0  0  0  0  0
    8.1048  -13.5054   16.8711 C   0  0  0  0  0  0  0  0  0  0  0  0
    7.7618  -13.0117   15.7088 N   0  0  0  0  0  0  0  0  0  0  0  0
    7.6417  -12.8732   18.0639 N   0  0  0  0  0  0  0  0  0  0  0  0
    8.3462  -13.2687   19.2942 C   0  0  0  0  0  0  0  0  0  0  0  0
    7.5355  -14.3449   19.9127 C   0  0  0  0  0  0  0  0  0  0  0  0
    7.5858  -14.4661   21.4016 C   0  0  0  0  0  0  0  0  0  0  0  0
    8.2923  -15.6643   21.8785 C   0  0  2  0  0  0  0  0  0  0  0  0
    8.2606  -16.8285   21.0796 N   0  0  0  0  0  0  0  0  0  0  0  0
    8.1247  -15.9574   23.3380 C   0  0  0  0  0  0  0  0  0  0  0  0
    7.8286  -15.0038   24.0751 O   0  0  0  0  0  0  0  0  0  0  0  0
    7.0631  -12.2277   15.7054 N   0  0  0  0  0  0  0  0  0  0  0  0
    6.5222  -18.7203   23.4648 C   0  0  0  0  0  0  0  0  0  0  0  0
    6.5824  -19.1694   24.8113 O   0  0  0  0  0  0  0  0  0  0  0  0
    5.7986  -20.0991   25.1078 C   0  0  0  0  0  0  0  0  0  0  0  0
    7.4931  -18.6052   25.8120 C   0  0  2  0  0  0  0  0  0  0  0  0
    8.3893  -17.5387   25.2938 N   0  0  0  0  0  0  0  0  0  0  0  0
    8.2886  -17.2288   23.9006 C   0  0  0  0  0  0  0  0  0  0  0  0
    9.7659  -17.7185   25.7811 O   0  0  0  0  0  0  0  0  0  0  0  0
   10.6478  -18.1176   24.9891 N   0  0  0  0  0  0  0  0  0  0  0  0
    8.7195  -21.5442   30.1583 C   0  0  0  0  0  0  0  0  0  0  0  0
    9.9985  -20.9330   30.3860 O   0  0  0  0  0  0  0  0  0  0  0  0
   10.3202  -20.7704   31.5897 C   0  0  0  0  0  0  0  0  0  0  0  0
   10.8733  -20.5249   29.2807 C   0  0  0  0  0  0  0  0  0  0  0  0
   10.1193  -19.5087   28.4535 C   0  0  2  0  0  0  0  0  0  0  0  0
   10.9789  -18.4277   27.8723 N   0  0  0  0  0  0  0  0  0  0  0  0
   10.1773  -17.4695   27.1082 C   0  0  0  0  0  0  0  0  0  0  0  0
   12.0110  -19.0890   27.0301 O   0  0  0  0  0  0  0  0  0  0  0  0
   11.6448  -20.0524   26.3148 O   0  0  0  0  0  0  0  0  0  0  0  0
  2  3  2  0
  2  1  1  0
  4  2  1  0
  5  4  1  0
  6  5  1  0
  7  6  1  0
  8  7  1  0
  8 10  1  0
  8  9  1  6
 10 17  1  0
 10 11  2  0
 13 12  1  0
 14 13  2  0
 15 13  1  0
 16 15  1  1
 17 16  1  0
 18 16  1  0
 18 19  2  0
 20 21  1  0
 21 22  2  0
 23 21  1  0
 23 24  1  0
 25 24  1  1
 25 26  1  0
 26 18  1  0
 27 25  1  0
 28 27  2  0
 29 27  1  0
M  END
$$$$
