RNQ.pdb
     RDKit          3D

 29 28  0  0  1  0  0  0  0  0999 V2000
   10.0176  -13.3731   19.2223 N   0  0  0  0  0  0  0  0  0  0  0  0
    9.0581  -12.4725   18.7298 C   0  0  0  0  0  0  0  0  0  0  0  0
    9.1510  -11.2013   19.0260 N   0  0  0  0  0  0  0  0  0  0  0  0
    7.9795  -12.9231   17.9110 N   0  0  0  0  0  0  0  0  0  0  0  0
    7.9089  -14.3804   17.7175 C   0  0  0  0  0  0  0  0  0  0  0  0
    7.2941  -14.9362   18.9468 C   0  0  0  0  0  0  0  0  0  0  0  0
    8.2212  -15.4613   19.9951 C   0  0  0  0  0  0  0  0  0  0  0  0
    8.5625  -16.8822   19.8312 C   0  0  2  0  0  0  0  0  0  0  0  0
    7.5120  -17.8187   19.7123 N   0  0  0  0  0  0  0  0  0  0  0  0
    9.6775  -17.3689   20.7053 C   0  0  0  0  0  0  0  0  0  0  0  0
    9.3654  -18.0710   21.6801 O   0  0  0  0  0  0  0  0  0  0  0  0
    8.4222  -10.5590   18.6272 N   0  0  0  0  0  0  0  0  0  0  0  0
   14.2388  -16.9197   18.4743 C   0  0  0  0  0  0  0  0  0  0  0  0
   13.7843  -17.6330   19.6157 O   0  0  0  0  0  0  0  0  0  0  0  0
   13.6580  -18.8694   19.4670 C   0  0  0  0  0  0  0  0  0  0  0  0
   13.4773  -16.9944   20.8991 C   0  0  2  0  0  0  0  0  0  0  0  0
   12.1054  -17.2619   21.4047 N   0  0  0  0  0  0  0  0  0  0  0  0
   11.0273  -17.0713   20.4836 C   0  0  0  0  0  0  0  0  0  0  0  0
   11.8965  -16.6465   22.7247 O   0  0  0  0  0  0  0  0  0  0  0  0
   12.0259  -15.4087   22.8498 N   0  0  0  0  0  0  0  0  0  0  0  0
    7.1935  -15.1908   23.5304 C   0  0  0  0  0  0  0  0  0  0  0  0
    7.3938  -15.1278   24.9508 O   0  0  0  0  0  0  0  0  0  0  0  0
    6.5150  -14.5073   25.5999 C   0  0  0  0  0  0  0  0  0  0  0  0
    8.5529  -15.7501   25.6009 C   0  0  0  0  0  0  0  0  0  0  0  0
    9.4312  -16.3262   24.5136 C   0  0  1  0  0  0  0  0  0  0  0  0
   10.7853  -16.7638   24.9828 N   0  0  0  0  0  0  0  0  0  0  0  0
   11.5535  -17.3647   23.8904 C   0  0  0  0  0  0  0  0  0  0  0  0
   10.5771  -17.7141   26.1076 O   0  0  0  0  0  0  0  0  0  0  0  0
   10.4470  -18.9290   25.8231 O   0  0  0  0  0  0  0  0  0  0  0  0
  2  3  2  0
  2  1  1  0
  4  2  1  0
  5  4  1  0
  6  5  1  0
  7  6  1  0
  8  7  1  0
  8 10  1  0
  8  9  1  1
 10 17  1  0
 10 11  2  0
 13 12  1  0
 14 13  2  0
 15 13  1  0
 16 15  1  6
 17 16  1  0
 18 16  1  0
 18 19  2  0
 20 21  1  0
 21 22  2  0
 23 21  1  0
 23 24  1  0
 25 24  1  6
 25 26  1  0
 26 18  1  0
 27 25  1  0
 28 27  2  0
 29 27  1  0
M  END
$$$$
