AQI.pdb
     RDKit          3D

 23 22  0  0  1  0  0  0  0  0999 V2000
   -1.7640  -27.0693   27.0595 C   0  0  0  0  0  0  0  0  0  0  0  0
   -1.9678  -26.5118   28.4577 C   0  0  2  0  0  0  0  0  0  0  0  0
   -1.8573  -27.6142   29.3970 N   0  0  0  0  0  0  0  0  0  0  0  0
   -3.3255  -25.9097   28.5264 C   0  0  0  0  0  0  0  0  0  0  0  0
   -3.6641  -24.9181   27.8061 O   0  0  0  0  0  0  0  0  0  0  0  0
   -9.6956  -26.2255   28.7419 N   0  0  0  0  0  0  0  0  0  0  0  0
   -8.8085  -27.0535   29.4547 C   0  0  0  0  0  0  0  0  0  0  0  0
   -8.7697  -28.2800   29.2695 O   0  0  0  0  0  0  0  0  0  0  0  0
   -7.8878  -26.4092   30.4678 C   0  0  0  0  0  0  0  0  0  0  0  0
   -6.5057  -26.9400   30.2425 C   0  0  0  0  0  0  0  0  0  0  0  0
   -5.6157  -25.9626   29.5584 C   0  0  2  0  0  0  0  0  0  0  0  0
   -4.2561  -26.4782   29.4333 N   0  0  0  0  0  0  0  0  0  0  0  0
   -5.5469  -24.6880   30.3052 C   0  0  0  0  0  0  0  0  0  0  0  0
   -4.9798  -24.6354   31.4262 O   0  0  0  0  0  0  0  0  0  0  0  0
   -3.4306  -19.3796   30.2261 C   0  0  0  0  0  0  0  0  0  0  0  0
   -4.6344  -20.1681   30.7368 C   0  0  0  0  0  0  0  0  0  0  0  0
   -4.8334  -21.4265   29.9442 C   0  0  2  0  0  0  0  0  0  0  0  0
   -5.1007  -21.0269   28.5069 C   0  0  0  0  0  0  0  0  0  0  0  0
   -5.9197  -22.2563   30.5275 C   0  0  2  0  0  0  0  0  0  0  0  0
   -6.1243  -23.4833   29.7700 N   0  0  0  0  0  0  0  0  0  0  0  0
   -7.2177  -21.5466   30.6277 C   0  0  0  0  0  0  0  0  0  0  0  0
   -8.3731  -22.0769   30.0036 O   0  0  0  0  0  0  0  0  0  0  0  0
   -7.3924  -20.4708   31.2427 O   0  0  0  0  0  0  0  0  0  0  0  0
  2  3  1  0
  2  1  1  6
  4  5  2  0
  4  2  1  0
  6  7  1  0
  7  8  2  0
  9  7  1  0
  9 10  1  0
 11 10  1  1
 11 13  1  0
 11 12  1  0
 12  4  1  0
 13 20  1  0
 14 13  2  0
 16 15  1  0
 17 19  1  0
 17 16  1  0
 17 18  1  6
 19 21  1  0
 19 20  1  6
 21 23  2  0
 21 22  1  0
M  END
$$$$
