AQI.pdb
     RDKit          3D

 23 22  0  0  1  0  0  0  0  0999 V2000
    8.2467  -12.1734   19.5479 C   0  0  0  0  0  0  0  0  0  0  0  0
    8.3157  -13.6324   19.1309 C   0  0  2  0  0  0  0  0  0  0  0  0
    7.3366  -13.8415   18.0785 N   0  0  0  0  0  0  0  0  0  0  0  0
    7.9885  -14.4716   20.3139 C   0  0  0  0  0  0  0  0  0  0  0  0
    6.7951  -14.8065   20.5976 O   0  0  0  0  0  0  0  0  0  0  0  0
   10.8582  -20.2364   23.5502 N   0  0  0  0  0  0  0  0  0  0  0  0
   10.3807  -19.3687   22.5503 C   0  0  0  0  0  0  0  0  0  0  0  0
   10.6018  -19.5761   21.3468 O   0  0  0  0  0  0  0  0  0  0  0  0
    9.5795  -18.1585   22.9774 C   0  0  0  0  0  0  0  0  0  0  0  0
    9.7202  -17.1107   21.9168 C   0  0  0  0  0  0  0  0  0  0  0  0
    8.8735  -15.9133   22.1715 C   0  0  2  0  0  0  0  0  0  0  0  0
    9.0604  -14.9001   21.1377 N   0  0  0  0  0  0  0  0  0  0  0  0
    9.2013  -15.2936   23.4737 C   0  0  0  0  0  0  0  0  0  0  0  0
   10.3709  -14.9011   23.7169 O   0  0  0  0  0  0  0  0  0  0  0  0
    5.8616  -11.8764   25.7931 C   0  0  0  0  0  0  0  0  0  0  0  0
    7.0066  -12.7256   25.2457 C   0  0  0  0  0  0  0  0  0  0  0  0
    7.5625  -13.6323   26.3043 C   0  0  2  0  0  0  0  0  0  0  0  0
    8.0643  -12.7610   27.4384 C   0  0  0  0  0  0  0  0  0  0  0  0
    8.6148  -14.5203   25.7451 C   0  0  2  0  0  0  0  0  0  0  0  0
    8.1951  -15.1257   24.4887 N   0  0  0  0  0  0  0  0  0  0  0  0
    9.0291  -15.6024   26.6703 C   0  0  0  0  0  0  0  0  0  0  0  0
   10.0982  -15.3985   27.5766 O   0  0  0  0  0  0  0  0  0  0  0  0
    8.4943  -16.7324   26.7250 O   0  0  0  0  0  0  0  0  0  0  0  0
  2  3  1  0
  2  1  1  1
  4  5  2  0
  4  2  1  0
  6  7  1  0
  7  8  2  0
  9  7  1  0
  9 10  1  0
 11 10  1  6
 11 13  1  0
 11 12  1  0
 12  4  1  0
 13 20  1  0
 14 13  2  0
 16 15  1  0
 17 19  1  0
 17 16  1  0
 17 18  1  1
 19 21  1  0
 19 20  1  6
 21 23  2  0
 21 22  1  0
M  END
$$$$
