AQI.pdb
     RDKit          3D

 23 22  0  0  1  0  0  0  0  0999 V2000
    6.1113  -18.8357   24.7557 C   0  0  0  0  0  0  0  0  0  0  0  0
    6.1330  -18.6961   23.2433 C   0  0  2  0  0  0  0  0  0  0  0  0
    6.3229  -20.0200   22.6767 N   0  0  0  0  0  0  0  0  0  0  0  0
    7.2673  -17.8091   22.8730 C   0  0  0  0  0  0  0  0  0  0  0  0
    8.4755  -18.1115   23.1295 O   0  0  0  0  0  0  0  0  0  0  0  0
    6.7735  -13.2123   18.7228 N   0  0  0  0  0  0  0  0  0  0  0  0
    8.1436  -13.1120   19.0288 C   0  0  0  0  0  0  0  0  0  0  0  0
    8.9199  -12.4394   18.3323 O   0  0  0  0  0  0  0  0  0  0  0  0
    8.6605  -13.8519   20.2430 C   0  0  0  0  0  0  0  0  0  0  0  0
    7.5671  -14.7448   20.7428 C   0  0  0  0  0  0  0  0  0  0  0  0
    8.0109  -15.6400   21.8460 C   0  0  2  0  0  0  0  0  0  0  0  0
    6.9660  -16.5907   22.2127 N   0  0  0  0  0  0  0  0  0  0  0  0
    8.3592  -14.8649   23.0564 C   0  0  0  0  0  0  0  0  0  0  0  0
    8.6042  -13.6341   22.9771 O   0  0  0  0  0  0  0  0  0  0  0  0
    6.8610  -11.6809   27.0506 C   0  0  0  0  0  0  0  0  0  0  0  0
    8.0215  -12.6171   26.7213 C   0  0  0  0  0  0  0  0  0  0  0  0
    7.6213  -13.6349   25.6938 C   0  0  2  0  0  0  0  0  0  0  0  0
    6.3125  -14.2524   26.1440 C   0  0  0  0  0  0  0  0  0  0  0  0
    8.6982  -14.6393   25.4927 C   0  0  2  0  0  0  0  0  0  0  0  0
    8.4260  -15.4970   24.3475 N   0  0  0  0  0  0  0  0  0  0  0  0
    8.9327  -15.5006   26.6768 C   0  0  0  0  0  0  0  0  0  0  0  0
    9.6403  -14.9999   27.7967 O   0  0  0  0  0  0  0  0  0  0  0  0
    8.5436  -16.6854   26.7803 O   0  0  0  0  0  0  0  0  0  0  0  0
  2  3  1  0
  2  1  1  1
  4  5  2  0
  4  2  1  0
  6  7  1  0
  7  8  2  0
  9  7  1  0
  9 10  1  0
 11 10  1  6
 11 13  1  0
 11 12  1  0
 12  4  1  0
 13 20  1  0
 14 13  2  0
 16 15  1  0
 17 19  1  0
 17 16  1  0
 17 18  1  1
 19 21  1  0
 19 20  1  6
 21 23  2  0
 21 22  1  0
M  END
$$$$
