AQI.pdb
     RDKit          3D

 23 22  0  0  1  0  0  0  0  0999 V2000
    8.1987  -12.2482   19.2049 C   0  0  0  0  0  0  0  0  0  0  0  0
    8.4661  -13.6948   18.8264 C   0  0  2  0  0  0  0  0  0  0  0  0
    7.6212  -14.0213   17.6910 N   0  0  0  0  0  0  0  0  0  0  0  0
    8.1204  -14.5529   19.9903 C   0  0  0  0  0  0  0  0  0  0  0  0
    6.9398  -14.9814   20.1891 O   0  0  0  0  0  0  0  0  0  0  0  0
   10.6184  -19.6834   21.4809 N   0  0  0  0  0  0  0  0  0  0  0  0
   10.8776  -18.7119   20.4962 C   0  0  0  0  0  0  0  0  0  0  0  0
   11.7834  -18.8561   19.6601 O   0  0  0  0  0  0  0  0  0  0  0  0
   10.0167  -17.4679   20.4759 C   0  0  0  0  0  0  0  0  0  0  0  0
    9.8287  -17.0103   21.8893 C   0  0  0  0  0  0  0  0  0  0  0  0
    8.9410  -15.8206   21.9984 C   0  0  2  0  0  0  0  0  0  0  0  0
    9.1593  -14.8911   20.8946 N   0  0  0  0  0  0  0  0  0  0  0  0
    9.1826  -15.0868   23.2594 C   0  0  0  0  0  0  0  0  0  0  0  0
   10.1950  -14.3518   23.3858 O   0  0  0  0  0  0  0  0  0  0  0  0
    6.9484  -11.3793   27.1942 C   0  0  0  0  0  0  0  0  0  0  0  0
    7.9401  -12.5226   26.9913 C   0  0  0  0  0  0  0  0  0  0  0  0
    7.5702  -13.3551   25.7989 C   0  0  2  0  0  0  0  0  0  0  0  0
    6.1767  -13.9024   26.0348 C   0  0  0  0  0  0  0  0  0  0  0  0
    8.5792  -14.4198   25.5599 C   0  0  2  0  0  0  0  0  0  0  0  0
    8.2698  -15.1953   24.3666 N   0  0  0  0  0  0  0  0  0  0  0  0
    8.7326  -15.3561   26.6995 C   0  0  0  0  0  0  0  0  0  0  0  0
    9.3864  -14.9395   27.8847 O   0  0  0  0  0  0  0  0  0  0  0  0
    8.3171  -16.5365   26.7086 O   0  0  0  0  0  0  0  0  0  0  0  0
  2  3  1  0
  2  1  1  1
  4  5  2  0
  4  2  1  0
  6  7  1  0
  7  8  2  0
  9  7  1  0
  9 10  1  0
 11 10  1  6
 11 13  1  0
 11 12  1  0
 12  4  1  0
 13 20  1  0
 14 13  2  0
 16 15  1  0
 17 19  1  0
 17 16  1  0
 17 18  1  1
 19 21  1  0
 19 20  1  6
 21 23  2  0
 21 22  1  0
M  END
$$$$
