AQI.pdb
     RDKit          3D

 23 22  0  0  1  0  0  0  0  0999 V2000
    8.3446  -12.0660   19.4103 C   0  0  0  0  0  0  0  0  0  0  0  0
    8.4888  -13.5020   18.9365 C   0  0  2  0  0  0  0  0  0  0  0  0
    7.5634  -13.7024   17.8350 N   0  0  0  0  0  0  0  0  0  0  0  0
    8.1464  -14.4032   20.0683 C   0  0  0  0  0  0  0  0  0  0  0  0
    6.9453  -14.7137   20.3476 O   0  0  0  0  0  0  0  0  0  0  0  0
   11.8550  -18.8780   21.9354 N   0  0  0  0  0  0  0  0  0  0  0  0
   10.7830  -19.0826   22.8241 C   0  0  0  0  0  0  0  0  0  0  0  0
   10.6434  -20.1493   23.4431 O   0  0  0  0  0  0  0  0  0  0  0  0
    9.7876  -17.9592   23.0136 C   0  0  0  0  0  0  0  0  0  0  0  0
    9.9079  -17.0304   21.8451 C   0  0  0  0  0  0  0  0  0  0  0  0
    8.9779  -15.8714   21.9300 C   0  0  2  0  0  0  0  0  0  0  0  0
    9.2123  -14.9208   20.8476 N   0  0  0  0  0  0  0  0  0  0  0  0
    9.1416  -15.1468   23.2088 C   0  0  0  0  0  0  0  0  0  0  0  0
   10.1379  -14.4032   23.3975 O   0  0  0  0  0  0  0  0  0  0  0  0
    6.6354  -11.6566   27.2386 C   0  0  0  0  0  0  0  0  0  0  0  0
    7.7167  -12.6986   26.9618 C   0  0  0  0  0  0  0  0  0  0  0  0
    7.3658  -13.5397   25.7697 C   0  0  2  0  0  0  0  0  0  0  0  0
    6.0122  -14.1684   26.0332 C   0  0  0  0  0  0  0  0  0  0  0  0
    8.4280  -14.5423   25.4950 C   0  0  2  0  0  0  0  0  0  0  0  0
    8.1700  -15.2744   24.2627 N   0  0  0  0  0  0  0  0  0  0  0  0
    8.6138  -15.5230   26.5915 C   0  0  0  0  0  0  0  0  0  0  0  0
    9.2454  -15.1356   27.7984 O   0  0  0  0  0  0  0  0  0  0  0  0
    8.2457  -16.7181   26.5443 O   0  0  0  0  0  0  0  0  0  0  0  0
  2  3  1  0
  2  1  1  1
  4  5  2  0
  4  2  1  0
  6  7  1  0
  7  8  2  0
  9  7  1  0
  9 10  1  0
 11 10  1  1
 11 13  1  0
 11 12  1  0
 12  4  1  0
 13 20  1  0
 14 13  2  0
 16 15  1  0
 17 19  1  0
 17 16  1  0
 17 18  1  1
 19 21  1  0
 19 20  1  6
 21 23  2  0
 21 22  1  0
M  END
$$$$
