AQI.pdb
     RDKit          3D

 23 22  0  0  1  0  0  0  0  0999 V2000
   10.8202  -19.2064   21.3307 C   0  0  0  0  0  0  0  0  0  0  0  0
    9.6684  -18.8585   22.2578 C   0  0  2  0  0  0  0  0  0  0  0  0
    8.4296  -19.1371   21.5526 N   0  0  0  0  0  0  0  0  0  0  0  0
    9.7583  -17.4123   22.5911 C   0  0  0  0  0  0  0  0  0  0  0  0
   10.8079  -16.8960   23.0897 O   0  0  0  0  0  0  0  0  0  0  0  0
    6.8547  -12.8519   19.6767 N   0  0  0  0  0  0  0  0  0  0  0  0
    7.9401  -13.6359   19.2429 C   0  0  0  0  0  0  0  0  0  0  0  0
    8.2435  -13.7226   18.0426 O   0  0  0  0  0  0  0  0  0  0  0  0
    8.7432  -14.3832   20.2848 C   0  0  0  0  0  0  0  0  0  0  0  0
    7.9558  -14.3932   21.5586 C   0  0  0  0  0  0  0  0  0  0  0  0
    8.6154  -15.1753   22.6396 C   0  0  2  0  0  0  0  0  0  0  0  0
    8.6224  -16.6027   22.3350 N   0  0  0  0  0  0  0  0  0  0  0  0
    7.9194  -14.9943   23.9318 C   0  0  0  0  0  0  0  0  0  0  0  0
    6.8435  -15.6011   24.1673 O   0  0  0  0  0  0  0  0  0  0  0  0
   10.4768  -13.9516   28.7285 C   0  0  0  0  0  0  0  0  0  0  0  0
    9.5114  -14.5012   27.6807 C   0  0  0  0  0  0  0  0  0  0  0  0
    8.4917  -13.4716   27.2910 C   0  0  2  0  0  0  0  0  0  0  0  0
    7.6749  -13.1438   28.5249 C   0  0  0  0  0  0  0  0  0  0  0  0
    7.6609  -13.9494   26.1551 C   0  0  2  0  0  0  0  0  0  0  0  0
    8.4535  -14.1238   24.9458 N   0  0  0  0  0  0  0  0  0  0  0  0
    6.5187  -13.0574   25.8410 C   0  0  0  0  0  0  0  0  0  0  0  0
    5.3291  -13.1219   26.6067 O   0  0  0  0  0  0  0  0  0  0  0  0
    6.5110  -12.2134   24.9172 O   0  0  0  0  0  0  0  0  0  0  0  0
  2  3  1  0
  2  1  1  6
  4  5  2  0
  4  2  1  0
  6  7  1  0
  7  8  2  0
  9  7  1  0
  9 10  1  0
 11 10  1  6
 11 13  1  0
 11 12  1  0
 12  4  1  0
 13 20  1  0
 14 13  2  0
 16 15  1  0
 17 19  1  0
 17 16  1  0
 17 18  1  1
 19 21  1  0
 19 20  1  6
 21 23  2  0
 21 22  1  0
M  END
$$$$
