AQI.pdb
     RDKit          3D

 23 22  0  0  1  0  0  0  0  0999 V2000
    8.3134  -12.1979   19.2248 C   0  0  0  0  0  0  0  0  0  0  0  0
    8.3837  -13.6621   18.8265 C   0  0  2  0  0  0  0  0  0  0  0  0
    7.3754  -13.8951   17.8072 N   0  0  0  0  0  0  0  0  0  0  0  0
    8.1003  -14.4871   20.0305 C   0  0  0  0  0  0  0  0  0  0  0  0
    6.9237  -14.8629   20.3325 O   0  0  0  0  0  0  0  0  0  0  0  0
   11.7972  -18.9021   21.4705 N   0  0  0  0  0  0  0  0  0  0  0  0
   11.0090  -19.0083   22.6316 C   0  0  0  0  0  0  0  0  0  0  0  0
   11.1455  -19.9497   23.4287 O   0  0  0  0  0  0  0  0  0  0  0  0
    9.9751  -17.9353   22.8940 C   0  0  0  0  0  0  0  0  0  0  0  0
   10.0322  -16.9504   21.7674 C   0  0  0  0  0  0  0  0  0  0  0  0
    9.0540  -15.8391   21.9213 C   0  0  2  0  0  0  0  0  0  0  0  0
    9.1954  -14.8543   20.8535 N   0  0  0  0  0  0  0  0  0  0  0  0
    9.2409  -15.1366   23.2092 C   0  0  0  0  0  0  0  0  0  0  0  0
   10.2663  -14.4374   23.4114 O   0  0  0  0  0  0  0  0  0  0  0  0
    6.5579  -11.5991   27.1208 C   0  0  0  0  0  0  0  0  0  0  0  0
    7.6855  -12.5992   26.8759 C   0  0  0  0  0  0  0  0  0  0  0  0
    7.3968  -13.4589   25.6804 C   0  0  2  0  0  0  0  0  0  0  0  0
    6.0464  -14.1113   25.8987 C   0  0  0  0  0  0  0  0  0  0  0  0
    8.4877  -14.4432   25.4572 C   0  0  2  0  0  0  0  0  0  0  0  0
    8.2591  -15.2356   24.2567 N   0  0  0  0  0  0  0  0  0  0  0  0
    8.6915  -15.3693   26.5971 C   0  0  0  0  0  0  0  0  0  0  0  0
    9.3578  -14.9286   27.7666 O   0  0  0  0  0  0  0  0  0  0  0  0
    8.3100  -16.5609   26.6200 O   0  0  0  0  0  0  0  0  0  0  0  0
  2  3  1  0
  2  1  1  1
  4  5  2  0
  4  2  1  0
  6  7  1  0
  7  8  2  0
  9  7  1  0
  9 10  1  0
 11 10  1  6
 11 13  1  0
 11 12  1  0
 12  4  1  0
 13 20  1  0
 14 13  2  0
 16 15  1  0
 17 19  1  0
 17 16  1  0
 17 18  1  1
 19 21  1  0
 19 20  1  6
 21 23  2  0
 21 22  1  0
M  END
$$$$
