AQI.pdb
     RDKit          3D

 23 22  0  0  1  0  0  0  0  0999 V2000
    8.5476  -12.1660   19.1803 C   0  0  0  0  0  0  0  0  0  0  0  0
    8.3963  -13.6355   18.8269 C   0  0  2  0  0  0  0  0  0  0  0  0
    7.3495  -13.7473   17.8262 N   0  0  0  0  0  0  0  0  0  0  0  0
    8.0132  -14.3744   20.0589 C   0  0  0  0  0  0  0  0  0  0  0  0
    6.8167  -14.4008   20.4886 O   0  0  0  0  0  0  0  0  0  0  0  0
   11.0652  -19.3536   21.7631 N   0  0  0  0  0  0  0  0  0  0  0  0
   10.2386  -19.2690   22.8989 C   0  0  0  0  0  0  0  0  0  0  0  0
   10.2311  -20.1553   23.7676 O   0  0  0  0  0  0  0  0  0  0  0  0
    9.3445  -18.0571   23.0432 C   0  0  0  0  0  0  0  0  0  0  0  0
    9.5477  -17.1848   21.8431 C   0  0  0  0  0  0  0  0  0  0  0  0
    8.7302  -15.9417   21.8871 C   0  0  2  0  0  0  0  0  0  0  0  0
    9.0341  -15.0650   20.7605 N   0  0  0  0  0  0  0  0  0  0  0  0
    8.9807  -15.1805   23.1301 C   0  0  0  0  0  0  0  0  0  0  0  0
   10.0765  -14.5893   23.3061 O   0  0  0  0  0  0  0  0  0  0  0  0
    6.5887  -11.4268   27.1435 C   0  0  0  0  0  0  0  0  0  0  0  0
    7.6485  -12.4852   26.8460 C   0  0  0  0  0  0  0  0  0  0  0  0
    7.2551  -13.3299   25.6698 C   0  0  2  0  0  0  0  0  0  0  0  0
    5.9217  -13.9740   25.9921 C   0  0  0  0  0  0  0  0  0  0  0  0
    8.3155  -14.3202   25.3479 C   0  0  2  0  0  0  0  0  0  0  0  0
    7.9820  -15.0985   24.1630 N   0  0  0  0  0  0  0  0  0  0  0  0
    8.6047  -15.2595   26.4583 C   0  0  0  0  0  0  0  0  0  0  0  0
    9.3857  -14.8419   27.5634 O   0  0  0  0  0  0  0  0  0  0  0  0
    8.2022  -16.4433   26.5091 O   0  0  0  0  0  0  0  0  0  0  0  0
  2  3  1  0
  2  1  1  1
  4  5  2  0
  4  2  1  0
  6  7  1  0
  7  8  2  0
  9  7  1  0
  9 10  1  0
 11 10  1  1
 11 13  1  0
 11 12  1  0
 12  4  1  0
 13 20  1  0
 14 13  2  0
 16 15  1  0
 17 19  1  0
 17 16  1  0
 17 18  1  1
 19 21  1  0
 19 20  1  6
 21 23  2  0
 21 22  1  0
M  END
$$$$
