AQI.pdb
     RDKit          3D

 23 22  0  0  1  0  0  0  0  0999 V2000
    8.3855  -12.1950   19.3742 C   0  0  0  0  0  0  0  0  0  0  0  0
    8.5111  -13.6705   19.0358 C   0  0  2  0  0  0  0  0  0  0  0  0
    7.6047  -13.9540   17.9369 N   0  0  0  0  0  0  0  0  0  0  0  0
    8.1280  -14.4587   20.2369 C   0  0  0  0  0  0  0  0  0  0  0  0
    6.9139  -14.6466   20.5649 O   0  0  0  0  0  0  0  0  0  0  0  0
   11.8678  -18.6625   21.7232 N   0  0  0  0  0  0  0  0  0  0  0  0
   10.6919  -18.9856   21.0208 C   0  0  0  0  0  0  0  0  0  0  0  0
   10.6437  -19.9464   20.2367 O   0  0  0  0  0  0  0  0  0  0  0  0
    9.4675  -18.1252   21.2433 C   0  0  0  0  0  0  0  0  0  0  0  0
    9.8342  -17.0351   22.2024 C   0  0  0  0  0  0  0  0  0  0  0  0
    8.8895  -15.8858   22.1595 C   0  0  2  0  0  0  0  0  0  0  0  0
    9.1695  -15.0090   21.0268 N   0  0  0  0  0  0  0  0  0  0  0  0
    8.9802  -15.0726   23.3914 C   0  0  0  0  0  0  0  0  0  0  0  0
    9.9927  -14.3604   23.6125 O   0  0  0  0  0  0  0  0  0  0  0  0
    7.5259  -11.2532   26.6293 C   0  0  0  0  0  0  0  0  0  0  0  0
    7.0420  -12.6296   27.0799 C   0  0  0  0  0  0  0  0  0  0  0  0
    6.8303  -13.5402   25.9062 C   0  0  2  0  0  0  0  0  0  0  0  0
    5.7089  -14.4955   26.2621 C   0  0  0  0  0  0  0  0  0  0  0  0
    8.0911  -14.2362   25.5389 C   0  0  2  0  0  0  0  0  0  0  0  0
    7.9177  -15.0765   24.3621 N   0  0  0  0  0  0  0  0  0  0  0  0
    8.6466  -15.0705   26.6316 C   0  0  0  0  0  0  0  0  0  0  0  0
    8.7532  -16.4741   26.4765 O   0  0  0  0  0  0  0  0  0  0  0  0
    9.0483  -14.6251   27.7299 O   0  0  0  0  0  0  0  0  0  0  0  0
  2  3  1  0
  2  1  1  1
  4  5  2  0
  4  2  1  0
  6  7  1  0
  7  8  2  0
  9  7  1  0
  9 10  1  0
 11 10  1  1
 11 13  1  0
 11 12  1  0
 12  4  1  0
 13 20  1  0
 14 13  2  0
 16 15  1  0
 17 19  1  0
 17 16  1  0
 17 18  1  1
 19 21  1  0
 19 20  1  6
 21 23  2  0
 21 22  1  0
M  END
$$$$
