AQI.pdb
     RDKit          3D

 23 22  0  0  1  0  0  0  0  0999 V2000
    8.2882  -12.2045   19.5377 C   0  0  0  0  0  0  0  0  0  0  0  0
    8.3248  -13.6759   19.1621 C   0  0  2  0  0  0  0  0  0  0  0  0
    7.3251  -13.8973   18.1319 N   0  0  0  0  0  0  0  0  0  0  0  0
    8.0023  -14.4747   20.3739 C   0  0  0  0  0  0  0  0  0  0  0  0
    6.8055  -14.7410   20.7111 O   0  0  0  0  0  0  0  0  0  0  0  0
   11.2273  -19.2766   21.6210 N   0  0  0  0  0  0  0  0  0  0  0  0
   10.5071  -19.2926   22.8301 C   0  0  0  0  0  0  0  0  0  0  0  0
   10.5399  -20.2688   23.5958 O   0  0  0  0  0  0  0  0  0  0  0  0
    9.6786  -18.0774   23.1844 C   0  0  0  0  0  0  0  0  0  0  0  0
    9.7636  -17.1093   22.0450 C   0  0  0  0  0  0  0  0  0  0  0  0
    8.8845  -15.9223   22.2284 C   0  0  2  0  0  0  0  0  0  0  0  0
    9.0828  -14.9439   21.1637 N   0  0  0  0  0  0  0  0  0  0  0  0
    9.1577  -15.2481   23.5159 C   0  0  0  0  0  0  0  0  0  0  0  0
   10.2703  -14.7011   23.7260 O   0  0  0  0  0  0  0  0  0  0  0  0
    5.8086  -11.8705   25.7445 C   0  0  0  0  0  0  0  0  0  0  0  0
    6.9458  -12.7520   25.2333 C   0  0  0  0  0  0  0  0  0  0  0  0
    7.4405  -13.6752   26.3078 C   0  0  2  0  0  0  0  0  0  0  0  0
    7.8623  -12.8227   27.4878 C   0  0  0  0  0  0  0  0  0  0  0  0
    8.5333  -14.5451   25.8001 C   0  0  2  0  0  0  0  0  0  0  0  0
    8.1624  -15.2019   24.5543 N   0  0  0  0  0  0  0  0  0  0  0  0
    8.9604  -15.5843   26.7677 C   0  0  0  0  0  0  0  0  0  0  0  0
    9.9471  -15.2933   27.7410 O   0  0  0  0  0  0  0  0  0  0  0  0
    8.5063  -16.7499   26.8033 O   0  0  0  0  0  0  0  0  0  0  0  0
  2  3  1  0
  2  1  1  1
  4  5  2  0
  4  2  1  0
  6  7  1  0
  7  8  2  0
  9  7  1  0
  9 10  1  0
 11 10  1  6
 11 13  1  0
 11 12  1  0
 12  4  1  0
 13 20  1  0
 14 13  2  0
 16 15  1  0
 17 19  1  0
 17 16  1  0
 17 18  1  1
 19 21  1  0
 19 20  1  6
 21 23  2  0
 21 22  1  0
M  END
$$$$
