AQI.pdb
     RDKit          3D

 23 22  0  0  1  0  0  0  0  0999 V2000
   12.3071  -15.0284   19.8285 C   0  0  0  0  0  0  0  0  0  0  0  0
   11.6826  -16.4112   19.9011 C   0  0  2  0  0  0  0  0  0  0  0  0
   10.9847  -16.6508   18.6501 N   0  0  0  0  0  0  0  0  0  0  0  0
   10.7248  -16.4312   21.0381 C   0  0  0  0  0  0  0  0  0  0  0  0
    9.5779  -15.8867   20.9674 O   0  0  0  0  0  0  0  0  0  0  0  0
   11.4543  -22.0669   23.7888 N   0  0  0  0  0  0  0  0  0  0  0  0
   10.5385  -21.0011   23.8667 C   0  0  0  0  0  0  0  0  0  0  0  0
    9.4539  -21.1151   24.4591 O   0  0  0  0  0  0  0  0  0  0  0  0
   10.9074  -19.6921   23.2038 C   0  0  0  0  0  0  0  0  0  0  0  0
    9.7707  -18.7368   23.3980 C   0  0  0  0  0  0  0  0  0  0  0  0
   10.1955  -17.3119   23.3310 C   0  0  2  0  0  0  0  0  0  0  0  0
   11.1269  -17.0857   22.2304 N   0  0  0  0  0  0  0  0  0  0  0  0
   10.8660  -16.8942   24.5812 C   0  0  0  0  0  0  0  0  0  0  0  0
   12.1163  -16.9714   24.6909 O   0  0  0  0  0  0  0  0  0  0  0  0
    9.8029  -13.1748   29.2933 C   0  0  0  0  0  0  0  0  0  0  0  0
   10.3430  -14.5190   28.8103 C   0  0  0  0  0  0  0  0  0  0  0  0
   10.3621  -14.5879   27.3114 C   0  0  2  0  0  0  0  0  0  0  0  0
    8.9630  -14.2763   26.8192 C   0  0  0  0  0  0  0  0  0  0  0  0
   10.8605  -15.9084   26.8460 C   0  0  2  0  0  0  0  0  0  0  0  0
   10.1081  -16.3921   25.6967 N   0  0  0  0  0  0  0  0  0  0  0  0
   10.8339  -16.9546   27.8965 C   0  0  0  0  0  0  0  0  0  0  0  0
    9.9576  -18.0613   27.7818 O   0  0  0  0  0  0  0  0  0  0  0  0
   11.5493  -16.9474   28.9232 O   0  0  0  0  0  0  0  0  0  0  0  0
  2  3  1  0
  2  1  1  6
  4  5  2  0
  4  2  1  0
  6  7  1  0
  7  8  2  0
  9  7  1  0
  9 10  1  0
 11 10  1  1
 11 13  1  0
 11 12  1  0
 12  4  1  0
 13 20  1  0
 14 13  2  0
 16 15  1  0
 17 19  1  0
 17 16  1  0
 17 18  1  1
 19 21  1  0
 19 20  1  6
 21 23  2  0
 21 22  1  0
M  END
$$$$
