AQI.pdb
     RDKit          3D

 23 22  0  0  1  0  0  0  0  0999 V2000
    8.7287  -12.7468   19.3338 C   0  0  0  0  0  0  0  0  0  0  0  0
    8.5651  -14.2558   19.2754 C   0  0  2  0  0  0  0  0  0  0  0  0
    7.7905  -14.5740   18.0887 N   0  0  0  0  0  0  0  0  0  0  0  0
    7.8403  -14.6940   20.4974 C   0  0  0  0  0  0  0  0  0  0  0  0
    6.6246  -14.3881   20.7102 O   0  0  0  0  0  0  0  0  0  0  0  0
    4.7002  -18.4270   21.5954 N   0  0  0  0  0  0  0  0  0  0  0  0
    5.8360  -18.3872   22.4255 C   0  0  0  0  0  0  0  0  0  0  0  0
    5.7423  -18.4404   23.6619 O   0  0  0  0  0  0  0  0  0  0  0  0
    7.1956  -18.2764   21.7713 C   0  0  0  0  0  0  0  0  0  0  0  0
    8.0950  -17.5155   22.6957 C   0  0  0  0  0  0  0  0  0  0  0  0
    7.8928  -16.0430   22.6164 C   0  0  2  0  0  0  0  0  0  0  0  0
    8.5502  -15.4783   21.4421 N   0  0  0  0  0  0  0  0  0  0  0  0
    8.4410  -15.3628   23.8097 C   0  0  0  0  0  0  0  0  0  0  0  0
    9.6547  -15.0375   23.8573 O   0  0  0  0  0  0  0  0  0  0  0  0
    5.4317  -11.8775   26.6936 C   0  0  0  0  0  0  0  0  0  0  0  0
    6.4835  -12.6718   25.9226 C   0  0  0  0  0  0  0  0  0  0  0  0
    7.2600  -13.5727   26.8374 C   0  0  2  0  0  0  0  0  0  0  0  0
    7.9180  -12.7027   27.8895 C   0  0  0  0  0  0  0  0  0  0  0  0
    8.2333  -14.3957   26.0731 C   0  0  2  0  0  0  0  0  0  0  0  0
    7.6033  -15.0585   24.9396 N   0  0  0  0  0  0  0  0  0  0  0  0
    8.9142  -15.4238   26.8966 C   0  0  0  0  0  0  0  0  0  0  0  0
   10.1352  -15.1245   27.5488 O   0  0  0  0  0  0  0  0  0  0  0  0
    8.4873  -16.5864   27.0755 O   0  0  0  0  0  0  0  0  0  0  0  0
  2  3  1  0
  2  1  1  1
  4  5  2  0
  4  2  1  0
  6  7  1  0
  7  8  2  0
  9  7  1  0
  9 10  1  0
 11 10  1  1
 11 13  1  0
 11 12  1  0
 12  4  1  0
 13 20  1  0
 14 13  2  0
 16 15  1  0
 17 19  1  0
 17 16  1  0
 17 18  1  1
 19 21  1  0
 19 20  1  6
 21 23  2  0
 21 22  1  0
M  END
$$$$
