TFN.pdb
     RDKit          3D

 27 27  0  0  1  0  0  0  0  0999 V2000
   10.0868  -19.5504   19.9506 C   0  0  0  0  0  0  0  0  0  0  0  0
    9.9564  -18.5542   21.0888 C   0  0  1  0  0  0  0  0  0  0  0  0
   11.0660  -18.7703   21.9215 O   0  0  0  0  0  0  0  0  0  0  0  0
    9.9706  -17.1308   20.5499 C   0  0  2  0  0  0  0  0  0  0  0  0
   11.2172  -16.9133   19.8324 N   0  0  0  0  0  0  0  0  0  0  0  0
    9.8869  -16.1391   21.6401 C   0  0  0  0  0  0  0  0  0  0  0  0
   10.9289  -15.5356   22.0672 O   0  0  0  0  0  0  0  0  0  0  0  0
    8.6788  -15.7747   22.2953 N   0  0  0  0  0  0  0  0  0  0  0  0
    8.6148  -14.8540   23.4028 C   0  0  1  0  0  0  0  0  0  0  0  0
    7.1674  -14.5982   23.7317 C   0  0  0  0  0  0  0  0  0  0  0  0
    7.0117  -13.6694   24.8873 C   0  0  0  0  0  0  0  0  0  0  0  0
    7.4912  -12.3804   24.8645 C   0  0  0  0  0  0  0  0  0  0  0  0
    7.3387  -11.5216   25.9555 C   0  0  0  0  0  0  0  0  0  0  0  0
    6.6983  -11.9341   27.1031 C   0  0  0  0  0  0  0  0  0  0  0  0
    6.2154  -13.2260   27.1306 C   0  0  0  0  0  0  0  0  0  0  0  0
    6.3673  -14.0720   26.0524 C   0  0  0  0  0  0  0  0  0  0  0  0
    9.4722  -15.2236   24.5260 C   0  0  0  0  0  0  0  0  0  0  0  0
   10.5215  -14.5181   24.6861 O   0  0  0  0  0  0  0  0  0  0  0  0
   11.4901  -16.6633   29.1113 N   0  0  0  0  0  0  0  0  0  0  0  0
   10.4463  -15.7352   28.9295 C   0  0  0  0  0  0  0  0  0  0  0  0
   10.2032  -14.9388   29.9039 O   0  0  0  0  0  0  0  0  0  0  0  0
    9.5990  -15.5689   27.7454 C   0  0  0  0  0  0  0  0  0  0  0  0
   10.0521  -16.4819   26.6374 C   0  0  2  0  0  0  0  0  0  0  0  0
    9.2529  -16.2623   25.4310 N   0  0  0  0  0  0  0  0  0  0  0  0
    9.9432  -17.9092   26.9282 C   0  0  0  0  0  0  0  0  0  0  0  0
    9.2364  -18.3185   27.8694 O   0  0  0  0  0  0  0  0  0  0  0  0
   10.6028  -18.9145   26.1967 O   0  0  0  0  0  0  0  0  0  0  0  0
  2  1  1  6
  3  2  1  0
  4  2  1  0
  4  5  1  1
  6  4  1  0
  7  6  2  0
  8  6  1  0
  9  8  1  0
  9 10  1  1
 10 11  1  0
 11 12  2  0
 12 13  1  0
 14 13  2  0
 15 14  1  0
 16 11  1  0
 16 15  2  0
 17 18  2  0
 17  9  1  0
 19 20  1  0
 20 21  2  0
 23 22  1  1
 22 20  1  0
 23 24  1  0
 24 17  1  0
 25 23  1  0
 26 25  2  0
 27 25  1  0
M  END
$$$$
