TFN.pdb
     RDKit          3D

 27 27  0  0  1  0  0  0  0  0999 V2000
    7.6812  -18.7482   20.7311 C   0  0  0  0  0  0  0  0  0  0  0  0
    8.7733  -18.2121   19.8229 C   0  0  1  0  0  0  0  0  0  0  0  0
    8.5905  -18.8444   18.5826 O   0  0  0  0  0  0  0  0  0  0  0  0
    8.6409  -16.7035   19.6703 C   0  0  2  0  0  0  0  0  0  0  0  0
    9.6159  -16.2433   18.6937 N   0  0  0  0  0  0  0  0  0  0  0  0
    8.9008  -16.0063   20.9453 C   0  0  0  0  0  0  0  0  0  0  0  0
   10.0865  -15.8924   21.4076 O   0  0  0  0  0  0  0  0  0  0  0  0
    7.8895  -15.4159   21.7516 N   0  0  0  0  0  0  0  0  0  0  0  0
    8.1401  -14.8146   23.0377 C   0  0  1  0  0  0  0  0  0  0  0  0
    6.9619  -13.9498   23.4014 C   0  0  0  0  0  0  0  0  0  0  0  0
    7.1059  -13.3493   24.7582 C   0  0  0  0  0  0  0  0  0  0  0  0
    6.4278  -13.8337   25.8526 C   0  0  0  0  0  0  0  0  0  0  0  0
    6.5722  -13.2599   27.1180 C   0  0  0  0  0  0  0  0  0  0  0  0
    7.4040  -12.1809   27.3206 C   0  0  0  0  0  0  0  0  0  0  0  0
    8.0864  -11.6917   26.2260 C   0  0  0  0  0  0  0  0  0  0  0  0
    7.9422  -12.2596   24.9779 C   0  0  0  0  0  0  0  0  0  0  0  0
    8.5771  -15.7651   24.0569 C   0  0  0  0  0  0  0  0  0  0  0  0
    7.8921  -16.8354   24.1557 O   0  0  0  0  0  0  0  0  0  0  0  0
   12.8445  -19.0304   25.2038 N   0  0  0  0  0  0  0  0  0  0  0  0
   12.6011  -17.7603   25.7620 C   0  0  0  0  0  0  0  0  0  0  0  0
   13.0805  -17.5395   26.9300 O   0  0  0  0  0  0  0  0  0  0  0  0
   11.8598  -16.6496   25.1581 C   0  0  0  0  0  0  0  0  0  0  0  0
   10.3993  -16.7323   25.5136 C   0  0  2  0  0  0  0  0  0  0  0  0
    9.6619  -15.6153   24.9211 N   0  0  0  0  0  0  0  0  0  0  0  0
   10.1067  -16.6834   26.9438 C   0  0  0  0  0  0  0  0  0  0  0  0
    9.7436  -17.7051   27.5581 O   0  0  0  0  0  0  0  0  0  0  0  0
   10.2062  -15.5194   27.7287 O   0  0  0  0  0  0  0  0  0  0  0  0
  2  1  1  1
  3  2  1  0
  4  2  1  0
  4  5  1  6
  6  4  1  0
  7  6  2  0
  8  6  1  0
  9  8  1  0
  9 10  1  1
 10 11  1  0
 11 12  2  0
 12 13  1  0
 14 13  2  0
 15 14  1  0
 16 11  1  0
 16 15  2  0
 17 18  2  0
 17  9  1  0
 19 20  1  0
 20 21  2  0
 23 22  1  1
 22 20  1  0
 23 24  1  0
 24 17  1  0
 25 23  1  0
 26 25  2  0
 27 25  1  0
M  END
$$$$
