TFN.pdb
     RDKit          3D

 27 27  0  0  1  0  0  0  0  0999 V2000
    8.6497  -18.8832   20.9412 C   0  0  0  0  0  0  0  0  0  0  0  0
    9.5671  -18.1394   19.9873 C   0  0  1  0  0  0  0  0  0  0  0  0
    9.5029  -18.8333   18.7684 O   0  0  0  0  0  0  0  0  0  0  0  0
    9.0891  -16.7060   19.8038 C   0  0  2  0  0  0  0  0  0  0  0  0
    9.9244  -16.0570   18.8052 N   0  0  0  0  0  0  0  0  0  0  0  0
    9.1904  -15.9373   21.0600 C   0  0  0  0  0  0  0  0  0  0  0  0
   10.3167  -15.5089   21.4847 O   0  0  0  0  0  0  0  0  0  0  0  0
    8.0809  -15.6126   21.8876 N   0  0  0  0  0  0  0  0  0  0  0  0
    8.1995  -14.9489   23.1620 C   0  0  1  0  0  0  0  0  0  0  0  0
    6.8770  -14.3103   23.4960 C   0  0  0  0  0  0  0  0  0  0  0  0
    6.8927  -13.6587   24.8367 C   0  0  0  0  0  0  0  0  0  0  0  0
    6.2935  -14.2262   25.9371 C   0  0  0  0  0  0  0  0  0  0  0  0
    6.3156  -13.6033   27.1872 C   0  0  0  0  0  0  0  0  0  0  0  0
    6.9419  -12.3899   27.3679 C   0  0  0  0  0  0  0  0  0  0  0  0
    7.5445  -11.8170   26.2672 C   0  0  0  0  0  0  0  0  0  0  0  0
    7.5213  -12.4336   25.0342 C   0  0  0  0  0  0  0  0  0  0  0  0
    8.7920  -15.7808   24.2061 C   0  0  0  0  0  0  0  0  0  0  0  0
    8.2538  -16.9220   24.3864 O   0  0  0  0  0  0  0  0  0  0  0  0
   11.6206  -17.7945   23.7020 N   0  0  0  0  0  0  0  0  0  0  0  0
   12.4421  -17.0834   24.5983 C   0  0  0  0  0  0  0  0  0  0  0  0
   13.7012  -17.0884   24.3585 O   0  0  0  0  0  0  0  0  0  0  0  0
   12.0231  -16.3286   25.7826 C   0  0  0  0  0  0  0  0  0  0  0  0
   10.5269  -16.3793   25.9410 C   0  0  2  0  0  0  0  0  0  0  0  0
    9.8799  -15.4495   25.0140 N   0  0  0  0  0  0  0  0  0  0  0  0
   10.0325  -16.0211   27.2679 C   0  0  0  0  0  0  0  0  0  0  0  0
    9.6438  -16.8974   28.0642 O   0  0  0  0  0  0  0  0  0  0  0  0
    9.9546  -14.7009   27.7494 O   0  0  0  0  0  0  0  0  0  0  0  0
  2  1  1  1
  3  2  1  0
  4  2  1  0
  4  5  1  6
  6  4  1  0
  7  6  2  0
  8  6  1  0
  9  8  1  0
  9 10  1  1
 10 11  1  0
 11 12  2  0
 12 13  1  0
 14 13  2  0
 15 14  1  0
 16 11  1  0
 16 15  2  0
 17 18  2  0
 17  9  1  0
 19 20  1  0
 20 21  2  0
 23 22  1  1
 22 20  1  0
 23 24  1  0
 24 17  1  0
 25 23  1  0
 26 25  2  0
 27 25  1  0
M  END
$$$$
