TFN.pdb
     RDKit          3D

 27 27  0  0  1  0  0  0  0  0999 V2000
    7.4852  -15.7051   17.5202 C   0  0  0  0  0  0  0  0  0  0  0  0
    7.8207  -15.5816   18.9956 C   0  0  1  0  0  0  0  0  0  0  0  0
    9.0403  -16.2543   19.1730 O   0  0  0  0  0  0  0  0  0  0  0  0
    7.9649  -14.1170   19.3842 C   0  0  2  0  0  0  0  0  0  0  0  0
    9.0557  -13.5337   18.6187 N   0  0  0  0  0  0  0  0  0  0  0  0
    8.2766  -13.9666   20.8193 C   0  0  0  0  0  0  0  0  0  0  0  0
    9.4717  -13.7544   21.2183 O   0  0  0  0  0  0  0  0  0  0  0  0
    7.3081  -14.0414   21.8575 N   0  0  0  0  0  0  0  0  0  0  0  0
    7.6161  -13.8617   23.2544 C   0  0  1  0  0  0  0  0  0  0  0  0
    6.7979  -12.7129   23.7828 C   0  0  0  0  0  0  0  0  0  0  0  0
    6.9683  -12.5338   25.2529 C   0  0  0  0  0  0  0  0  0  0  0  0
    5.9164  -12.6376   26.1331 C   0  0  0  0  0  0  0  0  0  0  0  0
    6.0912  -12.4663   27.5084 C   0  0  0  0  0  0  0  0  0  0  0  0
    7.3306  -12.1855   28.0398 C   0  0  0  0  0  0  0  0  0  0  0  0
    8.3886  -12.0808   27.1609 C   0  0  0  0  0  0  0  0  0  0  0  0
    8.2137  -12.2501   25.8038 C   0  0  0  0  0  0  0  0  0  0  0  0
    7.5647  -15.0969   24.0321 C   0  0  0  0  0  0  0  0  0  0  0  0
    6.5231  -15.8147   23.8762 O   0  0  0  0  0  0  0  0  0  0  0  0
    6.6410  -18.2842   23.8158 N   0  0  0  0  0  0  0  0  0  0  0  0
    7.9658  -18.3406   23.3408 C   0  0  0  0  0  0  0  0  0  0  0  0
    8.1699  -19.0194   22.2729 O   0  0  0  0  0  0  0  0  0  0  0  0
    9.1497  -17.7064   23.9274 C   0  0  0  0  0  0  0  0  0  0  0  0
    8.7873  -16.9769   25.1935 C   0  0  2  0  0  0  0  0  0  0  0  0
    8.5375  -15.5613   24.9177 N   0  0  0  0  0  0  0  0  0  0  0  0
    9.8100  -17.0011   26.2360 C   0  0  0  0  0  0  0  0  0  0  0  0
    9.6572  -17.6845   27.2668 O   0  0  0  0  0  0  0  0  0  0  0  0
   11.0174  -16.2808   26.1716 O   0  0  0  0  0  0  0  0  0  0  0  0
  2  1  1  6
  3  2  1  0
  4  2  1  0
  4  5  1  6
  6  4  1  0
  7  6  2  0
  8  6  1  0
  9  8  1  0
  9 10  1  1
 10 11  1  0
 11 12  2  0
 12 13  1  0
 14 13  2  0
 15 14  1  0
 16 11  1  0
 16 15  2  0
 17 18  2  0
 17  9  1  0
 19 20  1  0
 20 21  2  0
 23 22  1  6
 22 20  1  0
 23 24  1  0
 24 17  1  0
 25 23  1  0
 26 25  2  0
 27 25  1  0
M  END
$$$$
