TFN.pdb
     RDKit          3D

 27 27  0  0  1  0  0  0  0  0999 V2000
    7.9753  -18.6887   20.7413 C   0  0  0  0  0  0  0  0  0  0  0  0
    9.0222  -18.0946   19.8163 C   0  0  1  0  0  0  0  0  0  0  0  0
    8.8658  -18.7486   18.5837 O   0  0  0  0  0  0  0  0  0  0  0  0
    8.7947  -16.5985   19.6520 C   0  0  2  0  0  0  0  0  0  0  0  0
    9.7285  -16.0881   18.6603 N   0  0  0  0  0  0  0  0  0  0  0  0
    9.0246  -15.8745   20.9177 C   0  0  0  0  0  0  0  0  0  0  0  0
   10.2065  -15.5977   21.3165 O   0  0  0  0  0  0  0  0  0  0  0  0
    7.9868  -15.4321   21.7829 N   0  0  0  0  0  0  0  0  0  0  0  0
    8.2209  -14.8306   23.0721 C   0  0  1  0  0  0  0  0  0  0  0  0
    7.0538  -13.9388   23.4051 C   0  0  0  0  0  0  0  0  0  0  0  0
    7.1763  -13.3410   24.7652 C   0  0  0  0  0  0  0  0  0  0  0  0
    6.4259  -13.7791   25.8314 C   0  0  0  0  0  0  0  0  0  0  0  0
    6.5510  -13.2085   27.1003 C   0  0  0  0  0  0  0  0  0  0  0  0
    7.4357  -12.1791   27.3347 C   0  0  0  0  0  0  0  0  0  0  0  0
    8.1907  -11.7365   26.2684 C   0  0  0  0  0  0  0  0  0  0  0  0
    8.0654  -12.3012   25.0168 C   0  0  0  0  0  0  0  0  0  0  0  0
    8.6133  -15.7859   24.1049 C   0  0  0  0  0  0  0  0  0  0  0  0
    7.8191  -16.7646   24.2943 O   0  0  0  0  0  0  0  0  0  0  0  0
   12.4712  -16.9142   23.2419 N   0  0  0  0  0  0  0  0  0  0  0  0
   11.9591  -17.6065   24.3565 C   0  0  0  0  0  0  0  0  0  0  0  0
   11.7341  -18.8593   24.2069 O   0  0  0  0  0  0  0  0  0  0  0  0
   11.6529  -17.0589   25.6810 C   0  0  0  0  0  0  0  0  0  0  0  0
   10.1778  -16.7895   25.8146 C   0  0  2  0  0  0  0  0  0  0  0  0
    9.7630  -15.7306   24.8931 N   0  0  0  0  0  0  0  0  0  0  0  0
    9.7463  -16.3507   27.1393 C   0  0  0  0  0  0  0  0  0  0  0  0
    9.0852  -17.1044   27.8794 O   0  0  0  0  0  0  0  0  0  0  0  0
   10.0295  -15.0824   27.6797 O   0  0  0  0  0  0  0  0  0  0  0  0
  2  1  1  1
  3  2  1  0
  4  2  1  0
  4  5  1  6
  6  4  1  0
  7  6  2  0
  8  6  1  0
  9  8  1  0
  9 10  1  1
 10 11  1  0
 11 12  2  0
 12 13  1  0
 14 13  2  0
 15 14  1  0
 16 11  1  0
 16 15  2  0
 17 18  2  0
 17  9  1  0
 19 20  1  0
 20 21  2  0
 23 22  1  1
 22 20  1  0
 23 24  1  0
 24 17  1  0
 25 23  1  0
 26 25  2  0
 27 25  1  0
M  END
$$$$
