TFN.pdb
     RDKit          3D

 27 27  0  0  1  0  0  0  0  0999 V2000
    8.8093  -19.0994   19.4006 C   0  0  0  0  0  0  0  0  0  0  0  0
    8.9023  -18.2767   20.6732 C   0  0  1  0  0  0  0  0  0  0  0  0
   10.0682  -18.7059   21.3274 O   0  0  0  0  0  0  0  0  0  0  0  0
    9.0003  -16.7950   20.3389 C   0  0  2  0  0  0  0  0  0  0  0  0
   10.1885  -16.5744   19.5290 N   0  0  0  0  0  0  0  0  0  0  0  0
    9.1145  -15.9719   21.5589 C   0  0  0  0  0  0  0  0  0  0  0  0
   10.2407  -15.5017   21.9372 O   0  0  0  0  0  0  0  0  0  0  0  0
    8.0180  -15.6363   22.3996 N   0  0  0  0  0  0  0  0  0  0  0  0
    8.1511  -14.9087   23.6371 C   0  0  1  0  0  0  0  0  0  0  0  0
    6.8333  -14.2508   23.9516 C   0  0  0  0  0  0  0  0  0  0  0  0
    6.8843  -13.4756   25.2239 C   0  0  0  0  0  0  0  0  0  0  0  0
    7.2410  -14.0505   26.4215 C   0  0  0  0  0  0  0  0  0  0  0  0
    7.2833  -13.3115   27.6062 C   0  0  0  0  0  0  0  0  0  0  0  0
    6.9681  -11.9708   27.6214 C   0  0  0  0  0  0  0  0  0  0  0  0
    6.6099  -11.3897   26.4226 C   0  0  0  0  0  0  0  0  0  0  0  0
    6.5687  -12.1212   25.2546 C   0  0  0  0  0  0  0  0  0  0  0  0
    8.7529  -15.6877   24.7162 C   0  0  0  0  0  0  0  0  0  0  0  0
    8.9766  -15.0606   25.8029 O   0  0  0  0  0  0  0  0  0  0  0  0
    6.4841  -19.2744   25.3409 N   0  0  0  0  0  0  0  0  0  0  0  0
    7.5440  -18.9147   26.1959 C   0  0  0  0  0  0  0  0  0  0  0  0
    7.2288  -18.3595   27.3073 O   0  0  0  0  0  0  0  0  0  0  0  0
    8.9786  -19.1047   25.9641 C   0  0  0  0  0  0  0  0  0  0  0  0
    9.6689  -17.7770   25.7995 C   0  0  2  0  0  0  0  0  0  0  0  0
    9.0999  -17.0381   24.6713 N   0  0  0  0  0  0  0  0  0  0  0  0
   11.1038  -17.8538   25.5371 C   0  0  0  0  0  0  0  0  0  0  0  0
   11.8728  -18.4126   26.3429 O   0  0  0  0  0  0  0  0  0  0  0  0
   11.7242  -17.3233   24.3907 O   0  0  0  0  0  0  0  0  0  0  0  0
  2  1  1  6
  3  2  1  0
  4  2  1  0
  4  5  1  6
  6  4  1  0
  7  6  2  0
  8  6  1  0
  9  8  1  0
  9 10  1  1
 10 11  1  0
 11 12  2  0
 12 13  1  0
 14 13  2  0
 15 14  1  0
 16 11  1  0
 16 15  2  0
 17 18  2  0
 17  9  1  0
 19 20  1  0
 20 21  2  0
 23 22  1  6
 22 20  1  0
 23 24  1  0
 24 17  1  0
 25 23  1  0
 26 25  2  0
 27 25  1  0
M  END
$$$$
