TFN.pdb
     RDKit          3D

 27 27  0  0  1  0  0  0  0  0999 V2000
    6.6727  -16.0385   19.6406 C   0  0  0  0  0  0  0  0  0  0  0  0
    7.6111  -14.9740   19.1011 C   0  0  1  0  0  0  0  0  0  0  0  0
    7.2563  -14.7911   17.7551 O   0  0  0  0  0  0  0  0  0  0  0  0
    7.4363  -13.6743   19.8739 C   0  0  2  0  0  0  0  0  0  0  0  0
    8.1040  -12.6042   19.1492 N   0  0  0  0  0  0  0  0  0  0  0  0
    8.0336  -13.7617   21.2209 C   0  0  0  0  0  0  0  0  0  0  0  0
    9.2974  -13.6816   21.3910 O   0  0  0  0  0  0  0  0  0  0  0  0
    7.2834  -13.9376   22.4158 N   0  0  0  0  0  0  0  0  0  0  0  0
    7.8791  -14.1414   23.7128 C   0  0  1  0  0  0  0  0  0  0  0  0
    6.9692  -13.5506   24.7575 C   0  0  0  0  0  0  0  0  0  0  0  0
    7.5580  -13.6340   26.1245 C   0  0  0  0  0  0  0  0  0  0  0  0
    7.5630  -14.8007   26.8530 C   0  0  0  0  0  0  0  0  0  0  0  0
    8.1177  -14.8635   28.1335 C   0  0  0  0  0  0  0  0  0  0  0  0
    8.6847  -13.7536   28.7198 C   0  0  0  0  0  0  0  0  0  0  0  0
    8.6823  -12.5812   27.9928 C   0  0  0  0  0  0  0  0  0  0  0  0
    8.1340  -12.5216   26.7291 C   0  0  0  0  0  0  0  0  0  0  0  0
    8.3209  -15.5134   23.9487 C   0  0  0  0  0  0  0  0  0  0  0  0
    7.4730  -16.4282   23.6865 O   0  0  0  0  0  0  0  0  0  0  0  0
   13.1422  -17.5436   23.6640 N   0  0  0  0  0  0  0  0  0  0  0  0
   11.8555  -17.2299   23.1845 C   0  0  0  0  0  0  0  0  0  0  0  0
   11.7624  -16.2314   22.3863 O   0  0  0  0  0  0  0  0  0  0  0  0
   10.5987  -17.9186   23.4909 C   0  0  0  0  0  0  0  0  0  0  0  0
    9.9378  -17.3037   24.6958 C   0  0  2  0  0  0  0  0  0  0  0  0
    9.5692  -15.9130   24.4262 N   0  0  0  0  0  0  0  0  0  0  0  0
   10.7611  -17.2667   25.9017 C   0  0  0  0  0  0  0  0  0  0  0  0
   11.2460  -18.3112   26.3779 O   0  0  0  0  0  0  0  0  0  0  0  0
   11.0702  -16.0895   26.6084 O   0  0  0  0  0  0  0  0  0  0  0  0
  2  1  1  1
  3  2  1  0
  4  2  1  0
  4  5  1  6
  6  4  1  0
  7  6  2  0
  8  6  1  0
  9  8  1  0
  9 10  1  1
 10 11  1  0
 11 12  2  0
 12 13  1  0
 14 13  2  0
 15 14  1  0
 16 11  1  0
 16 15  2  0
 17 18  2  0
 17  9  1  0
 19 20  1  0
 20 21  2  0
 23 22  1  6
 22 20  1  0
 23 24  1  0
 24 17  1  0
 25 23  1  0
 26 25  2  0
 27 25  1  0
M  END
$$$$
