TFN.pdb
     RDKit          3D

 27 27  0  0  1  0  0  0  0  0999 V2000
    6.8897  -14.7887   17.7547 C   0  0  0  0  0  0  0  0  0  0  0  0
    7.3842  -14.9138   19.1846 C   0  0  1  0  0  0  0  0  0  0  0  0
    8.6789  -15.4503   19.1011 O   0  0  0  0  0  0  0  0  0  0  0  0
    7.4220  -13.5465   19.8525 C   0  0  2  0  0  0  0  0  0  0  0  0
    8.2942  -12.6726   19.0833 N   0  0  0  0  0  0  0  0  0  0  0  0
    7.9508  -13.6312   21.2281 C   0  0  0  0  0  0  0  0  0  0  0  0
    9.2079  -13.6180   21.4558 O   0  0  0  0  0  0  0  0  0  0  0  0
    7.1376  -13.7321   22.3900 N   0  0  0  0  0  0  0  0  0  0  0  0
    7.6626  -13.8767   23.7249 C   0  0  1  0  0  0  0  0  0  0  0  0
    6.6438  -13.3506   24.7014 C   0  0  0  0  0  0  0  0  0  0  0  0
    7.1282  -13.4234   26.1093 C   0  0  0  0  0  0  0  0  0  0  0  0
    6.6990  -14.3930   26.9855 C   0  0  0  0  0  0  0  0  0  0  0  0
    7.1611  -14.4481   28.3025 C   0  0  0  0  0  0  0  0  0  0  0  0
    8.0699  -13.5287   28.7780 C   0  0  0  0  0  0  0  0  0  0  0  0
    8.5035  -12.5545   27.9028 C   0  0  0  0  0  0  0  0  0  0  0  0
    8.0458  -12.5020   26.6033 C   0  0  0  0  0  0  0  0  0  0  0  0
    8.1945  -15.2073   24.0073 C   0  0  0  0  0  0  0  0  0  0  0  0
    7.4848  -16.1900   23.6134 O   0  0  0  0  0  0  0  0  0  0  0  0
   11.7143  -19.3601   23.3252 N   0  0  0  0  0  0  0  0  0  0  0  0
   11.8779  -18.2456   24.1708 C   0  0  0  0  0  0  0  0  0  0  0  0
   12.6408  -18.3984   25.1894 O   0  0  0  0  0  0  0  0  0  0  0  0
   11.2754  -16.9181   24.0208 C   0  0  0  0  0  0  0  0  0  0  0  0
    9.9645  -16.8451   24.7575 C   0  0  2  0  0  0  0  0  0  0  0  0
    9.3930  -15.5013   24.6580 N   0  0  0  0  0  0  0  0  0  0  0  0
   10.0408  -17.1364   26.1867 C   0  0  0  0  0  0  0  0  0  0  0  0
   10.3587  -16.2513   27.0043 O   0  0  0  0  0  0  0  0  0  0  0  0
    9.7706  -18.3981   26.7488 O   0  0  0  0  0  0  0  0  0  0  0  0
  2  1  1  6
  3  2  1  0
  4  2  1  0
  4  5  1  6
  6  4  1  0
  7  6  2  0
  8  6  1  0
  9  8  1  0
  9 10  1  1
 10 11  1  0
 11 12  2  0
 12 13  1  0
 14 13  2  0
 15 14  1  0
 16 11  1  0
 16 15  2  0
 17 18  2  0
 17  9  1  0
 19 20  1  0
 20 21  2  0
 23 22  1  1
 22 20  1  0
 23 24  1  0
 24 17  1  0
 25 23  1  0
 26 25  2  0
 27 25  1  0
M  END
$$$$
