TFN.pdb
     RDKit          3D

 27 27  0  0  1  0  0  0  0  0999 V2000
    8.1677  -18.8542   21.0324 C   0  0  0  0  0  0  0  0  0  0  0  0
    8.9721  -18.1419   19.9599 C   0  0  1  0  0  0  0  0  0  0  0  0
    8.7853  -18.8811   18.7809 O   0  0  0  0  0  0  0  0  0  0  0  0
    8.4645  -16.7187   19.7761 C   0  0  2  0  0  0  0  0  0  0  0  0
    9.1411  -16.1231   18.6343 N   0  0  0  0  0  0  0  0  0  0  0  0
    8.7445  -15.8873   20.9633 C   0  0  0  0  0  0  0  0  0  0  0  0
    9.9196  -15.4447   21.1991 O   0  0  0  0  0  0  0  0  0  0  0  0
    7.7650  -15.5136   21.9237 N   0  0  0  0  0  0  0  0  0  0  0  0
    8.0706  -14.8246   23.1527 C   0  0  1  0  0  0  0  0  0  0  0  0
    6.8482  -14.0629   23.5932 C   0  0  0  0  0  0  0  0  0  0  0  0
    7.0348  -13.4293   24.9296 C   0  0  0  0  0  0  0  0  0  0  0  0
    6.4652  -13.9413   26.0721 C   0  0  0  0  0  0  0  0  0  0  0  0
    6.6482  -13.3360   27.3177 C   0  0  0  0  0  0  0  0  0  0  0  0
    7.4106  -12.1966   27.4512 C   0  0  0  0  0  0  0  0  0  0  0  0
    7.9841  -11.6796   26.3081 C   0  0  0  0  0  0  0  0  0  0  0  0
    7.8019  -12.2787   25.0797 C   0  0  0  0  0  0  0  0  0  0  0  0
    8.6963  -15.6732   24.1635 C   0  0  0  0  0  0  0  0  0  0  0  0
    8.2321  -16.8555   24.2683 O   0  0  0  0  0  0  0  0  0  0  0  0
   13.0997  -18.1119   25.4676 N   0  0  0  0  0  0  0  0  0  0  0  0
   13.1869  -16.7606   25.0797 C   0  0  0  0  0  0  0  0  0  0  0  0
   14.3534  -16.2297   25.0885 O   0  0  0  0  0  0  0  0  0  0  0  0
   12.0913  -15.8822   24.6602 C   0  0  0  0  0  0  0  0  0  0  0  0
   10.8269  -16.2205   25.4041 C   0  0  2  0  0  0  0  0  0  0  0  0
    9.7434  -15.3171   25.0137 N   0  0  0  0  0  0  0  0  0  0  0  0
   10.9189  -16.1207   26.8584 C   0  0  0  0  0  0  0  0  0  0  0  0
   11.8497  -16.6686   27.4799 O   0  0  0  0  0  0  0  0  0  0  0  0
    9.9975  -15.4207   27.6595 O   0  0  0  0  0  0  0  0  0  0  0  0
  2  1  1  1
  3  2  1  0
  4  2  1  0
  4  5  1  6
  6  4  1  0
  7  6  2  0
  8  6  1  0
  9  8  1  0
  9 10  1  1
 10 11  1  0
 11 12  2  0
 12 13  1  0
 14 13  2  0
 15 14  1  0
 16 11  1  0
 16 15  2  0
 17 18  2  0
 17  9  1  0
 19 20  1  0
 20 21  2  0
 23 22  1  6
 22 20  1  0
 23 24  1  0
 24 17  1  0
 25 23  1  0
 26 25  2  0
 27 25  1  0
M  END
$$$$
