TFN.pdb
     RDKit          3D

 27 27  0  0  1  0  0  0  0  0999 V2000
    6.5785  -14.5918   18.3911 C   0  0  0  0  0  0  0  0  0  0  0  0
    7.1484  -14.7734   19.7864 C   0  0  1  0  0  0  0  0  0  0  0  0
    8.1918  -15.7045   19.6604 O   0  0  0  0  0  0  0  0  0  0  0  0
    7.6835  -13.4502   20.3153 C   0  0  2  0  0  0  0  0  0  0  0  0
    8.7131  -12.9648   19.4094 N   0  0  0  0  0  0  0  0  0  0  0  0
    8.2840  -13.6064   21.6547 C   0  0  0  0  0  0  0  0  0  0  0  0
    9.5468  -13.7316   21.8033 O   0  0  0  0  0  0  0  0  0  0  0  0
    7.5381  -13.6314   22.8648 N   0  0  0  0  0  0  0  0  0  0  0  0
    8.1161  -13.9082   24.1563 C   0  0  1  0  0  0  0  0  0  0  0  0
    7.4219  -13.0558   25.1858 C   0  0  0  0  0  0  0  0  0  0  0  0
    7.9376  -13.3084   26.5615 C   0  0  0  0  0  0  0  0  0  0  0  0
    7.1022  -13.5494   27.6273 C   0  0  0  0  0  0  0  0  0  0  0  0
    7.6000  -13.7836   28.9113 C   0  0  0  0  0  0  0  0  0  0  0  0
    8.9545  -13.7825   29.1616 C   0  0  0  0  0  0  0  0  0  0  0  0
    9.7963  -13.5414   28.0958 C   0  0  0  0  0  0  0  0  0  0  0  0
    9.3026  -13.3104   26.8293 C   0  0  0  0  0  0  0  0  0  0  0  0
    8.2151  -15.3325   24.4639 C   0  0  0  0  0  0  0  0  0  0  0  0
    7.2892  -16.0728   23.9959 O   0  0  0  0  0  0  0  0  0  0  0  0
   10.3283  -19.7788   22.8642 N   0  0  0  0  0  0  0  0  0  0  0  0
   10.9711  -18.5754   23.2146 C   0  0  0  0  0  0  0  0  0  0  0  0
   12.2502  -18.6027   23.2901 O   0  0  0  0  0  0  0  0  0  0  0  0
   10.3443  -17.2825   23.5030 C   0  0  0  0  0  0  0  0  0  0  0  0
    9.7788  -17.2675   24.8982 C   0  0  2  0  0  0  0  0  0  0  0  0
    9.2168  -15.9527   25.2110 N   0  0  0  0  0  0  0  0  0  0  0  0
   10.7426  -17.5470   25.9595 C   0  0  0  0  0  0  0  0  0  0  0  0
   11.5214  -16.6631   26.3660 O   0  0  0  0  0  0  0  0  0  0  0  0
   10.8728  -18.7953   26.5963 O   0  0  0  0  0  0  0  0  0  0  0  0
  2  1  1  6
  3  2  1  0
  4  2  1  0
  4  5  1  6
  6  4  1  0
  7  6  2  0
  8  6  1  0
  9  8  1  0
  9 10  1  1
 10 11  1  0
 11 12  2  0
 12 13  1  0
 14 13  2  0
 15 14  1  0
 16 11  1  0
 16 15  2  0
 17 18  2  0
 17  9  1  0
 19 20  1  0
 20 21  2  0
 23 22  1  6
 22 20  1  0
 23 24  1  0
 24 17  1  0
 25 23  1  0
 26 25  2  0
 27 25  1  0
M  END
$$$$
