TFN.pdb
     RDKit          3D

 27 27  0  0  1  0  0  0  0  0999 V2000
    7.4383  -18.4049   20.5856 C   0  0  0  0  0  0  0  0  0  0  0  0
    8.6519  -17.9650   19.7865 C   0  0  1  0  0  0  0  0  0  0  0  0
    8.5162  -18.5552   18.5198 O   0  0  0  0  0  0  0  0  0  0  0  0
    8.6810  -16.4483   19.6612 C   0  0  2  0  0  0  0  0  0  0  0  0
    9.7640  -16.0722   18.7659 N   0  0  0  0  0  0  0  0  0  0  0  0
    8.9170  -15.8023   20.9674 C   0  0  0  0  0  0  0  0  0  0  0  0
   10.0627  -15.8481   21.5310 O   0  0  0  0  0  0  0  0  0  0  0  0
    7.9242  -15.0923   21.6966 N   0  0  0  0  0  0  0  0  0  0  0  0
    8.1152  -14.5990   23.0378 C   0  0  1  0  0  0  0  0  0  0  0  0
    6.9744  -13.6760   23.3771 C   0  0  0  0  0  0  0  0  0  0  0  0
    7.0492  -13.1872   24.7834 C   0  0  0  0  0  0  0  0  0  0  0  0
    6.1629  -13.5967   25.7523 C   0  0  0  0  0  0  0  0  0  0  0  0
    6.2448  -13.1292   27.0661 C   0  0  0  0  0  0  0  0  0  0  0  0
    7.2218  -12.2353   27.4449 C   0  0  0  0  0  0  0  0  0  0  0  0
    8.1132  -11.8220   26.4766 C   0  0  0  0  0  0  0  0  0  0  0  0
    8.0303  -12.2846   25.1804 C   0  0  0  0  0  0  0  0  0  0  0  0
    8.4056  -15.6457   24.0141 C   0  0  0  0  0  0  0  0  0  0  0  0
    7.4803  -16.4995   24.2127 O   0  0  0  0  0  0  0  0  0  0  0  0
   10.5811  -18.1352   23.1731 N   0  0  0  0  0  0  0  0  0  0  0  0
   11.4046  -18.1690   24.3153 C   0  0  0  0  0  0  0  0  0  0  0  0
   12.4103  -18.9627   24.2809 O   0  0  0  0  0  0  0  0  0  0  0  0
   11.2475  -17.3942   25.5494 C   0  0  0  0  0  0  0  0  0  0  0  0
    9.8349  -16.8911   25.6827 C   0  0  2  0  0  0  0  0  0  0  0  0
    9.5869  -15.7991   24.7401 N   0  0  0  0  0  0  0  0  0  0  0  0
    9.4881  -16.3619   26.9992 C   0  0  0  0  0  0  0  0  0  0  0  0
    8.6071  -16.9032   27.6948 O   0  0  0  0  0  0  0  0  0  0  0  0
   10.0970  -15.2338   27.5799 O   0  0  0  0  0  0  0  0  0  0  0  0
  2  1  1  1
  3  2  1  0
  4  2  1  0
  4  5  1  6
  6  4  1  0
  7  6  2  0
  8  6  1  0
  9  8  1  0
  9 10  1  1
 10 11  1  0
 11 12  2  0
 12 13  1  0
 14 13  2  0
 15 14  1  0
 16 11  1  0
 16 15  2  0
 17 18  2  0
 17  9  1  0
 19 20  1  0
 20 21  2  0
 23 22  1  1
 22 20  1  0
 23 24  1  0
 24 17  1  0
 25 23  1  0
 26 25  2  0
 27 25  1  0
M  END
$$$$
