TFN.pdb
     RDKit          3D

 27 27  0  0  1  0  0  0  0  0999 V2000
    7.2788  -14.7346   17.8050 C   0  0  0  0  0  0  0  0  0  0  0  0
    7.7849  -14.9789   19.2153 C   0  0  1  0  0  0  0  0  0  0  0  0
    9.1402  -15.3222   19.0863 O   0  0  0  0  0  0  0  0  0  0  0  0
    7.6379  -13.7183   20.0556 C   0  0  2  0  0  0  0  0  0  0  0  0
    8.4485  -12.6642   19.4658 N   0  0  0  0  0  0  0  0  0  0  0  0
    8.0997  -13.9349   21.4408 C   0  0  0  0  0  0  0  0  0  0  0  0
    9.2733  -13.5889   21.8089 O   0  0  0  0  0  0  0  0  0  0  0  0
    7.3081  -14.5294   22.4613 N   0  0  0  0  0  0  0  0  0  0  0  0
    7.7818  -14.7768   23.8003 C   0  0  1  0  0  0  0  0  0  0  0  0
    6.6121  -14.6982   24.7458 C   0  0  0  0  0  0  0  0  0  0  0  0
    6.6820  -13.4956   25.6239 C   0  0  0  0  0  0  0  0  0  0  0  0
    5.5591  -12.9131   26.1641 C   0  0  0  0  0  0  0  0  0  0  0  0
    5.6402  -11.7855   26.9846 C   0  0  0  0  0  0  0  0  0  0  0  0
    6.8545  -11.2098   27.2868 C   0  0  0  0  0  0  0  0  0  0  0  0
    7.9835  -11.7907   26.7476 C   0  0  0  0  0  0  0  0  0  0  0  0
    7.9011  -12.9035   25.9378 C   0  0  0  0  0  0  0  0  0  0  0  0
    8.6223  -15.9656   23.9171 C   0  0  0  0  0  0  0  0  0  0  0  0
    8.0930  -17.0648   23.5482 O   0  0  0  0  0  0  0  0  0  0  0  0
   11.6802  -17.4659   21.6655 N   0  0  0  0  0  0  0  0  0  0  0  0
   12.2080  -16.7338   22.7469 C   0  0  0  0  0  0  0  0  0  0  0  0
   12.8314  -15.6504   22.4635 O   0  0  0  0  0  0  0  0  0  0  0  0
   12.1255  -17.0662   24.1718 C   0  0  0  0  0  0  0  0  0  0  0  0
   10.6909  -17.2479   24.5910 C   0  0  2  0  0  0  0  0  0  0  0  0
    9.9351  -16.0112   24.3868 N   0  0  0  0  0  0  0  0  0  0  0  0
   10.4965  -17.6016   25.9948 C   0  0  0  0  0  0  0  0  0  0  0  0
   10.7438  -18.7519   26.4052 O   0  0  0  0  0  0  0  0  0  0  0  0
   10.0298  -16.7061   26.9752 O   0  0  0  0  0  0  0  0  0  0  0  0
  2  1  1  6
  3  2  1  0
  4  2  1  0
  4  5  1  6
  6  4  1  0
  7  6  2  0
  8  6  1  0
  9  8  1  0
  9 10  1  1
 10 11  1  0
 11 12  2  0
 12 13  1  0
 14 13  2  0
 15 14  1  0
 16 11  1  0
 16 15  2  0
 17 18  2  0
 17  9  1  0
 19 20  1  0
 20 21  2  0
 23 22  1  1
 22 20  1  0
 23 24  1  0
 24 17  1  0
 25 23  1  0
 26 25  2  0
 27 25  1  0
M  END
$$$$
