TFN.pdb
     RDKit          3D

 27 27  0  0  1  0  0  0  0  0999 V2000
    8.1648  -19.1723   19.2297 C   0  0  0  0  0  0  0  0  0  0  0  0
    8.4248  -18.3014   20.4458 C   0  0  1  0  0  0  0  0  0  0  0  0
    9.6575  -18.7243   20.9684 O   0  0  0  0  0  0  0  0  0  0  0  0
    8.4986  -16.8360   20.0406 C   0  0  2  0  0  0  0  0  0  0  0  0
    9.5805  -16.6681   19.0827 N   0  0  0  0  0  0  0  0  0  0  0  0
    8.7719  -15.9671   21.2021 C   0  0  0  0  0  0  0  0  0  0  0  0
    9.9122  -15.4127   21.3602 O   0  0  0  0  0  0  0  0  0  0  0  0
    7.8233  -15.6753   22.2202 N   0  0  0  0  0  0  0  0  0  0  0  0
    8.1043  -14.8397   23.3610 C   0  0  1  0  0  0  0  0  0  0  0  0
    6.8004  -14.3266   23.9133 C   0  0  0  0  0  0  0  0  0  0  0  0
    7.0053  -13.4039   25.0661 C   0  0  0  0  0  0  0  0  0  0  0  0
    7.6863  -12.2151   24.9445 C   0  0  0  0  0  0  0  0  0  0  0  0
    7.8713  -11.3609   26.0342 C   0  0  0  0  0  0  0  0  0  0  0  0
    7.3761  -11.6774   27.2800 C   0  0  0  0  0  0  0  0  0  0  0  0
    6.6922  -12.8686   27.4068 C   0  0  0  0  0  0  0  0  0  0  0  0
    6.5110  -13.7102   26.3298 C   0  0  0  0  0  0  0  0  0  0  0  0
    9.0148  -15.4489   24.3269 C   0  0  0  0  0  0  0  0  0  0  0  0
    9.3398  -14.7253   25.3246 O   0  0  0  0  0  0  0  0  0  0  0  0
   13.2065  -17.1296   23.1205 N   0  0  0  0  0  0  0  0  0  0  0  0
   12.6973  -17.4687   24.3893 C   0  0  0  0  0  0  0  0  0  0  0  0
   13.0599  -18.5975   24.8761 O   0  0  0  0  0  0  0  0  0  0  0  0
   11.7955  -16.6743   25.2281 C   0  0  0  0  0  0  0  0  0  0  0  0
   10.4307  -17.3073   25.2856 C   0  0  2  0  0  0  0  0  0  0  0  0
    9.5545  -16.7337   24.2631 N   0  0  0  0  0  0  0  0  0  0  0  0
    9.7228  -17.1378   26.5519 C   0  0  0  0  0  0  0  0  0  0  0  0
    9.0544  -18.0688   27.0411 O   0  0  0  0  0  0  0  0  0  0  0  0
    9.7326  -15.9500   27.3067 O   0  0  0  0  0  0  0  0  0  0  0  0
  2  1  1  6
  3  2  1  0
  4  2  1  0
  4  5  1  6
  6  4  1  0
  7  6  2  0
  8  6  1  0
  9  8  1  0
  9 10  1  1
 10 11  1  0
 11 12  2  0
 12 13  1  0
 14 13  2  0
 15 14  1  0
 16 11  1  0
 16 15  2  0
 17 18  2  0
 17  9  1  0
 19 20  1  0
 20 21  2  0
 23 22  1  1
 22 20  1  0
 23 24  1  0
 24 17  1  0
 25 23  1  0
 26 25  2  0
 27 25  1  0
M  END
$$$$
