TFN.pdb
     RDKit          3D

 27 27  0  0  1  0  0  0  0  0999 V2000
    7.2114  -14.8124   17.0530 C   0  0  0  0  0  0  0  0  0  0  0  0
    7.6524  -14.8815   18.5040 C   0  0  1  0  0  0  0  0  0  0  0  0
    8.9882  -15.3134   18.4826 O   0  0  0  0  0  0  0  0  0  0  0  0
    7.5526  -13.5082   19.1528 C   0  0  2  0  0  0  0  0  0  0  0  0
    8.4011  -12.5807   18.4208 N   0  0  0  0  0  0  0  0  0  0  0  0
    8.0073  -13.5392   20.5569 C   0  0  0  0  0  0  0  0  0  0  0  0
    9.2360  -13.3615   20.8587 O   0  0  0  0  0  0  0  0  0  0  0  0
    7.1489  -13.7625   21.6681 N   0  0  0  0  0  0  0  0  0  0  0  0
    7.6046  -13.8116   23.0350 C   0  0  1  0  0  0  0  0  0  0  0  0
    6.4914  -13.3340   23.9299 C   0  0  0  0  0  0  0  0  0  0  0  0
    6.8995  -13.3038   25.3634 C   0  0  0  0  0  0  0  0  0  0  0  0
    6.8080  -14.4088   26.1774 C   0  0  0  0  0  0  0  0  0  0  0  0
    7.1934  -14.3652   27.5194 C   0  0  0  0  0  0  0  0  0  0  0  0
    7.6830  -13.2077   28.0830 C   0  0  0  0  0  0  0  0  0  0  0  0
    7.7768  -12.0969   27.2704 C   0  0  0  0  0  0  0  0  0  0  0  0
    7.3956  -12.1423   25.9462 C   0  0  0  0  0  0  0  0  0  0  0  0
    8.2239  -15.0819   23.4038 C   0  0  0  0  0  0  0  0  0  0  0  0
    7.6674  -16.1317   22.9426 O   0  0  0  0  0  0  0  0  0  0  0  0
   12.3170  -18.7697   23.1854 N   0  0  0  0  0  0  0  0  0  0  0  0
   12.2261  -17.6302   24.0082 C   0  0  0  0  0  0  0  0  0  0  0  0
   12.8887  -17.6535   25.1051 O   0  0  0  0  0  0  0  0  0  0  0  0
   11.4584  -16.4079   23.7547 C   0  0  0  0  0  0  0  0  0  0  0  0
   10.0766  -16.5189   24.3421 C   0  0  2  0  0  0  0  0  0  0  0  0
    9.3552  -15.2531   24.2020 N   0  0  0  0  0  0  0  0  0  0  0  0
   10.0336  -16.8418   25.7659 C   0  0  0  0  0  0  0  0  0  0  0  0
    9.9633  -15.9415   26.6246 O   0  0  0  0  0  0  0  0  0  0  0  0
   10.0655  -18.1526   26.2774 O   0  0  0  0  0  0  0  0  0  0  0  0
  2  1  1  6
  3  2  1  0
  4  2  1  0
  4  5  1  6
  6  4  1  0
  7  6  2  0
  8  6  1  0
  9  8  1  0
  9 10  1  1
 10 11  1  0
 11 12  2  0
 12 13  1  0
 14 13  2  0
 15 14  1  0
 16 11  1  0
 16 15  2  0
 17 18  2  0
 17  9  1  0
 19 20  1  0
 20 21  2  0
 23 22  1  1
 22 20  1  0
 23 24  1  0
 24 17  1  0
 25 23  1  0
 26 25  2  0
 27 25  1  0
M  END
$$$$
