TFN.pdb
     RDKit          3D

 27 27  0  0  1  0  0  0  0  0999 V2000
    8.7541  -18.7082   18.6894 C   0  0  0  0  0  0  0  0  0  0  0  0
    8.8882  -18.0322   20.0421 C   0  0  1  0  0  0  0  0  0  0  0  0
    9.9091  -18.7189   20.7186 O   0  0  0  0  0  0  0  0  0  0  0  0
    9.2644  -16.5678   19.8663 C   0  0  2  0  0  0  0  0  0  0  0  0
   10.5603  -16.4919   19.2098 N   0  0  0  0  0  0  0  0  0  0  0  0
    9.3647  -15.8755   21.1662 C   0  0  0  0  0  0  0  0  0  0  0  0
   10.4851  -15.7588   21.7691 O   0  0  0  0  0  0  0  0  0  0  0  0
    8.2604  -15.2931   21.8465 N   0  0  0  0  0  0  0  0  0  0  0  0
    8.3302  -14.7754   23.1902 C   0  0  1  0  0  0  0  0  0  0  0  0
    7.1172  -13.9179   23.4382 C   0  0  0  0  0  0  0  0  0  0  0  0
    7.1231  -13.3215   24.8044 C   0  0  0  0  0  0  0  0  0  0  0  0
    6.2872  -13.7634   25.8034 C   0  0  0  0  0  0  0  0  0  0  0  0
    6.3034  -13.1941   27.0789 C   0  0  0  0  0  0  0  0  0  0  0  0
    7.1620  -12.1623   27.3879 C   0  0  0  0  0  0  0  0  0  0  0  0
    8.0025  -11.7158   26.3893 C   0  0  0  0  0  0  0  0  0  0  0  0
    7.9846  -12.2792   25.1310 C   0  0  0  0  0  0  0  0  0  0  0  0
    8.6136  -15.7929   24.1991 C   0  0  0  0  0  0  0  0  0  0  0  0
    7.7653  -16.7393   24.2945 O   0  0  0  0  0  0  0  0  0  0  0  0
   12.3977  -17.6952   23.3199 N   0  0  0  0  0  0  0  0  0  0  0  0
   11.4679  -18.0291   24.3239 C   0  0  0  0  0  0  0  0  0  0  0  0
   10.5852  -18.9094   24.0263 O   0  0  0  0  0  0  0  0  0  0  0  0
   11.3914  -17.4857   25.6829 C   0  0  0  0  0  0  0  0  0  0  0  0
   10.0155  -16.9403   25.9586 C   0  0  2  0  0  0  0  0  0  0  0  0
    9.7133  -15.8277   25.0568 N   0  0  0  0  0  0  0  0  0  0  0  0
    9.8154  -16.4193   27.3084 C   0  0  0  0  0  0  0  0  0  0  0  0
   10.3613  -16.9588   28.2902 O   0  0  0  0  0  0  0  0  0  0  0  0
    9.0169  -15.3003   27.6103 O   0  0  0  0  0  0  0  0  0  0  0  0
  2  1  1  6
  3  2  1  0
  4  2  1  0
  4  5  1  1
  6  4  1  0
  7  6  2  0
  8  6  1  0
  9  8  1  0
  9 10  1  1
 10 11  1  0
 11 12  2  0
 12 13  1  0
 14 13  2  0
 15 14  1  0
 16 11  1  0
 16 15  2  0
 17 18  2  0
 17  9  1  0
 19 20  1  0
 20 21  2  0
 23 22  1  1
 22 20  1  0
 23 24  1  0
 24 17  1  0
 25 23  1  0
 26 25  2  0
 27 25  1  0
M  END
$$$$
