NTL.pdb
     RDKit          3D

 24 23  0  0  1  0  0  0  0  0999 V2000
   25.6786  -21.0708   -8.7407 N   0  0  0  0  0  0  0  0  0  0  0  0
   25.0470  -20.5084   -9.8832 C   0  0  0  0  0  0  0  0  0  0  0  0
   23.9532  -19.8871   -9.7784 O   0  0  0  0  0  0  0  0  0  0  0  0
   25.7168  -20.6787  -11.1884 C   0  0  0  0  0  0  0  0  0  0  0  0
   24.7178  -21.0248  -12.2773 C   0  0  2  0  0  0  0  0  0  0  0  0
   24.2473  -22.3616  -12.0127 N   0  0  0  0  0  0  0  0  0  0  0  0
   25.4005  -20.9132  -13.5860 C   0  0  0  0  0  0  0  0  0  0  0  0
   26.4094  -21.6255  -13.7912 O   0  0  0  0  0  0  0  0  0  0  0  0
   24.2825  -22.3092  -16.5213 C   0  0  0  0  0  0  0  0  0  0  0  0
   24.3649  -20.8299  -16.8500 C   0  0  1  0  0  0  0  0  0  0  0  0
   23.1340  -20.2175  -16.8068 O   0  0  0  0  0  0  0  0  0  0  0  0
   25.3908  -20.1359  -15.9645 C   0  0  2  0  0  0  0  0  0  0  0  0
   24.9589  -20.0371  -14.6081 N   0  0  0  0  0  0  0  0  0  0  0  0
   25.6692  -18.8054  -16.5783 C   0  0  0  0  0  0  0  0  0  0  0  0
   25.5510  -17.7640  -15.8830 O   0  0  0  0  0  0  0  0  0  0  0  0
   30.1872  -16.2205  -17.4717 C   0  0  0  0  0  0  0  0  0  0  0  0
   28.7238  -16.0114  -17.8694 C   0  0  2  0  0  0  0  0  0  0  0  0
   28.2406  -14.7052  -17.3914 C   0  0  0  0  0  0  0  0  0  0  0  0
   27.8985  -17.2109  -17.6631 C   0  0  0  0  0  0  0  0  0  0  0  0
   26.6515  -17.3940  -18.4393 C   0  0  2  0  0  0  0  0  0  0  0  0
   26.0660  -18.6608  -17.9271 N   0  0  0  0  0  0  0  0  0  0  0  0
   26.8355  -17.5832  -19.8806 C   0  0  0  0  0  0  0  0  0  0  0  0
   26.6866  -16.5178  -20.7494 O   0  0  0  0  0  0  0  0  0  0  0  0
   27.1284  -18.6842  -20.3915 O   0  0  0  0  0  0  0  0  0  0  0  0
  1  2  1  0
  2  4  1  0
  3  2  2  0
  4  5  1  0
  5  7  1  0
  5  6  1  1
  7  8  2  0
 10  9  1  1
 10 12  1  0
 11 10  1  0
 12 14  1  0
 12 13  1  1
 13  7  1  0
 14 21  1  0
 15 14  2  0
 17 18  1  1
 17 16  1  0
 19 17  1  0
 20 19  1  1
 21 20  1  0
 22 20  1  0
 23 22  1  0
 24 22  2  0
M  END
$$$$
