NTL.pdb
     RDKit          3D

 24 23  0  0  1  0  0  0  0  0999 V2000
   21.5273  -19.3204  -13.8678 N   0  0  0  0  0  0  0  0  0  0  0  0
   21.2923  -19.4184  -12.4693 C   0  0  0  0  0  0  0  0  0  0  0  0
   20.3266  -18.8094  -11.9308 O   0  0  0  0  0  0  0  0  0  0  0  0
   22.2164  -20.2550  -11.6773 C   0  0  0  0  0  0  0  0  0  0  0  0
   23.2964  -20.8615  -12.5541 C   0  0  2  0  0  0  0  0  0  0  0  0
   22.6993  -21.9681  -13.2594 N   0  0  0  0  0  0  0  0  0  0  0  0
   24.4179  -21.2828  -11.6846 C   0  0  0  0  0  0  0  0  0  0  0  0
   24.2695  -22.3069  -10.9799 O   0  0  0  0  0  0  0  0  0  0  0  0
   29.2356  -21.0972  -10.5665 C   0  0  0  0  0  0  0  0  0  0  0  0
   28.0874  -20.6022  -11.4268 C   0  0  1  0  0  0  0  0  0  0  0  0
   28.2079  -21.0032  -12.7369 O   0  0  0  0  0  0  0  0  0  0  0  0
   26.7481  -20.9961  -10.8190 C   0  0  2  0  0  0  0  0  0  0  0  0
   25.6442  -20.5764  -11.6198 N   0  0  0  0  0  0  0  0  0  0  0  0
   26.7092  -20.4266   -9.4411 C   0  0  0  0  0  0  0  0  0  0  0  0
   26.0195  -19.3999   -9.2130 O   0  0  0  0  0  0  0  0  0  0  0  0
   30.2200  -21.2352   -4.4782 C   0  0  0  0  0  0  0  0  0  0  0  0
   28.8669  -20.6705   -4.9183 C   0  0  2  0  0  0  0  0  0  0  0  0
   27.8960  -20.7362   -3.8133 C   0  0  0  0  0  0  0  0  0  0  0  0
   28.4700  -21.1190   -6.2615 C   0  0  0  0  0  0  0  0  0  0  0  0
   27.4332  -20.3771   -7.0134 C   0  0  2  0  0  0  0  0  0  0  0  0
   27.4237  -20.9983   -8.3639 N   0  0  0  0  0  0  0  0  0  0  0  0
   27.7114  -18.9535   -7.2212 C   0  0  0  0  0  0  0  0  0  0  0  0
   28.5483  -18.5477   -8.2443 O   0  0  0  0  0  0  0  0  0  0  0  0
   27.2235  -18.0525   -6.5075 O   0  0  0  0  0  0  0  0  0  0  0  0
  1  2  1  0
  2  4  1  0
  3  2  2  0
  4  5  1  0
  5  7  1  0
  5  6  1  1
  7  8  2  0
 10  9  1  1
 10 12  1  0
 11 10  1  0
 12 14  1  0
 12 13  1  6
 13  7  1  0
 14 21  1  0
 15 14  2  0
 17 18  1  1
 17 16  1  0
 19 17  1  0
 20 19  1  1
 21 20  1  0
 22 20  1  0
 23 22  1  0
 24 22  2  0
M  END
$$$$
