NTL.pdb
     RDKit          3D

 24 23  0  0  1  0  0  0  0  0999 V2000
   17.5691  -17.8129  -17.7569 N   0  0  0  0  0  0  0  0  0  0  0  0
   17.5873  -17.8030  -16.3356 C   0  0  0  0  0  0  0  0  0  0  0  0
   17.0214  -18.7173  -15.6744 O   0  0  0  0  0  0  0  0  0  0  0  0
   18.2898  -16.6884  -15.6682 C   0  0  0  0  0  0  0  0  0  0  0  0
   18.9443  -15.7669  -16.6811 C   0  0  2  0  0  0  0  0  0  0  0  0
   20.0677  -16.4779  -17.2385 N   0  0  0  0  0  0  0  0  0  0  0  0
   19.3489  -14.5248  -15.9849 C   0  0  0  0  0  0  0  0  0  0  0  0
   18.8062  -14.2553  -14.8893 O   0  0  0  0  0  0  0  0  0  0  0  0
   23.0156  -13.2132  -15.2431 C   0  0  0  0  0  0  0  0  0  0  0  0
   22.2083  -12.1630  -15.9838 C   0  0  1  0  0  0  0  0  0  0  0  0
   22.6013  -12.0334  -17.2955 O   0  0  0  0  0  0  0  0  0  0  0  0
   20.7161  -12.4335  -15.8480 C   0  0  2  0  0  0  0  0  0  0  0  0
   20.3201  -13.6354  -16.5073 N   0  0  0  0  0  0  0  0  0  0  0  0
   20.0048  -11.2303  -16.3683 C   0  0  0  0  0  0  0  0  0  0  0  0
   19.5438  -11.2395  -17.5385 O   0  0  0  0  0  0  0  0  0  0  0  0
   17.2001   -6.5460  -15.7535 C   0  0  0  0  0  0  0  0  0  0  0  0
   16.8159   -7.9271  -16.2906 C   0  0  2  0  0  0  0  0  0  0  0  0
   15.3667   -8.1492  -16.1542 C   0  0  0  0  0  0  0  0  0  0  0  0
   17.7542   -8.9818  -15.8785 C   0  0  0  0  0  0  0  0  0  0  0  0
   19.2004   -8.8367  -16.1584 C   0  0  2  0  0  0  0  0  0  0  0  0
   19.8231  -10.0626  -15.5931 N   0  0  0  0  0  0  0  0  0  0  0  0
   19.8538   -7.7047  -15.4959 C   0  0  0  0  0  0  0  0  0  0  0  0
   19.9373   -6.4784  -16.1292 O   0  0  0  0  0  0  0  0  0  0  0  0
   20.3576   -7.7806  -14.3560 O   0  0  0  0  0  0  0  0  0  0  0  0
  1  2  1  0
  2  4  1  0
  3  2  2  0
  4  5  1  0
  5  7  1  0
  5  6  1  1
  7  8  2  0
 10  9  1  6
 10 12  1  0
 11 10  1  0
 12 14  1  0
 12 13  1  6
 13  7  1  0
 14 21  1  0
 15 14  2  0
 17 18  1  1
 17 16  1  0
 19 17  1  0
 20 19  1  1
 21 20  1  0
 22 20  1  0
 23 22  1  0
 24 22  2  0
M  END
$$$$
