NTL.pdb
     RDKit          3D

 24 23  0  0  1  0  0  0  0  0999 V2000
   26.3944  -14.4948  -18.2254 N   0  0  0  0  0  0  0  0  0  0  0  0
   24.9734  -14.5104  -18.1977 C   0  0  0  0  0  0  0  0  0  0  0  0
   24.3040  -13.6339  -18.8118 O   0  0  0  0  0  0  0  0  0  0  0  0
   24.3159  -15.5854  -17.4272 C   0  0  0  0  0  0  0  0  0  0  0  0
   25.3384  -16.4899  -16.7641 C   0  0  2  0  0  0  0  0  0  0  0  0
   25.7082  -17.4933  -17.7310 N   0  0  0  0  0  0  0  0  0  0  0  0
   24.7244  -17.0724  -15.5497 C   0  0  0  0  0  0  0  0  0  0  0  0
   23.5995  -16.6531  -15.1945 O   0  0  0  0  0  0  0  0  0  0  0  0
   24.3446  -20.5871  -15.9279 C   0  0  0  0  0  0  0  0  0  0  0  0
   23.6406  -19.8292  -14.8174 C   0  0  1  0  0  0  0  0  0  0  0  0
   22.8572  -20.6513  -14.0413 O   0  0  0  0  0  0  0  0  0  0  0  0
   24.6391  -19.0290  -13.9921 C   0  0  2  0  0  0  0  0  0  0  0  0
   25.3565  -18.0794  -14.7794 N   0  0  0  0  0  0  0  0  0  0  0  0
   25.5353  -20.0118  -13.3173 C   0  0  0  0  0  0  0  0  0  0  0  0
   26.4324  -20.5916  -13.9813 O   0  0  0  0  0  0  0  0  0  0  0  0
   28.4272  -19.3826  -10.3958 C   0  0  0  0  0  0  0  0  0  0  0  0
   27.0698  -19.5640   -9.7117 C   0  0  2  0  0  0  0  0  0  0  0  0
   27.0970  -18.9987   -8.3524 C   0  0  0  0  0  0  0  0  0  0  0  0
   26.4928  -20.8987   -9.9318 C   0  0  0  0  0  0  0  0  0  0  0  0
   26.2501  -21.3823  -11.3095 C   0  0  2  0  0  0  0  0  0  0  0  0
   25.4195  -20.3252  -11.9440 N   0  0  0  0  0  0  0  0  0  0  0  0
   25.4766  -22.6229  -11.4084 C   0  0  0  0  0  0  0  0  0  0  0  0
   26.0723  -23.8407  -11.1364 O   0  0  0  0  0  0  0  0  0  0  0  0
   24.2716  -22.6505  -11.7342 O   0  0  0  0  0  0  0  0  0  0  0  0
  1  2  1  0
  2  4  1  0
  3  2  2  0
  4  5  1  0
  5  7  1  0
  5  6  1  6
  7  8  2  0
 10  9  1  6
 10 12  1  0
 11 10  1  0
 12 14  1  0
 12 13  1  6
 13  7  1  0
 14 21  1  0
 15 14  2  0
 17 18  1  1
 17 16  1  0
 19 17  1  0
 20 19  1  1
 21 20  1  0
 22 20  1  0
 23 22  1  0
 24 22  2  0
M  END
$$$$
