NTL.pdb
     RDKit          3D

 24 23  0  0  1  0  0  0  0  0999 V2000
   27.1117  -14.5293  -16.7561 N   0  0  0  0  0  0  0  0  0  0  0  0
   26.0076  -13.8876  -16.1318 C   0  0  0  0  0  0  0  0  0  0  0  0
   25.6230  -14.2348  -14.9807 O   0  0  0  0  0  0  0  0  0  0  0  0
   25.3332  -12.8063  -16.8783 C   0  0  0  0  0  0  0  0  0  0  0  0
   23.8605  -13.1133  -17.0788 C   0  0  2  0  0  0  0  0  0  0  0  0
   23.7767  -14.1805  -18.0445 N   0  0  0  0  0  0  0  0  0  0  0  0
   23.1876  -11.8780  -17.5399 C   0  0  0  0  0  0  0  0  0  0  0  0
   23.3600  -11.5161  -18.7259 O   0  0  0  0  0  0  0  0  0  0  0  0
   20.0812  -11.2075  -18.6760 C   0  0  0  0  0  0  0  0  0  0  0  0
   20.1751  -10.2977  -17.4649 C   0  0  1  0  0  0  0  0  0  0  0  0
   19.5098  -10.8102  -16.3756 O   0  0  0  0  0  0  0  0  0  0  0  0
   21.6269   -9.9606  -17.1536 C   0  0  2  0  0  0  0  0  0  0  0  0
   22.3616  -11.0951  -16.6962 N   0  0  0  0  0  0  0  0  0  0  0  0
   21.6139   -8.8456  -16.1632 C   0  0  0  0  0  0  0  0  0  0  0  0
   21.6292   -9.1077  -14.9331 O   0  0  0  0  0  0  0  0  0  0  0  0
   24.3681   -5.2471  -15.9535 C   0  0  0  0  0  0  0  0  0  0  0  0
   23.2248   -4.9956  -16.9400 C   0  0  2  0  0  0  0  0  0  0  0  0
   23.5018   -3.8031  -17.7581 C   0  0  0  0  0  0  0  0  0  0  0  0
   21.8970   -5.1665  -16.3315 C   0  0  0  0  0  0  0  0  0  0  0  0
   21.5916   -6.3868  -15.5514 C   0  0  2  0  0  0  0  0  0  0  0  0
   21.5849   -7.4869  -16.5513 N   0  0  0  0  0  0  0  0  0  0  0  0
   20.2721   -6.4065  -14.9144 C   0  0  0  0  0  0  0  0  0  0  0  0
   20.1005   -5.8804  -13.6473 O   0  0  0  0  0  0  0  0  0  0  0  0
   19.2577   -6.8851  -15.4630 O   0  0  0  0  0  0  0  0  0  0  0  0
  1  2  1  0
  2  4  1  0
  3  2  2  0
  4  5  1  0
  5  7  1  0
  5  6  1  6
  7  8  2  0
 10  9  1  6
 10 12  1  0
 11 10  1  0
 12 14  1  0
 12 13  1  1
 13  7  1  0
 14 21  1  0
 15 14  2  0
 17 18  1  1
 17 16  1  0
 19 17  1  0
 20 19  1  6
 21 20  1  0
 22 20  1  0
 23 22  1  0
 24 22  2  0
M  END
$$$$
