NTL.pdb
     RDKit          3D

 24 23  0  0  1  0  0  0  0  0999 V2000
   30.9455  -26.1101  -16.3505 N   0  0  0  0  0  0  0  0  0  0  0  0
   31.3846  -24.9733  -17.0822 C   0  0  0  0  0  0  0  0  0  0  0  0
   32.5503  -24.9240  -17.5640 O   0  0  0  0  0  0  0  0  0  0  0  0
   30.4294  -23.8602  -17.2549 C   0  0  0  0  0  0  0  0  0  0  0  0
   29.1060  -24.1619  -16.5761 C   0  0  2  0  0  0  0  0  0  0  0  0
   28.2707  -24.8220  -17.5482 N   0  0  0  0  0  0  0  0  0  0  0  0
   28.5249  -22.8849  -16.1038 C   0  0  0  0  0  0  0  0  0  0  0  0
   29.2995  -22.0144  -15.6458 O   0  0  0  0  0  0  0  0  0  0  0  0
   27.0491  -19.8702  -17.5092 C   0  0  0  0  0  0  0  0  0  0  0  0
   25.9552  -20.5336  -16.6928 C   0  0  1  0  0  0  0  0  0  0  0  0
   25.0479  -21.2007  -17.4826 O   0  0  0  0  0  0  0  0  0  0  0  0
   26.5524  -21.4256  -15.6130 C   0  0  2  0  0  0  0  0  0  0  0  0
   27.1355  -22.6120  -16.1500 N   0  0  0  0  0  0  0  0  0  0  0  0
   25.4659  -21.7112  -14.6320 C   0  0  0  0  0  0  0  0  0  0  0  0
   24.8255  -22.7908  -14.7119 O   0  0  0  0  0  0  0  0  0  0  0  0
   25.6258  -22.1695  -10.1602 C   0  0  0  0  0  0  0  0  0  0  0  0
   25.6328  -20.7049  -10.6057 C   0  0  2  0  0  0  0  0  0  0  0  0
   26.0659  -19.8317   -9.5020 C   0  0  0  0  0  0  0  0  0  0  0  0
   24.4470  -20.3423  -11.3962 C   0  0  0  0  0  0  0  0  0  0  0  0
   24.0807  -21.1384  -12.5891 C   0  0  2  0  0  0  0  0  0  0  0  0
   25.1189  -20.8091  -13.6009 N   0  0  0  0  0  0  0  0  0  0  0  0
   22.7934  -20.7937  -13.1984 C   0  0  0  0  0  0  0  0  0  0  0  0
   21.6171  -21.3044  -12.6814 O   0  0  0  0  0  0  0  0  0  0  0  0
   22.6883  -20.0416  -14.1896 O   0  0  0  0  0  0  0  0  0  0  0  0
  1  2  1  0
  2  4  1  0
  3  2  2  0
  4  5  1  0
  5  7  1  0
  5  6  1  6
  7  8  2  0
 10  9  1  6
 10 12  1  0
 11 10  1  0
 12 14  1  0
 12 13  1  6
 13  7  1  0
 14 21  1  0
 15 14  2  0
 17 18  1  1
 17 16  1  0
 19 17  1  0
 20 19  1  1
 21 20  1  0
 22 20  1  0
 23 22  1  0
 24 22  2  0
M  END
$$$$
