NTL.pdb
     RDKit          3D

 24 23  0  0  1  0  0  0  0  0999 V2000
   18.9736  -18.6482  -15.0667 N   0  0  0  0  0  0  0  0  0  0  0  0
   18.1857  -17.4663  -15.1185 C   0  0  0  0  0  0  0  0  0  0  0  0
   16.9590  -17.4923  -14.8217 O   0  0  0  0  0  0  0  0  0  0  0  0
   18.8546  -16.2157  -15.5304 C   0  0  0  0  0  0  0  0  0  0  0  0
   18.0674  -15.5033  -16.6149 C   0  0  2  0  0  0  0  0  0  0  0  0
   18.1243  -16.3307  -17.7941 N   0  0  0  0  0  0  0  0  0  0  0  0
   18.6737  -14.1699  -16.8286 C   0  0  0  0  0  0  0  0  0  0  0  0
   19.7936  -14.1100  -17.3851 O   0  0  0  0  0  0  0  0  0  0  0  0
   16.5862  -10.8407  -17.9416 C   0  0  0  0  0  0  0  0  0  0  0  0
   17.5094  -10.5974  -16.7619 C   0  0  1  0  0  0  0  0  0  0  0  0
   16.8193  -10.4601  -15.5801 O   0  0  0  0  0  0  0  0  0  0  0  0
   18.5841  -11.6733  -16.6859 C   0  0  2  0  0  0  0  0  0  0  0  0
   18.0396  -12.9673  -16.4303 N   0  0  0  0  0  0  0  0  0  0  0  0
   19.5600  -11.2432  -15.6434 C   0  0  0  0  0  0  0  0  0  0  0  0
   19.4676  -11.7064  -14.4777 O   0  0  0  0  0  0  0  0  0  0  0  0
   24.3679   -8.6225  -14.6260 C   0  0  0  0  0  0  0  0  0  0  0  0
   24.1543  -10.1342  -14.7389 C   0  0  2  0  0  0  0  0  0  0  0  0
   25.4011  -10.8026  -15.1475 C   0  0  0  0  0  0  0  0  0  0  0  0
   22.8906  -10.4847  -15.4042 C   0  0  0  0  0  0  0  0  0  0  0  0
   21.6086   -9.9615  -14.8812 C   0  0  2  0  0  0  0  0  0  0  0  0
   20.6000  -10.3243  -15.9112 N   0  0  0  0  0  0  0  0  0  0  0  0
   21.5406   -8.5046  -14.7391 C   0  0  0  0  0  0  0  0  0  0  0  0
   21.1631   -7.7155  -15.8099 O   0  0  0  0  0  0  0  0  0  0  0  0
   21.8115   -7.9104  -13.6749 O   0  0  0  0  0  0  0  0  0  0  0  0
  1  2  1  0
  2  4  1  0
  3  2  2  0
  4  5  1  0
  5  7  1  0
  5  6  1  6
  7  8  2  0
 10  9  1  6
 10 12  1  0
 11 10  1  0
 12 14  1  0
 12 13  1  1
 13  7  1  0
 14 21  1  0
 15 14  2  0
 17 18  1  6
 17 16  1  0
 19 17  1  0
 20 19  1  6
 21 20  1  0
 22 20  1  0
 23 22  1  0
 24 22  2  0
M  END
$$$$
