NTL.pdb
     RDKit          3D

 24 23  0  0  1  0  0  0  0  0999 V2000
   29.0361  -23.0998  -16.6258 N   0  0  0  0  0  0  0  0  0  0  0  0
   28.3124  -22.4540  -15.5867 C   0  0  0  0  0  0  0  0  0  0  0  0
   27.5131  -23.1016  -14.8551 O   0  0  0  0  0  0  0  0  0  0  0  0
   28.5314  -21.0056  -15.3985 C   0  0  0  0  0  0  0  0  0  0  0  0
   27.3151  -20.2060  -15.8283 C   0  0  2  0  0  0  0  0  0  0  0  0
   27.7631  -19.2418  -16.8020 N   0  0  0  0  0  0  0  0  0  0  0  0
   26.7307  -19.5683  -14.6271 C   0  0  0  0  0  0  0  0  0  0  0  0
   26.3915  -18.3653  -14.6999 O   0  0  0  0  0  0  0  0  0  0  0  0
   24.0378  -18.8794  -14.0424 C   0  0  0  0  0  0  0  0  0  0  0  0
   24.2056  -19.7872  -12.8378 C   0  0  1  0  0  0  0  0  0  0  0  0
   23.7014  -21.0472  -13.0610 O   0  0  0  0  0  0  0  0  0  0  0  0
   25.6575  -19.8147  -12.3801 C   0  0  2  0  0  0  0  0  0  0  0  0
   26.5419  -20.2623  -13.4065 N   0  0  0  0  0  0  0  0  0  0  0  0
   25.7144  -20.6684  -11.1585 C   0  0  0  0  0  0  0  0  0  0  0  0
   25.7021  -21.9207  -11.2752 O   0  0  0  0  0  0  0  0  0  0  0  0
   28.6942  -21.0284   -7.7742 C   0  0  0  0  0  0  0  0  0  0  0  0
   27.7818  -19.8065   -7.6403 C   0  0  2  0  0  0  0  0  0  0  0  0
   28.3378  -18.8510   -6.6677 C   0  0  0  0  0  0  0  0  0  0  0  0
   26.3563  -20.1621   -7.5756 C   0  0  0  0  0  0  0  0  0  0  0  0
   25.7496  -20.9863   -8.6449 C   0  0  2  0  0  0  0  0  0  0  0  0
   25.7826  -20.1245   -9.8558 N   0  0  0  0  0  0  0  0  0  0  0  0
   24.3437  -21.3429   -8.4363 C   0  0  0  0  0  0  0  0  0  0  0  0
   23.3526  -20.7492   -9.1961 O   0  0  0  0  0  0  0  0  0  0  0  0
   23.9714  -22.1781   -7.5860 O   0  0  0  0  0  0  0  0  0  0  0  0
  1  2  1  0
  2  4  1  0
  3  2  2  0
  4  5  1  0
  5  7  1  0
  5  6  1  6
  7  8  2  0
 10  9  1  6
 10 12  1  0
 11 10  1  0
 12 14  1  0
 12 13  1  6
 13  7  1  0
 14 21  1  0
 15 14  2  0
 17 18  1  1
 17 16  1  0
 19 17  1  0
 20 19  1  1
 21 20  1  0
 22 20  1  0
 23 22  1  0
 24 22  2  0
M  END
$$$$
