NTL.pdb
     RDKit          3D

 24 23  0  0  1  0  0  0  0  0999 V2000
   13.8499  -13.3772  -16.0582 N   0  0  0  0  0  0  0  0  0  0  0  0
   13.6233  -13.5496  -14.6656 C   0  0  0  0  0  0  0  0  0  0  0  0
   12.6066  -14.1696  -14.2468 O   0  0  0  0  0  0  0  0  0  0  0  0
   14.6178  -12.9786  -13.7348 C   0  0  0  0  0  0  0  0  0  0  0  0
   15.7154  -12.2469  -14.4852 C   0  0  2  0  0  0  0  0  0  0  0  0
   16.6781  -13.2362  -14.9010 N   0  0  0  0  0  0  0  0  0  0  0  0
   16.3004  -11.2329  -13.5793 C   0  0  0  0  0  0  0  0  0  0  0  0
   16.9144  -11.6296  -12.5628 O   0  0  0  0  0  0  0  0  0  0  0  0
   19.0996   -9.1513  -14.3167 C   0  0  0  0  0  0  0  0  0  0  0  0
   17.9914   -8.1806  -13.9523 C   0  0  1  0  0  0  0  0  0  0  0  0
   17.4501   -7.5689  -15.0589 O   0  0  0  0  0  0  0  0  0  0  0  0
   16.9372   -8.8627  -13.0911 C   0  0  2  0  0  0  0  0  0  0  0  0
   16.1930   -9.8404  -13.8167 N   0  0  0  0  0  0  0  0  0  0  0  0
   16.0741   -7.7871  -12.5231 C   0  0  0  0  0  0  0  0  0  0  0  0
   14.9980   -7.4852  -13.1000 O   0  0  0  0  0  0  0  0  0  0  0  0
   13.4229   -6.6218   -8.9488 C   0  0  0  0  0  0  0  0  0  0  0  0
   14.9127   -6.7845   -8.6364 C   0  0  2  0  0  0  0  0  0  0  0  0
   15.1265   -6.8938   -7.1836 C   0  0  0  0  0  0  0  0  0  0  0  0
   15.7646   -5.8864   -9.4302 C   0  0  0  0  0  0  0  0  0  0  0  0
   15.6601   -5.8802  -10.9067 C   0  0  2  0  0  0  0  0  0  0  0  0
   16.4170   -7.0814  -11.3476 N   0  0  0  0  0  0  0  0  0  0  0  0
   16.2880   -4.7356  -11.5721 C   0  0  0  0  0  0  0  0  0  0  0  0
   15.6162   -3.5311  -11.6717 O   0  0  0  0  0  0  0  0  0  0  0  0
   17.4312   -4.7810  -12.0723 O   0  0  0  0  0  0  0  0  0  0  0  0
  1  2  1  0
  2  4  1  0
  3  2  2  0
  4  5  1  0
  5  7  1  0
  5  6  1  1
  7  8  2  0
 10  9  1  6
 10 12  1  0
 11 10  1  0
 12 14  1  0
 12 13  1  6
 13  7  1  0
 14 21  1  0
 15 14  2  0
 17 18  1  1
 17 16  1  0
 19 17  1  0
 20 19  1  1
 21 20  1  0
 22 20  1  0
 23 22  1  0
 24 22  2  0
M  END
$$$$
