NTL.pdb
     RDKit          3D

 24 23  0  0  1  0  0  0  0  0999 V2000
   27.8392  -22.7969  -16.7999 N   0  0  0  0  0  0  0  0  0  0  0  0
   28.7580  -21.9134  -16.1707 C   0  0  0  0  0  0  0  0  0  0  0  0
   29.9897  -21.9584  -16.4432 O   0  0  0  0  0  0  0  0  0  0  0  0
   28.2178  -20.9476  -15.1926 C   0  0  0  0  0  0  0  0  0  0  0  0
   26.7274  -21.1481  -14.9886 C   0  0  2  0  0  0  0  0  0  0  0  0
   26.0679  -20.6720  -16.1790 N   0  0  0  0  0  0  0  0  0  0  0  0
   26.3199  -20.4005  -13.7778 C   0  0  0  0  0  0  0  0  0  0  0  0
   26.2980  -19.1498  -13.8324 O   0  0  0  0  0  0  0  0  0  0  0  0
   23.4209  -19.4369  -12.7520 C   0  0  0  0  0  0  0  0  0  0  0  0
   23.8437  -20.2955  -11.5742 C   0  0  1  0  0  0  0  0  0  0  0  0
   23.2693  -21.5448  -11.6077 O   0  0  0  0  0  0  0  0  0  0  0  0
   25.3613  -20.3560  -11.4668 C   0  0  2  0  0  0  0  0  0  0  0  0
   25.9564  -21.0414  -12.5678 N   0  0  0  0  0  0  0  0  0  0  0  0
   25.6816  -20.9876  -10.1543 C   0  0  0  0  0  0  0  0  0  0  0  0
   25.8930  -22.2262  -10.0965 O   0  0  0  0  0  0  0  0  0  0  0  0
   28.8040  -20.4973   -6.7672 C   0  0  0  0  0  0  0  0  0  0  0  0
   27.7771  -19.3636   -6.8270 C   0  0  2  0  0  0  0  0  0  0  0  0
   28.2159  -18.2255   -6.0021 C   0  0  0  0  0  0  0  0  0  0  0  0
   26.3904  -19.8424   -6.7250 C   0  0  0  0  0  0  0  0  0  0  0  0
   25.9065  -20.9076   -7.6317 C   0  0  2  0  0  0  0  0  0  0  0  0
   25.7595  -20.2450   -8.9543 N   0  0  0  0  0  0  0  0  0  0  0  0
   24.5886  -21.4569   -7.3020 C   0  0  0  0  0  0  0  0  0  0  0  0
   24.4716  -22.4955   -6.3967 O   0  0  0  0  0  0  0  0  0  0  0  0
   23.5278  -21.0314   -7.8046 O   0  0  0  0  0  0  0  0  0  0  0  0
  1  2  1  0
  2  4  1  0
  3  2  2  0
  4  5  1  0
  5  7  1  0
  5  6  1  6
  7  8  2  0
 10  9  1  6
 10 12  1  0
 11 10  1  0
 12 14  1  0
 12 13  1  6
 13  7  1  0
 14 21  1  0
 15 14  2  0
 17 18  1  1
 17 16  1  0
 19 17  1  0
 20 19  1  1
 21 20  1  0
 22 20  1  0
 23 22  1  0
 24 22  2  0
M  END
$$$$
