NTL.pdb
     RDKit          3D

 24 23  0  0  1  0  0  0  0  0999 V2000
   16.4919  -13.6721  -15.5531 N   0  0  0  0  0  0  0  0  0  0  0  0
   17.4884  -13.1062  -14.7121 C   0  0  0  0  0  0  0  0  0  0  0  0
   17.4510  -13.2726  -13.4614 O   0  0  0  0  0  0  0  0  0  0  0  0
   18.5616  -12.3216  -15.3555 C   0  0  0  0  0  0  0  0  0  0  0  0
   18.3618  -12.2467  -16.8581 C   0  0  2  0  0  0  0  0  0  0  0  0
   18.6863  -13.5447  -17.3949 N   0  0  0  0  0  0  0  0  0  0  0  0
   19.2376  -11.1785  -17.3900 C   0  0  0  0  0  0  0  0  0  0  0  0
   20.3381  -11.5072  -17.8884 O   0  0  0  0  0  0  0  0  0  0  0  0
   18.2178   -8.5741  -20.0501 C   0  0  0  0  0  0  0  0  0  0  0  0
   18.7675   -7.8539  -18.8325 C   0  0  1  0  0  0  0  0  0  0  0  0
   17.7761   -7.2591  -18.0876 O   0  0  0  0  0  0  0  0  0  0  0  0
   19.6394   -8.7856  -18.0017 C   0  0  2  0  0  0  0  0  0  0  0  0
   18.8807   -9.8079  -17.3571 N   0  0  0  0  0  0  0  0  0  0  0  0
   20.3937   -7.9338  -17.0373 C   0  0  0  0  0  0  0  0  0  0  0  0
   20.0580   -7.9219  -15.8253 O   0  0  0  0  0  0  0  0  0  0  0  0
   25.4791   -4.4582  -17.4750 C   0  0  0  0  0  0  0  0  0  0  0  0
   24.4277   -4.9936  -16.4997 C   0  0  2  0  0  0  0  0  0  0  0  0
   25.0488   -5.3409  -15.2106 C   0  0  0  0  0  0  0  0  0  0  0  0
   23.4893   -5.9340  -17.1304 C   0  0  0  0  0  0  0  0  0  0  0  0
   22.2106   -6.2640  -16.4620 C   0  0  2  0  0  0  0  0  0  0  0  0
   21.4854   -7.1272  -17.4310 N   0  0  0  0  0  0  0  0  0  0  0  0
   21.3321   -5.1218  -16.1963 C   0  0  0  0  0  0  0  0  0  0  0  0
   20.3501   -4.7701  -17.1040 O   0  0  0  0  0  0  0  0  0  0  0  0
   21.4176   -4.4215  -15.1660 O   0  0  0  0  0  0  0  0  0  0  0  0
  1  2  1  0
  2  4  1  0
  3  2  2  0
  4  5  1  0
  5  7  1  0
  5  6  1  6
  7  8  2  0
 10  9  1  6
 10 12  1  0
 11 10  1  0
 12 14  1  0
 12 13  1  1
 13  7  1  0
 14 21  1  0
 15 14  2  0
 17 18  1  1
 17 16  1  0
 19 17  1  0
 20 19  1  6
 21 20  1  0
 22 20  1  0
 23 22  1  0
 24 22  2  0
M  END
$$$$
