NTL.pdb
     RDKit          3D

 24 23  0  0  1  0  0  0  0  0999 V2000
   18.7989  -23.8553  -10.6089 N   0  0  0  0  0  0  0  0  0  0  0  0
   18.2465  -22.6080  -11.0085 C   0  0  0  0  0  0  0  0  0  0  0  0
   17.0158  -22.4979  -11.2668 O   0  0  0  0  0  0  0  0  0  0  0  0
   19.1633  -21.4544  -11.1086 C   0  0  0  0  0  0  0  0  0  0  0  0
   20.5673  -21.8293  -10.6709 C   0  0  2  0  0  0  0  0  0  0  0  0
   20.6096  -21.7133   -9.2345 N   0  0  0  0  0  0  0  0  0  0  0  0
   21.5214  -20.9173  -11.3411 C   0  0  0  0  0  0  0  0  0  0  0  0
   21.4016  -19.6863  -11.1465 O   0  0  0  0  0  0  0  0  0  0  0  0
   25.4611  -21.0835  -11.4024 C   0  0  0  0  0  0  0  0  0  0  0  0
   24.9066  -21.0684  -12.8151 C   0  0  1  0  0  0  0  0  0  0  0  0
   24.9963  -22.2990  -13.4229 O   0  0  0  0  0  0  0  0  0  0  0  0
   23.4891  -20.5130  -12.8332 C   0  0  2  0  0  0  0  0  0  0  0  0
   22.5577  -21.3808  -12.1886 N   0  0  0  0  0  0  0  0  0  0  0  0
   23.1404  -20.2516  -14.2596 C   0  0  0  0  0  0  0  0  0  0  0  0
   22.4376  -21.0833  -14.8892 O   0  0  0  0  0  0  0  0  0  0  0  0
   23.8255  -15.3770  -18.0081 C   0  0  0  0  0  0  0  0  0  0  0  0
   23.1891  -16.7617  -17.8621 C   0  0  2  0  0  0  0  0  0  0  0  0
   21.8065  -16.7504  -18.3686 C   0  0  0  0  0  0  0  0  0  0  0  0
   23.4827  -17.3919  -16.5662 C   0  0  0  0  0  0  0  0  0  0  0  0
   23.1738  -18.8236  -16.3524 C   0  0  2  0  0  0  0  0  0  0  0  0
   23.5711  -19.0934  -14.9455 N   0  0  0  0  0  0  0  0  0  0  0  0
   23.9418  -19.7581  -17.1795 C   0  0  0  0  0  0  0  0  0  0  0  0
   23.3700  -20.3304  -18.3009 O   0  0  0  0  0  0  0  0  0  0  0  0
   25.1210  -20.0815  -16.9265 O   0  0  0  0  0  0  0  0  0  0  0  0
  1  2  1  0
  2  4  1  0
  3  2  2  0
  4  5  1  0
  5  7  1  0
  5  6  1  1
  7  8  2  0
 10  9  1  1
 10 12  1  0
 11 10  1  0
 12 14  1  0
 12 13  1  6
 13  7  1  0
 14 21  1  0
 15 14  2  0
 17 18  1  1
 17 16  1  0
 19 17  1  0
 20 19  1  6
 21 20  1  0
 22 20  1  0
 23 22  1  0
 24 22  2  0
M  END
$$$$
