PTP.pdb
     RDKit          3D

 22 23  0  0  1  0  0  0  0  0999 V2000
   29.7216  -22.2054  -18.3428 N   0  0  0  0  0  0  0  0  0  0  0  0
   30.9439  -22.9078  -18.0541 C   0  0  0  0  0  0  0  0  0  0  0  0
   30.4797  -24.2843  -17.6145 C   0  0  0  0  0  0  0  0  0  0  0  0
   29.2769  -23.9172  -16.7524 C   0  0  0  0  0  0  0  0  0  0  0  0
   28.6821  -22.7718  -17.5434 C   0  0  1  0  0  0  0  0  0  0  0  0
   28.1773  -21.7848  -16.5626 C   0  0  0  0  0  0  0  0  0  0  0  0
   28.9248  -20.8233  -16.2386 O   0  0  0  0  0  0  0  0  0  0  0  0
   24.9148  -18.9195  -15.1123 C   0  0  0  0  0  0  0  0  0  0  0  0
   25.6945  -19.8553  -15.9942 C   0  0  1  0  0  0  0  0  0  0  0  0
   26.7084  -19.0919  -16.6038 O   0  0  0  0  0  0  0  0  0  0  0  0
   26.3586  -20.8995  -15.0925 C   0  0  2  0  0  0  0  0  0  0  0  0
   26.8732  -21.9207  -15.9976 N   0  0  0  0  0  0  0  0  0  0  0  0
   25.3789  -21.4890  -14.1453 C   0  0  0  0  0  0  0  0  0  0  0  0
   24.6702  -22.4504  -14.5399 O   0  0  0  0  0  0  0  0  0  0  0  0
   25.2583  -20.9802  -12.8522 N   0  0  0  0  0  0  0  0  0  0  0  0
   25.9273  -19.8822  -12.2002 C   0  0  0  0  0  0  0  0  0  0  0  0
   26.0505  -20.2827  -10.7387 C   0  0  0  0  0  0  0  0  0  0  0  0
   25.2518  -21.5351  -10.6356 C   0  0  0  0  0  0  0  0  0  0  0  0
   24.3525  -21.5130  -11.8222 C   0  0  1  0  0  0  0  0  0  0  0  0
   23.2008  -20.6069  -11.6866 C   0  0  0  0  0  0  0  0  0  0  0  0
   23.1492  -19.4670  -12.2055 O   0  0  0  0  0  0  0  0  0  0  0  0
   22.1021  -21.0223  -10.9460 O   0  0  0  0  0  0  0  0  0  0  0  0
  1  2  1  0
  3  4  1  0
  3  2  1  0
  4  5  1  0
  5  1  1  0
  5  6  1  1
  7  6  2  0
  9  8  1  1
  9 11  1  0
 10  9  1  0
 11 12  1  6
 11 13  1  0
 12  6  1  0
 13 15  1  0
 14 13  2  0
 15 16  1  0
 15 19  1  0
 16 17  1  0
 17 18  1  0
 19 20  1  1
 19 18  1  0
 20 22  1  0
 21 20  2  0
M  END
$$$$
