PTP.pdb
     RDKit          3D

 22 23  0  0  1  0  0  0  0  0999 V2000
   22.9749  -19.8628  -18.0176 N   0  0  0  0  0  0  0  0  0  0  0  0
   21.5522  -20.0546  -18.1171 C   0  0  0  0  0  0  0  0  0  0  0  0
   20.9708  -18.8959  -17.3279 C   0  0  0  0  0  0  0  0  0  0  0  0
   21.9219  -18.8571  -16.1368 C   0  0  0  0  0  0  0  0  0  0  0  0
   23.2466  -19.1607  -16.8036 C   0  0  1  0  0  0  0  0  0  0  0  0
   24.0175  -20.0096  -15.8677 C   0  0  0  0  0  0  0  0  0  0  0  0
   23.7547  -21.2411  -15.8178 O   0  0  0  0  0  0  0  0  0  0  0  0
   27.5884  -20.6255  -15.5019 C   0  0  0  0  0  0  0  0  0  0  0  0
   27.1795  -20.0183  -14.1883 C   0  0  1  0  0  0  0  0  0  0  0  0
   27.3958  -18.6312  -14.2951 O   0  0  0  0  0  0  0  0  0  0  0  0
   25.6770  -20.2561  -14.0135 C   0  0  2  0  0  0  0  0  0  0  0  0
   25.0351  -19.4443  -15.0411 N   0  0  0  0  0  0  0  0  0  0  0  0
   25.2232  -19.8400  -12.6623 C   0  0  0  0  0  0  0  0  0  0  0  0
   24.3574  -18.9317  -12.5761 O   0  0  0  0  0  0  0  0  0  0  0  0
   25.7518  -20.4504  -11.5250 N   0  0  0  0  0  0  0  0  0  0  0  0
   26.6885  -21.5368  -11.3818 C   0  0  0  0  0  0  0  0  0  0  0  0
   26.2776  -22.2725  -10.1163 C   0  0  0  0  0  0  0  0  0  0  0  0
   25.2204  -21.4098   -9.5203 C   0  0  0  0  0  0  0  0  0  0  0  0
   25.4248  -20.0719  -10.1411 C   0  0  1  0  0  0  0  0  0  0  0  0
   26.5523  -19.3133   -9.5763 C   0  0  0  0  0  0  0  0  0  0  0  0
   26.5189  -18.7502   -8.4568 O   0  0  0  0  0  0  0  0  0  0  0  0
   27.7254  -19.2054  -10.3112 O   0  0  0  0  0  0  0  0  0  0  0  0
  1  2  1  0
  3  4  1  0
  3  2  1  0
  4  5  1  0
  5  1  1  0
  5  6  1  1
  7  6  2  0
  9  8  1  6
  9 11  1  0
 10  9  1  0
 11 12  1  6
 11 13  1  0
 12  6  1  0
 13 15  1  0
 14 13  2  0
 15 16  1  0
 15 19  1  0
 16 17  1  0
 17 18  1  0
 19 20  1  1
 19 18  1  0
 20 22  1  0
 21 20  2  0
M  END
$$$$
