PTP.pdb
     RDKit          3D

 22 23  0  0  1  0  0  0  0  0999 V2000
   18.2586  -12.4532  -15.3043 N   0  0  0  0  0  0  0  0  0  0  0  0
   17.3440  -13.0537  -16.2389 C   0  0  0  0  0  0  0  0  0  0  0  0
   18.1539  -14.1653  -16.8805 C   0  0  0  0  0  0  0  0  0  0  0  0
   19.4988  -13.4700  -17.0608 C   0  0  0  0  0  0  0  0  0  0  0  0
   19.5875  -12.6584  -15.7861 C   0  0  1  0  0  0  0  0  0  0  0  0
   20.2232  -11.3688  -16.1377 C   0  0  0  0  0  0  0  0  0  0  0  0
   21.4237  -11.3753  -16.5212 O   0  0  0  0  0  0  0  0  0  0  0  0
   19.7666   -9.1270  -18.7695 C   0  0  0  0  0  0  0  0  0  0  0  0
   19.3751   -8.3201  -17.5624 C   0  0  1  0  0  0  0  0  0  0  0  0
   18.0011   -8.5428  -17.3509 O   0  0  0  0  0  0  0  0  0  0  0  0
   20.1410   -8.8795  -16.3604 C   0  0  2  0  0  0  0  0  0  0  0  0
   19.4916  -10.1464  -16.0439 N   0  0  0  0  0  0  0  0  0  0  0  0
   20.0686   -7.9536  -15.2019 C   0  0  0  0  0  0  0  0  0  0  0  0
   19.3218   -8.2603  -14.2375 O   0  0  0  0  0  0  0  0  0  0  0  0
   20.8165   -6.7762  -15.1960 N   0  0  0  0  0  0  0  0  0  0  0  0
   21.7413   -6.2367  -16.1614 C   0  0  0  0  0  0  0  0  0  0  0  0
   22.7902   -5.4875  -15.3549 C   0  0  0  0  0  0  0  0  0  0  0  0
   22.2603   -5.5042  -13.9635 C   0  0  0  0  0  0  0  0  0  0  0  0
   20.8047   -5.7804  -14.1127 C   0  0  1  0  0  0  0  0  0  0  0  0
   20.0135   -4.6171  -14.5445 C   0  0  0  0  0  0  0  0  0  0  0  0
   19.7492   -3.6427  -13.8014 O   0  0  0  0  0  0  0  0  0  0  0  0
   19.5251   -4.5810  -15.8438 O   0  0  0  0  0  0  0  0  0  0  0  0
  1  2  1  0
  3  4  1  0
  3  2  1  0
  4  5  1  0
  5  1  1  0
  5  6  1  6
  7  6  2  0
  9  8  1  6
  9 11  1  0
 10  9  1  0
 11 12  1  1
 11 13  1  0
 12  6  1  0
 13 15  1  0
 14 13  2  0
 15 16  1  0
 15 19  1  0
 16 17  1  0
 17 18  1  0
 19 20  1  6
 19 18  1  0
 20 22  1  0
 21 20  2  0
M  END
$$$$
