PTP.pdb
     RDKit          3D

 22 23  0  0  1  0  0  0  0  0999 V2000
   20.3169  -15.6601  -17.4668 N   0  0  0  0  0  0  0  0  0  0  0  0
   20.9629  -16.9007  -17.8048 C   0  0  0  0  0  0  0  0  0  0  0  0
   20.3997  -17.8914  -16.8024 C   0  0  0  0  0  0  0  0  0  0  0  0
   20.3999  -17.0446  -15.5345 C   0  0  0  0  0  0  0  0  0  0  0  0
   19.9838  -15.6945  -16.0781 C   0  0  1  0  0  0  0  0  0  0  0  0
   20.7489  -14.6723  -15.3295 C   0  0  0  0  0  0  0  0  0  0  0  0
   20.6545  -14.6517  -14.0729 O   0  0  0  0  0  0  0  0  0  0  0  0
   24.3508  -13.7926  -15.0791 C   0  0  0  0  0  0  0  0  0  0  0  0
   23.6627  -12.6290  -15.7379 C   0  0  1  0  0  0  0  0  0  0  0  0
   23.6949  -12.8681  -17.1250 O   0  0  0  0  0  0  0  0  0  0  0  0
   22.2000  -12.6363  -15.2851 C   0  0  2  0  0  0  0  0  0  0  0  0
   21.5744  -13.7318  -16.0168 N   0  0  0  0  0  0  0  0  0  0  0  0
   21.5343  -11.3485  -15.6061 C   0  0  0  0  0  0  0  0  0  0  0  0
   20.7432  -11.3120  -16.5833 O   0  0  0  0  0  0  0  0  0  0  0  0
   21.7884  -10.2149  -14.8341 N   0  0  0  0  0  0  0  0  0  0  0  0
   22.6901  -10.0040  -13.7293 C   0  0  0  0  0  0  0  0  0  0  0  0
   22.0049   -8.9926  -12.8241 C   0  0  0  0  0  0  0  0  0  0  0  0
   20.8137   -8.5549  -13.6028 C   0  0  0  0  0  0  0  0  0  0  0  0
   21.1278   -8.9123  -15.0138 C   0  0  1  0  0  0  0  0  0  0  0  0
   22.0663   -7.9899  -15.6728 C   0  0  0  0  0  0  0  0  0  0  0  0
   21.7538   -6.8381  -16.0561 O   0  0  0  0  0  0  0  0  0  0  0  0
   23.3742   -8.4028  -15.8895 O   0  0  0  0  0  0  0  0  0  0  0  0
  1  2  1  0
  3  4  1  0
  3  2  1  0
  4  5  1  0
  5  1  1  0
  5  6  1  1
  7  6  2  0
  9  8  1  1
  9 11  1  0
 10  9  1  0
 11 12  1  6
 11 13  1  0
 12  6  1  0
 13 15  1  0
 14 13  2  0
 15 16  1  0
 15 19  1  0
 16 17  1  0
 17 18  1  0
 19 20  1  1
 19 18  1  0
 20 22  1  0
 21 20  2  0
M  END
$$$$
