PTP.pdb
     RDKit          3D

 22 23  0  0  1  0  0  0  0  0999 V2000
   25.4849  -11.9342  -16.6975 N   0  0  0  0  0  0  0  0  0  0  0  0
   25.4648  -13.1468  -15.9230 C   0  0  0  0  0  0  0  0  0  0  0  0
   25.0651  -14.2143  -16.9250 C   0  0  0  0  0  0  0  0  0  0  0  0
   23.9851  -13.4780  -17.7099 C   0  0  0  0  0  0  0  0  0  0  0  0
   24.5693  -12.0835  -17.7838 C   0  0  1  0  0  0  0  0  0  0  0  0
   23.4411  -11.1343  -17.6533 C   0  0  0  0  0  0  0  0  0  0  0  0
   22.6202  -11.0420  -18.6051 O   0  0  0  0  0  0  0  0  0  0  0  0
   20.5726  -11.1263  -16.0005 C   0  0  0  0  0  0  0  0  0  0  0  0
   21.2203   -9.9196  -15.3792 C   0  0  1  0  0  0  0  0  0  0  0  0
   21.9413  -10.3750  -14.2589 O   0  0  0  0  0  0  0  0  0  0  0  0
   22.2187   -9.3539  -16.3929 C   0  0  2  0  0  0  0  0  0  0  0  0
   23.2879  -10.3423  -16.4754 N   0  0  0  0  0  0  0  0  0  0  0  0
   22.7539   -8.0441  -15.9427 C   0  0  0  0  0  0  0  0  0  0  0  0
   23.9567   -7.9829  -15.5797 O   0  0  0  0  0  0  0  0  0  0  0  0
   21.9324   -6.9170  -15.9284 N   0  0  0  0  0  0  0  0  0  0  0  0
   20.5491   -6.7485  -16.2978 C   0  0  0  0  0  0  0  0  0  0  0  0
   20.4395   -5.3385  -16.8563 C   0  0  0  0  0  0  0  0  0  0  0  0
   21.7714   -4.7329  -16.5804 C   0  0  0  0  0  0  0  0  0  0  0  0
   22.3573   -5.5746  -15.5009 C   0  0  1  0  0  0  0  0  0  0  0  0
   21.8067   -5.3049  -14.1630 C   0  0  0  0  0  0  0  0  0  0  0  0
   20.9899   -6.0588  -13.5834 O   0  0  0  0  0  0  0  0  0  0  0  0
   22.2036   -4.1561  -13.4917 O   0  0  0  0  0  0  0  0  0  0  0  0
  1  2  1  0
  3  4  1  0
  3  2  1  0
  4  5  1  0
  5  1  1  0
  5  6  1  1
  7  6  2  0
  9  8  1  6
  9 11  1  0
 10  9  1  0
 11 12  1  1
 11 13  1  0
 12  6  1  0
 13 15  1  0
 14 13  2  0
 15 16  1  0
 15 19  1  0
 16 17  1  0
 17 18  1  0
 19 20  1  1
 19 18  1  0
 20 22  1  0
 21 20  2  0
M  END
$$$$
