PTP.pdb
     RDKit          3D

 22 23  0  0  1  0  0  0  0  0999 V2000
   20.8601  -18.5339  -17.1222 N   0  0  0  0  0  0  0  0  0  0  0  0
   20.1724  -19.0282  -18.2856 C   0  0  0  0  0  0  0  0  0  0  0  0
   19.1925  -20.0439  -17.7272 C   0  0  0  0  0  0  0  0  0  0  0  0
   20.0602  -20.7293  -16.6776 C   0  0  0  0  0  0  0  0  0  0  0  0
   20.8413  -19.5563  -16.1249 C   0  0  1  0  0  0  0  0  0  0  0  0
   22.2114  -20.0420  -15.8455 C   0  0  0  0  0  0  0  0  0  0  0  0
   22.5648  -21.1525  -16.3250 O   0  0  0  0  0  0  0  0  0  0  0  0
   25.5861  -18.8765  -16.3926 C   0  0  0  0  0  0  0  0  0  0  0  0
   25.4528  -18.8893  -14.8947 C   0  0  1  0  0  0  0  0  0  0  0  0
   25.0443  -17.5979  -14.5105 O   0  0  0  0  0  0  0  0  0  0  0  0
   24.3345  -19.8715  -14.5355 C   0  0  2  0  0  0  0  0  0  0  0  0
   23.1104  -19.2687  -15.0505 N   0  0  0  0  0  0  0  0  0  0  0  0
   24.2423  -20.0629  -13.0659 C   0  0  0  0  0  0  0  0  0  0  0  0
   23.1459  -19.8202  -12.4993 O   0  0  0  0  0  0  0  0  0  0  0  0
   25.3518  -20.5025  -12.3440 N   0  0  0  0  0  0  0  0  0  0  0  0
   26.7089  -20.7601  -12.7565 C   0  0  0  0  0  0  0  0  0  0  0  0
   27.1941  -21.9090  -11.8867 C   0  0  0  0  0  0  0  0  0  0  0  0
   26.1037  -22.0973  -10.8904 C   0  0  0  0  0  0  0  0  0  0  0  0
   25.3469  -20.8150  -10.9060 C   0  0  1  0  0  0  0  0  0  0  0  0
   26.0065  -19.7189  -10.1786 C   0  0  0  0  0  0  0  0  0  0  0  0
   25.9155  -19.5544   -8.9392 O   0  0  0  0  0  0  0  0  0  0  0  0
   26.7761  -18.8076  -10.8895 O   0  0  0  0  0  0  0  0  0  0  0  0
  1  2  1  0
  3  4  1  0
  3  2  1  0
  4  5  1  0
  5  1  1  0
  5  6  1  6
  7  6  2  0
  9  8  1  6
  9 11  1  0
 10  9  1  0
 11 12  1  1
 11 13  1  0
 12  6  1  0
 13 15  1  0
 14 13  2  0
 15 16  1  0
 15 19  1  0
 16 17  1  0
 17 18  1  0
 19 20  1  1
 19 18  1  0
 20 22  1  0
 21 20  2  0
M  END
$$$$
