PTP.pdb
     RDKit          3D

 22 23  0  0  1  0  0  0  0  0999 V2000
   28.8958  -21.6575  -18.0922 N   0  0  0  0  0  0  0  0  0  0  0  0
   29.9800  -22.5778  -18.3114 C   0  0  0  0  0  0  0  0  0  0  0  0
   29.3342  -23.9441  -18.1707 C   0  0  0  0  0  0  0  0  0  0  0  0
   28.4157  -23.7032  -16.9779 C   0  0  0  0  0  0  0  0  0  0  0  0
   27.9309  -22.2962  -17.2548 C   0  0  1  0  0  0  0  0  0  0  0  0
   27.8322  -21.6077  -15.9482 C   0  0  0  0  0  0  0  0  0  0  0  0
   28.8724  -21.5017  -15.2447 O   0  0  0  0  0  0  0  0  0  0  0  0
   27.5139  -18.4477  -14.8869 C   0  0  0  0  0  0  0  0  0  0  0  0
   26.2453  -19.0327  -14.3301 C   0  0  1  0  0  0  0  0  0  0  0  0
   25.2487  -18.8508  -15.3078 O   0  0  0  0  0  0  0  0  0  0  0  0
   26.4675  -20.5366  -14.1474 C   0  0  2  0  0  0  0  0  0  0  0  0
   26.5862  -21.0765  -15.4970 N   0  0  0  0  0  0  0  0  0  0  0  0
   25.3257  -21.1632  -13.4344 C   0  0  0  0  0  0  0  0  0  0  0  0
   24.6746  -22.0635  -14.0240 O   0  0  0  0  0  0  0  0  0  0  0  0
   24.9947  -20.7545  -12.1425 N   0  0  0  0  0  0  0  0  0  0  0  0
   25.5797  -19.7526  -11.2870 C   0  0  0  0  0  0  0  0  0  0  0  0
   25.4204  -20.2763   -9.8685 C   0  0  0  0  0  0  0  0  0  0  0  0
   24.5652  -21.4857  -10.0206 C   0  0  0  0  0  0  0  0  0  0  0  0
   23.8967  -21.3168  -11.3403 C   0  0  1  0  0  0  0  0  0  0  0  0
   22.7778  -20.3609  -11.3292 C   0  0  0  0  0  0  0  0  0  0  0  0
   22.8419  -19.2110  -11.8243 O   0  0  0  0  0  0  0  0  0  0  0  0
   21.5774  -20.7377  -10.7416 O   0  0  0  0  0  0  0  0  0  0  0  0
  1  2  1  0
  3  4  1  0
  3  2  1  0
  4  5  1  0
  5  1  1  0
  5  6  1  1
  7  6  2  0
  9  8  1  6
  9 11  1  0
 10  9  1  0
 11 12  1  6
 11 13  1  0
 12  6  1  0
 13 15  1  0
 14 13  2  0
 15 16  1  0
 15 19  1  0
 16 17  1  0
 17 18  1  0
 19 20  1  1
 19 18  1  0
 20 22  1  0
 21 20  2  0
M  END
$$$$
