PTP.pdb
     RDKit          3D

 22 23  0  0  1  0  0  0  0  0999 V2000
   25.9832  -19.9638  -11.4965 N   0  0  0  0  0  0  0  0  0  0  0  0
   26.3356  -21.2787  -11.0302 C   0  0  0  0  0  0  0  0  0  0  0  0
   27.7513  -21.4801  -11.5389 C   0  0  0  0  0  0  0  0  0  0  0  0
   27.6394  -20.8809  -12.9365 C   0  0  0  0  0  0  0  0  0  0  0  0
   26.7363  -19.6935  -12.6799 C   0  0  1  0  0  0  0  0  0  0  0  0
   25.8428  -19.5679  -13.8533 C   0  0  0  0  0  0  0  0  0  0  0  0
   26.3584  -19.3315  -14.9786 O   0  0  0  0  0  0  0  0  0  0  0  0
   25.5040  -20.5596  -16.0695 C   0  0  0  0  0  0  0  0  0  0  0  0
   24.0384  -20.7686  -15.8054 C   0  0  1  0  0  0  0  0  0  0  0  0
   23.9192  -21.9853  -15.1071 O   0  0  0  0  0  0  0  0  0  0  0  0
   23.5660  -19.6402  -14.8846 C   0  0  2  0  0  0  0  0  0  0  0  0
   24.4295  -19.7117  -13.7114 N   0  0  0  0  0  0  0  0  0  0  0  0
   22.1447  -19.8257  -14.4970 C   0  0  0  0  0  0  0  0  0  0  0  0
   21.8926  -20.3183  -13.3675 O   0  0  0  0  0  0  0  0  0  0  0  0
   21.1239  -19.4575  -15.3734 N   0  0  0  0  0  0  0  0  0  0  0  0
   21.1580  -19.0952  -16.7683 C   0  0  0  0  0  0  0  0  0  0  0  0
   20.0518  -18.0691  -16.9558 C   0  0  0  0  0  0  0  0  0  0  0  0
   19.3327  -18.0663  -15.6519 C   0  0  0  0  0  0  0  0  0  0  0  0
   19.7015  -19.3583  -15.0100 C   0  0  1  0  0  0  0  0  0  0  0  0
   18.9887  -20.5249  -15.5546 C   0  0  0  0  0  0  0  0  0  0  0  0
   19.5070  -21.3486  -16.3448 O   0  0  0  0  0  0  0  0  0  0  0  0
   17.6683  -20.7399  -15.1828 O   0  0  0  0  0  0  0  0  0  0  0  0
  1  2  1  0
  3  4  1  0
  3  2  1  0
  4  5  1  0
  5  1  1  0
  5  6  1  6
  7  6  2  0
  9  8  1  1
  9 11  1  0
 10  9  1  0
 11 12  1  1
 11 13  1  0
 12  6  1  0
 13 15  1  0
 14 13  2  0
 15 16  1  0
 15 19  1  0
 16 17  1  0
 17 18  1  0
 19 20  1  6
 19 18  1  0
 20 22  1  0
 21 20  2  0
M  END
$$$$
