PTP.pdb
     RDKit          3D

 22 23  0  0  1  0  0  0  0  0999 V2000
   24.8737  -19.9942  -12.5661 N   0  0  0  0  0  0  0  0  0  0  0  0
   24.0963  -20.9167  -13.3504 C   0  0  0  0  0  0  0  0  0  0  0  0
   22.8696  -21.1798  -12.4963 C   0  0  0  0  0  0  0  0  0  0  0  0
   23.5031  -21.2859  -11.1135 C   0  0  0  0  0  0  0  0  0  0  0  0
   24.5636  -20.2083  -11.1883 C   0  0  1  0  0  0  0  0  0  0  0  0
   25.7466  -20.7140  -10.4565 C   0  0  0  0  0  0  0  0  0  0  0  0
   26.1832  -21.8617  -10.7399 O   0  0  0  0  0  0  0  0  0  0  0  0
   29.7504  -21.1611   -8.8186 C   0  0  0  0  0  0  0  0  0  0  0  0
   28.7364  -20.1367   -9.2474 C   0  0  1  0  0  0  0  0  0  0  0  0
   28.5926  -20.2640  -10.6421 O   0  0  0  0  0  0  0  0  0  0  0  0
   27.4009  -20.5020   -8.5934 C   0  0  2  0  0  0  0  0  0  0  0  0
   26.3773  -19.9183   -9.4528 N   0  0  0  0  0  0  0  0  0  0  0  0
   27.3076  -19.9449   -7.2203 C   0  0  0  0  0  0  0  0  0  0  0  0
   26.2907  -19.2697   -6.9171 O   0  0  0  0  0  0  0  0  0  0  0  0
   28.3295  -20.1732   -6.2987 N   0  0  0  0  0  0  0  0  0  0  0  0
   29.5680  -20.9012   -6.4188 C   0  0  0  0  0  0  0  0  0  0  0  0
   29.8316  -21.4974   -5.0452 C   0  0  0  0  0  0  0  0  0  0  0  0
   28.7858  -20.8891   -4.1772 C   0  0  0  0  0  0  0  0  0  0  0  0
   28.3369  -19.6755   -4.9140 C   0  0  1  0  0  0  0  0  0  0  0  0
   29.2667  -18.5385   -4.8220 C   0  0  0  0  0  0  0  0  0  0  0  0
   29.9737  -18.1406   -5.7776 O   0  0  0  0  0  0  0  0  0  0  0  0
   29.3792  -17.8577   -3.6170 O   0  0  0  0  0  0  0  0  0  0  0  0
  1  2  1  0
  3  4  1  0
  3  2  1  0
  4  5  1  0
  5  1  1  0
  5  6  1  1
  7  6  2  0
  9  8  1  1
  9 11  1  0
 10  9  1  0
 11 12  1  6
 11 13  1  0
 12  6  1  0
 13 15  1  0
 14 13  2  0
 15 16  1  0
 15 19  1  0
 16 17  1  0
 17 18  1  0
 19 20  1  6
 19 18  1  0
 20 22  1  0
 21 20  2  0
M  END
$$$$
