PTP.pdb
     RDKit          3D

 22 23  0  0  1  0  0  0  0  0999 V2000
   19.1676  -15.4962  -17.9046 N   0  0  0  0  0  0  0  0  0  0  0  0
   17.7612  -15.6889  -17.6694 C   0  0  0  0  0  0  0  0  0  0  0  0
   17.0989  -14.6127  -18.5101 C   0  0  0  0  0  0  0  0  0  0  0  0
   18.0323  -13.4352  -18.2519 C   0  0  0  0  0  0  0  0  0  0  0  0
   19.3808  -14.1227  -18.2337 C   0  0  1  0  0  0  0  0  0  0  0  0
   20.1935  -13.4537  -17.1931 C   0  0  0  0  0  0  0  0  0  0  0  0
   20.1359  -13.8907  -16.0124 O   0  0  0  0  0  0  0  0  0  0  0  0
   23.8380  -12.8096  -16.8821 C   0  0  0  0  0  0  0  0  0  0  0  0
   23.1686  -11.4667  -16.9823 C   0  0  1  0  0  0  0  0  0  0  0  0
   23.1130  -11.1397  -18.3506 O   0  0  0  0  0  0  0  0  0  0  0  0
   21.7345  -11.6224  -16.4690 C   0  0  2  0  0  0  0  0  0  0  0  0
   21.0230  -12.3390  -17.5212 N   0  0  0  0  0  0  0  0  0  0  0  0
   21.1073  -10.2989  -16.2245 C   0  0  0  0  0  0  0  0  0  0  0  0
   20.2367   -9.8912  -17.0357 O   0  0  0  0  0  0  0  0  0  0  0  0
   21.4831   -9.5372  -15.1181 N   0  0  0  0  0  0  0  0  0  0  0  0
   22.4289   -9.8020  -14.0630 C   0  0  0  0  0  0  0  0  0  0  0  0
   21.8621   -9.1310  -12.8220 C   0  0  0  0  0  0  0  0  0  0  0  0
   20.6953   -8.3563  -13.3275 C   0  0  0  0  0  0  0  0  0  0  0  0
   20.9385   -8.2103  -14.7892 C   0  0  1  0  0  0  0  0  0  0  0  0
   21.9389   -7.1870  -15.1327 C   0  0  0  0  0  0  0  0  0  0  0  0
   23.0957   -7.4542  -15.5348 O   0  0  0  0  0  0  0  0  0  0  0  0
   21.5987   -5.8464  -15.0101 O   0  0  0  0  0  0  0  0  0  0  0  0
  1  2  1  0
  3  4  1  0
  3  2  1  0
  4  5  1  0
  5  1  1  0
  5  6  1  1
  7  6  2  0
  9  8  1  6
  9 11  1  0
 10  9  1  0
 11 12  1  6
 11 13  1  0
 12  6  1  0
 13 15  1  0
 14 13  2  0
 15 16  1  0
 15 19  1  0
 16 17  1  0
 17 18  1  0
 19 20  1  1
 19 18  1  0
 20 22  1  0
 21 20  2  0
M  END
$$$$
