PTP.pdb
     RDKit          3D

 22 23  0  0  1  0  0  0  0  0999 V2000
   18.5478  -13.1625  -17.1690 N   0  0  0  0  0  0  0  0  0  0  0  0
   19.1953  -14.1722  -17.9639 C   0  0  0  0  0  0  0  0  0  0  0  0
   20.3614  -14.6231  -17.1035 C   0  0  0  0  0  0  0  0  0  0  0  0
   20.8413  -13.2855  -16.5509 C   0  0  0  0  0  0  0  0  0  0  0  0
   19.5270  -12.5734  -16.3120 C   0  0  1  0  0  0  0  0  0  0  0  0
   19.7377  -11.1494  -16.6570 C   0  0  0  0  0  0  0  0  0  0  0  0
   19.9762  -10.8509  -17.8579 O   0  0  0  0  0  0  0  0  0  0  0  0
   17.6825   -8.4832  -16.9996 C   0  0  0  0  0  0  0  0  0  0  0  0
   18.5470   -8.0527  -15.8468 C   0  0  1  0  0  0  0  0  0  0  0  0
   17.9368   -8.5397  -14.6752 O   0  0  0  0  0  0  0  0  0  0  0  0
   19.9053   -8.7423  -16.0009 C   0  0  2  0  0  0  0  0  0  0  0  0
   19.6717  -10.1387  -15.6508 N   0  0  0  0  0  0  0  0  0  0  0  0
   20.9165   -8.1406  -15.0954 C   0  0  0  0  0  0  0  0  0  0  0  0
   21.2675   -8.7892  -14.0765 O   0  0  0  0  0  0  0  0  0  0  0  0
   21.4565   -6.8864  -15.3801 N   0  0  0  0  0  0  0  0  0  0  0  0
   21.1838   -5.9582  -16.4489 C   0  0  0  0  0  0  0  0  0  0  0  0
   22.5030   -5.2586  -16.7352 C   0  0  0  0  0  0  0  0  0  0  0  0
   23.4066   -5.7258  -15.6479 C   0  0  0  0  0  0  0  0  0  0  0  0
   22.4945   -6.2185  -14.5789 C   0  0  1  0  0  0  0  0  0  0  0  0
   21.8680   -5.1502  -13.7840 C   0  0  0  0  0  0  0  0  0  0  0  0
   20.6892   -4.7589  -13.9533 O   0  0  0  0  0  0  0  0  0  0  0  0
   22.6100   -4.5308  -12.7870 O   0  0  0  0  0  0  0  0  0  0  0  0
  1  2  1  0
  3  4  1  0
  3  2  1  0
  4  5  1  0
  5  1  1  0
  5  6  1  6
  7  6  2  0
  9  8  1  6
  9 11  1  0
 10  9  1  0
 11 12  1  1
 11 13  1  0
 12  6  1  0
 13 15  1  0
 14 13  2  0
 15 16  1  0
 15 19  1  0
 16 17  1  0
 17 18  1  0
 19 20  1  6
 19 18  1  0
 20 22  1  0
 21 20  2  0
M  END
$$$$
