CMG.pdb
     RDKit          3D

 19 18  0  0  1  0  0  0  0  0999 V2000
   19.6243  -14.8321  -18.1381 N   0  0  0  0  0  0  0  0  0  0  0  0
   20.0328  -13.4949  -18.4315 C   0  0  1  0  0  0  0  0  0  0  0  0
   18.8988  -12.5984  -18.8769 C   0  0  0  0  0  0  0  0  0  0  0  0
   18.3514  -13.2288  -20.5097 S   0  0  0  0  0  0  0  0  0  0  0  0
   20.7819  -12.9207  -17.2908 C   0  0  0  0  0  0  0  0  0  0  0  0
   20.3877  -12.9959  -16.0995 O   0  0  0  0  0  0  0  0  0  0  0  0
   26.5799   -9.0993  -15.5702 C   0  0  0  0  0  0  0  0  0  0  0  0
   26.2595  -10.6288  -16.5187 S   0  0  0  0  0  0  0  0  0  0  0  0
   25.0936  -11.6583  -15.5289 C   0  0  0  0  0  0  0  0  0  0  0  0
   24.0903  -12.1939  -16.4809 C   0  0  0  0  0  0  0  0  0  0  0  0
   22.7306  -11.5755  -16.4504 C   0  0  2  0  0  0  0  0  0  0  0  0
   21.9966  -12.2558  -17.5457 N   0  0  0  0  0  0  0  0  0  0  0  0
   22.6904  -10.1358  -16.7792 C   0  0  0  0  0  0  0  0  0  0  0  0
   22.9575   -9.7009  -17.9548 O   0  0  0  0  0  0  0  0  0  0  0  0
   22.3570   -9.1163  -15.8460 N   0  0  0  0  0  0  0  0  0  0  0  0
   22.3261   -7.7053  -16.2441 C   0  0  0  0  0  0  0  0  0  0  0  0
   21.9592   -6.8734  -15.0731 C   0  0  0  0  0  0  0  0  0  0  0  0
   22.8841   -6.0919  -14.4326 O   0  0  0  0  0  0  0  0  0  0  0  0
   20.7786   -6.8538  -14.6220 O   0  0  0  0  0  0  0  0  0  0  0  0
  2  1  1  1
  3  2  1  0
  4  3  1  0
  5  2  1  0
  6  5  2  0
  8  7  1  0
  8  9  1  0
 10  9  1  0
 11 10  1  6
 11 12  1  0
 12  5  1  0
 13 11  1  0
 13 15  1  0
 14 13  2  0
 16 15  1  0
 17 16  1  0
 18 17  1  0
 19 17  2  0
M  END
$$$$
