CMG.pdb
     RDKit          3D

 19 18  0  0  1  0  0  0  0  0999 V2000
   25.7502  -11.8999  -18.3325 N   0  0  0  0  0  0  0  0  0  0  0  0
   25.4808  -11.1965  -17.1187 C   0  0  1  0  0  0  0  0  0  0  0  0
   26.7259  -10.8227  -16.3452 C   0  0  0  0  0  0  0  0  0  0  0  0
   27.4259  -12.3909  -15.7021 S   0  0  0  0  0  0  0  0  0  0  0  0
   24.6150  -10.0245  -17.3810 C   0  0  0  0  0  0  0  0  0  0  0  0
   24.7818   -9.2489  -18.3563 O   0  0  0  0  0  0  0  0  0  0  0  0
   17.2188   -8.4624  -17.7279 C   0  0  0  0  0  0  0  0  0  0  0  0
   18.6967   -9.5234  -17.5492 S   0  0  0  0  0  0  0  0  0  0  0  0
   20.1331   -8.4171  -17.2147 C   0  0  0  0  0  0  0  0  0  0  0  0
   21.3189   -9.2964  -17.0708 C   0  0  0  0  0  0  0  0  0  0  0  0
   22.6194   -8.6326  -16.7539 C   0  0  2  0  0  0  0  0  0  0  0  0
   23.5504   -9.7591  -16.4985 N   0  0  0  0  0  0  0  0  0  0  0  0
   22.6244   -7.8245  -15.5172 C   0  0  0  0  0  0  0  0  0  0  0  0
   22.8840   -8.3385  -14.3722 O   0  0  0  0  0  0  0  0  0  0  0  0
   22.3505   -6.4299  -15.4778 N   0  0  0  0  0  0  0  0  0  0  0  0
   22.2626   -5.7107  -14.2029 C   0  0  0  0  0  0  0  0  0  0  0  0
   22.1776   -4.2542  -14.4664 C   0  0  0  0  0  0  0  0  0  0  0  0
   22.0964   -3.3458  -13.4443 O   0  0  0  0  0  0  0  0  0  0  0  0
   22.1772   -3.7961  -15.6444 O   0  0  0  0  0  0  0  0  0  0  0  0
  2  1  1  6
  3  2  1  0
  4  3  1  0
  5  2  1  0
  6  5  2  0
  8  7  1  0
  8  9  1  0
 10  9  1  0
 11 10  1  1
 11 12  1  0
 12  5  1  0
 13 11  1  0
 13 15  1  0
 14 13  2  0
 16 15  1  0
 17 16  1  0
 18 17  1  0
 19 17  2  0
M  END
$$$$
