CMG.pdb
     RDKit          3D

 19 18  0  0  1  0  0  0  0  0999 V2000
   17.0244  -10.8257  -16.5829 N   0  0  0  0  0  0  0  0  0  0  0  0
   17.7754   -9.6627  -16.9357 C   0  0  1  0  0  0  0  0  0  0  0  0
   16.9470   -8.3980  -16.9857 C   0  0  0  0  0  0  0  0  0  0  0  0
   15.8621   -8.5477  -18.4566 S   0  0  0  0  0  0  0  0  0  0  0  0
   18.9555   -9.5213  -16.0529 C   0  0  0  0  0  0  0  0  0  0  0  0
   18.9253   -9.7588  -14.8187 O   0  0  0  0  0  0  0  0  0  0  0  0
   23.7955  -11.8882  -13.8420 C   0  0  0  0  0  0  0  0  0  0  0  0
   24.2931  -11.4397  -15.5429 S   0  0  0  0  0  0  0  0  0  0  0  0
   23.7862   -9.6893  -15.8228 C   0  0  0  0  0  0  0  0  0  0  0  0
   22.4295   -9.7329  -16.4206 C   0  0  0  0  0  0  0  0  0  0  0  0
   21.3738   -8.9035  -15.7648 C   0  0  2  0  0  0  0  0  0  0  0  0
   20.1750   -9.1001  -16.6166 N   0  0  0  0  0  0  0  0  0  0  0  0
   21.6295   -7.4485  -15.7679 C   0  0  0  0  0  0  0  0  0  0  0  0
   21.6397   -6.7640  -16.8514 O   0  0  0  0  0  0  0  0  0  0  0  0
   21.8807   -6.6831  -14.5964 N   0  0  0  0  0  0  0  0  0  0  0  0
   22.2066   -5.2558  -14.6793 C   0  0  0  0  0  0  0  0  0  0  0  0
   20.9863   -4.4578  -14.4104 C   0  0  0  0  0  0  0  0  0  0  0  0
   21.0348   -3.0938  -14.2937 O   0  0  0  0  0  0  0  0  0  0  0  0
   19.8553   -5.0064  -14.2791 O   0  0  0  0  0  0  0  0  0  0  0  0
  2  1  1  1
  3  2  1  0
  4  3  1  0
  5  2  1  0
  6  5  2  0
  8  7  1  0
  8  9  1  0
 10  9  1  0
 11 10  1  6
 11 12  1  0
 12  5  1  0
 13 11  1  0
 13 15  1  0
 14 13  2  0
 16 15  1  0
 17 16  1  0
 18 17  1  0
 19 17  2  0
M  END
$$$$
