CMG.pdb
     RDKit          3D

 19 18  0  0  1  0  0  0  0  0999 V2000
   16.7063  -11.2175  -11.7390 N   0  0  0  0  0  0  0  0  0  0  0  0
   17.3532   -9.9526  -11.5891 C   0  0  1  0  0  0  0  0  0  0  0  0
   18.1187   -9.5136  -12.8177 C   0  0  0  0  0  0  0  0  0  0  0  0
   19.4123  -10.7819  -13.1020 S   0  0  0  0  0  0  0  0  0  0  0  0
   16.3852   -8.9265  -11.1396 C   0  0  0  0  0  0  0  0  0  0  0  0
   15.2286   -8.8132  -11.6190 O   0  0  0  0  0  0  0  0  0  0  0  0
   11.0878   -9.4147   -8.0225 C   0  0  0  0  0  0  0  0  0  0  0  0
   12.8194   -9.0449   -7.5681 S   0  0  0  0  0  0  0  0  0  0  0  0
   13.5551   -8.0669   -8.9469 C   0  0  0  0  0  0  0  0  0  0  0  0
   14.9855   -7.8692   -8.6083 C   0  0  0  0  0  0  0  0  0  0  0  0
   15.8014   -7.0594   -9.5627 C   0  0  2  0  0  0  0  0  0  0  0  0
   16.7725   -8.0296  -10.1256 N   0  0  0  0  0  0  0  0  0  0  0  0
   16.6169   -5.9953   -8.9421 C   0  0  0  0  0  0  0  0  0  0  0  0
   17.5795   -6.2600   -8.1385 O   0  0  0  0  0  0  0  0  0  0  0  0
   16.4196   -4.6062   -9.1725 N   0  0  0  0  0  0  0  0  0  0  0  0
   17.2210   -3.6001   -8.4684 C   0  0  0  0  0  0  0  0  0  0  0  0
   16.7751   -2.2459   -8.8749 C   0  0  0  0  0  0  0  0  0  0  0  0
   15.8210   -2.0669   -9.8415 O   0  0  0  0  0  0  0  0  0  0  0  0
   17.2586   -1.2055   -8.3445 O   0  0  0  0  0  0  0  0  0  0  0  0
  2  1  1  6
  3  2  1  0
  4  3  1  0
  5  2  1  0
  6  5  2  0
  8  7  1  0
  8  9  1  0
 10  9  1  0
 11 10  1  1
 11 12  1  0
 12  5  1  0
 13 11  1  0
 13 15  1  0
 14 13  2  0
 16 15  1  0
 17 16  1  0
 18 17  1  0
 19 17  2  0
M  END
$$$$
