CMG.pdb
     RDKit          3D

 19 18  0  0  1  0  0  0  0  0999 V2000
   29.0138  -20.1399  -15.4563 N   0  0  0  0  0  0  0  0  0  0  0  0
   28.0439  -19.4867  -14.6356 C   0  0  1  0  0  0  0  0  0  0  0  0
   27.1040  -18.5868  -15.4070 C   0  0  0  0  0  0  0  0  0  0  0  0
   28.0983  -17.1454  -15.9518 S   0  0  0  0  0  0  0  0  0  0  0  0
   27.3154  -20.4755  -13.8088 C   0  0  0  0  0  0  0  0  0  0  0  0
   27.1500  -21.6733  -14.1529 O   0  0  0  0  0  0  0  0  0  0  0  0
   27.5886  -20.3253   -7.6101 C   0  0  0  0  0  0  0  0  0  0  0  0
   25.7633  -20.3189   -7.7095 S   0  0  0  0  0  0  0  0  0  0  0  0
   25.2946  -21.1135   -9.3057 C   0  0  0  0  0  0  0  0  0  0  0  0
   26.1142  -20.4641  -10.3576 C   0  0  0  0  0  0  0  0  0  0  0  0
   25.9759  -20.9946  -11.7475 C   0  0  2  0  0  0  0  0  0  0  0  0
   26.7783  -20.0607  -12.5751 N   0  0  0  0  0  0  0  0  0  0  0  0
   24.6081  -20.9436  -12.3034 C   0  0  0  0  0  0  0  0  0  0  0  0
   24.1069  -19.8618  -12.7734 O   0  0  0  0  0  0  0  0  0  0  0  0
   23.7356  -22.0641  -12.3720 N   0  0  0  0  0  0  0  0  0  0  0  0
   22.4453  -21.9786  -13.0634 C   0  0  0  0  0  0  0  0  0  0  0  0
   21.4929  -21.2060  -12.2303 C   0  0  0  0  0  0  0  0  0  0  0  0
   20.8097  -20.1312  -12.7348 O   0  0  0  0  0  0  0  0  0  0  0  0
   21.2753  -21.5105  -11.0230 O   0  0  0  0  0  0  0  0  0  0  0  0
  2  1  1  6
  3  2  1  0
  4  3  1  0
  5  2  1  0
  6  5  2  0
  8  7  1  0
  8  9  1  0
 10  9  1  0
 11 10  1  1
 11 12  1  0
 12  5  1  0
 13 11  1  0
 13 15  1  0
 14 13  2  0
 16 15  1  0
 17 16  1  0
 18 17  1  0
 19 17  2  0
M  END
$$$$
