CMG.pdb
     RDKit          3D

 19 18  0  0  1  0  0  0  0  0999 V2000
   20.8195  -20.0945  -11.1287 N   0  0  0  0  0  0  0  0  0  0  0  0
   21.9281  -20.9824  -11.2814 C   0  0  1  0  0  0  0  0  0  0  0  0
   21.9618  -21.6860  -12.6201 C   0  0  0  0  0  0  0  0  0  0  0  0
   20.5670  -22.8766  -12.6141 S   0  0  0  0  0  0  0  0  0  0  0  0
   23.1981  -20.2795  -10.9893 C   0  0  0  0  0  0  0  0  0  0  0  0
   23.4180  -19.0872  -11.3217 O   0  0  0  0  0  0  0  0  0  0  0  0
   27.3023  -18.7360   -5.8650 C   0  0  0  0  0  0  0  0  0  0  0  0
   27.2803  -20.4788   -6.4161 S   0  0  0  0  0  0  0  0  0  0  0  0
   27.3015  -20.4751   -8.2596 C   0  0  0  0  0  0  0  0  0  0  0  0
   25.9156  -20.7690   -8.6986 C   0  0  0  0  0  0  0  0  0  0  0  0
   25.5402  -20.3481  -10.0822 C   0  0  2  0  0  0  0  0  0  0  0  0
   24.2141  -20.9747  -10.3061 N   0  0  0  0  0  0  0  0  0  0  0  0
   26.4128  -20.8707  -11.1536 C   0  0  0  0  0  0  0  0  0  0  0  0
   27.6649  -20.6012  -11.2004 O   0  0  0  0  0  0  0  0  0  0  0  0
   25.9598  -21.7060  -12.2112 N   0  0  0  0  0  0  0  0  0  0  0  0
   26.8978  -22.2654  -13.1897 C   0  0  0  0  0  0  0  0  0  0  0  0
   26.8195  -21.4833  -14.4468 C   0  0  0  0  0  0  0  0  0  0  0  0
   27.8742  -20.7277  -14.8862 O   0  0  0  0  0  0  0  0  0  0  0  0
   25.7763  -21.4847  -15.1604 O   0  0  0  0  0  0  0  0  0  0  0  0
  2  1  1  6
  3  2  1  0
  4  3  1  0
  5  2  1  0
  6  5  2  0
  8  7  1  0
  8  9  1  0
 10  9  1  0
 11 10  1  1
 11 12  1  0
 12  5  1  0
 13 11  1  0
 13 15  1  0
 14 13  2  0
 16 15  1  0
 17 16  1  0
 18 17  1  0
 19 17  2  0
M  END
$$$$
