CMG.pdb
     RDKit          3D

 19 18  0  0  1  0  0  0  0  0999 V2000
   21.0897  -13.3591  -18.6707 N   0  0  0  0  0  0  0  0  0  0  0  0
   21.5145  -12.0285  -18.9702 C   0  0  1  0  0  0  0  0  0  0  0  0
   20.4712  -11.2075  -19.6951 C   0  0  0  0  0  0  0  0  0  0  0  0
   20.4827  -11.7781  -21.4379 S   0  0  0  0  0  0  0  0  0  0  0  0
   22.0031  -11.3535  -17.7463 C   0  0  0  0  0  0  0  0  0  0  0  0
   21.4646  -11.4956  -16.6192 O   0  0  0  0  0  0  0  0  0  0  0  0
   27.3839  -11.9180  -14.9470 C   0  0  0  0  0  0  0  0  0  0  0  0
   27.6099  -10.2845  -15.7357 S   0  0  0  0  0  0  0  0  0  0  0  0
   25.9840   -9.4168  -15.6840 C   0  0  0  0  0  0  0  0  0  0  0  0
   25.1478  -10.0227  -16.7487 C   0  0  0  0  0  0  0  0  0  0  0  0
   23.6697   -9.8347  -16.6378 C   0  0  2  0  0  0  0  0  0  0  0  0
   23.1256  -10.5090  -17.8422 N   0  0  0  0  0  0  0  0  0  0  0  0
   23.2089   -8.4338  -16.7242 C   0  0  0  0  0  0  0  0  0  0  0  0
   23.4182   -7.7139  -17.7637 O   0  0  0  0  0  0  0  0  0  0  0  0
   22.5028   -7.7639  -15.6879 N   0  0  0  0  0  0  0  0  0  0  0  0
   22.1410   -6.3481  -15.8101 C   0  0  0  0  0  0  0  0  0  0  0  0
   22.9229   -5.5559  -14.8308 C   0  0  0  0  0  0  0  0  0  0  0  0
   22.7430   -4.2045  -14.6973 O   0  0  0  0  0  0  0  0  0  0  0  0
   23.7848   -6.0981  -14.0820 O   0  0  0  0  0  0  0  0  0  0  0  0
  2  1  1  1
  3  2  1  0
  4  3  1  0
  5  2  1  0
  6  5  2  0
  8  7  1  0
  8  9  1  0
 10  9  1  0
 11 10  1  6
 11 12  1  0
 12  5  1  0
 13 11  1  0
 13 15  1  0
 14 13  2  0
 16 15  1  0
 17 16  1  0
 18 17  1  0
 19 17  2  0
M  END
$$$$
