CMG.pdb
     RDKit          3D

 19 18  0  0  1  0  0  0  0  0999 V2000
   15.2444  -11.7456  -13.5252 N   0  0  0  0  0  0  0  0  0  0  0  0
   16.5249  -11.1598  -13.2845 C   0  0  1  0  0  0  0  0  0  0  0  0
   17.4697  -11.2626  -14.4614 C   0  0  0  0  0  0  0  0  0  0  0  0
   17.9436  -13.0294  -14.5917 S   0  0  0  0  0  0  0  0  0  0  0  0
   16.3751   -9.7651  -12.8105 C   0  0  0  0  0  0  0  0  0  0  0  0
   15.5028   -8.9762  -13.2547 O   0  0  0  0  0  0  0  0  0  0  0  0
   13.8996   -7.7014   -8.7353 C   0  0  0  0  0  0  0  0  0  0  0  0
   15.2979   -6.8107   -7.9651 S   0  0  0  0  0  0  0  0  0  0  0  0
   16.6225   -6.6564   -9.2382 C   0  0  0  0  0  0  0  0  0  0  0  0
   16.6027   -7.9148  -10.0230 C   0  0  0  0  0  0  0  0  0  0  0  0
   17.2121   -7.8718  -11.3865 C   0  0  2  0  0  0  0  0  0  0  0  0
   17.2495   -9.2922  -11.8134 N   0  0  0  0  0  0  0  0  0  0  0  0
   18.6135   -7.4063  -11.4311 C   0  0  0  0  0  0  0  0  0  0  0  0
   19.5675   -8.0745  -10.8964 O   0  0  0  0  0  0  0  0  0  0  0  0
   19.0310   -6.2010  -12.0591 N   0  0  0  0  0  0  0  0  0  0  0  0
   20.4326   -5.7718  -12.0188 C   0  0  0  0  0  0  0  0  0  0  0  0
   21.0424   -5.9624  -13.3566 C   0  0  0  0  0  0  0  0  0  0  0  0
   22.2846   -5.4672  -13.6539 O   0  0  0  0  0  0  0  0  0  0  0  0
   20.4389   -6.5895  -14.2732 O   0  0  0  0  0  0  0  0  0  0  0  0
  2  1  1  6
  3  2  1  0
  4  3  1  0
  5  2  1  0
  6  5  2  0
  8  7  1  0
  8  9  1  0
 10  9  1  0
 11 10  1  1
 11 12  1  0
 12  5  1  0
 13 11  1  0
 13 15  1  0
 14 13  2  0
 16 15  1  0
 17 16  1  0
 18 17  1  0
 19 17  2  0
M  END
$$$$
