CMG.pdb
     RDKit          3D

 19 18  0  0  1  0  0  0  0  0999 V2000
   20.7630  -17.9296  -16.2827 N   0  0  0  0  0  0  0  0  0  0  0  0
   20.6974  -16.6407  -16.8952 C   0  0  1  0  0  0  0  0  0  0  0  0
   19.2967  -16.0742  -16.9675 C   0  0  0  0  0  0  0  0  0  0  0  0
   18.3541  -17.1676  -18.0984 S   0  0  0  0  0  0  0  0  0  0  0  0
   21.6425  -15.7079  -16.2403 C   0  0  0  0  0  0  0  0  0  0  0  0
   21.8252  -15.6720  -14.9970 O   0  0  0  0  0  0  0  0  0  0  0  0
   26.8336  -16.9240  -14.7339 C   0  0  0  0  0  0  0  0  0  0  0  0
   25.9133  -15.3886  -15.1044 S   0  0  0  0  0  0  0  0  0  0  0  0
   25.2872  -15.5238  -16.8332 C   0  0  0  0  0  0  0  0  0  0  0  0
   24.6480  -14.2245  -17.1538 C   0  0  0  0  0  0  0  0  0  0  0  0
   23.3767  -13.9007  -16.4387 C   0  0  2  0  0  0  0  0  0  0  0  0
   22.3760  -14.8139  -17.0435 N   0  0  0  0  0  0  0  0  0  0  0  0
   22.8597  -12.5360  -16.6685 C   0  0  0  0  0  0  0  0  0  0  0  0
   23.5347  -11.4930  -16.3537 O   0  0  0  0  0  0  0  0  0  0  0  0
   21.5934  -12.2532  -17.2500 N   0  0  0  0  0  0  0  0  0  0  0  0
   21.1083  -10.8751  -17.3759 C   0  0  0  0  0  0  0  0  0  0  0  0
   21.5227  -10.3275  -18.6898 C   0  0  0  0  0  0  0  0  0  0  0  0
   21.2031   -9.0495  -19.0653 O   0  0  0  0  0  0  0  0  0  0  0  0
   22.1870  -11.0195  -19.5129 O   0  0  0  0  0  0  0  0  0  0  0  0
  2  1  1  1
  3  2  1  0
  4  3  1  0
  5  2  1  0
  6  5  2  0
  8  7  1  0
  8  9  1  0
 10  9  1  0
 11 10  1  6
 11 12  1  0
 12  5  1  0
 13 11  1  0
 13 15  1  0
 14 13  2  0
 16 15  1  0
 17 16  1  0
 18 17  1  0
 19 17  2  0
M  END
$$$$
