CMG.pdb
     RDKit          3D

 19 18  0  0  1  0  0  0  0  0999 V2000
   27.8532  -21.8817  -16.2454 N   0  0  0  0  0  0  0  0  0  0  0  0
   27.4622  -20.7829  -15.4205 C   0  0  1  0  0  0  0  0  0  0  0  0
   26.9089  -19.6085  -16.1969 C   0  0  0  0  0  0  0  0  0  0  0  0
   25.1632  -20.0183  -16.5810 S   0  0  0  0  0  0  0  0  0  0  0  0
   26.5341  -21.2366  -14.3599 C   0  0  0  0  0  0  0  0  0  0  0  0
   26.0427  -22.3932  -14.3226 O   0  0  0  0  0  0  0  0  0  0  0  0
   24.5161  -21.6107   -7.4236 C   0  0  0  0  0  0  0  0  0  0  0  0
   25.5531  -21.5169   -8.9261 S   0  0  0  0  0  0  0  0  0  0  0  0
   25.1514  -19.9309   -9.7760 C   0  0  0  0  0  0  0  0  0  0  0  0
   25.9270  -19.9208  -11.0401 C   0  0  0  0  0  0  0  0  0  0  0  0
   25.4330  -20.7975  -12.1445 C   0  0  2  0  0  0  0  0  0  0  0  0
   26.1799  -20.3334  -13.3395 N   0  0  0  0  0  0  0  0  0  0  0  0
   24.0038  -20.6346  -12.4810 C   0  0  0  0  0  0  0  0  0  0  0  0
   23.5708  -19.6154  -13.1262 O   0  0  0  0  0  0  0  0  0  0  0  0
   22.9932  -21.5718  -12.1321 N   0  0  0  0  0  0  0  0  0  0  0  0
   21.5742  -21.2716  -12.3480 C   0  0  0  0  0  0  0  0  0  0  0  0
   21.1822  -21.7083  -13.7095 C   0  0  0  0  0  0  0  0  0  0  0  0
   19.9234  -21.4804  -14.1993 O   0  0  0  0  0  0  0  0  0  0  0  0
   21.9953  -22.3073  -14.4696 O   0  0  0  0  0  0  0  0  0  0  0  0
  2  1  1  6
  3  2  1  0
  4  3  1  0
  5  2  1  0
  6  5  2  0
  8  7  1  0
  8  9  1  0
 10  9  1  0
 11 10  1  1
 11 12  1  0
 12  5  1  0
 13 11  1  0
 13 15  1  0
 14 13  2  0
 16 15  1  0
 17 16  1  0
 18 17  1  0
 19 17  2  0
M  END
$$$$
