CMG.pdb
     RDKit          3D

 19 18  0  0  1  0  0  0  0  0999 V2000
   21.5687  -13.3202  -17.9949 N   0  0  0  0  0  0  0  0  0  0  0  0
   21.8201  -11.9393  -18.2608 C   0  0  1  0  0  0  0  0  0  0  0  0
   20.7375  -11.2728  -19.0806 C   0  0  0  0  0  0  0  0  0  0  0  0
   20.8819  -11.9515  -20.7781 S   0  0  0  0  0  0  0  0  0  0  0  0
   22.0930  -11.2111  -17.0009 C   0  0  0  0  0  0  0  0  0  0  0  0
   21.4856  -11.4437  -15.9250 O   0  0  0  0  0  0  0  0  0  0  0  0
   27.7089   -9.4295  -16.8014 C   0  0  0  0  0  0  0  0  0  0  0  0
   27.0541  -10.9902  -16.1106 S   0  0  0  0  0  0  0  0  0  0  0  0
   25.5994  -10.5623  -15.0619 C   0  0  0  0  0  0  0  0  0  0  0  0
   24.9069   -9.4386  -15.7383 C   0  0  0  0  0  0  0  0  0  0  0  0
   23.4133   -9.4749  -15.7538 C   0  0  2  0  0  0  0  0  0  0  0  0
   23.0799  -10.2069  -17.0005 N   0  0  0  0  0  0  0  0  0  0  0  0
   22.7567   -8.1574  -15.8786 C   0  0  0  0  0  0  0  0  0  0  0  0
   22.8248   -7.2752  -14.9515 O   0  0  0  0  0  0  0  0  0  0  0  0
   22.0048   -7.7484  -17.0139 N   0  0  0  0  0  0  0  0  0  0  0  0
   21.3105   -6.4570  -17.0376 C   0  0  0  0  0  0  0  0  0  0  0  0
   22.2149   -5.4242  -17.5973 C   0  0  0  0  0  0  0  0  0  0  0  0
   21.7901   -4.1389  -17.8072 O   0  0  0  0  0  0  0  0  0  0  0  0
   23.4123   -5.6911  -17.9016 O   0  0  0  0  0  0  0  0  0  0  0  0
  2  1  1  1
  3  2  1  0
  4  3  1  0
  5  2  1  0
  6  5  2  0
  8  7  1  0
  8  9  1  0
 10  9  1  0
 11 10  1  6
 11 12  1  0
 12  5  1  0
 13 11  1  0
 13 15  1  0
 14 13  2  0
 16 15  1  0
 17 16  1  0
 18 17  1  0
 19 17  2  0
M  END
$$$$
