CMG.pdb
     RDKit          3D

 19 18  0  0  1  0  0  0  0  0999 V2000
   26.6963  -11.9713  -17.7310 N   0  0  0  0  0  0  0  0  0  0  0  0
   25.6660  -11.2586  -17.0443 C   0  0  1  0  0  0  0  0  0  0  0  0
   26.0421   -9.8355  -16.6956 C   0  0  0  0  0  0  0  0  0  0  0  0
   27.3810   -9.9452  -15.4472 S   0  0  0  0  0  0  0  0  0  0  0  0
   24.3952  -11.3297  -17.8006 C   0  0  0  0  0  0  0  0  0  0  0  0
   24.3428  -11.4136  -19.0539 O   0  0  0  0  0  0  0  0  0  0  0  0
   20.8684  -16.8496  -18.0081 C   0  0  0  0  0  0  0  0  0  0  0  0
   20.6405  -15.2976  -17.0693 S   0  0  0  0  0  0  0  0  0  0  0  0
   21.4993  -13.9581  -18.0006 C   0  0  0  0  0  0  0  0  0  0  0  0
   21.3057  -12.7110  -17.2214 C   0  0  0  0  0  0  0  0  0  0  0  0
   21.8860  -11.4586  -17.7933 C   0  0  2  0  0  0  0  0  0  0  0  0
   23.1815  -11.3021  -17.0874 N   0  0  0  0  0  0  0  0  0  0  0  0
   21.1239  -10.2266  -17.5033 C   0  0  0  0  0  0  0  0  0  0  0  0
   19.9643  -10.0125  -18.0053 O   0  0  0  0  0  0  0  0  0  0  0  0
   21.5906   -9.1839  -16.6569 N   0  0  0  0  0  0  0  0  0  0  0  0
   20.7976   -7.9691  -16.4434 C   0  0  0  0  0  0  0  0  0  0  0  0
   21.4575   -7.1269  -15.4171 C   0  0  0  0  0  0  0  0  0  0  0  0
   22.7837   -6.7961  -15.5078 O   0  0  0  0  0  0  0  0  0  0  0  0
   20.8207   -6.6821  -14.4200 O   0  0  0  0  0  0  0  0  0  0  0  0
  2  1  1  6
  3  2  1  0
  4  3  1  0
  5  2  1  0
  6  5  2  0
  8  7  1  0
  8  9  1  0
 10  9  1  0
 11 10  1  1
 11 12  1  0
 12  5  1  0
 13 11  1  0
 13 15  1  0
 14 13  2  0
 16 15  1  0
 17 16  1  0
 18 17  1  0
 19 17  2  0
M  END
$$$$
