CMG.pdb
     RDKit          3D

 19 18  0  0  1  0  0  0  0  0999 V2000
   21.0314  -20.8045  -13.5065 N   0  0  0  0  0  0  0  0  0  0  0  0
   22.1212  -20.8067  -14.4301 C   0  0  1  0  0  0  0  0  0  0  0  0
   21.7609  -20.2621  -15.7945 C   0  0  0  0  0  0  0  0  0  0  0  0
   21.6035  -21.7125  -16.9056 S   0  0  0  0  0  0  0  0  0  0  0  0
   23.2948  -20.1174  -13.8472 C   0  0  0  0  0  0  0  0  0  0  0  0
   23.3960  -18.8661  -13.7799 O   0  0  0  0  0  0  0  0  0  0  0  0
   24.7011  -21.7435   -8.5327 C   0  0  0  0  0  0  0  0  0  0  0  0
   25.3801  -20.0743   -8.8397 S   0  0  0  0  0  0  0  0  0  0  0  0
   26.4356  -20.1765  -10.3479 C   0  0  0  0  0  0  0  0  0  0  0  0
   25.6380  -20.8913  -11.3739 C   0  0  0  0  0  0  0  0  0  0  0  0
   25.5363  -20.2505  -12.7198 C   0  0  2  0  0  0  0  0  0  0  0  0
   24.3538  -20.8956  -13.3418 N   0  0  0  0  0  0  0  0  0  0  0  0
   26.6655  -20.5271  -13.6314 C   0  0  0  0  0  0  0  0  0  0  0  0
   27.8087  -19.9669  -13.4844 O   0  0  0  0  0  0  0  0  0  0  0  0
   26.5963  -21.4227  -14.7335 N   0  0  0  0  0  0  0  0  0  0  0  0
   27.7686  -21.6789  -15.5763 C   0  0  0  0  0  0  0  0  0  0  0  0
   27.4450  -22.7434  -16.5561 C   0  0  0  0  0  0  0  0  0  0  0  0
   27.1460  -24.0185  -16.1544 O   0  0  0  0  0  0  0  0  0  0  0  0
   27.4324  -22.5142  -17.7990 O   0  0  0  0  0  0  0  0  0  0  0  0
  2  1  1  1
  3  2  1  0
  4  3  1  0
  5  2  1  0
  6  5  2  0
  8  7  1  0
  8  9  1  0
 10  9  1  0
 11 10  1  1
 11 12  1  0
 12  5  1  0
 13 11  1  0
 13 15  1  0
 14 13  2  0
 16 15  1  0
 17 16  1  0
 18 17  1  0
 19 17  2  0
M  END
$$$$
