CMG.pdb
     RDKit          3D

 19 18  0  0  1  0  0  0  0  0999 V2000
   25.7697  -25.0066  -15.7228 N   0  0  0  0  0  0  0  0  0  0  0  0
   25.9794  -23.6045  -15.5471 C   0  0  1  0  0  0  0  0  0  0  0  0
   25.6220  -22.7807  -16.7644 C   0  0  0  0  0  0  0  0  0  0  0  0
   26.8831  -23.1662  -18.0387 S   0  0  0  0  0  0  0  0  0  0  0  0
   25.2880  -23.1266  -14.3283 C   0  0  0  0  0  0  0  0  0  0  0  0
   24.2591  -23.6762  -13.8593 O   0  0  0  0  0  0  0  0  0  0  0  0
   23.4992  -21.0129   -8.9084 C   0  0  0  0  0  0  0  0  0  0  0  0
   25.2841  -21.2264   -9.2405 S   0  0  0  0  0  0  0  0  0  0  0  0
   25.7631  -19.9766  -10.5084 C   0  0  0  0  0  0  0  0  0  0  0  0
   26.1793  -20.7351  -11.7131 C   0  0  0  0  0  0  0  0  0  0  0  0
   25.1046  -21.4436  -12.4717 C   0  0  2  0  0  0  0  0  0  0  0  0
   25.8024  -22.0013  -13.6563 N   0  0  0  0  0  0  0  0  0  0  0  0
   24.0407  -20.5719  -13.0109 C   0  0  0  0  0  0  0  0  0  0  0  0
   24.2735  -19.7028  -13.9236 O   0  0  0  0  0  0  0  0  0  0  0  0
   22.6859  -20.6127  -12.5816 N   0  0  0  0  0  0  0  0  0  0  0  0
   21.6996  -19.6562  -13.0939 C   0  0  0  0  0  0  0  0  0  0  0  0
   20.9359  -20.2836  -14.1989 C   0  0  0  0  0  0  0  0  0  0  0  0
   20.6294  -19.5910  -15.3403 O   0  0  0  0  0  0  0  0  0  0  0  0
   20.5393  -21.4817  -14.1293 O   0  0  0  0  0  0  0  0  0  0  0  0
  2  1  1  6
  3  2  1  0
  4  3  1  0
  5  2  1  0
  6  5  2  0
  8  7  1  0
  8  9  1  0
 10  9  1  0
 11 10  1  1
 11 12  1  0
 12  5  1  0
 13 11  1  0
 13 15  1  0
 14 13  2  0
 16 15  1  0
 17 16  1  0
 18 17  1  0
 19 17  2  0
M  END
$$$$
