MCW.pdb
     RDKit          3D

 29 30  0  0  1  0  0  0  0  0999 V2000
    7.8233  -11.8785   19.4339 C   0  0  0  0  0  0  0  0  0  0  0  0
    9.1657  -12.3805   18.3414 S   0  0  0  0  0  0  0  0  0  0  0  0
    9.1227  -14.1626   18.0309 C   0  0  0  0  0  0  0  0  0  0  0  0
    9.0127  -14.9281   19.3122 C   0  0  0  0  0  0  0  0  0  0  0  0
    9.1212  -16.4103   19.0291 C   0  0  2  0  0  0  0  0  0  0  0  0
    8.0799  -16.8818   18.1627 N   0  0  0  0  0  0  0  0  0  0  0  0
    9.1824  -17.1232   20.3134 C   0  0  0  0  0  0  0  0  0  0  0  0
    8.1138  -17.6253   20.7507 O   0  0  0  0  0  0  0  0  0  0  0  0
   10.3539  -17.2875   21.0960 N   0  0  0  0  0  0  0  0  0  0  0  0
   10.3006  -17.9980   22.3680 C   0  0  1  0  0  0  0  0  0  0  0  0
   11.4887  -18.9709   22.3463 C   0  0  0  0  0  0  0  0  0  0  0  0
   13.0350  -18.1769   21.9105 S   0  0  0  0  0  0  0  0  0  0  0  0
   10.4462  -17.0320   23.4878 C   0  0  0  0  0  0  0  0  0  0  0  0
   10.9983  -15.9008   23.2588 O   0  0  0  0  0  0  0  0  0  0  0  0
   10.0245  -17.2424   24.8125 N   0  0  0  0  0  0  0  0  0  0  0  0
   10.4617  -16.4405   25.9396 C   0  0  1  0  0  0  0  0  0  0  0  0
    9.8407  -15.0527   25.7260 C   0  0  0  0  0  0  0  0  0  0  0  0
    8.3919  -15.0721   25.9254 C   0  0  0  0  0  0  0  0  0  0  0  0
    7.5985  -16.1961   25.8392 C   0  0  0  0  0  0  0  0  0  0  0  0
    6.3272  -15.8199   26.0834 N   0  0  0  0  0  0  0  0  0  0  0  0
    6.3036  -14.4905   26.3203 C   0  0  0  0  0  0  0  0  0  0  0  0
    5.2920  -13.5881   26.6208 C   0  0  0  0  0  0  0  0  0  0  0  0
    5.5381  -12.2450   26.8224 C   0  0  0  0  0  0  0  0  0  0  0  0
    6.8457  -11.7747   26.7217 C   0  0  0  0  0  0  0  0  0  0  0  0
    7.8763  -12.6412   26.4249 C   0  0  0  0  0  0  0  0  0  0  0  0
    7.6091  -13.9944   26.2245 C   0  0  0  0  0  0  0  0  0  0  0  0
    9.9627  -17.0129   27.2118 C   0  0  0  0  0  0  0  0  0  0  0  0
   10.1454  -16.4636   28.3314 O   0  0  0  0  0  0  0  0  0  0  0  0
    9.2560  -18.2068   27.2230 O   0  0  0  0  0  0  0  0  0  0  0  0
  2  1  1  0
  3  2  1  0
  4  3  1  0
  4  5  1  0
  5  6  1  1
  7  5  1  0
  7  8  2  0
  9 10  1  0
  9  7  1  0
 10 13  1  0
 11 12  1  0
 10 11  1  6
 13 15  1  0
 14 13  2  0
 15 16  1  0
 16 27  1  0
 16 17  1  6
 18 17  1  0
 19 18  2  0
 20 21  1  0
 20 19  1  0
 21 26  2  0
 22 23  2  0
 22 21  1  0
 23 24  1  0
 24 25  2  0
 26 18  1  0
 26 25  1  0
 27 28  2  0
 27 29  1  0
M  END
$$$$
