MCW.pdb
     RDKit          3D

 29 30  0  0  1  0  0  0  0  0999 V2000
    8.9431  -12.1470   20.7117 C   0  0  0  0  0  0  0  0  0  0  0  0
    8.9774  -12.8476   19.0518 S   0  0  0  0  0  0  0  0  0  0  0  0
    7.3550  -13.4984   18.5843 C   0  0  0  0  0  0  0  0  0  0  0  0
    7.4492  -14.9370   18.1827 C   0  0  0  0  0  0  0  0  0  0  0  0
    8.8408  -15.4550   18.4724 C   0  0  2  0  0  0  0  0  0  0  0  0
    9.4776  -15.9999   17.3085 N   0  0  0  0  0  0  0  0  0  0  0  0
    8.7573  -16.4035   19.5927 C   0  0  0  0  0  0  0  0  0  0  0  0
    7.9909  -17.3934   19.4599 O   0  0  0  0  0  0  0  0  0  0  0  0
    9.4748  -16.2868   20.8107 N   0  0  0  0  0  0  0  0  0  0  0  0
    9.3397  -17.3010   21.8493 C   0  0  1  0  0  0  0  0  0  0  0  0
   10.0671  -18.5416   21.3104 C   0  0  0  0  0  0  0  0  0  0  0  0
   11.7808  -18.2222   20.8950 S   0  0  0  0  0  0  0  0  0  0  0  0
    9.9874  -16.8267   23.0999 C   0  0  0  0  0  0  0  0  0  0  0  0
   10.9579  -15.9973   23.0157 O   0  0  0  0  0  0  0  0  0  0  0  0
    9.6292  -17.2086   24.4048 N   0  0  0  0  0  0  0  0  0  0  0  0
   10.2836  -16.7161   25.6021 C   0  0  1  0  0  0  0  0  0  0  0  0
    9.9502  -15.2190   25.6704 C   0  0  0  0  0  0  0  0  0  0  0  0
    8.5094  -14.9902   25.7765 C   0  0  0  0  0  0  0  0  0  0  0  0
    7.5430  -15.9615   25.6254 C   0  0  0  0  0  0  0  0  0  0  0  0
    6.3415  -15.3735   25.7927 N   0  0  0  0  0  0  0  0  0  0  0  0
    6.5300  -14.0602   26.0446 C   0  0  0  0  0  0  0  0  0  0  0  0
    5.6701  -12.9982   26.2914 C   0  0  0  0  0  0  0  0  0  0  0  0
    6.1284  -11.7175   26.5255 C   0  0  0  0  0  0  0  0  0  0  0  0
    7.5009  -11.4780   26.5145 C   0  0  0  0  0  0  0  0  0  0  0  0
    8.3854  -12.5078   26.2731 C   0  0  0  0  0  0  0  0  0  0  0  0
    7.9045  -13.7949   26.0388 C   0  0  0  0  0  0  0  0  0  0  0  0
    9.7490  -17.3952   26.8056 C   0  0  0  0  0  0  0  0  0  0  0  0
    8.8237  -18.2498   26.7589 O   0  0  0  0  0  0  0  0  0  0  0  0
   10.2581  -17.1114   28.0646 O   0  0  0  0  0  0  0  0  0  0  0  0
  2  1  1  0
  3  2  1  0
  4  3  1  0
  4  5  1  0
  5  6  1  6
  7  5  1  0
  7  8  2  0
  9 10  1  0
  9  7  1  0
 10 13  1  0
 11 12  1  0
 10 11  1  6
 13 15  1  0
 14 13  2  0
 15 16  1  0
 16 27  1  0
 16 17  1  1
 18 17  1  0
 19 18  2  0
 20 21  1  0
 20 19  1  0
 21 26  2  0
 22 23  2  0
 22 21  1  0
 23 24  1  0
 24 25  2  0
 26 18  1  0
 26 25  1  0
 27 28  2  0
 27 29  1  0
M  END
$$$$
