MCW.pdb
     RDKit          3D

 29 30  0  0  1  0  0  0  0  0999 V2000
    8.4104  -11.2708   19.1730 C   0  0  0  0  0  0  0  0  0  0  0  0
    8.4311  -12.9538   19.8167 S   0  0  0  0  0  0  0  0  0  0  0  0
    6.7848  -13.7012   19.7427 C   0  0  0  0  0  0  0  0  0  0  0  0
    6.7817  -15.0567   20.3771 C   0  0  0  0  0  0  0  0  0  0  0  0
    7.9224  -15.8803   19.8208 C   0  0  2  0  0  0  0  0  0  0  0  0
    7.5932  -16.5008   18.5703 N   0  0  0  0  0  0  0  0  0  0  0  0
    8.3504  -16.8348   20.8538 C   0  0  0  0  0  0  0  0  0  0  0  0
    7.6098  -17.8301   21.0680 O   0  0  0  0  0  0  0  0  0  0  0  0
    9.5342  -16.7184   21.6265 N   0  0  0  0  0  0  0  0  0  0  0  0
    9.8015  -17.6499   22.7158 C   0  0  1  0  0  0  0  0  0  0  0  0
   10.9265  -18.5642   22.2090 C   0  0  0  0  0  0  0  0  0  0  0  0
   12.3339  -17.6550   21.5734 S   0  0  0  0  0  0  0  0  0  0  0  0
   10.2495  -16.8997   23.9179 C   0  0  0  0  0  0  0  0  0  0  0  0
   11.1591  -16.0096   23.7860 O   0  0  0  0  0  0  0  0  0  0  0  0
    9.7587  -17.0745   25.2238 N   0  0  0  0  0  0  0  0  0  0  0  0
   10.4570  -16.6370   26.4177 C   0  0  1  0  0  0  0  0  0  0  0  0
   10.0082  -15.1876   26.6524 C   0  0  0  0  0  0  0  0  0  0  0  0
    8.5781  -15.0164   26.3977 C   0  0  0  0  0  0  0  0  0  0  0  0
    7.6980  -16.0403   26.1196 C   0  0  0  0  0  0  0  0  0  0  0  0
    6.4773  -15.4954   25.9455 N   0  0  0  0  0  0  0  0  0  0  0  0
    6.5697  -14.1578   26.1072 C   0  0  0  0  0  0  0  0  0  0  0  0
    5.6508  -13.1188   26.0441 C   0  0  0  0  0  0  0  0  0  0  0  0
    6.0103  -11.8028   26.2546 C   0  0  0  0  0  0  0  0  0  0  0  0
    7.3404  -11.5028   26.5405 C   0  0  0  0  0  0  0  0  0  0  0  0
    8.2812  -12.5083   26.6116 C   0  0  0  0  0  0  0  0  0  0  0  0
    7.9000  -13.8316   26.3962 C   0  0  0  0  0  0  0  0  0  0  0  0
   10.0698  -17.4672   27.5822 C   0  0  0  0  0  0  0  0  0  0  0  0
    9.2122  -18.3885   27.5152 O   0  0  0  0  0  0  0  0  0  0  0  0
   10.6501  -17.2595   28.8252 O   0  0  0  0  0  0  0  0  0  0  0  0
  2  1  1  0
  3  2  1  0
  4  3  1  0
  4  5  1  0
  5  6  1  6
  7  5  1  0
  7  8  2  0
  9 10  1  0
  9  7  1  0
 10 13  1  0
 11 12  1  0
 10 11  1  6
 13 15  1  0
 14 13  2  0
 15 16  1  0
 16 27  1  0
 16 17  1  1
 18 17  1  0
 19 18  2  0
 20 21  1  0
 20 19  1  0
 21 26  2  0
 22 23  2  0
 22 21  1  0
 23 24  1  0
 24 25  2  0
 26 18  1  0
 26 25  1  0
 27 28  2  0
 27 29  1  0
M  END
$$$$
