MCW.pdb
     RDKit          3D

 29 30  0  0  1  0  0  0  0  0999 V2000
    8.3865  -11.9518   20.0144 C   0  0  0  0  0  0  0  0  0  0  0  0
    7.7509  -12.4710   18.4101 S   0  0  0  0  0  0  0  0  0  0  0  0
    8.3405  -14.1266   17.9791 C   0  0  0  0  0  0  0  0  0  0  0  0
    8.3789  -15.0132   19.1842 C   0  0  0  0  0  0  0  0  0  0  0  0
    8.7871  -16.4109   18.7735 C   0  0  2  0  0  0  0  0  0  0  0  0
    7.8715  -16.9983   17.8388 N   0  0  0  0  0  0  0  0  0  0  0  0
    8.9775  -17.2135   19.9904 C   0  0  0  0  0  0  0  0  0  0  0  0
    7.9942  -17.8811   20.4059 O   0  0  0  0  0  0  0  0  0  0  0  0
   10.1848  -17.2919   20.7309 N   0  0  0  0  0  0  0  0  0  0  0  0
   10.2328  -18.0202   21.9931 C   0  0  1  0  0  0  0  0  0  0  0  0
   11.4210  -18.9849   21.8669 C   0  0  0  0  0  0  0  0  0  0  0  0
   12.9150  -18.1825   21.2875 S   0  0  0  0  0  0  0  0  0  0  0  0
   10.4584  -17.0686   23.1121 C   0  0  0  0  0  0  0  0  0  0  0  0
   11.1482  -16.0132   22.8948 O   0  0  0  0  0  0  0  0  0  0  0  0
    9.9745  -17.2159   24.4240 N   0  0  0  0  0  0  0  0  0  0  0  0
   10.3144  -16.3261   25.5182 C   0  0  1  0  0  0  0  0  0  0  0  0
    9.7699  -14.9481   25.1159 C   0  0  0  0  0  0  0  0  0  0  0  0
    8.3642  -14.7923   25.4889 C   0  0  0  0  0  0  0  0  0  0  0  0
    7.3977  -15.7649   25.3471 C   0  0  0  0  0  0  0  0  0  0  0  0
    6.2338  -15.2546   25.7969 N   0  0  0  0  0  0  0  0  0  0  0  0
    6.4460  -13.9886   26.2167 C   0  0  0  0  0  0  0  0  0  0  0  0
    5.6266  -13.0095   26.7624 C   0  0  0  0  0  0  0  0  0  0  0  0
    6.1022  -11.7629   27.1160 C   0  0  0  0  0  0  0  0  0  0  0  0
    7.4508  -11.4733   26.9198 C   0  0  0  0  0  0  0  0  0  0  0  0
    8.2951  -12.4205   26.3803 C   0  0  0  0  0  0  0  0  0  0  0  0
    7.7972  -13.6742   26.0292 C   0  0  0  0  0  0  0  0  0  0  0  0
    9.6600  -16.7675   26.7720 C   0  0  0  0  0  0  0  0  0  0  0  0
    9.8029  -16.1666   27.8707 O   0  0  0  0  0  0  0  0  0  0  0  0
    8.8424  -17.8883   26.7884 O   0  0  0  0  0  0  0  0  0  0  0  0
  2  1  1  0
  3  2  1  0
  4  3  1  0
  4  5  1  0
  5  6  1  6
  7  5  1  0
  7  8  2  0
  9 10  1  0
  9  7  1  0
 10 13  1  0
 11 12  1  0
 10 11  1  6
 13 15  1  0
 14 13  2  0
 15 16  1  0
 16 27  1  0
 16 17  1  6
 18 17  1  0
 19 18  2  0
 20 21  1  0
 20 19  1  0
 21 26  2  0
 22 23  2  0
 22 21  1  0
 23 24  1  0
 24 25  2  0
 26 18  1  0
 26 25  1  0
 27 28  2  0
 27 29  1  0
M  END
$$$$
