MCW.pdb
     RDKit          3D

 29 30  0  0  1  0  0  0  0  0999 V2000
    9.6409  -20.7081   25.5199 C   0  0  0  0  0  0  0  0  0  0  0  0
    8.9482  -22.0441   24.5287 S   0  0  0  0  0  0  0  0  0  0  0  0
    8.7193  -21.5298   22.8089 C   0  0  0  0  0  0  0  0  0  0  0  0
    8.1011  -20.1689   22.7335 C   0  0  0  0  0  0  0  0  0  0  0  0
    7.8501  -19.8047   21.2868 C   0  0  2  0  0  0  0  0  0  0  0  0
    8.3913  -20.7707   20.3751 N   0  0  0  0  0  0  0  0  0  0  0  0
    8.3498  -18.4408   21.0598 C   0  0  0  0  0  0  0  0  0  0  0  0
    9.4555  -18.3176   20.4705 O   0  0  0  0  0  0  0  0  0  0  0  0
    7.6800  -17.2544   21.4547 N   0  0  0  0  0  0  0  0  0  0  0  0
    8.2933  -15.9501   21.2346 C   0  0  1  0  0  0  0  0  0  0  0  0
    7.1671  -15.0495   20.7064 C   0  0  0  0  0  0  0  0  0  0  0  0
    5.5973  -15.3428   21.5197 S   0  0  0  0  0  0  0  0  0  0  0  0
    8.8172  -15.4196   22.5200 C   0  0  0  0  0  0  0  0  0  0  0  0
    8.2941  -14.3592   23.0088 O   0  0  0  0  0  0  0  0  0  0  0  0
    9.8603  -15.9834   23.2757 N   0  0  0  0  0  0  0  0  0  0  0  0
   10.0488  -15.7535   24.6956 C   0  0  1  0  0  0  0  0  0  0  0  0
    8.8299  -16.3852   25.3829 C   0  0  0  0  0  0  0  0  0  0  0  0
    7.7190  -15.4397   25.4896 C   0  0  0  0  0  0  0  0  0  0  0  0
    6.4131  -15.7143   25.1436 C   0  0  0  0  0  0  0  0  0  0  0  0
    5.6847  -14.6050   25.3804 N   0  0  0  0  0  0  0  0  0  0  0  0
    6.4996  -13.6434   25.8654 C   0  0  0  0  0  0  0  0  0  0  0  0
    6.2978  -12.3315   26.2732 C   0  0  0  0  0  0  0  0  0  0  0  0
    7.3258  -11.5387   26.7421 C   0  0  0  0  0  0  0  0  0  0  0  0
    8.6121  -12.0698   26.8099 C   0  0  0  0  0  0  0  0  0  0  0  0
    8.8509  -13.3687   26.4138 C   0  0  0  0  0  0  0  0  0  0  0  0
    7.8005  -14.1547   25.9430 C   0  0  0  0  0  0  0  0  0  0  0  0
   11.2833  -16.4196   25.1725 C   0  0  0  0  0  0  0  0  0  0  0  0
   12.1820  -15.8192   25.8210 O   0  0  0  0  0  0  0  0  0  0  0  0
   11.5062  -17.7652   24.9186 O   0  0  0  0  0  0  0  0  0  0  0  0
  2  1  1  0
  3  2  1  0
  4  3  1  0
  4  5  1  0
  5  6  1  6
  7  5  1  0
  7  8  2  0
  9 10  1  0
  9  7  1  0
 10 13  1  0
 11 12  1  0
 10 11  1  1
 13 15  1  0
 14 13  2  0
 15 16  1  0
 16 27  1  0
 16 17  1  1
 18 17  1  0
 19 18  2  0
 20 21  1  0
 20 19  1  0
 21 26  2  0
 22 23  2  0
 22 21  1  0
 23 24  1  0
 24 25  2  0
 26 18  1  0
 26 25  1  0
 27 28  2  0
 27 29  1  0
M  END
$$$$
