MCW.pdb
     RDKit          3D

 29 30  0  0  1  0  0  0  0  0999 V2000
    7.0934  -11.6212   20.2008 C   0  0  0  0  0  0  0  0  0  0  0  0
    7.5791  -11.8619   18.4822 S   0  0  0  0  0  0  0  0  0  0  0  0
    8.3308  -13.4897   18.2382 C   0  0  0  0  0  0  0  0  0  0  0  0
    7.8313  -14.4691   19.2536 C   0  0  0  0  0  0  0  0  0  0  0  0
    8.5516  -15.7886   19.0835 C   0  0  2  0  0  0  0  0  0  0  0  0
    8.2127  -16.4451   17.8541 N   0  0  0  0  0  0  0  0  0  0  0  0
    8.2984  -16.6108   20.2758 C   0  0  0  0  0  0  0  0  0  0  0  0
    7.3479  -17.4347   20.2222 O   0  0  0  0  0  0  0  0  0  0  0  0
    9.0439  -16.5453   21.4807 N   0  0  0  0  0  0  0  0  0  0  0  0
    8.6726  -17.3670   22.6263 C   0  0  1  0  0  0  0  0  0  0  0  0
    8.7495  -18.8194   22.1334 C   0  0  0  0  0  0  0  0  0  0  0  0
    8.7707  -20.0119   23.4710 S   0  0  0  0  0  0  0  0  0  0  0  0
    9.6383  -17.1473   23.7344 C   0  0  0  0  0  0  0  0  0  0  0  0
   10.8880  -17.2908   23.5010 O   0  0  0  0  0  0  0  0  0  0  0  0
    9.3063  -16.7858   25.0519 N   0  0  0  0  0  0  0  0  0  0  0  0
   10.2694  -16.6844   26.1320 C   0  0  1  0  0  0  0  0  0  0  0  0
    9.7130  -15.6162   27.0842 C   0  0  0  0  0  0  0  0  0  0  0  0
    8.4090  -15.1235   26.6413 C   0  0  0  0  0  0  0  0  0  0  0  0
    7.3346  -15.9214   26.3111 C   0  0  0  0  0  0  0  0  0  0  0  0
    6.3176  -15.1119   25.9538 N   0  0  0  0  0  0  0  0  0  0  0  0
    6.7267  -13.8285   26.0516 C   0  0  0  0  0  0  0  0  0  0  0  0
    6.1126  -12.6059   25.8151 C   0  0  0  0  0  0  0  0  0  0  0  0
    6.7677  -11.4045   25.9962 C   0  0  0  0  0  0  0  0  0  0  0  0
    8.0912  -11.4151   26.4313 C   0  0  0  0  0  0  0  0  0  0  0  0
    8.7339  -12.6100   26.6765 C   0  0  0  0  0  0  0  0  0  0  0  0
    8.0566  -13.8136   26.4882 C   0  0  0  0  0  0  0  0  0  0  0  0
   10.3839  -17.9744   26.8517 C   0  0  0  0  0  0  0  0  0  0  0  0
    9.6356  -18.9612   26.6175 O   0  0  0  0  0  0  0  0  0  0  0  0
   11.3436  -18.1535   27.8375 O   0  0  0  0  0  0  0  0  0  0  0  0
  2  1  1  0
  3  2  1  0
  4  3  1  0
  4  5  1  0
  5  6  1  6
  7  5  1  0
  7  8  2  0
  9 10  1  0
  9  7  1  0
 10 13  1  0
 11 12  1  0
 10 11  1  6
 13 15  1  0
 14 13  2  0
 15 16  1  0
 16 27  1  0
 16 17  1  1
 18 17  1  0
 19 18  2  0
 20 21  1  0
 20 19  1  0
 21 26  2  0
 22 23  2  0
 22 21  1  0
 23 24  1  0
 24 25  2  0
 26 18  1  0
 26 25  1  0
 27 28  2  0
 27 29  1  0
M  END
$$$$
