MCW.pdb
     RDKit          3D

 29 30  0  0  1  0  0  0  0  0999 V2000
   11.5346  -20.5859   16.4043 C   0  0  0  0  0  0  0  0  0  0  0  0
    9.7529  -20.4454   16.6354 S   0  0  0  0  0  0  0  0  0  0  0  0
    9.3300  -20.3253   18.3907 C   0  0  0  0  0  0  0  0  0  0  0  0
   10.0376  -19.1751   19.0358 C   0  0  0  0  0  0  0  0  0  0  0  0
    9.5790  -19.0371   20.4709 C   0  0  2  0  0  0  0  0  0  0  0  0
    8.2095  -19.4240   20.6496 N   0  0  0  0  0  0  0  0  0  0  0  0
    9.8632  -17.6655   20.9174 C   0  0  0  0  0  0  0  0  0  0  0  0
   11.0552  -17.2665   20.8463 O   0  0  0  0  0  0  0  0  0  0  0  0
    8.8960  -16.7589   21.4220 N   0  0  0  0  0  0  0  0  0  0  0  0
    9.2921  -15.4313   21.8763 C   0  0  1  0  0  0  0  0  0  0  0  0
    8.0437  -14.5516   21.7153 C   0  0  0  0  0  0  0  0  0  0  0  0
    6.5778  -15.2768   22.4480 S   0  0  0  0  0  0  0  0  0  0  0  0
    9.6994  -15.4913   23.3042 C   0  0  0  0  0  0  0  0  0  0  0  0
   10.1915  -14.4440   23.8499 O   0  0  0  0  0  0  0  0  0  0  0  0
    9.5940  -16.6167   24.1405 N   0  0  0  0  0  0  0  0  0  0  0  0
   10.1190  -16.6748   25.4916 C   0  0  1  0  0  0  0  0  0  0  0  0
    8.9187  -16.4179   26.4138 C   0  0  0  0  0  0  0  0  0  0  0  0
    8.9294  -15.0565   26.9485 C   0  0  0  0  0  0  0  0  0  0  0  0
    9.8764  -14.5573   27.8170 C   0  0  0  0  0  0  0  0  0  0  0  0
    9.5536  -13.2757   28.0826 N   0  0  0  0  0  0  0  0  0  0  0  0
    8.4298  -12.9593   27.4037 C   0  0  0  0  0  0  0  0  0  0  0  0
    7.6631  -11.8060   27.3030 C   0  0  0  0  0  0  0  0  0  0  0  0
    6.5289  -11.7408   26.5192 C   0  0  0  0  0  0  0  0  0  0  0  0
    6.1364  -12.8694   25.8027 C   0  0  0  0  0  0  0  0  0  0  0  0
    6.8728  -14.0327   25.8778 C   0  0  0  0  0  0  0  0  0  0  0  0
    8.0155  -14.0802   26.6745 C   0  0  0  0  0  0  0  0  0  0  0  0
   10.6804  -18.0162   25.7758 C   0  0  0  0  0  0  0  0  0  0  0  0
   11.5381  -18.2262   26.6751 O   0  0  0  0  0  0  0  0  0  0  0  0
   10.2744  -19.1238   25.0456 O   0  0  0  0  0  0  0  0  0  0  0  0
  2  1  1  0
  3  2  1  0
  4  3  1  0
  4  5  1  0
  5  6  1  6
  7  5  1  0
  7  8  2  0
  9 10  1  0
  9  7  1  0
 10 13  1  0
 11 12  1  0
 10 11  1  1
 13 15  1  0
 14 13  2  0
 15 16  1  0
 16 27  1  0
 16 17  1  1
 18 17  1  0
 19 18  2  0
 20 21  1  0
 20 19  1  0
 21 26  2  0
 22 23  2  0
 22 21  1  0
 23 24  1  0
 24 25  2  0
 26 18  1  0
 26 25  1  0
 27 28  2  0
 27 29  1  0
M  END
$$$$
