MCW.pdb
     RDKit          3D

 29 30  0  0  1  0  0  0  0  0999 V2000
    7.6342  -11.8976   20.9871 C   0  0  0  0  0  0  0  0  0  0  0  0
    7.7096  -12.1192   19.2003 S   0  0  0  0  0  0  0  0  0  0  0  0
    8.2043  -13.8063   18.7721 C   0  0  0  0  0  0  0  0  0  0  0  0
    8.0467  -14.7252   19.9428 C   0  0  0  0  0  0  0  0  0  0  0  0
    8.4562  -16.1268   19.5469 C   0  0  2  0  0  0  0  0  0  0  0  0
    7.6244  -16.6708   18.5127 N   0  0  0  0  0  0  0  0  0  0  0  0
    8.5002  -16.9559   20.7602 C   0  0  0  0  0  0  0  0  0  0  0  0
    7.5360  -17.7394   20.9638 O   0  0  0  0  0  0  0  0  0  0  0  0
    9.5466  -16.9392   21.7176 N   0  0  0  0  0  0  0  0  0  0  0  0
    9.4823  -17.7911   22.8991 C   0  0  1  0  0  0  0  0  0  0  0  0
   10.3128  -19.0361   22.5546 C   0  0  0  0  0  0  0  0  0  0  0  0
   10.5989  -20.0993   23.9686 S   0  0  0  0  0  0  0  0  0  0  0  0
   10.0764  -17.0810   24.0616 C   0  0  0  0  0  0  0  0  0  0  0  0
   11.1594  -16.4209   23.8935 O   0  0  0  0  0  0  0  0  0  0  0  0
    9.5514  -17.0605   25.3657 N   0  0  0  0  0  0  0  0  0  0  0  0
   10.2003  -16.4144   26.4909 C   0  0  1  0  0  0  0  0  0  0  0  0
    9.0674  -16.0021   27.4415 C   0  0  0  0  0  0  0  0  0  0  0  0
    7.9822  -15.3281   26.7292 C   0  0  0  0  0  0  0  0  0  0  0  0
    6.9080  -15.9637   26.1440 C   0  0  0  0  0  0  0  0  0  0  0  0
    6.1251  -15.0175   25.5882 N   0  0  0  0  0  0  0  0  0  0  0  0
    6.6805  -13.8065   25.8098 C   0  0  0  0  0  0  0  0  0  0  0  0
    6.3173  -12.5092   25.4735 C   0  0  0  0  0  0  0  0  0  0  0  0
    7.0790  -11.4146   25.8296 C   0  0  0  0  0  0  0  0  0  0  0  0
    8.2537  -11.6143   26.5516 C   0  0  0  0  0  0  0  0  0  0  0  0
    8.6464  -12.8883   26.9036 C   0  0  0  0  0  0  0  0  0  0  0  0
    7.8647  -13.9820   26.5355 C   0  0  0  0  0  0  0  0  0  0  0  0
   11.1056  -17.3603   27.1844 C   0  0  0  0  0  0  0  0  0  0  0  0
   11.1540  -18.5901   26.9129 O   0  0  0  0  0  0  0  0  0  0  0  0
   11.9587  -16.9198   28.1860 O   0  0  0  0  0  0  0  0  0  0  0  0
  2  1  1  0
  3  2  1  0
  4  3  1  0
  4  5  1  0
  5  6  1  6
  7  5  1  0
  7  8  2  0
  9 10  1  0
  9  7  1  0
 10 13  1  0
 11 12  1  0
 10 11  1  6
 13 15  1  0
 14 13  2  0
 15 16  1  0
 16 27  1  0
 16 17  1  1
 18 17  1  0
 19 18  2  0
 20 21  1  0
 20 19  1  0
 21 26  2  0
 22 23  2  0
 22 21  1  0
 23 24  1  0
 24 25  2  0
 26 18  1  0
 26 25  1  0
 27 28  2  0
 27 29  1  0
M  END
$$$$
