MCW.pdb
     RDKit          3D

 29 30  0  0  1  0  0  0  0  0999 V2000
    9.7113  -11.3377   19.5061 C   0  0  0  0  0  0  0  0  0  0  0  0
    9.2013  -13.0310   19.1599 S   0  0  0  0  0  0  0  0  0  0  0  0
    7.3994  -13.1916   19.2018 C   0  0  0  0  0  0  0  0  0  0  0  0
    6.9813  -14.6092   18.9661 C   0  0  0  0  0  0  0  0  0  0  0  0
    8.2000  -15.5056   18.9714 C   0  0  2  0  0  0  0  0  0  0  0  0
    8.2322  -16.3956   17.8471 N   0  0  0  0  0  0  0  0  0  0  0  0
    8.2600  -16.1968   20.2676 C   0  0  0  0  0  0  0  0  0  0  0  0
    7.1724  -16.5812   20.7721 O   0  0  0  0  0  0  0  0  0  0  0  0
    9.4504  -16.4628   20.9917 N   0  0  0  0  0  0  0  0  0  0  0  0
    9.4106  -17.2518   22.2170 C   0  0  1  0  0  0  0  0  0  0  0  0
   10.2210  -18.5210   21.9160 C   0  0  0  0  0  0  0  0  0  0  0  0
    9.4040  -19.6133   20.7536 S   0  0  0  0  0  0  0  0  0  0  0  0
   10.0415  -16.4884   23.3250 C   0  0  0  0  0  0  0  0  0  0  0  0
   11.1128  -15.8300   23.0888 O   0  0  0  0  0  0  0  0  0  0  0  0
    9.5645  -16.4142   24.6456 N   0  0  0  0  0  0  0  0  0  0  0  0
   10.4122  -16.1993   25.8030 C   0  0  1  0  0  0  0  0  0  0  0  0
    9.8355  -14.9679   26.5159 C   0  0  0  0  0  0  0  0  0  0  0  0
    8.3756  -14.9298   26.4336 C   0  0  0  0  0  0  0  0  0  0  0  0
    7.5659  -16.0323   26.2625 C   0  0  0  0  0  0  0  0  0  0  0  0
    6.2886  -15.6022   26.2353 N   0  0  0  0  0  0  0  0  0  0  0  0
    6.2771  -14.2600   26.3848 C   0  0  0  0  0  0  0  0  0  0  0  0
    5.2662  -13.3092   26.4318 C   0  0  0  0  0  0  0  0  0  0  0  0
    5.5265  -11.9640   26.5979 C   0  0  0  0  0  0  0  0  0  0  0  0
    6.8482  -11.5415   26.7231 C   0  0  0  0  0  0  0  0  0  0  0  0
    7.8786  -12.4568   26.6814 C   0  0  0  0  0  0  0  0  0  0  0  0
    7.5969  -13.8114   26.5130 C   0  0  0  0  0  0  0  0  0  0  0  0
   10.3571  -17.3665   26.7139 C   0  0  0  0  0  0  0  0  0  0  0  0
   11.0397  -17.4471   27.7704 O   0  0  0  0  0  0  0  0  0  0  0  0
    9.5309  -18.4456   26.4343 O   0  0  0  0  0  0  0  0  0  0  0  0
  2  1  1  0
  3  2  1  0
  4  3  1  0
  4  5  1  0
  5  6  1  6
  7  5  1  0
  7  8  2  0
  9 10  1  0
  9  7  1  0
 10 13  1  0
 11 12  1  0
 10 11  1  6
 13 15  1  0
 14 13  2  0
 15 16  1  0
 16 27  1  0
 16 17  1  1
 18 17  1  0
 19 18  2  0
 20 21  1  0
 20 19  1  0
 21 26  2  0
 22 23  2  0
 22 21  1  0
 23 24  1  0
 24 25  2  0
 26 18  1  0
 26 25  1  0
 27 28  2  0
 27 29  1  0
M  END
$$$$
