MCW.pdb
     RDKit          3D

 29 30  0  0  1  0  0  0  0  0999 V2000
    9.6619  -11.7896   20.1729 C   0  0  0  0  0  0  0  0  0  0  0  0
    8.0901  -11.8432   19.2931 S   0  0  0  0  0  0  0  0  0  0  0  0
    7.4616  -13.5364   19.1823 C   0  0  0  0  0  0  0  0  0  0  0  0
    7.6184  -14.2535   20.4866 C   0  0  0  0  0  0  0  0  0  0  0  0
    7.1482  -15.6839   20.3394 C   0  0  2  0  0  0  0  0  0  0  0  0
    5.7640  -15.7724   19.9744 N   0  0  0  0  0  0  0  0  0  0  0  0
    7.4754  -16.4080   21.5764 C   0  0  0  0  0  0  0  0  0  0  0  0
    6.5636  -16.5315   22.4357 O   0  0  0  0  0  0  0  0  0  0  0  0
    8.7400  -16.9773   21.8738 N   0  0  0  0  0  0  0  0  0  0  0  0
    8.9417  -17.7291   23.1066 C   0  0  1  0  0  0  0  0  0  0  0  0
    9.7456  -18.9737   22.7030 C   0  0  0  0  0  0  0  0  0  0  0  0
   10.3923  -19.8754   24.1103 S   0  0  0  0  0  0  0  0  0  0  0  0
    9.7151  -16.9074   24.0736 C   0  0  0  0  0  0  0  0  0  0  0  0
   10.7081  -16.2232   23.6461 O   0  0  0  0  0  0  0  0  0  0  0  0
    9.4567  -16.8028   25.4517 N   0  0  0  0  0  0  0  0  0  0  0  0
   10.4171  -16.3117   26.4217 C   0  0  1  0  0  0  0  0  0  0  0  0
    9.6817  -15.2254   27.2194 C   0  0  0  0  0  0  0  0  0  0  0  0
    8.3342  -14.9925   26.7006 C   0  0  0  0  0  0  0  0  0  0  0  0
    7.4399  -15.9827   26.3541 C   0  0  0  0  0  0  0  0  0  0  0  0
    6.3126  -15.3835   25.9212 N   0  0  0  0  0  0  0  0  0  0  0  0
    6.4773  -14.0447   25.9874 C   0  0  0  0  0  0  0  0  0  0  0  0
    5.6648  -12.9623   25.6769 C   0  0  0  0  0  0  0  0  0  0  0  0
    6.0817  -11.6567   25.8404 C   0  0  0  0  0  0  0  0  0  0  0  0
    7.3615  -11.4124   26.3337 C   0  0  0  0  0  0  0  0  0  0  0  0
    8.1967  -12.4620   26.6531 C   0  0  0  0  0  0  0  0  0  0  0  0
    7.7587  -13.7741   26.4816 C   0  0  0  0  0  0  0  0  0  0  0  0
   10.8349  -17.3982   27.3383 C   0  0  0  0  0  0  0  0  0  0  0  0
   11.7279  -17.2524   28.2157 O   0  0  0  0  0  0  0  0  0  0  0  0
   10.2452  -18.6520   27.2667 O   0  0  0  0  0  0  0  0  0  0  0  0
  2  1  1  0
  3  2  1  0
  4  3  1  0
  4  5  1  0
  5  6  1  1
  7  5  1  0
  7  8  2  0
  9 10  1  0
  9  7  1  0
 10 13  1  0
 11 12  1  0
 10 11  1  6
 13 15  1  0
 14 13  2  0
 15 16  1  0
 16 27  1  0
 16 17  1  1
 18 17  1  0
 19 18  2  0
 20 21  1  0
 20 19  1  0
 21 26  2  0
 22 23  2  0
 22 21  1  0
 23 24  1  0
 24 25  2  0
 26 18  1  0
 26 25  1  0
 27 28  2  0
 27 29  1  0
M  END
$$$$
