KYS.pdb
     RDKit          3D

 28 28  0  0  1  0  0  0  0  0999 V2000
   28.8317  -21.4046  -17.9164 N   0  0  0  0  0  0  0  0  0  0  0  0
   28.1001  -21.9831  -16.8563 C   0  0  1  0  0  0  0  0  0  0  0  0
   28.7164  -23.1078  -16.1185 C   0  0  0  0  0  0  0  0  0  0  0  0
   28.9006  -24.3986  -16.7857 C   0  0  0  0  0  0  0  0  0  0  0  0
   27.7128  -25.1526  -17.2426 C   0  0  0  0  0  0  0  0  0  0  0  0
   28.0304  -26.4896  -17.8712 C   0  0  0  0  0  0  0  0  0  0  0  0
   28.2400  -27.4405  -16.7891 N   0  0  0  0  0  0  0  0  0  0  0  0
   27.5192  -20.9405  -15.9882 C   0  0  0  0  0  0  0  0  0  0  0  0
   28.1451  -19.8898  -15.6689 O   0  0  0  0  0  0  0  0  0  0  0  0
   20.8667  -21.8189  -18.4375 O   0  0  0  0  0  0  0  0  0  0  0  0
   21.8061  -21.1665  -17.6399 C   0  0  0  0  0  0  0  0  0  0  0  0
   21.4703  -20.6159  -16.4279 C   0  0  0  0  0  0  0  0  0  0  0  0
   22.4696  -19.9923  -15.7140 C   0  0  0  0  0  0  0  0  0  0  0  0
   23.7499  -19.9254  -16.1982 C   0  0  0  0  0  0  0  0  0  0  0  0
   24.7711  -19.2320  -15.3764 C   0  0  0  0  0  0  0  0  0  0  0  0
   25.6079  -20.1746  -14.5397 C   0  0  2  0  0  0  0  0  0  0  0  0
   26.2271  -21.0938  -15.4825 N   0  0  0  0  0  0  0  0  0  0  0  0
   24.7846  -20.9206  -13.5620 C   0  0  0  0  0  0  0  0  0  0  0  0
   24.1331  -21.9529  -13.8603 O   0  0  0  0  0  0  0  0  0  0  0  0
   24.0727  -20.4737  -17.3996 C   0  0  0  0  0  0  0  0  0  0  0  0
   23.0987  -21.1031  -18.1362 C   0  0  0  0  0  0  0  0  0  0  0  0
   23.9584  -19.5283   -9.5921 O   0  0  0  0  0  0  0  0  0  0  0  0
   24.2025  -20.8799   -9.8117 C   0  0  0  0  0  0  0  0  0  0  0  0
   23.8208  -21.1939  -11.2387 C   0  0  2  0  0  0  0  0  0  0  0  0
   24.6745  -20.5083  -12.1885 N   0  0  0  0  0  0  0  0  0  0  0  0
   22.3970  -20.9370  -11.4605 C   0  0  0  0  0  0  0  0  0  0  0  0
   21.9816  -20.0570  -12.2473 O   0  0  0  0  0  0  0  0  0  0  0  0
   21.4549  -21.6926  -10.7771 O   0  0  0  0  0  0  0  0  0  0  0  0
  2  1  1  1
  2  3  1  0
  3  4  1  0
  4  5  1  0
  5  6  1  0
  6  7  1  0
  8  2  1  0
  9  8  2  0
 10 11  1  0
 11 21  2  0
 11 12  1  0
 12 13  2  0
 13 14  1  0
 14 15  1  0
 16 15  1  6
 16 17  1  0
 17  8  1  0
 18 16  1  0
 18 19  2  0
 20 14  2  0
 21 20  1  0
 22 23  1  0
 24 23  1  1
 24 25  1  0
 25 18  1  0
 26 24  1  0
 27 26  2  0
 28 26  1  0
M  END
$$$$
