KYS.pdb
     RDKit          3D

 28 28  0  0  1  0  0  0  0  0999 V2000
   22.8397   -9.1827  -16.7715 N   0  0  0  0  0  0  0  0  0  0  0  0
   23.4987   -9.4617  -17.9887 C   0  0  1  0  0  0  0  0  0  0  0  0
   23.2274  -10.7598  -18.6448 C   0  0  0  0  0  0  0  0  0  0  0  0
   23.5386  -12.0066  -17.9421 C   0  0  0  0  0  0  0  0  0  0  0  0
   24.7841  -12.7324  -18.2739 C   0  0  0  0  0  0  0  0  0  0  0  0
   24.9514  -14.0445  -17.5431 C   0  0  0  0  0  0  0  0  0  0  0  0
   26.2529  -14.5838  -17.9094 N   0  0  0  0  0  0  0  0  0  0  0  0
   23.4336   -8.3020  -18.8993 C   0  0  0  0  0  0  0  0  0  0  0  0
   23.9769   -8.2976  -20.0405 O   0  0  0  0  0  0  0  0  0  0  0  0
   21.4153   -2.4291  -24.4813 O   0  0  0  0  0  0  0  0  0  0  0  0
   21.5429   -3.4291  -23.5180 C   0  0  0  0  0  0  0  0  0  0  0  0
   22.4794   -4.4269  -23.6289 C   0  0  0  0  0  0  0  0  0  0  0  0
   22.5268   -5.3690  -22.6251 C   0  0  0  0  0  0  0  0  0  0  0  0
   21.6699   -5.3098  -21.5573 C   0  0  0  0  0  0  0  0  0  0  0  0
   21.7758   -6.3629  -20.5187 C   0  0  0  0  0  0  0  0  0  0  0  0
   22.6309   -5.9568  -19.3386 C   0  0  2  0  0  0  0  0  0  0  0  0
   22.7515   -7.1476  -18.5112 N   0  0  0  0  0  0  0  0  0  0  0  0
   22.0141   -4.8558  -18.5655 C   0  0  0  0  0  0  0  0  0  0  0  0
   20.9778   -5.0027  -17.8702 O   0  0  0  0  0  0  0  0  0  0  0  0
   20.7459   -4.3176  -21.4563 C   0  0  0  0  0  0  0  0  0  0  0  0
   20.6730   -3.3624  -22.4410 C   0  0  0  0  0  0  0  0  0  0  0  0
   23.9498   -1.4298  -17.0850 O   0  0  0  0  0  0  0  0  0  0  0  0
   22.8147   -1.1933  -17.8533 C   0  0  0  0  0  0  0  0  0  0  0  0
   21.9625   -2.4396  -17.8169 C   0  0  2  0  0  0  0  0  0  0  0  0
   22.5673   -3.5281  -18.5586 N   0  0  0  0  0  0  0  0  0  0  0  0
   20.5959   -2.1431  -18.2491 C   0  0  0  0  0  0  0  0  0  0  0  0
   20.1911   -2.3599  -19.4132 O   0  0  0  0  0  0  0  0  0  0  0  0
   19.6985   -1.5980  -17.3417 O   0  0  0  0  0  0  0  0  0  0  0  0
  2  1  1  1
  2  3  1  0
  3  4  1  0
  4  5  1  0
  5  6  1  0
  6  7  1  0
  8  2  1  0
  9  8  2  0
 10 11  1  0
 11 21  2  0
 11 12  1  0
 12 13  2  0
 13 14  1  0
 14 15  1  0
 16 15  1  6
 16 17  1  0
 17  8  1  0
 18 16  1  0
 18 19  2  0
 20 14  2  0
 21 20  1  0
 22 23  1  0
 24 23  1  6
 24 25  1  0
 25 18  1  0
 26 24  1  0
 27 26  2  0
 28 26  1  0
M  END
$$$$
