KYS.pdb
     RDKit          3D

 28 28  0  0  1  0  0  0  0  0999 V2000
   28.1251  -20.8783  -17.4453 N   0  0  0  0  0  0  0  0  0  0  0  0
   28.0092  -22.2662  -17.2131 C   0  0  1  0  0  0  0  0  0  0  0  0
   29.2265  -23.0971  -17.3435 C   0  0  0  0  0  0  0  0  0  0  0  0
   30.1958  -22.8023  -18.4013 C   0  0  0  0  0  0  0  0  0  0  0  0
   31.3627  -23.6933  -18.5819 C   0  0  0  0  0  0  0  0  0  0  0  0
   32.2849  -23.2878  -19.7082 C   0  0  0  0  0  0  0  0  0  0  0  0
   33.3937  -24.2308  -19.7238 N   0  0  0  0  0  0  0  0  0  0  0  0
   27.2285  -22.5309  -15.9889 C   0  0  0  0  0  0  0  0  0  0  0  0
   27.0157  -23.6980  -15.5527 O   0  0  0  0  0  0  0  0  0  0  0  0
   23.3251  -20.5808   -8.3641 O   0  0  0  0  0  0  0  0  0  0  0  0
   24.0095  -20.5366   -9.5781 C   0  0  0  0  0  0  0  0  0  0  0  0
   23.4681  -19.9487  -10.6944 C   0  0  0  0  0  0  0  0  0  0  0  0
   24.2229  -19.9561  -11.8466 C   0  0  0  0  0  0  0  0  0  0  0  0
   25.4671  -20.5298  -11.8744 C   0  0  0  0  0  0  0  0  0  0  0  0
   26.2182  -20.5053  -13.1528 C   0  0  0  0  0  0  0  0  0  0  0  0
   25.8412  -21.6309  -14.0909 C   0  0  2  0  0  0  0  0  0  0  0  0
   26.6891  -21.4682  -15.2620 N   0  0  0  0  0  0  0  0  0  0  0  0
   24.4142  -21.5692  -14.4785 C   0  0  0  0  0  0  0  0  0  0  0  0
   23.9373  -20.6537  -15.1950 O   0  0  0  0  0  0  0  0  0  0  0  0
   25.9949  -21.1096  -10.7637 C   0  0  0  0  0  0  0  0  0  0  0  0
   25.2672  -21.1187   -9.5983 C   0  0  0  0  0  0  0  0  0  0  0  0
   20.0669  -23.6840  -14.7204 O   0  0  0  0  0  0  0  0  0  0  0  0
   21.3982  -23.8469  -14.3521 C   0  0  0  0  0  0  0  0  0  0  0  0
   22.0592  -22.4896  -14.3910 C   0  0  2  0  0  0  0  0  0  0  0  0
   23.4672  -22.5656  -14.0557 N   0  0  0  0  0  0  0  0  0  0  0  0
   21.3245  -21.5339  -13.5606 C   0  0  0  0  0  0  0  0  0  0  0  0
   21.4910  -21.4426  -12.3237 O   0  0  0  0  0  0  0  0  0  0  0  0
   20.4006  -20.6860  -14.1547 O   0  0  0  0  0  0  0  0  0  0  0  0
  2  1  1  1
  2  3  1  0
  3  4  1  0
  4  5  1  0
  5  6  1  0
  6  7  1  0
  8  2  1  0
  9  8  2  0
 10 11  1  0
 11 21  2  0
 11 12  1  0
 12 13  2  0
 13 14  1  0
 14 15  1  0
 16 15  1  1
 16 17  1  0
 17  8  1  0
 18 16  1  0
 18 19  2  0
 20 14  2  0
 21 20  1  0
 22 23  1  0
 24 23  1  1
 24 25  1  0
 25 18  1  0
 26 24  1  0
 27 26  2  0
 28 26  1  0
M  END
$$$$
