KYS.pdb
     RDKit          3D

 28 28  0  0  1  0  0  0  0  0999 V2000
   33.1006  -31.2056  -20.3963 N   0  0  0  0  0  0  0  0  0  0  0  0
   31.7083  -30.9720  -20.3700 C   0  0  1  0  0  0  0  0  0  0  0  0
   31.0030  -30.8267  -21.6626 C   0  0  0  0  0  0  0  0  0  0  0  0
   31.1634  -31.8526  -22.6956 C   0  0  0  0  0  0  0  0  0  0  0  0
   30.2045  -32.9774  -22.7530 C   0  0  0  0  0  0  0  0  0  0  0  0
   30.5232  -34.0115  -23.8078 C   0  0  0  0  0  0  0  0  0  0  0  0
   29.8208  -33.6248  -25.0228 N   0  0  0  0  0  0  0  0  0  0  0  0
   31.0406  -31.8823  -19.4193 C   0  0  0  0  0  0  0  0  0  0  0  0
   31.4030  -33.0815  -19.2517 O   0  0  0  0  0  0  0  0  0  0  0  0
   26.1904  -33.9329  -12.3965 O   0  0  0  0  0  0  0  0  0  0  0  0
   26.9597  -33.3427  -13.3985 C   0  0  0  0  0  0  0  0  0  0  0  0
   28.2092  -33.8099  -13.7229 C   0  0  0  0  0  0  0  0  0  0  0  0
   28.8906  -33.1589  -14.7275 C   0  0  0  0  0  0  0  0  0  0  0  0
   28.3393  -32.0854  -15.3767 C   0  0  0  0  0  0  0  0  0  0  0  0
   29.1353  -31.4311  -16.4432 C   0  0  0  0  0  0  0  0  0  0  0  0
   29.2304  -32.2533  -17.7097 C   0  0  2  0  0  0  0  0  0  0  0  0
   29.9602  -31.4287  -18.6607 N   0  0  0  0  0  0  0  0  0  0  0  0
   27.8938  -32.5937  -18.2461 C   0  0  0  0  0  0  0  0  0  0  0  0
   27.1174  -31.7407  -18.7446 O   0  0  0  0  0  0  0  0  0  0  0  0
   27.1011  -31.6300  -15.0484 C   0  0  0  0  0  0  0  0  0  0  0  0
   26.3953  -32.2577  -14.0506 C   0  0  0  0  0  0  0  0  0  0  0  0
   26.2072  -36.3104  -17.5936 O   0  0  0  0  0  0  0  0  0  0  0  0
   25.8917  -35.7836  -18.8416 C   0  0  0  0  0  0  0  0  0  0  0  0
   26.0916  -34.2881  -18.7774 C   0  0  2  0  0  0  0  0  0  0  0  0
   27.3889  -33.9404  -18.2325 N   0  0  0  0  0  0  0  0  0  0  0  0
   24.9830  -33.6494  -18.0662 C   0  0  0  0  0  0  0  0  0  0  0  0
   25.0720  -33.2632  -16.8793 O   0  0  0  0  0  0  0  0  0  0  0  0
   23.7752  -33.4567  -18.7218 O   0  0  0  0  0  0  0  0  0  0  0  0
  2  1  1  6
  2  3  1  0
  3  4  1  0
  4  5  1  0
  5  6  1  0
  6  7  1  0
  8  2  1  0
  9  8  2  0
 10 11  1  0
 11 21  2  0
 11 12  1  0
 12 13  2  0
 13 14  1  0
 14 15  1  0
 16 15  1  1
 16 17  1  0
 17  8  1  0
 18 16  1  0
 18 19  2  0
 20 14  2  0
 21 20  1  0
 22 23  1  0
 24 23  1  1
 24 25  1  0
 25 18  1  0
 26 24  1  0
 27 26  2  0
 28 26  1  0
M  END
$$$$
