KYS.pdb
     RDKit          3D

 28 28  0  0  1  0  0  0  0  0999 V2000
   28.8113  -24.9588  -17.5248 N   0  0  0  0  0  0  0  0  0  0  0  0
   28.2026  -23.6852  -17.4923 C   0  0  1  0  0  0  0  0  0  0  0  0
   27.7952  -23.0761  -18.7777 C   0  0  0  0  0  0  0  0  0  0  0  0
   28.7831  -22.9083  -19.8460 C   0  0  0  0  0  0  0  0  0  0  0  0
   29.9096  -21.9702  -19.6486 C   0  0  0  0  0  0  0  0  0  0  0  0
   30.8444  -21.8651  -20.8312 C   0  0  0  0  0  0  0  0  0  0  0  0
   31.9616  -21.0229  -20.4295 N   0  0  0  0  0  0  0  0  0  0  0  0
   27.1668  -23.6244  -16.4427 C   0  0  0  0  0  0  0  0  0  0  0  0
   26.5241  -24.6421  -16.0567 O   0  0  0  0  0  0  0  0  0  0  0  0
   23.0239  -20.1047   -9.5365 O   0  0  0  0  0  0  0  0  0  0  0  0
   23.8189  -20.3164  -10.6623 C   0  0  0  0  0  0  0  0  0  0  0  0
   23.5505  -19.7086  -11.8638 C   0  0  0  0  0  0  0  0  0  0  0  0
   24.3947  -19.9818  -12.9173 C   0  0  0  0  0  0  0  0  0  0  0  0
   25.4615  -20.8291  -12.7686 C   0  0  0  0  0  0  0  0  0  0  0  0
   26.3226  -21.0803  -13.9495 C   0  0  0  0  0  0  0  0  0  0  0  0
   25.8559  -22.2455  -14.7942 C   0  0  2  0  0  0  0  0  0  0  0  0
   26.8615  -22.4061  -15.8335 N   0  0  0  0  0  0  0  0  0  0  0  0
   24.5297  -21.9898  -15.3993 C   0  0  0  0  0  0  0  0  0  0  0  0
   24.3483  -21.1666  -16.3311 O   0  0  0  0  0  0  0  0  0  0  0  0
   25.7192  -21.4263  -11.5747 C   0  0  0  0  0  0  0  0  0  0  0  0
   24.8959  -21.1744  -10.5041 C   0  0  0  0  0  0  0  0  0  0  0  0
   21.0428  -23.8845  -13.9878 O   0  0  0  0  0  0  0  0  0  0  0  0
   21.0944  -23.5655  -15.3406 C   0  0  0  0  0  0  0  0  0  0  0  0
   22.0346  -22.3952  -15.5052 C   0  0  2  0  0  0  0  0  0  0  0  0
   23.3460  -22.6756  -14.9553 N   0  0  0  0  0  0  0  0  0  0  0  0
   21.4372  -21.1733  -14.9644 C   0  0  0  0  0  0  0  0  0  0  0  0
   21.9825  -20.4918  -14.0675 O   0  0  0  0  0  0  0  0  0  0  0  0
   20.2146  -20.7384  -15.4561 O   0  0  0  0  0  0  0  0  0  0  0  0
  2  1  1  6
  2  3  1  0
  3  4  1  0
  4  5  1  0
  5  6  1  0
  6  7  1  0
  8  2  1  0
  9  8  2  0
 10 11  1  0
 11 21  2  0
 11 12  1  0
 12 13  2  0
 13 14  1  0
 14 15  1  0
 16 15  1  1
 16 17  1  0
 17  8  1  0
 18 16  1  0
 18 19  2  0
 20 14  2  0
 21 20  1  0
 22 23  1  0
 24 23  1  1
 24 25  1  0
 25 18  1  0
 26 24  1  0
 27 26  2  0
 28 26  1  0
M  END
$$$$
