KYS.pdb
     RDKit          3D

 28 28  0  0  1  0  0  0  0  0999 V2000
   23.5098  -17.1185  -17.7148 N   0  0  0  0  0  0  0  0  0  0  0  0
   23.1553  -18.3397  -18.3284 C   0  0  1  0  0  0  0  0  0  0  0  0
   23.9067  -18.7566  -19.5329 C   0  0  0  0  0  0  0  0  0  0  0  0
   24.3247  -17.7501  -20.5114 C   0  0  0  0  0  0  0  0  0  0  0  0
   25.7671  -17.5474  -20.7694 C   0  0  0  0  0  0  0  0  0  0  0  0
   26.0708  -16.4669  -21.7811 C   0  0  0  0  0  0  0  0  0  0  0  0
   27.5186  -16.3843  -21.9084 N   0  0  0  0  0  0  0  0  0  0  0  0
   22.9933  -19.4063  -17.3213 C   0  0  0  0  0  0  0  0  0  0  0  0
   22.8705  -20.6257  -17.6306 O   0  0  0  0  0  0  0  0  0  0  0  0
   28.9123  -21.2949  -16.6507 O   0  0  0  0  0  0  0  0  0  0  0  0
   27.7218  -20.9712  -16.0009 C   0  0  0  0  0  0  0  0  0  0  0  0
   26.8303  -21.9348  -15.5990 C   0  0  0  0  0  0  0  0  0  0  0  0
   25.6821  -21.5141  -14.9648 C   0  0  0  0  0  0  0  0  0  0  0  0
   25.4417  -20.1830  -14.7450 C   0  0  0  0  0  0  0  0  0  0  0  0
   24.1807  -19.8055  -14.0621 C   0  0  0  0  0  0  0  0  0  0  0  0
   22.9456  -20.0725  -14.8940 C   0  0  2  0  0  0  0  0  0  0  0  0
   22.9697  -19.0856  -15.9629 N   0  0  0  0  0  0  0  0  0  0  0  0
   21.7057  -19.9354  -14.0977 C   0  0  0  0  0  0  0  0  0  0  0  0
   21.3895  -18.8775  -13.4978 O   0  0  0  0  0  0  0  0  0  0  0  0
   26.3307  -19.2361  -15.1467 C   0  0  0  0  0  0  0  0  0  0  0  0
   27.4857  -19.6230  -15.7820 C   0  0  0  0  0  0  0  0  0  0  0  0
   18.0477  -21.6937  -14.7394 O   0  0  0  0  0  0  0  0  0  0  0  0
   18.5642  -21.9781  -13.4797 C   0  0  0  0  0  0  0  0  0  0  0  0
   19.5752  -20.9085  -13.1411 C   0  0  2  0  0  0  0  0  0  0  0  0
   20.7688  -21.0174  -13.9561 N   0  0  0  0  0  0  0  0  0  0  0  0
   19.8614  -20.9048  -11.7056 C   0  0  0  0  0  0  0  0  0  0  0  0
   21.0116  -21.0761  -11.2435 O   0  0  0  0  0  0  0  0  0  0  0  0
   18.8243  -20.7043  -10.8057 O   0  0  0  0  0  0  0  0  0  0  0  0
  2  1  1  1
  2  3  1  0
  3  4  1  0
  4  5  1  0
  5  6  1  0
  6  7  1  0
  8  2  1  0
  9  8  2  0
 10 11  1  0
 11 21  2  0
 11 12  1  0
 12 13  2  0
 13 14  1  0
 14 15  1  0
 16 15  1  1
 16 17  1  0
 17  8  1  0
 18 16  1  0
 18 19  2  0
 20 14  2  0
 21 20  1  0
 22 23  1  0
 24 23  1  1
 24 25  1  0
 25 18  1  0
 26 24  1  0
 27 26  2  0
 28 26  1  0
M  END
$$$$
