KYS.pdb
     RDKit          3D

 28 28  0  0  1  0  0  0  0  0999 V2000
   28.6028  -22.5310  -17.5724 N   0  0  0  0  0  0  0  0  0  0  0  0
   27.7515  -21.4659  -17.2059 C   0  0  1  0  0  0  0  0  0  0  0  0
   26.8690  -20.8916  -18.2454 C   0  0  0  0  0  0  0  0  0  0  0  0
   27.3579  -20.7596  -19.6197 C   0  0  0  0  0  0  0  0  0  0  0  0
   28.0645  -19.5234  -20.0204 C   0  0  0  0  0  0  0  0  0  0  0  0
   28.4440  -19.4714  -21.4822 C   0  0  0  0  0  0  0  0  0  0  0  0
   29.3108  -18.3164  -21.6661 N   0  0  0  0  0  0  0  0  0  0  0  0
   27.0690  -21.7540  -15.9294 C   0  0  0  0  0  0  0  0  0  0  0  0
   26.3208  -22.7595  -15.7659 O   0  0  0  0  0  0  0  0  0  0  0  0
   25.3060  -20.4167   -7.3772 O   0  0  0  0  0  0  0  0  0  0  0  0
   25.8055  -20.3605   -8.6777 C   0  0  0  0  0  0  0  0  0  0  0  0
   25.2825  -19.5086   -9.6188 C   0  0  0  0  0  0  0  0  0  0  0  0
   25.8448  -19.5273  -10.8761 C   0  0  0  0  0  0  0  0  0  0  0  0
   26.8870  -20.3661  -11.1733 C   0  0  0  0  0  0  0  0  0  0  0  0
   27.4363  -20.3351  -12.5503 C   0  0  0  0  0  0  0  0  0  0  0  0
   26.5832  -21.0810  -13.5527 C   0  0  2  0  0  0  0  0  0  0  0  0
   27.2367  -20.8978  -14.8397 N   0  0  0  0  0  0  0  0  0  0  0  0
   25.2014  -20.5531  -13.5997 C   0  0  0  0  0  0  0  0  0  0  0  0
   24.9108  -19.4355  -14.0954 O   0  0  0  0  0  0  0  0  0  0  0  0
   27.3982  -21.2062  -10.2346 C   0  0  0  0  0  0  0  0  0  0  0  0
   26.8595  -21.2116   -8.9707 C   0  0  0  0  0  0  0  0  0  0  0  0
   21.9382  -22.7896  -14.0065 O   0  0  0  0  0  0  0  0  0  0  0  0
   21.9074  -21.4116  -14.1932 C   0  0  0  0  0  0  0  0  0  0  0  0
   22.7317  -20.7772  -13.0983 C   0  0  2  0  0  0  0  0  0  0  0  0
   24.0858  -21.2936  -13.0748 N   0  0  0  0  0  0  0  0  0  0  0  0
   22.0525  -20.8947  -11.8070 C   0  0  0  0  0  0  0  0  0  0  0  0
   20.8720  -20.5212  -11.6257 O   0  0  0  0  0  0  0  0  0  0  0  0
   22.7326  -21.4412  -10.7279 O   0  0  0  0  0  0  0  0  0  0  0  0
  2  1  1  6
  2  3  1  0
  3  4  1  0
  4  5  1  0
  5  6  1  0
  6  7  1  0
  8  2  1  0
  9  8  2  0
 10 11  1  0
 11 21  2  0
 11 12  1  0
 12 13  2  0
 13 14  1  0
 14 15  1  0
 16 15  1  1
 16 17  1  0
 17  8  1  0
 18 16  1  0
 18 19  2  0
 20 14  2  0
 21 20  1  0
 22 23  1  0
 24 23  1  6
 24 25  1  0
 25 18  1  0
 26 24  1  0
 27 26  2  0
 28 26  1  0
M  END
$$$$
