KYS.pdb
     RDKit          3D

 28 28  0  0  1  0  0  0  0  0999 V2000
   25.4413  -20.5976  -16.8665 N   0  0  0  0  0  0  0  0  0  0  0  0
   26.1011  -21.3790  -15.8930 C   0  0  1  0  0  0  0  0  0  0  0  0
   27.4719  -20.9862  -15.4981 C   0  0  0  0  0  0  0  0  0  0  0  0
   28.4616  -20.6706  -16.5306 C   0  0  0  0  0  0  0  0  0  0  0  0
   28.4729  -19.3196  -17.1329 C   0  0  0  0  0  0  0  0  0  0  0  0
   29.5338  -19.1202  -18.1904 C   0  0  0  0  0  0  0  0  0  0  0  0
   29.3671  -17.7772  -18.7265 N   0  0  0  0  0  0  0  0  0  0  0  0
   25.2064  -21.6666  -14.7550 C   0  0  0  0  0  0  0  0  0  0  0  0
   25.5296  -22.4412  -13.8100 O   0  0  0  0  0  0  0  0  0  0  0  0
   25.8685  -21.0464   -7.9383 O   0  0  0  0  0  0  0  0  0  0  0  0
   25.2304  -20.7988   -9.1531 C   0  0  0  0  0  0  0  0  0  0  0  0
   25.9334  -20.6388  -10.3215 C   0  0  0  0  0  0  0  0  0  0  0  0
   25.2119  -20.3975  -11.4698 C   0  0  0  0  0  0  0  0  0  0  0  0
   23.8439  -20.3205  -11.4436 C   0  0  0  0  0  0  0  0  0  0  0  0
   23.1359  -20.0513  -12.7185 C   0  0  0  0  0  0  0  0  0  0  0  0
   23.0042  -21.2736  -13.6003 C   0  0  2  0  0  0  0  0  0  0  0  0
   23.9440  -21.0740  -14.6930 N   0  0  0  0  0  0  0  0  0  0  0  0
   21.6298  -21.4260  -14.1276 C   0  0  0  0  0  0  0  0  0  0  0  0
   21.3243  -21.1912  -15.3236 O   0  0  0  0  0  0  0  0  0  0  0  0
   23.1566  -20.4804  -10.2815 C   0  0  0  0  0  0  0  0  0  0  0  0
   23.8469  -20.7224   -9.1186 C   0  0  0  0  0  0  0  0  0  0  0  0
   19.4698  -24.3783  -14.1041 O   0  0  0  0  0  0  0  0  0  0  0  0
   19.1513  -23.2136  -14.7945 C   0  0  0  0  0  0  0  0  0  0  0  0
   19.2020  -22.0655  -13.8147 C   0  0  2  0  0  0  0  0  0  0  0  0
   20.5393  -21.8584  -13.2955 N   0  0  0  0  0  0  0  0  0  0  0  0
   18.2007  -22.2413  -12.7616 C   0  0  0  0  0  0  0  0  0  0  0  0
   18.4901  -22.2391  -11.5441 O   0  0  0  0  0  0  0  0  0  0  0  0
   16.8697  -22.4192  -13.1113 O   0  0  0  0  0  0  0  0  0  0  0  0
  2  1  1  1
  2  3  1  0
  3  4  1  0
  4  5  1  0
  5  6  1  0
  6  7  1  0
  8  2  1  0
  9  8  2  0
 10 11  1  0
 11 21  2  0
 11 12  1  0
 12 13  2  0
 13 14  1  0
 14 15  1  0
 16 15  1  1
 16 17  1  0
 17  8  1  0
 18 16  1  0
 18 19  2  0
 20 14  2  0
 21 20  1  0
 22 23  1  0
 24 23  1  6
 24 25  1  0
 25 18  1  0
 26 24  1  0
 27 26  2  0
 28 26  1  0
M  END
$$$$
