KYS.pdb
     RDKit          3D

 28 28  0  0  1  0  0  0  0  0999 V2000
   28.2130  -22.3195  -15.6685 N   0  0  0  0  0  0  0  0  0  0  0  0
   27.1554  -21.3846  -15.6369 C   0  0  1  0  0  0  0  0  0  0  0  0
   26.4811  -21.0539  -16.9118 C   0  0  0  0  0  0  0  0  0  0  0  0
   27.1647  -20.2125  -17.8967 C   0  0  0  0  0  0  0  0  0  0  0  0
   28.1049  -20.8367  -18.8530 C   0  0  0  0  0  0  0  0  0  0  0  0
   28.7251  -19.8695  -19.8346 C   0  0  0  0  0  0  0  0  0  0  0  0
   29.7032  -20.6110  -20.6172 N   0  0  0  0  0  0  0  0  0  0  0  0
   26.2298  -21.6755  -14.5247 C   0  0  0  0  0  0  0  0  0  0  0  0
   25.8940  -22.8512  -14.2045 O   0  0  0  0  0  0  0  0  0  0  0  0
   28.9566  -21.2996   -7.8971 O   0  0  0  0  0  0  0  0  0  0  0  0
   28.0370  -20.9109   -8.8705 C   0  0  0  0  0  0  0  0  0  0  0  0
   28.3971  -20.7534  -10.1859 C   0  0  0  0  0  0  0  0  0  0  0  0
   27.4160  -20.3664  -11.0719 C   0  0  0  0  0  0  0  0  0  0  0  0
   26.1297  -20.1474  -10.6529 C   0  0  0  0  0  0  0  0  0  0  0  0
   25.1292  -19.7263  -11.6631 C   0  0  0  0  0  0  0  0  0  0  0  0
   24.7820  -20.8163  -12.6531 C   0  0  2  0  0  0  0  0  0  0  0  0
   25.6856  -20.6291  -13.7780 N   0  0  0  0  0  0  0  0  0  0  0  0
   23.3756  -20.7221  -13.1042 C   0  0  0  0  0  0  0  0  0  0  0  0
   22.9399  -19.7681  -13.7963 O   0  0  0  0  0  0  0  0  0  0  0  0
   25.7828  -20.3060   -9.3480 C   0  0  0  0  0  0  0  0  0  0  0  0
   26.7382  -20.6914   -8.4391 C   0  0  0  0  0  0  0  0  0  0  0  0
   19.2081  -22.8469  -14.1190 O   0  0  0  0  0  0  0  0  0  0  0  0
   20.5180  -23.0102  -13.6807 C   0  0  0  0  0  0  0  0  0  0  0  0
   21.0297  -21.6605  -13.2368 C   0  0  2  0  0  0  0  0  0  0  0  0
   22.4024  -21.7290  -12.7763 N   0  0  0  0  0  0  0  0  0  0  0  0
   20.1255  -21.0641  -12.2522 C   0  0  0  0  0  0  0  0  0  0  0  0
   20.4899  -20.7597  -11.0944 O   0  0  0  0  0  0  0  0  0  0  0  0
   18.8051  -20.8194  -12.6017 O   0  0  0  0  0  0  0  0  0  0  0  0
  2  1  1  6
  2  3  1  0
  3  4  1  0
  4  5  1  0
  5  6  1  0
  6  7  1  0
  8  2  1  0
  9  8  2  0
 10 11  1  0
 11 21  2  0
 11 12  1  0
 12 13  2  0
 13 14  1  0
 14 15  1  0
 16 15  1  1
 16 17  1  0
 17  8  1  0
 18 16  1  0
 18 19  2  0
 20 14  2  0
 21 20  1  0
 22 23  1  0
 24 23  1  1
 24 25  1  0
 25 18  1  0
 26 24  1  0
 27 26  2  0
 28 26  1  0
M  END
$$$$
