KYS.pdb
     RDKit          3D

 28 28  0  0  1  0  0  0  0  0999 V2000
   26.4989  -17.3371  -17.8226 N   0  0  0  0  0  0  0  0  0  0  0  0
   26.2128  -18.2365  -16.7724 C   0  0  1  0  0  0  0  0  0  0  0  0
   27.2738  -18.5024  -15.7760 C   0  0  0  0  0  0  0  0  0  0  0  0
   27.7652  -19.8692  -15.5871 C   0  0  0  0  0  0  0  0  0  0  0  0
   28.1677  -20.6629  -16.7687 C   0  0  0  0  0  0  0  0  0  0  0  0
   28.6376  -22.0624  -16.4456 C   0  0  0  0  0  0  0  0  0  0  0  0
   28.9515  -22.7181  -17.7067 N   0  0  0  0  0  0  0  0  0  0  0  0
   24.8907  -17.9513  -16.1817 C   0  0  0  0  0  0  0  0  0  0  0  0
   24.6488  -16.9005  -15.5223 O   0  0  0  0  0  0  0  0  0  0  0  0
   22.4789  -13.0974  -18.9565 O   0  0  0  0  0  0  0  0  0  0  0  0
   22.3086  -14.4105  -18.5195 C   0  0  0  0  0  0  0  0  0  0  0  0
   22.9657  -15.4617  -19.1095 C   0  0  0  0  0  0  0  0  0  0  0  0
   22.7309  -16.7220  -18.6057 C   0  0  0  0  0  0  0  0  0  0  0  0
   21.8728  -16.9160  -17.5549 C   0  0  0  0  0  0  0  0  0  0  0  0
   21.6650  -18.3022  -17.0709 C   0  0  0  0  0  0  0  0  0  0  0  0
   22.4924  -18.6411  -15.8505 C   0  0  2  0  0  0  0  0  0  0  0  0
   23.8445  -18.8619  -16.3402 N   0  0  0  0  0  0  0  0  0  0  0  0
   21.9910  -19.8533  -15.1653 C   0  0  0  0  0  0  0  0  0  0  0  0
   22.1598  -21.0145  -15.6150 O   0  0  0  0  0  0  0  0  0  0  0  0
   21.2267  -15.8686  -16.9771 C   0  0  0  0  0  0  0  0  0  0  0  0
   21.4394  -14.5987  -17.4563 C   0  0  0  0  0  0  0  0  0  0  0  0
   19.8550  -19.7755  -11.4413 O   0  0  0  0  0  0  0  0  0  0  0  0
   20.7743  -20.7762  -11.7382 C   0  0  0  0  0  0  0  0  0  0  0  0
   20.7874  -20.9637  -13.2367 C   0  0  2  0  0  0  0  0  0  0  0  0
   21.2685  -19.7816  -13.9237 N   0  0  0  0  0  0  0  0  0  0  0  0
   19.4764  -21.4077  -13.7127 C   0  0  0  0  0  0  0  0  0  0  0  0
   18.7447  -20.7007  -14.4412 O   0  0  0  0  0  0  0  0  0  0  0  0
   19.0104  -22.6634  -13.3498 O   0  0  0  0  0  0  0  0  0  0  0  0
  2  1  1  1
  2  3  1  0
  3  4  1  0
  4  5  1  0
  5  6  1  0
  6  7  1  0
  8  2  1  0
  9  8  2  0
 10 11  1  0
 11 21  2  0
 11 12  1  0
 12 13  2  0
 13 14  1  0
 14 15  1  0
 16 15  1  6
 16 17  1  0
 17  8  1  0
 18 16  1  0
 18 19  2  0
 20 14  2  0
 21 20  1  0
 22 23  1  0
 24 23  1  1
 24 25  1  0
 25 18  1  0
 26 24  1  0
 27 26  2  0
 28 26  1  0
M  END
$$$$
