KYS.pdb
     RDKit          3D

 28 28  0  0  1  0  0  0  0  0999 V2000
   20.0825  -15.0059  -18.7346 N   0  0  0  0  0  0  0  0  0  0  0  0
   20.5741  -13.7581  -19.1760 C   0  0  1  0  0  0  0  0  0  0  0  0
   21.0579  -13.6551  -20.5704 C   0  0  0  0  0  0  0  0  0  0  0  0
   21.7692  -14.7829  -21.1764 C   0  0  0  0  0  0  0  0  0  0  0  0
   21.2499  -15.3777  -22.4273 C   0  0  0  0  0  0  0  0  0  0  0  0
   22.1110  -16.4830  -22.9932 C   0  0  0  0  0  0  0  0  0  0  0  0
   23.4936  -16.1708  -22.6615 N   0  0  0  0  0  0  0  0  0  0  0  0
   19.6705  -12.6639  -18.7703 C   0  0  0  0  0  0  0  0  0  0  0  0
   18.4848  -12.5630  -19.1965 O   0  0  0  0  0  0  0  0  0  0  0  0
   14.9854  -14.7250  -15.1841 O   0  0  0  0  0  0  0  0  0  0  0  0
   16.0217  -13.8079  -15.3551 C   0  0  0  0  0  0  0  0  0  0  0  0
   17.3177  -14.1069  -15.0148 C   0  0  0  0  0  0  0  0  0  0  0  0
   18.2703  -13.1338  -15.2217 C   0  0  0  0  0  0  0  0  0  0  0  0
   17.9338  -11.9138  -15.7475 C   0  0  0  0  0  0  0  0  0  0  0  0
   19.0125  -10.9137  -15.9354 C   0  0  0  0  0  0  0  0  0  0  0  0
   19.2872  -10.5948  -17.3886 C   0  0  2  0  0  0  0  0  0  0  0  0
   20.1161  -11.6844  -17.8811 N   0  0  0  0  0  0  0  0  0  0  0  0
   19.9927   -9.3032  -17.5444 C   0  0  0  0  0  0  0  0  0  0  0  0
   21.2054   -9.1451  -17.2556 O   0  0  0  0  0  0  0  0  0  0  0  0
   16.6475  -11.6270  -16.0815 C   0  0  0  0  0  0  0  0  0  0  0  0
   15.6736  -12.5764  -15.8875 C   0  0  0  0  0  0  0  0  0  0  0  0
   19.3637   -6.7274  -20.4540 O   0  0  0  0  0  0  0  0  0  0  0  0
   19.3649   -6.0043  -19.2658 C   0  0  0  0  0  0  0  0  0  0  0  0
   20.0117   -6.8605  -18.2031 C   0  0  2  0  0  0  0  0  0  0  0  0
   19.3287   -8.1289  -18.0431 N   0  0  0  0  0  0  0  0  0  0  0  0
   20.1388   -6.1173  -16.9484 C   0  0  0  0  0  0  0  0  0  0  0  0
   19.6889   -6.5420  -15.8607 O   0  0  0  0  0  0  0  0  0  0  0  0
   20.7827   -4.8881  -16.9481 O   0  0  0  0  0  0  0  0  0  0  0  0
  2  1  1  6
  2  3  1  0
  3  4  1  0
  4  5  1  0
  5  6  1  0
  6  7  1  0
  8  2  1  0
  9  8  2  0
 10 11  1  0
 11 21  2  0
 11 12  1  0
 12 13  2  0
 13 14  1  0
 14 15  1  0
 16 15  1  1
 16 17  1  0
 17  8  1  0
 18 16  1  0
 18 19  2  0
 20 14  2  0
 21 20  1  0
 22 23  1  0
 24 23  1  6
 24 25  1  0
 25 18  1  0
 26 24  1  0
 27 26  2  0
 28 26  1  0
M  END
$$$$
