KYS.pdb
     RDKit          3D

 28 28  0  0  1  0  0  0  0  0999 V2000
   26.9425  -19.8598  -17.7908 N   0  0  0  0  0  0  0  0  0  0  0  0
   27.1226  -21.2518  -17.6373 C   0  0  1  0  0  0  0  0  0  0  0  0
   28.4107  -21.8381  -18.0691 C   0  0  0  0  0  0  0  0  0  0  0  0
   29.2721  -21.0959  -18.9923 C   0  0  0  0  0  0  0  0  0  0  0  0
   29.0327  -19.6513  -19.2018 C   0  0  0  0  0  0  0  0  0  0  0  0
   29.9671  -19.0054  -20.1984 C   0  0  0  0  0  0  0  0  0  0  0  0
   29.6331  -17.5897  -20.2540 N   0  0  0  0  0  0  0  0  0  0  0  0
   26.6774  -21.6952  -16.3018 C   0  0  0  0  0  0  0  0  0  0  0  0
   26.7554  -22.8975  -15.9195 O   0  0  0  0  0  0  0  0  0  0  0  0
   24.9252  -20.7231   -7.7654 O   0  0  0  0  0  0  0  0  0  0  0  0
   25.3422  -20.6163   -9.0916 C   0  0  0  0  0  0  0  0  0  0  0  0
   26.5430  -21.1280   -9.5172 C   0  0  0  0  0  0  0  0  0  0  0  0
   26.8653  -20.9717  -10.8472 C   0  0  0  0  0  0  0  0  0  0  0  0
   26.0172  -20.3288  -11.7106 C   0  0  0  0  0  0  0  0  0  0  0  0
   26.4350  -20.1928  -13.1269 C   0  0  0  0  0  0  0  0  0  0  0  0
   25.6822  -21.1110  -14.0645 C   0  0  2  0  0  0  0  0  0  0  0  0
   26.1426  -20.7714  -15.4023 N   0  0  0  0  0  0  0  0  0  0  0  0
   24.2180  -20.9210  -13.9626 C   0  0  0  0  0  0  0  0  0  0  0  0
   23.5593  -21.2086  -12.9319 O   0  0  0  0  0  0  0  0  0  0  0  0
   24.8300  -19.8254  -11.2797 C   0  0  0  0  0  0  0  0  0  0  0  0
   24.4790  -19.9651   -9.9588 C   0  0  0  0  0  0  0  0  0  0  0  0
   22.0588  -19.5804  -17.2243 O   0  0  0  0  0  0  0  0  0  0  0  0
   21.5006  -19.2308  -15.9992 C   0  0  0  0  0  0  0  0  0  0  0  0
   22.0071  -20.2065  -14.9638 C   0  0  2  0  0  0  0  0  0  0  0  0
   23.4425  -20.3876  -15.0501 N   0  0  0  0  0  0  0  0  0  0  0  0
   21.2665  -21.4670  -15.0367 C   0  0  0  0  0  0  0  0  0  0  0  0
   21.8179  -22.5640  -15.2785 O   0  0  0  0  0  0  0  0  0  0  0  0
   19.8941  -21.4625  -14.8313 O   0  0  0  0  0  0  0  0  0  0  0  0
  2  1  1  1
  2  3  1  0
  3  4  1  0
  4  5  1  0
  5  6  1  0
  6  7  1  0
  8  2  1  0
  9  8  2  0
 10 11  1  0
 11 21  2  0
 11 12  1  0
 12 13  2  0
 13 14  1  0
 14 15  1  0
 16 15  1  1
 16 17  1  0
 17  8  1  0
 18 16  1  0
 18 19  2  0
 20 14  2  0
 21 20  1  0
 22 23  1  0
 24 23  1  6
 24 25  1  0
 25 18  1  0
 26 24  1  0
 27 26  2  0
 28 26  1  0
M  END
$$$$
