KYS.pdb
     RDKit          3D

 28 28  0  0  1  0  0  0  0  0999 V2000
   28.2133  -23.2828  -16.9741 N   0  0  0  0  0  0  0  0  0  0  0  0
   27.4594  -22.0913  -16.8996 C   0  0  1  0  0  0  0  0  0  0  0  0
   26.8532  -21.5728  -18.1458 C   0  0  0  0  0  0  0  0  0  0  0  0
   27.4785  -21.8728  -19.4358 C   0  0  0  0  0  0  0  0  0  0  0  0
   26.8734  -21.3374  -20.6749 C   0  0  0  0  0  0  0  0  0  0  0  0
   27.4983  -20.0520  -21.1655 C   0  0  0  0  0  0  0  0  0  0  0  0
   28.9180  -20.3059  -21.3630 N   0  0  0  0  0  0  0  0  0  0  0  0
   26.5347  -22.1255  -15.7497 C   0  0  0  0  0  0  0  0  0  0  0  0
   26.2477  -23.1918  -15.1347 O   0  0  0  0  0  0  0  0  0  0  0  0
   30.2632  -21.4684  -10.4226 O   0  0  0  0  0  0  0  0  0  0  0  0
   29.1124  -21.0630  -11.0974 C   0  0  0  0  0  0  0  0  0  0  0  0
   27.8572  -21.4115  -10.6638 C   0  0  0  0  0  0  0  0  0  0  0  0
   26.7827  -20.9619  -11.3990 C   0  0  0  0  0  0  0  0  0  0  0  0
   26.9631  -20.1959  -12.5210 C   0  0  0  0  0  0  0  0  0  0  0  0
   25.7588  -19.7543  -13.2651 C   0  0  0  0  0  0  0  0  0  0  0  0
   25.1297  -20.8532  -14.0931 C   0  0  2  0  0  0  0  0  0  0  0  0
   25.9360  -20.9472  -15.3006 N   0  0  0  0  0  0  0  0  0  0  0  0
   23.7238  -20.5456  -14.4382 C   0  0  0  0  0  0  0  0  0  0  0  0
   23.3976  -19.6271  -15.2313 O   0  0  0  0  0  0  0  0  0  0  0  0
   28.2101  -19.8559  -12.9425 C   0  0  0  0  0  0  0  0  0  0  0  0
   29.3029  -20.2884  -12.2310 C   0  0  0  0  0  0  0  0  0  0  0  0
   20.5478  -22.5396  -12.5841 O   0  0  0  0  0  0  0  0  0  0  0  0
   20.3218  -22.1292  -13.8937 C   0  0  0  0  0  0  0  0  0  0  0  0
   21.2424  -20.9668  -14.1804 C   0  0  2  0  0  0  0  0  0  0  0  0
   22.6241  -21.2869  -13.8817 N   0  0  0  0  0  0  0  0  0  0  0  0
   20.7753  -19.7584  -13.4993 C   0  0  0  0  0  0  0  0  0  0  0  0
   21.4752  -19.1340  -12.6708 O   0  0  0  0  0  0  0  0  0  0  0  0
   19.5050  -19.2713  -13.7725 O   0  0  0  0  0  0  0  0  0  0  0  0
  2  1  1  6
  2  3  1  0
  3  4  1  0
  4  5  1  0
  5  6  1  0
  6  7  1  0
  8  2  1  0
  9  8  2  0
 10 11  1  0
 11 21  2  0
 11 12  1  0
 12 13  2  0
 13 14  1  0
 14 15  1  0
 16 15  1  1
 16 17  1  0
 17  8  1  0
 18 16  1  0
 18 19  2  0
 20 14  2  0
 21 20  1  0
 22 23  1  0
 24 23  1  1
 24 25  1  0
 25 18  1  0
 26 24  1  0
 27 26  2  0
 28 26  1  0
M  END
$$$$
