KYS.pdb
     RDKit          3D

 28 28  0  0  1  0  0  0  0  0999 V2000
   21.5300  -10.6101  -17.4087 N   0  0  0  0  0  0  0  0  0  0  0  0
   20.1284  -10.4539  -17.4769 C   0  0  1  0  0  0  0  0  0  0  0  0
   19.2921  -11.6745  -17.4823 C   0  0  0  0  0  0  0  0  0  0  0  0
   19.6180  -12.7728  -18.3949 C   0  0  0  0  0  0  0  0  0  0  0  0
   18.6928  -13.9219  -18.5032 C   0  0  0  0  0  0  0  0  0  0  0  0
   19.1191  -14.9696  -19.5053 C   0  0  0  0  0  0  0  0  0  0  0  0
   20.4114  -15.4831  -19.0751 N   0  0  0  0  0  0  0  0  0  0  0  0
   19.6690   -9.4140  -16.5357 C   0  0  0  0  0  0  0  0  0  0  0  0
   18.4593   -9.0586  -16.4468 O   0  0  0  0  0  0  0  0  0  0  0  0
   19.9306   -5.1101   -8.9402 O   0  0  0  0  0  0  0  0  0  0  0  0
   20.2839   -5.7891  -10.1057 C   0  0  0  0  0  0  0  0  0  0  0  0
   21.1402   -5.2445  -11.0304 C   0  0  0  0  0  0  0  0  0  0  0  0
   21.4277   -5.9940  -12.1498 C   0  0  0  0  0  0  0  0  0  0  0  0
   20.8778   -7.2361  -12.3307 C   0  0  0  0  0  0  0  0  0  0  0  0
   21.2286   -7.9813  -13.5638 C   0  0  0  0  0  0  0  0  0  0  0  0
   20.2182   -7.8081  -14.6765 C   0  0  2  0  0  0  0  0  0  0  0  0
   20.5858   -8.7780  -15.6968 N   0  0  0  0  0  0  0  0  0  0  0  0
   20.2467   -6.4387  -15.2370 C   0  0  0  0  0  0  0  0  0  0  0  0
   21.1917   -6.0065  -15.9436 O   0  0  0  0  0  0  0  0  0  0  0  0
   20.0309   -7.7670  -11.4092 C   0  0  0  0  0  0  0  0  0  0  0  0
   19.7241   -7.0448  -10.2815 C   0  0  0  0  0  0  0  0  0  0  0  0
   17.9766   -2.2142  -16.0070 O   0  0  0  0  0  0  0  0  0  0  0  0
   17.8695   -3.4708  -15.4204 C   0  0  0  0  0  0  0  0  0  0  0  0
   19.2172   -4.1450  -15.5199 C   0  0  2  0  0  0  0  0  0  0  0  0
   19.1812   -5.5003  -15.0075 N   0  0  0  0  0  0  0  0  0  0  0  0
   20.2528   -3.3234  -14.8913 C   0  0  0  0  0  0  0  0  0  0  0  0
   20.3012   -3.1211  -13.6573 O   0  0  0  0  0  0  0  0  0  0  0  0
   21.2297   -2.7368  -15.6833 O   0  0  0  0  0  0  0  0  0  0  0  0
  2  1  1  1
  2  3  1  0
  3  4  1  0
  4  5  1  0
  5  6  1  0
  6  7  1  0
  8  2  1  0
  9  8  2  0
 10 11  1  0
 11 21  2  0
 11 12  1  0
 12 13  2  0
 13 14  1  0
 14 15  1  0
 16 15  1  1
 16 17  1  0
 17  8  1  0
 18 16  1  0
 18 19  2  0
 20 14  2  0
 21 20  1  0
 22 23  1  0
 24 23  1  1
 24 25  1  0
 25 18  1  0
 26 24  1  0
 27 26  2  0
 28 26  1  0
M  END
$$$$
