QKI.pdb
     RDKit          3D

 27 26  0  0  1  0  0  0  0  0999 V2000
    9.5664  -12.8258   18.7659 N   0  0  0  0  0  0  0  0  0  0  0  0
    8.6718  -13.2723   17.7664 C   0  0  0  0  0  0  0  0  0  0  0  0
    9.0799  -13.4000   16.5881 O   0  0  0  0  0  0  0  0  0  0  0  0
    7.2654  -13.5856   18.1052 C   0  0  0  0  0  0  0  0  0  0  0  0
    7.1492  -13.8012   19.6002 C   0  0  0  0  0  0  0  0  0  0  0  0
    7.9838  -14.9527   20.0758 C   0  0  2  0  0  0  0  0  0  0  0  0
    7.7812  -16.1368   19.2650 N   0  0  0  0  0  0  0  0  0  0  0  0
    7.5627  -15.2352   21.4953 C   0  0  0  0  0  0  0  0  0  0  0  0
    7.2492  -14.2925   22.2683 O   0  0  0  0  0  0  0  0  0  0  0  0
    7.5186  -16.5669   21.9553 N   0  0  0  0  0  0  0  0  0  0  0  0
    7.2214  -16.9746   23.2889 C   0  0  1  0  0  0  0  0  0  0  0  0
    7.2109  -18.4739   23.3727 C   0  0  0  0  0  0  0  0  0  0  0  0
    6.9991  -18.8305   24.8322 C   0  0  0  0  0  0  0  0  0  0  0  0
    6.9941  -20.3010   25.1119 C   0  0  0  0  0  0  0  0  0  0  0  0
    6.6426  -20.4555   26.6039 C   0  0  0  0  0  0  0  0  0  0  0  0
    6.6299  -21.8347   26.9695 N   0  0  0  0  0  0  0  0  0  0  0  0
    8.1603  -16.3455   24.2868 C   0  0  0  0  0  0  0  0  0  0  0  0
    9.3938  -16.5387   24.1402 O   0  0  0  0  0  0  0  0  0  0  0  0
    6.1486  -11.6728   26.1606 C   0  0  0  0  0  0  0  0  0  0  0  0
    7.0465  -12.7745   25.6692 C   0  0  0  0  0  0  0  0  0  0  0  0
    7.5776  -13.6116   26.8143 C   0  0  2  0  0  0  0  0  0  0  0  0
    8.5361  -12.7172   27.6105 C   0  0  0  0  0  0  0  0  0  0  0  0
    8.3288  -14.8124   26.3484 C   0  0  2  0  0  0  0  0  0  0  0  0
    7.6717  -15.5682   25.3483 N   0  0  0  0  0  0  0  0  0  0  0  0
    8.9480  -15.4689   27.4929 C   0  0  0  0  0  0  0  0  0  0  0  0
   10.1221  -15.1765   28.1368 O   0  0  0  0  0  0  0  0  0  0  0  0
    8.3384  -16.4950   28.0285 O   0  0  0  0  0  0  0  0  0  0  0  0
  2  1  1  0
  2  3  2  0
  4  5  1  0
  4  2  1  0
  5  6  1  0
  6  8  1  0
  6  7  1  6
  8  9  2  0
 10 11  1  0
 10  8  1  0
 12 13  1  0
 11 12  1  6
 13 14  1  0
 14 15  1  0
 16 15  1  0
 17 18  2  0
 17 11  1  0
 19 20  1  0
 20 21  1  0
 21 23  1  0
 21 22  1  6
 23 25  1  0
 23 24  1  1
 24 17  1  0
 25 26  1  0
 27 25  2  0
M  END
$$$$
