QKI.pdb
     RDKit          3D

 27 26  0  0  1  0  0  0  0  0999 V2000
    8.1967  -13.5641   15.4530 N   0  0  0  0  0  0  0  0  0  0  0  0
    7.8710  -14.4924   16.4682 C   0  0  0  0  0  0  0  0  0  0  0  0
    8.4034  -15.6272   16.4581 O   0  0  0  0  0  0  0  0  0  0  0  0
    6.9095  -14.1308   17.5339 C   0  0  0  0  0  0  0  0  0  0  0  0
    7.5862  -13.2024   18.5215 C   0  0  0  0  0  0  0  0  0  0  0  0
    8.8127  -13.8143   19.1296 C   0  0  2  0  0  0  0  0  0  0  0  0
    9.3243  -14.9076   18.3274 N   0  0  0  0  0  0  0  0  0  0  0  0
    8.4109  -14.3302   20.4877 C   0  0  0  0  0  0  0  0  0  0  0  0
    7.7899  -13.5897   21.2944 O   0  0  0  0  0  0  0  0  0  0  0  0
    8.7329  -15.6533   20.8519 N   0  0  0  0  0  0  0  0  0  0  0  0
    8.3037  -16.3147   22.0400 C   0  0  1  0  0  0  0  0  0  0  0  0
    8.6724  -17.7690   21.9747 C   0  0  0  0  0  0  0  0  0  0  0  0
    8.0398  -18.4368   23.1814 C   0  0  0  0  0  0  0  0  0  0  0  0
    8.2676  -19.9142   23.2570 C   0  0  0  0  0  0  0  0  0  0  0  0
    7.4586  -20.4144   24.4690 C   0  0  0  0  0  0  0  0  0  0  0  0
    7.4881  -21.8396   24.5301 N   0  0  0  0  0  0  0  0  0  0  0  0
    8.8345  -15.6378   23.2780 C   0  0  0  0  0  0  0  0  0  0  0  0
   10.0569  -15.3464   23.3137 O   0  0  0  0  0  0  0  0  0  0  0  0
    7.0816  -11.2391   26.9249 C   0  0  0  0  0  0  0  0  0  0  0  0
    7.8445  -12.5340   26.8723 C   0  0  0  0  0  0  0  0  0  0  0  0
    7.3783  -13.4080   25.7264 C   0  0  2  0  0  0  0  0  0  0  0  0
    5.9399  -13.8320   26.0487 C   0  0  0  0  0  0  0  0  0  0  0  0
    8.2083  -14.6362   25.5658 C   0  0  2  0  0  0  0  0  0  0  0  0
    7.9895  -15.3426   24.3590 N   0  0  0  0  0  0  0  0  0  0  0  0
    8.2798  -15.3408   26.8397 C   0  0  0  0  0  0  0  0  0  0  0  0
    7.7210  -16.5369   27.2080 O   0  0  0  0  0  0  0  0  0  0  0  0
    8.9657  -14.8004   27.8138 O   0  0  0  0  0  0  0  0  0  0  0  0
  2  1  1  0
  2  3  2  0
  4  5  1  0
  4  2  1  0
  5  6  1  0
  6  8  1  0
  6  7  1  6
  8  9  2  0
 10 11  1  0
 10  8  1  0
 12 13  1  0
 11 12  1  6
 13 14  1  0
 14 15  1  0
 16 15  1  0
 17 18  2  0
 17 11  1  0
 19 20  1  0
 20 21  1  0
 21 23  1  0
 21 22  1  1
 23 25  1  0
 23 24  1  6
 24 17  1  0
 25 26  1  0
 27 25  2  0
M  END
$$$$
