QKI.pdb
     RDKit          3D

 27 26  0  0  1  0  0  0  0  0999 V2000
   11.6110  -14.3926   20.8398 N   0  0  0  0  0  0  0  0  0  0  0  0
   12.0026  -13.8494   19.5948 C   0  0  0  0  0  0  0  0  0  0  0  0
   13.1844  -13.9968   19.2036 O   0  0  0  0  0  0  0  0  0  0  0  0
   11.0286  -13.1116   18.7594 C   0  0  0  0  0  0  0  0  0  0  0  0
    9.6493  -13.2381   19.3731 C   0  0  0  0  0  0  0  0  0  0  0  0
    8.9938  -14.5439   19.0358 C   0  0  2  0  0  0  0  0  0  0  0  0
    8.0284  -14.4018   17.9641 N   0  0  0  0  0  0  0  0  0  0  0  0
    8.2942  -15.0126   20.2860 C   0  0  0  0  0  0  0  0  0  0  0  0
    7.1436  -14.5890   20.5712 O   0  0  0  0  0  0  0  0  0  0  0  0
    8.9361  -15.9341   21.1378 N   0  0  0  0  0  0  0  0  0  0  0  0
    8.3756  -16.5009   22.3201 C   0  0  1  0  0  0  0  0  0  0  0  0
    8.6412  -17.9786   22.3518 C   0  0  0  0  0  0  0  0  0  0  0  0
    8.0095  -18.5109   23.6245 C   0  0  0  0  0  0  0  0  0  0  0  0
    8.8196  -19.5587   24.3220 C   0  0  0  0  0  0  0  0  0  0  0  0
    7.9851  -20.0135   25.5346 C   0  0  0  0  0  0  0  0  0  0  0  0
    6.9731  -20.9314   25.1232 N   0  0  0  0  0  0  0  0  0  0  0  0
    8.8638  -15.7981   23.5612 C   0  0  0  0  0  0  0  0  0  0  0  0
   10.1028  -15.6362   23.6995 O   0  0  0  0  0  0  0  0  0  0  0  0
    6.6114  -11.3754   27.0653 C   0  0  0  0  0  0  0  0  0  0  0  0
    7.4428  -12.6277   27.1087 C   0  0  0  0  0  0  0  0  0  0  0  0
    7.0829  -13.5735   25.9816 C   0  0  2  0  0  0  0  0  0  0  0  0
    5.8107  -14.3138   26.4129 C   0  0  0  0  0  0  0  0  0  0  0  0
    8.1487  -14.5815   25.7148 C   0  0  2  0  0  0  0  0  0  0  0  0
    7.9621  -15.3391   24.5339 N   0  0  0  0  0  0  0  0  0  0  0  0
    8.5241  -15.2299   26.9650 C   0  0  0  0  0  0  0  0  0  0  0  0
    8.3545  -16.5321   27.3580 O   0  0  0  0  0  0  0  0  0  0  0  0
    9.1146  -14.5135   27.8866 O   0  0  0  0  0  0  0  0  0  0  0  0
  2  1  1  0
  2  3  2  0
  4  5  1  0
  4  2  1  0
  5  6  1  0
  6  8  1  0
  6  7  1  6
  8  9  2  0
 10 11  1  0
 10  8  1  0
 12 13  1  0
 11 12  1  1
 13 14  1  0
 14 15  1  0
 16 15  1  0
 17 18  2  0
 17 11  1  0
 19 20  1  0
 20 21  1  0
 21 23  1  0
 21 22  1  1
 23 25  1  0
 23 24  1  6
 24 17  1  0
 25 26  1  0
 27 25  2  0
M  END
$$$$
