QKI.pdb
     RDKit          3D

 27 26  0  0  1  0  0  0  0  0999 V2000
    7.9936  -12.4989   16.6917 N   0  0  0  0  0  0  0  0  0  0  0  0
    7.6610  -13.8704   16.6082 C   0  0  0  0  0  0  0  0  0  0  0  0
    7.4159  -14.3769   15.4880 O   0  0  0  0  0  0  0  0  0  0  0  0
    7.6007  -14.7027   17.8307 C   0  0  0  0  0  0  0  0  0  0  0  0
    7.8210  -13.8227   19.0440 C   0  0  0  0  0  0  0  0  0  0  0  0
    9.0595  -14.1976   19.8018 C   0  0  2  0  0  0  0  0  0  0  0  0
    9.8337  -15.2054   19.1050 N   0  0  0  0  0  0  0  0  0  0  0  0
    8.6048  -14.7412   21.1321 C   0  0  0  0  0  0  0  0  0  0  0  0
    7.7278  -14.1370   21.8032 O   0  0  0  0  0  0  0  0  0  0  0  0
    9.1669  -15.9370   21.6231 N   0  0  0  0  0  0  0  0  0  0  0  0
    8.8785  -16.5319   22.8865 C   0  0  1  0  0  0  0  0  0  0  0  0
    9.4946  -17.8995   22.9580 C   0  0  0  0  0  0  0  0  0  0  0  0
    8.7598  -18.7650   21.9514 C   0  0  0  0  0  0  0  0  0  0  0  0
    9.2291  -20.1856   21.9028 C   0  0  0  0  0  0  0  0  0  0  0  0
    8.3099  -20.9099   20.9008 C   0  0  0  0  0  0  0  0  0  0  0  0
    8.7119  -22.2711   20.7545 N   0  0  0  0  0  0  0  0  0  0  0  0
    9.3022  -15.6455   24.0301 C   0  0  0  0  0  0  0  0  0  0  0  0
   10.4193  -15.0743   23.9520 O   0  0  0  0  0  0  0  0  0  0  0  0
    5.6887  -12.3007   25.9218 C   0  0  0  0  0  0  0  0  0  0  0  0
    6.9307  -13.0598   25.5441 C   0  0  0  0  0  0  0  0  0  0  0  0
    7.4604  -13.8734   26.7068 C   0  0  2  0  0  0  0  0  0  0  0  0
    7.8949  -12.8740   27.7862 C   0  0  0  0  0  0  0  0  0  0  0  0
    8.6381  -14.7087   26.3345 C   0  0  2  0  0  0  0  0  0  0  0  0
    8.4746  -15.4644   25.1491 N   0  0  0  0  0  0  0  0  0  0  0  0
    9.1977  -15.3168   27.5351 C   0  0  0  0  0  0  0  0  0  0  0  0
   10.0937  -14.8040   28.4367 O   0  0  0  0  0  0  0  0  0  0  0  0
    8.8262  -16.5308   27.8507 O   0  0  0  0  0  0  0  0  0  0  0  0
  2  1  1  0
  2  3  2  0
  4  5  1  0
  4  2  1  0
  5  6  1  0
  6  8  1  0
  6  7  1  6
  8  9  2  0
 10 11  1  0
 10  8  1  0
 12 13  1  0
 11 12  1  1
 13 14  1  0
 14 15  1  0
 16 15  1  0
 17 18  2  0
 17 11  1  0
 19 20  1  0
 20 21  1  0
 21 23  1  0
 21 22  1  1
 23 25  1  0
 23 24  1  6
 24 17  1  0
 25 26  1  0
 27 25  2  0
M  END
$$$$
