QKI.pdb
     RDKit          3D

 27 26  0  0  1  0  0  0  0  0999 V2000
   10.1345  -14.2733   18.8981 N   0  0  0  0  0  0  0  0  0  0  0  0
    9.2655  -13.7761   17.9002 C   0  0  0  0  0  0  0  0  0  0  0  0
    9.6408  -13.7712   16.7042 O   0  0  0  0  0  0  0  0  0  0  0  0
    7.9244  -13.2643   18.2615 C   0  0  0  0  0  0  0  0  0  0  0  0
    7.6090  -13.6581   19.6900 C   0  0  0  0  0  0  0  0  0  0  0  0
    7.4902  -15.1435   19.8579 C   0  0  2  0  0  0  0  0  0  0  0  0
    6.4749  -15.7049   18.9892 N   0  0  0  0  0  0  0  0  0  0  0  0
    7.1140  -15.3876   21.2969 C   0  0  0  0  0  0  0  0  0  0  0  0
    6.2408  -14.6756   21.8586 O   0  0  0  0  0  0  0  0  0  0  0  0
    7.7453  -16.4236   22.0144 N   0  0  0  0  0  0  0  0  0  0  0  0
    7.5420  -16.7209   23.3941 C   0  0  1  0  0  0  0  0  0  0  0  0
    7.8024  -18.1785   23.6446 C   0  0  0  0  0  0  0  0  0  0  0  0
    7.5877  -18.4141   25.1281 C   0  0  0  0  0  0  0  0  0  0  0  0
    7.7724  -19.8358   25.5585 C   0  0  0  0  0  0  0  0  0  0  0  0
    7.3738  -19.8920   27.0456 C   0  0  0  0  0  0  0  0  0  0  0  0
    7.3123  -21.2461   27.4911 N   0  0  0  0  0  0  0  0  0  0  0  0
    8.3641  -15.8245   24.2848 C   0  0  0  0  0  0  0  0  0  0  0  0
    9.6070  -15.7875   24.1000 O   0  0  0  0  0  0  0  0  0  0  0  0
    5.6360  -11.5506   26.9891 C   0  0  0  0  0  0  0  0  0  0  0  0
    6.1892  -12.9114   26.6671 C   0  0  0  0  0  0  0  0  0  0  0  0
    7.6677  -12.8484   26.3440 C   0  0  2  0  0  0  0  0  0  0  0  0
    7.7930  -12.1860   24.9663 C   0  0  0  0  0  0  0  0  0  0  0  0
    8.2998  -14.1973   26.2791 C   0  0  2  0  0  0  0  0  0  0  0  0
    7.7600  -15.0550   25.2911 N   0  0  0  0  0  0  0  0  0  0  0  0
    8.5468  -14.6805   27.6317 C   0  0  0  0  0  0  0  0  0  0  0  0
    9.2798  -14.1126   28.6412 O   0  0  0  0  0  0  0  0  0  0  0  0
    8.0150  -15.8195   27.9941 O   0  0  0  0  0  0  0  0  0  0  0  0
  2  1  1  0
  2  3  2  0
  4  5  1  0
  4  2  1  0
  5  6  1  0
  6  8  1  0
  6  7  1  6
  8  9  2  0
 10 11  1  0
 10  8  1  0
 12 13  1  0
 11 12  1  6
 13 14  1  0
 14 15  1  0
 16 15  1  0
 17 18  2  0
 17 11  1  0
 19 20  1  0
 20 21  1  0
 21 23  1  0
 21 22  1  6
 23 25  1  0
 23 24  1  1
 24 17  1  0
 25 26  1  0
 27 25  2  0
M  END
$$$$
