QKI.pdb
     RDKit          3D

 27 26  0  0  1  0  0  0  0  0999 V2000
    9.0872  -12.4798   19.2475 N   0  0  0  0  0  0  0  0  0  0  0  0
    8.6465  -13.1740   18.0976 C   0  0  0  0  0  0  0  0  0  0  0  0
    9.0580  -12.8178   16.9684 O   0  0  0  0  0  0  0  0  0  0  0  0
    7.7067  -14.3107   18.2228 C   0  0  0  0  0  0  0  0  0  0  0  0
    7.4214  -14.5622   19.6892 C   0  0  0  0  0  0  0  0  0  0  0  0
    7.5698  -16.0081   20.0581 C   0  0  2  0  0  0  0  0  0  0  0  0
    6.7556  -16.8649   19.2192 N   0  0  0  0  0  0  0  0  0  0  0  0
    7.1250  -16.1366   21.4925 C   0  0  0  0  0  0  0  0  0  0  0  0
    6.2809  -15.3363   21.9738 O   0  0  0  0  0  0  0  0  0  0  0  0
    7.6591  -17.1638   22.2965 N   0  0  0  0  0  0  0  0  0  0  0  0
    7.5404  -17.2541   23.7146 C   0  0  1  0  0  0  0  0  0  0  0  0
    7.8629  -18.6500   24.1648 C   0  0  0  0  0  0  0  0  0  0  0  0
    7.6298  -18.6928   25.6634 C   0  0  0  0  0  0  0  0  0  0  0  0
    7.8721  -20.0323   26.2859 C   0  0  0  0  0  0  0  0  0  0  0  0
    7.5899  -19.8663   27.7913 C   0  0  0  0  0  0  0  0  0  0  0  0
    6.3296  -20.4457   28.1259 N   0  0  0  0  0  0  0  0  0  0  0  0
    8.3783  -16.2128   24.4119 C   0  0  0  0  0  0  0  0  0  0  0  0
    9.6283  -16.2914   24.3039 O   0  0  0  0  0  0  0  0  0  0  0  0
    5.4980  -11.8664   27.0896 C   0  0  0  0  0  0  0  0  0  0  0  0
    6.1709  -13.1756   26.7821 C   0  0  0  0  0  0  0  0  0  0  0  0
    7.5356  -12.9667   26.1590 C   0  0  2  0  0  0  0  0  0  0  0  0
    7.2990  -12.4229   24.7445 C   0  0  0  0  0  0  0  0  0  0  0  0
    8.3193  -14.2308   26.0543 C   0  0  2  0  0  0  0  0  0  0  0  0
    7.7808  -15.1867   25.1601 N   0  0  0  0  0  0  0  0  0  0  0  0
    8.7782  -14.6257   27.3801 C   0  0  0  0  0  0  0  0  0  0  0  0
    8.5714  -15.7964   28.0624 O   0  0  0  0  0  0  0  0  0  0  0  0
    9.4994  -13.7788   28.0685 O   0  0  0  0  0  0  0  0  0  0  0  0
  2  1  1  0
  2  3  2  0
  4  5  1  0
  4  2  1  0
  5  6  1  0
  6  8  1  0
  6  7  1  6
  8  9  2  0
 10 11  1  0
 10  8  1  0
 12 13  1  0
 11 12  1  1
 13 14  1  0
 14 15  1  0
 16 15  1  0
 17 18  2  0
 17 11  1  0
 19 20  1  0
 20 21  1  0
 21 23  1  0
 21 22  1  6
 23 25  1  0
 23 24  1  1
 24 17  1  0
 25 26  1  0
 27 25  2  0
M  END
$$$$
