QKI.pdb
     RDKit          3D

 27 26  0  0  1  0  0  0  0  0999 V2000
    5.1041  -18.3142   18.0267 N   0  0  0  0  0  0  0  0  0  0  0  0
    6.1516  -17.9672   17.1430 C   0  0  0  0  0  0  0  0  0  0  0  0
    6.0836  -18.3167   15.9411 O   0  0  0  0  0  0  0  0  0  0  0  0
    7.3195  -17.1995   17.6301 C   0  0  0  0  0  0  0  0  0  0  0  0
    7.1600  -16.9373   19.1136 C   0  0  0  0  0  0  0  0  0  0  0  0
    8.2376  -16.0448   19.6531 C   0  0  2  0  0  0  0  0  0  0  0  0
    9.5402  -16.3883   19.1183 N   0  0  0  0  0  0  0  0  0  0  0  0
    8.2423  -16.2279   21.1492 C   0  0  0  0  0  0  0  0  0  0  0  0
    7.2353  -15.9109   21.8348 O   0  0  0  0  0  0  0  0  0  0  0  0
    9.3843  -16.7607   21.7807 N   0  0  0  0  0  0  0  0  0  0  0  0
    9.4944  -17.0772   23.1667 C   0  0  1  0  0  0  0  0  0  0  0  0
   10.5754  -18.0994   23.3713 C   0  0  0  0  0  0  0  0  0  0  0  0
   10.5618  -18.4637   24.8441 C   0  0  0  0  0  0  0  0  0  0  0  0
   11.5355  -19.5360   25.2218 C   0  0  0  0  0  0  0  0  0  0  0  0
   11.3790  -19.7461   26.7400 C   0  0  0  0  0  0  0  0  0  0  0  0
   10.6931  -20.9694   27.0026 N   0  0  0  0  0  0  0  0  0  0  0  0
    9.6992  -15.8420   24.0063 C   0  0  0  0  0  0  0  0  0  0  0  0
   10.6232  -15.0538   23.6818 O   0  0  0  0  0  0  0  0  0  0  0  0
    5.9706  -12.3652   25.1524 C   0  0  0  0  0  0  0  0  0  0  0  0
    7.3086  -13.0377   25.0147 C   0  0  0  0  0  0  0  0  0  0  0  0
    7.6867  -13.7872   26.2754 C   0  0  2  0  0  0  0  0  0  0  0  0
    7.9123  -12.7337   27.3671 C   0  0  0  0  0  0  0  0  0  0  0  0
    8.9393  -14.5808   26.1185 C   0  0  2  0  0  0  0  0  0  0  0  0
    8.8833  -15.5802   25.1179 N   0  0  0  0  0  0  0  0  0  0  0  0
    9.4936  -14.8735   27.4343 C   0  0  0  0  0  0  0  0  0  0  0  0
    9.6886  -16.0826   28.0499 O   0  0  0  0  0  0  0  0  0  0  0  0
    9.8806  -13.8742   28.1846 O   0  0  0  0  0  0  0  0  0  0  0  0
  2  1  1  0
  2  3  2  0
  4  5  1  0
  4  2  1  0
  5  6  1  0
  6  8  1  0
  6  7  1  6
  8  9  2  0
 10 11  1  0
 10  8  1  0
 12 13  1  0
 11 12  1  6
 13 14  1  0
 14 15  1  0
 16 15  1  0
 17 18  2  0
 17 11  1  0
 19 20  1  0
 20 21  1  0
 21 23  1  0
 21 22  1  1
 23 25  1  0
 23 24  1  1
 24 17  1  0
 25 26  1  0
 27 25  2  0
M  END
$$$$
