QKI.pdb
     RDKit          3D

 27 26  0  0  1  0  0  0  0  0999 V2000
   12.3316  -15.3383   17.7008 N   0  0  0  0  0  0  0  0  0  0  0  0
   12.5529  -14.5884   18.8786 C   0  0  0  0  0  0  0  0  0  0  0  0
   13.5746  -13.8675   18.9661 O   0  0  0  0  0  0  0  0  0  0  0  0
   11.5892  -14.6530   20.0002 C   0  0  0  0  0  0  0  0  0  0  0  0
   10.4291  -13.7215   19.7147 C   0  0  0  0  0  0  0  0  0  0  0  0
    9.1554  -14.4650   19.4436 C   0  0  2  0  0  0  0  0  0  0  0  0
    8.2212  -13.6707   18.6709 N   0  0  0  0  0  0  0  0  0  0  0  0
    8.5508  -14.7912   20.7853 C   0  0  0  0  0  0  0  0  0  0  0  0
    7.9991  -13.8926   21.4729 O   0  0  0  0  0  0  0  0  0  0  0  0
    8.6037  -16.1143   21.2684 N   0  0  0  0  0  0  0  0  0  0  0  0
    8.0219  -16.5773   22.4851 C   0  0  1  0  0  0  0  0  0  0  0  0
    7.9554  -18.0775   22.4792 C   0  0  0  0  0  0  0  0  0  0  0  0
    7.3882  -18.4970   23.8225 C   0  0  0  0  0  0  0  0  0  0  0  0
    7.3112  -19.9784   24.0226 C   0  0  0  0  0  0  0  0  0  0  0  0
    6.5428  -20.1969   25.3399 C   0  0  0  0  0  0  0  0  0  0  0  0
    6.2624  -21.5835   25.5256 N   0  0  0  0  0  0  0  0  0  0  0  0
    8.7453  -16.0345   23.6912 C   0  0  0  0  0  0  0  0  0  0  0  0
    9.9873  -16.2143   23.7654 O   0  0  0  0  0  0  0  0  0  0  0  0
    6.2672  -11.6948   26.0345 C   0  0  0  0  0  0  0  0  0  0  0  0
    7.2418  -12.6970   25.4804 C   0  0  0  0  0  0  0  0  0  0  0  0
    7.5879  -13.7599   26.5025 C   0  0  2  0  0  0  0  0  0  0  0  0
    8.3339  -13.0538   27.6417 C   0  0  0  0  0  0  0  0  0  0  0  0
    8.4718  -14.8248   25.9476 C   0  0  2  0  0  0  0  0  0  0  0  0
    8.0527  -15.3498   24.7018 N   0  0  0  0  0  0  0  0  0  0  0  0
    8.8963  -15.7101   27.0248 C   0  0  0  0  0  0  0  0  0  0  0  0
    9.9289  -15.5686   27.9150 O   0  0  0  0  0  0  0  0  0  0  0  0
    8.2305  -16.8192   27.2198 O   0  0  0  0  0  0  0  0  0  0  0  0
  2  1  1  0
  2  3  2  0
  4  5  1  0
  4  2  1  0
  5  6  1  0
  6  8  1  0
  6  7  1  6
  8  9  2  0
 10 11  1  0
 10  8  1  0
 12 13  1  0
 11 12  1  6
 13 14  1  0
 14 15  1  0
 16 15  1  0
 17 18  2  0
 17 11  1  0
 19 20  1  0
 20 21  1  0
 21 23  1  0
 21 22  1  1
 23 25  1  0
 23 24  1  6
 24 17  1  0
 25 26  1  0
 27 25  2  0
M  END
$$$$
