QKI.pdb
     RDKit          3D

 27 26  0  0  1  0  0  0  0  0999 V2000
    9.5405  -13.8009   16.4799 N   0  0  0  0  0  0  0  0  0  0  0  0
    8.2338  -14.3260   16.3559 C   0  0  0  0  0  0  0  0  0  0  0  0
    7.8856  -14.8611   15.2772 O   0  0  0  0  0  0  0  0  0  0  0  0
    7.2831  -14.2448   17.4874 C   0  0  0  0  0  0  0  0  0  0  0  0
    7.9159  -13.4543   18.6142 C   0  0  0  0  0  0  0  0  0  0  0  0
    8.8858  -14.2751   19.4106 C   0  0  2  0  0  0  0  0  0  0  0  0
    9.2548  -15.4946   18.7198 N   0  0  0  0  0  0  0  0  0  0  0  0
    8.1993  -14.6182   20.7079 C   0  0  0  0  0  0  0  0  0  0  0  0
    7.5603  -13.7399   21.3443 O   0  0  0  0  0  0  0  0  0  0  0  0
    8.2739  -15.9343   21.2069 N   0  0  0  0  0  0  0  0  0  0  0  0
    7.6909  -16.3944   22.4242 C   0  0  1  0  0  0  0  0  0  0  0  0
    7.7822  -17.8915   22.4985 C   0  0  0  0  0  0  0  0  0  0  0  0
    7.1858  -18.3020   23.8319 C   0  0  0  0  0  0  0  0  0  0  0  0
    7.1860  -19.7785   24.0777 C   0  0  0  0  0  0  0  0  0  0  0  0
    6.5834  -19.9827   25.4809 C   0  0  0  0  0  0  0  0  0  0  0  0
    6.6140  -21.3641   25.8368 N   0  0  0  0  0  0  0  0  0  0  0  0
    8.3000  -15.7169   23.6253 C   0  0  0  0  0  0  0  0  0  0  0  0
    9.4601  -16.0569   23.9701 O   0  0  0  0  0  0  0  0  0  0  0  0
    6.9132  -10.6181   26.7164 C   0  0  0  0  0  0  0  0  0  0  0  0
    7.4145  -12.0174   26.9441 C   0  0  0  0  0  0  0  0  0  0  0  0
    6.9018  -12.9711   25.8849 C   0  0  2  0  0  0  0  0  0  0  0  0
    5.6753  -13.6755   26.4782 C   0  0  0  0  0  0  0  0  0  0  0  0
    7.9064  -14.0072   25.5097 C   0  0  2  0  0  0  0  0  0  0  0  0
    7.5925  -14.7365   24.3381 N   0  0  0  0  0  0  0  0  0  0  0  0
    8.3678  -14.6900   26.7118 C   0  0  0  0  0  0  0  0  0  0  0  0
    8.1834  -15.9911   27.1017 O   0  0  0  0  0  0  0  0  0  0  0  0
    9.0675  -14.0120   27.5848 O   0  0  0  0  0  0  0  0  0  0  0  0
  2  1  1  0
  2  3  2  0
  4  5  1  0
  4  2  1  0
  5  6  1  0
  6  8  1  0
  6  7  1  6
  8  9  2  0
 10 11  1  0
 10  8  1  0
 12 13  1  0
 11 12  1  1
 13 14  1  0
 14 15  1  0
 16 15  1  0
 17 18  2  0
 17 11  1  0
 19 20  1  0
 20 21  1  0
 21 23  1  0
 21 22  1  1
 23 25  1  0
 23 24  1  6
 24 17  1  0
 25 26  1  0
 27 25  2  0
M  END
$$$$
