QKI.pdb
     RDKit          3D

 27 26  0  0  1  0  0  0  0  0999 V2000
   10.2357  -12.3092   19.3705 N   0  0  0  0  0  0  0  0  0  0  0  0
    9.5334  -13.1555   18.4823 C   0  0  0  0  0  0  0  0  0  0  0  0
   10.1597  -14.0355   17.8462 O   0  0  0  0  0  0  0  0  0  0  0  0
    8.0719  -13.0054   18.3022 C   0  0  0  0  0  0  0  0  0  0  0  0
    7.3583  -13.6071   19.4955 C   0  0  0  0  0  0  0  0  0  0  0  0
    7.7482  -15.0358   19.7308 C   0  0  2  0  0  0  0  0  0  0  0  0
    7.1394  -15.9272   18.7636 N   0  0  0  0  0  0  0  0  0  0  0  0
    7.2709  -15.3922   21.1154 C   0  0  0  0  0  0  0  0  0  0  0  0
    6.2077  -14.8964   21.5720 O   0  0  0  0  0  0  0  0  0  0  0  0
    8.0228  -16.2897   21.9003 N   0  0  0  0  0  0  0  0  0  0  0  0
    7.6955  -16.7104   23.2229 C   0  0  1  0  0  0  0  0  0  0  0  0
    7.8386  -18.2012   23.3331 C   0  0  0  0  0  0  0  0  0  0  0  0
    7.4763  -18.5726   24.7589 C   0  0  0  0  0  0  0  0  0  0  0  0
    7.5118  -20.0425   25.0399 C   0  0  0  0  0  0  0  0  0  0  0  0
    7.3028  -20.1970   26.5584 C   0  0  0  0  0  0  0  0  0  0  0  0
    6.2493  -21.1226   26.8217 N   0  0  0  0  0  0  0  0  0  0  0  0
    8.5050  -15.9729   24.2591 C   0  0  0  0  0  0  0  0  0  0  0  0
    9.7500  -16.1465   24.2692 O   0  0  0  0  0  0  0  0  0  0  0  0
    5.8384  -11.5596   26.7837 C   0  0  0  0  0  0  0  0  0  0  0  0
    6.3553  -12.9602   26.6036 C   0  0  0  0  0  0  0  0  0  0  0  0
    7.8507  -12.9745   26.3632 C   0  0  2  0  0  0  0  0  0  0  0  0
    8.0929  -12.2532   25.0314 C   0  0  0  0  0  0  0  0  0  0  0  0
    8.4031  -14.3556   26.2598 C   0  0  2  0  0  0  0  0  0  0  0  0
    7.8869  -15.1188   25.1855 N   0  0  0  0  0  0  0  0  0  0  0  0
    8.5196  -14.9302   27.5942 C   0  0  0  0  0  0  0  0  0  0  0  0
    9.2174  -14.4750   28.6826 O   0  0  0  0  0  0  0  0  0  0  0  0
    7.8854  -16.0452   27.8508 O   0  0  0  0  0  0  0  0  0  0  0  0
  2  1  1  0
  2  3  2  0
  4  5  1  0
  4  2  1  0
  5  6  1  0
  6  8  1  0
  6  7  1  6
  8  9  2  0
 10 11  1  0
 10  8  1  0
 12 13  1  0
 11 12  1  6
 13 14  1  0
 14 15  1  0
 16 15  1  0
 17 18  2  0
 17 11  1  0
 19 20  1  0
 20 21  1  0
 21 23  1  0
 21 22  1  6
 23 25  1  0
 23 24  1  6
 24 17  1  0
 25 26  1  0
 27 25  2  0
M  END
$$$$
