QKI.pdb
     RDKit          3D

 27 26  0  0  1  0  0  0  0  0999 V2000
    9.3981  -12.6050   18.9352 N   0  0  0  0  0  0  0  0  0  0  0  0
    8.5005  -13.0144   17.9227 C   0  0  0  0  0  0  0  0  0  0  0  0
    8.8712  -12.9909   16.7255 O   0  0  0  0  0  0  0  0  0  0  0  0
    7.1344  -13.4660   18.2702 C   0  0  0  0  0  0  0  0  0  0  0  0
    7.0675  -13.7536   19.7561 C   0  0  0  0  0  0  0  0  0  0  0  0
    7.8716  -14.9600   20.1392 C   0  0  2  0  0  0  0  0  0  0  0  0
    7.5707  -16.0990   19.2948 N   0  0  0  0  0  0  0  0  0  0  0  0
    7.5142  -15.2825   21.5675 C   0  0  0  0  0  0  0  0  0  0  0  0
    7.0706  -14.3870   22.3330 O   0  0  0  0  0  0  0  0  0  0  0  0
    7.6771  -16.5989   22.0446 N   0  0  0  0  0  0  0  0  0  0  0  0
    7.4467  -17.0305   23.3839 C   0  0  1  0  0  0  0  0  0  0  0  0
    7.5856  -18.5234   23.4688 C   0  0  0  0  0  0  0  0  0  0  0  0
    7.3693  -18.9024   24.9220 C   0  0  0  0  0  0  0  0  0  0  0  0
    7.4508  -20.3722   25.1934 C   0  0  0  0  0  0  0  0  0  0  0  0
    7.1935  -20.5476   26.7022 C   0  0  0  0  0  0  0  0  0  0  0  0
    6.1792  -21.5270   26.9211 N   0  0  0  0  0  0  0  0  0  0  0  0
    8.3377  -16.3096   24.3633 C   0  0  0  0  0  0  0  0  0  0  0  0
    9.5760  -16.3107   24.1467 O   0  0  0  0  0  0  0  0  0  0  0  0
    5.8336  -11.9905   26.5516 C   0  0  0  0  0  0  0  0  0  0  0  0
    6.8374  -12.9450   25.9663 C   0  0  0  0  0  0  0  0  0  0  0  0
    7.4884  -13.7940   27.0385 C   0  0  2  0  0  0  0  0  0  0  0  0
    8.3237  -12.8462   27.9085 C   0  0  0  0  0  0  0  0  0  0  0  0
    8.3918  -14.8380   26.4754 C   0  0  2  0  0  0  0  0  0  0  0  0
    7.8009  -15.6575   25.4842 N   0  0  0  0  0  0  0  0  0  0  0  0
    9.1842  -15.4219   27.5503 C   0  0  0  0  0  0  0  0  0  0  0  0
   10.2683  -14.9084   28.2134 O   0  0  0  0  0  0  0  0  0  0  0  0
    8.8596  -16.6105   27.9898 O   0  0  0  0  0  0  0  0  0  0  0  0
  2  1  1  0
  2  3  2  0
  4  5  1  0
  4  2  1  0
  5  6  1  0
  6  8  1  0
  6  7  1  6
  8  9  2  0
 10 11  1  0
 10  8  1  0
 12 13  1  0
 11 12  1  6
 13 14  1  0
 14 15  1  0
 16 15  1  0
 17 18  2  0
 17 11  1  0
 19 20  1  0
 20 21  1  0
 21 23  1  0
 21 22  1  1
 23 25  1  0
 23 24  1  1
 24 17  1  0
 25 26  1  0
 27 25  2  0
M  END
$$$$
