QKI.pdb
     RDKit          3D

 27 26  0  0  1  0  0  0  0  0999 V2000
    8.7533  -12.6142   17.2680 N   0  0  0  0  0  0  0  0  0  0  0  0
    8.0756  -13.6398   16.5699 C   0  0  0  0  0  0  0  0  0  0  0  0
    8.2311  -13.7470   15.3307 O   0  0  0  0  0  0  0  0  0  0  0  0
    7.1889  -14.5790   17.2928 C   0  0  0  0  0  0  0  0  0  0  0  0
    7.2853  -14.3100   18.7806 C   0  0  0  0  0  0  0  0  0  0  0  0
    8.3544  -15.1298   19.4391 C   0  0  2  0  0  0  0  0  0  0  0  0
    8.4950  -16.4318   18.8180 N   0  0  0  0  0  0  0  0  0  0  0  0
    7.9438  -15.2998   20.8794 C   0  0  0  0  0  0  0  0  0  0  0  0
    7.3763  -14.3611   21.4971 O   0  0  0  0  0  0  0  0  0  0  0  0
    8.1969  -16.5218   21.5348 N   0  0  0  0  0  0  0  0  0  0  0  0
    7.8434  -16.8299   22.8814 C   0  0  1  0  0  0  0  0  0  0  0  0
    8.1173  -18.2797   23.1609 C   0  0  0  0  0  0  0  0  0  0  0  0
    7.1749  -19.0816   22.2828 C   0  0  0  0  0  0  0  0  0  0  0  0
    7.4566  -20.5516   22.2597 C   0  0  0  0  0  0  0  0  0  0  0  0
    6.4232  -21.1742   21.3016 C   0  0  0  0  0  0  0  0  0  0  0  0
    6.7351  -22.5453   21.0597 N   0  0  0  0  0  0  0  0  0  0  0  0
    8.5281  -15.9119   23.8618 C   0  0  0  0  0  0  0  0  0  0  0  0
    9.7681  -15.7419   23.7448 O   0  0  0  0  0  0  0  0  0  0  0  0
    7.0432  -10.8510   26.8654 C   0  0  0  0  0  0  0  0  0  0  0  0
    7.8287  -12.1290   26.9722 C   0  0  0  0  0  0  0  0  0  0  0  0
    7.2519  -13.2120   26.0841 C   0  0  2  0  0  0  0  0  0  0  0  0
    5.9945  -13.7391   26.7867 C   0  0  0  0  0  0  0  0  0  0  0  0
    8.1928  -14.3510   25.8818 C   0  0  2  0  0  0  0  0  0  0  0  0
    7.8029  -15.2669   24.8757 N   0  0  0  0  0  0  0  0  0  0  0  0
    8.6651  -14.8230   27.1773 C   0  0  0  0  0  0  0  0  0  0  0  0
    8.4805  -16.0384   27.7837 O   0  0  0  0  0  0  0  0  0  0  0  0
    9.3768  -14.0108   27.9157 O   0  0  0  0  0  0  0  0  0  0  0  0
  2  1  1  0
  2  3  2  0
  4  5  1  0
  4  2  1  0
  5  6  1  0
  6  8  1  0
  6  7  1  6
  8  9  2  0
 10 11  1  0
 10  8  1  0
 12 13  1  0
 11 12  1  1
 13 14  1  0
 14 15  1  0
 16 15  1  0
 17 18  2  0
 17 11  1  0
 19 20  1  0
 20 21  1  0
 21 23  1  0
 21 22  1  1
 23 25  1  0
 23 24  1  1
 24 17  1  0
 25 26  1  0
 27 25  2  0
M  END
$$$$
