HRQ.pdb
     RDKit          3D

 31 31  0  0  1  0  0  0  0  0999 V2000
   33.6942  -30.5334  -19.4202 N   0  0  0  0  0  0  0  0  0  0  0  0
   32.5005  -30.4861  -18.6270 C   0  0  1  0  0  0  0  0  0  0  0  0
   31.4154  -29.6532  -19.2674 C   0  0  0  0  0  0  0  0  0  0  0  0
   31.9124  -28.2424  -19.3510 C   0  0  0  0  0  0  0  0  0  0  0  0
   33.1001  -27.7138  -18.9036 C   0  0  0  0  0  0  0  0  0  0  0  0
   33.1619  -26.3938  -19.1712 N   0  0  0  0  0  0  0  0  0  0  0  0
   32.0072  -26.0933  -19.7894 C   0  0  0  0  0  0  0  0  0  0  0  0
   31.2439  -27.1915  -19.9061 N   0  0  0  0  0  0  0  0  0  0  0  0
   32.0319  -31.8415  -18.2781 C   0  0  0  0  0  0  0  0  0  0  0  0
   32.1035  -32.8214  -19.0557 O   0  0  0  0  0  0  0  0  0  0  0  0
   35.2990  -35.4147  -12.2034 N   0  0  0  0  0  0  0  0  0  0  0  0
   34.7750  -34.1493  -12.5520 C   0  0  0  0  0  0  0  0  0  0  0  0
   34.9656  -33.1224  -11.7752 N   0  0  0  0  0  0  0  0  0  0  0  0
   34.0302  -33.9293  -13.7358 N   0  0  0  0  0  0  0  0  0  0  0  0
   33.8639  -34.9524  -14.7519 C   0  0  0  0  0  0  0  0  0  0  0  0
   32.9981  -34.4271  -15.8703 C   0  0  0  0  0  0  0  0  0  0  0  0
   31.7203  -33.8057  -15.4232 C   0  0  0  0  0  0  0  0  0  0  0  0
   30.8603  -33.2961  -16.5795 C   0  0  2  0  0  0  0  0  0  0  0  0
   31.4690  -32.0504  -16.9924 N   0  0  0  0  0  0  0  0  0  0  0  0
   29.5333  -32.9999  -15.9438 C   0  0  0  0  0  0  0  0  0  0  0  0
   29.5640  -32.3294  -14.8819 O   0  0  0  0  0  0  0  0  0  0  0  0
   34.5658  -32.1939  -12.0201 N   0  0  0  0  0  0  0  0  0  0  0  0
   26.2861  -34.6637  -11.9127 C   0  0  0  0  0  0  0  0  0  0  0  0
   26.9440  -35.6102  -12.7199 O   0  0  0  0  0  0  0  0  0  0  0  0
   27.8749  -36.2940  -12.2273 C   0  0  0  0  0  0  0  0  0  0  0  0
   26.5482  -35.8016  -14.1058 C   0  0  0  0  0  0  0  0  0  0  0  0
   27.4329  -35.2269  -15.1552 C   0  0  1  0  0  0  0  0  0  0  0  0
   27.2185  -33.7964  -15.5383 N   0  0  0  0  0  0  0  0  0  0  0  0
   28.3210  -33.4336  -16.4819 C   0  0  0  0  0  0  0  0  0  0  0  0
   27.2300  -32.8086  -14.4510 O   0  0  0  0  0  0  0  0  0  0  0  0
   26.0904  -32.2961  -13.8528 O   0  0  0  0  0  0  0  0  0  0  0  0
  2  1  1  6
  2  9  1  0
  2  3  1  0
  3  4  1  0
  4  8  1  0
  4  5  2  0
  5  6  1  0
  7  6  1  0
  8  7  2  0
  9 10  2  0
 12 14  1  0
 12 11  1  0
 13 12  2  0
 15 16  1  0
 15 14  1  0
 16 17  1  0
 18 17  1  1
 19  9  1  0
 19 18  1  0
 20 28  1  0
 20 18  1  0
 21 20  2  0
 22 23  1  0
 23 24  2  0
 25 23  1  0
 25 26  1  0
 27 26  1  6
 27 29  1  0
 27 28  1  0
 29 30  1  0
 31 29  2  0
M  END
$$$$
