HRQ.pdb
     RDKit          3D

 31 31  0  0  1  0  0  0  0  0999 V2000
   25.3007  -22.5664  -19.0103 N   0  0  0  0  0  0  0  0  0  0  0  0
   24.9152  -21.3433  -18.3687 C   0  0  1  0  0  0  0  0  0  0  0  0
   24.1050  -20.4472  -19.2752 C   0  0  0  0  0  0  0  0  0  0  0  0
   24.9862  -20.0329  -20.4137 C   0  0  0  0  0  0  0  0  0  0  0  0
   24.9217  -20.3988  -21.7375 C   0  0  0  0  0  0  0  0  0  0  0  0
   25.9058  -19.8046  -22.4417 N   0  0  0  0  0  0  0  0  0  0  0  0
   26.5908  -19.0624  -21.5553 C   0  0  0  0  0  0  0  0  0  0  0  0
   26.0528  -19.1872  -20.3317 N   0  0  0  0  0  0  0  0  0  0  0  0
   24.2353  -21.6003  -17.0842 C   0  0  0  0  0  0  0  0  0  0  0  0
   23.4422  -22.5523  -16.8977 O   0  0  0  0  0  0  0  0  0  0  0  0
   24.7427  -20.1936  -10.6683 N   0  0  0  0  0  0  0  0  0  0  0  0
   25.9605  -20.7996  -10.2845 C   0  0  0  0  0  0  0  0  0  0  0  0
   26.0916  -21.3166   -9.0971 N   0  0  0  0  0  0  0  0  0  0  0  0
   27.0813  -20.8775  -11.1460 N   0  0  0  0  0  0  0  0  0  0  0  0
   27.0754  -20.3134  -12.4834 C   0  0  0  0  0  0  0  0  0  0  0  0
   26.0523  -21.0246  -13.3343 C   0  0  0  0  0  0  0  0  0  0  0  0
   24.8841  -20.1874  -13.7256 C   0  0  0  0  0  0  0  0  0  0  0  0
   23.9243  -20.8989  -14.6789 C   0  0  2  0  0  0  0  0  0  0  0  0
   24.4913  -20.7235  -15.9983 N   0  0  0  0  0  0  0  0  0  0  0  0
   22.6578  -20.0989  -14.5853 C   0  0  0  0  0  0  0  0  0  0  0  0
   22.7301  -18.9002  -14.9543 O   0  0  0  0  0  0  0  0  0  0  0  0
   27.0072  -21.7005   -8.7868 N   0  0  0  0  0  0  0  0  0  0  0  0
   18.1721  -19.5575  -17.6006 C   0  0  0  0  0  0  0  0  0  0  0  0
   17.4302  -19.2601  -16.4424 O   0  0  0  0  0  0  0  0  0  0  0  0
   16.3127  -18.6992  -16.5579 C   0  0  0  0  0  0  0  0  0  0  0  0
   17.9453  -19.6035  -15.1268 C   0  0  0  0  0  0  0  0  0  0  0  0
   19.2823  -20.2537  -15.0643 C   0  0  1  0  0  0  0  0  0  0  0  0
   20.2606  -19.7361  -14.0572 N   0  0  0  0  0  0  0  0  0  0  0  0
   21.4562  -20.6329  -14.1182 C   0  0  0  0  0  0  0  0  0  0  0  0
   19.8147  -19.6954  -12.6580 O   0  0  0  0  0  0  0  0  0  0  0  0
   20.2002  -20.6097  -11.6913 O   0  0  0  0  0  0  0  0  0  0  0  0
  2  1  1  6
  2  9  1  0
  2  3  1  0
  3  4  1  0
  4  8  1  0
  4  5  2  0
  5  6  1  0
  7  6  1  0
  8  7  2  0
  9 10  2  0
 12 14  1  0
 12 11  1  0
 13 12  2  0
 15 16  1  0
 15 14  1  0
 16 17  1  0
 18 17  1  1
 19  9  1  0
 19 18  1  0
 20 28  1  0
 20 18  1  0
 21 20  2  0
 22 23  1  0
 23 24  2  0
 25 23  1  0
 25 26  1  0
 27 26  1  6
 27 29  1  0
 27 28  1  0
 29 30  1  0
 31 29  2  0
M  END
$$$$
