HRQ.pdb
     RDKit          3D

 31 31  0  0  1  0  0  0  0  0999 V2000
   24.9674  -16.7533  -17.2669 N   0  0  0  0  0  0  0  0  0  0  0  0
   25.0170  -15.5261  -16.5268 C   0  0  1  0  0  0  0  0  0  0  0  0
   26.4245  -15.1494  -16.1289 C   0  0  0  0  0  0  0  0  0  0  0  0
   27.0026  -16.2952  -15.3561 C   0  0  0  0  0  0  0  0  0  0  0  0
   27.6045  -17.4398  -15.8229 C   0  0  0  0  0  0  0  0  0  0  0  0
   27.9879  -18.2258  -14.7968 N   0  0  0  0  0  0  0  0  0  0  0  0
   27.6247  -17.5709  -13.6811 C   0  0  0  0  0  0  0  0  0  0  0  0
   27.0311  -16.4090  -13.9975 N   0  0  0  0  0  0  0  0  0  0  0  0
   24.3287  -14.4360  -17.2451 C   0  0  0  0  0  0  0  0  0  0  0  0
   24.5159  -14.1775  -18.4568 O   0  0  0  0  0  0  0  0  0  0  0  0
   18.0046  -17.3054  -17.7741 N   0  0  0  0  0  0  0  0  0  0  0  0
   19.1802  -17.4759  -18.5399 C   0  0  0  0  0  0  0  0  0  0  0  0
   19.2404  -18.4000  -19.4545 N   0  0  0  0  0  0  0  0  0  0  0  0
   20.3326  -16.6728  -18.3618 N   0  0  0  0  0  0  0  0  0  0  0  0
   20.3906  -15.6011  -17.3847 C   0  0  0  0  0  0  0  0  0  0  0  0
   20.9298  -14.3485  -18.0303 C   0  0  0  0  0  0  0  0  0  0  0  0
   21.1428  -13.2117  -17.0917 C   0  0  0  0  0  0  0  0  0  0  0  0
   22.5585  -12.6384  -17.1499 C   0  0  2  0  0  0  0  0  0  0  0  0
   23.4034  -13.6343  -16.5277 N   0  0  0  0  0  0  0  0  0  0  0  0
   22.4991  -11.4299  -16.2618 C   0  0  0  0  0  0  0  0  0  0  0  0
   22.6610  -11.6356  -15.0331 O   0  0  0  0  0  0  0  0  0  0  0  0
   20.0974  -18.5155  -20.0326 N   0  0  0  0  0  0  0  0  0  0  0  0
   23.0586   -5.3365  -17.9057 C   0  0  0  0  0  0  0  0  0  0  0  0
   22.7663   -5.2701  -16.5308 O   0  0  0  0  0  0  0  0  0  0  0  0
   22.7007   -4.1475  -15.9720 C   0  0  0  0  0  0  0  0  0  0  0  0
   22.5352   -6.4844  -15.7653 C   0  0  0  0  0  0  0  0  0  0  0  0
   22.6249   -7.7791  -16.4933 C   0  0  1  0  0  0  0  0  0  0  0  0
   22.2044   -9.0167  -15.7649 N   0  0  0  0  0  0  0  0  0  0  0  0
   22.2776  -10.1410  -16.7488 C   0  0  0  0  0  0  0  0  0  0  0  0
   20.8515   -9.0232  -15.1924 O   0  0  0  0  0  0  0  0  0  0  0  0
   20.5269   -8.4899  -13.9557 O   0  0  0  0  0  0  0  0  0  0  0  0
  2  1  1  6
  2  9  1  0
  2  3  1  0
  3  4  1  0
  4  8  1  0
  4  5  2  0
  5  6  1  0
  7  6  1  0
  8  7  2  0
  9 10  2  0
 12 14  1  0
 12 11  1  0
 13 12  2  0
 15 16  1  0
 15 14  1  0
 16 17  1  0
 18 17  1  1
 19  9  1  0
 19 18  1  0
 20 28  1  0
 20 18  1  0
 21 20  2  0
 22 23  1  0
 23 24  2  0
 25 23  1  0
 25 26  1  0
 27 26  1  1
 27 29  1  0
 27 28  1  0
 29 30  1  0
 31 29  2  0
M  END
$$$$
