HRQ.pdb
     RDKit          3D

 31 31  0  0  1  0  0  0  0  0999 V2000
   15.1509  -13.6962  -16.1729 N   0  0  0  0  0  0  0  0  0  0  0  0
   16.3053  -13.3599  -15.3915 C   0  0  1  0  0  0  0  0  0  0  0  0
   17.5763  -13.9459  -15.9592 C   0  0  0  0  0  0  0  0  0  0  0  0
   17.4665  -15.4378  -15.8797 C   0  0  0  0  0  0  0  0  0  0  0  0
   16.8175  -16.2107  -14.9459 C   0  0  0  0  0  0  0  0  0  0  0  0
   16.9610  -17.5202  -15.2326 N   0  0  0  0  0  0  0  0  0  0  0  0
   17.7035  -17.5688  -16.3516 C   0  0  0  0  0  0  0  0  0  0  0  0
   18.0166  -16.3272  -16.7549 N   0  0  0  0  0  0  0  0  0  0  0  0
   16.4071  -11.9027  -15.1810 C   0  0  0  0  0  0  0  0  0  0  0  0
   16.4550  -11.0689  -16.1152 O   0  0  0  0  0  0  0  0  0  0  0  0
   14.2093   -7.4365   -7.6099 N   0  0  0  0  0  0  0  0  0  0  0  0
   14.9416   -6.5870   -8.4698 C   0  0  0  0  0  0  0  0  0  0  0  0
   15.1725   -5.3512   -8.1325 N   0  0  0  0  0  0  0  0  0  0  0  0
   15.4536   -7.0182   -9.7174 N   0  0  0  0  0  0  0  0  0  0  0  0
   15.3793   -8.4008  -10.1530 C   0  0  0  0  0  0  0  0  0  0  0  0
   15.9773   -8.5360  -11.5315 C   0  0  0  0  0  0  0  0  0  0  0  0
   15.9559   -9.9201  -12.0817 C   0  0  0  0  0  0  0  0  0  0  0  0
   16.4820  -10.0081  -13.5140 C   0  0  2  0  0  0  0  0  0  0  0  0
   16.4534  -11.4151  -13.8493 N   0  0  0  0  0  0  0  0  0  0  0  0
   17.9119   -9.5648  -13.4049 C   0  0  0  0  0  0  0  0  0  0  0  0
   18.6558  -10.2653  -12.6740 O   0  0  0  0  0  0  0  0  0  0  0  0
   15.6604   -4.7075   -8.7879 N   0  0  0  0  0  0  0  0  0  0  0  0
   21.2741   -7.1681  -17.9777 C   0  0  0  0  0  0  0  0  0  0  0  0
   22.1791   -7.0972  -16.9024 O   0  0  0  0  0  0  0  0  0  0  0  0
   23.3557   -6.7140  -17.1162 C   0  0  0  0  0  0  0  0  0  0  0  0
   21.7580   -7.4555  -15.5577 C   0  0  0  0  0  0  0  0  0  0  0  0
   20.3456   -7.8867  -15.3756 C   0  0  1  0  0  0  0  0  0  0  0  0
   19.8780   -8.1652  -13.9817 N   0  0  0  0  0  0  0  0  0  0  0  0
   18.4106   -8.4423  -14.0672 C   0  0  0  0  0  0  0  0  0  0  0  0
   20.0646   -7.0955  -12.9923 O   0  0  0  0  0  0  0  0  0  0  0  0
   21.1971   -6.9495  -12.2079 O   0  0  0  0  0  0  0  0  0  0  0  0
  2  1  1  6
  2  9  1  0
  2  3  1  0
  3  4  1  0
  4  8  1  0
  4  5  2  0
  5  6  1  0
  7  6  1  0
  8  7  2  0
  9 10  2  0
 12 14  1  0
 12 11  1  0
 13 12  2  0
 15 16  1  0
 15 14  1  0
 16 17  1  0
 18 17  1  1
 19  9  1  0
 19 18  1  0
 20 28  1  0
 20 18  1  0
 21 20  2  0
 22 23  1  0
 23 24  2  0
 25 23  1  0
 25 26  1  0
 27 26  1  6
 27 29  1  0
 27 28  1  0
 29 30  1  0
 31 29  2  0
M  END
$$$$
