HRQ.pdb
     RDKit          3D

 31 31  0  0  1  0  0  0  0  0999 V2000
   27.8811  -17.2909  -17.6195 N   0  0  0  0  0  0  0  0  0  0  0  0
   28.1913  -18.5973  -18.1229 C   0  0  1  0  0  0  0  0  0  0  0  0
   29.6786  -18.8283  -18.2491 C   0  0  0  0  0  0  0  0  0  0  0  0
   30.2434  -17.7204  -19.0844 C   0  0  0  0  0  0  0  0  0  0  0  0
   29.5955  -16.6558  -19.6651 C   0  0  0  0  0  0  0  0  0  0  0  0
   30.4680  -15.8818  -20.3413 N   0  0  0  0  0  0  0  0  0  0  0  0
   31.6689  -16.4638  -20.1839 C   0  0  0  0  0  0  0  0  0  0  0  0
   31.5534  -17.5698  -19.4317 N   0  0  0  0  0  0  0  0  0  0  0  0
   27.5274  -19.6510  -17.3311 C   0  0  0  0  0  0  0  0  0  0  0  0
   27.6205  -20.8739  -17.5879 O   0  0  0  0  0  0  0  0  0  0  0  0
   26.2495  -19.9783   -8.5234 N   0  0  0  0  0  0  0  0  0  0  0  0
   25.2035  -20.7005   -9.1414 C   0  0  0  0  0  0  0  0  0  0  0  0
   24.2690  -21.2497   -8.4208 N   0  0  0  0  0  0  0  0  0  0  0  0
   25.1129  -20.8658  -10.5446 N   0  0  0  0  0  0  0  0  0  0  0  0
   25.7675  -19.9672  -11.4778 C   0  0  0  0  0  0  0  0  0  0  0  0
   25.5461  -20.4470  -12.8910 C   0  0  0  0  0  0  0  0  0  0  0  0
   26.2286  -19.6321  -13.9346 C   0  0  0  0  0  0  0  0  0  0  0  0
   26.0707  -20.2020  -15.3440 C   0  0  2  0  0  0  0  0  0  0  0  0
   26.7395  -19.2620  -16.2169 N   0  0  0  0  0  0  0  0  0  0  0  0
   24.5934  -20.1352  -15.6007 C   0  0  0  0  0  0  0  0  0  0  0  0
   24.1039  -18.9854  -15.7290 O   0  0  0  0  0  0  0  0  0  0  0  0
   23.5098  -21.7998   -8.8713 N   0  0  0  0  0  0  0  0  0  0  0  0
   20.1100  -19.0753  -12.8701 C   0  0  0  0  0  0  0  0  0  0  0  0
   19.8878  -18.6873  -14.2043 O   0  0  0  0  0  0  0  0  0  0  0  0
   18.9181  -17.9351  -14.4702 C   0  0  0  0  0  0  0  0  0  0  0  0
   20.7730  -19.1440  -15.2636 C   0  0  0  0  0  0  0  0  0  0  0  0
   21.8791  -20.0631  -14.8815 C   0  0  1  0  0  0  0  0  0  0  0  0
   22.3170  -21.0800  -15.8880 N   0  0  0  0  0  0  0  0  0  0  0  0
   23.7880  -21.2709  -15.6953 C   0  0  0  0  0  0  0  0  0  0  0  0
   22.1000  -20.7503  -17.3031 O   0  0  0  0  0  0  0  0  0  0  0  0
   21.9221  -21.6920  -18.3034 O   0  0  0  0  0  0  0  0  0  0  0  0
  2  1  1  1
  2  9  1  0
  2  3  1  0
  3  4  1  0
  4  8  1  0
  4  5  2  0
  5  6  1  0
  7  6  1  0
  8  7  2  0
  9 10  2  0
 12 14  1  0
 12 11  1  0
 13 12  2  0
 15 16  1  0
 15 14  1  0
 16 17  1  0
 18 17  1  1
 19  9  1  0
 19 18  1  0
 20 28  1  0
 20 18  1  0
 21 20  2  0
 22 23  1  0
 23 24  2  0
 25 23  1  0
 25 26  1  0
 27 26  1  1
 27 29  1  0
 27 28  1  0
 29 30  1  0
 31 29  2  0
M  END
$$$$
