HRQ.pdb
     RDKit          3D

 31 31  0  0  1  0  0  0  0  0999 V2000
   20.4837  -12.1216  -22.3326 N   0  0  0  0  0  0  0  0  0  0  0  0
   19.9113  -12.4624  -21.0628 C   0  0  1  0  0  0  0  0  0  0  0  0
   18.9103  -11.4361  -20.5875 C   0  0  0  0  0  0  0  0  0  0  0  0
   19.6470  -10.1521  -20.3579 C   0  0  0  0  0  0  0  0  0  0  0  0
   20.0165   -9.5649  -19.1709 C   0  0  0  0  0  0  0  0  0  0  0  0
   20.6655   -8.4052  -19.3978 N   0  0  0  0  0  0  0  0  0  0  0  0
   20.7032   -8.2644  -20.7337 C   0  0  0  0  0  0  0  0  0  0  0  0
   20.0961   -9.3044  -21.3272 N   0  0  0  0  0  0  0  0  0  0  0  0
   19.3496  -13.8272  -21.0744 C   0  0  0  0  0  0  0  0  0  0  0  0
   18.8797  -14.3749  -22.0988 O   0  0  0  0  0  0  0  0  0  0  0  0
   23.6648  -20.5779  -19.2594 N   0  0  0  0  0  0  0  0  0  0  0  0
   23.2300  -19.7576  -20.3250 C   0  0  0  0  0  0  0  0  0  0  0  0
   23.9286  -19.6778  -21.4203 N   0  0  0  0  0  0  0  0  0  0  0  0
   22.0398  -18.9930  -20.2656 N   0  0  0  0  0  0  0  0  0  0  0  0
   21.1334  -19.0510  -19.1334 C   0  0  0  0  0  0  0  0  0  0  0  0
   19.9073  -18.2186  -19.4161 C   0  0  0  0  0  0  0  0  0  0  0  0
   20.1550  -16.7506  -19.4673 C   0  0  0  0  0  0  0  0  0  0  0  0
   18.8958  -15.9363  -19.7630 C   0  0  2  0  0  0  0  0  0  0  0  0
   19.3394  -14.5628  -19.8610 N   0  0  0  0  0  0  0  0  0  0  0  0
   18.0634  -16.0895  -18.5235 C   0  0  0  0  0  0  0  0  0  0  0  0
   18.4923  -15.5142  -17.4923 O   0  0  0  0  0  0  0  0  0  0  0  0
   23.6009  -19.0905  -22.2138 N   0  0  0  0  0  0  0  0  0  0  0  0
   11.8606  -16.9051  -18.4368 C   0  0  0  0  0  0  0  0  0  0  0  0
   12.1830  -16.9491  -17.0678 O   0  0  0  0  0  0  0  0  0  0  0  0
   11.2576  -17.0296  -16.2228 C   0  0  0  0  0  0  0  0  0  0  0  0
   13.5702  -16.9097  -16.6340 C   0  0  0  0  0  0  0  0  0  0  0  0
   14.6144  -16.8160  -17.6899 C   0  0  1  0  0  0  0  0  0  0  0  0
   16.0442  -16.7693  -17.2513 N   0  0  0  0  0  0  0  0  0  0  0  0
   16.8772  -16.8240  -18.4925 C   0  0  0  0  0  0  0  0  0  0  0  0
   16.5037  -17.8492  -16.3677 O   0  0  0  0  0  0  0  0  0  0  0  0
   16.2928  -17.8779  -14.9988 O   0  0  0  0  0  0  0  0  0  0  0  0
  2  1  1  6
  2  9  1  0
  2  3  1  0
  3  4  1  0
  4  8  1  0
  4  5  2  0
  5  6  1  0
  7  6  1  0
  8  7  2  0
  9 10  2  0
 12 14  1  0
 12 11  1  0
 13 12  2  0
 15 16  1  0
 15 14  1  0
 16 17  1  0
 18 17  1  1
 19  9  1  0
 19 18  1  0
 20 28  1  0
 20 18  1  0
 21 20  2  0
 22 23  1  0
 23 24  2  0
 25 23  1  0
 25 26  1  0
 27 26  1  6
 27 29  1  0
 27 28  1  0
 29 30  1  0
 31 29  2  0
M  END
$$$$
