HRQ.pdb
     RDKit          3D

 31 31  0  0  1  0  0  0  0  0999 V2000
   20.4709  -20.0190  -12.8574 N   0  0  0  0  0  0  0  0  0  0  0  0
   21.3125  -20.4420  -13.9386 C   0  0  1  0  0  0  0  0  0  0  0  0
   20.5600  -20.5601  -15.2429 C   0  0  0  0  0  0  0  0  0  0  0  0
   19.4684  -21.5679  -15.0504 C   0  0  0  0  0  0  0  0  0  0  0  0
   18.1586  -21.3678  -14.6834 C   0  0  0  0  0  0  0  0  0  0  0  0
   17.4999  -22.5423  -14.6189 N   0  0  0  0  0  0  0  0  0  0  0  0
   18.4010  -23.4836  -14.9471 C   0  0  0  0  0  0  0  0  0  0  0  0
   19.5894  -22.9168  -15.2096 N   0  0  0  0  0  0  0  0  0  0  0  0
   22.5071  -19.5836  -14.0585 C   0  0  0  0  0  0  0  0  0  0  0  0
   22.4836  -18.3389  -13.9162 O   0  0  0  0  0  0  0  0  0  0  0  0
   30.1111  -22.3215  -11.3152 N   0  0  0  0  0  0  0  0  0  0  0  0
   28.9369  -21.6642  -10.8833 C   0  0  0  0  0  0  0  0  0  0  0  0
   28.5658  -21.7325   -9.6375 N   0  0  0  0  0  0  0  0  0  0  0  0
   28.1152  -20.9124  -11.7575 N   0  0  0  0  0  0  0  0  0  0  0  0
   28.4644  -20.6818  -13.1474 C   0  0  0  0  0  0  0  0  0  0  0  0
   27.4176  -19.8137  -13.8008 C   0  0  0  0  0  0  0  0  0  0  0  0
   26.0329  -20.3588  -13.7343 C   0  0  0  0  0  0  0  0  0  0  0  0
   25.0015  -19.4725  -14.4320 C   0  0  2  0  0  0  0  0  0  0  0  0
   23.7524  -20.1978  -14.3509 N   0  0  0  0  0  0  0  0  0  0  0  0
   25.4536  -19.4445  -15.8630 C   0  0  0  0  0  0  0  0  0  0  0  0
   25.0620  -20.3932  -16.5874 O   0  0  0  0  0  0  0  0  0  0  0  0
   27.7024  -21.2492   -9.3167 N   0  0  0  0  0  0  0  0  0  0  0  0
   21.8340  -16.3945  -17.5849 C   0  0  0  0  0  0  0  0  0  0  0  0
   22.6256  -16.1067  -18.7122 O   0  0  0  0  0  0  0  0  0  0  0  0
   22.1487  -15.3947  -19.6301 C   0  0  0  0  0  0  0  0  0  0  0  0
   23.9823  -16.6198  -18.8125 C   0  0  0  0  0  0  0  0  0  0  0  0
   24.5216  -17.3607  -17.6402 C   0  0  1  0  0  0  0  0  0  0  0  0
   25.9228  -17.8780  -17.7294 N   0  0  0  0  0  0  0  0  0  0  0  0
   26.2631  -18.4336  -16.3829 C   0  0  0  0  0  0  0  0  0  0  0  0
   26.9684  -16.9072  -18.0793 O   0  0  0  0  0  0  0  0  0  0  0  0
   27.4831  -15.9671  -17.2015 O   0  0  0  0  0  0  0  0  0  0  0  0
  2  1  1  1
  2  9  1  0
  2  3  1  0
  3  4  1  0
  4  8  1  0
  4  5  2  0
  5  6  1  0
  7  6  1  0
  8  7  2  0
  9 10  2  0
 12 14  1  0
 12 11  1  0
 13 12  2  0
 15 16  1  0
 15 14  1  0
 16 17  1  0
 18 17  1  1
 19  9  1  0
 19 18  1  0
 20 28  1  0
 20 18  1  0
 21 20  2  0
 22 23  1  0
 23 24  2  0
 25 23  1  0
 25 26  1  0
 27 26  1  6
 27 29  1  0
 27 28  1  0
 29 30  1  0
 31 29  2  0
M  END
$$$$
