HRQ.pdb
     RDKit          3D

 31 31  0  0  1  0  0  0  0  0999 V2000
   27.0245  -19.1061  -18.6815 N   0  0  0  0  0  0  0  0  0  0  0  0
   26.3839  -18.4507  -17.5786 C   0  0  1  0  0  0  0  0  0  0  0  0
   25.4382  -17.3612  -18.0257 C   0  0  0  0  0  0  0  0  0  0  0  0
   26.2530  -16.2934  -18.6892 C   0  0  0  0  0  0  0  0  0  0  0  0
   26.6355  -16.1870  -20.0055 C   0  0  0  0  0  0  0  0  0  0  0  0
   27.3690  -15.0721  -20.1971 N   0  0  0  0  0  0  0  0  0  0  0  0
   27.4469  -14.4765  -18.9951 C   0  0  0  0  0  0  0  0  0  0  0  0
   26.7823  -15.1960  -18.0768 N   0  0  0  0  0  0  0  0  0  0  0  0
   25.7315  -19.4228  -16.6799 C   0  0  0  0  0  0  0  0  0  0  0  0
   25.1142  -20.4353  -17.0845 O   0  0  0  0  0  0  0  0  0  0  0  0
   23.0454  -19.6521   -9.7061 N   0  0  0  0  0  0  0  0  0  0  0  0
   23.8405  -20.6270   -9.0621 C   0  0  0  0  0  0  0  0  0  0  0  0
   23.3521  -21.3306   -8.0820 N   0  0  0  0  0  0  0  0  0  0  0  0
   25.1811  -20.8888   -9.4346 N   0  0  0  0  0  0  0  0  0  0  0  0
   25.8564  -20.1467  -10.4835 C   0  0  0  0  0  0  0  0  0  0  0  0
   25.1851  -20.4084  -11.8091 C   0  0  0  0  0  0  0  0  0  0  0  0
   25.7891  -19.6835  -12.9617 C   0  0  0  0  0  0  0  0  0  0  0  0
   25.1513  -20.0450  -14.3029 C   0  0  2  0  0  0  0  0  0  0  0  0
   25.8052  -19.2022  -15.2801 N   0  0  0  0  0  0  0  0  0  0  0  0
   23.7243  -19.6028  -14.1588 C   0  0  0  0  0  0  0  0  0  0  0  0
   23.5429  -18.3835  -13.9165 O   0  0  0  0  0  0  0  0  0  0  0  0
   23.9362  -22.0463   -7.6038 N   0  0  0  0  0  0  0  0  0  0  0  0
   18.9844  -21.2099  -17.6382 C   0  0  0  0  0  0  0  0  0  0  0  0
   18.3270  -20.4979  -16.6179 O   0  0  0  0  0  0  0  0  0  0  0  0
   17.0942  -20.2815  -16.7183 C   0  0  0  0  0  0  0  0  0  0  0  0
   19.0620  -20.0237  -15.4565 C   0  0  0  0  0  0  0  0  0  0  0  0
   20.5045  -20.3782  -15.3686 C   0  0  1  0  0  0  0  0  0  0  0  0
   21.2624  -19.9138  -14.1649 N   0  0  0  0  0  0  0  0  0  0  0  0
   22.6433  -20.4767  -14.2821 C   0  0  0  0  0  0  0  0  0  0  0  0
   20.7362  -20.3143  -12.8531 O   0  0  0  0  0  0  0  0  0  0  0  0
   19.8306  -19.5681  -12.1168 O   0  0  0  0  0  0  0  0  0  0  0  0
  2  1  1  6
  2  9  1  0
  2  3  1  0
  3  4  1  0
  4  8  1  0
  4  5  2  0
  5  6  1  0
  7  6  1  0
  8  7  2  0
  9 10  2  0
 12 14  1  0
 12 11  1  0
 13 12  2  0
 15 16  1  0
 15 14  1  0
 16 17  1  0
 18 17  1  1
 19  9  1  0
 19 18  1  0
 20 28  1  0
 20 18  1  0
 21 20  2  0
 22 23  1  0
 23 24  2  0
 25 23  1  0
 25 26  1  0
 27 26  1  6
 27 29  1  0
 27 28  1  0
 29 30  1  0
 31 29  2  0
M  END
$$$$
