HRQ.pdb
     RDKit          3D

 31 31  0  0  1  0  0  0  0  0999 V2000
   27.6488  -21.3653  -17.8744 N   0  0  0  0  0  0  0  0  0  0  0  0
   27.2488  -20.4234  -16.8699 C   0  0  1  0  0  0  0  0  0  0  0  0
   26.7516  -19.1258  -17.4617 C   0  0  0  0  0  0  0  0  0  0  0  0
   27.9005  -18.4781  -18.1721 C   0  0  0  0  0  0  0  0  0  0  0  0
   29.0150  -17.8704  -17.6436 C   0  0  0  0  0  0  0  0  0  0  0  0
   29.8137  -17.4086  -18.6266 N   0  0  0  0  0  0  0  0  0  0  0  0
   29.1973  -17.7281  -19.7770 C   0  0  0  0  0  0  0  0  0  0  0  0
   28.0463  -18.3711  -19.5237 N   0  0  0  0  0  0  0  0  0  0  0  0
   26.2776  -21.0176  -15.9308 C   0  0  0  0  0  0  0  0  0  0  0  0
   25.3286  -21.7536  -16.2883 O   0  0  0  0  0  0  0  0  0  0  0  0
   22.7340  -20.0461   -9.3300 N   0  0  0  0  0  0  0  0  0  0  0  0
   23.5201  -20.8410   -8.4653 C   0  0  0  0  0  0  0  0  0  0  0  0
   22.9814  -21.4140   -7.4282 N   0  0  0  0  0  0  0  0  0  0  0  0
   24.9046  -21.0550   -8.6701 N   0  0  0  0  0  0  0  0  0  0  0  0
   25.6433  -20.4035   -9.7363 C   0  0  0  0  0  0  0  0  0  0  0  0
   25.0902  -20.8265  -11.0748 C   0  0  0  0  0  0  0  0  0  0  0  0
   26.0460  -20.6915  -12.2093 C   0  0  0  0  0  0  0  0  0  0  0  0
   25.4690  -21.1635  -13.5436 C   0  0  2  0  0  0  0  0  0  0  0  0
   26.4233  -20.7429  -14.5463 N   0  0  0  0  0  0  0  0  0  0  0  0
   24.2124  -20.3583  -13.7025 C   0  0  0  0  0  0  0  0  0  0  0  0
   24.3435  -19.1098  -13.6545 O   0  0  0  0  0  0  0  0  0  0  0  0
   23.5338  -22.0731   -6.8429 N   0  0  0  0  0  0  0  0  0  0  0  0
   19.5973  -21.2294  -17.6003 C   0  0  0  0  0  0  0  0  0  0  0  0
   19.0619  -20.2169  -16.7828 O   0  0  0  0  0  0  0  0  0  0  0  0
   17.9632  -19.6949  -17.0944 C   0  0  0  0  0  0  0  0  0  0  0  0
   19.7663  -19.7834  -15.5870 C   0  0  0  0  0  0  0  0  0  0  0  0
   21.0721  -20.4320  -15.2897 C   0  0  1  0  0  0  0  0  0  0  0  0
   21.7736  -20.0363  -14.0286 N   0  0  0  0  0  0  0  0  0  0  0  0
   22.9582  -20.9397  -13.8933 C   0  0  0  0  0  0  0  0  0  0  0  0
   21.0037  -20.1342  -12.7813 O   0  0  0  0  0  0  0  0  0  0  0  0
   20.2007  -19.1223  -12.2807 O   0  0  0  0  0  0  0  0  0  0  0  0
  2  1  1  6
  2  9  1  0
  2  3  1  0
  3  4  1  0
  4  8  1  0
  4  5  2  0
  5  6  1  0
  7  6  1  0
  8  7  2  0
  9 10  2  0
 12 14  1  0
 12 11  1  0
 13 12  2  0
 15 16  1  0
 15 14  1  0
 16 17  1  0
 18 17  1  1
 19  9  1  0
 19 18  1  0
 20 28  1  0
 20 18  1  0
 21 20  2  0
 22 23  1  0
 23 24  2  0
 25 23  1  0
 25 26  1  0
 27 26  1  6
 27 29  1  0
 27 28  1  0
 29 30  1  0
 31 29  2  0
M  END
$$$$
