HRQ.pdb
     RDKit          3D

 31 31  0  0  1  0  0  0  0  0999 V2000
   12.4706  -22.9489   -5.8785 N   0  0  0  0  0  0  0  0  0  0  0  0
   13.7359  -22.9353   -5.2040 C   0  0  1  0  0  0  0  0  0  0  0  0
   13.7068  -22.1085   -3.9404 C   0  0  0  0  0  0  0  0  0  0  0  0
   13.2805  -20.7213   -4.3123 C   0  0  0  0  0  0  0  0  0  0  0  0
   12.0935  -20.0793   -4.0492 C   0  0  0  0  0  0  0  0  0  0  0  0
   12.1059  -18.8321   -4.5609 N   0  0  0  0  0  0  0  0  0  0  0  0
   13.3064  -18.6913   -5.1478 C   0  0  0  0  0  0  0  0  0  0  0  0
   14.0258  -19.8162   -5.0086 N   0  0  0  0  0  0  0  0  0  0  0  0
   14.2330  -24.3042   -4.9646 C   0  0  0  0  0  0  0  0  0  0  0  0
   13.5343  -25.2190   -4.4695 O   0  0  0  0  0  0  0  0  0  0  0  0
   19.5017  -26.2453  -10.9123 N   0  0  0  0  0  0  0  0  0  0  0  0
   18.5695  -25.2647  -10.5038 C   0  0  0  0  0  0  0  0  0  0  0  0
   18.4204  -24.1716  -11.1946 N   0  0  0  0  0  0  0  0  0  0  0  0
   17.7640  -25.4089   -9.3484 N   0  0  0  0  0  0  0  0  0  0  0  0
   17.5729  -26.6871   -8.6878 C   0  0  0  0  0  0  0  0  0  0  0  0
   16.5904  -26.5348   -7.5529 C   0  0  0  0  0  0  0  0  0  0  0  0
   17.1879  -26.0445   -6.2795 C   0  0  0  0  0  0  0  0  0  0  0  0
   16.1700  -25.9132   -5.1469 C   0  0  2  0  0  0  0  0  0  0  0  0
   15.5753  -24.6050   -5.3131 N   0  0  0  0  0  0  0  0  0  0  0  0
   17.0085  -25.9097   -3.9020 C   0  0  0  0  0  0  0  0  0  0  0  0
   17.8517  -24.9837   -3.8034 O   0  0  0  0  0  0  0  0  0  0  0  0
   17.7206  -23.4574  -10.9080 N   0  0  0  0  0  0  0  0  0  0  0  0
   16.2210  -28.5133    2.3429 C   0  0  0  0  0  0  0  0  0  0  0  0
   16.5092  -27.1836    1.9836 O   0  0  0  0  0  0  0  0  0  0  0  0
   16.0007  -26.2460    2.6462 C   0  0  0  0  0  0  0  0  0  0  0  0
   17.3907  -26.8956    0.8637 C   0  0  0  0  0  0  0  0  0  0  0  0
   16.7911  -26.9036   -0.4981 C   0  0  1  0  0  0  0  0  0  0  0  0
   17.7109  -26.7186   -1.6637 N   0  0  0  0  0  0  0  0  0  0  0  0
   16.8784  -26.8694   -2.8973 C   0  0  0  0  0  0  0  0  0  0  0  0
   18.8361  -27.6563   -1.7775 O   0  0  0  0  0  0  0  0  0  0  0  0
   20.0470  -27.5024   -1.1224 O   0  0  0  0  0  0  0  0  0  0  0  0
  2  1  1  1
  2  9  1  0
  2  3  1  0
  3  4  1  0
  4  8  1  0
  4  5  2  0
  5  6  1  0
  7  6  1  0
  8  7  2  0
  9 10  2  0
 12 14  1  0
 12 11  1  0
 13 12  2  0
 15 16  1  0
 15 14  1  0
 16 17  1  0
 18 17  1  6
 19  9  1  0
 19 18  1  0
 20 28  1  0
 20 18  1  0
 21 20  2  0
 22 23  1  0
 23 24  2  0
 25 23  1  0
 25 26  1  0
 27 26  1  1
 27 29  1  0
 27 28  1  0
 29 30  1  0
 31 29  2  0
M  END
$$$$
