HRQ.pdb
     RDKit          3D

 31 31  0  0  1  0  0  0  0  0999 V2000
   27.1561  -17.6390  -20.0500 N   0  0  0  0  0  0  0  0  0  0  0  0
   25.8715  -17.2523  -19.5435 C   0  0  1  0  0  0  0  0  0  0  0  0
   25.1396  -16.3199  -20.4796 C   0  0  0  0  0  0  0  0  0  0  0  0
   26.0080  -15.1192  -20.6991 C   0  0  0  0  0  0  0  0  0  0  0  0
   26.5624  -14.6522  -21.8675 C   0  0  0  0  0  0  0  0  0  0  0  0
   27.2850  -13.5377  -21.6367 N   0  0  0  0  0  0  0  0  0  0  0  0
   27.1834  -13.3046  -20.3172 C   0  0  0  0  0  0  0  0  0  0  0  0
   26.4199  -14.2445  -19.7375 N   0  0  0  0  0  0  0  0  0  0  0  0
   25.0595  -18.4298  -19.1799 C   0  0  0  0  0  0  0  0  0  0  0  0
   25.2397  -19.5721  -19.6622 O   0  0  0  0  0  0  0  0  0  0  0  0
   20.2100  -19.6866  -12.1587 N   0  0  0  0  0  0  0  0  0  0  0  0
   20.3641  -20.9791  -12.7091 C   0  0  0  0  0  0  0  0  0  0  0  0
   19.5398  -21.9334  -12.3865 N   0  0  0  0  0  0  0  0  0  0  0  0
   21.3980  -21.3046  -13.6200 N   0  0  0  0  0  0  0  0  0  0  0  0
   22.3277  -20.3126  -14.1285 C   0  0  0  0  0  0  0  0  0  0  0  0
   22.2015  -20.2145  -15.6287 C   0  0  0  0  0  0  0  0  0  0  0  0
   23.1345  -19.2434  -16.2654 C   0  0  0  0  0  0  0  0  0  0  0  0
   23.1587  -19.3413  -17.7906 C   0  0  2  0  0  0  0  0  0  0  0  0
   24.0165  -18.2633  -18.2323 N   0  0  0  0  0  0  0  0  0  0  0  0
   21.7469  -19.0351  -18.1979 C   0  0  0  0  0  0  0  0  0  0  0  0
   21.3439  -17.8676  -17.9684 O   0  0  0  0  0  0  0  0  0  0  0  0
   19.7244  -22.9131  -12.6831 N   0  0  0  0  0  0  0  0  0  0  0  0
   18.7159  -19.6728  -14.9705 C   0  0  0  0  0  0  0  0  0  0  0  0
   17.5872  -19.8259  -15.7969 O   0  0  0  0  0  0  0  0  0  0  0  0
   16.4985  -20.1873  -15.2861 C   0  0  0  0  0  0  0  0  0  0  0  0
   17.6755  -19.5625  -17.2241 C   0  0  0  0  0  0  0  0  0  0  0  0
   18.9673  -19.0381  -17.7440 C   0  0  2  0  0  0  0  0  0  0  0  0
   19.4798  -19.6040  -19.0309 N   0  0  0  0  0  0  0  0  0  0  0  0
   20.9097  -19.9764  -18.7983 C   0  0  0  0  0  0  0  0  0  0  0  0
   19.4424  -18.7228  -20.2057 O   0  0  0  0  0  0  0  0  0  0  0  0
   18.3335  -18.5570  -21.0195 O   0  0  0  0  0  0  0  0  0  0  0  0
  2  1  1  6
  2  9  1  0
  2  3  1  0
  3  4  1  0
  4  8  1  0
  4  5  2  0
  5  6  1  0
  7  6  1  0
  8  7  2  0
  9 10  2  0
 12 14  1  0
 12 11  1  0
 13 12  2  0
 15 16  1  0
 15 14  1  0
 16 17  1  0
 18 17  1  1
 19  9  1  0
 19 18  1  0
 20 28  1  0
 20 18  1  0
 21 20  2  0
 22 23  1  0
 23 24  2  0
 25 23  1  0
 25 26  1  0
 27 26  1  1
 27 29  1  0
 27 28  1  0
 29 30  1  0
 31 29  2  0
M  END
$$$$
