HRQ.pdb
     RDKit          3D

 31 31  0  0  1  0  0  0  0  0999 V2000
   19.6810  -18.1989  -16.0034 N   0  0  0  0  0  0  0  0  0  0  0  0
   20.8115  -18.9656  -16.4399 C   0  0  1  0  0  0  0  0  0  0  0  0
   20.6179  -19.5422  -17.8224 C   0  0  0  0  0  0  0  0  0  0  0  0
   20.4031  -18.3999  -18.7674 C   0  0  0  0  0  0  0  0  0  0  0  0
   21.2492  -17.8993  -19.7287 C   0  0  0  0  0  0  0  0  0  0  0  0
   20.6778  -16.8583  -20.3670 N   0  0  0  0  0  0  0  0  0  0  0  0
   19.4676  -16.7053  -19.8033 C   0  0  0  0  0  0  0  0  0  0  0  0
   19.2851  -17.6227  -18.8402 N   0  0  0  0  0  0  0  0  0  0  0  0
   22.0629  -18.1913  -16.3276 C   0  0  0  0  0  0  0  0  0  0  0  0
   22.1176  -16.9436  -16.4285 O   0  0  0  0  0  0  0  0  0  0  0  0
   27.7631  -20.5661  -10.6910 N   0  0  0  0  0  0  0  0  0  0  0  0
   26.9073  -21.0470  -11.7077 C   0  0  0  0  0  0  0  0  0  0  0  0
   26.4121  -22.2486  -11.6360 N   0  0  0  0  0  0  0  0  0  0  0  0
   26.5479  -20.2708  -12.8360 N   0  0  0  0  0  0  0  0  0  0  0  0
   27.1485  -18.9792  -13.1150 C   0  0  0  0  0  0  0  0  0  0  0  0
   26.5324  -18.3861  -14.3580 C   0  0  0  0  0  0  0  0  0  0  0  0
   25.1889  -18.9299  -14.7019 C   0  0  0  0  0  0  0  0  0  0  0  0
   24.5524  -18.2451  -15.9111 C   0  0  2  0  0  0  0  0  0  0  0  0
   23.2725  -18.8948  -16.0923 N   0  0  0  0  0  0  0  0  0  0  0  0
   25.4507  -18.6163  -17.0548 C   0  0  0  0  0  0  0  0  0  0  0  0
   25.2088  -19.7135  -17.6169 O   0  0  0  0  0  0  0  0  0  0  0  0
   25.8088  -22.6173  -12.3990 N   0  0  0  0  0  0  0  0  0  0  0  0
   23.0359  -18.7105  -20.9981 C   0  0  0  0  0  0  0  0  0  0  0  0
   24.1601  -18.3529  -21.7652 O   0  0  0  0  0  0  0  0  0  0  0  0
   24.0722  -18.3530  -23.0178 C   0  0  0  0  0  0  0  0  0  0  0  0
   25.4077  -17.9801  -21.1181 C   0  0  0  0  0  0  0  0  0  0  0  0
   25.4743  -18.1070  -19.6370 C   0  0  1  0  0  0  0  0  0  0  0  0
   26.7397  -17.6846  -18.9594 N   0  0  0  0  0  0  0  0  0  0  0  0
   26.5014  -17.8064  -17.4877 C   0  0  0  0  0  0  0  0  0  0  0  0
   27.2053  -16.3150  -19.2156 O   0  0  0  0  0  0  0  0  0  0  0  0
   26.7760  -15.2022  -18.5109 O   0  0  0  0  0  0  0  0  0  0  0  0
  2  1  1  6
  2  9  1  0
  2  3  1  0
  3  4  1  0
  4  8  1  0
  4  5  2  0
  5  6  1  0
  7  6  1  0
  8  7  2  0
  9 10  2  0
 12 14  1  0
 12 11  1  0
 13 12  2  0
 15 16  1  0
 15 14  1  0
 16 17  1  0
 18 17  1  1
 19  9  1  0
 19 18  1  0
 20 28  1  0
 20 18  1  0
 21 20  2  0
 22 23  1  0
 23 24  2  0
 25 23  1  0
 25 26  1  0
 27 26  1  6
 27 29  1  0
 27 28  1  0
 29 30  1  0
 31 29  2  0
M  END
$$$$
