HRQ.pdb
     RDKit          3D

 31 31  0  0  1  0  0  0  0  0999 V2000
   25.3758  -17.1512  -18.8906 N   0  0  0  0  0  0  0  0  0  0  0  0
   24.6257  -17.0603  -17.6718 C   0  0  1  0  0  0  0  0  0  0  0  0
   23.2157  -16.5685  -17.8980 C   0  0  0  0  0  0  0  0  0  0  0  0
   23.2964  -15.1417  -18.3474 C   0  0  0  0  0  0  0  0  0  0  0  0
   23.4408  -14.0019  -17.5922 C   0  0  0  0  0  0  0  0  0  0  0  0
   23.4676  -12.9101  -18.3827 N   0  0  0  0  0  0  0  0  0  0  0  0
   23.3392  -13.3674  -19.6397 C   0  0  0  0  0  0  0  0  0  0  0  0
   23.2351  -14.7059  -19.6381 N   0  0  0  0  0  0  0  0  0  0  0  0
   24.6608  -18.3310  -16.9220 C   0  0  0  0  0  0  0  0  0  0  0  0
   24.7271  -19.4568  -17.4682 O   0  0  0  0  0  0  0  0  0  0  0  0
   29.4777  -20.8994  -11.9477 N   0  0  0  0  0  0  0  0  0  0  0  0
   28.6245  -21.3293  -10.9062 C   0  0  0  0  0  0  0  0  0  0  0  0
   28.9678  -22.3281  -10.1455 N   0  0  0  0  0  0  0  0  0  0  0  0
   27.3777  -20.7154  -10.6359 N   0  0  0  0  0  0  0  0  0  0  0  0
   26.9003  -19.5634  -11.3788 C   0  0  0  0  0  0  0  0  0  0  0  0
   26.0429  -20.0186  -12.5337 C   0  0  0  0  0  0  0  0  0  0  0  0
   25.6521  -18.9350  -13.4783 C   0  0  0  0  0  0  0  0  0  0  0  0
   24.8162  -19.4342  -14.6565 C   0  0  2  0  0  0  0  0  0  0  0  0
   24.6174  -18.2793  -15.5046 N   0  0  0  0  0  0  0  0  0  0  0  0
   23.5024  -19.8125  -14.0368 C   0  0  0  0  0  0  0  0  0  0  0  0
   22.8194  -18.8695  -13.5652 O   0  0  0  0  0  0  0  0  0  0  0  0
   28.3534  -22.6310   -9.3627 N   0  0  0  0  0  0  0  0  0  0  0  0
   20.9754  -25.6024  -13.9826 C   0  0  0  0  0  0  0  0  0  0  0  0
   19.8981  -24.6973  -13.9634 O   0  0  0  0  0  0  0  0  0  0  0  0
   18.7372  -25.1219  -14.1845 C   0  0  0  0  0  0  0  0  0  0  0  0
   20.1223  -23.2881  -13.6841 C   0  0  0  0  0  0  0  0  0  0  0  0
   21.5112  -22.8691  -13.3531 C   0  0  2  0  0  0  0  0  0  0  0  0
   21.7821  -21.4035  -13.2205 N   0  0  0  0  0  0  0  0  0  0  0  0
   23.0439  -21.1290  -13.9756 C   0  0  0  0  0  0  0  0  0  0  0  0
   21.9644  -20.8821  -11.8592 O   0  0  0  0  0  0  0  0  0  0  0  0
   20.9425  -20.3622  -11.0815 O   0  0  0  0  0  0  0  0  0  0  0  0
  2  1  1  6
  2  9  1  0
  2  3  1  0
  3  4  1  0
  4  8  1  0
  4  5  2  0
  5  6  1  0
  7  6  1  0
  8  7  2  0
  9 10  2  0
 12 14  1  0
 12 11  1  0
 13 12  2  0
 15 16  1  0
 15 14  1  0
 16 17  1  0
 18 17  1  1
 19  9  1  0
 19 18  1  0
 20 28  1  0
 20 18  1  0
 21 20  2  0
 22 23  1  0
 23 24  2  0
 25 23  1  0
 25 26  1  0
 27 26  1  6
 27 29  1  0
 27 28  1  0
 29 30  1  0
 31 29  2  0
M  END
$$$$
