LLW.pdb
     RDKit          3D

 31 32  0  0  1  0  0  0  0  0999 V2000
   10.1867  -20.1488   17.0617 C   0  0  0  0  0  0  0  0  0  0  0  0
   11.1150  -20.0776   18.2448 C   0  0  1  0  0  0  0  0  0  0  0  0
   12.4737  -20.6248   17.8144 C   0  0  0  0  0  0  0  0  0  0  0  0
   11.2385  -18.7088   18.8336 C   0  0  0  0  0  0  0  0  0  0  0  0
   10.5797  -18.5114   20.1501 C   0  0  2  0  0  0  0  0  0  0  0  0
    9.2044  -18.9541   20.1751 N   0  0  0  0  0  0  0  0  0  0  0  0
   10.6938  -17.1709   20.7459 C   0  0  0  0  0  0  0  0  0  0  0  0
   11.8086  -16.5293   20.7272 O   0  0  0  0  0  0  0  0  0  0  0  0
    6.8270  -12.8577   21.0486 C   0  0  0  0  0  0  0  0  0  0  0  0
    8.3250  -13.2328   21.1476 C   0  0  2  0  0  0  0  0  0  0  0  0
    8.8485  -13.1463   19.7492 C   0  0  0  0  0  0  0  0  0  0  0  0
    8.3764  -14.5802   21.7580 C   0  0  0  0  0  0  0  0  0  0  0  0
    9.7159  -15.2159   21.9263 C   0  0  2  0  0  0  0  0  0  0  0  0
    9.5683  -16.5677   21.3535 N   0  0  0  0  0  0  0  0  0  0  0  0
   10.0605  -15.3277   23.3641 C   0  0  0  0  0  0  0  0  0  0  0  0
   10.6082  -14.3277   23.9442 O   0  0  0  0  0  0  0  0  0  0  0  0
    9.8419  -16.4476   24.1939 N   0  0  0  0  0  0  0  0  0  0  0  0
   10.2185  -16.4277   25.5913 C   0  0  1  0  0  0  0  0  0  0  0  0
    9.0538  -16.4590   26.5116 C   0  0  0  0  0  0  0  0  0  0  0  0
    7.8797  -15.6694   26.1132 C   0  0  0  0  0  0  0  0  0  0  0  0
    6.7822  -16.2705   25.4746 C   0  0  0  0  0  0  0  0  0  0  0  0
    5.8247  -15.3536   25.2492 N   0  0  0  0  0  0  0  0  0  0  0  0
    6.2419  -14.1637   25.7124 C   0  0  0  0  0  0  0  0  0  0  0  0
    5.6464  -12.9263   25.7152 C   0  0  0  0  0  0  0  0  0  0  0  0
    6.3571  -11.8852   26.2659 C   0  0  0  0  0  0  0  0  0  0  0  0
    7.6055  -12.0575   26.7924 C   0  0  0  0  0  0  0  0  0  0  0  0
    8.2078  -13.2943   26.7931 C   0  0  0  0  0  0  0  0  0  0  0  0
    7.5016  -14.3615   26.2403 C   0  0  0  0  0  0  0  0  0  0  0  0
   11.1768  -17.4830   25.8852 C   0  0  0  0  0  0  0  0  0  0  0  0
   11.8797  -17.5987   27.0791 O   0  0  0  0  0  0  0  0  0  0  0  0
   11.4170  -18.3662   25.0259 O   0  0  0  0  0  0  0  0  0  0  0  0
  2  1  1  6
  3  2  1  0
  4  2  1  0
  5  6  1  6
  5  4  1  0
  7  5  1  0
  8  7  2  0
 10  9  1  6
 10 12  1  0
 11 10  1  0
 13 12  1  1
 13 15  1  0
 13 14  1  0
 14  7  1  0
 15 17  1  0
 16 15  2  0
 17 18  1  0
 18 19  1  1
 18 29  1  0
 19 20  1  0
 20 21  2  0
 22 21  1  0
 23 22  1  0
 24 23  2  0
 25 24  1  0
 26 27  1  0
 26 25  2  0
 27 28  2  0
 28 23  1  0
 28 20  1  0
 29 31  2  0
 29 30  1  0
M  END
$$$$
