LLW.pdb
     RDKit          3D

 31 32  0  0  1  0  0  0  0  0999 V2000
    8.3297  -19.8859   17.6676 C   0  0  0  0  0  0  0  0  0  0  0  0
    9.7659  -20.0716   18.0793 C   0  0  1  0  0  0  0  0  0  0  0  0
   10.5636  -20.4819   16.8439 C   0  0  0  0  0  0  0  0  0  0  0  0
   10.3636  -18.8722   18.7425 C   0  0  0  0  0  0  0  0  0  0  0  0
    9.7918  -18.5154   20.0660 C   0  0  2  0  0  0  0  0  0  0  0  0
    8.3709  -18.7602   20.1616 N   0  0  0  0  0  0  0  0  0  0  0  0
   10.1129  -17.1741   20.5787 C   0  0  0  0  0  0  0  0  0  0  0  0
   11.2971  -16.6854   20.4627 O   0  0  0  0  0  0  0  0  0  0  0  0
    8.7492  -13.1546   19.5699 C   0  0  0  0  0  0  0  0  0  0  0  0
    7.7182  -14.0311   20.3206 C   0  0  2  0  0  0  0  0  0  0  0  0
    6.4357  -13.2630   20.2731 C   0  0  0  0  0  0  0  0  0  0  0  0
    8.2703  -14.2534   21.6757 C   0  0  0  0  0  0  0  0  0  0  0  0
    9.4934  -15.0997   21.7973 C   0  0  2  0  0  0  0  0  0  0  0  0
    9.1134  -16.4004   21.2131 N   0  0  0  0  0  0  0  0  0  0  0  0
    9.8539  -15.2893   23.2230 C   0  0  0  0  0  0  0  0  0  0  0  0
   10.4315  -14.3313   23.8433 O   0  0  0  0  0  0  0  0  0  0  0  0
    9.6206  -16.4434   24.0003 N   0  0  0  0  0  0  0  0  0  0  0  0
   10.1225  -16.5472   25.3539 C   0  0  1  0  0  0  0  0  0  0  0  0
    9.0476  -16.5478   26.3780 C   0  0  0  0  0  0  0  0  0  0  0  0
    7.9470  -15.5944   26.1764 C   0  0  0  0  0  0  0  0  0  0  0  0
    6.7043  -16.0146   25.6737 C   0  0  0  0  0  0  0  0  0  0  0  0
    5.8564  -14.9725   25.6181 N   0  0  0  0  0  0  0  0  0  0  0  0
    6.4863  -13.8728   26.0638 C   0  0  0  0  0  0  0  0  0  0  0  0
    6.0669  -12.5719   26.1960 C   0  0  0  0  0  0  0  0  0  0  0  0
    6.9768  -11.6619   26.6819 C   0  0  0  0  0  0  0  0  0  0  0  0
    8.2497  -12.0205   27.0235 C   0  0  0  0  0  0  0  0  0  0  0  0
    8.6762  -13.3218   26.8938 C   0  0  0  0  0  0  0  0  0  0  0  0
    7.7671  -14.2582   26.4042 C   0  0  0  0  0  0  0  0  0  0  0  0
   11.0100  -17.6927   25.4915 C   0  0  0  0  0  0  0  0  0  0  0  0
   11.2345  -18.6390   24.4981 O   0  0  0  0  0  0  0  0  0  0  0  0
   11.6301  -17.8772   26.5674 O   0  0  0  0  0  0  0  0  0  0  0  0
  2  1  1  6
  3  2  1  0
  4  2  1  0
  5  6  1  6
  5  4  1  0
  7  5  1  0
  8  7  2  0
 10  9  1  6
 10 12  1  0
 11 10  1  0
 13 12  1  1
 13 15  1  0
 13 14  1  0
 14  7  1  0
 15 17  1  0
 16 15  2  0
 17 18  1  0
 18 19  1  1
 18 29  1  0
 19 20  1  0
 20 21  2  0
 22 21  1  0
 23 22  1  0
 24 23  2  0
 25 24  1  0
 26 27  1  0
 26 25  2  0
 27 28  2  0
 28 23  1  0
 28 20  1  0
 29 31  2  0
 29 30  1  0
M  END
$$$$
