LLW.pdb
     RDKit          3D

 31 32  0  0  1  0  0  0  0  0999 V2000
   10.9432  -18.2291   15.3729 C   0  0  0  0  0  0  0  0  0  0  0  0
   10.4854  -18.4406   16.7914 C   0  0  1  0  0  0  0  0  0  0  0  0
   10.7350  -19.9017   17.1569 C   0  0  0  0  0  0  0  0  0  0  0  0
   11.1237  -17.5141   17.7762 C   0  0  0  0  0  0  0  0  0  0  0  0
   10.6080  -17.5963   19.1666 C   0  0  2  0  0  0  0  0  0  0  0  0
    9.2868  -18.1749   19.2549 N   0  0  0  0  0  0  0  0  0  0  0  0
   10.6779  -16.3629   19.9658 C   0  0  0  0  0  0  0  0  0  0  0  0
   11.8006  -15.7713   20.1759 O   0  0  0  0  0  0  0  0  0  0  0  0
    8.8667  -12.6314   18.9486 C   0  0  0  0  0  0  0  0  0  0  0  0
    7.8955  -13.6687   19.5611 C   0  0  2  0  0  0  0  0  0  0  0  0
    6.5273  -13.1004   19.3557 C   0  0  0  0  0  0  0  0  0  0  0  0
    8.3033  -13.8359   20.9741 C   0  0  0  0  0  0  0  0  0  0  0  0
    9.5962  -14.5294   21.2465 C   0  0  2  0  0  0  0  0  0  0  0  0
    9.4999  -15.8097   20.5191 N   0  0  0  0  0  0  0  0  0  0  0  0
    9.7449  -14.7996   22.6968 C   0  0  0  0  0  0  0  0  0  0  0  0
    9.4558  -13.8710   23.5276 O   0  0  0  0  0  0  0  0  0  0  0  0
   10.1794  -16.0065   23.2844 N   0  0  0  0  0  0  0  0  0  0  0  0
    9.9232  -16.2935   24.6798 C   0  0  1  0  0  0  0  0  0  0  0  0
    8.5552  -16.8143   24.9283 C   0  0  0  0  0  0  0  0  0  0  0  0
    7.5565  -15.8421   25.3957 C   0  0  0  0  0  0  0  0  0  0  0  0
    6.2377  -16.2344   25.6792 C   0  0  0  0  0  0  0  0  0  0  0  0
    5.5319  -15.1802   26.1252 N   0  0  0  0  0  0  0  0  0  0  0  0
    6.3295  -14.0995   26.1491 C   0  0  0  0  0  0  0  0  0  0  0  0
    6.0895  -12.7966   26.5105 C   0  0  0  0  0  0  0  0  0  0  0  0
    7.1362  -11.9100   26.4070 C   0  0  0  0  0  0  0  0  0  0  0  0
    8.3702  -12.2930   25.9645 C   0  0  0  0  0  0  0  0  0  0  0  0
    8.6176  -13.5965   25.6011 C   0  0  0  0  0  0  0  0  0  0  0  0
    7.5688  -14.5093   25.7008 C   0  0  0  0  0  0  0  0  0  0  0  0
   10.9497  -17.1689   25.2262 C   0  0  0  0  0  0  0  0  0  0  0  0
   11.2182  -17.3175   26.5821 O   0  0  0  0  0  0  0  0  0  0  0  0
   11.6667  -17.8501   24.4528 O   0  0  0  0  0  0  0  0  0  0  0  0
  2  1  1  6
  3  2  1  0
  4  2  1  0
  5  6  1  6
  5  4  1  0
  7  5  1  0
  8  7  2  0
 10  9  1  6
 10 12  1  0
 11 10  1  0
 13 12  1  1
 13 15  1  0
 13 14  1  0
 14  7  1  0
 15 17  1  0
 16 15  2  0
 17 18  1  0
 18 19  1  6
 18 29  1  0
 19 20  1  0
 20 21  2  0
 22 21  1  0
 23 22  1  0
 24 23  2  0
 25 24  1  0
 26 27  1  0
 26 25  2  0
 27 28  2  0
 28 23  1  0
 28 20  1  0
 29 31  2  0
 29 30  1  0
M  END
$$$$
