LLW.pdb
     RDKit          3D

 31 32  0  0  1  0  0  0  0  0999 V2000
    2.2678  -18.4732   21.4858 C   0  0  0  0  0  0  0  0  0  0  0  0
    3.5511  -18.6049   22.2618 C   0  0  1  0  0  0  0  0  0  0  0  0
    4.1256  -19.9940   21.9951 C   0  0  0  0  0  0  0  0  0  0  0  0
    4.5502  -17.5334   21.9625 C   0  0  0  0  0  0  0  0  0  0  0  0
    5.8323  -17.6212   22.7071 C   0  0  2  0  0  0  0  0  0  0  0  0
    5.6591  -17.7072   24.1391 N   0  0  0  0  0  0  0  0  0  0  0  0
    6.8523  -16.6132   22.3774 C   0  0  0  0  0  0  0  0  0  0  0  0
    7.3126  -16.5018   21.1815 O   0  0  0  0  0  0  0  0  0  0  0  0
    6.9841  -14.4752   25.6807 C   0  0  0  0  0  0  0  0  0  0  0  0
    8.0927  -13.5086   25.1999 C   0  0  2  0  0  0  0  0  0  0  0  0
    7.7692  -12.1905   25.8283 C   0  0  0  0  0  0  0  0  0  0  0  0
    8.0493  -13.5296   23.7206 C   0  0  0  0  0  0  0  0  0  0  0  0
    8.4201  -14.8010   23.0328 C   0  0  2  0  0  0  0  0  0  0  0  0
    7.3442  -15.7484   23.3824 N   0  0  0  0  0  0  0  0  0  0  0  0
    9.7117  -15.3134   23.5499 C   0  0  0  0  0  0  0  0  0  0  0  0
   10.7356  -14.5476   23.5129 O   0  0  0  0  0  0  0  0  0  0  0  0
    9.9467  -16.5910   24.1006 N   0  0  0  0  0  0  0  0  0  0  0  0
   11.2569  -16.9653   24.5887 C   0  0  1  0  0  0  0  0  0  0  0  0
   11.2068  -17.9054   25.7368 C   0  0  0  0  0  0  0  0  0  0  0  0
   10.2754  -17.5678   26.8228 C   0  0  0  0  0  0  0  0  0  0  0  0
    9.3558  -18.5109   27.3111 C   0  0  0  0  0  0  0  0  0  0  0  0
    8.6475  -17.9790   28.3228 N   0  0  0  0  0  0  0  0  0  0  0  0
    9.0590  -16.7167   28.5275 C   0  0  0  0  0  0  0  0  0  0  0  0
    8.6524  -15.7587   29.4235 C   0  0  0  0  0  0  0  0  0  0  0  0
    9.2786  -14.5353   29.3668 C   0  0  0  0  0  0  0  0  0  0  0  0
   10.2662  -14.2672   28.4623 C   0  0  0  0  0  0  0  0  0  0  0  0
   10.6786  -15.2222   27.5622 C   0  0  0  0  0  0  0  0  0  0  0  0
   10.0560  -16.4686   27.6060 C   0  0  0  0  0  0  0  0  0  0  0  0
   12.0896  -17.4679   23.5059 C   0  0  0  0  0  0  0  0  0  0  0  0
   13.4409  -17.7713   23.6270 O   0  0  0  0  0  0  0  0  0  0  0  0
   11.5924  -17.6489   22.3674 O   0  0  0  0  0  0  0  0  0  0  0  0
  2  1  1  6
  3  2  1  0
  4  2  1  0
  5  6  1  1
  5  4  1  0
  7  5  1  0
  8  7  2  0
 10  9  1  1
 10 12  1  0
 11 10  1  0
 13 12  1  1
 13 15  1  0
 13 14  1  0
 14  7  1  0
 15 17  1  0
 16 15  2  0
 17 18  1  0
 18 19  1  1
 18 29  1  0
 19 20  1  0
 20 21  2  0
 22 21  1  0
 23 22  1  0
 24 23  2  0
 25 24  1  0
 26 27  1  0
 26 25  2  0
 27 28  2  0
 28 23  1  0
 28 20  1  0
 29 31  2  0
 29 30  1  0
M  END
$$$$
