LLW.pdb
     RDKit          3D

 31 32  0  0  1  0  0  0  0  0999 V2000
    9.7862  -19.8195   16.3943 C   0  0  0  0  0  0  0  0  0  0  0  0
    9.5822  -19.7999   17.8857 C   0  0  1  0  0  0  0  0  0  0  0  0
   10.2054  -21.0672   18.4658 C   0  0  0  0  0  0  0  0  0  0  0  0
   10.1176  -18.5731   18.5522 C   0  0  0  0  0  0  0  0  0  0  0  0
    9.9550  -18.5179   20.0275 C   0  0  2  0  0  0  0  0  0  0  0  0
    8.6780  -19.0179   20.4828 N   0  0  0  0  0  0  0  0  0  0  0  0
   10.2567  -17.2302   20.6725 C   0  0  0  0  0  0  0  0  0  0  0  0
   11.4645  -16.7950   20.7520 O   0  0  0  0  0  0  0  0  0  0  0  0
    8.7834  -13.3232   19.4901 C   0  0  0  0  0  0  0  0  0  0  0  0
    7.7424  -14.1539   20.2779 C   0  0  2  0  0  0  0  0  0  0  0  0
    6.4696  -13.3723   20.1988 C   0  0  0  0  0  0  0  0  0  0  0  0
    8.2933  -14.3256   21.6409 C   0  0  0  0  0  0  0  0  0  0  0  0
    9.5417  -15.1295   21.7893 C   0  0  2  0  0  0  0  0  0  0  0  0
    9.2117  -16.4500   21.2194 N   0  0  0  0  0  0  0  0  0  0  0  0
    9.8904  -15.2871   23.2218 C   0  0  0  0  0  0  0  0  0  0  0  0
   10.3939  -14.2899   23.8449 O   0  0  0  0  0  0  0  0  0  0  0  0
    9.7204  -16.4497   24.0030 N   0  0  0  0  0  0  0  0  0  0  0  0
   10.1288  -16.4841   25.3911 C   0  0  1  0  0  0  0  0  0  0  0  0
    8.9867  -16.5826   26.3347 C   0  0  0  0  0  0  0  0  0  0  0  0
    7.9183  -15.5850   26.1801 C   0  0  0  0  0  0  0  0  0  0  0  0
    6.6639  -15.9389   25.6558 C   0  0  0  0  0  0  0  0  0  0  0  0
    5.8504  -14.8681   25.6517 N   0  0  0  0  0  0  0  0  0  0  0  0
    6.5145  -13.8133   26.1525 C   0  0  0  0  0  0  0  0  0  0  0  0
    6.1373  -12.5077   26.3493 C   0  0  0  0  0  0  0  0  0  0  0  0
    7.0750  -11.6532   26.8811 C   0  0  0  0  0  0  0  0  0  0  0  0
    8.3347  -12.0697   27.2054 C   0  0  0  0  0  0  0  0  0  0  0  0
    8.7191  -13.3762   27.0111 C   0  0  0  0  0  0  0  0  0  0  0  0
    7.7812  -14.2567   26.4743 C   0  0  0  0  0  0  0  0  0  0  0  0
   11.1159  -17.5300   25.6155 C   0  0  0  0  0  0  0  0  0  0  0  0
   11.7622  -17.7568   26.8253 O   0  0  0  0  0  0  0  0  0  0  0  0
   11.4370  -18.2983   24.6760 O   0  0  0  0  0  0  0  0  0  0  0  0
  2  1  1  6
  3  2  1  0
  4  2  1  0
  5  6  1  6
  5  4  1  0
  7  5  1  0
  8  7  2  0
 10  9  1  6
 10 12  1  0
 11 10  1  0
 13 12  1  1
 13 15  1  0
 13 14  1  0
 14  7  1  0
 15 17  1  0
 16 15  2  0
 17 18  1  0
 18 19  1  1
 18 29  1  0
 19 20  1  0
 20 21  2  0
 22 21  1  0
 23 22  1  0
 24 23  2  0
 25 24  1  0
 26 27  1  0
 26 25  2  0
 27 28  2  0
 28 23  1  0
 28 20  1  0
 29 31  2  0
 29 30  1  0
M  END
$$$$
