LLW.pdb
     RDKit          3D

 31 32  0  0  1  0  0  0  0  0999 V2000
   15.1909  -19.2553   21.0902 C   0  0  0  0  0  0  0  0  0  0  0  0
   14.0008  -18.3804   21.3808 C   0  0  1  0  0  0  0  0  0  0  0  0
   13.0908  -18.3959   20.1551 C   0  0  0  0  0  0  0  0  0  0  0  0
   13.2564  -18.7657   22.6191 C   0  0  0  0  0  0  0  0  0  0  0  0
   12.0640  -17.9395   22.9378 C   0  0  2  0  0  0  0  0  0  0  0  0
   12.0989  -16.6261   22.3362 N   0  0  0  0  0  0  0  0  0  0  0  0
   11.6972  -17.8387   24.3592 C   0  0  0  0  0  0  0  0  0  0  0  0
   11.6716  -18.8805   25.1132 O   0  0  0  0  0  0  0  0  0  0  0  0
   10.4308  -13.1670   28.0487 C   0  0  0  0  0  0  0  0  0  0  0  0
   10.5286  -14.7113   28.0525 C   0  0  2  0  0  0  0  0  0  0  0  0
   11.4451  -15.0476   29.1856 C   0  0  0  0  0  0  0  0  0  0  0  0
   11.0163  -15.1000   26.7102 C   0  0  0  0  0  0  0  0  0  0  0  0
   10.8973  -16.5344   26.3164 C   0  0  2  0  0  0  0  0  0  0  0  0
   11.3632  -16.5829   24.9172 N   0  0  0  0  0  0  0  0  0  0  0  0
    9.4825  -16.9739   26.3774 C   0  0  0  0  0  0  0  0  0  0  0  0
    8.9133  -17.0556   27.5200 O   0  0  0  0  0  0  0  0  0  0  0  0
    8.6641  -17.3197   25.2814 N   0  0  0  0  0  0  0  0  0  0  0  0
    7.2739  -17.6758   25.4693 C   0  0  1  0  0  0  0  0  0  0  0  0
    6.3472  -16.8822   24.6232 C   0  0  0  0  0  0  0  0  0  0  0  0
    6.6726  -15.4595   24.4476 C   0  0  0  0  0  0  0  0  0  0  0  0
    7.5037  -15.0280   23.4004 C   0  0  0  0  0  0  0  0  0  0  0  0
    7.6175  -13.6884   23.4280 N   0  0  0  0  0  0  0  0  0  0  0  0
    6.8946  -13.2099   24.4543 C   0  0  0  0  0  0  0  0  0  0  0  0
    6.6928  -11.9301   24.9094 C   0  0  0  0  0  0  0  0  0  0  0  0
    5.8908  -11.7730   26.0159 C   0  0  0  0  0  0  0  0  0  0  0  0
    5.3113  -12.8357   26.6486 C   0  0  0  0  0  0  0  0  0  0  0  0
    5.5091  -14.1202   26.1979 C   0  0  0  0  0  0  0  0  0  0  0  0
    6.3179  -14.2984   25.0767 C   0  0  0  0  0  0  0  0  0  0  0  0
    7.0781  -19.1082   25.3006 C   0  0  0  0  0  0  0  0  0  0  0  0
    8.0611  -19.9925   24.8711 O   0  0  0  0  0  0  0  0  0  0  0  0
    5.9574  -19.6188   25.5446 O   0  0  0  0  0  0  0  0  0  0  0  0
  2  1  1  6
  3  2  1  0
  4  2  1  0
  5  6  1  1
  5  4  1  0
  7  5  1  0
  8  7  2  0
 10  9  1  6
 10 12  1  0
 11 10  1  0
 13 12  1  6
 13 15  1  0
 13 14  1  0
 14  7  1  0
 15 17  1  0
 16 15  2  0
 17 18  1  0
 18 19  1  6
 18 29  1  0
 19 20  1  0
 20 21  2  0
 22 21  1  0
 23 22  1  0
 24 23  2  0
 25 24  1  0
 26 27  1  0
 26 25  2  0
 27 28  2  0
 28 23  1  0
 28 20  1  0
 29 31  2  0
 29 30  1  0
M  END
$$$$
