LLW.pdb
     RDKit          3D

 31 32  0  0  1  0  0  0  0  0999 V2000
    8.9596  -19.8605   16.3169 C   0  0  0  0  0  0  0  0  0  0  0  0
    9.0426  -19.8633   17.8201 C   0  0  1  0  0  0  0  0  0  0  0  0
    9.9240  -21.0357   18.2438 C   0  0  0  0  0  0  0  0  0  0  0  0
    9.5312  -18.5746   18.4001 C   0  0  0  0  0  0  0  0  0  0  0  0
    9.5686  -18.5084   19.8834 C   0  0  2  0  0  0  0  0  0  0  0  0
    8.3615  -18.9970   20.5099 N   0  0  0  0  0  0  0  0  0  0  0  0
    9.9614  -17.2184   20.4723 C   0  0  0  0  0  0  0  0  0  0  0  0
   11.1700  -16.7878   20.3802 O   0  0  0  0  0  0  0  0  0  0  0  0
    8.7274  -13.2464   19.4620 C   0  0  0  0  0  0  0  0  0  0  0  0
    7.6818  -14.0548   20.2667 C   0  0  2  0  0  0  0  0  0  0  0  0
    6.4284  -13.2401   20.2187 C   0  0  0  0  0  0  0  0  0  0  0  0
    8.2562  -14.2492   21.6168 C   0  0  0  0  0  0  0  0  0  0  0  0
    9.4390  -15.1501   21.7453 C   0  0  2  0  0  0  0  0  0  0  0  0
    9.0054  -16.4309   21.1548 N   0  0  0  0  0  0  0  0  0  0  0  0
    9.7797  -15.3590   23.1731 C   0  0  0  0  0  0  0  0  0  0  0  0
   10.3758  -14.4208   23.8062 O   0  0  0  0  0  0  0  0  0  0  0  0
    9.5082  -16.5120   23.9397 N   0  0  0  0  0  0  0  0  0  0  0  0
    9.9904  -16.6369   25.2987 C   0  0  1  0  0  0  0  0  0  0  0  0
    8.8998  -16.6707   26.3056 C   0  0  0  0  0  0  0  0  0  0  0  0
    7.8184  -15.6896   26.1366 C   0  0  0  0  0  0  0  0  0  0  0  0
    6.5747  -16.0639   25.6009 C   0  0  0  0  0  0  0  0  0  0  0  0
    5.7456  -15.0053   25.5847 N   0  0  0  0  0  0  0  0  0  0  0  0
    6.3890  -13.9390   26.0884 C   0  0  0  0  0  0  0  0  0  0  0  0
    5.9905  -12.6384   26.2767 C   0  0  0  0  0  0  0  0  0  0  0  0
    6.9100  -11.7684   26.8148 C   0  0  0  0  0  0  0  0  0  0  0  0
    8.1723  -12.1650   27.1534 C   0  0  0  0  0  0  0  0  0  0  0  0
    8.5779  -13.4663   26.9677 C   0  0  0  0  0  0  0  0  0  0  0  0
    7.6587  -14.3625   26.4246 C   0  0  0  0  0  0  0  0  0  0  0  0
   10.8895  -17.7743   25.4274 C   0  0  0  0  0  0  0  0  0  0  0  0
   11.5978  -18.0920   26.5807 O   0  0  0  0  0  0  0  0  0  0  0  0
   11.0689  -18.5429   24.4511 O   0  0  0  0  0  0  0  0  0  0  0  0
  2  1  1  6
  3  2  1  0
  4  2  1  0
  5  6  1  1
  5  4  1  0
  7  5  1  0
  8  7  2  0
 10  9  1  6
 10 12  1  0
 11 10  1  0
 13 12  1  1
 13 15  1  0
 13 14  1  0
 14  7  1  0
 15 17  1  0
 16 15  2  0
 17 18  1  0
 18 19  1  1
 18 29  1  0
 19 20  1  0
 20 21  2  0
 22 21  1  0
 23 22  1  0
 24 23  2  0
 25 24  1  0
 26 27  1  0
 26 25  2  0
 27 28  2  0
 28 23  1  0
 28 20  1  0
 29 31  2  0
 29 30  1  0
M  END
$$$$
