LLW.pdb
     RDKit          3D

 31 32  0  0  1  0  0  0  0  0999 V2000
   10.4516  -19.8188   16.6186 C   0  0  0  0  0  0  0  0  0  0  0  0
   10.2568  -19.7753   18.1108 C   0  0  1  0  0  0  0  0  0  0  0  0
   11.1875  -20.8088   18.7405 C   0  0  0  0  0  0  0  0  0  0  0  0
   10.4622  -18.4196   18.7071 C   0  0  0  0  0  0  0  0  0  0  0  0
   10.2801  -18.3281   20.1783 C   0  0  2  0  0  0  0  0  0  0  0  0
    9.0295  -18.8879   20.6373 N   0  0  0  0  0  0  0  0  0  0  0  0
   10.4988  -17.0055   20.7849 C   0  0  0  0  0  0  0  0  0  0  0  0
   11.6683  -16.4702   20.8055 O   0  0  0  0  0  0  0  0  0  0  0  0
    8.8129  -13.2037   19.7316 C   0  0  0  0  0  0  0  0  0  0  0  0
    7.8198  -14.0839   20.5275 C   0  0  2  0  0  0  0  0  0  0  0  0
    6.5148  -13.3551   20.4758 C   0  0  0  0  0  0  0  0  0  0  0  0
    8.3991  -14.2448   21.8800 C   0  0  0  0  0  0  0  0  0  0  0  0
    9.6805  -15.0000   22.0015 C   0  0  2  0  0  0  0  0  0  0  0  0
    9.4150  -16.3019   21.3597 N   0  0  0  0  0  0  0  0  0  0  0  0
   10.0218  -15.2172   23.4279 C   0  0  0  0  0  0  0  0  0  0  0  0
   10.5180  -14.2456   24.0958 O   0  0  0  0  0  0  0  0  0  0  0  0
    9.8518  -16.4126   24.1579 N   0  0  0  0  0  0  0  0  0  0  0  0
   10.2490  -16.5033   25.5468 C   0  0  1  0  0  0  0  0  0  0  0  0
    9.0979  -16.5199   26.4846 C   0  0  0  0  0  0  0  0  0  0  0  0
    7.9588  -15.6561   26.1423 C   0  0  0  0  0  0  0  0  0  0  0  0
    6.8246  -16.1722   25.4935 C   0  0  0  0  0  0  0  0  0  0  0  0
    5.9103  -15.2004   25.3267 N   0  0  0  0  0  0  0  0  0  0  0  0
    6.3917  -14.0555   25.8387 C   0  0  0  0  0  0  0  0  0  0  0  0
    5.8577  -12.7923   25.9091 C   0  0  0  0  0  0  0  0  0  0  0  0
    6.6261  -11.8143   26.4969 C   0  0  0  0  0  0  0  0  0  0  0  0
    7.8715  -12.0718   26.9949 C   0  0  0  0  0  0  0  0  0  0  0  0
    8.4122  -13.3349   26.9279 C   0  0  0  0  0  0  0  0  0  0  0  0
    7.6471  -14.3390   26.3368 C   0  0  0  0  0  0  0  0  0  0  0  0
   11.1429  -17.6324   25.7578 C   0  0  0  0  0  0  0  0  0  0  0  0
   11.7600  -17.9334   26.9667 O   0  0  0  0  0  0  0  0  0  0  0  0
   11.4043  -18.4090   24.8067 O   0  0  0  0  0  0  0  0  0  0  0  0
  2  1  1  6
  3  2  1  0
  4  2  1  0
  5  6  1  6
  5  4  1  0
  7  5  1  0
  8  7  2  0
 10  9  1  6
 10 12  1  0
 11 10  1  0
 13 12  1  1
 13 15  1  0
 13 14  1  0
 14  7  1  0
 15 17  1  0
 16 15  2  0
 17 18  1  0
 18 19  1  1
 18 29  1  0
 19 20  1  0
 20 21  2  0
 22 21  1  0
 23 22  1  0
 24 23  2  0
 25 24  1  0
 26 27  1  0
 26 25  2  0
 27 28  2  0
 28 23  1  0
 28 20  1  0
 29 31  2  0
 29 30  1  0
M  END
$$$$
