LLW.pdb
     RDKit          3D

 31 32  0  0  1  0  0  0  0  0999 V2000
    6.7207  -19.9609   16.9372 C   0  0  0  0  0  0  0  0  0  0  0  0
    7.1395  -19.9927   18.3829 C   0  0  1  0  0  0  0  0  0  0  0  0
    8.3011  -20.9741   18.5182 C   0  0  0  0  0  0  0  0  0  0  0  0
    7.4907  -18.6500   18.9393 C   0  0  0  0  0  0  0  0  0  0  0  0
    8.1005  -18.6529   20.2936 C   0  0  2  0  0  0  0  0  0  0  0  0
    7.1541  -18.9363   21.3481 N   0  0  0  0  0  0  0  0  0  0  0  0
    8.9199  -17.4826   20.6460 C   0  0  0  0  0  0  0  0  0  0  0  0
   10.1388  -17.3820   20.2476 O   0  0  0  0  0  0  0  0  0  0  0  0
    8.3397  -13.6463   19.3875 C   0  0  0  0  0  0  0  0  0  0  0  0
    7.4345  -13.9725   20.5994 C   0  0  2  0  0  0  0  0  0  0  0  0
    6.4611  -12.8400   20.6833 C   0  0  0  0  0  0  0  0  0  0  0  0
    8.3361  -14.1168   21.7643 C   0  0  0  0  0  0  0  0  0  0  0  0
    9.2350  -15.3073   21.8038 C   0  0  2  0  0  0  0  0  0  0  0  0
    8.3715  -16.4461   21.4364 N   0  0  0  0  0  0  0  0  0  0  0  0
    9.7626  -15.5142   23.1739 C   0  0  0  0  0  0  0  0  0  0  0  0
   10.6746  -14.7284   23.6063 O   0  0  0  0  0  0  0  0  0  0  0  0
    9.3563  -16.5101   24.0871 N   0  0  0  0  0  0  0  0  0  0  0  0
   10.0726  -16.7252   25.3263 C   0  0  1  0  0  0  0  0  0  0  0  0
    9.3716  -16.1693   26.5112 C   0  0  0  0  0  0  0  0  0  0  0  0
    8.1742  -15.3588   26.2463 C   0  0  0  0  0  0  0  0  0  0  0  0
    6.9747  -15.9525   25.8190 C   0  0  0  0  0  0  0  0  0  0  0  0
    6.0215  -15.0137   25.6843 N   0  0  0  0  0  0  0  0  0  0  0  0
    6.5395  -13.8163   26.0046 C   0  0  0  0  0  0  0  0  0  0  0  0
    5.9882  -12.5587   26.0205 C   0  0  0  0  0  0  0  0  0  0  0  0
    6.8051  -11.5162   26.3920 C   0  0  0  0  0  0  0  0  0  0  0  0
    8.1137  -11.7064   26.7339 C   0  0  0  0  0  0  0  0  0  0  0  0
    8.6722  -12.9634   26.7204 C   0  0  0  0  0  0  0  0  0  0  0  0
    7.8587  -14.0323   26.3477 C   0  0  0  0  0  0  0  0  0  0  0  0
   10.4035  -18.1324   25.4965 C   0  0  0  0  0  0  0  0  0  0  0  0
   11.1976  -18.6366   26.5202 O   0  0  0  0  0  0  0  0  0  0  0  0
    9.9653  -18.9805   24.6813 O   0  0  0  0  0  0  0  0  0  0  0  0
  2  1  1  6
  3  2  1  0
  4  2  1  0
  5  6  1  1
  5  4  1  0
  7  5  1  0
  8  7  2  0
 10  9  1  6
 10 12  1  0
 11 10  1  0
 13 12  1  1
 13 15  1  0
 13 14  1  0
 14  7  1  0
 15 17  1  0
 16 15  2  0
 17 18  1  0
 18 19  1  1
 18 29  1  0
 19 20  1  0
 20 21  2  0
 22 21  1  0
 23 22  1  0
 24 23  2  0
 25 24  1  0
 26 27  1  0
 26 25  2  0
 27 28  2  0
 28 23  1  0
 28 20  1  0
 29 31  2  0
 29 30  1  0
M  END
$$$$
