LLW.pdb
     RDKit          3D

 31 32  0  0  1  0  0  0  0  0999 V2000
    9.4071  -19.8937   15.7272 C   0  0  0  0  0  0  0  0  0  0  0  0
    9.2703  -19.8895   17.2264 C   0  0  1  0  0  0  0  0  0  0  0  0
   10.1451  -21.0090   17.7851 C   0  0  0  0  0  0  0  0  0  0  0  0
    9.5960  -18.5741   17.8586 C   0  0  0  0  0  0  0  0  0  0  0  0
    9.4572  -18.5171   19.3362 C   0  0  2  0  0  0  0  0  0  0  0  0
    8.1571  -18.9373   19.8067 N   0  0  0  0  0  0  0  0  0  0  0  0
    9.8491  -17.2550   19.9832 C   0  0  0  0  0  0  0  0  0  0  0  0
   11.0533  -16.8112   19.8967 O   0  0  0  0  0  0  0  0  0  0  0  0
    8.4844  -13.1066   19.2216 C   0  0  0  0  0  0  0  0  0  0  0  0
    7.4995  -14.0721   19.9233 C   0  0  2  0  0  0  0  0  0  0  0  0
    6.1890  -13.3518   19.9491 C   0  0  0  0  0  0  0  0  0  0  0  0
    8.0828  -14.3680   21.2510 C   0  0  0  0  0  0  0  0  0  0  0  0
    9.3090  -15.2171   21.2975 C   0  0  2  0  0  0  0  0  0  0  0  0
    8.8970  -16.5094   20.7165 N   0  0  0  0  0  0  0  0  0  0  0  0
    9.7429  -15.4262   22.6997 C   0  0  0  0  0  0  0  0  0  0  0  0
   10.5217  -14.5652   23.2368 O   0  0  0  0  0  0  0  0  0  0  0  0
    9.3788  -16.5008   23.5385 N   0  0  0  0  0  0  0  0  0  0  0  0
    9.9976  -16.6805   24.8346 C   0  0  1  0  0  0  0  0  0  0  0  0
    9.8790  -15.4871   25.7100 C   0  0  0  0  0  0  0  0  0  0  0  0
    8.5189  -14.9899   25.9628 C   0  0  0  0  0  0  0  0  0  0  0  0
    7.4111  -15.8531   25.9263 C   0  0  0  0  0  0  0  0  0  0  0  0
    6.2906  -15.1734   26.2275 N   0  0  0  0  0  0  0  0  0  0  0  0
    6.6086  -13.8895   26.4626 C   0  0  0  0  0  0  0  0  0  0  0  0
    5.8353  -12.8044   26.7948 C   0  0  0  0  0  0  0  0  0  0  0  0
    6.4768  -11.5986   26.9577 C   0  0  0  0  0  0  0  0  0  0  0  0
    7.8270  -11.4680   26.7990 C   0  0  0  0  0  0  0  0  0  0  0  0
    8.6076  -12.5508   26.4665 C   0  0  0  0  0  0  0  0  0  0  0  0
    7.9747  -13.7814   26.2988 C   0  0  0  0  0  0  0  0  0  0  0  0
    9.5029  -17.8861   25.4828 C   0  0  0  0  0  0  0  0  0  0  0  0
   10.0044  -18.4037   26.6716 O   0  0  0  0  0  0  0  0  0  0  0  0
    8.5626  -18.5348   24.9620 O   0  0  0  0  0  0  0  0  0  0  0  0
  2  1  1  6
  3  2  1  0
  4  2  1  0
  5  6  1  6
  5  4  1  0
  7  5  1  0
  8  7  2  0
 10  9  1  6
 10 12  1  0
 11 10  1  0
 13 12  1  1
 13 15  1  0
 13 14  1  0
 14  7  1  0
 15 17  1  0
 16 15  2  0
 17 18  1  0
 18 19  1  1
 18 29  1  0
 19 20  1  0
 20 21  2  0
 22 21  1  0
 23 22  1  0
 24 23  2  0
 25 24  1  0
 26 27  1  0
 26 25  2  0
 27 28  2  0
 28 23  1  0
 28 20  1  0
 29 31  2  0
 29 30  1  0
M  END
$$$$
