LLW.pdb
     RDKit          3D

 31 32  0  0  1  0  0  0  0  0999 V2000
    7.0606  -11.7703   17.5839 C   0  0  0  0  0  0  0  0  0  0  0  0
    7.3388  -13.1665   18.0736 C   0  0  1  0  0  0  0  0  0  0  0  0
    8.1715  -13.8831   17.0135 C   0  0  0  0  0  0  0  0  0  0  0  0
    8.0003  -13.2156   19.4136 C   0  0  0  0  0  0  0  0  0  0  0  0
    8.2233  -14.5733   19.9731 C   0  0  2  0  0  0  0  0  0  0  0  0
    7.0584  -15.4247   19.8935 N   0  0  0  0  0  0  0  0  0  0  0  0
    8.8105  -14.6387   21.3207 C   0  0  0  0  0  0  0  0  0  0  0  0
    9.8712  -13.9733   21.6151 O   0  0  0  0  0  0  0  0  0  0  0  0
    7.4849  -13.0230   24.4409 C   0  0  0  0  0  0  0  0  0  0  0  0
    6.8487  -14.4311   24.3560 C   0  0  2  0  0  0  0  0  0  0  0  0
    5.7221  -14.4170   25.3396 C   0  0  0  0  0  0  0  0  0  0  0  0
    7.9322  -15.3950   24.6520 C   0  0  0  0  0  0  0  0  0  0  0  0
    8.9379  -15.6598   23.5818 C   0  0  2  0  0  0  0  0  0  0  0  0
    8.2102  -15.4437   22.3165 N   0  0  0  0  0  0  0  0  0  0  0  0
    9.4050  -17.0656   23.6447 C   0  0  0  0  0  0  0  0  0  0  0  0
    8.5680  -18.0025   23.4041 O   0  0  0  0  0  0  0  0  0  0  0  0
   10.7126  -17.5018   23.9457 N   0  0  0  0  0  0  0  0  0  0  0  0
   11.2348  -17.4249   25.2934 C   0  0  1  0  0  0  0  0  0  0  0  0
   10.8916  -16.1550   25.9821 C   0  0  0  0  0  0  0  0  0  0  0  0
   10.8614  -16.1914   27.4513 C   0  0  0  0  0  0  0  0  0  0  0  0
   11.0570  -17.3929   28.1527 C   0  0  0  0  0  0  0  0  0  0  0  0
   11.0238  -17.1610   29.4769 N   0  0  0  0  0  0  0  0  0  0  0  0
   10.8126  -15.8508   29.6855 C   0  0  0  0  0  0  0  0  0  0  0  0
   10.6889  -15.1196   30.8413 C   0  0  0  0  0  0  0  0  0  0  0  0
   10.4594  -13.7695   30.7123 C   0  0  0  0  0  0  0  0  0  0  0  0
   10.3557  -13.1646   29.4921 C   0  0  0  0  0  0  0  0  0  0  0  0
   10.4789  -13.8910   28.3305 C   0  0  0  0  0  0  0  0  0  0  0  0
   10.7131  -15.2606   28.4420 C   0  0  0  0  0  0  0  0  0  0  0  0
   10.8416  -18.5918   26.0694 C   0  0  0  0  0  0  0  0  0  0  0  0
   11.7222  -19.3960   26.7839 O   0  0  0  0  0  0  0  0  0  0  0  0
    9.6341  -18.9319   26.1185 O   0  0  0  0  0  0  0  0  0  0  0  0
  2  1  1  6
  3  2  1  0
  4  2  1  0
  5  6  1  1
  5  4  1  0
  7  5  1  0
  8  7  2  0
 10  9  1  1
 10 12  1  0
 11 10  1  0
 13 12  1  1
 13 15  1  0
 13 14  1  0
 14  7  1  0
 15 17  1  0
 16 15  2  0
 17 18  1  0
 18 19  1  1
 18 29  1  0
 19 20  1  0
 20 21  2  0
 22 21  1  0
 23 22  1  0
 24 23  2  0
 25 24  1  0
 26 27  1  0
 26 25  2  0
 27 28  2  0
 28 23  1  0
 28 20  1  0
 29 31  2  0
 29 30  1  0
M  END
$$$$
