RVS.pdb
     RDKit          3D

 25 24  0  0  1  0  0  0  0  0999 V2000
   24.0703  -22.9906  -14.1988 N   0  0  0  0  0  0  0  0  0  0  0  0
   23.9925  -24.3879  -14.4506 C   0  0  0  0  0  0  0  0  0  0  0  0
   25.0061  -25.0648  -14.8938 N   0  0  0  0  0  0  0  0  0  0  0  0
   22.7844  -25.1338  -14.2285 N   0  0  0  0  0  0  0  0  0  0  0  0
   21.5108  -24.5275  -14.1941 C   0  0  0  0  0  0  0  0  0  0  0  0
   21.2147  -23.4287  -13.2744 C   0  0  0  0  0  0  0  0  0  0  0  0
   20.4340  -23.5927  -12.0495 C   0  0  0  0  0  0  0  0  0  0  0  0
   19.0526  -24.1036  -12.1452 C   0  0  2  0  0  0  0  0  0  0  0  0
   18.3020  -23.6632  -13.2885 N   0  0  0  0  0  0  0  0  0  0  0  0
   18.2314  -23.6863  -10.9486 C   0  0  0  0  0  0  0  0  0  0  0  0
   17.4991  -22.7012  -11.0501 O   0  0  0  0  0  0  0  0  0  0  0  0
   24.9564  -26.0900  -15.0867 C   0  0  0  0  0  0  0  0  0  0  0  0
   15.9624  -26.3282   -9.7663 C   0  0  1  0  0  0  0  0  0  0  0  0
   15.9098  -24.8997   -9.3458 C   0  0  0  0  0  0  0  0  0  0  0  0
   15.4266  -23.9745  -10.4306 C   0  0  1  0  0  0  0  0  0  0  0  0
   17.2226  -24.4033   -8.7535 N   0  0  0  0  0  0  0  0  0  0  0  0
   18.2794  -24.3869   -9.7293 C   0  0  0  0  0  0  0  0  0  0  0  0
   17.6150  -25.2212   -7.5749 O   0  0  0  0  0  0  0  0  0  0  0  0
   18.3209  -26.2560   -7.7473 O   0  0  0  0  0  0  0  0  0  0  0  0
   16.0952  -24.4468   -3.7757 C   0  0  0  0  0  0  0  0  0  0  0  0
   17.3719  -25.0005   -3.7932 C   0  0  1  0  0  0  0  0  0  0  0  0
   17.5874  -25.6978   -5.1026 N   0  0  0  0  0  0  0  0  0  0  0  0
   17.2428  -24.9103   -6.2537 C   0  0  0  0  0  0  0  0  0  0  0  0
   16.9818  -27.0495   -5.1390 O   0  0  0  0  0  0  0  0  0  0  0  0
   16.0130  -27.3664   -5.8641 O   0  0  0  0  0  0  0  0  0  0  0  0
  2  1  1  0
  3  2  2  0
  4  2  1  0
  5  4  1  0
  6  5  1  0
  7  6  1  0
  8 10  1  0
  8  7  1  0
  8  9  1  6
 10 11  2  0
 13 12  1  1
 14 13  1  0
 15 13  1  0
 16 10  1  0
 15 16  1  6
 17 22  1  0
 17 15  1  0
 18 17  2  0
 19 20  1  0
 21 20  1  6
 21 22  1  0
 23 21  1  0
 24 23  2  0
 25 23  1  0
M  END
$$$$
