RVS.pdb
     RDKit          3D

 25 24  0  0  1  0  0  0  0  0999 V2000
   17.1495  -29.2960   -3.9211 N   0  0  0  0  0  0  0  0  0  0  0  0
   17.6101  -30.4033   -4.6850 C   0  0  0  0  0  0  0  0  0  0  0  0
   17.0897  -31.5852   -4.5665 N   0  0  0  0  0  0  0  0  0  0  0  0
   18.6811  -30.2779   -5.6349 N   0  0  0  0  0  0  0  0  0  0  0  0
   18.7724  -29.2009   -6.5417 C   0  0  0  0  0  0  0  0  0  0  0  0
   17.5791  -28.6224   -7.1601 C   0  0  0  0  0  0  0  0  0  0  0  0
   17.6289  -27.6132   -8.2164 C   0  0  0  0  0  0  0  0  0  0  0  0
   18.4314  -26.3931   -8.0023 C   0  0  2  0  0  0  0  0  0  0  0  0
   18.3469  -25.8127   -6.6906 N   0  0  0  0  0  0  0  0  0  0  0  0
   18.0158  -25.2925   -8.9491 C   0  0  0  0  0  0  0  0  0  0  0  0
   17.3928  -24.3305   -8.4983 O   0  0  0  0  0  0  0  0  0  0  0  0
   17.3896  -32.3932   -5.1564 C   0  0  0  0  0  0  0  0  0  0  0  0
   19.7306  -25.0592  -12.9410 C   0  0  1  0  0  0  0  0  0  0  0  0
   19.2566  -23.9250  -12.0990 C   0  0  0  0  0  0  0  0  0  0  0  0
   20.3406  -23.3174  -11.2492 C   0  0  1  0  0  0  0  0  0  0  0  0
   18.0381  -24.2769  -11.2552 N   0  0  0  0  0  0  0  0  0  0  0  0
   18.3187  -25.3354  -10.3225 C   0  0  0  0  0  0  0  0  0  0  0  0
   16.8817  -24.6366  -12.1185 O   0  0  0  0  0  0  0  0  0  0  0  0
   16.7853  -25.8162  -12.5636 O   0  0  0  0  0  0  0  0  0  0  0  0
   13.3734  -22.4438  -12.2595 C   0  0  0  0  0  0  0  0  0  0  0  0
   13.4103  -23.7727  -12.6715 C   0  0  1  0  0  0  0  0  0  0  0  0
   14.7391  -24.0539  -13.3059 N   0  0  0  0  0  0  0  0  0  0  0  0
   15.8679  -23.7293  -12.4787 C   0  0  0  0  0  0  0  0  0  0  0  0
   14.8548  -23.4874  -14.6700 O   0  0  0  0  0  0  0  0  0  0  0  0
   15.7390  -22.6751  -15.0212 O   0  0  0  0  0  0  0  0  0  0  0  0
  2  1  1  0
  3  2  2  0
  4  2  1  0
  5  4  1  0
  6  5  1  0
  7  6  1  0
  8 10  1  0
  8  7  1  0
  8  9  1  1
 10 11  2  0
 13 12  1  6
 14 13  1  0
 15 13  1  0
 16 10  1  0
 15 16  1  1
 17 22  1  0
 17 15  1  0
 18 17  2  0
 19 20  1  0
 21 20  1  1
 21 22  1  0
 23 21  1  0
 24 23  2  0
 25 23  1  0
M  END
$$$$
