RVS.pdb
     RDKit          3D

 25 24  0  0  1  0  0  0  0  0999 V2000
   20.7432  -25.9465  -11.4023 N   0  0  0  0  0  0  0  0  0  0  0  0
   20.1974  -27.1682  -10.9214 C   0  0  0  0  0  0  0  0  0  0  0  0
   20.6233  -28.3217  -11.3337 N   0  0  0  0  0  0  0  0  0  0  0  0
   19.1401  -27.1971   -9.9486 N   0  0  0  0  0  0  0  0  0  0  0  0
   18.4853  -26.0302   -9.5009 C   0  0  0  0  0  0  0  0  0  0  0  0
   18.9785  -25.2741   -8.3493 C   0  0  0  0  0  0  0  0  0  0  0  0
   18.1689  -24.9916   -7.1655 C   0  0  0  0  0  0  0  0  0  0  0  0
   16.6985  -25.0614   -7.2716 C   0  0  2  0  0  0  0  0  0  0  0  0
   16.0851  -24.0663   -8.1072 N   0  0  0  0  0  0  0  0  0  0  0  0
   16.0447  -24.9003   -5.9200 C   0  0  0  0  0  0  0  0  0  0  0  0
   15.6942  -23.7743   -5.5645 O   0  0  0  0  0  0  0  0  0  0  0  0
   20.2052  -29.2231  -11.0122 C   0  0  0  0  0  0  0  0  0  0  0  0
   13.0233  -26.8500   -2.6732 C   0  0  1  0  0  0  0  0  0  0  0  0
   13.7861  -26.7876   -3.9516 C   0  0  0  0  0  0  0  0  0  0  0  0
   14.0927  -28.1424   -4.5318 C   0  0  2  0  0  0  0  0  0  0  0  0
   15.0486  -25.9409   -3.8524 N   0  0  0  0  0  0  0  0  0  0  0  0
   15.8263  -25.9934   -5.0614 C   0  0  0  0  0  0  0  0  0  0  0  0
   15.8728  -26.3533   -2.6849 O   0  0  0  0  0  0  0  0  0  0  0  0
   16.6603  -27.3358   -2.7998 O   0  0  0  0  0  0  0  0  0  0  0  0
   15.4375  -24.5007    0.9678 C   0  0  0  0  0  0  0  0  0  0  0  0
   16.7337  -24.9483    0.7296 C   0  0  1  0  0  0  0  0  0  0  0  0
   16.7011  -26.0055   -0.3327 N   0  0  0  0  0  0  0  0  0  0  0  0
   15.8305  -25.7065   -1.4357 C   0  0  0  0  0  0  0  0  0  0  0  0
   16.4747  -27.3630    0.2159 O   0  0  0  0  0  0  0  0  0  0  0  0
   15.4619  -28.0576   -0.0224 O   0  0  0  0  0  0  0  0  0  0  0  0
  2  1  1  0
  3  2  2  0
  4  2  1  0
  5  4  1  0
  6  5  1  0
  7  6  1  0
  8 10  1  0
  8  7  1  0
  8  9  1  6
 10 11  2  0
 13 12  1  6
 14 13  1  0
 15 13  1  0
 16 10  1  0
 15 16  1  1
 17 22  1  0
 17 15  1  0
 18 17  2  0
 19 20  1  0
 21 20  1  6
 21 22  1  0
 23 21  1  0
 24 23  2  0
 25 23  1  0
M  END
$$$$
