RVS.pdb
     RDKit          3D

 25 24  0  0  1  0  0  0  0  0999 V2000
   20.5605  -21.7802  -15.4014 N   0  0  0  0  0  0  0  0  0  0  0  0
   19.1909  -21.4918  -15.1511 C   0  0  0  0  0  0  0  0  0  0  0  0
   18.3206  -21.4012  -16.1083 N   0  0  0  0  0  0  0  0  0  0  0  0
   18.6893  -21.2831  -13.8207 N   0  0  0  0  0  0  0  0  0  0  0  0
   19.4812  -21.4775  -12.6692 C   0  0  0  0  0  0  0  0  0  0  0  0
   19.7017  -22.8126  -12.1128 C   0  0  0  0  0  0  0  0  0  0  0  0
   18.7637  -23.4715  -11.2057 C   0  0  0  0  0  0  0  0  0  0  0  0
   19.0551  -24.8447  -10.7499 C   0  0  2  0  0  0  0  0  0  0  0  0
   19.1352  -25.8412  -11.7821 N   0  0  0  0  0  0  0  0  0  0  0  0
   17.9911  -25.3430   -9.8012 C   0  0  0  0  0  0  0  0  0  0  0  0
   16.9298  -25.7568  -10.2696 O   0  0  0  0  0  0  0  0  0  0  0  0
   17.3044  -21.2383  -15.9307 C   0  0  0  0  0  0  0  0  0  0  0  0
   18.2877  -28.2440   -7.5542 C   0  0  1  0  0  0  0  0  0  0  0  0
   17.0557  -27.4279   -7.7440 C   0  0  0  0  0  0  0  0  0  0  0  0
   16.4056  -27.6298   -9.0867 C   0  0  1  0  0  0  0  0  0  0  0  0
   17.2721  -25.9465   -7.4626 N   0  0  0  0  0  0  0  0  0  0  0  0
   18.1774  -25.3476   -8.4065 C   0  0  0  0  0  0  0  0  0  0  0  0
   17.7560  -25.7364   -6.0719 O   0  0  0  0  0  0  0  0  0  0  0  0
   18.9998  -25.7272   -5.8444 O   0  0  0  0  0  0  0  0  0  0  0  0
   16.8284  -24.8109   -1.3902 C   0  0  0  0  0  0  0  0  0  0  0  0
   16.2941  -24.8887   -2.6730 C   0  0  1  0  0  0  0  0  0  0  0  0
   17.3392  -25.4159   -3.6095 N   0  0  0  0  0  0  0  0  0  0  0  0
   16.9002  -25.5436   -4.9714 C   0  0  0  0  0  0  0  0  0  0  0  0
   17.9912  -26.6476   -3.1066 O   0  0  0  0  0  0  0  0  0  0  0  0
   17.5783  -27.8057   -3.3367 O   0  0  0  0  0  0  0  0  0  0  0  0
  2  1  1  0
  3  2  2  0
  4  2  1  0
  5  4  1  0
  6  5  1  0
  7  6  1  0
  8 10  1  0
  8  7  1  0
  8  9  1  6
 10 11  2  0
 13 12  1  1
 14 13  1  0
 15 13  1  0
 16 10  1  0
 15 16  1  6
 17 22  1  0
 17 15  1  0
 18 17  2  0
 19 20  1  0
 21 20  1  6
 21 22  1  0
 23 21  1  0
 24 23  2  0
 25 23  1  0
M  END
$$$$
