RVS.pdb
     RDKit          3D

 25 24  0  0  1  0  0  0  0  0999 V2000
   24.3498  -25.4643  -15.5538 N   0  0  0  0  0  0  0  0  0  0  0  0
   25.3195  -25.1486  -16.5448 C   0  0  0  0  0  0  0  0  0  0  0  0
   25.6782  -26.0020  -17.4531 N   0  0  0  0  0  0  0  0  0  0  0  0
   25.9603  -23.8635  -16.5984 N   0  0  0  0  0  0  0  0  0  0  0  0
   25.6834  -22.8354  -15.6725 C   0  0  0  0  0  0  0  0  0  0  0  0
   25.2218  -21.5184  -16.1119 C   0  0  0  0  0  0  0  0  0  0  0  0
   23.8133  -21.1875  -16.3206 C   0  0  0  0  0  0  0  0  0  0  0  0
   23.2988  -21.0901  -17.7005 C   0  0  2  0  0  0  0  0  0  0  0  0
   23.7890  -19.9819  -18.4727 N   0  0  0  0  0  0  0  0  0  0  0  0
   21.7955  -20.9473  -17.7144 C   0  0  0  0  0  0  0  0  0  0  0  0
   21.3078  -19.8265  -17.5636 O   0  0  0  0  0  0  0  0  0  0  0  0
   26.4150  -25.7914  -18.1626 C   0  0  0  0  0  0  0  0  0  0  0  0
   17.4482  -22.7424  -19.1668 C   0  0  1  0  0  0  0  0  0  0  0  0
   18.9364  -22.7793  -19.1068 C   0  0  0  0  0  0  0  0  0  0  0  0
   19.5012  -24.1747  -19.1236 C   0  0  2  0  0  0  0  0  0  0  0  0
   19.5069  -21.9765  -17.9446 N   0  0  0  0  0  0  0  0  0  0  0  0
   20.9424  -22.0518  -17.8938 C   0  0  0  0  0  0  0  0  0  0  0  0
   18.9162  -22.4202  -16.6537 O   0  0  0  0  0  0  0  0  0  0  0  0
   19.6234  -23.0903  -15.8477 O   0  0  0  0  0  0  0  0  0  0  0  0
   17.2450  -21.7560  -12.6472 C   0  0  0  0  0  0  0  0  0  0  0  0
   17.8927  -21.6230  -13.8719 C   0  0  1  0  0  0  0  0  0  0  0  0
   17.0815  -22.3032  -14.9332 N   0  0  0  0  0  0  0  0  0  0  0  0
   17.5938  -22.1360  -16.2649 C   0  0  0  0  0  0  0  0  0  0  0  0
   15.6363  -21.9908  -14.8389 O   0  0  0  0  0  0  0  0  0  0  0  0
   14.9802  -21.4205  -15.7384 O   0  0  0  0  0  0  0  0  0  0  0  0
  2  1  1  0
  3  2  2  0
  4  2  1  0
  5  4  1  0
  6  5  1  0
  7  6  1  0
  8 10  1  0
  8  7  1  0
  8  9  1  1
 10 11  2  0
 13 12  1  6
 14 13  1  0
 15 13  1  0
 16 10  1  0
 15 16  1  1
 17 22  1  0
 17 15  1  0
 18 17  2  0
 19 20  1  0
 21 20  1  1
 21 22  1  0
 23 21  1  0
 24 23  2  0
 25 23  1  0
M  END
$$$$
