RVS.pdb
     RDKit          3D

 25 24  0  0  1  0  0  0  0  0999 V2000
   15.3207  -24.3399   -3.3699 N   0  0  0  0  0  0  0  0  0  0  0  0
   15.2777  -25.7244   -3.0486 C   0  0  0  0  0  0  0  0  0  0  0  0
   14.6887  -26.1650   -1.9804 N   0  0  0  0  0  0  0  0  0  0  0  0
   15.8854  -26.7187   -3.8896 N   0  0  0  0  0  0  0  0  0  0  0  0
   16.6139  -26.3903   -5.0524 C   0  0  0  0  0  0  0  0  0  0  0  0
   16.1016  -25.4248   -6.0251 C   0  0  0  0  0  0  0  0  0  0  0  0
   16.7872  -25.1003   -7.2747 C   0  0  0  0  0  0  0  0  0  0  0  0
   18.2384  -25.3481   -7.3791 C   0  0  2  0  0  0  0  0  0  0  0  0
   19.0543  -24.7068   -6.3853 N   0  0  0  0  0  0  0  0  0  0  0  0
   18.7806  -24.8695   -8.7047 C   0  0  0  0  0  0  0  0  0  0  0  0
   19.3183  -23.7627   -8.7573 O   0  0  0  0  0  0  0  0  0  0  0  0
   14.6701  -27.1777   -1.7258 C   0  0  0  0  0  0  0  0  0  0  0  0
   20.4855  -26.3088  -13.1334 C   0  0  1  0  0  0  0  0  0  0  0  0
   19.6911  -26.5925  -11.9052 C   0  0  0  0  0  0  0  0  0  0  0  0
   18.4609  -27.4199  -12.1666 C   0  0  2  0  0  0  0  0  0  0  0  0
   19.3434  -25.3366  -11.1162 N   0  0  0  0  0  0  0  0  0  0  0  0
   18.6891  -25.6476   -9.8734 C   0  0  0  0  0  0  0  0  0  0  0  0
   18.5056  -24.4150  -11.9292 O   0  0  0  0  0  0  0  0  0  0  0  0
   17.2487  -24.5528  -11.9219 O   0  0  0  0  0  0  0  0  0  0  0  0
   20.2003  -21.7575  -14.6445 C   0  0  0  0  0  0  0  0  0  0  0  0
   19.0006  -21.3257  -14.0864 C   0  0  1  0  0  0  0  0  0  0  0  0
   18.2506  -22.5104  -13.5563 N   0  0  0  0  0  0  0  0  0  0  0  0
   19.0337  -23.3790  -12.7219 C   0  0  0  0  0  0  0  0  0  0  0  0
   17.5211  -23.2476  -14.6143 O   0  0  0  0  0  0  0  0  0  0  0  0
   16.4515  -22.8577  -15.1329 O   0  0  0  0  0  0  0  0  0  0  0  0
  2  1  1  0
  3  2  2  0
  4  2  1  0
  5  4  1  0
  6  5  1  0
  7  6  1  0
  8 10  1  0
  8  7  1  0
  8  9  1  1
 10 11  2  0
 13 12  1  1
 14 13  1  0
 15 13  1  0
 16 10  1  0
 15 16  1  6
 17 22  1  0
 17 15  1  0
 18 17  2  0
 19 20  1  0
 21 20  1  1
 21 22  1  0
 23 21  1  0
 24 23  2  0
 25 23  1  0
M  END
$$$$
