RVS.pdb
     RDKit          3D

 25 24  0  0  1  0  0  0  0  0999 V2000
   18.1168  -23.2796  -14.2381 N   0  0  0  0  0  0  0  0  0  0  0  0
   17.3647  -22.0947  -14.4667 C   0  0  0  0  0  0  0  0  0  0  0  0
   16.3162  -21.7988  -13.7633 N   0  0  0  0  0  0  0  0  0  0  0  0
   17.7226  -21.1538  -15.4922 N   0  0  0  0  0  0  0  0  0  0  0  0
   18.6688  -21.4462  -16.4972 C   0  0  0  0  0  0  0  0  0  0  0  0
   19.9597  -22.0547  -16.1744 C   0  0  0  0  0  0  0  0  0  0  0  0
   21.0926  -21.3023  -15.6386 C   0  0  0  0  0  0  0  0  0  0  0  0
   21.9389  -20.5270  -16.5664 C   0  0  2  0  0  0  0  0  0  0  0  0
   21.9403  -20.9745  -17.9319 N   0  0  0  0  0  0  0  0  0  0  0  0
   23.3871  -20.5563  -16.1394 C   0  0  0  0  0  0  0  0  0  0  0  0
   24.0880  -21.5047  -16.4948 O   0  0  0  0  0  0  0  0  0  0  0  0
   15.7157  -20.9699  -13.9706 C   0  0  0  0  0  0  0  0  0  0  0  0
   27.3619  -18.1752  -14.4409 C   0  0  1  0  0  0  0  0  0  0  0  0
   25.9385  -18.1718  -14.8810 C   0  0  0  0  0  0  0  0  0  0  0  0
   25.0902  -17.1629  -14.1538 C   0  0  2  0  0  0  0  0  0  0  0  0
   25.2971  -19.5528  -14.8375 N   0  0  0  0  0  0  0  0  0  0  0  0
   23.9539  -19.5372  -15.3521 C   0  0  0  0  0  0  0  0  0  0  0  0
   25.3190  -20.1039  -13.4562 O   0  0  0  0  0  0  0  0  0  0  0  0
   24.3158  -19.9328  -12.7059 O   0  0  0  0  0  0  0  0  0  0  0  0
   28.8291  -21.2182  -11.4496 C   0  0  0  0  0  0  0  0  0  0  0  0
   27.7358  -22.0569  -11.2538 C   0  0  1  0  0  0  0  0  0  0  0  0
   26.4776  -21.3066  -11.5717 N   0  0  0  0  0  0  0  0  0  0  0  0
   26.4073  -20.8178  -12.9208 C   0  0  0  0  0  0  0  0  0  0  0  0
   26.1673  -20.2578  -10.5723 O   0  0  0  0  0  0  0  0  0  0  0  0
   25.7807  -20.4908   -9.4056 O   0  0  0  0  0  0  0  0  0  0  0  0
  2  1  1  0
  3  2  2  0
  4  2  1  0
  5  4  1  0
  6  5  1  0
  7  6  1  0
  8 10  1  0
  8  7  1  0
  8  9  1  6
 10 11  2  0
 13 12  1  6
 14 13  1  0
 15 13  1  0
 16 10  1  0
 15 16  1  1
 17 22  1  0
 17 15  1  0
 18 17  2  0
 19 20  1  0
 21 20  1  6
 21 22  1  0
 23 21  1  0
 24 23  2  0
 25 23  1  0
M  END
$$$$
