RVS.pdb
     RDKit          3D

 25 24  0  0  1  0  0  0  0  0999 V2000
   24.4077  -12.8627  -22.8938 N   0  0  0  0  0  0  0  0  0  0  0  0
   23.4324  -12.3215  -23.7756 C   0  0  0  0  0  0  0  0  0  0  0  0
   23.0607  -12.9395  -24.8535 N   0  0  0  0  0  0  0  0  0  0  0  0
   22.8001  -11.0557  -23.5244 N   0  0  0  0  0  0  0  0  0  0  0  0
   22.8958  -10.3897  -22.2842 C   0  0  0  0  0  0  0  0  0  0  0  0
   22.6286  -11.0837  -21.0241 C   0  0  0  0  0  0  0  0  0  0  0  0
   22.6734  -10.4276  -19.7187 C   0  0  0  0  0  0  0  0  0  0  0  0
   22.4613  -11.2381  -18.5036 C   0  0  2  0  0  0  0  0  0  0  0  0
   21.7389  -12.4660  -18.6905 N   0  0  0  0  0  0  0  0  0  0  0  0
   21.6766  -10.4719  -17.4655 C   0  0  0  0  0  0  0  0  0  0  0  0
   20.4468  -10.5329  -17.4918 O   0  0  0  0  0  0  0  0  0  0  0  0
   22.3743  -12.5320  -25.5269 C   0  0  0  0  0  0  0  0  0  0  0  0
   23.1637   -9.7698  -13.5890 C   0  0  1  0  0  0  0  0  0  0  0  0
   21.7591   -9.7229  -14.0836 C   0  0  0  0  0  0  0  0  0  0  0  0
   21.0963  -11.0738  -14.1310 C   0  0  1  0  0  0  0  0  0  0  0  0
   21.6204   -9.0028  -15.4189 N   0  0  0  0  0  0  0  0  0  0  0  0
   22.3074   -9.6954  -16.4760 C   0  0  0  0  0  0  0  0  0  0  0  0
   22.1024   -7.5995  -15.3167 O   0  0  0  0  0  0  0  0  0  0  0  0
   23.3247   -7.3487  -15.5217 O   0  0  0  0  0  0  0  0  0  0  0  0
   21.4198   -2.8759  -15.3515 C   0  0  0  0  0  0  0  0  0  0  0  0
   20.8615   -4.1382  -15.5301 C   0  0  2  0  0  0  0  0  0  0  0  0
   21.7188   -5.1568  -14.8412 N   0  0  0  0  0  0  0  0  0  0  0  0
   21.2678   -6.5115  -14.9998 C   0  0  0  0  0  0  0  0  0  0  0  0
   21.9931   -4.8130  -13.4263 O   0  0  0  0  0  0  0  0  0  0  0  0
   21.4818   -5.4015  -12.4480 O   0  0  0  0  0  0  0  0  0  0  0  0
  2  1  1  0
  3  2  2  0
  4  2  1  0
  5  4  1  0
  6  5  1  0
  7  6  1  0
  8 10  1  0
  8  7  1  0
  8  9  1  6
 10 11  2  0
 13 12  1  1
 14 13  1  0
 15 13  1  0
 16 10  1  0
 15 16  1  6
 17 22  1  0
 17 15  1  0
 18 17  2  0
 19 20  1  0
 21 20  1  6
 21 22  1  0
 23 21  1  0
 24 23  2  0
 25 23  1  0
M  END
$$$$
