RVS.pdb
     RDKit          3D

 25 24  0  0  1  0  0  0  0  0999 V2000
   29.1853  -22.5476  -15.7660 N   0  0  0  0  0  0  0  0  0  0  0  0
   29.1654  -22.6773  -17.1818 C   0  0  0  0  0  0  0  0  0  0  0  0
   29.6045  -23.7400  -17.7818 N   0  0  0  0  0  0  0  0  0  0  0  0
   28.6571  -21.6370  -18.0330 N   0  0  0  0  0  0  0  0  0  0  0  0
   27.9203  -20.5403  -17.5379 C   0  0  0  0  0  0  0  0  0  0  0  0
   27.3021  -20.5739  -16.2121 C   0  0  0  0  0  0  0  0  0  0  0  0
   26.5440  -19.4581  -15.6490 C   0  0  0  0  0  0  0  0  0  0  0  0
   26.0490  -18.4017  -16.5530 C   0  0  2  0  0  0  0  0  0  0  0  0
   26.9969  -17.3770  -16.8937 N   0  0  0  0  0  0  0  0  0  0  0  0
   24.8758  -17.6692  -15.9469 C   0  0  0  0  0  0  0  0  0  0  0  0
   25.0968  -16.7790  -15.1249 O   0  0  0  0  0  0  0  0  0  0  0  0
   29.6211  -23.8320  -18.8220 C   0  0  0  0  0  0  0  0  0  0  0  0
   21.1884  -16.7272  -17.8917 C   0  0  1  0  0  0  0  0  0  0  0  0
   21.8926  -16.2032  -16.6878 C   0  0  0  0  0  0  0  0  0  0  0  0
   23.0002  -15.2378  -17.0157 C   0  0  1  0  0  0  0  0  0  0  0  0
   22.3893  -17.3049  -15.7603 N   0  0  0  0  0  0  0  0  0  0  0  0
   23.5463  -17.9735  -16.2928 C   0  0  0  0  0  0  0  0  0  0  0  0
   21.3074  -18.2846  -15.4743 O   0  0  0  0  0  0  0  0  0  0  0  0
   21.0765  -19.2108  -16.3036 O   0  0  0  0  0  0  0  0  0  0  0  0
   18.6396  -18.1439  -12.0628 C   0  0  0  0  0  0  0  0  0  0  0  0
   19.1507  -19.3347  -12.5704 C   0  0  1  0  0  0  0  0  0  0  0  0
   19.4401  -19.1622  -14.0311 N   0  0  0  0  0  0  0  0  0  0  0  0
   20.5086  -18.2452  -14.3164 C   0  0  0  0  0  0  0  0  0  0  0  0
   18.2231  -18.8793  -14.8274 O   0  0  0  0  0  0  0  0  0  0  0  0
   18.0408  -17.8304  -15.4842 O   0  0  0  0  0  0  0  0  0  0  0  0
  2  1  1  0
  3  2  2  0
  4  2  1  0
  5  4  1  0
  6  5  1  0
  7  6  1  0
  8 10  1  0
  8  7  1  0
  8  9  1  1
 10 11  2  0
 13 12  1  1
 14 13  1  0
 15 13  1  0
 16 10  1  0
 15 16  1  6
 17 22  1  0
 17 15  1  0
 18 17  2  0
 19 20  1  0
 21 20  1  1
 21 22  1  0
 23 21  1  0
 24 23  2  0
 25 23  1  0
M  END
$$$$
