RVS.pdb
     RDKit          3D

 25 24  0  0  1  0  0  0  0  0999 V2000
   15.8473  -15.3336  -18.3300 N   0  0  0  0  0  0  0  0  0  0  0  0
   14.6519  -14.5650  -18.3775 C   0  0  0  0  0  0  0  0  0  0  0  0
   13.4931  -15.0770  -18.0998 N   0  0  0  0  0  0  0  0  0  0  0  0
   14.6572  -13.1735  -18.7364 N   0  0  0  0  0  0  0  0  0  0  0  0
   15.4906  -12.2271  -18.1035 C   0  0  0  0  0  0  0  0  0  0  0  0
   16.2662  -12.5713  -16.9116 C   0  0  0  0  0  0  0  0  0  0  0  0
   17.0996  -11.6122  -16.1889 C   0  0  0  0  0  0  0  0  0  0  0  0
   18.3085  -11.0781  -16.8458 C   0  0  2  0  0  0  0  0  0  0  0  0
   19.1083  -12.0374  -17.5563 N   0  0  0  0  0  0  0  0  0  0  0  0
   19.2444  -10.4501  -15.8408 C   0  0  0  0  0  0  0  0  0  0  0  0
   18.7997  -10.1367  -14.7358 O   0  0  0  0  0  0  0  0  0  0  0  0
   12.6181  -14.5074  -18.0758 C   0  0  0  0  0  0  0  0  0  0  0  0
   22.8312  -11.6915  -14.7965 C   0  0  1  0  0  0  0  0  0  0  0  0
   22.8904  -10.2722  -15.2459 C   0  0  0  0  0  0  0  0  0  0  0  0
   23.9143   -9.4530  -14.5063 C   0  0  2  0  0  0  0  0  0  0  0  0
   21.5312   -9.5844  -15.2315 N   0  0  0  0  0  0  0  0  0  0  0  0
   20.6012  -10.2149  -16.1298 C   0  0  0  0  0  0  0  0  0  0  0  0
   21.6657   -8.1382  -15.5520 O   0  0  0  0  0  0  0  0  0  0  0  0
   22.0663   -7.7939  -16.7008 O   0  0  0  0  0  0  0  0  0  0  0  0
   19.5521   -5.0580  -13.7011 C   0  0  0  0  0  0  0  0  0  0  0  0
   20.1242   -5.0062  -14.9688 C   0  0  1  0  0  0  0  0  0  0  0  0
   21.4497   -5.7057  -14.9388 N   0  0  0  0  0  0  0  0  0  0  0  0
   21.3696   -7.1085  -14.6396 C   0  0  0  0  0  0  0  0  0  0  0  0
   22.4496   -5.0038  -14.1006 O   0  0  0  0  0  0  0  0  0  0  0  0
   23.0358   -5.5212  -13.1241 O   0  0  0  0  0  0  0  0  0  0  0  0
  2  1  1  0
  3  2  2  0
  4  2  1  0
  5  4  1  0
  6  5  1  0
  7  6  1  0
  8 10  1  0
  8  7  1  0
  8  9  1  1
 10 11  2  0
 13 12  1  6
 14 13  1  0
 15 13  1  0
 16 10  1  0
 15 16  1  1
 17 22  1  0
 17 15  1  0
 18 17  2  0
 19 20  1  0
 21 20  1  6
 21 22  1  0
 23 21  1  0
 24 23  2  0
 25 23  1  0
M  END
$$$$
