RVS.pdb
     RDKit          3D

 25 24  0  0  1  0  0  0  0  0999 V2000
   14.9459  -15.2238  -13.1683 N   0  0  0  0  0  0  0  0  0  0  0  0
   16.0123  -14.3016  -13.3538 C   0  0  0  0  0  0  0  0  0  0  0  0
   17.2469  -14.6872  -13.4479 N   0  0  0  0  0  0  0  0  0  0  0  0
   15.7846  -12.8859  -13.4480 N   0  0  0  0  0  0  0  0  0  0  0  0
   14.8947  -12.1994  -12.5951 C   0  0  0  0  0  0  0  0  0  0  0  0
   13.6285  -11.6590  -13.0907 C   0  0  0  0  0  0  0  0  0  0  0  0
   13.4652  -10.2795  -13.5456 C   0  0  0  0  0  0  0  0  0  0  0  0
   12.7804   -9.3128  -12.6654 C   0  0  2  0  0  0  0  0  0  0  0  0
   11.6925   -8.5877  -13.2616 N   0  0  0  0  0  0  0  0  0  0  0  0
   13.7357   -8.2542  -12.1684 C   0  0  0  0  0  0  0  0  0  0  0  0
   13.9880   -7.2964  -12.9005 O   0  0  0  0  0  0  0  0  0  0  0  0
   18.0382  -14.0157  -13.5649 C   0  0  0  0  0  0  0  0  0  0  0  0
   13.8220   -6.5719   -8.5340 C   0  0  1  0  0  0  0  0  0  0  0  0
   15.1416   -7.1609   -8.8969 C   0  0  0  0  0  0  0  0  0  0  0  0
   16.3119   -6.3937   -8.3418 C   0  0  2  0  0  0  0  0  0  0  0  0
   15.3021   -7.3877  -10.3947 N   0  0  0  0  0  0  0  0  0  0  0  0
   14.3413   -8.3312  -10.9006 C   0  0  0  0  0  0  0  0  0  0  0  0
   16.6852   -7.8286  -10.7186 O   0  0  0  0  0  0  0  0  0  0  0  0
   17.0724   -8.9735  -10.3471 O   0  0  0  0  0  0  0  0  0  0  0  0
   20.6198   -7.7108  -13.3863 C   0  0  0  0  0  0  0  0  0  0  0  0
   19.3229   -7.2474  -13.1856 C   0  0  2  0  0  0  0  0  0  0  0  0
   18.9504   -7.4374  -11.7460 N   0  0  0  0  0  0  0  0  0  0  0  0
   17.6084   -7.0365  -11.4263 C   0  0  0  0  0  0  0  0  0  0  0  0
   19.9499   -6.8642  -10.8146 O   0  0  0  0  0  0  0  0  0  0  0  0
   19.8111   -5.7730  -10.2189 O   0  0  0  0  0  0  0  0  0  0  0  0
  2  1  1  0
  3  2  2  0
  4  2  1  0
  5  4  1  0
  6  5  1  0
  7  6  1  0
  8 10  1  0
  8  7  1  0
  8  9  1  6
 10 11  2  0
 13 12  1  1
 14 13  1  0
 15 13  1  0
 16 10  1  0
 15 16  1  6
 17 22  1  0
 17 15  1  0
 18 17  2  0
 19 20  1  0
 21 20  1  6
 21 22  1  0
 23 21  1  0
 24 23  2  0
 25 23  1  0
M  END
$$$$
