AEW.pdb
     RDKit          3D

 29 30  0  0  1  0  0  0  0  0999 V2000
   28.3405  -24.8683  -17.4484 C   0  0  0  0  0  0  0  0  0  0  0  0
   28.5968  -23.4050  -17.7413 C   0  0  2  0  0  0  0  0  0  0  0  0
   30.0289  -23.1931  -17.6974 N   0  0  0  0  0  0  0  0  0  0  0  0
   27.8891  -22.5065  -16.7908 C   0  0  0  0  0  0  0  0  0  0  0  0
   28.4451  -22.2627  -15.6935 O   0  0  0  0  0  0  0  0  0  0  0  0
   26.6433  -21.9298  -17.0683 N   0  0  0  0  0  0  0  0  0  0  0  0
   26.0113  -20.9657  -16.1306 C   0  0  1  0  0  0  0  0  0  0  0  0
   25.0877  -20.1296  -16.9663 C   0  0  0  0  0  0  0  0  0  0  0  0
   24.2357  -19.1699  -16.1891 C   0  0  0  0  0  0  0  0  0  0  0  0
   24.9836  -17.8817  -16.0410 C   0  0  0  0  0  0  0  0  0  0  0  0
   25.2012  -17.1349  -17.0219 O   0  0  0  0  0  0  0  0  0  0  0  0
   25.3652  -21.7017  -15.0285 C   0  0  0  0  0  0  0  0  0  0  0  0
   24.6465  -22.7036  -15.3331 O   0  0  0  0  0  0  0  0  0  0  0  0
   25.4592  -17.4788  -14.8009 O   0  0  0  0  0  0  0  0  0  0  0  0
   25.4618  -21.4144  -13.6557 N   0  0  0  0  0  0  0  0  0  0  0  0
   24.7918  -22.2212  -12.6148 C   0  0  1  0  0  0  0  0  0  0  0  0
   25.7596  -22.5084  -11.5234 C   0  0  0  0  0  0  0  0  0  0  0  0
   25.9923  -21.4032  -10.5720 C   0  0  0  0  0  0  0  0  0  0  0  0
   24.9631  -20.6153  -10.0311 C   0  0  0  0  0  0  0  0  0  0  0  0
   25.4744  -19.7146   -9.1760 N   0  0  0  0  0  0  0  0  0  0  0  0
   26.8145  -19.8593   -9.1151 C   0  0  0  0  0  0  0  0  0  0  0  0
   27.7725  -19.1756   -8.3956 C   0  0  0  0  0  0  0  0  0  0  0  0
   29.0900  -19.5504   -8.5488 C   0  0  0  0  0  0  0  0  0  0  0  0
   29.4099  -20.5935   -9.4134 C   0  0  0  0  0  0  0  0  0  0  0  0
   28.4462  -21.2701  -10.1273 C   0  0  0  0  0  0  0  0  0  0  0  0
   27.1219  -20.9014   -9.9790 C   0  0  0  0  0  0  0  0  0  0  0  0
   23.4992  -21.6699  -12.2488 C   0  0  0  0  0  0  0  0  0  0  0  0
   22.6071  -22.3628  -11.6444 O   0  0  0  0  0  0  0  0  0  0  0  0
   23.1230  -20.3628  -12.5141 O   0  0  0  0  0  0  0  0  0  0  0  0
  2  4  1  0
  2  1  1  1
  3  2  1  0
  4  5  2  0
  6  4  1  0
  6  7  1  0
  7  8  1  6
  9 10  1  0
  9  8  1  0
 10 11  2  0
 12 15  1  0
 12  7  1  0
 13 12  2  0
 14 10  1  0
 16 17  1  1
 16 15  1  0
 18 17  1  0
 19 18  2  0
 20 19  1  0
 21 26  2  0
 21 20  1  0
 22 21  1  0
 23 22  2  0
 23 24  1  0
 24 25  2  0
 25 26  1  0
 26 18  1  0
 27 16  1  0
 27 29  1  0
 28 27  2  0
M  END
$$$$
