AEW.pdb
     RDKit          3D

 29 30  0  0  1  0  0  0  0  0999 V2000
   20.5865  -17.3012  -13.8588 C   0  0  0  0  0  0  0  0  0  0  0  0
   20.1732  -18.6984  -14.2708 C   0  0  2  0  0  0  0  0  0  0  0  0
   18.8303  -18.9224  -13.7765 N   0  0  0  0  0  0  0  0  0  0  0  0
   21.1128  -19.7362  -13.7691 C   0  0  0  0  0  0  0  0  0  0  0  0
   20.9718  -20.1293  -12.5866 O   0  0  0  0  0  0  0  0  0  0  0  0
   22.1352  -20.2844  -14.5537 N   0  0  0  0  0  0  0  0  0  0  0  0
   22.9887  -21.3912  -14.0488 C   0  0  1  0  0  0  0  0  0  0  0  0
   23.2827  -22.2553  -15.2393 C   0  0  0  0  0  0  0  0  0  0  0  0
   24.2718  -23.3548  -14.9864 C   0  0  0  0  0  0  0  0  0  0  0  0
   23.5201  -24.5960  -14.6188 C   0  0  0  0  0  0  0  0  0  0  0  0
   22.2697  -24.6404  -14.6610 O   0  0  0  0  0  0  0  0  0  0  0  0
   24.1735  -20.8309  -13.3736 C   0  0  0  0  0  0  0  0  0  0  0  0
   24.5626  -19.6761  -13.7317 O   0  0  0  0  0  0  0  0  0  0  0  0
   24.1966  -25.7397  -14.2181 O   0  0  0  0  0  0  0  0  0  0  0  0
   24.9297  -21.4422  -12.3583 N   0  0  0  0  0  0  0  0  0  0  0  0
   26.1545  -20.8399  -11.7924 C   0  0  1  0  0  0  0  0  0  0  0  0
   26.0842  -20.8966  -10.3084 C   0  0  0  0  0  0  0  0  0  0  0  0
   27.3690  -20.7159   -9.6031 C   0  0  0  0  0  0  0  0  0  0  0  0
   28.6205  -20.9321  -10.2029 C   0  0  0  0  0  0  0  0  0  0  0  0
   29.6028  -20.6578   -9.3289 N   0  0  0  0  0  0  0  0  0  0  0  0
   29.0665  -20.2635   -8.1553 C   0  0  0  0  0  0  0  0  0  0  0  0
   29.6551  -19.8868   -6.9659 C   0  0  0  0  0  0  0  0  0  0  0  0
   28.8327  -19.5377   -5.9164 C   0  0  0  0  0  0  0  0  0  0  0  0
   27.4515  -19.5754   -6.0860 C   0  0  0  0  0  0  0  0  0  0  0  0
   26.8733  -19.9528   -7.2774 C   0  0  0  0  0  0  0  0  0  0  0  0
   27.6907  -20.3036   -8.3358 C   0  0  0  0  0  0  0  0  0  0  0  0
   27.3548  -21.3446  -12.4353 C   0  0  0  0  0  0  0  0  0  0  0  0
   28.5179  -20.8733  -12.1775 O   0  0  0  0  0  0  0  0  0  0  0  0
   27.3487  -22.3687  -13.3688 O   0  0  0  0  0  0  0  0  0  0  0  0
  2  4  1  0
  2  1  1  1
  3  2  1  0
  4  5  2  0
  6  4  1  0
  6  7  1  0
  7  8  1  6
  9 10  1  0
  9  8  1  0
 10 11  2  0
 12 15  1  0
 12  7  1  0
 13 12  2  0
 14 10  1  0
 16 17  1  1
 16 15  1  0
 18 17  1  0
 19 18  2  0
 20 19  1  0
 21 26  2  0
 21 20  1  0
 22 21  1  0
 23 22  2  0
 23 24  1  0
 24 25  2  0
 25 26  1  0
 26 18  1  0
 27 16  1  0
 27 29  1  0
 28 27  2  0
M  END
$$$$
