AEW.pdb
     RDKit          3D

 29 30  0  0  1  0  0  0  0  0999 V2000
   22.2637  -18.4381  -13.4387 C   0  0  0  0  0  0  0  0  0  0  0  0
   23.2688  -18.4807  -14.5705 C   0  0  2  0  0  0  0  0  0  0  0  0
   22.5532  -18.8328  -15.7796 N   0  0  0  0  0  0  0  0  0  0  0  0
   24.3792  -19.4333  -14.3040 C   0  0  0  0  0  0  0  0  0  0  0  0
   24.1411  -20.6581  -14.4302 O   0  0  0  0  0  0  0  0  0  0  0  0
   25.6628  -19.0229  -13.9226 N   0  0  0  0  0  0  0  0  0  0  0  0
   26.7426  -20.0083  -13.6561 C   0  0  1  0  0  0  0  0  0  0  0  0
   28.0256  -19.3100  -13.9978 C   0  0  0  0  0  0  0  0  0  0  0  0
   29.2406  -20.1902  -13.9852 C   0  0  0  0  0  0  0  0  0  0  0  0
   29.2979  -20.9410  -15.2789 C   0  0  0  0  0  0  0  0  0  0  0  0
   29.2509  -20.3496  -16.3813 O   0  0  0  0  0  0  0  0  0  0  0  0
   26.6409  -20.4865  -12.2652 C   0  0  0  0  0  0  0  0  0  0  0  0
   27.6592  -21.0567  -11.7641 O   0  0  0  0  0  0  0  0  0  0  0  0
   29.4057  -22.3247  -15.2893 O   0  0  0  0  0  0  0  0  0  0  0  0
   25.5246  -20.3757  -11.4179 N   0  0  0  0  0  0  0  0  0  0  0  0
   25.5287  -20.8399  -10.0151 C   0  0  1  0  0  0  0  0  0  0  0  0
   26.7707  -20.3664   -9.3492 C   0  0  0  0  0  0  0  0  0  0  0  0
   26.7628  -20.4229   -7.8735 C   0  0  0  0  0  0  0  0  0  0  0  0
   25.6712  -20.8857   -7.1207 C   0  0  0  0  0  0  0  0  0  0  0  0
   25.9676  -20.8500   -5.8111 N   0  0  0  0  0  0  0  0  0  0  0  0
   27.2208  -20.3792   -5.6440 C   0  0  0  0  0  0  0  0  0  0  0  0
   27.9648  -20.1543   -4.5044 C   0  0  0  0  0  0  0  0  0  0  0  0
   29.2386  -19.6484   -4.6498 C   0  0  0  0  0  0  0  0  0  0  0  0
   29.7293  -19.3828   -5.9253 C   0  0  0  0  0  0  0  0  0  0  0  0
   28.9787  -19.6107   -7.0570 C   0  0  0  0  0  0  0  0  0  0  0  0
   27.7003  -20.1191   -6.9205 C   0  0  0  0  0  0  0  0  0  0  0  0
   24.2622  -20.5807   -9.3537 C   0  0  0  0  0  0  0  0  0  0  0  0
   23.4484  -19.6805   -9.7643 O   0  0  0  0  0  0  0  0  0  0  0  0
   23.8263  -21.2771   -8.2377 O   0  0  0  0  0  0  0  0  0  0  0  0
  2  4  1  0
  2  1  1  1
  3  2  1  0
  4  5  2  0
  6  4  1  0
  6  7  1  0
  7  8  1  1
  9 10  1  0
  9  8  1  0
 10 11  2  0
 12 15  1  0
 12  7  1  0
 13 12  2  0
 14 10  1  0
 16 17  1  1
 16 15  1  0
 18 17  1  0
 19 18  2  0
 20 19  1  0
 21 26  2  0
 21 20  1  0
 22 21  1  0
 23 22  2  0
 23 24  1  0
 24 25  2  0
 25 26  1  0
 26 18  1  0
 27 16  1  0
 27 29  1  0
 28 27  2  0
M  END
$$$$
