AEW.pdb
     RDKit          3D

 29 30  0  0  1  0  0  0  0  0999 V2000
   30.0179  -20.5096  -17.9914 C   0  0  0  0  0  0  0  0  0  0  0  0
   28.7074  -19.8527  -18.3710 C   0  0  2  0  0  0  0  0  0  0  0  0
   29.0192  -18.6450  -19.1073 N   0  0  0  0  0  0  0  0  0  0  0  0
   27.8594  -19.5579  -17.1854 C   0  0  0  0  0  0  0  0  0  0  0  0
   28.3657  -18.8814  -16.2588 O   0  0  0  0  0  0  0  0  0  0  0  0
   26.5360  -19.9999  -17.0639 N   0  0  0  0  0  0  0  0  0  0  0  0
   25.6973  -19.6190  -15.8979 C   0  0  1  0  0  0  0  0  0  0  0  0
   24.4327  -19.0526  -16.4727 C   0  0  0  0  0  0  0  0  0  0  0  0
   23.3346  -18.8318  -15.4744 C   0  0  0  0  0  0  0  0  0  0  0  0
   23.1931  -17.3602  -15.2402 C   0  0  0  0  0  0  0  0  0  0  0  0
   23.4465  -16.5271  -16.1396 O   0  0  0  0  0  0  0  0  0  0  0  0
   25.5168  -20.7881  -15.0180 C   0  0  0  0  0  0  0  0  0  0  0  0
   25.1499  -21.8781  -15.5570 O   0  0  0  0  0  0  0  0  0  0  0  0
   22.7735  -16.8773  -14.0084 O   0  0  0  0  0  0  0  0  0  0  0  0
   25.7129  -20.8308  -13.6265 N   0  0  0  0  0  0  0  0  0  0  0  0
   25.4636  -22.0400  -12.8146 C   0  0  1  0  0  0  0  0  0  0  0  0
   26.5154  -22.1502  -11.7697 C   0  0  0  0  0  0  0  0  0  0  0  0
   26.3229  -21.2962  -10.5804 C   0  0  0  0  0  0  0  0  0  0  0  0
   25.1214  -20.6292  -10.2904 C   0  0  0  0  0  0  0  0  0  0  0  0
   25.2357  -19.9586   -9.1323 N   0  0  0  0  0  0  0  0  0  0  0  0
   26.4712  -20.1436   -8.6229 C   0  0  0  0  0  0  0  0  0  0  0  0
   27.0637  -19.6635   -7.4734 C   0  0  0  0  0  0  0  0  0  0  0  0
   28.3692  -20.0232   -7.2168 C   0  0  0  0  0  0  0  0  0  0  0  0
   29.0416  -20.8490   -8.1134 C   0  0  0  0  0  0  0  0  0  0  0  0
   28.4415  -21.3233   -9.2584 C   0  0  0  0  0  0  0  0  0  0  0  0
   27.1318  -20.9683   -9.5232 C   0  0  0  0  0  0  0  0  0  0  0  0
   24.0767  -22.1359  -12.3952 C   0  0  0  0  0  0  0  0  0  0  0  0
   23.5679  -23.2289  -11.9616 O   0  0  0  0  0  0  0  0  0  0  0  0
   23.1942  -21.0678  -12.4229 O   0  0  0  0  0  0  0  0  0  0  0  0
  2  4  1  0
  2  1  1  1
  3  2  1  0
  4  5  2  0
  6  4  1  0
  6  7  1  0
  7  8  1  6
  9 10  1  0
  9  8  1  0
 10 11  2  0
 12 15  1  0
 12  7  1  0
 13 12  2  0
 14 10  1  0
 16 17  1  1
 16 15  1  0
 18 17  1  0
 19 18  2  0
 20 19  1  0
 21 26  2  0
 21 20  1  0
 22 21  1  0
 23 22  2  0
 23 24  1  0
 24 25  2  0
 25 26  1  0
 26 18  1  0
 27 16  1  0
 27 29  1  0
 28 27  2  0
M  END
$$$$
