AEW.pdb
     RDKit          3D

 29 30  0  0  1  0  0  0  0  0999 V2000
   30.3158  -18.4215  -13.5239 C   0  0  0  0  0  0  0  0  0  0  0  0
   29.4636  -18.8771  -14.6895 C   0  0  2  0  0  0  0  0  0  0  0  0
   29.4405  -17.8038  -15.6619 N   0  0  0  0  0  0  0  0  0  0  0  0
   28.0876  -19.2543  -14.2696 C   0  0  0  0  0  0  0  0  0  0  0  0
   27.2466  -18.3345  -14.1307 O   0  0  0  0  0  0  0  0  0  0  0  0
   27.6991  -20.5776  -14.0262 N   0  0  0  0  0  0  0  0  0  0  0  0
   26.3253  -20.9081  -13.5663 C   0  0  1  0  0  0  0  0  0  0  0  0
   25.8930  -22.0872  -14.3868 C   0  0  0  0  0  0  0  0  0  0  0  0
   24.4402  -22.4397  -14.2603 C   0  0  0  0  0  0  0  0  0  0  0  0
   24.3247  -23.7076  -13.4731 C   0  0  0  0  0  0  0  0  0  0  0  0
   24.8745  -24.7662  -13.8532 O   0  0  0  0  0  0  0  0  0  0  0  0
   26.3334  -21.1285  -12.1085 C   0  0  0  0  0  0  0  0  0  0  0  0
   27.3820  -21.6293  -11.5959 O   0  0  0  0  0  0  0  0  0  0  0  0
   23.5987  -23.7423  -12.2908 O   0  0  0  0  0  0  0  0  0  0  0  0
   25.2932  -20.8372  -11.2087 N   0  0  0  0  0  0  0  0  0  0  0  0
   25.3733  -21.1303   -9.7627 C   0  0  1  0  0  0  0  0  0  0  0  0
   26.6352  -20.5619   -9.2198 C   0  0  0  0  0  0  0  0  0  0  0  0
   26.7236  -20.5004   -7.7470 C   0  0  0  0  0  0  0  0  0  0  0  0
   25.7457  -21.0286   -6.8883 C   0  0  0  0  0  0  0  0  0  0  0  0
   26.1139  -20.8528   -5.6086 N   0  0  0  0  0  0  0  0  0  0  0  0
   27.3065  -20.2234   -5.5639 C   0  0  0  0  0  0  0  0  0  0  0  0
   28.0842  -19.8204   -4.4982 C   0  0  0  0  0  0  0  0  0  0  0  0
   29.2738  -19.1789   -4.7684 C   0  0  0  0  0  0  0  0  0  0  0  0
   29.6495  -18.9598   -6.0908 C   0  0  0  0  0  0  0  0  0  0  0  0
   28.8663  -19.3659   -7.1480 C   0  0  0  0  0  0  0  0  0  0  0  0
   27.6718  -20.0111   -6.8862 C   0  0  0  0  0  0  0  0  0  0  0  0
   24.1343  -20.8130   -9.0750 C   0  0  0  0  0  0  0  0  0  0  0  0
   23.3397  -19.8960   -9.4864 O   0  0  0  0  0  0  0  0  0  0  0  0
   23.7060  -21.4674   -7.9310 O   0  0  0  0  0  0  0  0  0  0  0  0
  2  4  1  0
  2  1  1  1
  3  2  1  0
  4  5  2  0
  6  4  1  0
  6  7  1  0
  7  8  1  6
  9 10  1  0
  9  8  1  0
 10 11  2  0
 12 15  1  0
 12  7  1  0
 13 12  2  0
 14 10  1  0
 16 17  1  1
 16 15  1  0
 18 17  1  0
 19 18  2  0
 20 19  1  0
 21 26  2  0
 21 20  1  0
 22 21  1  0
 23 22  2  0
 23 24  1  0
 24 25  2  0
 25 26  1  0
 26 18  1  0
 27 16  1  0
 27 29  1  0
 28 27  2  0
M  END
$$$$
