AEW.pdb
     RDKit          3D

 29 30  0  0  1  0  0  0  0  0999 V2000
   27.3160  -27.7219  -15.2686 C   0  0  0  0  0  0  0  0  0  0  0  0
   26.9335  -27.5824  -16.7270 C   0  0  2  0  0  0  0  0  0  0  0  0
   28.1581  -27.5318  -17.4988 N   0  0  0  0  0  0  0  0  0  0  0  0
   26.0884  -26.3845  -16.9771 C   0  0  0  0  0  0  0  0  0  0  0  0
   26.6692  -25.3040  -17.2373 O   0  0  0  0  0  0  0  0  0  0  0  0
   24.6889  -26.4145  -16.9338 N   0  0  0  0  0  0  0  0  0  0  0  0
   23.8819  -25.1853  -17.1483 C   0  0  1  0  0  0  0  0  0  0  0  0
   22.6083  -25.6414  -17.7964 C   0  0  0  0  0  0  0  0  0  0  0  0
   21.6245  -24.5458  -18.0842 C   0  0  0  0  0  0  0  0  0  0  0  0
   20.3915  -25.1560  -18.6743 C   0  0  0  0  0  0  0  0  0  0  0  0
   19.9133  -24.7480  -19.7569 O   0  0  0  0  0  0  0  0  0  0  0  0
   23.7137  -24.4765  -15.8665 C   0  0  0  0  0  0  0  0  0  0  0  0
   23.4484  -25.1749  -14.8394 O   0  0  0  0  0  0  0  0  0  0  0  0
   19.7412  -26.1993  -18.0302 O   0  0  0  0  0  0  0  0  0  0  0  0
   23.8199  -23.0912  -15.6520 N   0  0  0  0  0  0  0  0  0  0  0  0
   23.6392  -22.4652  -14.3258 C   0  0  1  0  0  0  0  0  0  0  0  0
   24.9242  -21.8526  -13.8973 C   0  0  0  0  0  0  0  0  0  0  0  0
   25.4539  -20.7980  -14.7850 C   0  0  0  0  0  0  0  0  0  0  0  0
   24.9288  -19.4966  -14.8429 C   0  0  0  0  0  0  0  0  0  0  0  0
   25.6329  -18.7550  -15.7137 N   0  0  0  0  0  0  0  0  0  0  0  0
   26.6179  -19.5036  -16.2519 C   0  0  0  0  0  0  0  0  0  0  0  0
   27.5861  -19.1993  -17.1862 C   0  0  0  0  0  0  0  0  0  0  0  0
   28.4673  -20.1927  -17.5553 C   0  0  0  0  0  0  0  0  0  0  0  0
   28.3551  -21.4563  -16.9820 C   0  0  0  0  0  0  0  0  0  0  0  0
   27.3851  -21.7504  -16.0500 C   0  0  0  0  0  0  0  0  0  0  0  0
   26.4976  -20.7596  -15.6731 C   0  0  0  0  0  0  0  0  0  0  0  0
   22.4435  -21.6430  -14.2720 C   0  0  0  0  0  0  0  0  0  0  0  0
   22.0117  -21.1355  -13.1777 O   0  0  0  0  0  0  0  0  0  0  0  0
   21.6765  -21.3358  -15.3845 O   0  0  0  0  0  0  0  0  0  0  0  0
  2  4  1  0
  2  1  1  1
  3  2  1  0
  4  5  2  0
  6  4  1  0
  6  7  1  0
  7  8  1  1
  9 10  1  0
  9  8  1  0
 10 11  2  0
 12 15  1  0
 12  7  1  0
 13 12  2  0
 14 10  1  0
 16 17  1  6
 16 15  1  0
 18 17  1  0
 19 18  2  0
 20 19  1  0
 21 26  2  0
 21 20  1  0
 22 21  1  0
 23 22  2  0
 23 24  1  0
 24 25  2  0
 25 26  1  0
 26 18  1  0
 27 16  1  0
 27 29  1  0
 28 27  2  0
M  END
$$$$
