AEW.pdb
     RDKit          3D

 29 30  0  0  1  0  0  0  0  0999 V2000
   27.5379  -25.7985  -17.1718 C   0  0  0  0  0  0  0  0  0  0  0  0
   27.2701  -24.4210  -17.7406 C   0  0  2  0  0  0  0  0  0  0  0  0
   28.3154  -24.1320  -18.7007 N   0  0  0  0  0  0  0  0  0  0  0  0
   27.2046  -23.3767  -16.6838 C   0  0  0  0  0  0  0  0  0  0  0  0
   27.8887  -23.5508  -15.6473 O   0  0  0  0  0  0  0  0  0  0  0  0
   26.4198  -22.2223  -16.7982 N   0  0  0  0  0  0  0  0  0  0  0  0
   26.4446  -21.1637  -15.7557 C   0  0  1  0  0  0  0  0  0  0  0  0
   26.3571  -19.8612  -16.4947 C   0  0  0  0  0  0  0  0  0  0  0  0
   26.2254  -18.6510  -15.6178 C   0  0  0  0  0  0  0  0  0  0  0  0
   27.5794  -18.2993  -15.0854 C   0  0  0  0  0  0  0  0  0  0  0  0
   28.5881  -18.2761  -15.8265 O   0  0  0  0  0  0  0  0  0  0  0  0
   25.3640  -21.4055  -14.7823 C   0  0  0  0  0  0  0  0  0  0  0  0
   24.2275  -21.7430  -15.2379 O   0  0  0  0  0  0  0  0  0  0  0  0
   27.7526  -17.9869  -13.7442 O   0  0  0  0  0  0  0  0  0  0  0  0
   25.4556  -21.3057  -13.3829 N   0  0  0  0  0  0  0  0  0  0  0  0
   24.3204  -21.5853  -12.4794 C   0  0  1  0  0  0  0  0  0  0  0  0
   24.8422  -22.1074  -11.1890 C   0  0  0  0  0  0  0  0  0  0  0  0
   25.7771  -21.2161  -10.4732 C   0  0  0  0  0  0  0  0  0  0  0  0
   25.3747  -20.2998   -9.4878 C   0  0  0  0  0  0  0  0  0  0  0  0
   26.4448  -19.6546   -8.9953 N   0  0  0  0  0  0  0  0  0  0  0  0
   27.5616  -20.0972   -9.6096 C   0  0  0  0  0  0  0  0  0  0  0  0
   28.8859  -19.7421   -9.4580 C   0  0  0  0  0  0  0  0  0  0  0  0
   29.8221  -20.3738  -10.2481 C   0  0  0  0  0  0  0  0  0  0  0  0
   29.4085  -21.3380  -11.1630 C   0  0  0  0  0  0  0  0  0  0  0  0
   28.0839  -21.6857  -11.3069 C   0  0  0  0  0  0  0  0  0  0  0  0
   27.1382  -21.0579  -10.5177 C   0  0  0  0  0  0  0  0  0  0  0  0
   23.3778  -20.4815  -12.4342 C   0  0  0  0  0  0  0  0  0  0  0  0
   23.6498  -19.3300  -12.9256 O   0  0  0  0  0  0  0  0  0  0  0  0
   22.1171  -20.5759  -11.8667 O   0  0  0  0  0  0  0  0  0  0  0  0
  2  4  1  0
  2  1  1  1
  3  2  1  0
  4  5  2  0
  6  4  1  0
  6  7  1  0
  7  8  1  6
  9 10  1  0
  9  8  1  0
 10 11  2  0
 12 15  1  0
 12  7  1  0
 13 12  2  0
 14 10  1  0
 16 17  1  1
 16 15  1  0
 18 17  1  0
 19 18  2  0
 20 19  1  0
 21 26  2  0
 21 20  1  0
 22 21  1  0
 23 22  2  0
 23 24  1  0
 24 25  2  0
 25 26  1  0
 26 18  1  0
 27 16  1  0
 27 29  1  0
 28 27  2  0
M  END
$$$$
