AEW.pdb
     RDKit          3D

 29 30  0  0  1  0  0  0  0  0999 V2000
   21.6694  -19.3450  -13.0284 C   0  0  0  0  0  0  0  0  0  0  0  0
   22.6341  -19.2116  -14.1879 C   0  0  2  0  0  0  0  0  0  0  0  0
   21.9740  -19.7277  -15.3694 N   0  0  0  0  0  0  0  0  0  0  0  0
   23.9195  -19.9162  -13.9370 C   0  0  0  0  0  0  0  0  0  0  0  0
   23.8924  -21.1669  -13.8487 O   0  0  0  0  0  0  0  0  0  0  0  0
   25.1423  -19.2479  -13.7968 N   0  0  0  0  0  0  0  0  0  0  0  0
   26.4023  -19.9887  -13.5291 C   0  0  1  0  0  0  0  0  0  0  0  0
   27.5130  -19.0571  -13.9148 C   0  0  0  0  0  0  0  0  0  0  0  0
   28.7945  -19.7357  -14.2999 C   0  0  0  0  0  0  0  0  0  0  0  0
   28.6023  -20.3968  -15.6290 C   0  0  0  0  0  0  0  0  0  0  0  0
   28.2986  -19.7385  -16.6495 O   0  0  0  0  0  0  0  0  0  0  0  0
   26.4208  -20.4381  -12.1250 C   0  0  0  0  0  0  0  0  0  0  0  0
   27.1628  -21.4271  -11.8344 O   0  0  0  0  0  0  0  0  0  0  0  0
   28.7574  -21.7694  -15.7650 O   0  0  0  0  0  0  0  0  0  0  0  0
   25.6991  -19.8812  -11.0548 N   0  0  0  0  0  0  0  0  0  0  0  0
   25.7296  -20.4377   -9.6864 C   0  0  1  0  0  0  0  0  0  0  0  0
   26.8455  -19.8105   -8.9304 C   0  0  0  0  0  0  0  0  0  0  0  0
   26.9539  -20.2050   -7.5114 C   0  0  0  0  0  0  0  0  0  0  0  0
   26.0905  -21.1247   -6.8938 C   0  0  0  0  0  0  0  0  0  0  0  0
   26.4528  -21.3071   -5.6133 N   0  0  0  0  0  0  0  0  0  0  0  0
   27.5309  -20.5449   -5.3357 C   0  0  0  0  0  0  0  0  0  0  0  0
   28.2568  -20.3827   -4.1739 C   0  0  0  0  0  0  0  0  0  0  0  0
   29.3234  -19.5100   -4.1912 C   0  0  0  0  0  0  0  0  0  0  0  0
   29.6318  -18.8274   -5.3647 C   0  0  0  0  0  0  0  0  0  0  0  0
   28.9010  -18.9961   -6.5195 C   0  0  0  0  0  0  0  0  0  0  0  0
   27.8301  -19.8704   -6.5115 C   0  0  0  0  0  0  0  0  0  0  0  0
   24.4132  -20.4444   -9.0734 C   0  0  0  0  0  0  0  0  0  0  0  0
   23.4613  -19.6951   -9.4903 O   0  0  0  0  0  0  0  0  0  0  0  0
   24.0738  -21.2533   -8.0006 O   0  0  0  0  0  0  0  0  0  0  0  0
  2  4  1  0
  2  1  1  1
  3  2  1  0
  4  5  2  0
  6  4  1  0
  6  7  1  0
  7  8  1  1
  9 10  1  0
  9  8  1  0
 10 11  2  0
 12 15  1  0
 12  7  1  0
 13 12  2  0
 14 10  1  0
 16 17  1  1
 16 15  1  0
 18 17  1  0
 19 18  2  0
 20 19  1  0
 21 26  2  0
 21 20  1  0
 22 21  1  0
 23 22  2  0
 23 24  1  0
 24 25  2  0
 25 26  1  0
 26 18  1  0
 27 16  1  0
 27 29  1  0
 28 27  2  0
M  END
$$$$
