AEW.pdb
     RDKit          3D

 29 30  0  0  1  0  0  0  0  0999 V2000
   29.2383  -18.8153  -14.6510 C   0  0  0  0  0  0  0  0  0  0  0  0
   27.9535  -19.3267  -15.2678 C   0  0  2  0  0  0  0  0  0  0  0  0
   27.6465  -18.4832  -16.4046 N   0  0  0  0  0  0  0  0  0  0  0  0
   26.8297  -19.3495  -14.2940 C   0  0  0  0  0  0  0  0  0  0  0  0
   26.5360  -18.2763  -13.7157 O   0  0  0  0  0  0  0  0  0  0  0  0
   26.0964  -20.5062  -14.0009 N   0  0  0  0  0  0  0  0  0  0  0  0
   25.0639  -20.5173  -12.9323 C   0  0  1  0  0  0  0  0  0  0  0  0
   23.9979  -21.4612  -13.4048 C   0  0  0  0  0  0  0  0  0  0  0  0
   22.8005  -21.5547  -12.5057 C   0  0  0  0  0  0  0  0  0  0  0  0
   21.9181  -20.3734  -12.7636 C   0  0  0  0  0  0  0  0  0  0  0  0
   22.2721  -19.2127  -12.4561 O   0  0  0  0  0  0  0  0  0  0  0  0
   25.6900  -20.8729  -11.6458 C   0  0  0  0  0  0  0  0  0  0  0  0
   26.4769  -21.8698  -11.6311 O   0  0  0  0  0  0  0  0  0  0  0  0
   20.6734  -20.5364  -13.3556 O   0  0  0  0  0  0  0  0  0  0  0  0
   25.5121  -20.2174  -10.4149 N   0  0  0  0  0  0  0  0  0  0  0  0
   26.1387  -20.6784   -9.1587 C   0  0  1  0  0  0  0  0  0  0  0  0
   26.9954  -19.5920   -8.6145 C   0  0  0  0  0  0  0  0  0  0  0  0
   28.0834  -20.0288   -7.7166 C   0  0  0  0  0  0  0  0  0  0  0  0
   29.0598  -20.9701   -8.0817 C   0  0  0  0  0  0  0  0  0  0  0  0
   29.9323  -21.1415   -7.0750 N   0  0  0  0  0  0  0  0  0  0  0  0
   29.5857  -20.3523   -6.0371 C   0  0  0  0  0  0  0  0  0  0  0  0
   30.1568  -20.1804   -4.7932 C   0  0  0  0  0  0  0  0  0  0  0  0
   29.5616  -19.2931   -3.9225 C   0  0  0  0  0  0  0  0  0  0  0  0
   28.4173  -18.6066   -4.3191 C   0  0  0  0  0  0  0  0  0  0  0  0
   27.8546  -18.7850   -5.5631 C   0  0  0  0  0  0  0  0  0  0  0  0
   28.4457  -19.6723   -6.4434 C   0  0  0  0  0  0  0  0  0  0  0  0
   25.1742  -21.2951   -8.2652 C   0  0  0  0  0  0  0  0  0  0  0  0
   25.5237  -21.8763   -7.1783 O   0  0  0  0  0  0  0  0  0  0  0  0
   23.8092  -21.3058   -8.5042 O   0  0  0  0  0  0  0  0  0  0  0  0
  2  4  1  0
  2  1  1  1
  3  2  1  0
  4  5  2  0
  6  4  1  0
  6  7  1  0
  7  8  1  6
  9 10  1  0
  9  8  1  0
 10 11  2  0
 12 15  1  0
 12  7  1  0
 13 12  2  0
 14 10  1  0
 16 17  1  1
 16 15  1  0
 18 17  1  0
 19 18  2  0
 20 19  1  0
 21 26  2  0
 21 20  1  0
 22 21  1  0
 23 22  2  0
 23 24  1  0
 24 25  2  0
 25 26  1  0
 26 18  1  0
 27 16  1  0
 27 29  1  0
 28 27  2  0
M  END
$$$$
