AEW.pdb
     RDKit          3D

 29 30  0  0  1  0  0  0  0  0999 V2000
   19.0973  -20.9448  -11.6239 C   0  0  0  0  0  0  0  0  0  0  0  0
   19.9259  -21.2504  -12.8539 C   0  0  2  0  0  0  0  0  0  0  0  0
   19.1804  -22.1936  -13.6618 N   0  0  0  0  0  0  0  0  0  0  0  0
   21.2723  -21.7804  -12.5103 C   0  0  0  0  0  0  0  0  0  0  0  0
   21.3448  -22.6535  -11.6130 O   0  0  0  0  0  0  0  0  0  0  0  0
   22.4465  -21.3491  -13.1401 N   0  0  0  0  0  0  0  0  0  0  0  0
   23.7770  -21.8765  -12.7404 C   0  0  1  0  0  0  0  0  0  0  0  0
   24.5552  -22.0279  -14.0139 C   0  0  0  0  0  0  0  0  0  0  0  0
   25.9933  -22.4126  -13.8274 C   0  0  0  0  0  0  0  0  0  0  0  0
   26.6522  -22.4572  -15.1707 C   0  0  0  0  0  0  0  0  0  0  0  0
   26.2513  -23.2294  -16.0708 O   0  0  0  0  0  0  0  0  0  0  0  0
   24.3823  -20.9790  -11.7394 C   0  0  0  0  0  0  0  0  0  0  0  0
   24.2654  -19.7280  -11.9251 O   0  0  0  0  0  0  0  0  0  0  0  0
   27.7343  -21.6360  -15.4552 O   0  0  0  0  0  0  0  0  0  0  0  0
   25.0823  -21.3615  -10.5818 N   0  0  0  0  0  0  0  0  0  0  0  0
   25.8874  -20.4182   -9.7786 C   0  0  1  0  0  0  0  0  0  0  0  0
   26.0614  -20.9700   -8.4091 C   0  0  0  0  0  0  0  0  0  0  0  0
   26.8886  -20.1565   -7.4955 C   0  0  0  0  0  0  0  0  0  0  0  0
   26.9383  -18.7534   -7.5358 C   0  0  0  0  0  0  0  0  0  0  0  0
   27.7479  -18.2940   -6.5676 N   0  0  0  0  0  0  0  0  0  0  0  0
   28.2524  -19.3326   -5.8696 C   0  0  0  0  0  0  0  0  0  0  0  0
   29.1233  -19.3743   -4.8006 C   0  0  0  0  0  0  0  0  0  0  0  0
   29.4715  -20.6081   -4.2945 C   0  0  0  0  0  0  0  0  0  0  0  0
   28.9412  -21.7596   -4.8698 C   0  0  0  0  0  0  0  0  0  0  0  0
   28.0724  -21.7076   -5.9368 C   0  0  0  0  0  0  0  0  0  0  0  0
   27.7168  -20.4741   -6.4502 C   0  0  0  0  0  0  0  0  0  0  0  0
   27.0744  -19.9761  -10.4887 C   0  0  0  0  0  0  0  0  0  0  0  0
   27.4278  -18.7453  -10.5293 O   0  0  0  0  0  0  0  0  0  0  0  0
   27.9201  -20.8350  -11.1724 O   0  0  0  0  0  0  0  0  0  0  0  0
  2  4  1  0
  2  1  1  1
  3  2  1  0
  4  5  2  0
  6  4  1  0
  6  7  1  0
  7  8  1  6
  9 10  1  0
  9  8  1  0
 10 11  2  0
 12 15  1  0
 12  7  1  0
 13 12  2  0
 14 10  1  0
 16 17  1  1
 16 15  1  0
 18 17  1  0
 19 18  2  0
 20 19  1  0
 21 26  2  0
 21 20  1  0
 22 21  1  0
 23 22  2  0
 23 24  1  0
 24 25  2  0
 25 26  1  0
 26 18  1  0
 27 16  1  0
 27 29  1  0
 28 27  2  0
M  END
$$$$
