AVK.pdb
     RDKit          3D

 22 21  0  0  1  0  0  0  0  0999 V2000
   26.4670  -20.9643  -14.8259 C   0  0  0  0  0  0  0  0  0  0  0  0
   25.2536  -21.8491  -14.6761 C   0  0  2  0  0  0  0  0  0  0  0  0
   24.8642  -22.4943  -15.8986 N   0  0  0  0  0  0  0  0  0  0  0  0
   24.0906  -21.0865  -14.1372 C   0  0  0  0  0  0  0  0  0  0  0  0
   24.1633  -20.4333  -13.0601 O   0  0  0  0  0  0  0  0  0  0  0  0
   20.1071  -18.5491  -14.6712 C   0  0  0  0  0  0  0  0  0  0  0  0
   21.2943  -19.2812  -15.2640 C   0  0  1  0  0  0  0  0  0  0  0  0
   22.4499  -18.2990  -15.3432 C   0  0  0  0  0  0  0  0  0  0  0  0
   21.6807  -20.3724  -14.2923 C   0  0  2  0  0  0  0  0  0  0  0  0
   22.8266  -21.0487  -14.8054 N   0  0  0  0  0  0  0  0  0  0  0  0
   20.5606  -21.2595  -13.9572 C   0  0  0  0  0  0  0  0  0  0  0  0
   19.9083  -21.7696  -14.9016 O   0  0  0  0  0  0  0  0  0  0  0  0
   20.1859  -21.5631  -12.6235 N   0  0  0  0  0  0  0  0  0  0  0  0
   19.1350  -22.5306  -12.3015 C   0  0  1  0  0  0  0  0  0  0  0  0
   19.1186  -22.8120  -10.8135 C   0  0  0  0  0  0  0  0  0  0  0  0
   18.1151  -23.8642  -10.4183 C   0  0  0  0  0  0  0  0  0  0  0  0
   18.7731  -24.9329   -9.5676 C   0  0  0  0  0  0  0  0  0  0  0  0
   17.7049  -25.9354   -9.1423 C   0  0  0  0  0  0  0  0  0  0  0  0
   18.3468  -27.0310   -8.4843 N   0  0  0  0  0  0  0  0  0  0  0  0
   17.8314  -22.0570  -12.8164 C   0  0  0  0  0  0  0  0  0  0  0  0
   17.5782  -20.8278  -12.7556 O   0  0  0  0  0  0  0  0  0  0  0  0
   16.8570  -22.8699  -13.3667 O   0  0  0  0  0  0  0  0  0  0  0  0
  2  4  1  0
  2  3  1  0
  2  1  1  6
  4  5  2  0
  7  6  1  1
  7  8  1  0
  7  9  1  0
  9 11  1  0
 10  4  1  0
  9 10  1  6
 11 12  2  0
 11 13  1  0
 13 14  1  0
 14 15  1  1
 15 16  1  0
 16 17  1  0
 17 18  1  0
 19 18  1  0
 20 22  1  0
 20 14  1  0
 21 20  2  0
M  END
$$$$
