AVK.pdb
     RDKit          3D

 22 21  0  0  1  0  0  0  0  0999 V2000
   16.5208  -11.0393  -15.9201 C   0  0  0  0  0  0  0  0  0  0  0  0
   18.0028  -11.0266  -15.6358 C   0  0  2  0  0  0  0  0  0  0  0  0
   18.6064  -12.3282  -15.6985 N   0  0  0  0  0  0  0  0  0  0  0  0
   18.2937  -10.4196  -14.3048 C   0  0  0  0  0  0  0  0  0  0  0  0
   18.1724  -11.0742  -13.2330 O   0  0  0  0  0  0  0  0  0  0  0  0
   21.3873   -8.6714  -13.3598 C   0  0  0  0  0  0  0  0  0  0  0  0
   20.2951   -7.6761  -13.0238 C   0  0  1  0  0  0  0  0  0  0  0  0
   20.1601   -6.7242  -14.1995 C   0  0  0  0  0  0  0  0  0  0  0  0
   19.0024   -8.4500  -12.9048 C   0  0  2  0  0  0  0  0  0  0  0  0
   18.7263   -9.0638  -14.1620 N   0  0  0  0  0  0  0  0  0  0  0  0
   17.8990   -7.6381  -12.3784 C   0  0  0  0  0  0  0  0  0  0  0  0
   17.2421   -6.9383  -13.1884 O   0  0  0  0  0  0  0  0  0  0  0  0
   17.5452   -7.6100  -11.0052 N   0  0  0  0  0  0  0  0  0  0  0  0
   16.4242   -6.8170  -10.4969 C   0  0  1  0  0  0  0  0  0  0  0  0
   16.0248   -7.2968   -9.1170 C   0  0  0  0  0  0  0  0  0  0  0  0
   14.9683   -6.4382   -8.4715 C   0  0  0  0  0  0  0  0  0  0  0  0
   13.8151   -7.2925   -7.9826 C   0  0  0  0  0  0  0  0  0  0  0  0
   12.7671   -6.3759   -7.3593 C   0  0  0  0  0  0  0  0  0  0  0  0
   11.6592   -7.1750   -6.9359 N   0  0  0  0  0  0  0  0  0  0  0  0
   16.7602   -5.3768  -10.5350 C   0  0  0  0  0  0  0  0  0  0  0  0
   17.9304   -5.0303  -10.2361 O   0  0  0  0  0  0  0  0  0  0  0  0
   15.8778   -4.3686  -10.8784 O   0  0  0  0  0  0  0  0  0  0  0  0
  2  4  1  0
  2  3  1  0
  2  1  1  1
  4  5  2  0
  7  6  1  6
  7  8  1  0
  7  9  1  0
  9 11  1  0
 10  4  1  0
  9 10  1  6
 11 12  2  0
 11 13  1  0
 13 14  1  0
 14 15  1  1
 15 16  1  0
 16 17  1  0
 17 18  1  0
 19 18  1  0
 20 22  1  0
 20 14  1  0
 21 20  2  0
M  END
$$$$
