AVK.pdb
     RDKit          3D

 22 21  0  0  1  0  0  0  0  0999 V2000
   27.3466  -17.6767  -16.2160 C   0  0  0  0  0  0  0  0  0  0  0  0
   27.8948  -18.9265  -15.5717 C   0  0  2  0  0  0  0  0  0  0  0  0
   28.6524  -19.7477  -16.4740 N   0  0  0  0  0  0  0  0  0  0  0  0
   26.8054  -19.7463  -14.9668 C   0  0  0  0  0  0  0  0  0  0  0  0
   25.9467  -20.3404  -15.6751 O   0  0  0  0  0  0  0  0  0  0  0  0
   25.9886  -19.7033  -10.7659 C   0  0  0  0  0  0  0  0  0  0  0  0
   26.1123  -21.0148  -11.5151 C   0  0  1  0  0  0  0  0  0  0  0  0
   25.1166  -21.9884  -10.9093 C   0  0  0  0  0  0  0  0  0  0  0  0
   25.6955  -20.7570  -12.9448 C   0  0  2  0  0  0  0  0  0  0  0  0
   26.6676  -19.9088  -13.5525 N   0  0  0  0  0  0  0  0  0  0  0  0
   24.3171  -20.2658  -13.0565 C   0  0  0  0  0  0  0  0  0  0  0  0
   24.0709  -19.1012  -12.6556 O   0  0  0  0  0  0  0  0  0  0  0  0
   23.2594  -21.0433  -13.5933 N   0  0  0  0  0  0  0  0  0  0  0  0
   21.8841  -20.5483  -13.6811 C   0  0  1  0  0  0  0  0  0  0  0  0
   21.1983  -21.1180  -14.9054 C   0  0  0  0  0  0  0  0  0  0  0  0
   19.7794  -20.6385  -15.0694 C   0  0  0  0  0  0  0  0  0  0  0  0
   19.1456  -21.2643  -16.2963 C   0  0  0  0  0  0  0  0  0  0  0  0
   17.7209  -20.7348  -16.4256 C   0  0  0  0  0  0  0  0  0  0  0  0
   17.0830  -21.4090  -17.5136 N   0  0  0  0  0  0  0  0  0  0  0  0
   21.1584  -20.8349  -12.4241 C   0  0  0  0  0  0  0  0  0  0  0  0
   20.4724  -19.9163  -11.9099 O   0  0  0  0  0  0  0  0  0  0  0  0
   21.1746  -22.0491  -11.7619 O   0  0  0  0  0  0  0  0  0  0  0  0
  2  4  1  0
  2  3  1  0
  2  1  1  6
  4  5  2  0
  7  6  1  1
  7  8  1  0
  7  9  1  0
  9 11  1  0
 10  4  1  0
  9 10  1  1
 11 12  2  0
 11 13  1  0
 13 14  1  0
 14 15  1  6
 15 16  1  0
 16 17  1  0
 17 18  1  0
 19 18  1  0
 20 22  1  0
 20 14  1  0
 21 20  2  0
M  END
$$$$
