AVK.pdb
     RDKit          3D

 22 21  0  0  1  0  0  0  0  0999 V2000
   16.9807   -9.2454  -15.7166 C   0  0  0  0  0  0  0  0  0  0  0  0
   18.1292   -9.8136  -14.9194 C   0  0  2  0  0  0  0  0  0  0  0  0
   18.1137  -11.2475  -14.8402 N   0  0  0  0  0  0  0  0  0  0  0  0
   18.1606   -9.2509  -13.5384 C   0  0  0  0  0  0  0  0  0  0  0  0
   17.4052   -9.6838  -12.6252 O   0  0  0  0  0  0  0  0  0  0  0  0
   20.5103   -5.7696  -12.5251 C   0  0  0  0  0  0  0  0  0  0  0  0
   20.4961   -7.0250  -11.6764 C   0  0  1  0  0  0  0  0  0  0  0  0
   20.6355   -6.6026  -10.2244 C   0  0  0  0  0  0  0  0  0  0  0  0
   19.1373   -7.6653  -11.8433 C   0  0  2  0  0  0  0  0  0  0  0  0
   19.0451   -8.1905  -13.1660 N   0  0  0  0  0  0  0  0  0  0  0  0
   18.0358   -6.7677  -11.4762 C   0  0  0  0  0  0  0  0  0  0  0  0
   17.6134   -5.9651  -12.3450 O   0  0  0  0  0  0  0  0  0  0  0  0
   17.4324   -6.7675  -10.1926 N   0  0  0  0  0  0  0  0  0  0  0  0
   16.3226   -5.8782   -9.8443 C   0  0  1  0  0  0  0  0  0  0  0  0
   15.5031   -6.4770   -8.7202 C   0  0  0  0  0  0  0  0  0  0  0  0
   14.0947   -6.8221   -9.1296 C   0  0  0  0  0  0  0  0  0  0  0  0
   13.3432   -7.4486   -7.9714 C   0  0  0  0  0  0  0  0  0  0  0  0
   11.9597   -7.8629   -8.4626 C   0  0  0  0  0  0  0  0  0  0  0  0
   11.2766   -8.5216   -7.3928 N   0  0  0  0  0  0  0  0  0  0  0  0
   16.8327   -4.5249   -9.5325 C   0  0  0  0  0  0  0  0  0  0  0  0
   17.9792   -4.4222   -9.0287 O   0  0  0  0  0  0  0  0  0  0  0  0
   16.1395   -3.3489   -9.7547 O   0  0  0  0  0  0  0  0  0  0  0  0
  2  4  1  0
  2  3  1  0
  2  1  1  1
  4  5  2  0
  7  6  1  6
  7  8  1  0
  7  9  1  0
  9 11  1  0
 10  4  1  0
  9 10  1  6
 11 12  2  0
 11 13  1  0
 13 14  1  0
 14 15  1  1
 15 16  1  0
 16 17  1  0
 17 18  1  0
 19 18  1  0
 20 22  1  0
 20 14  1  0
 21 20  2  0
M  END
$$$$
