AVK.pdb
     RDKit          3D

 22 21  0  0  1  0  0  0  0  0999 V2000
   26.5079  -18.4081  -16.7422 C   0  0  0  0  0  0  0  0  0  0  0  0
   27.3712  -19.2046  -15.7946 C   0  0  2  0  0  0  0  0  0  0  0  0
   28.4283  -19.9208  -16.4520 N   0  0  0  0  0  0  0  0  0  0  0  0
   26.5557  -20.1657  -14.9972 C   0  0  0  0  0  0  0  0  0  0  0  0
   26.1451  -21.2551  -15.4836 O   0  0  0  0  0  0  0  0  0  0  0  0
   24.9601  -21.6599  -10.6224 C   0  0  0  0  0  0  0  0  0  0  0  0
   25.7871  -20.6653  -11.4121 C   0  0  1  0  0  0  0  0  0  0  0  0
   27.2423  -21.0859  -11.3041 C   0  0  0  0  0  0  0  0  0  0  0  0
   25.3763  -20.7891  -12.8612 C   0  0  2  0  0  0  0  0  0  0  0  0
   26.1905  -19.9127  -13.6377 N   0  0  0  0  0  0  0  0  0  0  0  0
   23.9344  -20.6038  -13.0624 C   0  0  0  0  0  0  0  0  0  0  0  0
   23.4204  -19.5206  -12.6884 O   0  0  0  0  0  0  0  0  0  0  0  0
   23.1030  -21.5876  -13.6561 N   0  0  0  0  0  0  0  0  0  0  0  0
   21.6635  -21.3944  -13.8415 C   0  0  1  0  0  0  0  0  0  0  0  0
   21.0629  -22.5831  -14.5627 C   0  0  0  0  0  0  0  0  0  0  0  0
   19.5746  -22.4657  -14.7658 C   0  0  0  0  0  0  0  0  0  0  0  0
   19.0515  -23.6481  -15.5575 C   0  0  0  0  0  0  0  0  0  0  0  0
   17.5386  -23.5067  -15.6915 C   0  0  0  0  0  0  0  0  0  0  0  0
   17.0327  -24.6613  -16.3668 N   0  0  0  0  0  0  0  0  0  0  0  0
   21.0150  -21.1172  -12.5410 C   0  0  0  0  0  0  0  0  0  0  0  0
   20.1975  -20.1654  -12.4741 O   0  0  0  0  0  0  0  0  0  0  0  0
   21.2394  -21.8319  -11.3782 O   0  0  0  0  0  0  0  0  0  0  0  0
  2  4  1  0
  2  3  1  0
  2  1  1  6
  4  5  2  0
  7  6  1  1
  7  8  1  0
  7  9  1  0
  9 11  1  0
 10  4  1  0
  9 10  1  6
 11 12  2  0
 11 13  1  0
 13 14  1  0
 14 15  1  1
 15 16  1  0
 16 17  1  0
 17 18  1  0
 19 18  1  0
 20 22  1  0
 20 14  1  0
 21 20  2  0
M  END
$$$$
