AVK.pdb
     RDKit          3D

 22 21  0  0  1  0  0  0  0  0999 V2000
   27.7241  -19.0833  -15.5647 C   0  0  0  0  0  0  0  0  0  0  0  0
   28.0698  -20.2998  -14.7412 C   0  0  2  0  0  0  0  0  0  0  0  0
   28.6697  -21.3556  -15.5080 N   0  0  0  0  0  0  0  0  0  0  0  0
   26.8700  -20.8339  -14.0342 C   0  0  0  0  0  0  0  0  0  0  0  0
   26.1366  -21.7242  -14.5456 O   0  0  0  0  0  0  0  0  0  0  0  0
   24.2791  -21.1464   -9.8708 C   0  0  0  0  0  0  0  0  0  0  0  0
   25.5104  -20.6106  -10.5733 C   0  0  1  0  0  0  0  0  0  0  0  0
   26.6952  -21.4538  -10.1359 C   0  0  0  0  0  0  0  0  0  0  0  0
   25.3117  -20.8261  -12.0559 C   0  0  2  0  0  0  0  0  0  0  0  0
   26.4786  -20.3718  -12.7385 N   0  0  0  0  0  0  0  0  0  0  0  0
   24.0604  -20.2429  -12.5537 C   0  0  0  0  0  0  0  0  0  0  0  0
   23.9591  -18.9911  -12.5734 O   0  0  0  0  0  0  0  0  0  0  0  0
   22.9691  -21.0256  -13.0097 N   0  0  0  0  0  0  0  0  0  0  0  0
   21.7321  -20.4308  -13.5196 C   0  0  1  0  0  0  0  0  0  0  0  0
   21.5867  -20.7107  -15.0009 C   0  0  0  0  0  0  0  0  0  0  0  0
   20.3641  -20.0739  -15.6092 C   0  0  0  0  0  0  0  0  0  0  0  0
   20.1475  -20.5818  -17.0212 C   0  0  0  0  0  0  0  0  0  0  0  0
   18.9393  -19.8619  -17.6120 C   0  0  0  0  0  0  0  0  0  0  0  0
   18.8146  -20.2369  -18.9864 N   0  0  0  0  0  0  0  0  0  0  0  0
   20.5759  -20.9002  -12.7248 C   0  0  0  0  0  0  0  0  0  0  0  0
   20.6170  -22.0590  -12.2409 O   0  0  0  0  0  0  0  0  0  0  0  0
   19.4391  -20.1552  -12.4682 O   0  0  0  0  0  0  0  0  0  0  0  0
  2  4  1  0
  2  3  1  0
  2  1  1  6
  4  5  2  0
  7  6  1  1
  7  8  1  0
  7  9  1  0
  9 11  1  0
 10  4  1  0
  9 10  1  6
 11 12  2  0
 11 13  1  0
 13 14  1  0
 14 15  1  6
 15 16  1  0
 16 17  1  0
 17 18  1  0
 19 18  1  0
 20 22  1  0
 20 14  1  0
 21 20  2  0
M  END
$$$$
