AVK.pdb
     RDKit          3D

 22 21  0  0  1  0  0  0  0  0999 V2000
   18.9742  -14.0814  -17.9206 C   0  0  0  0  0  0  0  0  0  0  0  0
   20.1501  -14.3118  -17.0032 C   0  0  2  0  0  0  0  0  0  0  0  0
   20.0625  -15.5382  -16.2613 N   0  0  0  0  0  0  0  0  0  0  0  0
   20.3231  -13.1781  -16.0495 C   0  0  0  0  0  0  0  0  0  0  0  0
   19.5119  -12.9719  -15.1053 O   0  0  0  0  0  0  0  0  0  0  0  0
   23.4793  -12.3343  -14.2968 C   0  0  0  0  0  0  0  0  0  0  0  0
   23.0576  -11.0266  -14.9359 C   0  0  1  0  0  0  0  0  0  0  0  0
   23.8241  -10.8811  -16.2389 C   0  0  0  0  0  0  0  0  0  0  0  0
   21.5893  -11.1441  -15.2739 C   0  0  2  0  0  0  0  0  0  0  0  0
   21.4146  -12.2588  -16.1461 N   0  0  0  0  0  0  0  0  0  0  0  0
   21.0195   -9.8905  -15.7813 C   0  0  0  0  0  0  0  0  0  0  0  0
   21.1981   -9.6080  -16.9920 O   0  0  0  0  0  0  0  0  0  0  0  0
   20.2816   -8.9913  -14.9698 N   0  0  0  0  0  0  0  0  0  0  0  0
   19.7736   -7.7130  -15.4718 C   0  0  1  0  0  0  0  0  0  0  0  0
   18.2629   -7.6731  -15.3724 C   0  0  0  0  0  0  0  0  0  0  0  0
   17.6624   -6.4147  -15.9436 C   0  0  0  0  0  0  0  0  0  0  0  0
   16.1489   -6.4682  -15.8715 C   0  0  0  0  0  0  0  0  0  0  0  0
   15.5900   -5.2222  -16.5513 C   0  0  0  0  0  0  0  0  0  0  0  0
   14.1686   -5.3522  -16.6398 N   0  0  0  0  0  0  0  0  0  0  0  0
   20.4308   -6.5911  -14.7659 C   0  0  0  0  0  0  0  0  0  0  0  0
   20.8898   -6.7990  -13.6149 O   0  0  0  0  0  0  0  0  0  0  0  0
   20.5825   -5.3156  -15.2789 O   0  0  0  0  0  0  0  0  0  0  0  0
  2  4  1  0
  2  3  1  0
  2  1  1  1
  4  5  2  0
  7  6  1  6
  7  8  1  0
  7  9  1  0
  9 11  1  0
 10  4  1  0
  9 10  1  6
 11 12  2  0
 11 13  1  0
 13 14  1  0
 14 15  1  1
 15 16  1  0
 16 17  1  0
 17 18  1  0
 19 18  1  0
 20 22  1  0
 20 14  1  0
 21 20  2  0
M  END
$$$$
