AVK.pdb
     RDKit          3D

 22 21  0  0  1  0  0  0  0  0999 V2000
   23.5137  -13.8065  -20.4001 C   0  0  0  0  0  0  0  0  0  0  0  0
   24.5902  -14.0817  -19.3788 C   0  0  2  0  0  0  0  0  0  0  0  0
   24.5798  -15.4319  -18.8895 N   0  0  0  0  0  0  0  0  0  0  0  0
   24.4917  -13.1450  -18.2223 C   0  0  0  0  0  0  0  0  0  0  0  0
   23.5584  -13.2256  -17.3771 O   0  0  0  0  0  0  0  0  0  0  0  0
   27.5570  -10.2877  -17.4841 C   0  0  0  0  0  0  0  0  0  0  0  0
   26.7077  -10.8899  -16.3829 C   0  0  1  0  0  0  0  0  0  0  0  0
   26.5724   -9.8509  -15.2836 C   0  0  0  0  0  0  0  0  0  0  0  0
   25.3322  -11.1351  -16.9591 C   0  0  2  0  0  0  0  0  0  0  0  0
   25.4451  -12.1020  -18.0013 N   0  0  0  0  0  0  0  0  0  0  0  0
   24.6536   -9.8972  -17.3602 C   0  0  0  0  0  0  0  0  0  0  0  0
   24.9493   -9.3956  -18.4730 O   0  0  0  0  0  0  0  0  0  0  0  0
   23.6860   -9.2480  -16.5517 N   0  0  0  0  0  0  0  0  0  0  0  0
   23.0058   -8.0206  -16.9699 C   0  0  1  0  0  0  0  0  0  0  0  0
   21.6486   -7.9201  -16.3052 C   0  0  0  0  0  0  0  0  0  0  0  0
   20.8434   -6.7357  -16.7734 C   0  0  0  0  0  0  0  0  0  0  0  0
   19.4774   -6.7285  -16.1155 C   0  0  0  0  0  0  0  0  0  0  0  0
   18.6690   -5.5728  -16.6967 C   0  0  0  0  0  0  0  0  0  0  0  0
   17.4165   -5.5044  -16.0100 N   0  0  0  0  0  0  0  0  0  0  0  0
   23.8673   -6.8465  -16.7092 C   0  0  0  0  0  0  0  0  0  0  0  0
   24.5718   -6.8442  -15.6688 O   0  0  0  0  0  0  0  0  0  0  0  0
   23.9605   -5.7373  -17.5302 O   0  0  0  0  0  0  0  0  0  0  0  0
  2  4  1  0
  2  3  1  0
  2  1  1  6
  4  5  2  0
  7  6  1  6
  7  8  1  0
  7  9  1  0
  9 11  1  0
 10  4  1  0
  9 10  1  6
 11 12  2  0
 11 13  1  0
 13 14  1  0
 14 15  1  1
 15 16  1  0
 16 17  1  0
 17 18  1  0
 19 18  1  0
 20 22  1  0
 20 14  1  0
 21 20  2  0
M  END
$$$$
