AVK.pdb
     RDKit          3D

 22 21  0  0  1  0  0  0  0  0999 V2000
   20.9241  -18.8101  -17.2607 C   0  0  0  0  0  0  0  0  0  0  0  0
   22.2028  -18.7342  -16.4629 C   0  0  2  0  0  0  0  0  0  0  0  0
   22.2966  -19.7374  -15.4395 N   0  0  0  0  0  0  0  0  0  0  0  0
   22.3745  -17.3890  -15.8419 C   0  0  0  0  0  0  0  0  0  0  0  0
   21.7472  -17.0507  -14.8007 O   0  0  0  0  0  0  0  0  0  0  0  0
   25.0769  -13.4015  -15.2325 C   0  0  0  0  0  0  0  0  0  0  0  0
   24.9184  -14.8167  -15.7507 C   0  0  1  0  0  0  0  0  0  0  0  0
   25.5251  -15.7556  -14.7226 C   0  0  0  0  0  0  0  0  0  0  0  0
   23.4368  -15.1058  -15.8234 C   0  0  2  0  0  0  0  0  0  0  0  0
   23.2572  -16.4038  -16.3860 N   0  0  0  0  0  0  0  0  0  0  0  0
   22.6827  -14.0471  -16.5048 C   0  0  0  0  0  0  0  0  0  0  0  0
   22.9869  -13.7766  -17.6930 O   0  0  0  0  0  0  0  0  0  0  0  0
   21.6336  -13.3219  -15.8843 N   0  0  0  0  0  0  0  0  0  0  0  0
   20.9086  -12.2476  -16.5656 C   0  0  1  0  0  0  0  0  0  0  0  0
   19.5689  -12.0136  -15.8991 C   0  0  0  0  0  0  0  0  0  0  0  0
   18.8019  -10.8611  -16.4939 C   0  0  0  0  0  0  0  0  0  0  0  0
   17.5390  -10.5962  -15.6980 C   0  0  0  0  0  0  0  0  0  0  0  0
   16.8500   -9.3673  -16.2827 C   0  0  0  0  0  0  0  0  0  0  0  0
   15.6413   -9.1350  -15.5546 N   0  0  0  0  0  0  0  0  0  0  0  0
   21.7451  -11.0290  -16.6291 C   0  0  0  0  0  0  0  0  0  0  0  0
   21.7063  -10.3340  -17.6751 O   0  0  0  0  0  0  0  0  0  0  0  0
   22.5766  -10.5880  -15.6156 O   0  0  0  0  0  0  0  0  0  0  0  0
  2  4  1  0
  2  3  1  0
  2  1  1  1
  4  5  2  0
  7  6  1  1
  7  8  1  0
  7  9  1  0
  9 11  1  0
 10  4  1  0
  9 10  1  6
 11 12  2  0
 11 13  1  0
 13 14  1  0
 14 15  1  1
 15 16  1  0
 16 17  1  0
 17 18  1  0
 19 18  1  0
 20 22  1  0
 20 14  1  0
 21 20  2  0
M  END
$$$$
