AVK.pdb
     RDKit          3D

 22 21  0  0  1  0  0  0  0  0999 V2000
   21.8187  -14.8152  -17.4671 C   0  0  0  0  0  0  0  0  0  0  0  0
   20.3950  -15.1714  -17.1153 C   0  0  2  0  0  0  0  0  0  0  0  0
   19.8424  -16.2013  -17.9499 N   0  0  0  0  0  0  0  0  0  0  0  0
   19.5078  -13.9737  -17.1696 C   0  0  0  0  0  0  0  0  0  0  0  0
   19.1958  -13.4245  -18.2618 O   0  0  0  0  0  0  0  0  0  0  0  0
   15.9519  -11.4354  -15.0701 C   0  0  0  0  0  0  0  0  0  0  0  0
   16.8799  -12.6333  -15.0922 C   0  0  1  0  0  0  0  0  0  0  0  0
   16.1191  -13.7955  -15.7062 C   0  0  0  0  0  0  0  0  0  0  0  0
   18.0293  -12.2948  -16.0132 C   0  0  2  0  0  0  0  0  0  0  0  0
   18.9585  -13.3764  -15.9918 N   0  0  0  0  0  0  0  0  0  0  0  0
   18.6257  -10.9858  -15.7225 C   0  0  0  0  0  0  0  0  0  0  0  0
   19.2156  -10.8365  -14.6238 O   0  0  0  0  0  0  0  0  0  0  0  0
   18.5650   -9.8907  -16.6217 N   0  0  0  0  0  0  0  0  0  0  0  0
   19.0762   -8.5618  -16.2799 C   0  0  1  0  0  0  0  0  0  0  0  0
   19.1158   -7.6818  -17.5119 C   0  0  0  0  0  0  0  0  0  0  0  0
   19.5968   -6.2824  -17.2279 C   0  0  0  0  0  0  0  0  0  0  0  0
   19.5480   -5.4383  -18.4864 C   0  0  0  0  0  0  0  0  0  0  0  0
   19.9407   -4.0096  -18.1236 C   0  0  0  0  0  0  0  0  0  0  0  0
   20.0034   -3.2370  -19.3254 N   0  0  0  0  0  0  0  0  0  0  0  0
   18.2819   -7.9787  -15.1764 C   0  0  0  0  0  0  0  0  0  0  0  0
   17.0360   -8.1411  -15.1891 O   0  0  0  0  0  0  0  0  0  0  0  0
   18.8083   -7.2605  -14.1180 O   0  0  0  0  0  0  0  0  0  0  0  0
  2  4  1  0
  2  3  1  0
  2  1  1  6
  4  5  2  0
  7  6  1  6
  7  8  1  0
  7  9  1  0
  9 11  1  0
 10  4  1  0
  9 10  1  1
 11 12  2  0
 11 13  1  0
 13 14  1  0
 14 15  1  6
 15 16  1  0
 16 17  1  0
 17 18  1  0
 19 18  1  0
 20 22  1  0
 20 14  1  0
 21 20  2  0
M  END
$$$$
