AVK.pdb
     RDKit          3D

 22 21  0  0  1  0  0  0  0  0999 V2000
   29.1683  -34.4516  -16.1449 C   0  0  0  0  0  0  0  0  0  0  0  0
   28.4835  -33.1741  -16.5651 C   0  0  2  0  0  0  0  0  0  0  0  0
   29.3915  -32.0790  -16.7625 N   0  0  0  0  0  0  0  0  0  0  0  0
   27.4407  -32.7689  -15.5787 C   0  0  0  0  0  0  0  0  0  0  0  0
   27.6562  -31.8821  -14.7073 O   0  0  0  0  0  0  0  0  0  0  0  0
   22.6653  -32.6134  -14.5521 C   0  0  0  0  0  0  0  0  0  0  0  0
   23.7986  -32.9002  -15.5164 C   0  0  1  0  0  0  0  0  0  0  0  0
   23.8742  -31.7432  -16.4973 C   0  0  0  0  0  0  0  0  0  0  0  0
   25.0796  -32.9110  -14.7145 C   0  0  2  0  0  0  0  0  0  0  0  0
   26.1376  -33.3581  -15.5598 N   0  0  0  0  0  0  0  0  0  0  0  0
   24.9586  -33.6595  -13.4580 C   0  0  0  0  0  0  0  0  0  0  0  0
   24.6963  -34.8860  -13.5241 O   0  0  0  0  0  0  0  0  0  0  0  0
   25.1238  -33.0623  -12.1822 N   0  0  0  0  0  0  0  0  0  0  0  0
   25.0306  -33.8266  -10.9368 C   0  0  1  0  0  0  0  0  0  0  0  0
   25.6035  -33.0264   -9.7857 C   0  0  0  0  0  0  0  0  0  0  0  0
   25.6157  -33.7835   -8.4830 C   0  0  0  0  0  0  0  0  0  0  0  0
   26.1240  -32.9006   -7.3602 C   0  0  0  0  0  0  0  0  0  0  0  0
   26.0805  -33.6999   -6.0616 C   0  0  0  0  0  0  0  0  0  0  0  0
   26.6370  -32.8982   -5.0163 N   0  0  0  0  0  0  0  0  0  0  0  0
   23.6337  -34.2559  -10.7059 C   0  0  0  0  0  0  0  0  0  0  0  0
   22.7121  -33.4342  -10.9386 O   0  0  0  0  0  0  0  0  0  0  0  0
   23.2568  -35.5057  -10.2488 O   0  0  0  0  0  0  0  0  0  0  0  0
  2  4  1  0
  2  3  1  0
  2  1  1  1
  4  5  2  0
  7  6  1  1
  7  8  1  0
  7  9  1  0
  9 11  1  0
 10  4  1  0
  9 10  1  6
 11 12  2  0
 11 13  1  0
 13 14  1  0
 14 15  1  1
 15 16  1  0
 16 17  1  0
 17 18  1  0
 19 18  1  0
 20 22  1  0
 20 14  1  0
 21 20  2  0
M  END
$$$$
