YTE.pdb
     RDKit          3D

 29 29  0  0  1  0  0  0  0  0999 V2000
   26.3263  -16.6521  -16.5664 O   0  0  0  0  0  0  0  0  0  0  0  0
   25.5799  -15.5030  -16.7062 C   0  0  0  0  0  0  0  0  0  0  0  0
   24.8519  -15.2698  -17.8667 C   0  0  0  0  0  0  0  0  0  0  0  0
   24.0951  -14.1082  -18.0104 C   0  0  0  0  0  0  0  0  0  0  0  0
   24.0999  -13.2177  -16.9727 C   0  0  0  0  0  0  0  0  0  0  0  0
   23.3170  -11.9646  -17.0661 C   0  0  0  0  0  0  0  0  0  0  0  0
   22.0444  -12.0398  -16.2552 C   0  0  2  0  0  0  0  0  0  0  0  0
   21.2809  -13.1520  -16.7943 N   0  0  0  0  0  0  0  0  0  0  0  0
   21.2830  -10.7589  -16.3398 C   0  0  0  0  0  0  0  0  0  0  0  0
   20.6632  -10.4432  -17.3986 O   0  0  0  0  0  0  0  0  0  0  0  0
   24.8278  -13.4528  -15.8144 C   0  0  0  0  0  0  0  0  0  0  0  0
   25.5715  -14.5803  -15.6568 C   0  0  0  0  0  0  0  0  0  0  0  0
   18.3588   -9.7795  -14.5583 C   0  0  0  0  0  0  0  0  0  0  0  0
   19.3910   -8.7354  -14.1690 C   0  0  1  0  0  0  0  0  0  0  0  0
   19.8286   -9.0164  -12.8518 O   0  0  0  0  0  0  0  0  0  0  0  0
   20.5393   -8.6801  -15.1084 C   0  0  2  0  0  0  0  0  0  0  0  0
   21.2550   -9.9027  -15.2389 N   0  0  0  0  0  0  0  0  0  0  0  0
   21.3572   -7.4773  -14.8097 C   0  0  0  0  0  0  0  0  0  0  0  0
   22.4604   -7.4349  -14.2616 O   0  0  0  0  0  0  0  0  0  0  0  0
   20.8052   -6.2125  -15.2065 N   0  0  0  0  0  0  0  0  0  0  0  0
   21.5564   -4.9812  -14.9745 C   0  0  1  0  0  0  0  0  0  0  0  0
   21.0240   -3.8725  -15.8519 C   0  0  0  0  0  0  0  0  0  0  0  0
   21.9562   -2.6630  -15.6562 C   0  0  0  0  0  0  0  0  0  0  0  0
   21.4772   -1.5209  -16.4718 C   0  0  0  0  0  0  0  0  0  0  0  0
   20.4768   -1.6273  -17.2235 O   0  0  0  0  0  0  0  0  0  0  0  0
   21.4178   -4.6068  -13.5484 C   0  0  0  0  0  0  0  0  0  0  0  0
   20.3859   -4.9100  -12.9088 O   0  0  0  0  0  0  0  0  0  0  0  0
   22.1285   -0.2850  -16.4341 O   0  0  0  0  0  0  0  0  0  0  0  0
   22.4263   -3.9201  -12.9089 O   0  0  0  0  0  0  0  0  0  0  0  0
  1  2  1  0
  2 12  2  0
  3  2  1  0
  3  4  2  0
  4  5  1  0
  5 11  2  0
  5  6  1  0
  7  8  1  6
  7  6  1  0
  9 10  2  0
  9  7  1  0
 12 11  1  0
 14 13  1  6
 14 16  1  0
 15 14  1  0
 16 17  1  1
 17  9  1  0
 18 19  2  0
 18 16  1  0
 20 18  1  0
 21 20  1  0
 21 22  1  6
 22 23  1  0
 23 24  1  0
 24 28  1  0
 25 24  2  0
 26 21  1  0
 27 26  2  0
 29 26  1  0
M  END
$$$$
