YTE.pdb
     RDKit          3D

 29 29  0  0  1  0  0  0  0  0999 V2000
   25.8309   -2.2244    1.1959 O   0  0  0  0  0  0  0  0  0  0  0  0
   25.3676   -1.4410    0.1621 C   0  0  0  0  0  0  0  0  0  0  0  0
   24.0308   -1.0658    0.1038 C   0  0  0  0  0  0  0  0  0  0  0  0
   23.5596   -0.2723   -0.9407 C   0  0  0  0  0  0  0  0  0  0  0  0
   24.4583    0.1162   -1.8952 C   0  0  0  0  0  0  0  0  0  0  0  0
   24.0182    0.9582   -3.0306 C   0  0  0  0  0  0  0  0  0  0  0  0
   24.5195    2.3775   -2.9001 C   0  0  2  0  0  0  0  0  0  0  0  0
   23.8402    2.9471   -1.7491 N   0  0  0  0  0  0  0  0  0  0  0  0
   24.2417    3.1564   -4.1426 C   0  0  0  0  0  0  0  0  0  0  0  0
   23.1893    3.8540   -4.2474 O   0  0  0  0  0  0  0  0  0  0  0  0
   25.7932   -0.2599   -1.8349 C   0  0  0  0  0  0  0  0  0  0  0  0
   26.2705   -1.0334   -0.8235 C   0  0  0  0  0  0  0  0  0  0  0  0
   26.2849    5.8077   -5.7899 C   0  0  0  0  0  0  0  0  0  0  0  0
   26.1484    4.6766   -6.7946 C   0  0  1  0  0  0  0  0  0  0  0  0
   27.3850    3.9892   -6.8566 O   0  0  0  0  0  0  0  0  0  0  0  0
   25.0399    3.7447   -6.4680 C   0  0  2  0  0  0  0  0  0  0  0  0
   25.1531    3.1142   -5.1977 N   0  0  0  0  0  0  0  0  0  0  0  0
   24.8049    2.8414   -7.6229 C   0  0  0  0  0  0  0  0  0  0  0  0
   25.1045    1.6497   -7.7190 O   0  0  0  0  0  0  0  0  0  0  0  0
   24.1492    3.4170   -8.7633 N   0  0  0  0  0  0  0  0  0  0  0  0
   23.8160    2.5816   -9.9147 C   0  0  1  0  0  0  0  0  0  0  0  0
   22.8791    3.3205  -10.8413 C   0  0  0  0  0  0  0  0  0  0  0  0
   22.5262    2.3510  -11.9839 C   0  0  0  0  0  0  0  0  0  0  0  0
   21.5284    2.9766  -12.8850 C   0  0  0  0  0  0  0  0  0  0  0  0
   21.0569    4.1163  -12.6489 O   0  0  0  0  0  0  0  0  0  0  0  0
   25.0684    2.2426  -10.6285 C   0  0  0  0  0  0  0  0  0  0  0  0
   25.1587    1.1813  -11.2853 O   0  0  0  0  0  0  0  0  0  0  0  0
   21.0747    2.3139  -14.0287 O   0  0  0  0  0  0  0  0  0  0  0  0
   26.1496    3.0947  -10.5780 O   0  0  0  0  0  0  0  0  0  0  0  0
  1  2  1  0
  2 12  2  0
  3  2  1  0
  3  4  2  0
  4  5  1  0
  5 11  2  0
  5  6  1  0
  7  8  1  1
  7  6  1  0
  9 10  2  0
  9  7  1  0
 12 11  1  0
 14 13  1  1
 14 16  1  0
 15 14  1  0
 16 17  1  1
 17  9  1  0
 18 19  2  0
 18 16  1  0
 20 18  1  0
 21 20  1  0
 21 22  1  6
 22 23  1  0
 23 24  1  0
 24 28  1  0
 25 24  2  0
 26 21  1  0
 27 26  2  0
 29 26  1  0
M  END
$$$$
