YTE.pdb
     RDKit          3D

 29 29  0  0  1  0  0  0  0  0999 V2000
   28.7041  -19.2670   -5.5415 O   0  0  0  0  0  0  0  0  0  0  0  0
   28.2885  -19.5059   -6.8327 C   0  0  0  0  0  0  0  0  0  0  0  0
   27.1685  -18.8626   -7.3452 C   0  0  0  0  0  0  0  0  0  0  0  0
   26.7463  -19.1018   -8.6518 C   0  0  0  0  0  0  0  0  0  0  0  0
   27.4727  -19.9870   -9.3992 C   0  0  0  0  0  0  0  0  0  0  0  0
   27.0734  -20.2843  -10.7936 C   0  0  0  0  0  0  0  0  0  0  0  0
   25.8853  -21.2160  -10.8473 C   0  0  2  0  0  0  0  0  0  0  0  0
   26.3347  -22.4840  -10.2987 N   0  0  0  0  0  0  0  0  0  0  0  0
   25.3909  -21.3679  -12.2474 C   0  0  0  0  0  0  0  0  0  0  0  0
   25.7857  -22.3289  -12.9724 O   0  0  0  0  0  0  0  0  0  0  0  0
   28.5912  -20.6284   -8.8852 C   0  0  0  0  0  0  0  0  0  0  0  0
   29.0176  -20.4073   -7.6130 C   0  0  0  0  0  0  0  0  0  0  0  0
   23.1717  -23.0601  -12.8381 C   0  0  0  0  0  0  0  0  0  0  0  0
   22.4580  -21.7550  -13.1456 C   0  0  1  0  0  0  0  0  0  0  0  0
   21.7677  -21.3435  -11.9795 O   0  0  0  0  0  0  0  0  0  0  0  0
   23.3785  -20.6911  -13.6196 C   0  0  2  0  0  0  0  0  0  0  0  0
   24.4839  -20.4402  -12.7598 N   0  0  0  0  0  0  0  0  0  0  0  0
   22.5851  -19.5019  -14.0212 C   0  0  0  0  0  0  0  0  0  0  0  0
   22.1923  -18.5816  -13.3016 O   0  0  0  0  0  0  0  0  0  0  0  0
   22.2341  -19.4054  -15.4103 N   0  0  0  0  0  0  0  0  0  0  0  0
   21.6583  -18.1695  -15.9352 C   0  0  1  0  0  0  0  0  0  0  0  0
   21.7779  -18.1371  -17.4409 C   0  0  0  0  0  0  0  0  0  0  0  0
   23.2543  -17.8446  -17.7643 C   0  0  0  0  0  0  0  0  0  0  0  0
   23.4442  -17.7767  -19.2334 C   0  0  0  0  0  0  0  0  0  0  0  0
   23.0859  -16.7705  -19.8939 O   0  0  0  0  0  0  0  0  0  0  0  0
   20.2320  -18.1101  -15.5409 C   0  0  0  0  0  0  0  0  0  0  0  0
   19.5617  -19.1597  -15.4193 O   0  0  0  0  0  0  0  0  0  0  0  0
   24.0264  -18.8361  -19.9347 O   0  0  0  0  0  0  0  0  0  0  0  0
   19.6271  -16.8958  -15.3021 O   0  0  0  0  0  0  0  0  0  0  0  0
  1  2  1  0
  2 12  2  0
  3  2  1  0
  3  4  2  0
  4  5  1  0
  5 11  2  0
  5  6  1  0
  7  8  1  6
  7  6  1  0
  9 10  2  0
  9  7  1  0
 12 11  1  0
 14 13  1  1
 14 16  1  0
 15 14  1  0
 16 17  1  1
 17  9  1  0
 18 19  2  0
 18 16  1  0
 20 18  1  0
 21 20  1  0
 21 22  1  6
 22 23  1  0
 23 24  1  0
 24 28  1  0
 25 24  2  0
 26 21  1  0
 27 26  2  0
 29 26  1  0
M  END
$$$$
