YTE.pdb
     RDKit          3D

 29 29  0  0  1  0  0  0  0  0999 V2000
   22.5659  -21.9248   -5.8556 O   0  0  0  0  0  0  0  0  0  0  0  0
   23.3029  -21.4442   -6.9153 C   0  0  0  0  0  0  0  0  0  0  0  0
   24.6063  -21.0010   -6.7265 C   0  0  0  0  0  0  0  0  0  0  0  0
   25.3547  -20.5150   -7.7973 C   0  0  0  0  0  0  0  0  0  0  0  0
   24.7580  -20.4926   -9.0274 C   0  0  0  0  0  0  0  0  0  0  0  0
   25.5008  -19.9860  -10.2037 C   0  0  0  0  0  0  0  0  0  0  0  0
   25.8525  -21.0987  -11.1633 C   0  0  2  0  0  0  0  0  0  0  0  0
   27.0085  -21.7746  -10.5999 N   0  0  0  0  0  0  0  0  0  0  0  0
   26.1422  -20.5567  -12.5234 C   0  0  0  0  0  0  0  0  0  0  0  0
   27.1324  -19.7907  -12.7175 O   0  0  0  0  0  0  0  0  0  0  0  0
   23.4558  -20.9358   -9.2136 C   0  0  0  0  0  0  0  0  0  0  0  0
   22.7111  -21.4131   -8.1809 C   0  0  0  0  0  0  0  0  0  0  0  0
   27.8891  -20.9106  -14.9776 C   0  0  0  0  0  0  0  0  0  0  0  0
   26.5577  -21.0882  -15.6868 C   0  0  1  0  0  0  0  0  0  0  0  0
   26.3464  -22.4738  -15.8893 O   0  0  0  0  0  0  0  0  0  0  0  0
   25.4231  -20.4819  -14.9459 C   0  0  2  0  0  0  0  0  0  0  0  0
   25.3119  -20.9000  -13.5905 N   0  0  0  0  0  0  0  0  0  0  0  0
   24.1890  -20.5954  -15.7639 C   0  0  0  0  0  0  0  0  0  0  0  0
   23.2356  -21.3559  -15.5856 O   0  0  0  0  0  0  0  0  0  0  0  0
   24.0870  -19.7164  -16.8947 N   0  0  0  0  0  0  0  0  0  0  0  0
   22.8098  -19.5591  -17.5864 C   0  0  1  0  0  0  0  0  0  0  0  0
   22.1244  -18.2912  -17.1336 C   0  0  0  0  0  0  0  0  0  0  0  0
   20.8568  -18.1384  -17.9939 C   0  0  0  0  0  0  0  0  0  0  0  0
   20.1726  -16.8656  -17.6609 C   0  0  0  0  0  0  0  0  0  0  0  0
   20.7914  -15.7729  -17.6513 O   0  0  0  0  0  0  0  0  0  0  0  0
   23.0675  -19.5008  -19.0435 C   0  0  0  0  0  0  0  0  0  0  0  0
   22.1398  -19.6912  -19.8614 O   0  0  0  0  0  0  0  0  0  0  0  0
   18.8124  -16.8407  -17.3413 O   0  0  0  0  0  0  0  0  0  0  0  0
   24.3340  -19.2345  -19.5152 O   0  0  0  0  0  0  0  0  0  0  0  0
  1  2  1  0
  2 12  2  0
  3  2  1  0
  3  4  2  0
  4  5  1  0
  5 11  2  0
  5  6  1  0
  7  8  1  1
  7  6  1  0
  9 10  2  0
  9  7  1  0
 12 11  1  0
 14 13  1  1
 14 16  1  0
 15 14  1  0
 16 17  1  1
 17  9  1  0
 18 19  2  0
 18 16  1  0
 20 18  1  0
 21 20  1  0
 21 22  1  1
 22 23  1  0
 23 24  1  0
 24 28  1  0
 25 24  2  0
 26 21  1  0
 27 26  2  0
 29 26  1  0
M  END
$$$$
