YTE.pdb
     RDKit          3D

 29 29  0  0  1  0  0  0  0  0999 V2000
   20.8305  -28.0620  -11.3441 O   0  0  0  0  0  0  0  0  0  0  0  0
   21.3787  -29.1195  -10.6526 C   0  0  0  0  0  0  0  0  0  0  0  0
   22.5097  -28.9392   -9.8657 C   0  0  0  0  0  0  0  0  0  0  0  0
   23.0659  -30.0074   -9.1641 C   0  0  0  0  0  0  0  0  0  0  0  0
   22.4585  -31.2267   -9.2823 C   0  0  0  0  0  0  0  0  0  0  0  0
   23.0031  -32.4005   -8.5630 C   0  0  0  0  0  0  0  0  0  0  0  0
   24.2791  -32.9016   -9.1981 C   0  0  2  0  0  0  0  0  0  0  0  0
   23.8983  -33.4939  -10.4690 N   0  0  0  0  0  0  0  0  0  0  0  0
   24.9609  -33.8916   -8.3134 C   0  0  0  0  0  0  0  0  0  0  0  0
   24.7750  -35.1350   -8.4697 O   0  0  0  0  0  0  0  0  0  0  0  0
   21.3287  -31.4045  -10.0690 C   0  0  0  0  0  0  0  0  0  0  0  0
   20.7724  -30.3740  -10.7602 C   0  0  0  0  0  0  0  0  0  0  0  0
   28.7258  -34.6513   -5.2061 C   0  0  0  0  0  0  0  0  0  0  0  0
   27.9665  -33.7925   -6.2027 C   0  0  1  0  0  0  0  0  0  0  0  0
   28.6651  -33.8226   -7.4342 O   0  0  0  0  0  0  0  0  0  0  0  0
   26.5576  -34.2245   -6.3819 C   0  0  2  0  0  0  0  0  0  0  0  0
   25.8120  -33.4395   -7.3049 N   0  0  0  0  0  0  0  0  0  0  0  0
   25.9350  -34.4257   -5.0489 C   0  0  0  0  0  0  0  0  0  0  0  0
   25.2924  -33.6079   -4.3875 O   0  0  0  0  0  0  0  0  0  0  0  0
   26.0938  -35.7244   -4.4573 N   0  0  0  0  0  0  0  0  0  0  0  0
   25.4000  -36.0518   -3.2139 C   0  0  1  0  0  0  0  0  0  0  0  0
   25.5521  -37.5225   -2.9036 C   0  0  0  0  0  0  0  0  0  0  0  0
   24.7749  -37.7856   -1.6010 C   0  0  0  0  0  0  0  0  0  0  0  0
   24.8722  -39.2200   -1.2375 C   0  0  0  0  0  0  0  0  0  0  0  0
   25.4509  -40.0469   -1.9849 O   0  0  0  0  0  0  0  0  0  0  0  0
   25.9857  -35.2422   -2.1208 C   0  0  0  0  0  0  0  0  0  0  0  0
   27.2020  -34.9482   -2.1288 O   0  0  0  0  0  0  0  0  0  0  0  0
   24.3171  -39.7016   -0.0489 O   0  0  0  0  0  0  0  0  0  0  0  0
   25.1956  -34.8022   -1.0818 O   0  0  0  0  0  0  0  0  0  0  0  0
  1  2  1  0
  2 12  2  0
  3  2  1  0
  3  4  2  0
  4  5  1  0
  5 11  2  0
  5  6  1  0
  7  8  1  6
  7  6  1  0
  9 10  2  0
  9  7  1  0
 12 11  1  0
 14 13  1  1
 14 16  1  0
 15 14  1  0
 16 17  1  1
 17  9  1  0
 18 19  2  0
 18 16  1  0
 20 18  1  0
 21 20  1  0
 21 22  1  1
 22 23  1  0
 23 24  1  0
 24 28  1  0
 25 24  2  0
 26 21  1  0
 27 26  2  0
 29 26  1  0
M  END
$$$$
