YTE.pdb
     RDKit          3D

 29 29  0  0  1  0  0  0  0  0999 V2000
   23.7529  -21.2998   -7.1041 O   0  0  0  0  0  0  0  0  0  0  0  0
   24.3988  -20.9646   -8.2736 C   0  0  0  0  0  0  0  0  0  0  0  0
   25.7675  -20.7246   -8.2813 C   0  0  0  0  0  0  0  0  0  0  0  0
   26.4237  -20.3862   -9.4635 C   0  0  0  0  0  0  0  0  0  0  0  0
   25.6717  -20.3007  -10.6022 C   0  0  0  0  0  0  0  0  0  0  0  0
   26.3108  -19.9435  -11.8890 C   0  0  0  0  0  0  0  0  0  0  0  0
   26.0743  -21.0007  -12.9421 C   0  0  2  0  0  0  0  0  0  0  0  0
   27.3609  -21.6294  -13.1869 N   0  0  0  0  0  0  0  0  0  0  0  0
   25.5129  -20.3965  -14.1861 C   0  0  0  0  0  0  0  0  0  0  0  0
   26.2404  -19.6953  -14.9503 O   0  0  0  0  0  0  0  0  0  0  0  0
   24.3046  -20.5409  -10.5921 C   0  0  0  0  0  0  0  0  0  0  0  0
   23.6478  -20.8722   -9.4485 C   0  0  0  0  0  0  0  0  0  0  0  0
   24.2795  -21.7869  -17.2093 C   0  0  0  0  0  0  0  0  0  0  0  0
   23.0787  -21.0418  -16.6524 C   0  0  1  0  0  0  0  0  0  0  0  0
   22.1585  -21.9962  -16.1545 O   0  0  0  0  0  0  0  0  0  0  0  0
   23.4450  -20.0600  -15.6008 C   0  0  2  0  0  0  0  0  0  0  0  0
   24.1723  -20.6087  -14.5081 N   0  0  0  0  0  0  0  0  0  0  0  0
   22.2486  -19.2552  -15.2459 C   0  0  0  0  0  0  0  0  0  0  0  0
   21.6857  -19.1864  -14.1516 O   0  0  0  0  0  0  0  0  0  0  0  0
   21.6780  -18.4587  -16.2957 N   0  0  0  0  0  0  0  0  0  0  0  0
   20.5335  -17.5941  -16.0184 C   0  0  1  0  0  0  0  0  0  0  0  0
   20.7552  -16.2265  -16.6208 C   0  0  0  0  0  0  0  0  0  0  0  0
   19.4901  -15.3999  -16.3271 C   0  0  0  0  0  0  0  0  0  0  0  0
   19.5970  -14.0690  -16.9724 C   0  0  0  0  0  0  0  0  0  0  0  0
   19.2900  -13.8996  -18.1783 O   0  0  0  0  0  0  0  0  0  0  0  0
   19.3227  -18.2134  -16.6045 C   0  0  0  0  0  0  0  0  0  0  0  0
   18.1838  -17.8924  -16.1975 O   0  0  0  0  0  0  0  0  0  0  0  0
   20.0490  -12.9560  -16.2582 O   0  0  0  0  0  0  0  0  0  0  0  0
   19.4376  -19.1508  -17.6073 O   0  0  0  0  0  0  0  0  0  0  0  0
  1  2  1  0
  2 12  2  0
  3  2  1  0
  3  4  2  0
  4  5  1  0
  5 11  2  0
  5  6  1  0
  7  8  1  6
  7  6  1  0
  9 10  2  0
  9  7  1  0
 12 11  1  0
 14 13  1  1
 14 16  1  0
 15 14  1  0
 16 17  1  1
 17  9  1  0
 18 19  2  0
 18 16  1  0
 20 18  1  0
 21 20  1  0
 21 22  1  6
 22 23  1  0
 23 24  1  0
 24 28  1  0
 25 24  2  0
 26 21  1  0
 27 26  2  0
 29 26  1  0
M  END
$$$$
