YTE.pdb
     RDKit          3D

 29 29  0  0  1  0  0  0  0  0999 V2000
   31.0963  -27.2522  -17.0310 O   0  0  0  0  0  0  0  0  0  0  0  0
   30.5768  -26.0036  -16.7697 C   0  0  0  0  0  0  0  0  0  0  0  0
   29.2628  -25.7005  -17.1050 C   0  0  0  0  0  0  0  0  0  0  0  0
   28.7343  -24.4381  -16.8408 C   0  0  0  0  0  0  0  0  0  0  0  0
   29.5549  -23.5209  -16.2450 C   0  0  0  0  0  0  0  0  0  0  0  0
   29.0521  -22.1620  -15.9404 C   0  0  0  0  0  0  0  0  0  0  0  0
   28.4076  -21.5219  -17.1476 C   0  0  2  0  0  0  0  0  0  0  0  0
   29.4816  -21.2434  -18.0854 N   0  0  0  0  0  0  0  0  0  0  0  0
   27.6772  -20.2780  -16.7642 C   0  0  0  0  0  0  0  0  0  0  0  0
   28.3001  -19.2818  -16.2903 O   0  0  0  0  0  0  0  0  0  0  0  0
   30.8672  -23.8260  -15.9109 C   0  0  0  0  0  0  0  0  0  0  0  0
   31.3995  -25.0520  -16.1610 C   0  0  0  0  0  0  0  0  0  0  0  0
   27.2241  -17.4227  -17.1491 C   0  0  0  0  0  0  0  0  0  0  0  0
   25.7937  -17.8673  -17.4009 C   0  0  1  0  0  0  0  0  0  0  0  0
   25.6227  -18.0360  -18.7966 O   0  0  0  0  0  0  0  0  0  0  0  0
   25.4376  -19.1092  -16.6695 C   0  0  2  0  0  0  0  0  0  0  0  0
   26.2937  -20.2149  -16.9313 N   0  0  0  0  0  0  0  0  0  0  0  0
   23.9825  -19.3645  -16.8199 C   0  0  0  0  0  0  0  0  0  0  0  0
   23.4383  -20.2415  -17.4936 O   0  0  0  0  0  0  0  0  0  0  0  0
   23.1010  -18.4928  -16.0953 N   0  0  0  0  0  0  0  0  0  0  0  0
   21.6554  -18.6922  -16.1641 C   0  0  1  0  0  0  0  0  0  0  0  0
   21.0721  -18.7636  -14.7723 C   0  0  0  0  0  0  0  0  0  0  0  0
   19.5724  -19.0716  -14.9331 C   0  0  0  0  0  0  0  0  0  0  0  0
   18.9169  -19.0916  -13.6030 C   0  0  0  0  0  0  0  0  0  0  0  0
   17.7028  -19.3862  -13.4759 O   0  0  0  0  0  0  0  0  0  0  0  0
   21.0582  -17.5569  -16.9040 C   0  0  0  0  0  0  0  0  0  0  0  0
   21.5952  -16.4270  -16.8762 O   0  0  0  0  0  0  0  0  0  0  0  0
   19.6305  -18.7778  -12.4431 O   0  0  0  0  0  0  0  0  0  0  0  0
   19.9029  -17.7333  -17.6333 O   0  0  0  0  0  0  0  0  0  0  0  0
  1  2  1  0
  2 12  2  0
  3  2  1  0
  3  4  2  0
  4  5  1  0
  5 11  2  0
  5  6  1  0
  7  8  1  6
  7  6  1  0
  9 10  2  0
  9  7  1  0
 12 11  1  0
 14 13  1  6
 14 16  1  0
 15 14  1  0
 16 17  1  6
 17  9  1  0
 18 19  2  0
 18 16  1  0
 20 18  1  0
 21 20  1  0
 21 22  1  1
 22 23  1  0
 23 24  1  0
 24 28  1  0
 25 24  2  0
 26 21  1  0
 27 26  2  0
 29 26  1  0
M  END
$$$$
