YTE.pdb
     RDKit          3D

 29 29  0  0  1  0  0  0  0  0999 V2000
   21.3996  -13.3854  -22.4590 O   0  0  0  0  0  0  0  0  0  0  0  0
   21.2234  -14.5010  -21.6706 C   0  0  0  0  0  0  0  0  0  0  0  0
   20.5449  -14.4118  -20.4612 C   0  0  0  0  0  0  0  0  0  0  0  0
   20.3645  -15.5393  -19.6619 C   0  0  0  0  0  0  0  0  0  0  0  0
   20.8783  -16.7234  -20.1132 C   0  0  0  0  0  0  0  0  0  0  0  0
   20.7206  -17.9560  -19.3083 C   0  0  0  0  0  0  0  0  0  0  0  0
   21.5745  -17.9220  -18.0624 C   0  0  2  0  0  0  0  0  0  0  0  0
   22.9483  -18.0924  -18.5032 N   0  0  0  0  0  0  0  0  0  0  0  0
   21.1668  -18.9949  -17.1083 C   0  0  0  0  0  0  0  0  0  0  0  0
   21.7675  -20.1103  -17.0936 O   0  0  0  0  0  0  0  0  0  0  0  0
   21.5557  -16.8101  -21.3217 C   0  0  0  0  0  0  0  0  0  0  0  0
   21.7411  -15.7208  -22.1143 C   0  0  0  0  0  0  0  0  0  0  0  0
   21.4229  -19.2733  -13.6032 C   0  0  0  0  0  0  0  0  0  0  0  0
   19.9249  -19.3208  -13.8502 C   0  0  1  0  0  0  0  0  0  0  0  0
   19.3767  -18.0677  -13.4832 O   0  0  0  0  0  0  0  0  0  0  0  0
   19.5814  -19.6586  -15.2544 C   0  0  2  0  0  0  0  0  0  0  0  0
   20.1129  -18.7636  -16.2242 N   0  0  0  0  0  0  0  0  0  0  0  0
   18.1244  -19.9287  -15.3495 C   0  0  0  0  0  0  0  0  0  0  0  0
   17.2450  -19.1734  -15.7681 O   0  0  0  0  0  0  0  0  0  0  0  0
   17.6823  -21.2211  -14.9064 N   0  0  0  0  0  0  0  0  0  0  0  0
   16.2890  -21.6205  -15.0902 C   0  0  1  0  0  0  0  0  0  0  0  0
   16.0691  -23.0119  -14.5445 C   0  0  0  0  0  0  0  0  0  0  0  0
   14.6513  -23.4374  -14.9672 C   0  0  0  0  0  0  0  0  0  0  0  0
   14.3367  -24.7722  -14.4029 C   0  0  0  0  0  0  0  0  0  0  0  0
   15.1409  -25.3683  -13.6446 O   0  0  0  0  0  0  0  0  0  0  0  0
   15.4241  -20.6550  -14.3740 C   0  0  0  0  0  0  0  0  0  0  0  0
   14.3716  -20.2313  -14.9016 O   0  0  0  0  0  0  0  0  0  0  0  0
   13.1323  -25.4151  -14.7010 O   0  0  0  0  0  0  0  0  0  0  0  0
   15.7694  -20.2130  -13.1159 O   0  0  0  0  0  0  0  0  0  0  0  0
  1  2  1  0
  2 12  2  0
  3  2  1  0
  3  4  2  0
  4  5  1  0
  5 11  2  0
  5  6  1  0
  7  8  1  6
  7  6  1  0
  9 10  2  0
  9  7  1  0
 12 11  1  0
 14 13  1  6
 14 16  1  0
 15 14  1  0
 16 17  1  6
 17  9  1  0
 18 19  2  0
 18 16  1  0
 20 18  1  0
 21 20  1  0
 21 22  1  1
 22 23  1  0
 23 24  1  0
 24 28  1  0
 25 24  2  0
 26 21  1  0
 27 26  2  0
 29 26  1  0
M  END
$$$$
