YTE.pdb
     RDKit          3D

 29 29  0  0  1  0  0  0  0  0999 V2000
   22.7294  -21.4908   -6.9989 O   0  0  0  0  0  0  0  0  0  0  0  0
   23.5152  -21.1405   -8.0746 C   0  0  0  0  0  0  0  0  0  0  0  0
   24.8602  -20.8388   -7.8988 C   0  0  0  0  0  0  0  0  0  0  0  0
   25.6579  -20.4850   -8.9857 C   0  0  0  0  0  0  0  0  0  0  0  0
   25.0670  -20.4473  -10.2182 C   0  0  0  0  0  0  0  0  0  0  0  0
   25.8613  -20.0767  -11.4114 C   0  0  0  0  0  0  0  0  0  0  0  0
   25.6822  -21.0734  -12.5326 C   0  0  2  0  0  0  0  0  0  0  0  0
   26.5402  -22.2026  -12.2172 N   0  0  0  0  0  0  0  0  0  0  0  0
   26.0377  -20.4643  -13.8480 C   0  0  0  0  0  0  0  0  0  0  0  0
   27.2492  -20.2795  -14.1693 O   0  0  0  0  0  0  0  0  0  0  0  0
   23.7232  -20.7490  -10.3913 C   0  0  0  0  0  0  0  0  0  0  0  0
   22.9300  -21.0962   -9.3428 C   0  0  0  0  0  0  0  0  0  0  0  0
   27.2642  -21.0158  -16.3249 C   0  0  0  0  0  0  0  0  0  0  0  0
   25.9333  -20.6189  -16.9400 C   0  0  1  0  0  0  0  0  0  0  0  0
   25.1950  -21.8000  -17.1957 O   0  0  0  0  0  0  0  0  0  0  0  0
   25.1583  -19.6840  -16.0860 C   0  0  2  0  0  0  0  0  0  0  0  0
   25.0226  -20.0962  -14.7311 N   0  0  0  0  0  0  0  0  0  0  0  0
   23.8993  -19.3160  -16.7822 C   0  0  0  0  0  0  0  0  0  0  0  0
   22.7646  -19.7429  -16.5604 O   0  0  0  0  0  0  0  0  0  0  0  0
   24.0099  -18.3471  -17.8362 N   0  0  0  0  0  0  0  0  0  0  0  0
   22.8073  -17.8390  -18.4920 C   0  0  1  0  0  0  0  0  0  0  0  0
   23.1541  -16.6691  -19.3829 C   0  0  0  0  0  0  0  0  0  0  0  0
   22.8335  -15.3917  -18.5858 C   0  0  0  0  0  0  0  0  0  0  0  0
   23.0648  -14.1975  -19.4339 C   0  0  0  0  0  0  0  0  0  0  0  0
   22.8004  -13.0410  -19.0220 O   0  0  0  0  0  0  0  0  0  0  0  0
   22.2147  -18.9299  -19.2994 C   0  0  0  0  0  0  0  0  0  0  0  0
   22.9355  -19.8422  -19.7618 O   0  0  0  0  0  0  0  0  0  0  0  0
   23.5824  -14.3205  -20.7262 O   0  0  0  0  0  0  0  0  0  0  0  0
   20.8603  -18.9525  -19.5494 O   0  0  0  0  0  0  0  0  0  0  0  0
  1  2  1  0
  2 12  2  0
  3  2  1  0
  3  4  2  0
  4  5  1  0
  5 11  2  0
  5  6  1  0
  7  8  1  1
  7  6  1  0
  9 10  2  0
  9  7  1  0
 12 11  1  0
 14 13  1  1
 14 16  1  0
 15 14  1  0
 16 17  1  1
 17  9  1  0
 18 19  2  0
 18 16  1  0
 20 18  1  0
 21 20  1  0
 21 22  1  6
 22 23  1  0
 23 24  1  0
 24 28  1  0
 25 24  2  0
 26 21  1  0
 27 26  2  0
 29 26  1  0
M  END
$$$$
