YTE.pdb
     RDKit          3D

 29 29  0  0  1  0  0  0  0  0999 V2000
   20.2302  -19.8606  -15.2934 O   0  0  0  0  0  0  0  0  0  0  0  0
   20.6906  -18.5834  -15.5254 C   0  0  0  0  0  0  0  0  0  0  0  0
   22.0542  -18.3255  -15.5959 C   0  0  0  0  0  0  0  0  0  0  0  0
   22.5228  -17.0341  -15.8314 C   0  0  0  0  0  0  0  0  0  0  0  0
   21.5940  -16.0429  -15.9878 C   0  0  0  0  0  0  0  0  0  0  0  0
   22.0293  -14.6503  -16.2387 C   0  0  0  0  0  0  0  0  0  0  0  0
   21.8202  -14.2514  -17.6808 C   0  0  2  0  0  0  0  0  0  0  0  0
   22.7777  -15.0173  -18.4601 N   0  0  0  0  0  0  0  0  0  0  0  0
   22.0157  -12.7826  -17.8605 C   0  0  0  0  0  0  0  0  0  0  0  0
   23.1536  -12.3132  -18.1603 O   0  0  0  0  0  0  0  0  0  0  0  0
   20.2323  -16.3029  -15.9170 C   0  0  0  0  0  0  0  0  0  0  0  0
   19.7571  -17.5562  -15.6881 C   0  0  0  0  0  0  0  0  0  0  0  0
   20.5909  -10.5873  -20.3196 C   0  0  0  0  0  0  0  0  0  0  0  0
   20.1279  -10.0090  -18.9936 C   0  0  1  0  0  0  0  0  0  0  0  0
   18.7544  -10.3149  -18.8337 O   0  0  0  0  0  0  0  0  0  0  0  0
   20.9191  -10.5050  -17.8394 C   0  0  2  0  0  0  0  0  0  0  0  0
   20.9315  -11.9204  -17.6965 N   0  0  0  0  0  0  0  0  0  0  0  0
   20.5496   -9.7329  -16.6260 C   0  0  0  0  0  0  0  0  0  0  0  0
   19.9503  -10.1398  -15.6289 O   0  0  0  0  0  0  0  0  0  0  0  0
   20.9361   -8.3501  -16.6044 N   0  0  0  0  0  0  0  0  0  0  0  0
   20.5994   -7.5142  -15.4545 C   0  0  1  0  0  0  0  0  0  0  0  0
   21.6739   -6.4756  -15.2325 C   0  0  0  0  0  0  0  0  0  0  0  0
   21.2497   -5.6514  -14.0033 C   0  0  0  0  0  0  0  0  0  0  0  0
   22.2693   -4.6135  -13.7166 C   0  0  0  0  0  0  0  0  0  0  0  0
   23.4668   -4.7581  -14.0661 O   0  0  0  0  0  0  0  0  0  0  0  0
   19.3025   -6.8500  -15.7189 C   0  0  0  0  0  0  0  0  0  0  0  0
   18.9650   -6.5567  -16.8876 O   0  0  0  0  0  0  0  0  0  0  0  0
   21.9308   -3.4377  -13.0414 O   0  0  0  0  0  0  0  0  0  0  0  0
   18.4512   -6.5486  -14.6787 O   0  0  0  0  0  0  0  0  0  0  0  0
  1  2  1  0
  2 12  2  0
  3  2  1  0
  3  4  2  0
  4  5  1  0
  5 11  2  0
  5  6  1  0
  7  8  1  6
  7  6  1  0
  9 10  2  0
  9  7  1  0
 12 11  1  0
 14 13  1  6
 14 16  1  0
 15 14  1  0
 16 17  1  1
 17  9  1  0
 18 19  2  0
 18 16  1  0
 20 18  1  0
 21 20  1  0
 21 22  1  6
 22 23  1  0
 23 24  1  0
 24 28  1  0
 25 24  2  0
 26 21  1  0
 27 26  2  0
 29 26  1  0
M  END
$$$$
