MMP.pdb
     RDKit          3D

 24 24  0  0  1  0  0  0  0  0999 V2000
   25.5880  -15.5998  -16.4761 C   0  0  0  0  0  0  0  0  0  0  0  0
   27.3677  -15.3209  -16.5885 S   0  0  0  0  0  0  0  0  0  0  0  0
   28.2266  -16.7874  -15.9755 C   0  0  0  0  0  0  0  0  0  0  0  0
   27.2495  -17.8793  -15.6041 C   0  0  0  0  0  0  0  0  0  0  0  0
   27.9540  -19.0484  -15.0133 C   0  0  2  0  0  0  0  0  0  0  0  0
   28.7971  -19.6535  -16.0319 N   0  0  0  0  0  0  0  0  0  0  0  0
   27.0866  -20.0518  -14.3673 C   0  0  0  0  0  0  0  0  0  0  0  0
   26.6192  -21.0130  -15.0686 O   0  0  0  0  0  0  0  0  0  0  0  0
   25.6003  -20.3098   -7.8184 C   0  0  0  0  0  0  0  0  0  0  0  0
   27.0477  -21.0130   -8.5568 S   0  0  0  0  0  0  0  0  0  0  0  0
   26.9331  -21.3107  -10.3226 C   0  0  0  0  0  0  0  0  0  0  0  0
   25.6769  -20.9220  -10.9828 C   0  0  0  0  0  0  0  0  0  0  0  0
   25.6890  -20.8886  -12.4773 C   0  0  2  0  0  0  0  0  0  0  0  0
   26.7128  -20.0517  -13.0000 N   0  0  0  0  0  0  0  0  0  0  0  0
   24.3889  -20.6551  -13.1184 C   0  0  0  0  0  0  0  0  0  0  0  0
   24.1493  -19.4107  -13.4615 O   0  0  0  0  0  0  0  0  0  0  0  0
   23.3572  -21.5464  -13.4274 N   0  0  0  0  0  0  0  0  0  0  0  0
   23.3581  -22.9628  -13.0428 C   0  0  0  0  0  0  0  0  0  0  0  0
   22.8470  -23.6010  -14.3095 C   0  0  0  0  0  0  0  0  0  0  0  0
   22.0454  -22.5549  -15.0250 C   0  0  0  0  0  0  0  0  0  0  0  0
   22.1278  -21.3562  -14.0900 C   0  0  1  0  0  0  0  0  0  0  0  0
   20.9556  -21.2735  -13.2045 C   0  0  0  0  0  0  0  0  0  0  0  0
   19.8661  -20.8913  -13.6819 O   0  0  0  0  0  0  0  0  0  0  0  0
   21.0401  -21.6080  -11.8684 O   0  0  0  0  0  0  0  0  0  0  0  0
  2  1  1  0
  2  3  1  0
  3  4  1  0
  5  6  1  6
  5  4  1  0
  7  5  1  0
  7  8  2  0
 10  9  1  0
 10 11  1  0
 11 12  1  0
 13 12  1  1
 13 15  1  0
 13 14  1  0
 14  7  1  0
 15 16  2  0
 17 21  1  0
 17 15  1  0
 18 17  1  0
 19 18  1  0
 20 19  1  0
 20 21  1  0
 21 22  1  1
 22 23  2  0
 22 24  1  0
M  END
$$$$
