MMP.pdb
     RDKit          3D

 24 24  0  0  1  0  0  0  0  0999 V2000
   20.4016  -26.6890   -0.4585 C   0  0  0  0  0  0  0  0  0  0  0  0
   19.6622  -26.8322   -2.0989 S   0  0  0  0  0  0  0  0  0  0  0  0
   18.0321  -27.5943   -1.9381 C   0  0  0  0  0  0  0  0  0  0  0  0
   17.2194  -26.9257   -0.8529 C   0  0  0  0  0  0  0  0  0  0  0  0
   16.1812  -26.0342   -1.4356 C   0  0  2  0  0  0  0  0  0  0  0  0
   16.6520  -25.5405   -2.7198 N   0  0  0  0  0  0  0  0  0  0  0  0
   15.7327  -24.9298   -0.5663 C   0  0  0  0  0  0  0  0  0  0  0  0
   16.4300  -23.8598   -0.5113 O   0  0  0  0  0  0  0  0  0  0  0  0
   10.8685  -24.9548    4.3684 C   0  0  0  0  0  0  0  0  0  0  0  0
   10.9654  -23.3397    3.6494 S   0  0  0  0  0  0  0  0  0  0  0  0
   12.4489  -23.0207    2.6917 C   0  0  0  0  0  0  0  0  0  0  0  0
   12.9102  -24.0973    1.8011 C   0  0  0  0  0  0  0  0  0  0  0  0
   14.2431  -23.9037    1.1522 C   0  0  2  0  0  0  0  0  0  0  0  0
   14.5646  -24.9429    0.2366 N   0  0  0  0  0  0  0  0  0  0  0  0
   15.3529  -23.5907    2.0611 C   0  0  0  0  0  0  0  0  0  0  0  0
   16.1827  -24.5813    2.2933 O   0  0  0  0  0  0  0  0  0  0  0  0
   15.6748  -22.4025    2.7235 N   0  0  0  0  0  0  0  0  0  0  0  0
   14.9492  -21.1404    2.5374 C   0  0  0  0  0  0  0  0  0  0  0  0
   16.0943  -20.1619    2.4714 C   0  0  0  0  0  0  0  0  0  0  0  0
   17.2380  -20.7877    3.2125 C   0  0  0  0  0  0  0  0  0  0  0  0
   16.6574  -22.1111    3.6912 C   0  0  1  0  0  0  0  0  0  0  0  0
   16.1563  -22.0195    5.0717 C   0  0  0  0  0  0  0  0  0  0  0  0
   14.9253  -21.9174    5.2598 O   0  0  0  0  0  0  0  0  0  0  0  0
   17.0161  -22.0443    6.1506 O   0  0  0  0  0  0  0  0  0  0  0  0
  2  1  1  0
  2  3  1  0
  3  4  1  0
  5  6  1  6
  5  4  1  0
  7  5  1  0
  7  8  2  0
 10  9  1  0
 10 11  1  0
 11 12  1  0
 13 12  1  1
 13 15  1  0
 13 14  1  0
 14  7  1  0
 15 16  2  0
 17 21  1  0
 17 15  1  0
 18 17  1  0
 19 18  1  0
 20 19  1  0
 20 21  1  0
 21 22  1  1
 22 23  2  0
 22 24  1  0
M  END
$$$$
