MMP.pdb
     RDKit          3D

 24 24  0  0  1  0  0  0  0  0999 V2000
   22.1244  -20.3826  -20.7542 C   0  0  0  0  0  0  0  0  0  0  0  0
   20.3980  -20.0294  -20.3632 S   0  0  0  0  0  0  0  0  0  0  0  0
   20.3344  -19.0307  -18.8591 C   0  0  0  0  0  0  0  0  0  0  0  0
   21.4967  -19.3432  -17.9444 C   0  0  0  0  0  0  0  0  0  0  0  0
   21.4590  -18.4944  -16.7237 C   0  0  2  0  0  0  0  0  0  0  0  0
   21.1474  -17.1277  -17.1104 N   0  0  0  0  0  0  0  0  0  0  0  0
   22.6635  -18.5516  -15.8738 C   0  0  0  0  0  0  0  0  0  0  0  0
   23.6524  -17.7882  -16.1451 O   0  0  0  0  0  0  0  0  0  0  0  0
   25.1233  -20.0614   -9.2545 C   0  0  0  0  0  0  0  0  0  0  0  0
   25.1435  -21.3244  -10.4951 S   0  0  0  0  0  0  0  0  0  0  0  0
   25.2513  -20.7299  -12.1847 C   0  0  0  0  0  0  0  0  0  0  0  0
   23.9875  -20.3621  -12.8426 C   0  0  0  0  0  0  0  0  0  0  0  0
   24.0977  -19.6469  -14.1507 C   0  0  2  0  0  0  0  0  0  0  0  0
   22.8322  -19.3976  -14.7490 N   0  0  0  0  0  0  0  0  0  0  0  0
   25.0694  -20.2042  -15.0999 C   0  0  0  0  0  0  0  0  0  0  0  0
   24.5589  -20.9589  -16.0452 O   0  0  0  0  0  0  0  0  0  0  0  0
   26.4584  -20.0613  -15.1644 N   0  0  0  0  0  0  0  0  0  0  0  0
   27.2626  -19.4118  -14.1224 C   0  0  0  0  0  0  0  0  0  0  0  0
   28.2104  -18.5949  -14.9635 C   0  0  0  0  0  0  0  0  0  0  0  0
   28.3021  -19.2785  -16.2951 C   0  0  0  0  0  0  0  0  0  0  0  0
   27.3964  -20.4904  -16.1250 C   0  0  1  0  0  0  0  0  0  0  0  0
   28.1581  -21.6923  -15.7503 C   0  0  0  0  0  0  0  0  0  0  0  0
   28.0415  -22.1416  -14.5903 O   0  0  0  0  0  0  0  0  0  0  0  0
   28.9905  -22.3245  -16.6511 O   0  0  0  0  0  0  0  0  0  0  0  0
  2  1  1  0
  2  3  1  0
  3  4  1  0
  5  6  1  6
  5  4  1  0
  7  5  1  0
  7  8  2  0
 10  9  1  0
 10 11  1  0
 11 12  1  0
 13 12  1  1
 13 15  1  0
 13 14  1  0
 14  7  1  0
 15 16  2  0
 17 21  1  0
 17 15  1  0
 18 17  1  0
 19 18  1  0
 20 19  1  0
 20 21  1  0
 21 22  1  1
 22 23  2  0
 22 24  1  0
M  END
$$$$
