MMP.pdb
     RDKit          3D

 24 24  0  0  1  0  0  0  0  0999 V2000
   21.5426  -12.5189  -17.5880 C   0  0  0  0  0  0  0  0  0  0  0  0
   20.1963  -13.7081  -17.7640 S   0  0  0  0  0  0  0  0  0  0  0  0
   18.8477  -13.2281  -16.6617 C   0  0  0  0  0  0  0  0  0  0  0  0
   18.8670  -11.7416  -16.3876 C   0  0  0  0  0  0  0  0  0  0  0  0
   17.7376  -11.3466  -15.5041 C   0  0  2  0  0  0  0  0  0  0  0  0
   16.4856  -11.6071  -16.1963 N   0  0  0  0  0  0  0  0  0  0  0  0
   17.7893   -9.9658  -14.9873 C   0  0  0  0  0  0  0  0  0  0  0  0
   17.5259   -8.9961  -15.7776 O   0  0  0  0  0  0  0  0  0  0  0  0
   16.2363   -6.6075   -9.0327 C   0  0  0  0  0  0  0  0  0  0  0  0
   16.0733   -8.2669   -9.6282 S   0  0  0  0  0  0  0  0  0  0  0  0
   16.4984   -8.5008  -11.3557 C   0  0  0  0  0  0  0  0  0  0  0  0
   17.8508   -8.0944  -11.7691 C   0  0  0  0  0  0  0  0  0  0  0  0
   18.1827   -8.2508  -13.2183 C   0  0  2  0  0  0  0  0  0  0  0  0
   18.1114   -9.6018  -13.6558 N   0  0  0  0  0  0  0  0  0  0  0  0
   19.4087   -7.5780  -13.6657 C   0  0  0  0  0  0  0  0  0  0  0  0
   20.4433   -8.3649  -13.8512 O   0  0  0  0  0  0  0  0  0  0  0  0
   19.6573   -6.2281  -13.9302 N   0  0  0  0  0  0  0  0  0  0  0  0
   18.6608   -5.1643  -13.7579 C   0  0  0  0  0  0  0  0  0  0  0  0
   18.8965   -4.3501  -15.0047 C   0  0  0  0  0  0  0  0  0  0  0  0
   20.3128   -4.6076  -15.4252 C   0  0  0  0  0  0  0  0  0  0  0  0
   20.8242   -5.5602  -14.3533 C   0  0  1  0  0  0  0  0  0  0  0  0
   21.5472   -4.8463  -13.2890 C   0  0  0  0  0  0  0  0  0  0  0  0
   20.9728   -4.6521  -12.1966 O   0  0  0  0  0  0  0  0  0  0  0  0
   22.8368   -4.3926  -13.4769 O   0  0  0  0  0  0  0  0  0  0  0  0
  2  1  1  0
  2  3  1  0
  3  4  1  0
  5  6  1  6
  5  4  1  0
  7  5  1  0
  7  8  2  0
 10  9  1  0
 10 11  1  0
 11 12  1  0
 13 12  1  1
 13 15  1  0
 13 14  1  0
 14  7  1  0
 15 16  2  0
 17 21  1  0
 17 15  1  0
 18 17  1  0
 19 18  1  0
 20 19  1  0
 20 21  1  0
 21 22  1  1
 22 23  2  0
 22 24  1  0
M  END
$$$$
