MMP.pdb
     RDKit          3D

 24 24  0  0  1  0  0  0  0  0999 V2000
   20.5713  -22.1579  -17.2598 C   0  0  0  0  0  0  0  0  0  0  0  0
   19.1566  -21.4477  -16.3926 S   0  0  0  0  0  0  0  0  0  0  0  0
   19.7123  -20.8114  -14.7955 C   0  0  0  0  0  0  0  0  0  0  0  0
   20.9368  -21.5512  -14.3071 C   0  0  0  0  0  0  0  0  0  0  0  0
   21.3590  -21.0600  -12.9683 C   0  0  2  0  0  0  0  0  0  0  0  0
   20.3859  -20.0883  -12.4954 N   0  0  0  0  0  0  0  0  0  0  0  0
   22.7324  -20.5266  -12.8923 C   0  0  0  0  0  0  0  0  0  0  0  0
   23.0071  -19.4300  -13.4892 O   0  0  0  0  0  0  0  0  0  0  0  0
   28.4835  -20.7773   -8.7301 C   0  0  0  0  0  0  0  0  0  0  0  0
   26.7449  -21.0086   -8.4884 S   0  0  0  0  0  0  0  0  0  0  0  0
   25.7121  -20.5151   -9.8702 C   0  0  0  0  0  0  0  0  0  0  0  0
   26.0124  -21.1233  -11.1760 C   0  0  0  0  0  0  0  0  0  0  0  0
   25.1561  -20.6978  -12.3251 C   0  0  2  0  0  0  0  0  0  0  0  0
   23.8085  -21.1329  -12.1969 N   0  0  0  0  0  0  0  0  0  0  0  0
   25.7079  -20.9601  -13.6602 C   0  0  0  0  0  0  0  0  0  0  0  0
   25.1148  -21.9193  -14.3325 O   0  0  0  0  0  0  0  0  0  0  0  0
   26.7673  -20.3511  -14.3391 N   0  0  0  0  0  0  0  0  0  0  0  0
   27.7647  -19.4896  -13.6931 C   0  0  0  0  0  0  0  0  0  0  0  0
   27.8811  -18.3804  -14.7076 C   0  0  0  0  0  0  0  0  0  0  0  0
   27.4777  -18.9624  -16.0295 C   0  0  0  0  0  0  0  0  0  0  0  0
   27.1689  -20.4138  -15.6888 C   0  0  1  0  0  0  0  0  0  0  0  0
   28.3199  -21.2923  -15.9502 C   0  0  0  0  0  0  0  0  0  0  0  0
   28.9067  -21.8202  -14.9816 O   0  0  0  0  0  0  0  0  0  0  0  0
   28.7568  -21.5397  -17.2355 O   0  0  0  0  0  0  0  0  0  0  0  0
  2  1  1  0
  2  3  1  0
  3  4  1  0
  5  6  1  6
  5  4  1  0
  7  5  1  0
  7  8  2  0
 10  9  1  0
 10 11  1  0
 11 12  1  0
 13 12  1  1
 13 15  1  0
 13 14  1  0
 14  7  1  0
 15 16  2  0
 17 21  1  0
 17 15  1  0
 18 17  1  0
 19 18  1  0
 20 19  1  0
 20 21  1  0
 21 22  1  1
 22 23  2  0
 22 24  1  0
M  END
$$$$
