MMP.pdb
     RDKit          3D

 24 24  0  0  1  0  0  0  0  0999 V2000
   25.9148  -15.0663  -14.6791 C   0  0  0  0  0  0  0  0  0  0  0  0
   27.4921  -15.1623  -15.5515 S   0  0  0  0  0  0  0  0  0  0  0  0
   27.3610  -16.4051  -16.8563 C   0  0  0  0  0  0  0  0  0  0  0  0
   26.7723  -17.6935  -16.3285 C   0  0  0  0  0  0  0  0  0  0  0  0
   27.7743  -18.4522  -15.5333 C   0  0  2  0  0  0  0  0  0  0  0  0
   28.8118  -18.9412  -16.4272 N   0  0  0  0  0  0  0  0  0  0  0  0
   27.2296  -19.5383  -14.6965 C   0  0  0  0  0  0  0  0  0  0  0  0
   26.9379  -20.6569  -15.2425 O   0  0  0  0  0  0  0  0  0  0  0  0
   26.8509  -19.8723   -7.9420 C   0  0  0  0  0  0  0  0  0  0  0  0
   25.5388  -20.9145   -8.5138 S   0  0  0  0  0  0  0  0  0  0  0  0
   25.4572  -21.1282  -10.2936 C   0  0  0  0  0  0  0  0  0  0  0  0
   26.3075  -20.2470  -11.1093 C   0  0  0  0  0  0  0  0  0  0  0  0
   26.2067  -20.4054  -12.5924 C   0  0  2  0  0  0  0  0  0  0  0  0
   26.9937  -19.4568  -13.3012 N   0  0  0  0  0  0  0  0  0  0  0  0
   24.8445  -20.5197  -13.1282 C   0  0  0  0  0  0  0  0  0  0  0  0
   24.2959  -19.3891  -13.5084 O   0  0  0  0  0  0  0  0  0  0  0  0
   24.0301  -21.6424  -13.3031 N   0  0  0  0  0  0  0  0  0  0  0  0
   24.3731  -22.9845  -12.8181 C   0  0  0  0  0  0  0  0  0  0  0  0
   23.9609  -23.8267  -13.9987 C   0  0  0  0  0  0  0  0  0  0  0  0
   22.9081  -23.0516  -14.7333 C   0  0  0  0  0  0  0  0  0  0  0  0
   22.7594  -21.7895  -13.8948 C   0  0  1  0  0  0  0  0  0  0  0  0
   21.6432  -21.8961  -12.9420 C   0  0  0  0  0  0  0  0  0  0  0  0
   21.8995  -22.0659  -11.7310 O   0  0  0  0  0  0  0  0  0  0  0  0
   20.3311  -21.8122  -13.3610 O   0  0  0  0  0  0  0  0  0  0  0  0
  2  1  1  0
  2  3  1  0
  3  4  1  0
  5  6  1  6
  5  4  1  0
  7  5  1  0
  7  8  2  0
 10  9  1  0
 10 11  1  0
 11 12  1  0
 13 12  1  1
 13 15  1  0
 13 14  1  0
 14  7  1  0
 15 16  2  0
 17 21  1  0
 17 15  1  0
 18 17  1  0
 19 18  1  0
 20 19  1  0
 20 21  1  0
 21 22  1  1
 22 23  2  0
 22 24  1  0
M  END
$$$$
