MMP.pdb
     RDKit          3D

 24 24  0  0  1  0  0  0  0  0999 V2000
   27.8703  -17.3393  -19.1499 C   0  0  0  0  0  0  0  0  0  0  0  0
   27.9723  -16.0313  -17.9103 S   0  0  0  0  0  0  0  0  0  0  0  0
   28.3547  -16.7754  -16.3090 C   0  0  0  0  0  0  0  0  0  0  0  0
   27.3883  -17.8896  -15.9778 C   0  0  0  0  0  0  0  0  0  0  0  0
   28.1132  -19.1170  -15.5534 C   0  0  2  0  0  0  0  0  0  0  0  0
   28.7112  -19.7386  -16.7241 N   0  0  0  0  0  0  0  0  0  0  0  0
   27.3179  -20.0868  -14.7765 C   0  0  0  0  0  0  0  0  0  0  0  0
   26.5697  -20.9164  -15.3979 O   0  0  0  0  0  0  0  0  0  0  0  0
   26.0930  -19.9222   -7.7999 C   0  0  0  0  0  0  0  0  0  0  0  0
   25.7529  -21.4844   -8.5605 S   0  0  0  0  0  0  0  0  0  0  0  0
   25.4504  -21.4205  -10.3280 C   0  0  0  0  0  0  0  0  0  0  0  0
   26.5395  -20.9029  -11.1712 C   0  0  0  0  0  0  0  0  0  0  0  0
   26.2910  -20.8796  -12.6452 C   0  0  2  0  0  0  0  0  0  0  0  0
   27.3065  -20.1900  -13.3628 N   0  0  0  0  0  0  0  0  0  0  0  0
   24.9398  -20.4779  -13.0557 C   0  0  0  0  0  0  0  0  0  0  0  0
   24.7850  -19.1962  -13.2944 O   0  0  0  0  0  0  0  0  0  0  0  0
   23.7828  -21.2412  -13.2372 N   0  0  0  0  0  0  0  0  0  0  0  0
   23.6974  -22.6776  -12.9479 C   0  0  0  0  0  0  0  0  0  0  0  0
   22.9191  -23.1622  -14.1448 C   0  0  0  0  0  0  0  0  0  0  0  0
   22.1254  -21.9920  -14.6442 C   0  0  0  0  0  0  0  0  0  0  0  0
   22.4878  -20.8846  -13.6643 C   0  0  1  0  0  0  0  0  0  0  0  0
   21.4936  -20.7632  -12.5863 C   0  0  0  0  0  0  0  0  0  0  0  0
   21.7559  -21.2537  -11.4675 O   0  0  0  0  0  0  0  0  0  0  0  0
   20.2885  -20.1226  -12.7899 O   0  0  0  0  0  0  0  0  0  0  0  0
  2  1  1  0
  2  3  1  0
  3  4  1  0
  5  6  1  6
  5  4  1  0
  7  5  1  0
  7  8  2  0
 10  9  1  0
 10 11  1  0
 11 12  1  0
 13 12  1  1
 13 15  1  0
 13 14  1  0
 14  7  1  0
 15 16  2  0
 17 21  1  0
 17 15  1  0
 18 17  1  0
 19 18  1  0
 20 19  1  0
 20 21  1  0
 21 22  1  1
 22 23  2  0
 22 24  1  0
M  END
$$$$
