MMP.pdb
     RDKit          3D

 24 24  0  0  1  0  0  0  0  0999 V2000
   31.9499  -13.9834   14.6326 C   0  0  0  0  0  0  0  0  0  0  0  0
   32.0887  -15.7816   14.7048 S   0  0  0  0  0  0  0  0  0  0  0  0
   30.8140  -16.5067   13.6495 C   0  0  0  0  0  0  0  0  0  0  0  0
   30.9273  -18.0136   13.6102 C   0  0  0  0  0  0  0  0  0  0  0  0
   29.8800  -18.6053   12.7356 C   0  0  2  0  0  0  0  0  0  0  0  0
   28.7878  -19.0845   13.5675 N   0  0  0  0  0  0  0  0  0  0  0  0
   30.3466  -19.6513   11.8057 C   0  0  0  0  0  0  0  0  0  0  0  0
   30.2388  -20.8787   12.1462 O   0  0  0  0  0  0  0  0  0  0  0  0
   32.4551  -21.8633    4.4561 C   0  0  0  0  0  0  0  0  0  0  0  0
   31.4854  -20.8809    5.5648 S   0  0  0  0  0  0  0  0  0  0  0  0
   31.8764  -21.0861    7.3040 C   0  0  0  0  0  0  0  0  0  0  0  0
   31.1392  -20.2404    8.2560 C   0  0  0  0  0  0  0  0  0  0  0  0
   31.4279  -20.4577    9.7066 C   0  0  2  0  0  0  0  0  0  0  0  0
   30.9190  -19.4165   10.5303 N   0  0  0  0  0  0  0  0  0  0  0  0
   32.8164  -20.8062   10.0331 C   0  0  0  0  0  0  0  0  0  0  0  0
   33.5840  -19.7944   10.3662 O   0  0  0  0  0  0  0  0  0  0  0  0
   33.4600  -22.0470   10.0492 N   0  0  0  0  0  0  0  0  0  0  0  0
   32.8257  -23.3024    9.6299 C   0  0  0  0  0  0  0  0  0  0  0  0
   33.3065  -24.2378   10.7102 C   0  0  0  0  0  0  0  0  0  0  0  0
   34.5849  -23.6609   11.2410 C   0  0  0  0  0  0  0  0  0  0  0  0
   34.7774  -22.4097   10.3953 C   0  0  1  0  0  0  0  0  0  0  0  0
   35.6704  -22.6561    9.2520 C   0  0  0  0  0  0  0  0  0  0  0  0
   35.1839  -22.6759    8.1014 O   0  0  0  0  0  0  0  0  0  0  0  0
   37.0230  -22.8636    9.4293 O   0  0  0  0  0  0  0  0  0  0  0  0
  2  1  1  0
  2  3  1  0
  3  4  1  0
  5  6  1  1
  5  4  1  0
  7  5  1  0
  7  8  2  0
 10  9  1  0
 10 11  1  0
 11 12  1  0
 13 12  1  6
 13 15  1  0
 13 14  1  0
 14  7  1  0
 15 16  2  0
 17 21  1  0
 17 15  1  0
 18 17  1  0
 19 18  1  0
 20 19  1  0
 20 21  1  0
 21 22  1  6
 22 23  2  0
 22 24  1  0
M  END
$$$$
