MMP.pdb
     RDKit          3D

 24 24  0  0  1  0  0  0  0  0999 V2000
   20.7110  -24.1974  -17.4757 C   0  0  0  0  0  0  0  0  0  0  0  0
   19.4748  -22.9005  -17.6944 S   0  0  0  0  0  0  0  0  0  0  0  0
   19.4405  -21.8725  -16.2091 C   0  0  0  0  0  0  0  0  0  0  0  0
   20.7811  -21.2182  -15.9648 C   0  0  0  0  0  0  0  0  0  0  0  0
   20.7805  -20.4610  -14.6847 C   0  0  2  0  0  0  0  0  0  0  0  0
   19.8801  -19.3260  -14.8098 N   0  0  0  0  0  0  0  0  0  0  0  0
   22.1077  -20.0430  -14.1941 C   0  0  0  0  0  0  0  0  0  0  0  0
   22.6016  -18.9373  -14.6035 O   0  0  0  0  0  0  0  0  0  0  0  0
   25.7104  -20.1827   -8.3570 C   0  0  0  0  0  0  0  0  0  0  0  0
   26.6042  -21.0527   -9.6136 S   0  0  0  0  0  0  0  0  0  0  0  0
   26.1100  -20.6775  -11.2973 C   0  0  0  0  0  0  0  0  0  0  0  0
   24.6867  -20.8517  -11.6275 C   0  0  0  0  0  0  0  0  0  0  0  0
   24.2625  -20.4364  -12.9995 C   0  0  2  0  0  0  0  0  0  0  0  0
   22.9104  -20.7733  -13.2822 N   0  0  0  0  0  0  0  0  0  0  0  0
   25.1752  -20.8102  -14.0873 C   0  0  0  0  0  0  0  0  0  0  0  0
   24.8234  -21.8732  -14.7728 O   0  0  0  0  0  0  0  0  0  0  0  0
   26.3648  -20.2153  -14.5174 N   0  0  0  0  0  0  0  0  0  0  0  0
   27.1055  -19.2141  -13.7408 C   0  0  0  0  0  0  0  0  0  0  0  0
   27.4729  -18.2307  -14.8230 C   0  0  0  0  0  0  0  0  0  0  0  0
   27.4862  -18.9956  -16.1128 C   0  0  0  0  0  0  0  0  0  0  0  0
   27.1397  -20.4130  -15.6781 C   0  0  1  0  0  0  0  0  0  0  0  0
   28.3453  -21.2339  -15.4832 C   0  0  0  0  0  0  0  0  0  0  0  0
   28.7403  -21.4566  -14.3190 O   0  0  0  0  0  0  0  0  0  0  0  0
   29.0391  -21.7562  -16.5555 O   0  0  0  0  0  0  0  0  0  0  0  0
  2  1  1  0
  2  3  1  0
  3  4  1  0
  5  6  1  6
  5  4  1  0
  7  5  1  0
  7  8  2  0
 10  9  1  0
 10 11  1  0
 11 12  1  0
 13 12  1  1
 13 15  1  0
 13 14  1  0
 14  7  1  0
 15 16  2  0
 17 21  1  0
 17 15  1  0
 18 17  1  0
 19 18  1  0
 20 19  1  0
 20 21  1  0
 21 22  1  1
 22 23  2  0
 22 24  1  0
M  END
$$$$
