MMP.pdb
     RDKit          3D

 24 24  0  0  1  0  0  0  0  0999 V2000
   24.9517  -15.5417  -19.0213 C   0  0  0  0  0  0  0  0  0  0  0  0
   24.2796  -14.2371  -17.9705 S   0  0  0  0  0  0  0  0  0  0  0  0
   24.6948  -14.6031  -16.2507 C   0  0  0  0  0  0  0  0  0  0  0  0
   25.0944  -16.0509  -16.0798 C   0  0  0  0  0  0  0  0  0  0  0  0
   26.3291  -16.1710  -15.2594 C   0  0  2  0  0  0  0  0  0  0  0  0
   27.4326  -15.5528  -15.9769 N   0  0  0  0  0  0  0  0  0  0  0  0
   26.6703  -17.5383  -14.8227 C   0  0  0  0  0  0  0  0  0  0  0  0
   27.3300  -18.2966  -15.6127 O   0  0  0  0  0  0  0  0  0  0  0  0
   25.6803  -20.3067   -8.6800 C   0  0  0  0  0  0  0  0  0  0  0  0
   26.2852  -21.6113   -9.7128 S   0  0  0  0  0  0  0  0  0  0  0  0
   26.3312  -21.2345  -11.4665 C   0  0  0  0  0  0  0  0  0  0  0  0
   26.2581  -19.8142  -11.8441 C   0  0  0  0  0  0  0  0  0  0  0  0
   26.4468  -19.4964  -13.2926 C   0  0  2  0  0  0  0  0  0  0  0  0
   26.3267  -18.1072  -13.5707 N   0  0  0  0  0  0  0  0  0  0  0  0
   25.6806  -20.3266  -14.2305 C   0  0  0  0  0  0  0  0  0  0  0  0
   24.5334  -19.8196  -14.6184 O   0  0  0  0  0  0  0  0  0  0  0  0
   25.9744  -21.5764  -14.7837 N   0  0  0  0  0  0  0  0  0  0  0  0
   27.1741  -22.3548  -14.4537 C   0  0  0  0  0  0  0  0  0  0  0  0
   27.5792  -22.8447  -15.8208 C   0  0  0  0  0  0  0  0  0  0  0  0
   26.3356  -22.8586  -16.6587 C   0  0  0  0  0  0  0  0  0  0  0  0
   25.2604  -22.3861  -15.6900 C   0  0  1  0  0  0  0  0  0  0  0  0
   24.5441  -23.5156  -15.0766 C   0  0  0  0  0  0  0  0  0  0  0  0
   24.8426  -23.8571  -13.9124 O   0  0  0  0  0  0  0  0  0  0  0  0
   23.5579  -24.1966  -15.7605 O   0  0  0  0  0  0  0  0  0  0  0  0
  2  1  1  0
  2  3  1  0
  3  4  1  0
  5  6  1  6
  5  4  1  0
  7  5  1  0
  7  8  2  0
 10  9  1  0
 10 11  1  0
 11 12  1  0
 13 12  1  1
 13 15  1  0
 13 14  1  0
 14  7  1  0
 15 16  2  0
 17 21  1  0
 17 15  1  0
 18 17  1  0
 19 18  1  0
 20 19  1  0
 20 21  1  0
 21 22  1  1
 22 23  2  0
 22 24  1  0
M  END
$$$$
