MMP.pdb
     RDKit          3D

 24 24  0  0  1  0  0  0  0  0999 V2000
   27.4958  -15.0955  -15.3590 C   0  0  0  0  0  0  0  0  0  0  0  0
   26.4317  -16.0239  -16.4831 S   0  0  0  0  0  0  0  0  0  0  0  0
   26.8258  -17.7812  -16.3394 C   0  0  0  0  0  0  0  0  0  0  0  0
   28.0540  -17.9991  -15.4855 C   0  0  0  0  0  0  0  0  0  0  0  0
   28.3843  -19.4457  -15.3841 C   0  0  2  0  0  0  0  0  0  0  0  0
   28.5107  -19.9945  -16.7248 N   0  0  0  0  0  0  0  0  0  0  0  0
   27.4639  -20.2503  -14.5582 C   0  0  0  0  0  0  0  0  0  0  0  0
   26.6598  -21.0606  -15.1336 O   0  0  0  0  0  0  0  0  0  0  0  0
   26.7959  -19.7663   -7.8346 C   0  0  0  0  0  0  0  0  0  0  0  0
   25.4743  -20.8334   -8.3340 S   0  0  0  0  0  0  0  0  0  0  0  0
   25.3645  -21.1337  -10.0996 C   0  0  0  0  0  0  0  0  0  0  0  0
   26.4373  -20.5754  -10.9376 C   0  0  0  0  0  0  0  0  0  0  0  0
   26.3371  -20.8264  -12.4079 C   0  0  2  0  0  0  0  0  0  0  0  0
   27.3861  -20.2098  -13.1434 N   0  0  0  0  0  0  0  0  0  0  0  0
   25.0165  -20.5897  -13.0045 C   0  0  0  0  0  0  0  0  0  0  0  0
   24.8181  -19.3748  -13.4609 O   0  0  0  0  0  0  0  0  0  0  0  0
   23.9284  -21.4516  -13.1692 N   0  0  0  0  0  0  0  0  0  0  0  0
   23.8894  -22.8263  -12.6563 C   0  0  0  0  0  0  0  0  0  0  0  0
   23.2715  -23.5483  -13.8268 C   0  0  0  0  0  0  0  0  0  0  0  0
   22.4747  -22.5310  -14.5877 C   0  0  0  0  0  0  0  0  0  0  0  0
   22.6696  -21.2593  -13.7736 C   0  0  1  0  0  0  0  0  0  0  0  0
   21.5602  -21.0386  -12.8326 C   0  0  0  0  0  0  0  0  0  0  0  0
   21.7584  -21.2266  -11.6134 O   0  0  0  0  0  0  0  0  0  0  0  0
   20.3169  -20.6313  -13.2713 O   0  0  0  0  0  0  0  0  0  0  0  0
  2  1  1  0
  2  3  1  0
  3  4  1  0
  5  6  1  6
  5  4  1  0
  7  5  1  0
  7  8  2  0
 10  9  1  0
 10 11  1  0
 11 12  1  0
 13 12  1  1
 13 15  1  0
 13 14  1  0
 14  7  1  0
 15 16  2  0
 17 21  1  0
 17 15  1  0
 18 17  1  0
 19 18  1  0
 20 19  1  0
 20 21  1  0
 21 22  1  1
 22 23  2  0
 22 24  1  0
M  END
$$$$
