MMP.pdb
     RDKit          3D

 24 24  0  0  1  0  0  0  0  0999 V2000
   21.0025  -24.0690  -17.0545 C   0  0  0  0  0  0  0  0  0  0  0  0
   19.6341  -24.2412  -15.8901 S   0  0  0  0  0  0  0  0  0  0  0  0
   19.5489  -22.7539  -14.8680 C   0  0  0  0  0  0  0  0  0  0  0  0
   20.9004  -22.0855  -14.7595 C   0  0  0  0  0  0  0  0  0  0  0  0
   20.8551  -20.9394  -13.8128 C   0  0  2  0  0  0  0  0  0  0  0  0
   19.9515  -19.9293  -14.3398 N   0  0  0  0  0  0  0  0  0  0  0  0
   22.1636  -20.3578  -13.4576 C   0  0  0  0  0  0  0  0  0  0  0  0
   22.6617  -19.4465  -14.2032 O   0  0  0  0  0  0  0  0  0  0  0  0
   26.3457  -19.7798   -7.8089 C   0  0  0  0  0  0  0  0  0  0  0  0
   26.9915  -20.8656   -9.0494 S   0  0  0  0  0  0  0  0  0  0  0  0
   26.3352  -20.6113  -10.6999 C   0  0  0  0  0  0  0  0  0  0  0  0
   24.8787  -20.7406  -10.8642 C   0  0  0  0  0  0  0  0  0  0  0  0
   24.3259  -20.4123  -12.2138 C   0  0  2  0  0  0  0  0  0  0  0  0
   22.9436  -20.7238  -12.3321 N   0  0  0  0  0  0  0  0  0  0  0  0
   25.1115  -20.8942  -13.3568 C   0  0  0  0  0  0  0  0  0  0  0  0
   24.6808  -22.0081  -13.9023 O   0  0  0  0  0  0  0  0  0  0  0  0
   26.2498  -20.3576  -13.9654 N   0  0  0  0  0  0  0  0  0  0  0  0
   27.0757  -19.3019  -13.3673 C   0  0  0  0  0  0  0  0  0  0  0  0
   27.3274  -18.4246  -14.5673 C   0  0  0  0  0  0  0  0  0  0  0  0
   27.1960  -19.3017  -15.7765 C   0  0  0  0  0  0  0  0  0  0  0  0
   26.8923  -20.6694  -15.1806 C   0  0  1  0  0  0  0  0  0  0  0  0
   28.1079  -21.4871  -15.0442 C   0  0  0  0  0  0  0  0  0  0  0  0
   28.6084  -21.6371  -13.9092 O   0  0  0  0  0  0  0  0  0  0  0  0
   28.6976  -22.0848  -16.1392 O   0  0  0  0  0  0  0  0  0  0  0  0
  2  1  1  0
  2  3  1  0
  3  4  1  0
  5  6  1  6
  5  4  1  0
  7  5  1  0
  7  8  2  0
 10  9  1  0
 10 11  1  0
 11 12  1  0
 13 12  1  1
 13 15  1  0
 13 14  1  0
 14  7  1  0
 15 16  2  0
 17 21  1  0
 17 15  1  0
 18 17  1  0
 19 18  1  0
 20 19  1  0
 20 21  1  0
 21 22  1  1
 22 23  2  0
 22 24  1  0
M  END
$$$$
