MMP.pdb
     RDKit          3D

 24 24  0  0  1  0  0  0  0  0999 V2000
   21.4536  -24.7285  -14.9945 C   0  0  0  0  0  0  0  0  0  0  0  0
   19.7519  -24.2255  -14.6641 S   0  0  0  0  0  0  0  0  0  0  0  0
   19.6858  -22.4225  -14.5692 C   0  0  0  0  0  0  0  0  0  0  0  0
   21.0735  -21.8256  -14.5144 C   0  0  0  0  0  0  0  0  0  0  0  0
   21.3522  -21.2438  -13.1743 C   0  0  2  0  0  0  0  0  0  0  0  0
   20.2362  -20.3950  -12.7886 N   0  0  0  0  0  0  0  0  0  0  0  0
   22.6383  -20.5323  -13.0465 C   0  0  0  0  0  0  0  0  0  0  0  0
   22.8947  -19.5644  -13.8413 O   0  0  0  0  0  0  0  0  0  0  0  0
   26.9367  -19.6072   -7.9116 C   0  0  0  0  0  0  0  0  0  0  0  0
   25.9214  -21.0253   -8.2164 S   0  0  0  0  0  0  0  0  0  0  0  0
   25.0313  -21.0035   -9.7743 C   0  0  0  0  0  0  0  0  0  0  0  0
   25.7745  -20.5455  -10.9589 C   0  0  0  0  0  0  0  0  0  0  0  0
   24.9845  -20.3628  -12.2149 C   0  0  2  0  0  0  0  0  0  0  0  0
   23.6464  -20.8284  -12.0951 N   0  0  0  0  0  0  0  0  0  0  0  0
   25.6340  -20.8267  -13.4472 C   0  0  0  0  0  0  0  0  0  0  0  0
   25.1234  -21.9160  -13.9732 O   0  0  0  0  0  0  0  0  0  0  0  0
   26.7133  -20.2950  -14.1589 N   0  0  0  0  0  0  0  0  0  0  0  0
   27.7190  -19.4016  -13.5718 C   0  0  0  0  0  0  0  0  0  0  0  0
   27.8693  -18.3817  -14.6720 C   0  0  0  0  0  0  0  0  0  0  0  0
   27.4711  -19.0629  -15.9472 C   0  0  0  0  0  0  0  0  0  0  0  0
   27.1302  -20.4755  -15.4932 C   0  0  1  0  0  0  0  0  0  0  0  0
   28.2673  -21.3933  -15.6658 C   0  0  0  0  0  0  0  0  0  0  0  0
   28.6265  -21.6958  -16.8237 O   0  0  0  0  0  0  0  0  0  0  0  0
   28.9361  -21.9198  -14.5798 O   0  0  0  0  0  0  0  0  0  0  0  0
  2  1  1  0
  2  3  1  0
  3  4  1  0
  5  6  1  6
  5  4  1  0
  7  5  1  0
  7  8  2  0
 10  9  1  0
 10 11  1  0
 11 12  1  0
 13 12  1  1
 13 15  1  0
 13 14  1  0
 14  7  1  0
 15 16  2  0
 17 21  1  0
 17 15  1  0
 18 17  1  0
 19 18  1  0
 20 19  1  0
 20 21  1  0
 21 22  1  1
 22 23  2  0
 22 24  1  0
M  END
$$$$
