LSK.pdb
     RDKit          3D

 24 23  0  0  1  0  0  0  0  0999 V2000
    5.4705  -12.3240   24.3199 C   0  0  0  0  0  0  0  0  0  0  0  0
    6.0031  -12.5332   25.7190 C   0  0  2  0  0  0  0  0  0  0  0  0
    6.4073  -11.2227   26.3113 C   0  0  0  0  0  0  0  0  0  0  0  0
    7.1141  -13.5512   25.7344 C   0  0  0  0  0  0  0  0  0  0  0  0
    6.6083  -14.8344   25.1161 C   0  0  2  0  0  0  0  0  0  0  0  0
    5.7153  -15.5078   26.0415 N   0  0  0  0  0  0  0  0  0  0  0  0
    7.7446  -15.7606   24.8040 C   0  0  0  0  0  0  0  0  0  0  0  0
    8.1817  -16.5861   25.6501 O   0  0  0  0  0  0  0  0  0  0  0  0
    9.5472  -15.5916   21.0357 O   0  0  0  0  0  0  0  0  0  0  0  0
    9.3435  -16.8336   21.6362 C   0  0  0  0  0  0  0  0  0  0  0  0
    9.4030  -16.7175   23.1583 C   0  0  2  0  0  0  0  0  0  0  0  0
    8.3868  -15.7540   23.5354 N   0  0  0  0  0  0  0  0  0  0  0  0
   10.7368  -16.3653   23.6398 C   0  0  0  0  0  0  0  0  0  0  0  0
   11.0802  -15.1605   23.6769 O   0  0  0  0  0  0  0  0  0  0  0  0
   11.6561  -17.3466   24.0669 N   0  0  0  0  0  0  0  0  0  0  0  0
   12.9278  -16.9040   24.6430 C   0  0  1  0  0  0  0  0  0  0  0  0
   13.3211  -17.9748   25.6216 C   0  0  0  0  0  0  0  0  0  0  0  0
   12.4931  -17.8909   26.8626 C   0  0  0  0  0  0  0  0  0  0  0  0
   12.7657  -19.0625   27.7907 C   0  0  0  0  0  0  0  0  0  0  0  0
   11.8274  -18.8753   28.9891 C   0  0  0  0  0  0  0  0  0  0  0  0
   12.0576  -19.9753   29.9111 N   0  0  0  0  0  0  0  0  0  0  0  0
   13.8519  -16.7176   23.5232 C   0  0  0  0  0  0  0  0  0  0  0  0
   13.5859  -17.2656   22.2839 O   0  0  0  0  0  0  0  0  0  0  0  0
   14.9166  -16.0620   23.6265 O   0  0  0  0  0  0  0  0  0  0  0  0
  2  1  1  6
  2  4  1  0
  3  2  1  0
  5  4  1  0
  5  6  1  1
  7  5  1  0
  7  8  2  0
 10  9  1  0
 11 10  1  6
 11 12  1  0
 12  7  1  0
 13 14  2  0
 13 11  1  0
 15 13  1  0
 16 15  1  0
 16 17  1  1
 17 18  1  0
 19 18  1  0
 20 21  1  0
 20 19  1  0
 22 16  1  0
 23 22  1  0
 24 22  2  0
M  END
$$$$
