LSK.pdb
     RDKit          3D

 24 23  0  0  1  0  0  0  0  0999 V2000
    9.4669  -12.4662   19.3652 C   0  0  0  0  0  0  0  0  0  0  0  0
    8.1575  -12.9392   18.7767 C   0  0  2  0  0  0  0  0  0  0  0  0
    7.0825  -11.9408   19.0577 C   0  0  0  0  0  0  0  0  0  0  0  0
    7.8111  -14.3248   19.2575 C   0  0  0  0  0  0  0  0  0  0  0  0
    8.9940  -15.2345   19.0168 C   0  0  2  0  0  0  0  0  0  0  0  0
    8.8758  -15.8606   17.7125 N   0  0  0  0  0  0  0  0  0  0  0  0
    9.0545  -16.3166   20.0521 C   0  0  0  0  0  0  0  0  0  0  0  0
    8.3197  -17.3386   19.9898 O   0  0  0  0  0  0  0  0  0  0  0  0
   11.8012  -18.3576   20.9611 O   0  0  0  0  0  0  0  0  0  0  0  0
   10.5161  -18.5380   21.4717 C   0  0  0  0  0  0  0  0  0  0  0  0
   10.0286  -17.2730   22.1759 C   0  0  2  0  0  0  0  0  0  0  0  0
    9.9456  -16.2437   21.1576 N   0  0  0  0  0  0  0  0  0  0  0  0
   10.8786  -16.8991   23.3041 C   0  0  0  0  0  0  0  0  0  0  0  0
   11.9937  -16.3701   23.0866 O   0  0  0  0  0  0  0  0  0  0  0  0
   10.4795  -17.1170   24.6397 N   0  0  0  0  0  0  0  0  0  0  0  0
   11.3661  -16.6624   25.7131 C   0  0  1  0  0  0  0  0  0  0  0  0
   10.4977  -16.5566   26.9352 C   0  0  0  0  0  0  0  0  0  0  0  0
   11.3061  -16.1656   28.1296 C   0  0  0  0  0  0  0  0  0  0  0  0
   10.4400  -16.0560   29.3730 C   0  0  0  0  0  0  0  0  0  0  0  0
   11.3471  -15.4786   30.4663 C   0  0  0  0  0  0  0  0  0  0  0  0
   10.5465  -15.3144   31.6685 N   0  0  0  0  0  0  0  0  0  0  0  0
   12.4489  -17.6432   25.8049 C   0  0  0  0  0  0  0  0  0  0  0  0
   12.2996  -18.9162   25.2911 O   0  0  0  0  0  0  0  0  0  0  0  0
   13.5513  -17.3855   26.3456 O   0  0  0  0  0  0  0  0  0  0  0  0
  2  1  1  1
  2  4  1  0
  3  2  1  0
  5  4  1  0
  5  6  1  6
  7  5  1  0
  7  8  2  0
 10  9  1  0
 11 10  1  6
 11 12  1  0
 12  7  1  0
 13 14  2  0
 13 11  1  0
 15 13  1  0
 16 15  1  0
 16 17  1  1
 17 18  1  0
 19 18  1  0
 20 21  1  0
 20 19  1  0
 22 16  1  0
 23 22  1  0
 24 22  2  0
M  END
$$$$
