LSK.pdb
     RDKit          3D

 24 23  0  0  1  0  0  0  0  0999 V2000
    9.4567  -12.2923   19.2086 C   0  0  0  0  0  0  0  0  0  0  0  0
    8.3144  -13.1907   18.7931 C   0  0  2  0  0  0  0  0  0  0  0  0
    7.1354  -12.3644   18.3947 C   0  0  0  0  0  0  0  0  0  0  0  0
    7.9899  -14.1951   19.8686 C   0  0  0  0  0  0  0  0  0  0  0  0
    9.2610  -14.9079   20.2698 C   0  0  2  0  0  0  0  0  0  0  0  0
    9.6792  -15.8038   19.2068 N   0  0  0  0  0  0  0  0  0  0  0  0
    9.0483  -15.7208   21.5109 C   0  0  0  0  0  0  0  0  0  0  0  0
    8.6541  -15.1992   22.5883 O   0  0  0  0  0  0  0  0  0  0  0  0
   10.5288  -19.6394   21.7996 O   0  0  0  0  0  0  0  0  0  0  0  0
    9.2422  -19.3896   22.2761 C   0  0  0  0  0  0  0  0  0  0  0  0
    9.1008  -17.9353   22.7223 C   0  0  2  0  0  0  0  0  0  0  0  0
    9.2810  -17.1233   21.5343 N   0  0  0  0  0  0  0  0  0  0  0  0
   10.0240  -17.5898   23.8009 C   0  0  0  0  0  0  0  0  0  0  0  0
   11.1591  -17.1389   23.5196 O   0  0  0  0  0  0  0  0  0  0  0  0
    9.6743  -17.7494   25.1584 N   0  0  0  0  0  0  0  0  0  0  0  0
   10.6587  -17.3801   26.1779 C   0  0  1  0  0  0  0  0  0  0  0  0
    9.9671  -16.3811   27.0625 C   0  0  0  0  0  0  0  0  0  0  0  0
   10.8210  -16.0308   28.2376 C   0  0  0  0  0  0  0  0  0  0  0  0
   10.1514  -14.9893   29.1181 C   0  0  0  0  0  0  0  0  0  0  0  0
   11.0851  -14.7922   30.3185 C   0  0  0  0  0  0  0  0  0  0  0  0
   10.4728  -13.8145   31.2031 N   0  0  0  0  0  0  0  0  0  0  0  0
   11.0602  -18.6220   26.8408 C   0  0  0  0  0  0  0  0  0  0  0  0
   12.3082  -18.7475   27.4184 O   0  0  0  0  0  0  0  0  0  0  0  0
   10.3062  -19.6217   26.9188 O   0  0  0  0  0  0  0  0  0  0  0  0
  2  1  1  1
  2  4  1  0
  3  2  1  0
  5  4  1  0
  5  6  1  6
  7  5  1  0
  7  8  2  0
 10  9  1  0
 11 10  1  6
 11 12  1  0
 12  7  1  0
 13 14  2  0
 13 11  1  0
 15 13  1  0
 16 15  1  0
 16 17  1  1
 17 18  1  0
 19 18  1  0
 20 21  1  0
 20 19  1  0
 22 16  1  0
 23 22  1  0
 24 22  2  0
M  END
$$$$
