LSK.pdb
     RDKit          3D

 24 23  0  0  1  0  0  0  0  0999 V2000
    9.1011  -12.7280   19.0503 C   0  0  0  0  0  0  0  0  0  0  0  0
    7.9254  -13.5833   19.4639 C   0  0  2  0  0  0  0  0  0  0  0  0
    6.6595  -12.7987   19.3494 C   0  0  0  0  0  0  0  0  0  0  0  0
    8.1311  -14.1673   20.8377 C   0  0  0  0  0  0  0  0  0  0  0  0
    7.1705  -15.3189   21.0271 C   0  0  2  0  0  0  0  0  0  0  0  0
    5.8042  -14.8288   21.0030 N   0  0  0  0  0  0  0  0  0  0  0  0
    7.4019  -15.9963   22.3438 C   0  0  0  0  0  0  0  0  0  0  0  0
    7.1429  -15.4283   23.4387 O   0  0  0  0  0  0  0  0  0  0  0  0
    7.1668  -19.8546   23.0124 O   0  0  0  0  0  0  0  0  0  0  0  0
    7.3974  -18.9657   24.0619 C   0  0  0  0  0  0  0  0  0  0  0  0
    8.4143  -17.8998   23.6576 C   0  0  2  0  0  0  0  0  0  0  0  0
    7.9261  -17.3156   22.4233 N   0  0  0  0  0  0  0  0  0  0  0  0
    9.7692  -18.4349   23.5445 C   0  0  0  0  0  0  0  0  0  0  0  0
   10.1163  -19.0154   22.4893 O   0  0  0  0  0  0  0  0  0  0  0  0
   10.7049  -18.3173   24.5939 N   0  0  0  0  0  0  0  0  0  0  0  0
   12.0032  -18.9785   24.4450 C   0  0  1  0  0  0  0  0  0  0  0  0
   12.9355  -17.9221   23.9217 C   0  0  0  0  0  0  0  0  0  0  0  0
   14.3419  -18.4255   23.8844 C   0  0  0  0  0  0  0  0  0  0  0  0
   15.3059  -17.3427   23.4299 C   0  0  0  0  0  0  0  0  0  0  0  0
   16.6943  -17.9937   23.4222 C   0  0  0  0  0  0  0  0  0  0  0  0
   17.6636  -16.9714   23.0637 N   0  0  0  0  0  0  0  0  0  0  0  0
   12.3520  -19.5166   25.7609 C   0  0  0  0  0  0  0  0  0  0  0  0
   11.6617  -19.1293   26.8924 O   0  0  0  0  0  0  0  0  0  0  0  0
   13.2802  -20.3438   25.9293 O   0  0  0  0  0  0  0  0  0  0  0  0
  2  1  1  1
  2  4  1  0
  3  2  1  0
  5  4  1  0
  5  6  1  1
  7  5  1  0
  7  8  2  0
 10  9  1  0
 11 10  1  6
 11 12  1  0
 12  7  1  0
 13 14  2  0
 13 11  1  0
 15 13  1  0
 16 15  1  0
 16 17  1  1
 17 18  1  0
 19 18  1  0
 20 21  1  0
 20 19  1  0
 22 16  1  0
 23 22  1  0
 24 22  2  0
M  END
$$$$
