LSK.pdb
     RDKit          3D

 24 23  0  0  1  0  0  0  0  0999 V2000
    9.7044  -13.2696   18.7759 C   0  0  0  0  0  0  0  0  0  0  0  0
    8.2517  -13.4536   19.1513 C   0  0  2  0  0  0  0  0  0  0  0  0
    7.5653  -12.1276   19.1959 C   0  0  0  0  0  0  0  0  0  0  0  0
    8.1133  -14.2291   20.4360 C   0  0  0  0  0  0  0  0  0  0  0  0
    8.8183  -15.5573   20.2824 C   0  0  2  0  0  0  0  0  0  0  0  0
    8.0747  -16.4063   19.3693 N   0  0  0  0  0  0  0  0  0  0  0  0
    8.9201  -16.2632   21.6006 C   0  0  0  0  0  0  0  0  0  0  0  0
    7.8990  -16.6649   22.2207 O   0  0  0  0  0  0  0  0  0  0  0  0
   12.7013  -17.1767   23.2590 O   0  0  0  0  0  0  0  0  0  0  0  0
   11.5882  -17.9965   23.4424 C   0  0  0  0  0  0  0  0  0  0  0  0
   10.3070  -17.1669   23.5069 C   0  0  2  0  0  0  0  0  0  0  0  0
   10.1758  -16.5153   22.2179 N   0  0  0  0  0  0  0  0  0  0  0  0
   10.3043  -16.2299   24.6282 C   0  0  0  0  0  0  0  0  0  0  0  0
   10.9138  -15.1400   24.5217 O   0  0  0  0  0  0  0  0  0  0  0  0
    9.6320  -16.5168   25.8349 N   0  0  0  0  0  0  0  0  0  0  0  0
    9.6481  -15.5078   26.8964 C   0  0  1  0  0  0  0  0  0  0  0  0
    8.2165  -15.0848   27.0718 C   0  0  0  0  0  0  0  0  0  0  0  0
    8.0480  -13.6345   26.7537 C   0  0  0  0  0  0  0  0  0  0  0  0
    6.6235  -13.1730   27.0105 C   0  0  0  0  0  0  0  0  0  0  0  0
    6.5797  -11.6973   26.5960 C   0  0  0  0  0  0  0  0  0  0  0  0
    5.2488  -11.1915   26.8893 N   0  0  0  0  0  0  0  0  0  0  0  0
   10.2550  -16.1425   28.0676 C   0  0  0  0  0  0  0  0  0  0  0  0
   10.6891  -15.3879   29.1395 O   0  0  0  0  0  0  0  0  0  0  0  0
   10.4110  -17.3840   28.1596 O   0  0  0  0  0  0  0  0  0  0  0  0
  2  1  1  1
  2  4  1  0
  3  2  1  0
  5  4  1  0
  5  6  1  6
  7  5  1  0
  7  8  2  0
 10  9  1  0
 11 10  1  6
 11 12  1  0
 12  7  1  0
 13 14  2  0
 13 11  1  0
 15 13  1  0
 16 15  1  0
 16 17  1  1
 17 18  1  0
 19 18  1  0
 20 21  1  0
 20 19  1  0
 22 16  1  0
 23 22  1  0
 24 22  2  0
M  END
$$$$
