LSK.pdb
     RDKit          3D

 24 23  0  0  1  0  0  0  0  0999 V2000
    8.0865  -12.3288   20.7752 C   0  0  0  0  0  0  0  0  0  0  0  0
    8.3853  -13.4882   19.8524 C   0  0  2  0  0  0  0  0  0  0  0  0
    8.0128  -13.1322   18.4503 C   0  0  0  0  0  0  0  0  0  0  0  0
    7.7221  -14.7534   20.3321 C   0  0  0  0  0  0  0  0  0  0  0  0
    8.1861  -15.0434   21.7411 C   0  0  2  0  0  0  0  0  0  0  0  0
    9.0291  -13.9604   22.2141 N   0  0  0  0  0  0  0  0  0  0  0  0
    8.9820  -16.3124   21.7906 C   0  0  0  0  0  0  0  0  0  0  0  0
    8.4464  -17.4406   21.6217 O   0  0  0  0  0  0  0  0  0  0  0  0
   12.9209  -18.6846   20.9967 O   0  0  0  0  0  0  0  0  0  0  0  0
   12.1908  -17.4970   21.0290 C   0  0  0  0  0  0  0  0  0  0  0  0
   11.1685  -17.5183   22.1640 C   0  0  2  0  0  0  0  0  0  0  0  0
   10.3835  -16.3062   22.0307 N   0  0  0  0  0  0  0  0  0  0  0  0
   11.7946  -17.6569   23.4770 C   0  0  0  0  0  0  0  0  0  0  0  0
   12.2237  -16.6371   24.0656 O   0  0  0  0  0  0  0  0  0  0  0  0
   11.9317  -18.9122   24.1063 N   0  0  0  0  0  0  0  0  0  0  0  0
   12.6107  -18.9693   25.4027 C   0  0  1  0  0  0  0  0  0  0  0  0
   12.0757  -20.1976   26.0839 C   0  0  0  0  0  0  0  0  0  0  0  0
   12.1110  -20.0397   27.5694 C   0  0  0  0  0  0  0  0  0  0  0  0
   11.7195  -21.3281   28.2729 C   0  0  0  0  0  0  0  0  0  0  0  0
   11.8687  -21.0486   29.7733 C   0  0  0  0  0  0  0  0  0  0  0  0
   11.4030  -22.2224   30.4934 N   0  0  0  0  0  0  0  0  0  0  0  0
   14.0471  -18.9921   25.1219 C   0  0  0  0  0  0  0  0  0  0  0  0
   14.5280  -19.4664   23.9174 O   0  0  0  0  0  0  0  0  0  0  0  0
   14.9040  -18.5894   25.9451 O   0  0  0  0  0  0  0  0  0  0  0  0
  2  1  1  1
  2  4  1  0
  3  2  1  0
  5  4  1  0
  5  6  1  6
  7  5  1  0
  7  8  2  0
 10  9  1  0
 11 10  1  6
 11 12  1  0
 12  7  1  0
 13 14  2  0
 13 11  1  0
 15 13  1  0
 16 15  1  0
 16 17  1  6
 17 18  1  0
 19 18  1  0
 20 21  1  0
 20 19  1  0
 22 16  1  0
 23 22  1  0
 24 22  2  0
M  END
$$$$
