LSK.pdb
     RDKit          3D

 24 23  0  0  1  0  0  0  0  0999 V2000
   10.5106  -13.2187   19.0749 C   0  0  0  0  0  0  0  0  0  0  0  0
    9.1196  -13.3030   18.4891 C   0  0  2  0  0  0  0  0  0  0  0  0
    8.4223  -11.9909   18.6417 C   0  0  0  0  0  0  0  0  0  0  0  0
    8.3452  -14.4512   19.0831 C   0  0  0  0  0  0  0  0  0  0  0  0
    9.2207  -15.6834   19.0802 C   0  0  2  0  0  0  0  0  0  0  0  0
    8.9224  -16.4960   17.9148 N   0  0  0  0  0  0  0  0  0  0  0  0
    8.9784  -16.5134   20.3044 C   0  0  0  0  0  0  0  0  0  0  0  0
    7.8615  -17.0502   20.5338 O   0  0  0  0  0  0  0  0  0  0  0  0
   12.0403  -17.9662   22.7654 O   0  0  0  0  0  0  0  0  0  0  0  0
   10.7284  -18.4390   22.7719 C   0  0  0  0  0  0  0  0  0  0  0  0
    9.7366  -17.2924   22.5831 C   0  0  2  0  0  0  0  0  0  0  0  0
    9.9985  -16.7368   21.2694 N   0  0  0  0  0  0  0  0  0  0  0  0
    9.8183  -16.3014   23.6538 C   0  0  0  0  0  0  0  0  0  0  0  0
   10.7701  -15.4861   23.6673 O   0  0  0  0  0  0  0  0  0  0  0  0
    8.8520  -16.2339   24.6795 N   0  0  0  0  0  0  0  0  0  0  0  0
    8.9446  -15.1418   25.6510 C   0  0  1  0  0  0  0  0  0  0  0  0
    7.5722  -14.5312   25.7027 C   0  0  0  0  0  0  0  0  0  0  0  0
    7.5437  -13.3659   26.6376 C   0  0  0  0  0  0  0  0  0  0  0  0
    6.1514  -12.7652   26.7317 C   0  0  0  0  0  0  0  0  0  0  0  0
    6.2692  -11.5838   27.7023 C   0  0  0  0  0  0  0  0  0  0  0  0
    4.9415  -11.0191   27.8798 N   0  0  0  0  0  0  0  0  0  0  0  0
    9.4061  -15.7367   26.9063 C   0  0  0  0  0  0  0  0  0  0  0  0
    9.9687  -14.9569   27.8974 O   0  0  0  0  0  0  0  0  0  0  0  0
    9.3175  -16.9651   27.1458 O   0  0  0  0  0  0  0  0  0  0  0  0
  2  1  1  1
  2  4  1  0
  3  2  1  0
  5  4  1  0
  5  6  1  6
  7  5  1  0
  7  8  2  0
 10  9  1  0
 11 10  1  1
 11 12  1  0
 12  7  1  0
 13 14  2  0
 13 11  1  0
 15 13  1  0
 16 15  1  0
 16 17  1  1
 17 18  1  0
 19 18  1  0
 20 21  1  0
 20 19  1  0
 22 16  1  0
 23 22  1  0
 24 22  2  0
M  END
$$$$
