LSK.pdb
     RDKit          3D

 24 23  0  0  1  0  0  0  0  0999 V2000
    9.4033  -11.8535   19.8251 C   0  0  0  0  0  0  0  0  0  0  0  0
    8.5078  -12.9690   19.3366 C   0  0  2  0  0  0  0  0  0  0  0  0
    7.0844  -12.5159   19.3353 C   0  0  0  0  0  0  0  0  0  0  0  0
    8.7210  -14.2298   20.1340 C   0  0  0  0  0  0  0  0  0  0  0  0
   10.2045  -14.5061   20.2221 C   0  0  2  0  0  0  0  0  0  0  0  0
   10.7653  -14.6127   18.8873 N   0  0  0  0  0  0  0  0  0  0  0  0
   10.4658  -15.7933   20.9440 C   0  0  0  0  0  0  0  0  0  0  0  0
    9.9574  -16.0393   22.0706 O   0  0  0  0  0  0  0  0  0  0  0  0
   13.3527  -18.5719   19.5700 O   0  0  0  0  0  0  0  0  0  0  0  0
   12.0779  -19.0094   19.9278 C   0  0  0  0  0  0  0  0  0  0  0  0
   11.4755  -18.1067   21.0030 C   0  0  2  0  0  0  0  0  0  0  0  0
   11.3018  -16.8027   20.3926 N   0  0  0  0  0  0  0  0  0  0  0  0
   12.2850  -18.0696   22.2189 C   0  0  0  0  0  0  0  0  0  0  0  0
   13.0978  -17.1310   22.3895 O   0  0  0  0  0  0  0  0  0  0  0  0
   12.1788  -19.0648   23.2133 N   0  0  0  0  0  0  0  0  0  0  0  0
   13.0297  -18.9551   24.4002 C   0  0  1  0  0  0  0  0  0  0  0  0
   12.3503  -19.7760   25.4602 C   0  0  0  0  0  0  0  0  0  0  0  0
   13.1534  -19.7870   26.7202 C   0  0  0  0  0  0  0  0  0  0  0  0
   12.4669  -20.5960   27.8077 C   0  0  0  0  0  0  0  0  0  0  0  0
   13.4550  -20.6471   28.9792 C   0  0  0  0  0  0  0  0  0  0  0  0
   12.8482  -21.4349   30.0396 N   0  0  0  0  0  0  0  0  0  0  0  0
   14.3585  -19.4272   24.0073 C   0  0  0  0  0  0  0  0  0  0  0  0
   15.4937  -18.9619   24.6410 O   0  0  0  0  0  0  0  0  0  0  0  0
   14.5351  -20.2648   23.0900 O   0  0  0  0  0  0  0  0  0  0  0  0
  2  1  1  1
  2  4  1  0
  3  2  1  0
  5  4  1  0
  5  6  1  6
  7  5  1  0
  7  8  2  0
 10  9  1  0
 11 10  1  6
 11 12  1  0
 12  7  1  0
 13 14  2  0
 13 11  1  0
 15 13  1  0
 16 15  1  0
 16 17  1  1
 17 18  1  0
 19 18  1  0
 20 21  1  0
 20 19  1  0
 22 16  1  0
 23 22  1  0
 24 22  2  0
M  END
$$$$
