LSK.pdb
     RDKit          3D

 24 23  0  0  1  0  0  0  0  0999 V2000
    5.8776  -11.8994   25.0601 C   0  0  0  0  0  0  0  0  0  0  0  0
    6.3709  -12.6448   26.2791 C   0  0  2  0  0  0  0  0  0  0  0  0
    6.8863  -11.6773   27.2938 C   0  0  0  0  0  0  0  0  0  0  0  0
    7.3833  -13.6961   25.9041 C   0  0  0  0  0  0  0  0  0  0  0  0
    6.7202  -14.7123   25.0027 C   0  0  2  0  0  0  0  0  0  0  0  0
    5.6632  -15.3959   25.7258 N   0  0  0  0  0  0  0  0  0  0  0  0
    7.7085  -15.7384   24.5372 C   0  0  0  0  0  0  0  0  0  0  0  0
    8.0654  -16.6991   25.2707 O   0  0  0  0  0  0  0  0  0  0  0  0
   10.1602  -14.9919   21.1250 O   0  0  0  0  0  0  0  0  0  0  0  0
    9.6231  -16.2590   21.3497 C   0  0  0  0  0  0  0  0  0  0  0  0
    9.4167  -16.5047   22.8433 C   0  0  2  0  0  0  0  0  0  0  0  0
    8.2934  -15.6788   23.2426 N   0  0  0  0  0  0  0  0  0  0  0  0
   10.6252  -16.2488   23.6236 C   0  0  0  0  0  0  0  0  0  0  0  0
   10.9347  -15.0688   23.9109 O   0  0  0  0  0  0  0  0  0  0  0  0
   11.4599  -17.2965   24.0664 N   0  0  0  0  0  0  0  0  0  0  0  0
   12.5794  -16.9668   24.9513 C   0  0  1  0  0  0  0  0  0  0  0  0
   12.0251  -17.0400   26.3464 C   0  0  0  0  0  0  0  0  0  0  0  0
   12.7203  -18.0985   27.1396 C   0  0  0  0  0  0  0  0  0  0  0  0
   12.1645  -18.1881   28.5507 C   0  0  0  0  0  0  0  0  0  0  0  0
   13.0385  -19.2147   29.2813 C   0  0  0  0  0  0  0  0  0  0  0  0
   12.5673  -19.3046   30.6535 N   0  0  0  0  0  0  0  0  0  0  0  0
   13.6434  -17.9276   24.6555 C   0  0  0  0  0  0  0  0  0  0  0  0
   13.4338  -18.9712   23.7759 O   0  0  0  0  0  0  0  0  0  0  0  0
   14.7829  -17.8567   25.1758 O   0  0  0  0  0  0  0  0  0  0  0  0
  2  1  1  6
  2  4  1  0
  3  2  1  0
  5  4  1  0
  5  6  1  1
  7  5  1  0
  7  8  2  0
 10  9  1  0
 11 10  1  6
 11 12  1  0
 12  7  1  0
 13 14  2  0
 13 11  1  0
 15 13  1  0
 16 15  1  0
 16 17  1  1
 17 18  1  0
 19 18  1  0
 20 21  1  0
 20 19  1  0
 22 16  1  0
 23 22  1  0
 24 22  2  0
M  END
$$$$
