LSK.pdb
     RDKit          3D

 24 23  0  0  1  0  0  0  0  0999 V2000
    9.8485  -12.4171   19.4220 C   0  0  0  0  0  0  0  0  0  0  0  0
    8.4591  -12.9377   19.1330 C   0  0  2  0  0  0  0  0  0  0  0  0
    7.4422  -11.9075   19.5016 C   0  0  0  0  0  0  0  0  0  0  0  0
    8.2213  -14.2641   19.8075 C   0  0  0  0  0  0  0  0  0  0  0  0
    9.3070  -15.2275   19.3857 C   0  0  2  0  0  0  0  0  0  0  0  0
    9.0488  -15.7001   18.0376 N   0  0  0  0  0  0  0  0  0  0  0  0
    9.3504  -16.4156   20.2983 C   0  0  0  0  0  0  0  0  0  0  0  0
    8.5667  -17.3924   20.1565 O   0  0  0  0  0  0  0  0  0  0  0  0
   12.1725  -18.5110   20.8137 O   0  0  0  0  0  0  0  0  0  0  0  0
   10.9052  -18.8008   21.3182 C   0  0  0  0  0  0  0  0  0  0  0  0
   10.4068  -17.6708   22.2174 C   0  0  2  0  0  0  0  0  0  0  0  0
   10.2798  -16.5000   21.3710 N   0  0  0  0  0  0  0  0  0  0  0  0
   11.2734  -17.4537   23.3737 C   0  0  0  0  0  0  0  0  0  0  0  0
   12.2677  -16.6984   23.2652 O   0  0  0  0  0  0  0  0  0  0  0  0
   11.0232  -18.0725   24.6167 N   0  0  0  0  0  0  0  0  0  0  0  0
   11.8717  -17.7135   25.7551 C   0  0  1  0  0  0  0  0  0  0  0  0
   11.2400  -18.3693   26.9509 C   0  0  0  0  0  0  0  0  0  0  0  0
   12.0614  -18.1410   28.1781 C   0  0  0  0  0  0  0  0  0  0  0  0
   11.4811  -18.8720   29.3770 C   0  0  0  0  0  0  0  0  0  0  0  0
   12.4562  -18.6208   30.5335 C   0  0  0  0  0  0  0  0  0  0  0  0
   11.9442  -19.3115   31.7057 N   0  0  0  0  0  0  0  0  0  0  0  0
   13.2218  -18.1790   25.4338 C   0  0  0  0  0  0  0  0  0  0  0  0
   14.3332  -17.4555   25.8188 O   0  0  0  0  0  0  0  0  0  0  0  0
   13.4389  -19.2413   24.8024 O   0  0  0  0  0  0  0  0  0  0  0  0
  2  1  1  1
  2  4  1  0
  3  2  1  0
  5  4  1  0
  5  6  1  6
  7  5  1  0
  7  8  2  0
 10  9  1  0
 11 10  1  6
 11 12  1  0
 12  7  1  0
 13 14  2  0
 13 11  1  0
 15 13  1  0
 16 15  1  0
 16 17  1  1
 17 18  1  0
 19 18  1  0
 20 21  1  0
 20 19  1  0
 22 16  1  0
 23 22  1  0
 24 22  2  0
M  END
$$$$
