LSK.pdb
     RDKit          3D

 24 23  0  0  1  0  0  0  0  0999 V2000
    7.8046  -12.1500   26.8945 C   0  0  0  0  0  0  0  0  0  0  0  0
    6.6647  -12.4141   25.9375 C   0  0  2  0  0  0  0  0  0  0  0  0
    5.5351  -11.4785   26.2204 C   0  0  0  0  0  0  0  0  0  0  0  0
    6.2489  -13.8621   25.9694 C   0  0  0  0  0  0  0  0  0  0  0  0
    7.4816  -14.7267   25.8370 C   0  0  2  0  0  0  0  0  0  0  0  0
    8.2829  -14.2725   24.7149 N   0  0  0  0  0  0  0  0  0  0  0  0
    7.1067  -16.1577   25.5959 C   0  0  0  0  0  0  0  0  0  0  0  0
    6.3371  -16.7837   26.3731 O   0  0  0  0  0  0  0  0  0  0  0  0
    8.2208  -18.0069   22.0356 O   0  0  0  0  0  0  0  0  0  0  0  0
    7.0929  -18.4317   22.7371 C   0  0  0  0  0  0  0  0  0  0  0  0
    7.3008  -18.2805   24.2430 C   0  0  2  0  0  0  0  0  0  0  0  0
    7.6016  -16.8811   24.4763 N   0  0  0  0  0  0  0  0  0  0  0  0
    8.3274  -19.1835   24.7585 C   0  0  0  0  0  0  0  0  0  0  0  0
    8.2057  -20.4186   24.5837 O   0  0  0  0  0  0  0  0  0  0  0  0
    9.4590  -18.7042   25.4515 N   0  0  0  0  0  0  0  0  0  0  0  0
   10.4107  -19.6799   25.9876 C   0  0  1  0  0  0  0  0  0  0  0  0
   11.7080  -19.4083   25.2791 C   0  0  0  0  0  0  0  0  0  0  0  0
   11.6071  -19.7624   23.8309 C   0  0  0  0  0  0  0  0  0  0  0  0
   12.9350  -19.5672   23.1190 C   0  0  0  0  0  0  0  0  0  0  0  0
   12.6922  -19.9727   21.6602 C   0  0  0  0  0  0  0  0  0  0  0  0
   13.8819  -19.6293   20.8986 N   0  0  0  0  0  0  0  0  0  0  0  0
   10.4423  -19.4802   27.4374 C   0  0  0  0  0  0  0  0  0  0  0  0
   10.8922  -20.4758   28.2819 O   0  0  0  0  0  0  0  0  0  0  0  0
   10.0692  -18.4132   27.9818 O   0  0  0  0  0  0  0  0  0  0  0  0
  2  1  1  1
  2  4  1  0
  3  2  1  0
  5  4  1  0
  5  6  1  6
  7  5  1  0
  7  8  2  0
 10  9  1  0
 11 10  1  6
 11 12  1  0
 12  7  1  0
 13 14  2  0
 13 11  1  0
 15 13  1  0
 16 15  1  0
 16 17  1  6
 17 18  1  0
 19 18  1  0
 20 21  1  0
 20 19  1  0
 22 16  1  0
 23 22  1  0
 24 22  2  0
M  END
$$$$
