LSK.pdb
     RDKit          3D

 24 23  0  0  1  0  0  0  0  0999 V2000
    9.1226  -12.0571   18.7087 C   0  0  0  0  0  0  0  0  0  0  0  0
    8.1882  -13.2099   18.4211 C   0  0  2  0  0  0  0  0  0  0  0  0
    6.8536  -12.6901   17.9966 C   0  0  0  0  0  0  0  0  0  0  0  0
    8.1045  -14.1514   19.5947 C   0  0  0  0  0  0  0  0  0  0  0  0
    9.5057  -14.5254   20.0208 C   0  0  2  0  0  0  0  0  0  0  0  0
   10.2109  -15.1380   18.9096 N   0  0  0  0  0  0  0  0  0  0  0  0
    9.4753  -15.5060   21.1539 C   0  0  0  0  0  0  0  0  0  0  0  0
    8.8301  -15.2794   22.2126 O   0  0  0  0  0  0  0  0  0  0  0  0
   12.1936  -18.7443   21.2821 O   0  0  0  0  0  0  0  0  0  0  0  0
   10.8674  -18.9525   21.6595 C   0  0  0  0  0  0  0  0  0  0  0  0
   10.2496  -17.6666   22.2059 C   0  0  2  0  0  0  0  0  0  0  0  0
   10.1739  -16.7427   21.0905 N   0  0  0  0  0  0  0  0  0  0  0  0
   10.9899  -17.1321   23.3466 C   0  0  0  0  0  0  0  0  0  0  0  0
   11.9755  -16.3843   23.1457 O   0  0  0  0  0  0  0  0  0  0  0  0
   10.6268  -17.4343   24.6760 N   0  0  0  0  0  0  0  0  0  0  0  0
   11.4341  -16.8734   25.7617 C   0  0  1  0  0  0  0  0  0  0  0  0
   10.4492  -16.2919   26.7369 C   0  0  0  0  0  0  0  0  0  0  0  0
   11.1459  -15.7867   27.9584 C   0  0  0  0  0  0  0  0  0  0  0  0
   10.1541  -15.2840   28.9938 C   0  0  0  0  0  0  0  0  0  0  0  0
   10.9942  -14.8322   30.1945 C   0  0  0  0  0  0  0  0  0  0  0  0
   10.0899  -14.2722   31.1853 N   0  0  0  0  0  0  0  0  0  0  0  0
   12.2510  -17.9696   26.2848 C   0  0  0  0  0  0  0  0  0  0  0  0
   13.4910  -17.7281   26.8422 O   0  0  0  0  0  0  0  0  0  0  0  0
   11.8759  -19.1665   26.2557 O   0  0  0  0  0  0  0  0  0  0  0  0
  2  1  1  1
  2  4  1  0
  3  2  1  0
  5  4  1  0
  5  6  1  6
  7  5  1  0
  7  8  2  0
 10  9  1  0
 11 10  1  6
 11 12  1  0
 12  7  1  0
 13 14  2  0
 13 11  1  0
 15 13  1  0
 16 15  1  0
 16 17  1  1
 17 18  1  0
 19 18  1  0
 20 21  1  0
 20 19  1  0
 22 16  1  0
 23 22  1  0
 24 22  2  0
M  END
$$$$
