LSK.pdb
     RDKit          3D

 24 23  0  0  1  0  0  0  0  0999 V2000
    6.0628  -12.0193   24.7428 C   0  0  0  0  0  0  0  0  0  0  0  0
    6.3891  -12.6364   26.0835 C   0  0  2  0  0  0  0  0  0  0  0  0
    6.8399  -11.5773   27.0355 C   0  0  0  0  0  0  0  0  0  0  0  0
    7.3845  -13.7587   25.9407 C   0  0  0  0  0  0  0  0  0  0  0  0
    6.7979  -14.8190   25.0371 C   0  0  2  0  0  0  0  0  0  0  0  0
    5.6608  -15.4450   25.6869 N   0  0  0  0  0  0  0  0  0  0  0  0
    7.8095  -15.8831   24.7359 C   0  0  0  0  0  0  0  0  0  0  0  0
    8.0216  -16.8419   25.5258 O   0  0  0  0  0  0  0  0  0  0  0  0
   10.6892  -15.4848   21.6414 O   0  0  0  0  0  0  0  0  0  0  0  0
    9.9332  -16.6522   21.7424 C   0  0  0  0  0  0  0  0  0  0  0  0
    9.5222  -16.9099   23.1910 C   0  0  2  0  0  0  0  0  0  0  0  0
    8.5814  -15.8635   23.5420 N   0  0  0  0  0  0  0  0  0  0  0  0
   10.6695  -16.9785   24.0932 C   0  0  0  0  0  0  0  0  0  0  0  0
   11.0847  -15.9313   24.6427 O   0  0  0  0  0  0  0  0  0  0  0  0
   11.3286  -18.1956   24.3665 N   0  0  0  0  0  0  0  0  0  0  0  0
   12.4148  -18.1926   25.3489 C   0  0  1  0  0  0  0  0  0  0  0  0
   12.1212  -19.3373   26.2775 C   0  0  0  0  0  0  0  0  0  0  0  0
   12.9165  -19.2175   27.5369 C   0  0  0  0  0  0  0  0  0  0  0  0
   12.6146  -20.3587   28.4933 C   0  0  0  0  0  0  0  0  0  0  0  0
   13.5014  -20.1219   29.7218 C   0  0  0  0  0  0  0  0  0  0  0  0
   13.2462  -21.1949   30.6688 N   0  0  0  0  0  0  0  0  0  0  0  0
   13.6627  -18.3119   24.5929 C   0  0  0  0  0  0  0  0  0  0  0  0
   14.8488  -17.8163   25.0972 O   0  0  0  0  0  0  0  0  0  0  0  0
   13.7214  -18.8608   23.4662 O   0  0  0  0  0  0  0  0  0  0  0  0
  2  1  1  6
  2  4  1  0
  3  2  1  0
  5  4  1  0
  5  6  1  1
  7  5  1  0
  7  8  2  0
 10  9  1  0
 11 10  1  6
 11 12  1  0
 12  7  1  0
 13 14  2  0
 13 11  1  0
 15 13  1  0
 16 15  1  0
 16 17  1  1
 17 18  1  0
 19 18  1  0
 20 21  1  0
 20 19  1  0
 22 16  1  0
 23 22  1  0
 24 22  2  0
M  END
$$$$
