LSK.pdb
     RDKit          3D

 24 23  0  0  1  0  0  0  0  0999 V2000
    8.9028  -13.9777   18.4945 C   0  0  0  0  0  0  0  0  0  0  0  0
    7.7403  -13.7328   19.4291 C   0  0  2  0  0  0  0  0  0  0  0  0
    7.0916  -12.4271   19.1039 C   0  0  0  0  0  0  0  0  0  0  0  0
    8.1678  -13.8320   20.8707 C   0  0  0  0  0  0  0  0  0  0  0  0
    8.6328  -15.2438   21.1455 C   0  0  2  0  0  0  0  0  0  0  0  0
    7.5687  -16.1814   20.8354 N   0  0  0  0  0  0  0  0  0  0  0  0
    9.0007  -15.4134   22.5885 C   0  0  0  0  0  0  0  0  0  0  0  0
    9.9731  -14.7991   23.1037 O   0  0  0  0  0  0  0  0  0  0  0  0
    6.4293  -17.3917   25.2533 O   0  0  0  0  0  0  0  0  0  0  0  0
    7.3256  -16.3943   25.6363 C   0  0  0  0  0  0  0  0  0  0  0  0
    8.6245  -16.4954   24.8384 C   0  0  2  0  0  0  0  0  0  0  0  0
    8.2696  -16.2773   23.4493 N   0  0  0  0  0  0  0  0  0  0  0  0
    9.3207  -17.7603   25.0627 C   0  0  0  0  0  0  0  0  0  0  0  0
    8.9745  -18.7770   24.4166 O   0  0  0  0  0  0  0  0  0  0  0  0
   10.3776  -17.8728   25.9904 N   0  0  0  0  0  0  0  0  0  0  0  0
   11.0785  -19.1547   26.0937 C   0  0  1  0  0  0  0  0  0  0  0  0
   12.3588  -18.9766   25.3267 C   0  0  0  0  0  0  0  0  0  0  0  0
   12.2519  -19.5840   23.9657 C   0  0  0  0  0  0  0  0  0  0  0  0
   13.5766  -19.5191   23.2246 C   0  0  0  0  0  0  0  0  0  0  0  0
   13.3095  -20.1117   21.8357 C   0  0  0  0  0  0  0  0  0  0  0  0
   14.5285  -19.9821   21.0543 N   0  0  0  0  0  0  0  0  0  0  0  0
   11.2443  -19.4268   27.5224 C   0  0  0  0  0  0  0  0  0  0  0  0
   11.7066  -20.6510   27.9634 O   0  0  0  0  0  0  0  0  0  0  0  0
   10.9801  -18.5782   28.4079 O   0  0  0  0  0  0  0  0  0  0  0  0
  2  1  1  6
  2  4  1  0
  3  2  1  0
  5  4  1  0
  5  6  1  1
  7  5  1  0
  7  8  2  0
 10  9  1  0
 11 10  1  1
 11 12  1  0
 12  7  1  0
 13 14  2  0
 13 11  1  0
 15 13  1  0
 16 15  1  0
 16 17  1  6
 17 18  1  0
 19 18  1  0
 20 21  1  0
 20 19  1  0
 22 16  1  0
 23 22  1  0
 24 22  2  0
M  END
$$$$
