WSS.pdb
     RDKit          3D

 27 28  0  0  1  0  0  0  0  0999 V2000
    7.1534  -17.3505   25.5134 N   0  0  0  0  0  0  0  0  0  0  0  0
    6.7855  -16.7689   24.2629 C   0  0  1  0  0  0  0  0  0  0  0  0
    6.4699  -15.2990   24.3707 C   0  0  0  0  0  0  0  0  0  0  0  0
    7.0567  -14.7533   25.6167 C   0  0  0  0  0  0  0  0  0  0  0  0
    7.9504  -15.3645   26.4683 C   0  0  0  0  0  0  0  0  0  0  0  0
    8.2504  -14.5510   27.4902 N   0  0  0  0  0  0  0  0  0  0  0  0
    7.5580  -13.4136   27.3100 C   0  0  0  0  0  0  0  0  0  0  0  0
    7.5120  -12.2657   28.0723 C   0  0  0  0  0  0  0  0  0  0  0  0
    6.7119  -11.2213   27.6691 C   0  0  0  0  0  0  0  0  0  0  0  0
    5.9626  -11.3113   26.5196 C   0  0  0  0  0  0  0  0  0  0  0  0
    6.0142  -12.4557   25.7677 C   0  0  0  0  0  0  0  0  0  0  0  0
    6.8113  -13.5102   26.1598 C   0  0  0  0  0  0  0  0  0  0  0  0
    7.8120  -17.0626   23.2553 C   0  0  0  0  0  0  0  0  0  0  0  0
    8.7576  -17.8836   23.4391 O   0  0  0  0  0  0  0  0  0  0  0  0
    7.2114  -15.2056   19.9601 O   0  0  0  0  0  0  0  0  0  0  0  0
    8.4154  -15.8528   19.7822 C   0  0  0  0  0  0  0  0  0  0  0  0
    8.7443  -16.7384   20.9688 C   0  0  2  0  0  0  0  0  0  0  0  0
    7.7684  -16.4079   22.0007 N   0  0  0  0  0  0  0  0  0  0  0  0
   10.0862  -16.4750   21.5068 C   0  0  0  0  0  0  0  0  0  0  0  0
   10.3595  -15.3994   22.0694 O   0  0  0  0  0  0  0  0  0  0  0  0
   12.1115  -18.3139   23.8235 O   0  0  0  0  0  0  0  0  0  0  0  0
   12.8747  -18.3648   22.6835 C   0  0  0  0  0  0  0  0  0  0  0  0
   12.4756  -17.2303   21.7526 C   0  0  2  0  0  0  0  0  0  0  0  0
   11.0944  -17.4563   21.3888 N   0  0  0  0  0  0  0  0  0  0  0  0
   13.3918  -17.2383   20.6195 C   0  0  0  0  0  0  0  0  0  0  0  0
   13.0050  -17.4998   19.4576 O   0  0  0  0  0  0  0  0  0  0  0  0
   14.7297  -16.9516   20.8130 O   0  0  0  0  0  0  0  0  0  0  0  0
  2  1  1  1
  3  2  1  0
  4  3  1  0
  5  4  2  0
  6  5  1  0
  7  6  1  0
  7 12  2  0
  8  7  1  0
  9  8  2  0
  9 10  1  0
 10 11  2  0
 11 12  1  0
 12  4  1  0
 13 14  2  0
 13  2  1  0
 16 15  1  0
 17 18  1  0
 17 16  1  6
 18 13  1  0
 19 17  1  0
 20 19  2  0
 22 21  1  0
 23 22  1  1
 23 24  1  0
 24 19  1  0
 25 23  1  0
 26 25  2  0
 27 25  1  0
M  END
$$$$
