WSS.pdb
     RDKit          3D

 27 28  0  0  1  0  0  0  0  0999 V2000
    6.3382  -17.5585   24.1835 N   0  0  0  0  0  0  0  0  0  0  0  0
    7.0981  -16.5493   23.5192 C   0  0  1  0  0  0  0  0  0  0  0  0
    8.0678  -15.8478   24.4354 C   0  0  0  0  0  0  0  0  0  0  0  0
    7.3251  -14.9704   25.3696 C   0  0  0  0  0  0  0  0  0  0  0  0
    6.2930  -15.3161   26.2139 C   0  0  0  0  0  0  0  0  0  0  0  0
    5.8789  -14.2454   26.9055 N   0  0  0  0  0  0  0  0  0  0  0  0
    6.6344  -13.2042   26.5174 C   0  0  0  0  0  0  0  0  0  0  0  0
    6.6137  -11.8861   26.9211 C   0  0  0  0  0  0  0  0  0  0  0  0
    7.5046  -10.9974   26.3645 C   0  0  0  0  0  0  0  0  0  0  0  0
    8.4101  -11.4094   25.4152 C   0  0  0  0  0  0  0  0  0  0  0  0
    8.4239  -12.7213   25.0196 C   0  0  0  0  0  0  0  0  0  0  0  0
    7.5369  -13.6227   25.5687 C   0  0  0  0  0  0  0  0  0  0  0  0
    7.7419  -17.1140   22.3268 C   0  0  0  0  0  0  0  0  0  0  0  0
    8.2890  -18.2550   22.3016 O   0  0  0  0  0  0  0  0  0  0  0  0
    8.4480  -14.6787   19.0365 O   0  0  0  0  0  0  0  0  0  0  0  0
    8.0733  -15.9838   18.7993 C   0  0  0  0  0  0  0  0  0  0  0  0
    8.4636  -16.8865   19.9540 C   0  0  2  0  0  0  0  0  0  0  0  0
    7.7683  -16.3656   21.1251 N   0  0  0  0  0  0  0  0  0  0  0  0
    9.9073  -16.8521   20.2260 C   0  0  0  0  0  0  0  0  0  0  0  0
   10.3949  -16.0457   21.0384 O   0  0  0  0  0  0  0  0  0  0  0  0
   11.9432  -20.0485   19.6565 O   0  0  0  0  0  0  0  0  0  0  0  0
   12.6552  -19.0310   20.2417 C   0  0  0  0  0  0  0  0  0  0  0  0
   12.2103  -17.6981   19.6599 C   0  0  2  0  0  0  0  0  0  0  0  0
   10.7687  -17.7488   19.5574 N   0  0  0  0  0  0  0  0  0  0  0  0
   12.8857  -17.5207   18.3809 C   0  0  0  0  0  0  0  0  0  0  0  0
   12.2550  -17.4768   17.3000 O   0  0  0  0  0  0  0  0  0  0  0  0
   14.2613  -17.3957   18.3395 O   0  0  0  0  0  0  0  0  0  0  0  0
  2  1  1  1
  3  2  1  0
  4  3  1  0
  5  4  2  0
  6  5  1  0
  7  6  1  0
  7 12  2  0
  8  7  1  0
  9  8  2  0
  9 10  1  0
 10 11  2  0
 11 12  1  0
 12  4  1  0
 13 14  2  0
 13  2  1  0
 16 15  1  0
 17 18  1  0
 17 16  1  6
 18 13  1  0
 19 17  1  0
 20 19  2  0
 22 21  1  0
 23 22  1  6
 23 24  1  0
 24 19  1  0
 25 23  1  0
 26 25  2  0
 27 25  1  0
M  END
$$$$
