WSS.pdb
     RDKit          3D

 27 28  0  0  1  0  0  0  0  0999 V2000
    7.0687  -17.6919   25.9353 N   0  0  0  0  0  0  0  0  0  0  0  0
    6.5967  -17.0668   24.7421 C   0  0  1  0  0  0  0  0  0  0  0  0
    6.1956  -15.6293   24.9531 C   0  0  0  0  0  0  0  0  0  0  0  0
    7.1677  -14.9677   25.8541 C   0  0  0  0  0  0  0  0  0  0  0  0
    8.2922  -15.5146   26.4319 C   0  0  0  0  0  0  0  0  0  0  0  0
    8.9202  -14.6005   27.1845 N   0  0  0  0  0  0  0  0  0  0  0  0
    8.2122  -13.4615   27.1007 C   0  0  0  0  0  0  0  0  0  0  0  0
    8.4286  -12.2306   27.6826 C   0  0  0  0  0  0  0  0  0  0  0  0
    7.5442  -11.2052   27.4379 C   0  0  0  0  0  0  0  0  0  0  0  0
    6.4532  -11.3958   26.6229 C   0  0  0  0  0  0  0  0  0  0  0  0
    6.2455  -12.6225   26.0484 C   0  0  0  0  0  0  0  0  0  0  0  0
    7.1234  -13.6589   26.2850 C   0  0  0  0  0  0  0  0  0  0  0  0
    7.5827  -17.2352   23.6675 C   0  0  0  0  0  0  0  0  0  0  0  0
    8.5582  -18.0389   23.7333 O   0  0  0  0  0  0  0  0  0  0  0  0
    7.9419  -14.4345   20.5878 O   0  0  0  0  0  0  0  0  0  0  0  0
    7.9379  -15.7734   20.2600 C   0  0  0  0  0  0  0  0  0  0  0  0
    8.4412  -16.6229   21.4113 C   0  0  2  0  0  0  0  0  0  0  0  0
    7.4624  -16.4715   22.4815 N   0  0  0  0  0  0  0  0  0  0  0  0
    9.7439  -16.1655   21.9146 C   0  0  0  0  0  0  0  0  0  0  0  0
    9.8568  -15.0998   22.5468 O   0  0  0  0  0  0  0  0  0  0  0  0
   12.6680  -18.8086   22.2097 O   0  0  0  0  0  0  0  0  0  0  0  0
   12.8975  -17.5918   22.8025 C   0  0  0  0  0  0  0  0  0  0  0  0
   12.2395  -16.4934   21.9818 C   0  0  2  0  0  0  0  0  0  0  0  0
   10.8985  -16.9440   21.6820 N   0  0  0  0  0  0  0  0  0  0  0  0
   13.0616  -16.2644   20.8006 C   0  0  0  0  0  0  0  0  0  0  0  0
   12.6333  -16.4815   19.6441 O   0  0  0  0  0  0  0  0  0  0  0  0
   14.3535  -15.7945   20.9407 O   0  0  0  0  0  0  0  0  0  0  0  0
  2  1  1  1
  3  2  1  0
  4  3  1  0
  5  4  2  0
  6  5  1  0
  7  6  1  0
  7 12  2  0
  8  7  1  0
  9  8  2  0
  9 10  1  0
 10 11  2  0
 11 12  1  0
 12  4  1  0
 13 14  2  0
 13  2  1  0
 16 15  1  0
 17 18  1  0
 17 16  1  6
 18 13  1  0
 19 17  1  0
 20 19  2  0
 22 21  1  0
 23 22  1  1
 23 24  1  0
 24 19  1  0
 25 23  1  0
 26 25  2  0
 27 25  1  0
M  END
$$$$
