WSS.pdb
     RDKit          3D

 27 28  0  0  1  0  0  0  0  0999 V2000
    6.7242  -17.9516   24.2582 N   0  0  0  0  0  0  0  0  0  0  0  0
    7.2929  -16.8340   23.5764 C   0  0  1  0  0  0  0  0  0  0  0  0
    8.1031  -15.9443   24.4840 C   0  0  0  0  0  0  0  0  0  0  0  0
    7.1946  -15.1296   25.3240 C   0  0  0  0  0  0  0  0  0  0  0  0
    6.0744  -15.5474   26.0080 C   0  0  0  0  0  0  0  0  0  0  0  0
    5.5148  -14.5174   26.6579 N   0  0  0  0  0  0  0  0  0  0  0  0
    6.2632  -13.4312   26.4017 C   0  0  0  0  0  0  0  0  0  0  0  0
    6.1202  -12.1276   26.8269 C   0  0  0  0  0  0  0  0  0  0  0  0
    7.0336  -11.1824   26.4196 C   0  0  0  0  0  0  0  0  0  0  0  0
    8.0816  -11.5243   25.5975 C   0  0  0  0  0  0  0  0  0  0  0  0
    8.2164  -12.8223   25.1796 C   0  0  0  0  0  0  0  0  0  0  0  0
    7.3085  -13.7797   25.5797 C   0  0  0  0  0  0  0  0  0  0  0  0
    8.0465  -17.2959   22.4042 C   0  0  0  0  0  0  0  0  0  0  0  0
    8.7146  -18.3707   22.3815 O   0  0  0  0  0  0  0  0  0  0  0  0
    8.5762  -14.8120   19.0594 O   0  0  0  0  0  0  0  0  0  0  0  0
    8.2549  -16.1409   18.8837 C   0  0  0  0  0  0  0  0  0  0  0  0
    8.7590  -16.9858   20.0381 C   0  0  2  0  0  0  0  0  0  0  0  0
    8.0452  -16.5188   21.2207 N   0  0  0  0  0  0  0  0  0  0  0  0
   10.1987  -16.8082   20.2727 C   0  0  0  0  0  0  0  0  0  0  0  0
   10.6712  -15.7043   20.5985 O   0  0  0  0  0  0  0  0  0  0  0  0
   12.3562  -20.1748   20.2953 O   0  0  0  0  0  0  0  0  0  0  0  0
   12.9579  -19.1196   20.9350 C   0  0  0  0  0  0  0  0  0  0  0  0
   12.5069  -17.8141   20.2983 C   0  0  2  0  0  0  0  0  0  0  0  0
   11.0738  -17.9068   20.1286 N   0  0  0  0  0  0  0  0  0  0  0  0
   13.2384  -17.6499   19.0488 C   0  0  0  0  0  0  0  0  0  0  0  0
   12.6528  -17.5701   17.9448 O   0  0  0  0  0  0  0  0  0  0  0  0
   14.6183  -17.5782   19.0624 O   0  0  0  0  0  0  0  0  0  0  0  0
  2  1  1  1
  3  2  1  0
  4  3  1  0
  5  4  2  0
  6  5  1  0
  7  6  1  0
  7 12  2  0
  8  7  1  0
  9  8  2  0
  9 10  1  0
 10 11  2  0
 11 12  1  0
 12  4  1  0
 13 14  2  0
 13  2  1  0
 16 15  1  0
 17 18  1  0
 17 16  1  6
 18 13  1  0
 19 17  1  0
 20 19  2  0
 22 21  1  0
 23 22  1  6
 23 24  1  0
 24 19  1  0
 25 23  1  0
 26 25  2  0
 27 25  1  0
M  END
$$$$
