WSS.pdb
     RDKit          3D

 27 28  0  0  1  0  0  0  0  0999 V2000
    6.8379  -16.8029   24.7018 N   0  0  0  0  0  0  0  0  0  0  0  0
    7.3357  -15.8869   23.7269 C   0  0  1  0  0  0  0  0  0  0  0  0
    8.2544  -14.8469   24.3154 C   0  0  0  0  0  0  0  0  0  0  0  0
    7.7093  -14.3755   25.6097 C   0  0  0  0  0  0  0  0  0  0  0  0
    7.6045  -15.0792   26.7892 C   0  0  0  0  0  0  0  0  0  0  0  0
    7.0591  -14.3111   27.7425 N   0  0  0  0  0  0  0  0  0  0  0  0
    6.8078  -13.1115   27.1918 C   0  0  0  0  0  0  0  0  0  0  0  0
    6.2543  -11.9747   27.7416 C   0  0  0  0  0  0  0  0  0  0  0  0
    6.0991  -10.8545   26.9576 C   0  0  0  0  0  0  0  0  0  0  0  0
    6.4889  -10.8584   25.6389 C   0  0  0  0  0  0  0  0  0  0  0  0
    7.0381  -11.9925   25.1004 C   0  0  0  0  0  0  0  0  0  0  0  0
    7.1995  -13.1222   25.8742 C   0  0  0  0  0  0  0  0  0  0  0  0
    7.9443  -16.6256   22.6137 C   0  0  0  0  0  0  0  0  0  0  0  0
    8.4306  -17.7884   22.7290 O   0  0  0  0  0  0  0  0  0  0  0  0
    8.6561  -14.6314   19.0635 O   0  0  0  0  0  0  0  0  0  0  0  0
    8.3204  -15.9655   18.9752 C   0  0  0  0  0  0  0  0  0  0  0  0
    8.6962  -16.7119   20.2410 C   0  0  2  0  0  0  0  0  0  0  0  0
    8.0052  -16.0315   21.3300 N   0  0  0  0  0  0  0  0  0  0  0  0
   10.1396  -16.6602   20.5118 C   0  0  0  0  0  0  0  0  0  0  0  0
   10.7105  -15.5884   20.7822 O   0  0  0  0  0  0  0  0  0  0  0  0
   11.8904  -20.2041   20.8709 O   0  0  0  0  0  0  0  0  0  0  0  0
   12.6165  -19.1866   21.4386 C   0  0  0  0  0  0  0  0  0  0  0  0
   12.3307  -17.8859   20.7041 C   0  0  2  0  0  0  0  0  0  0  0  0
   10.9047  -17.8460   20.4672 N   0  0  0  0  0  0  0  0  0  0  0  0
   13.1304  -17.8753   19.4859 C   0  0  0  0  0  0  0  0  0  0  0  0
   14.3776  -17.7680   19.5141 O   0  0  0  0  0  0  0  0  0  0  0  0
   12.5124  -17.9856   18.2549 O   0  0  0  0  0  0  0  0  0  0  0  0
  2  1  1  1
  3  2  1  0
  4  3  1  0
  5  4  2  0
  6  5  1  0
  7  6  1  0
  7 12  2  0
  8  7  1  0
  9  8  2  0
  9 10  1  0
 10 11  2  0
 11 12  1  0
 12  4  1  0
 13 14  2  0
 13  2  1  0
 16 15  1  0
 17 18  1  0
 17 16  1  6
 18 13  1  0
 19 17  1  0
 20 19  2  0
 22 21  1  0
 23 22  1  6
 23 24  1  0
 24 19  1  0
 25 23  1  0
 26 25  2  0
 27 25  1  0
M  END
$$$$
