WSS.pdb
     RDKit          3D

 27 28  0  0  1  0  0  0  0  0999 V2000
    6.4873  -17.5729   24.5325 N   0  0  0  0  0  0  0  0  0  0  0  0
    7.1407  -16.4778   23.8914 C   0  0  1  0  0  0  0  0  0  0  0  0
    7.9964  -15.6722   24.8352 C   0  0  0  0  0  0  0  0  0  0  0  0
    7.1370  -14.7859   25.6539 C   0  0  0  0  0  0  0  0  0  0  0  0
    6.0816  -15.1444   26.4633 C   0  0  0  0  0  0  0  0  0  0  0  0
    5.5507  -14.0593   27.0437 N   0  0  0  0  0  0  0  0  0  0  0  0
    6.2534  -12.9961   26.6178 C   0  0  0  0  0  0  0  0  0  0  0  0
    6.1145  -11.6568   26.9144 C   0  0  0  0  0  0  0  0  0  0  0  0
    6.9732  -10.7476   26.3405 C   0  0  0  0  0  0  0  0  0  0  0  0
    7.9627  -11.1600   25.4793 C   0  0  0  0  0  0  0  0  0  0  0  0
    8.0938  -12.4930   25.1899 C   0  0  0  0  0  0  0  0  0  0  0  0
    7.2403  -13.4151   25.7576 C   0  0  0  0  0  0  0  0  0  0  0  0
    7.8781  -16.9563   22.7156 C   0  0  0  0  0  0  0  0  0  0  0  0
    8.5411  -18.0344   22.6971 O   0  0  0  0  0  0  0  0  0  0  0  0
    8.0906  -14.4033   19.5705 O   0  0  0  0  0  0  0  0  0  0  0  0
    8.2997  -15.7236   19.2343 C   0  0  0  0  0  0  0  0  0  0  0  0
    8.7715  -16.5276   20.4307 C   0  0  2  0  0  0  0  0  0  0  0  0
    7.8658  -16.1927   21.5234 N   0  0  0  0  0  0  0  0  0  0  0  0
   10.1361  -16.1690   20.8412 C   0  0  0  0  0  0  0  0  0  0  0  0
   10.5130  -14.9837   20.8735 O   0  0  0  0  0  0  0  0  0  0  0  0
   12.0683  -18.6781   23.1169 O   0  0  0  0  0  0  0  0  0  0  0  0
   12.6057  -17.4208   22.9940 C   0  0  0  0  0  0  0  0  0  0  0  0
   12.4249  -16.9271   21.5669 C   0  0  2  0  0  0  0  0  0  0  0  0
   11.0473  -17.1827   21.2091 N   0  0  0  0  0  0  0  0  0  0  0  0
   13.3905  -17.6240   20.7269 C   0  0  0  0  0  0  0  0  0  0  0  0
   14.6250  -17.5025   20.8974 O   0  0  0  0  0  0  0  0  0  0  0  0
   12.9501  -18.4468   19.7079 O   0  0  0  0  0  0  0  0  0  0  0  0
  2  1  1  1
  3  2  1  0
  4  3  1  0
  5  4  2  0
  6  5  1  0
  7  6  1  0
  7 12  2  0
  8  7  1  0
  9  8  2  0
  9 10  1  0
 10 11  2  0
 11 12  1  0
 12  4  1  0
 13 14  2  0
 13  2  1  0
 16 15  1  0
 17 18  1  0
 17 16  1  6
 18 13  1  0
 19 17  1  0
 20 19  2  0
 22 21  1  0
 23 22  1  1
 23 24  1  0
 24 19  1  0
 25 23  1  0
 26 25  2  0
 27 25  1  0
M  END
$$$$
