WSS.pdb
     RDKit          3D

 27 28  0  0  1  0  0  0  0  0999 V2000
    7.1448  -17.7797   24.2076 N   0  0  0  0  0  0  0  0  0  0  0  0
    8.0455  -16.6882   24.0213 C   0  0  1  0  0  0  0  0  0  0  0  0
    8.3997  -15.9941   25.3115 C   0  0  0  0  0  0  0  0  0  0  0  0
    7.2858  -15.1085   25.7231 C   0  0  0  0  0  0  0  0  0  0  0  0
    5.9923  -15.4661   26.0335 C   0  0  0  0  0  0  0  0  0  0  0  0
    5.2758  -14.3821   26.3620 N   0  0  0  0  0  0  0  0  0  0  0  0
    6.0942  -13.3205   26.2677 C   0  0  0  0  0  0  0  0  0  0  0  0
    5.8519  -11.9829   26.4975 C   0  0  0  0  0  0  0  0  0  0  0  0
    6.8723  -11.0751   26.3291 C   0  0  0  0  0  0  0  0  0  0  0  0
    8.1239  -11.4875   25.9362 C   0  0  0  0  0  0  0  0  0  0  0  0
    8.3561  -12.8188   25.7099 C   0  0  0  0  0  0  0  0  0  0  0  0
    7.3431  -13.7395   25.8746 C   0  0  0  0  0  0  0  0  0  0  0  0
    9.2238  -17.1370   23.2694 C   0  0  0  0  0  0  0  0  0  0  0  0
    9.8051  -18.2424   23.4749 O   0  0  0  0  0  0  0  0  0  0  0  0
   10.2143  -16.0383   19.4040 O   0  0  0  0  0  0  0  0  0  0  0  0
   11.1305  -15.7505   20.3928 C   0  0  0  0  0  0  0  0  0  0  0  0
   10.9885  -16.6997   21.5673 C   0  0  2  0  0  0  0  0  0  0  0  0
    9.7620  -16.3108   22.2534 N   0  0  0  0  0  0  0  0  0  0  0  0
   12.1023  -16.5813   22.5185 C   0  0  0  0  0  0  0  0  0  0  0  0
   12.1687  -15.6358   23.3245 O   0  0  0  0  0  0  0  0  0  0  0  0
   14.7859  -19.5713   22.3889 O   0  0  0  0  0  0  0  0  0  0  0  0
   14.7888  -18.8924   23.5821 C   0  0  0  0  0  0  0  0  0  0  0  0
   14.3039  -17.4683   23.3587 C   0  0  2  0  0  0  0  0  0  0  0  0
   13.1240  -17.5556   22.5272 N   0  0  0  0  0  0  0  0  0  0  0  0
   15.3950  -16.7140   22.7554 C   0  0  0  0  0  0  0  0  0  0  0  0
   16.4464  -16.4538   23.3838 O   0  0  0  0  0  0  0  0  0  0  0  0
   15.2846  -16.2644   21.4534 O   0  0  0  0  0  0  0  0  0  0  0  0
  2  1  1  1
  3  2  1  0
  4  3  1  0
  5  4  2  0
  6  5  1  0
  7  6  1  0
  7 12  2  0
  8  7  1  0
  9  8  2  0
  9 10  1  0
 10 11  2  0
 11 12  1  0
 12  4  1  0
 13 14  2  0
 13  2  1  0
 16 15  1  0
 17 18  1  0
 17 16  1  6
 18 13  1  0
 19 17  1  0
 20 19  2  0
 22 21  1  0
 23 22  1  6
 23 24  1  0
 24 19  1  0
 25 23  1  0
 26 25  2  0
 27 25  1  0
M  END
$$$$
