WSS.pdb
     RDKit          3D

 27 28  0  0  1  0  0  0  0  0999 V2000
    7.0562  -18.1683   24.5585 N   0  0  0  0  0  0  0  0  0  0  0  0
    7.5791  -16.9936   23.9389 C   0  0  1  0  0  0  0  0  0  0  0  0
    8.3524  -16.1218   24.8948 C   0  0  0  0  0  0  0  0  0  0  0  0
    7.4223  -15.2133   25.6047 C   0  0  0  0  0  0  0  0  0  0  0  0
    6.2550  -15.5412   26.2584 C   0  0  0  0  0  0  0  0  0  0  0  0
    5.6895  -14.4436   26.7798 N   0  0  0  0  0  0  0  0  0  0  0  0
    6.4808  -13.4027   26.4701 C   0  0  0  0  0  0  0  0  0  0  0  0
    6.3510  -12.0627   26.7673 C   0  0  0  0  0  0  0  0  0  0  0  0
    7.3113  -11.1798   26.3294 C   0  0  0  0  0  0  0  0  0  0  0  0
    8.3929  -11.6192   25.6028 C   0  0  0  0  0  0  0  0  0  0  0  0
    8.5143  -12.9527   25.3118 C   0  0  0  0  0  0  0  0  0  0  0  0
    7.5595  -13.8486   25.7439 C   0  0  0  0  0  0  0  0  0  0  0  0
    8.3509  -17.3610   22.7454 C   0  0  0  0  0  0  0  0  0  0  0  0
    8.9424  -18.4717   22.6097 O   0  0  0  0  0  0  0  0  0  0  0  0
    8.7621  -14.6873   19.4563 O   0  0  0  0  0  0  0  0  0  0  0  0
    8.5773  -16.0475   19.3313 C   0  0  0  0  0  0  0  0  0  0  0  0
    9.2219  -16.7980   20.4811 C   0  0  2  0  0  0  0  0  0  0  0  0
    8.4577  -16.4444   21.6716 N   0  0  0  0  0  0  0  0  0  0  0  0
   10.6184  -16.3951   20.6973 C   0  0  0  0  0  0  0  0  0  0  0  0
   10.9134  -15.4708   21.4762 O   0  0  0  0  0  0  0  0  0  0  0  0
   13.4816  -19.0385   21.7054 O   0  0  0  0  0  0  0  0  0  0  0  0
   13.0386  -17.7449   21.8279 C   0  0  0  0  0  0  0  0  0  0  0  0
   13.0304  -17.0781   20.4610 C   0  0  2  0  0  0  0  0  0  0  0  0
   11.6558  -17.0645   20.0124 N   0  0  0  0  0  0  0  0  0  0  0  0
   13.9262  -17.8297   19.5914 C   0  0  0  0  0  0  0  0  0  0  0  0
   13.5074  -18.4511   18.5883 O   0  0  0  0  0  0  0  0  0  0  0  0
   15.2800  -17.8696   19.8657 O   0  0  0  0  0  0  0  0  0  0  0  0
  2  1  1  1
  3  2  1  0
  4  3  1  0
  5  4  2  0
  6  5  1  0
  7  6  1  0
  7 12  2  0
  8  7  1  0
  9  8  2  0
  9 10  1  0
 10 11  2  0
 11 12  1  0
 12  4  1  0
 13 14  2  0
 13  2  1  0
 16 15  1  0
 17 18  1  0
 17 16  1  6
 18 13  1  0
 19 17  1  0
 20 19  2  0
 22 21  1  0
 23 22  1  1
 23 24  1  0
 24 19  1  0
 25 23  1  0
 26 25  2  0
 27 25  1  0
M  END
$$$$
