WSS.pdb
     RDKit          3D

 27 28  0  0  1  0  0  0  0  0999 V2000
    7.1964  -17.8504   25.7431 N   0  0  0  0  0  0  0  0  0  0  0  0
    7.0087  -17.3273   24.4285 C   0  0  1  0  0  0  0  0  0  0  0  0
    6.4542  -15.9257   24.4294 C   0  0  0  0  0  0  0  0  0  0  0  0
    7.0294  -15.1629   25.5615 C   0  0  0  0  0  0  0  0  0  0  0  0
    7.9954  -15.5738   26.4534 C   0  0  0  0  0  0  0  0  0  0  0  0
    8.2561  -14.6012   27.3380 N   0  0  0  0  0  0  0  0  0  0  0  0
    7.4662  -13.5593   27.0282 C   0  0  0  0  0  0  0  0  0  0  0  0
    7.3467  -12.3213   27.6231 C   0  0  0  0  0  0  0  0  0  0  0  0
    6.4508  -11.4114   27.1102 C   0  0  0  0  0  0  0  0  0  0  0  0
    5.6785  -11.7237   26.0161 C   0  0  0  0  0  0  0  0  0  0  0  0
    5.8036  -12.9564   25.4309 C   0  0  0  0  0  0  0  0  0  0  0  0
    6.6970  -13.8779   25.9343 C   0  0  0  0  0  0  0  0  0  0  0  0
    8.2537  -17.4509   23.6603 C   0  0  0  0  0  0  0  0  0  0  0  0
    9.2505  -18.1273   24.0483 O   0  0  0  0  0  0  0  0  0  0  0  0
    9.2424  -14.9523   20.4169 O   0  0  0  0  0  0  0  0  0  0  0  0
    9.2604  -16.3215   20.2588 C   0  0  0  0  0  0  0  0  0  0  0  0
    9.5437  -17.0232   21.5733 C   0  0  2  0  0  0  0  0  0  0  0  0
    8.3758  -16.7893   22.4145 N   0  0  0  0  0  0  0  0  0  0  0  0
   10.7197  -16.4700   22.2591 C   0  0  0  0  0  0  0  0  0  0  0  0
   10.7077  -15.3247   22.7451 O   0  0  0  0  0  0  0  0  0  0  0  0
   13.6023  -19.0466   23.3419 O   0  0  0  0  0  0  0  0  0  0  0  0
   13.5694  -17.8240   23.9654 C   0  0  0  0  0  0  0  0  0  0  0  0
   13.1156  -16.7606   22.9773 C   0  0  2  0  0  0  0  0  0  0  0  0
   11.8936  -17.2459   22.3752 N   0  0  0  0  0  0  0  0  0  0  0  0
   14.1966  -16.5455   22.0241 C   0  0  0  0  0  0  0  0  0  0  0  0
   14.0772  -16.8350   20.8117 O   0  0  0  0  0  0  0  0  0  0  0  0
   15.3955  -16.0076   22.4517 O   0  0  0  0  0  0  0  0  0  0  0  0
  2  1  1  1
  3  2  1  0
  4  3  1  0
  5  4  2  0
  6  5  1  0
  7  6  1  0
  7 12  2  0
  8  7  1  0
  9  8  2  0
  9 10  1  0
 10 11  2  0
 11 12  1  0
 12  4  1  0
 13 14  2  0
 13  2  1  0
 16 15  1  0
 17 18  1  0
 17 16  1  6
 18 13  1  0
 19 17  1  0
 20 19  2  0
 22 21  1  0
 23 22  1  1
 23 24  1  0
 24 19  1  0
 25 23  1  0
 26 25  2  0
 27 25  1  0
M  END
$$$$
