WSS.pdb
     RDKit          3D

 27 28  0  0  1  0  0  0  0  0999 V2000
    6.8941  -16.9530   25.2597 N   0  0  0  0  0  0  0  0  0  0  0  0
    7.3115  -15.9017   24.3891 C   0  0  1  0  0  0  0  0  0  0  0  0
    8.4643  -15.1047   24.9437 C   0  0  0  0  0  0  0  0  0  0  0  0
    8.0302  -14.3818   26.1616 C   0  0  0  0  0  0  0  0  0  0  0  0
    8.1752  -14.7741   27.4741 C   0  0  0  0  0  0  0  0  0  0  0  0
    7.6562  -13.8512   28.2958 N   0  0  0  0  0  0  0  0  0  0  0  0
    7.1740  -12.8600   27.5272 C   0  0  0  0  0  0  0  0  0  0  0  0
    6.5448  -11.6842   27.8770 C   0  0  0  0  0  0  0  0  0  0  0  0
    6.1380  -10.8183   26.8880 C   0  0  0  0  0  0  0  0  0  0  0  0
    6.3523  -11.1130   25.5620 C   0  0  0  0  0  0  0  0  0  0  0  0
    6.9784  -12.2838   25.2231 C   0  0  0  0  0  0  0  0  0  0  0  0
    7.3912  -13.1609   26.2036 C   0  0  0  0  0  0  0  0  0  0  0  0
    7.5785  -16.4402   23.0496 C   0  0  0  0  0  0  0  0  0  0  0  0
    8.0263  -17.6055   22.8410 O   0  0  0  0  0  0  0  0  0  0  0  0
    7.5689  -13.8297   19.8191 O   0  0  0  0  0  0  0  0  0  0  0  0
    7.1427  -15.1217   19.5979 C   0  0  0  0  0  0  0  0  0  0  0  0
    7.7649  -16.0838   20.5919 C   0  0  2  0  0  0  0  0  0  0  0  0
    7.3317  -15.6365   21.9104 N   0  0  0  0  0  0  0  0  0  0  0  0
    9.2336  -16.0500   20.5568 C   0  0  0  0  0  0  0  0  0  0  0  0
    9.8712  -15.0866   21.0189 O   0  0  0  0  0  0  0  0  0  0  0  0
   11.5687  -18.7180   22.0142 O   0  0  0  0  0  0  0  0  0  0  0  0
   11.6611  -17.4065   21.6190 C   0  0  0  0  0  0  0  0  0  0  0  0
   11.3756  -17.3025   20.1288 C   0  0  2  0  0  0  0  0  0  0  0  0
    9.9468  -17.1283   19.9896 N   0  0  0  0  0  0  0  0  0  0  0  0
   11.8868  -18.5085   19.4904 C   0  0  0  0  0  0  0  0  0  0  0  0
   13.1084  -18.7834   19.4774 O   0  0  0  0  0  0  0  0  0  0  0  0
   11.0138  -19.3861   18.8763 O   0  0  0  0  0  0  0  0  0  0  0  0
  2  1  1  1
  3  2  1  0
  4  3  1  0
  5  4  2  0
  6  5  1  0
  7  6  1  0
  7 12  2  0
  8  7  1  0
  9  8  2  0
  9 10  1  0
 10 11  2  0
 11 12  1  0
 12  4  1  0
 13 14  2  0
 13  2  1  0
 16 15  1  0
 17 18  1  0
 17 16  1  6
 18 13  1  0
 19 17  1  0
 20 19  2  0
 22 21  1  0
 23 22  1  1
 23 24  1  0
 24 19  1  0
 25 23  1  0
 26 25  2  0
 27 25  1  0
M  END
$$$$
