WSS.pdb
     RDKit          3D

 27 28  0  0  1  0  0  0  0  0999 V2000
    6.9687  -17.2912   25.4234 N   0  0  0  0  0  0  0  0  0  0  0  0
    7.5056  -16.2625   24.5923 C   0  0  1  0  0  0  0  0  0  0  0  0
    8.6377  -15.5123   25.2460 C   0  0  0  0  0  0  0  0  0  0  0  0
    8.1095  -14.6721   26.3457 C   0  0  0  0  0  0  0  0  0  0  0  0
    7.9936  -14.9995   27.6787 C   0  0  0  0  0  0  0  0  0  0  0  0
    7.4704  -13.9748   28.3659 N   0  0  0  0  0  0  0  0  0  0  0  0
    7.2446  -12.9816   27.4894 C   0  0  0  0  0  0  0  0  0  0  0  0
    6.7201  -11.7214   27.6832 C   0  0  0  0  0  0  0  0  0  0  0  0
    6.5876  -10.8744   26.6069 C   0  0  0  0  0  0  0  0  0  0  0  0
    6.9713  -11.2710   25.3474 C   0  0  0  0  0  0  0  0  0  0  0  0
    7.4916  -12.5252   25.1635 C   0  0  0  0  0  0  0  0  0  0  0  0
    7.6301  -13.3844   26.2328 C   0  0  0  0  0  0  0  0  0  0  0  0
    7.8668  -16.8179   23.2822 C   0  0  0  0  0  0  0  0  0  0  0  0
    8.2642  -18.0075   23.1125 O   0  0  0  0  0  0  0  0  0  0  0  0
    7.5094  -14.4402   19.8759 O   0  0  0  0  0  0  0  0  0  0  0  0
    7.3332  -15.8052   19.8011 C   0  0  0  0  0  0  0  0  0  0  0  0
    8.1836  -16.5266   20.8292 C   0  0  2  0  0  0  0  0  0  0  0  0
    7.7759  -16.0033   22.1277 N   0  0  0  0  0  0  0  0  0  0  0  0
    9.6176  -16.2559   20.6564 C   0  0  0  0  0  0  0  0  0  0  0  0
   10.0189  -15.2210   20.0942 O   0  0  0  0  0  0  0  0  0  0  0  0
   12.1514  -17.8586   23.1492 O   0  0  0  0  0  0  0  0  0  0  0  0
   12.6148  -16.8724   22.3142 C   0  0  0  0  0  0  0  0  0  0  0  0
   11.9943  -17.0392   20.9357 C   0  0  2  0  0  0  0  0  0  0  0  0
   10.5692  -17.1825   21.1351 N   0  0  0  0  0  0  0  0  0  0  0  0
   12.6190  -18.1925   20.3007 C   0  0  0  0  0  0  0  0  0  0  0  0
   11.9729  -19.2312   20.0333 O   0  0  0  0  0  0  0  0  0  0  0  0
   13.9619  -18.1575   19.9771 O   0  0  0  0  0  0  0  0  0  0  0  0
  2  1  1  1
  3  2  1  0
  4  3  1  0
  5  4  2  0
  6  5  1  0
  7  6  1  0
  7 12  2  0
  8  7  1  0
  9  8  2  0
  9 10  1  0
 10 11  2  0
 11 12  1  0
 12  4  1  0
 13 14  2  0
 13  2  1  0
 16 15  1  0
 17 18  1  0
 17 16  1  6
 18 13  1  0
 19 17  1  0
 20 19  2  0
 22 21  1  0
 23 22  1  1
 23 24  1  0
 24 19  1  0
 25 23  1  0
 26 25  2  0
 27 25  1  0
M  END
$$$$
