WSS.pdb
     RDKit          3D

 27 28  0  0  1  0  0  0  0  0999 V2000
    6.7273  -17.8696   24.2490 N   0  0  0  0  0  0  0  0  0  0  0  0
    7.7530  -16.8932   24.0706 C   0  0  1  0  0  0  0  0  0  0  0  0
    8.2074  -16.2770   25.3690 C   0  0  0  0  0  0  0  0  0  0  0  0
    7.2156  -15.2725   25.8180 C   0  0  0  0  0  0  0  0  0  0  0  0
    5.9562  -15.4979   26.3286 C   0  0  0  0  0  0  0  0  0  0  0  0
    5.3583  -14.3351   26.6230 N   0  0  0  0  0  0  0  0  0  0  0  0
    6.2199  -13.3535   26.3075 C   0  0  0  0  0  0  0  0  0  0  0  0
    6.0932  -11.9849   26.4161 C   0  0  0  0  0  0  0  0  0  0  0  0
    7.1352  -11.1786   26.0191 C   0  0  0  0  0  0  0  0  0  0  0  0
    8.2949  -11.7221   25.5183 C   0  0  0  0  0  0  0  0  0  0  0  0
    8.4125  -13.0834   25.4138 C   0  0  0  0  0  0  0  0  0  0  0  0
    7.3764  -13.9034   25.8077 C   0  0  0  0  0  0  0  0  0  0  0  0
    8.8568  -17.4665   23.2907 C   0  0  0  0  0  0  0  0  0  0  0  0
    9.1593  -18.6953   23.3060 O   0  0  0  0  0  0  0  0  0  0  0  0
   11.0466  -15.0732   20.6088 O   0  0  0  0  0  0  0  0  0  0  0  0
   10.7851  -16.4095   20.3945 C   0  0  0  0  0  0  0  0  0  0  0  0
   10.7521  -17.1798   21.7007 C   0  0  2  0  0  0  0  0  0  0  0  0
    9.6432  -16.6245   22.4677 N   0  0  0  0  0  0  0  0  0  0  0  0
   11.9833  -17.0040   22.4835 C   0  0  0  0  0  0  0  0  0  0  0  0
   12.1542  -16.0071   23.2080 O   0  0  0  0  0  0  0  0  0  0  0  0
   14.7575  -19.8579   21.9263 O   0  0  0  0  0  0  0  0  0  0  0  0
   14.8989  -19.2271   23.1375 C   0  0  0  0  0  0  0  0  0  0  0  0
   14.2884  -17.8362   23.0614 C   0  0  2  0  0  0  0  0  0  0  0  0
   13.0004  -17.9812   22.4201 N   0  0  0  0  0  0  0  0  0  0  0  0
   15.2158  -16.9801   22.3329 C   0  0  0  0  0  0  0  0  0  0  0  0
   14.9265  -16.4892   21.2179 O   0  0  0  0  0  0  0  0  0  0  0  0
   16.4548  -16.6906   22.8720 O   0  0  0  0  0  0  0  0  0  0  0  0
  2  1  1  1
  3  2  1  0
  4  3  1  0
  5  4  2  0
  6  5  1  0
  7  6  1  0
  7 12  2  0
  8  7  1  0
  9  8  2  0
  9 10  1  0
 10 11  2  0
 11 12  1  0
 12  4  1  0
 13 14  2  0
 13  2  1  0
 16 15  1  0
 17 18  1  0
 17 16  1  6
 18 13  1  0
 19 17  1  0
 20 19  2  0
 22 21  1  0
 23 22  1  6
 23 24  1  0
 24 19  1  0
 25 23  1  0
 26 25  2  0
 27 25  1  0
M  END
$$$$
