WSS.pdb
     RDKit          3D

 27 28  0  0  1  0  0  0  0  0999 V2000
    6.3562  -17.6292   24.4461 N   0  0  0  0  0  0  0  0  0  0  0  0
    7.0807  -16.5546   23.8480 C   0  0  1  0  0  0  0  0  0  0  0  0
    7.9461  -15.8115   24.8333 C   0  0  0  0  0  0  0  0  0  0  0  0
    7.1084  -14.8924   25.6383 C   0  0  0  0  0  0  0  0  0  0  0  0
    6.0401  -15.2121   26.4469 C   0  0  0  0  0  0  0  0  0  0  0  0
    5.5374  -14.1062   27.0129 N   0  0  0  0  0  0  0  0  0  0  0  0
    6.2712  -13.0678   26.5784 C   0  0  0  0  0  0  0  0  0  0  0  0
    6.1687  -11.7220   26.8595 C   0  0  0  0  0  0  0  0  0  0  0  0
    7.0549  -10.8436   26.2794 C   0  0  0  0  0  0  0  0  0  0  0  0
    8.0360  -11.2931   25.4271 C   0  0  0  0  0  0  0  0  0  0  0  0
    8.1309  -12.6324   25.1531 C   0  0  0  0  0  0  0  0  0  0  0  0
    7.2496  -13.5239   25.7272 C   0  0  0  0  0  0  0  0  0  0  0  0
    7.8285  -17.0447   22.6836 C   0  0  0  0  0  0  0  0  0  0  0  0
    8.3505  -18.1961   22.6219 O   0  0  0  0  0  0  0  0  0  0  0  0
    8.8289  -14.3914   19.6007 O   0  0  0  0  0  0  0  0  0  0  0  0
    8.5235  -15.7000   19.2936 C   0  0  0  0  0  0  0  0  0  0  0  0
    8.8476  -16.6263   20.4501 C   0  0  2  0  0  0  0  0  0  0  0  0
    7.9914  -16.2074   21.5536 N   0  0  0  0  0  0  0  0  0  0  0  0
   10.2461  -16.5074   20.8853 C   0  0  0  0  0  0  0  0  0  0  0  0
   10.6240  -15.5637   21.6026 O   0  0  0  0  0  0  0  0  0  0  0  0
   12.2445  -18.9113   22.6274 O   0  0  0  0  0  0  0  0  0  0  0  0
   12.9513  -18.7518   21.4614 C   0  0  0  0  0  0  0  0  0  0  0  0
   12.5937  -17.4162   20.8279 C   0  0  2  0  0  0  0  0  0  0  0  0
   11.1897  -17.4794   20.4873 N   0  0  0  0  0  0  0  0  0  0  0  0
   13.4695  -17.2167   19.6804 C   0  0  0  0  0  0  0  0  0  0  0  0
   13.0248  -17.1541   18.5116 O   0  0  0  0  0  0  0  0  0  0  0  0
   14.8328  -17.0910   19.8677 O   0  0  0  0  0  0  0  0  0  0  0  0
  2  1  1  1
  3  2  1  0
  4  3  1  0
  5  4  2  0
  6  5  1  0
  7  6  1  0
  7 12  2  0
  8  7  1  0
  9  8  2  0
  9 10  1  0
 10 11  2  0
 11 12  1  0
 12  4  1  0
 13 14  2  0
 13  2  1  0
 16 15  1  0
 17 18  1  0
 17 16  1  6
 18 13  1  0
 19 17  1  0
 20 19  2  0
 22 21  1  0
 23 22  1  6
 23 24  1  0
 24 19  1  0
 25 23  1  0
 26 25  2  0
 27 25  1  0
M  END
$$$$
