WSS.pdb
     RDKit          3D

 27 28  0  0  1  0  0  0  0  0999 V2000
    6.4827  -18.0298   24.5325 N   0  0  0  0  0  0  0  0  0  0  0  0
    7.0633  -16.8430   23.9926 C   0  0  1  0  0  0  0  0  0  0  0  0
    7.8987  -16.0904   24.9964 C   0  0  0  0  0  0  0  0  0  0  0  0
    7.0520  -15.1091   25.7138 C   0  0  0  0  0  0  0  0  0  0  0  0
    5.9715  -15.3622   26.5298 C   0  0  0  0  0  0  0  0  0  0  0  0
    5.4635  -14.2141   26.9989 N   0  0  0  0  0  0  0  0  0  0  0  0
    6.2061  -13.2145   26.4939 C   0  0  0  0  0  0  0  0  0  0  0  0
    6.1030  -11.8505   26.6658 C   0  0  0  0  0  0  0  0  0  0  0  0
    6.9995  -11.0222   26.0306 C   0  0  0  0  0  0  0  0  0  0  0  0
    7.9916  -11.5393   25.2309 C   0  0  0  0  0  0  0  0  0  0  0  0
    8.0870  -12.8962   25.0655 C   0  0  0  0  0  0  0  0  0  0  0  0
    7.1954  -13.7381   25.6958 C   0  0  0  0  0  0  0  0  0  0  0  0
    7.7960  -17.1621   22.7611 C   0  0  0  0  0  0  0  0  0  0  0  0
    8.4159  -18.2504   22.5784 O   0  0  0  0  0  0  0  0  0  0  0  0
    8.0880  -14.2018   19.9384 O   0  0  0  0  0  0  0  0  0  0  0  0
    8.2682  -15.4908   19.4846 C   0  0  0  0  0  0  0  0  0  0  0  0
    8.7593  -16.4008   20.5943 C   0  0  2  0  0  0  0  0  0  0  0  0
    7.8292  -16.2219   21.7031 N   0  0  0  0  0  0  0  0  0  0  0  0
   10.1039  -16.0357   21.0615 C   0  0  0  0  0  0  0  0  0  0  0  0
   10.4941  -14.8543   21.0544 O   0  0  0  0  0  0  0  0  0  0  0  0
   11.5694  -16.7366   24.1387 O   0  0  0  0  0  0  0  0  0  0  0  0
   12.5199  -17.3052   23.3276 C   0  0  0  0  0  0  0  0  0  0  0  0
   12.3533  -16.7872   21.9074 C   0  0  2  0  0  0  0  0  0  0  0  0
   10.9798  -17.0385   21.5309 N   0  0  0  0  0  0  0  0  0  0  0  0
   13.3286  -17.4683   21.0657 C   0  0  0  0  0  0  0  0  0  0  0  0
   14.5603  -17.2900   21.2032 O   0  0  0  0  0  0  0  0  0  0  0  0
   12.9009  -18.3394   20.0820 O   0  0  0  0  0  0  0  0  0  0  0  0
  2  1  1  1
  3  2  1  0
  4  3  1  0
  5  4  2  0
  6  5  1  0
  7  6  1  0
  7 12  2  0
  8  7  1  0
  9  8  2  0
  9 10  1  0
 10 11  2  0
 11 12  1  0
 12  4  1  0
 13 14  2  0
 13  2  1  0
 16 15  1  0
 17 18  1  0
 17 16  1  6
 18 13  1  0
 19 17  1  0
 20 19  2  0
 22 21  1  0
 23 22  1  1
 23 24  1  0
 24 19  1  0
 25 23  1  0
 26 25  2  0
 27 25  1  0
M  END
$$$$
