YEP.pdb
     RDKit          3D

 29 30  0  0  1  0  0  0  0  0999 V2000
   11.5615  -15.3731   30.4537 O   0  0  0  0  0  0  0  0  0  0  0  0
   10.5048  -15.3673   29.5336 C   0  0  0  0  0  0  0  0  0  0  0  0
    9.7403  -16.4765   29.2852 C   0  0  0  0  0  0  0  0  0  0  0  0
    8.7050  -16.4237   28.3660 C   0  0  0  0  0  0  0  0  0  0  0  0
    8.4059  -15.2609   27.6704 C   0  0  0  0  0  0  0  0  0  0  0  0
    7.2967  -15.1909   26.6806 C   0  0  0  0  0  0  0  0  0  0  0  0
    7.6382  -16.1490   25.5669 C   0  0  2  0  0  0  0  0  0  0  0  0
    8.3423  -17.2624   26.1427 N   0  0  0  0  0  0  0  0  0  0  0  0
    8.5116  -15.5033   24.5376 C   0  0  0  0  0  0  0  0  0  0  0  0
    9.0429  -14.3874   24.7712 O   0  0  0  0  0  0  0  0  0  0  0  0
    9.2043  -14.1612   27.9518 C   0  0  0  0  0  0  0  0  0  0  0  0
   10.2339  -14.2080   28.8636 C   0  0  0  0  0  0  0  0  0  0  0  0
    8.7166  -16.1796   23.3118 N   0  0  0  0  0  0  0  0  0  0  0  0
    9.2995  -15.5397   22.1459 C   0  0  1  0  0  0  0  0  0  0  0  0
   10.5934  -16.2793   21.8697 C   0  0  0  0  0  0  0  0  0  0  0  0
   11.5455  -15.9006   23.0004 C   0  0  0  0  0  0  0  0  0  0  0  0
   12.9589  -16.1403   22.5981 C   0  0  0  0  0  0  0  0  0  0  0  0
   13.3347  -17.2627   22.1803 O   0  0  0  0  0  0  0  0  0  0  0  0
    8.3653  -15.5275   21.0067 C   0  0  0  0  0  0  0  0  0  0  0  0
    7.8203  -16.6238   20.6329 O   0  0  0  0  0  0  0  0  0  0  0  0
   13.8955  -15.1227   22.6771 O   0  0  0  0  0  0  0  0  0  0  0  0
    8.0059  -14.3673   20.2661 N   0  0  0  0  0  0  0  0  0  0  0  0
    8.0866  -12.9786   20.6668 C   0  0  0  0  0  0  0  0  0  0  0  0
    8.5929  -12.3248   19.3723 C   0  0  0  0  0  0  0  0  0  0  0  0
    7.5300  -12.9113   18.4237 C   0  0  0  0  0  0  0  0  0  0  0  0
    7.4139  -14.3536   18.9259 C   0  0  1  0  0  0  0  0  0  0  0  0
    8.1541  -15.2003   17.9718 C   0  0  0  0  0  0  0  0  0  0  0  0
    9.3186  -15.5575   18.2386 O   0  0  0  0  0  0  0  0  0  0  0  0
    7.5863  -15.6107   16.7821 O   0  0  0  0  0  0  0  0  0  0  0  0
  2  1  1  0
  2 12  2  0
  3  2  1  0
  4  3  2  0
  4  5  1  0
  5 11  2  0
  6  5  1  0
  7  9  1  0
  7  6  1  0
  7  8  1  1
  9 10  2  0
 11 12  1  0
 13 14  1  0
 13  9  1  0
 14 19  1  0
 15 16  1  0
 14 15  1  6
 16 17  1  0
 17 21  1  0
 17 18  2  0
 19 20  2  0
 22 19  1  0
 22 26  1  0
 23 24  1  0
 23 22  1  0
 25 24  1  0
 25 26  1  0
 26 27  1  6
 27 28  2  0
 27 29  1  0
M  END
$$$$
