YEP.pdb
     RDKit          3D

 29 30  0  0  1  0  0  0  0  0999 V2000
    9.6371  -11.6325   19.9048 O   0  0  0  0  0  0  0  0  0  0  0  0
    8.7690  -12.7313   19.9518 C   0  0  0  0  0  0  0  0  0  0  0  0
    7.6976  -12.7858   20.8035 C   0  0  0  0  0  0  0  0  0  0  0  0
    6.8658  -13.8937   20.8149 C   0  0  0  0  0  0  0  0  0  0  0  0
    7.0824  -14.9769   19.9753 C   0  0  0  0  0  0  0  0  0  0  0  0
    6.1966  -16.1729   19.9776 C   0  0  0  0  0  0  0  0  0  0  0  0
    6.8033  -17.1693   20.9336 C   0  0  2  0  0  0  0  0  0  0  0  0
    6.3644  -18.4811   20.5415 N   0  0  0  0  0  0  0  0  0  0  0  0
    6.3665  -16.9132   22.3418 C   0  0  0  0  0  0  0  0  0  0  0  0
    5.2708  -17.3716   22.7558 O   0  0  0  0  0  0  0  0  0  0  0  0
    8.1780  -14.8811   19.1288 C   0  0  0  0  0  0  0  0  0  0  0  0
    9.0074  -13.7832   19.1133 C   0  0  0  0  0  0  0  0  0  0  0  0
    7.2141  -16.1498   23.1789 N   0  0  0  0  0  0  0  0  0  0  0  0
    7.2476  -16.3076   24.6219 C   0  0  1  0  0  0  0  0  0  0  0  0
    7.5505  -17.7715   24.8728 C   0  0  0  0  0  0  0  0  0  0  0  0
    6.5877  -18.2197   25.9685 C   0  0  0  0  0  0  0  0  0  0  0  0
    7.2405  -19.2122   26.8662 C   0  0  0  0  0  0  0  0  0  0  0  0
    7.3590  -18.9965   28.0970 O   0  0  0  0  0  0  0  0  0  0  0  0
    8.2093  -15.3843   25.2491 C   0  0  0  0  0  0  0  0  0  0  0  0
    9.4518  -15.6915   25.2655 O   0  0  0  0  0  0  0  0  0  0  0  0
    7.7342  -20.4028   26.3584 O   0  0  0  0  0  0  0  0  0  0  0  0
    7.8648  -14.1437   25.8541 N   0  0  0  0  0  0  0  0  0  0  0  0
    6.6568  -13.3631   25.6904 C   0  0  0  0  0  0  0  0  0  0  0  0
    6.4051  -12.8990   27.1329 C   0  0  0  0  0  0  0  0  0  0  0  0
    7.8054  -12.3156   27.4018 C   0  0  0  0  0  0  0  0  0  0  0  0
    8.7176  -13.3604   26.7519 C   0  0  1  0  0  0  0  0  0  0  0  0
    9.2852  -14.1725   27.8444 C   0  0  0  0  0  0  0  0  0  0  0  0
    8.7800  -15.2793   28.1170 O   0  0  0  0  0  0  0  0  0  0  0  0
   10.3697  -13.7350   28.5784 O   0  0  0  0  0  0  0  0  0  0  0  0
  2  1  1  0
  2 12  2  0
  3  2  1  0
  4  3  2  0
  4  5  1  0
  5 11  2  0
  6  5  1  0
  7  9  1  0
  7  6  1  0
  7  8  1  6
  9 10  2  0
 11 12  1  0
 13 14  1  0
 13  9  1  0
 14 19  1  0
 15 16  1  0
 14 15  1  6
 16 17  1  0
 17 21  1  0
 17 18  2  0
 19 20  2  0
 22 19  1  0
 22 26  1  0
 23 24  1  0
 23 22  1  0
 25 24  1  0
 25 26  1  0
 26 27  1  1
 27 28  2  0
 27 29  1  0
M  END
$$$$
