YEP.pdb
     RDKit          3D

 29 30  0  0  1  0  0  0  0  0999 V2000
    8.7665  -13.3670   15.9359 O   0  0  0  0  0  0  0  0  0  0  0  0
    8.2375  -13.6089   17.2106 C   0  0  0  0  0  0  0  0  0  0  0  0
    8.5011  -12.7974   18.2821 C   0  0  0  0  0  0  0  0  0  0  0  0
    7.9554  -13.0762   19.5247 C   0  0  0  0  0  0  0  0  0  0  0  0
    7.1315  -14.1737   19.7297 C   0  0  0  0  0  0  0  0  0  0  0  0
    6.5390  -14.4843   21.0591 C   0  0  0  0  0  0  0  0  0  0  0  0
    7.3867  -15.5678   21.6776 C   0  0  2  0  0  0  0  0  0  0  0  0
    7.1548  -16.7825   20.9441 N   0  0  0  0  0  0  0  0  0  0  0  0
    7.0272  -15.7923   23.1127 C   0  0  0  0  0  0  0  0  0  0  0  0
    5.8342  -16.0271   23.4351 O   0  0  0  0  0  0  0  0  0  0  0  0
    6.8902  -14.9693   18.6185 C   0  0  0  0  0  0  0  0  0  0  0  0
    7.4296  -14.6971   17.3822 C   0  0  0  0  0  0  0  0  0  0  0  0
    8.0581  -15.7326   24.0799 N   0  0  0  0  0  0  0  0  0  0  0  0
    7.8177  -15.9101   25.5009 C   0  0  1  0  0  0  0  0  0  0  0  0
    7.0155  -17.1897   25.6298 C   0  0  0  0  0  0  0  0  0  0  0  0
    7.9447  -18.3165   25.1879 C   0  0  0  0  0  0  0  0  0  0  0  0
    7.4069  -19.6376   25.6151 C   0  0  0  0  0  0  0  0  0  0  0  0
    7.0296  -19.8351   26.7957 O   0  0  0  0  0  0  0  0  0  0  0  0
    9.0744  -15.9148   26.2700 C   0  0  0  0  0  0  0  0  0  0  0  0
    9.9566  -16.8083   26.0213 O   0  0  0  0  0  0  0  0  0  0  0  0
    7.3110  -20.6838   24.7121 O   0  0  0  0  0  0  0  0  0  0  0  0
    9.4009  -14.9830   27.2941 N   0  0  0  0  0  0  0  0  0  0  0  0
    8.7046  -13.7700   27.6676 C   0  0  0  0  0  0  0  0  0  0  0  0
    8.7921  -13.8369   29.1997 C   0  0  0  0  0  0  0  0  0  0  0  0
   10.3143  -14.0506   29.3034 C   0  0  0  0  0  0  0  0  0  0  0  0
   10.5762  -15.0434   28.1669 C   0  0  1  0  0  0  0  0  0  0  0  0
   10.7517  -16.3694   28.7882 C   0  0  0  0  0  0  0  0  0  0  0  0
    9.8107  -17.1873   28.7731 O   0  0  0  0  0  0  0  0  0  0  0  0
   11.9403  -16.7309   29.3907 O   0  0  0  0  0  0  0  0  0  0  0  0
  2  1  1  0
  2 12  2  0
  3  2  1  0
  4  3  2  0
  4  5  1  0
  5 11  2  0
  6  5  1  0
  7  9  1  0
  7  6  1  0
  7  8  1  6
  9 10  2  0
 11 12  1  0
 13 14  1  0
 13  9  1  0
 14 19  1  0
 15 16  1  0
 14 15  1  6
 16 17  1  0
 17 21  1  0
 17 18  2  0
 19 20  2  0
 22 19  1  0
 22 26  1  0
 23 24  1  0
 23 22  1  0
 25 24  1  0
 25 26  1  0
 26 27  1  1
 27 28  2  0
 27 29  1  0
M  END
$$$$
