YEP.pdb
     RDKit          3D

 29 30  0  0  1  0  0  0  0  0999 V2000
    5.5384  -10.5507   27.3193 O   0  0  0  0  0  0  0  0  0  0  0  0
    6.2713  -11.5543   26.6720 C   0  0  0  0  0  0  0  0  0  0  0  0
    5.7343  -12.3344   25.6824 C   0  0  0  0  0  0  0  0  0  0  0  0
    6.4975  -13.3155   25.0702 C   0  0  0  0  0  0  0  0  0  0  0  0
    7.8178  -13.5432   25.4308 C   0  0  0  0  0  0  0  0  0  0  0  0
    8.6484  -14.5935   24.7813 C   0  0  0  0  0  0  0  0  0  0  0  0
    7.8789  -15.8871   24.8784 C   0  0  2  0  0  0  0  0  0  0  0  0
    7.5673  -16.1126   26.2638 N   0  0  0  0  0  0  0  0  0  0  0  0
    8.6823  -17.0419   24.3683 C   0  0  0  0  0  0  0  0  0  0  0  0
    9.4133  -17.6980   25.1540 O   0  0  0  0  0  0  0  0  0  0  0  0
    8.3225  -12.7313   26.4370 C   0  0  0  0  0  0  0  0  0  0  0  0
    7.5690  -11.7555   27.0483 C   0  0  0  0  0  0  0  0  0  0  0  0
    8.5935  -17.3661   22.9939 N   0  0  0  0  0  0  0  0  0  0  0  0
    9.4087  -18.3941   22.3718 C   0  0  1  0  0  0  0  0  0  0  0  0
    8.5314  -19.0381   21.3168 C   0  0  0  0  0  0  0  0  0  0  0  0
    7.5601  -19.9423   22.0703 C   0  0  0  0  0  0  0  0  0  0  0  0
    6.8062  -20.8077   21.1218 C   0  0  0  0  0  0  0  0  0  0  0  0
    6.0112  -21.6867   21.5350 O   0  0  0  0  0  0  0  0  0  0  0  0
   10.6696  -17.8446   21.8437 C   0  0  0  0  0  0  0  0  0  0  0  0
   10.6273  -16.9068   20.9735 O   0  0  0  0  0  0  0  0  0  0  0  0
    6.9675  -20.6600   19.7539 O   0  0  0  0  0  0  0  0  0  0  0  0
   11.9677  -18.2789   22.2309 N   0  0  0  0  0  0  0  0  0  0  0  0
   12.3368  -19.1816   23.3007 C   0  0  0  0  0  0  0  0  0  0  0  0
   13.4454  -20.0038   22.6265 C   0  0  0  0  0  0  0  0  0  0  0  0
   14.2998  -18.8202   22.1337 C   0  0  0  0  0  0  0  0  0  0  0  0
   13.2327  -17.8411   21.6351 C   0  0  1  0  0  0  0  0  0  0  0  0
   13.2249  -17.9290   20.1629 C   0  0  0  0  0  0  0  0  0  0  0  0
   12.3870  -18.6552   19.5927 O   0  0  0  0  0  0  0  0  0  0  0  0
   14.1285  -17.2222   19.3945 O   0  0  0  0  0  0  0  0  0  0  0  0
  2  1  1  0
  2 12  2  0
  3  2  1  0
  4  3  2  0
  4  5  1  0
  5 11  2  0
  6  5  1  0
  7  9  1  0
  7  6  1  0
  7  8  1  1
  9 10  2  0
 11 12  1  0
 13 14  1  0
 13  9  1  0
 14 19  1  0
 15 16  1  0
 14 15  1  6
 16 17  1  0
 17 21  1  0
 17 18  2  0
 19 20  2  0
 22 19  1  0
 22 26  1  0
 23 24  1  0
 23 22  1  0
 25 24  1  0
 25 26  1  0
 26 27  1  6
 27 28  2  0
 27 29  1  0
M  END
$$$$
