YEP.pdb
     RDKit          3D

 29 30  0  0  1  0  0  0  0  0999 V2000
    9.9288  -12.9192   16.9287 O   0  0  0  0  0  0  0  0  0  0  0  0
    9.0569  -13.3408   17.9413 C   0  0  0  0  0  0  0  0  0  0  0  0
    7.8089  -13.8395   17.6763 C   0  0  0  0  0  0  0  0  0  0  0  0
    6.9808  -14.2445   18.7106 C   0  0  0  0  0  0  0  0  0  0  0  0
    7.3777  -14.1618   20.0376 C   0  0  0  0  0  0  0  0  0  0  0  0
    6.4980  -14.5933   21.1578 C   0  0  0  0  0  0  0  0  0  0  0  0
    6.7921  -16.0504   21.4135 C   0  0  2  0  0  0  0  0  0  0  0  0
    5.8638  -16.8303   20.6407 N   0  0  0  0  0  0  0  0  0  0  0  0
    6.6288  -16.3964   22.8602 C   0  0  0  0  0  0  0  0  0  0  0  0
    5.4805  -16.5817   23.3389 O   0  0  0  0  0  0  0  0  0  0  0  0
    8.6485  -13.6512   20.2619 C   0  0  0  0  0  0  0  0  0  0  0  0
    9.4752  -13.2475   19.2384 C   0  0  0  0  0  0  0  0  0  0  0  0
    7.7914  -16.5064   23.6591 N   0  0  0  0  0  0  0  0  0  0  0  0
    7.7462  -16.6172   25.1062 C   0  0  1  0  0  0  0  0  0  0  0  0
    8.1305  -18.0482   25.4254 C   0  0  0  0  0  0  0  0  0  0  0  0
    7.9497  -18.2076   26.9322 C   0  0  0  0  0  0  0  0  0  0  0  0
    8.4037  -19.5546   27.3753 C   0  0  0  0  0  0  0  0  0  0  0  0
    9.0187  -20.3225   26.5958 O   0  0  0  0  0  0  0  0  0  0  0  0
    8.6034  -15.6109   25.7569 C   0  0  0  0  0  0  0  0  0  0  0  0
    9.8616  -15.8272   25.8505 O   0  0  0  0  0  0  0  0  0  0  0  0
    8.1552  -19.9918   28.6661 O   0  0  0  0  0  0  0  0  0  0  0  0
    8.1386  -14.3831   26.3047 N   0  0  0  0  0  0  0  0  0  0  0  0
    6.8511  -13.7451   26.1289 C   0  0  0  0  0  0  0  0  0  0  0  0
    6.5765  -13.2331   27.5509 C   0  0  0  0  0  0  0  0  0  0  0  0
    7.9107  -12.4906   27.7565 C   0  0  0  0  0  0  0  0  0  0  0  0
    8.9180  -13.4663   27.1406 C   0  0  1  0  0  0  0  0  0  0  0  0
    9.5886  -14.1533   28.2602 C   0  0  0  0  0  0  0  0  0  0  0  0
   10.4762  -13.5607   28.9048 O   0  0  0  0  0  0  0  0  0  0  0  0
    9.2560  -15.4454   28.6153 O   0  0  0  0  0  0  0  0  0  0  0  0
  2  1  1  0
  2 12  2  0
  3  2  1  0
  4  3  2  0
  4  5  1  0
  5 11  2  0
  6  5  1  0
  7  9  1  0
  7  6  1  0
  7  8  1  6
  9 10  2  0
 11 12  1  0
 13 14  1  0
 13  9  1  0
 14 19  1  0
 15 16  1  0
 14 15  1  6
 16 17  1  0
 17 21  1  0
 17 18  2  0
 19 20  2  0
 22 19  1  0
 22 26  1  0
 23 24  1  0
 23 22  1  0
 25 24  1  0
 25 26  1  0
 26 27  1  1
 27 28  2  0
 27 29  1  0
M  END
$$$$
