YEP.pdb
     RDKit          3D

 29 30  0  0  1  0  0  0  0  0999 V2000
    9.2541  -12.9082   16.4502 O   0  0  0  0  0  0  0  0  0  0  0  0
    8.6116  -13.2804   17.6384 C   0  0  0  0  0  0  0  0  0  0  0  0
    9.2178  -13.1847   18.8630 C   0  0  0  0  0  0  0  0  0  0  0  0
    8.5430  -13.5648   20.0118 C   0  0  0  0  0  0  0  0  0  0  0  0
    7.2441  -14.0509   19.9674 C   0  0  0  0  0  0  0  0  0  0  0  0
    6.5081  -14.4625   21.1938 C   0  0  0  0  0  0  0  0  0  0  0  0
    6.9766  -15.8529   21.5436 C   0  0  2  0  0  0  0  0  0  0  0  0
    6.3017  -16.7780   20.6742 N   0  0  0  0  0  0  0  0  0  0  0  0
    6.6539  -16.1985   22.9633 C   0  0  0  0  0  0  0  0  0  0  0  0
    5.5629  -16.7581   23.2441 O   0  0  0  0  0  0  0  0  0  0  0  0
    6.6674  -14.1317   18.7077 C   0  0  0  0  0  0  0  0  0  0  0  0
    7.3330  -13.7555   17.5636 C   0  0  0  0  0  0  0  0  0  0  0  0
    7.6023  -15.8798   23.9638 N   0  0  0  0  0  0  0  0  0  0  0  0
    7.4652  -16.3063   25.3449 C   0  0  1  0  0  0  0  0  0  0  0  0
    7.3118  -17.8137   25.3009 C   0  0  0  0  0  0  0  0  0  0  0  0
    7.1444  -18.2632   26.7494 C   0  0  0  0  0  0  0  0  0  0  0  0
    7.6480  -19.6529   26.9287 C   0  0  0  0  0  0  0  0  0  0  0  0
    7.5361  -20.5078   26.0166 O   0  0  0  0  0  0  0  0  0  0  0  0
    8.5944  -15.8464   26.1721 C   0  0  0  0  0  0  0  0  0  0  0  0
    9.6879  -16.5117   26.1635 O   0  0  0  0  0  0  0  0  0  0  0  0
    8.2548  -20.0342   28.1142 O   0  0  0  0  0  0  0  0  0  0  0  0
    8.5727  -14.6915   27.0024 N   0  0  0  0  0  0  0  0  0  0  0  0
    7.5210  -13.7088   27.1564 C   0  0  0  0  0  0  0  0  0  0  0  0
    7.5577  -13.4693   28.6732 C   0  0  0  0  0  0  0  0  0  0  0  0
    9.0656  -13.1769   28.7924 C   0  0  0  0  0  0  0  0  0  0  0  0
    9.6702  -14.2260   27.8544 C   0  0  1  0  0  0  0  0  0  0  0  0
   10.2183  -15.2976   28.7065 C   0  0  0  0  0  0  0  0  0  0  0  0
    9.5861  -16.3640   28.8399 O   0  0  0  0  0  0  0  0  0  0  0  0
   11.4227  -15.1490   29.3652 O   0  0  0  0  0  0  0  0  0  0  0  0
  2  1  1  0
  2 12  2  0
  3  2  1  0
  4  3  2  0
  4  5  1  0
  5 11  2  0
  6  5  1  0
  7  9  1  0
  7  6  1  0
  7  8  1  6
  9 10  2  0
 11 12  1  0
 13 14  1  0
 13  9  1  0
 14 19  1  0
 15 16  1  0
 14 15  1  6
 16 17  1  0
 17 21  1  0
 17 18  2  0
 19 20  2  0
 22 19  1  0
 22 26  1  0
 23 24  1  0
 23 22  1  0
 25 24  1  0
 25 26  1  0
 26 27  1  1
 27 28  2  0
 27 29  1  0
M  END
$$$$
