YEP.pdb
     RDKit          3D

 29 30  0  0  1  0  0  0  0  0999 V2000
   10.2493  -16.4927   31.8743 O   0  0  0  0  0  0  0  0  0  0  0  0
   10.2598  -16.1270   30.5218 C   0  0  0  0  0  0  0  0  0  0  0  0
   10.0005  -17.0208   29.5167 C   0  0  0  0  0  0  0  0  0  0  0  0
   10.0220  -16.6135   28.1925 C   0  0  0  0  0  0  0  0  0  0  0  0
   10.3032  -15.3019   27.8375 C   0  0  0  0  0  0  0  0  0  0  0  0
   10.3295  -14.8515   26.4193 C   0  0  0  0  0  0  0  0  0  0  0  0
   10.8948  -15.9888   25.6057 C   0  0  2  0  0  0  0  0  0  0  0  0
   12.1946  -16.3051   26.1325 N   0  0  0  0  0  0  0  0  0  0  0  0
   11.0345  -15.6141   24.1637 C   0  0  0  0  0  0  0  0  0  0  0  0
   11.6347  -14.5566   23.8419 O   0  0  0  0  0  0  0  0  0  0  0  0
   10.5600  -14.4295   28.8858 C   0  0  0  0  0  0  0  0  0  0  0  0
   10.5399  -14.8286   30.2026 C   0  0  0  0  0  0  0  0  0  0  0  0
   10.4775  -16.4758   23.1894 N   0  0  0  0  0  0  0  0  0  0  0  0
   10.2631  -16.0736   21.8108 C   0  0  1  0  0  0  0  0  0  0  0  0
   11.0971  -17.0179   20.9681 C   0  0  0  0  0  0  0  0  0  0  0  0
   12.5476  -16.5837   21.1581 C   0  0  0  0  0  0  0  0  0  0  0  0
   13.4573  -17.4139   20.3214 C   0  0  0  0  0  0  0  0  0  0  0  0
   14.2609  -18.2251   20.8426 O   0  0  0  0  0  0  0  0  0  0  0  0
    8.8320  -16.0688   21.4606 C   0  0  0  0  0  0  0  0  0  0  0  0
    8.1095  -17.0799   21.7676 O   0  0  0  0  0  0  0  0  0  0  0  0
   13.4359  -17.3077   18.9403 O   0  0  0  0  0  0  0  0  0  0  0  0
    8.1651  -15.0047   20.7924 N   0  0  0  0  0  0  0  0  0  0  0  0
    8.5431  -13.6095   20.7130 C   0  0  0  0  0  0  0  0  0  0  0  0
    8.2126  -13.2950   19.2463 C   0  0  0  0  0  0  0  0  0  0  0  0
    6.7642  -13.8200   19.2513 C   0  0  0  0  0  0  0  0  0  0  0  0
    6.8929  -15.1064   20.0727 C   0  0  1  0  0  0  0  0  0  0  0  0
    6.8720  -16.2291   19.1166 C   0  0  0  0  0  0  0  0  0  0  0  0
    7.9466  -16.7190   18.7168 O   0  0  0  0  0  0  0  0  0  0  0  0
    5.6840  -16.7554   18.6495 O   0  0  0  0  0  0  0  0  0  0  0  0
  2  1  1  0
  2 12  2  0
  3  2  1  0
  4  3  2  0
  4  5  1  0
  5 11  2  0
  6  5  1  0
  7  9  1  0
  7  6  1  0
  7  8  1  1
  9 10  2  0
 11 12  1  0
 13 14  1  0
 13  9  1  0
 14 19  1  0
 15 16  1  0
 14 15  1  6
 16 17  1  0
 17 21  1  0
 17 18  2  0
 19 20  2  0
 22 19  1  0
 22 26  1  0
 23 24  1  0
 23 22  1  0
 25 24  1  0
 25 26  1  0
 26 27  1  6
 27 28  2  0
 27 29  1  0
M  END
$$$$
