YEP.pdb
     RDKit          3D

 29 30  0  0  1  0  0  0  0  0999 V2000
   10.7135  -16.1059   31.8291 O   0  0  0  0  0  0  0  0  0  0  0  0
   10.5158  -15.8015   30.4758 C   0  0  0  0  0  0  0  0  0  0  0  0
   10.8899  -14.6022   29.9298 C   0  0  0  0  0  0  0  0  0  0  0  0
   10.6742  -14.3453   28.5855 C   0  0  0  0  0  0  0  0  0  0  0  0
   10.0790  -15.2803   27.7508 C   0  0  0  0  0  0  0  0  0  0  0  0
    9.8417  -15.0170   26.3053 C   0  0  0  0  0  0  0  0  0  0  0  0
   10.6316  -16.0449   25.5343 C   0  0  2  0  0  0  0  0  0  0  0  0
   11.9294  -16.1525   26.1436 N   0  0  0  0  0  0  0  0  0  0  0  0
   10.8004  -15.6448   24.1023 C   0  0  0  0  0  0  0  0  0  0  0  0
   11.5224  -14.6591   23.8035 O   0  0  0  0  0  0  0  0  0  0  0  0
    9.7155  -16.4812   28.3437 C   0  0  0  0  0  0  0  0  0  0  0  0
    9.9273  -16.7416   29.6783 C   0  0  0  0  0  0  0  0  0  0  0  0
   10.1309  -16.4005   23.1110 N   0  0  0  0  0  0  0  0  0  0  0  0
   10.1575  -16.0520   21.7017 C   0  0  1  0  0  0  0  0  0  0  0  0
   11.1208  -17.0249   21.0513 C   0  0  0  0  0  0  0  0  0  0  0  0
   11.1659  -16.6494   19.5730 C   0  0  0  0  0  0  0  0  0  0  0  0
   12.0719  -17.5655   18.8267 C   0  0  0  0  0  0  0  0  0  0  0  0
   12.1471  -17.5277   17.5744 O   0  0  0  0  0  0  0  0  0  0  0  0
    8.8077  -16.0657   21.1112 C   0  0  0  0  0  0  0  0  0  0  0  0
    8.1389  -17.1571   21.1045 O   0  0  0  0  0  0  0  0  0  0  0  0
   12.8563  -18.4851   19.5035 O   0  0  0  0  0  0  0  0  0  0  0  0
    8.1651  -14.9362   20.5325 N   0  0  0  0  0  0  0  0  0  0  0  0
    8.5606  -13.5447   20.5879 C   0  0  0  0  0  0  0  0  0  0  0  0
    8.2600  -13.0929   19.1509 C   0  0  0  0  0  0  0  0  0  0  0  0
    6.8057  -13.5970   19.0835 C   0  0  0  0  0  0  0  0  0  0  0  0
    6.9048  -14.9548   19.7854 C   0  0  1  0  0  0  0  0  0  0  0  0
    6.8880  -15.9849   18.7300 C   0  0  0  0  0  0  0  0  0  0  0  0
    7.9568  -16.5163   18.3696 O   0  0  0  0  0  0  0  0  0  0  0  0
    5.7102  -16.3786   18.1266 O   0  0  0  0  0  0  0  0  0  0  0  0
  2  1  1  0
  2 12  2  0
  3  2  1  0
  4  3  2  0
  4  5  1  0
  5 11  2  0
  6  5  1  0
  7  9  1  0
  7  6  1  0
  7  8  1  1
  9 10  2  0
 11 12  1  0
 13 14  1  0
 13  9  1  0
 14 19  1  0
 15 16  1  0
 14 15  1  6
 16 17  1  0
 17 21  1  0
 17 18  2  0
 19 20  2  0
 22 19  1  0
 22 26  1  0
 23 24  1  0
 23 22  1  0
 25 24  1  0
 25 26  1  0
 26 27  1  6
 27 28  2  0
 27 29  1  0
M  END
$$$$
