YEP.pdb
     RDKit          3D

 29 30  0  0  1  0  0  0  0  0999 V2000
    9.1130  -12.9575   16.4692 O   0  0  0  0  0  0  0  0  0  0  0  0
    8.5496  -13.2605   17.7158 C   0  0  0  0  0  0  0  0  0  0  0  0
    7.2028  -13.4408   17.8894 C   0  0  0  0  0  0  0  0  0  0  0  0
    6.6905  -13.7394   19.1417 C   0  0  0  0  0  0  0  0  0  0  0  0
    7.5104  -13.8656   20.2539 C   0  0  0  0  0  0  0  0  0  0  0  0
    6.9729  -14.1860   21.6042 C   0  0  0  0  0  0  0  0  0  0  0  0
    7.1678  -15.6665   21.8167 C   0  0  2  0  0  0  0  0  0  0  0  0
    6.2200  -16.3600   20.9872 N   0  0  0  0  0  0  0  0  0  0  0  0
    6.9344  -16.0503   23.2441 C   0  0  0  0  0  0  0  0  0  0  0  0
    5.7756  -16.3406   23.6380 O   0  0  0  0  0  0  0  0  0  0  0  0
    8.8674  -13.6752   20.0342 C   0  0  0  0  0  0  0  0  0  0  0  0
    9.3817  -13.3786   18.7927 C   0  0  0  0  0  0  0  0  0  0  0  0
    8.0435  -16.0754   24.1222 N   0  0  0  0  0  0  0  0  0  0  0  0
    7.9403  -16.4839   25.5117 C   0  0  1  0  0  0  0  0  0  0  0  0
    7.6882  -17.9783   25.4878 C   0  0  0  0  0  0  0  0  0  0  0  0
    7.6223  -18.4185   26.9473 C   0  0  0  0  0  0  0  0  0  0  0  0
    7.3730  -19.8833   27.0425 C   0  0  0  0  0  0  0  0  0  0  0  0
    6.2070  -20.3473   27.0198 O   0  0  0  0  0  0  0  0  0  0  0  0
    9.1321  -16.0931   26.2847 C   0  0  0  0  0  0  0  0  0  0  0  0
   10.2382  -16.7041   26.0805 O   0  0  0  0  0  0  0  0  0  0  0  0
    8.4301  -20.7712   27.1588 O   0  0  0  0  0  0  0  0  0  0  0  0
    9.1594  -15.0636   27.2662 N   0  0  0  0  0  0  0  0  0  0  0  0
    8.1250  -14.1087   27.6032 C   0  0  0  0  0  0  0  0  0  0  0  0
    8.2339  -14.0808   29.1351 C   0  0  0  0  0  0  0  0  0  0  0  0
    9.7484  -13.8117   29.2224 C   0  0  0  0  0  0  0  0  0  0  0  0
   10.2993  -14.7231   28.1216 C   0  0  1  0  0  0  0  0  0  0  0  0
   10.8763  -15.9035   28.7914 C   0  0  0  0  0  0  0  0  0  0  0  0
   11.9684  -15.8037   29.3849 O   0  0  0  0  0  0  0  0  0  0  0  0
   10.2333  -17.1253   28.7781 O   0  0  0  0  0  0  0  0  0  0  0  0
  2  1  1  0
  2 12  2  0
  3  2  1  0
  4  3  2  0
  4  5  1  0
  5 11  2  0
  6  5  1  0
  7  9  1  0
  7  6  1  0
  7  8  1  6
  9 10  2  0
 11 12  1  0
 13 14  1  0
 13  9  1  0
 14 19  1  0
 15 16  1  0
 14 15  1  6
 16 17  1  0
 17 21  1  0
 17 18  2  0
 19 20  2  0
 22 19  1  0
 22 26  1  0
 23 24  1  0
 23 22  1  0
 25 24  1  0
 25 26  1  0
 26 27  1  1
 27 28  2  0
 27 29  1  0
M  END
$$$$
