YEP.pdb
     RDKit          3D

 29 30  0  0  1  0  0  0  0  0999 V2000
    6.0780  -10.9491   28.3609 O   0  0  0  0  0  0  0  0  0  0  0  0
    6.2496  -11.9858   27.4342 C   0  0  0  0  0  0  0  0  0  0  0  0
    7.0883  -11.8771   26.3566 C   0  0  0  0  0  0  0  0  0  0  0  0
    7.2263  -12.9293   25.4658 C   0  0  0  0  0  0  0  0  0  0  0  0
    6.5297  -14.1183   25.6280 C   0  0  0  0  0  0  0  0  0  0  0  0
    6.6689  -15.2559   24.6786 C   0  0  0  0  0  0  0  0  0  0  0  0
    7.9734  -15.9414   24.9999 C   0  0  2  0  0  0  0  0  0  0  0  0
    8.3513  -15.5677   26.3358 N   0  0  0  0  0  0  0  0  0  0  0  0
    9.0574  -15.5260   24.0556 C   0  0  0  0  0  0  0  0  0  0  0  0
    9.7181  -14.4784   24.2751 O   0  0  0  0  0  0  0  0  0  0  0  0
    5.6914  -14.1866   26.7320 C   0  0  0  0  0  0  0  0  0  0  0  0
    5.5506  -13.1447   27.6199 C   0  0  0  0  0  0  0  0  0  0  0  0
    9.3104  -16.3384   22.9251 N   0  0  0  0  0  0  0  0  0  0  0  0
    9.9263  -15.8317   21.7117 C   0  0  1  0  0  0  0  0  0  0  0  0
   11.1112  -16.7365   21.4383 C   0  0  0  0  0  0  0  0  0  0  0  0
   12.1406  -16.4222   22.5201 C   0  0  0  0  0  0  0  0  0  0  0  0
   13.3696  -17.2404   22.3280 C   0  0  0  0  0  0  0  0  0  0  0  0
   13.3213  -18.4946   22.3203 O   0  0  0  0  0  0  0  0  0  0  0  0
    8.9622  -15.7604   20.5999 C   0  0  0  0  0  0  0  0  0  0  0  0
    8.4208  -16.8382   20.1712 O   0  0  0  0  0  0  0  0  0  0  0  0
   14.6010  -16.6304   22.1524 O   0  0  0  0  0  0  0  0  0  0  0  0
    8.5692  -14.5607   19.9441 N   0  0  0  0  0  0  0  0  0  0  0  0
    8.7416  -13.1923   20.3839 C   0  0  0  0  0  0  0  0  0  0  0  0
    9.1326  -12.5042   19.0674 C   0  0  0  0  0  0  0  0  0  0  0  0
    7.9555  -13.0180   18.2166 C   0  0  0  0  0  0  0  0  0  0  0  0
    7.8407  -14.4747   18.6758 C   0  0  1  0  0  0  0  0  0  0  0  0
    8.4456  -15.3062   17.6185 C   0  0  0  0  0  0  0  0  0  0  0  0
    7.7818  -15.5913   16.6023 O   0  0  0  0  0  0  0  0  0  0  0  0
    9.7379  -15.7804   17.7261 O   0  0  0  0  0  0  0  0  0  0  0  0
  2  1  1  0
  2 12  2  0
  3  2  1  0
  4  3  2  0
  4  5  1  0
  5 11  2  0
  6  5  1  0
  7  9  1  0
  7  6  1  0
  7  8  1  1
  9 10  2  0
 11 12  1  0
 13 14  1  0
 13  9  1  0
 14 19  1  0
 15 16  1  0
 14 15  1  6
 16 17  1  0
 17 21  1  0
 17 18  2  0
 19 20  2  0
 22 19  1  0
 22 26  1  0
 23 24  1  0
 23 22  1  0
 25 24  1  0
 25 26  1  0
 26 27  1  6
 27 28  2  0
 27 29  1  0
M  END
$$$$
