YEP.pdb
     RDKit          3D

 29 30  0  0  1  0  0  0  0  0999 V2000
   10.5019  -17.2459   31.9084 O   0  0  0  0  0  0  0  0  0  0  0  0
   10.6425  -16.5697   30.6893 C   0  0  0  0  0  0  0  0  0  0  0  0
   10.2112  -15.2822   30.5088 C   0  0  0  0  0  0  0  0  0  0  0  0
   10.3715  -14.6535   29.2846 C   0  0  0  0  0  0  0  0  0  0  0  0
   10.9672  -15.2947   28.2080 C   0  0  0  0  0  0  0  0  0  0  0  0
   11.1455  -14.6308   26.8880 C   0  0  0  0  0  0  0  0  0  0  0  0
   10.1045  -15.2064   25.9606 C   0  0  2  0  0  0  0  0  0  0  0  0
   10.3345  -16.6223   25.8632 N   0  0  0  0  0  0  0  0  0  0  0  0
   10.1968  -14.6054   24.5933 C   0  0  0  0  0  0  0  0  0  0  0  0
   10.2765  -13.3576   24.4566 O   0  0  0  0  0  0  0  0  0  0  0  0
   11.3897  -16.5973   28.4334 C   0  0  0  0  0  0  0  0  0  0  0  0
   11.2330  -17.2266   29.6471 C   0  0  0  0  0  0  0  0  0  0  0  0
   10.1916  -15.4743   23.4766 N   0  0  0  0  0  0  0  0  0  0  0  0
   10.1397  -14.9972   22.1062 C   0  0  1  0  0  0  0  0  0  0  0  0
   11.4347  -15.4477   21.4602 C   0  0  0  0  0  0  0  0  0  0  0  0
   11.5614  -16.9378   21.7634 C   0  0  0  0  0  0  0  0  0  0  0  0
   12.7128  -17.5270   21.0258 C   0  0  0  0  0  0  0  0  0  0  0  0
   12.6510  -18.6826   20.5398 O   0  0  0  0  0  0  0  0  0  0  0  0
    8.9305  -15.4700   21.4098 C   0  0  0  0  0  0  0  0  0  0  0  0
    8.6149  -16.7088   21.4756 O   0  0  0  0  0  0  0  0  0  0  0  0
   13.8846  -16.8072   20.8592 O   0  0  0  0  0  0  0  0  0  0  0  0
    8.0577  -14.6428   20.6497 N   0  0  0  0  0  0  0  0  0  0  0  0
    8.0166  -13.1976   20.5785 C   0  0  0  0  0  0  0  0  0  0  0  0
    7.7698  -12.9808   19.0780 C   0  0  0  0  0  0  0  0  0  0  0  0
    6.5472  -13.9082   18.9411 C   0  0  0  0  0  0  0  0  0  0  0  0
    6.9572  -15.1073   19.8013 C   0  0  1  0  0  0  0  0  0  0  0  0
    7.3702  -16.1780   18.8749 C   0  0  0  0  0  0  0  0  0  0  0  0
    6.5099  -16.9366   18.3859 O   0  0  0  0  0  0  0  0  0  0  0  0
    8.6950  -16.3630   18.5327 O   0  0  0  0  0  0  0  0  0  0  0  0
  2  1  1  0
  2 12  2  0
  3  2  1  0
  4  3  2  0
  4  5  1  0
  5 11  2  0
  6  5  1  0
  7  9  1  0
  7  6  1  0
  7  8  1  6
  9 10  2  0
 11 12  1  0
 13 14  1  0
 13  9  1  0
 14 19  1  0
 15 16  1  0
 14 15  1  6
 16 17  1  0
 17 21  1  0
 17 18  2  0
 19 20  2  0
 22 19  1  0
 22 26  1  0
 23 24  1  0
 23 22  1  0
 25 24  1  0
 25 26  1  0
 26 27  1  6
 27 28  2  0
 27 29  1  0
M  END
$$$$
