YEP.pdb
     RDKit          3D

 29 30  0  0  1  0  0  0  0  0999 V2000
    8.9230  -12.3699   15.8518 O   0  0  0  0  0  0  0  0  0  0  0  0
    8.4158  -12.9017   17.0447 C   0  0  0  0  0  0  0  0  0  0  0  0
    7.4484  -13.8713   17.0647 C   0  0  0  0  0  0  0  0  0  0  0  0
    6.9769  -14.3675   18.2693 C   0  0  0  0  0  0  0  0  0  0  0  0
    7.4596  -13.9079   19.4863 C   0  0  0  0  0  0  0  0  0  0  0  0
    6.9618  -14.4325   20.7871 C   0  0  0  0  0  0  0  0  0  0  0  0
    7.7833  -15.6547   21.1132 C   0  0  2  0  0  0  0  0  0  0  0  0
    7.3253  -16.7307   20.2768 N   0  0  0  0  0  0  0  0  0  0  0  0
    7.6252  -16.0543   22.5466 C   0  0  0  0  0  0  0  0  0  0  0  0
    6.5357  -16.5356   22.9510 O   0  0  0  0  0  0  0  0  0  0  0  0
    8.4383  -12.9261   19.4211 C   0  0  0  0  0  0  0  0  0  0  0  0
    8.9102  -12.4297   18.2276 C   0  0  0  0  0  0  0  0  0  0  0  0
    8.7252  -15.8754   23.4184 N   0  0  0  0  0  0  0  0  0  0  0  0
    8.6499  -16.1304   24.8458 C   0  0  1  0  0  0  0  0  0  0  0  0
    9.3982  -17.4283   25.0760 C   0  0  0  0  0  0  0  0  0  0  0  0
    9.2417  -18.2388   23.7926 C   0  0  0  0  0  0  0  0  0  0  0  0
   10.5693  -18.6917   23.2933 C   0  0  0  0  0  0  0  0  0  0  0  0
   11.5846  -18.6666   24.0308 O   0  0  0  0  0  0  0  0  0  0  0  0
    9.1689  -14.9964   25.6303 C   0  0  0  0  0  0  0  0  0  0  0  0
   10.4280  -14.9070   25.8428 O   0  0  0  0  0  0  0  0  0  0  0  0
   10.7130  -19.1535   21.9951 O   0  0  0  0  0  0  0  0  0  0  0  0
    8.3667  -13.9616   26.1865 N   0  0  0  0  0  0  0  0  0  0  0  0
    7.0802  -13.4744   25.7359 C   0  0  0  0  0  0  0  0  0  0  0  0
    6.3532  -13.2736   27.0740 C   0  0  0  0  0  0  0  0  0  0  0  0
    7.4328  -12.4154   27.7607 C   0  0  0  0  0  0  0  0  0  0  0  0
    8.7228  -13.1217   27.3331 C   0  0  1  0  0  0  0  0  0  0  0  0
    9.1832  -13.9109   28.4909 C   0  0  0  0  0  0  0  0  0  0  0  0
    9.7567  -13.3387   29.4387 O   0  0  0  0  0  0  0  0  0  0  0  0
    8.9939  -15.2772   28.5524 O   0  0  0  0  0  0  0  0  0  0  0  0
  2  1  1  0
  2 12  2  0
  3  2  1  0
  4  3  2  0
  4  5  1  0
  5 11  2  0
  6  5  1  0
  7  9  1  0
  7  6  1  0
  7  8  1  6
  9 10  2  0
 11 12  1  0
 13 14  1  0
 13  9  1  0
 14 19  1  0
 15 16  1  0
 14 15  1  6
 16 17  1  0
 17 21  1  0
 17 18  2  0
 19 20  2  0
 22 19  1  0
 22 26  1  0
 23 24  1  0
 23 22  1  0
 25 24  1  0
 25 26  1  0
 26 27  1  1
 27 28  2  0
 27 29  1  0
M  END
$$$$
