YEP.pdb
     RDKit          3D

 29 30  0  0  1  0  0  0  0  0999 V2000
    9.3251  -12.8496   16.3885 O   0  0  0  0  0  0  0  0  0  0  0  0
    8.5757  -13.3292   17.4710 C   0  0  0  0  0  0  0  0  0  0  0  0
    7.4926  -14.1518   17.3082 C   0  0  0  0  0  0  0  0  0  0  0  0
    6.7813  -14.6015   18.4088 C   0  0  0  0  0  0  0  0  0  0  0  0
    7.1334  -14.2411   19.7016 C   0  0  0  0  0  0  0  0  0  0  0  0
    6.3778  -14.7171   20.8923 C   0  0  0  0  0  0  0  0  0  0  0  0
    6.9162  -16.0827   21.2392 C   0  0  2  0  0  0  0  0  0  0  0  0
    6.2441  -17.0460   20.4100 N   0  0  0  0  0  0  0  0  0  0  0  0
    6.6662  -16.4213   22.6752 C   0  0  0  0  0  0  0  0  0  0  0  0
    5.6524  -17.0922   22.9981 O   0  0  0  0  0  0  0  0  0  0  0  0
    8.2360  -13.4070   19.8218 C   0  0  0  0  0  0  0  0  0  0  0  0
    8.9461  -12.9574   18.7322 C   0  0  0  0  0  0  0  0  0  0  0  0
    7.5941  -15.9685   23.6427 N   0  0  0  0  0  0  0  0  0  0  0  0
    7.4707  -16.2733   25.0571 C   0  0  1  0  0  0  0  0  0  0  0  0
    7.3970  -17.7843   25.1515 C   0  0  0  0  0  0  0  0  0  0  0  0
    7.2684  -18.1084   26.6371 C   0  0  0  0  0  0  0  0  0  0  0  0
    7.6431  -19.5254   26.8989 C   0  0  0  0  0  0  0  0  0  0  0  0
    7.9786  -19.9079   28.0463 O   0  0  0  0  0  0  0  0  0  0  0  0
    8.5687  -15.6802   25.8403 C   0  0  0  0  0  0  0  0  0  0  0  0
    9.6723  -16.3188   25.9533 O   0  0  0  0  0  0  0  0  0  0  0  0
    7.6292  -20.4580   25.8746 O   0  0  0  0  0  0  0  0  0  0  0  0
    8.5055  -14.4212   26.4995 N   0  0  0  0  0  0  0  0  0  0  0  0
    7.5088  -13.3800   26.3653 C   0  0  0  0  0  0  0  0  0  0  0  0
    7.3470  -12.9336   27.8262 C   0  0  0  0  0  0  0  0  0  0  0  0
    8.8389  -12.6961   28.1285 C   0  0  0  0  0  0  0  0  0  0  0  0
    9.4999  -13.8919   27.4364 C   0  0  1  0  0  0  0  0  0  0  0  0
    9.8516  -14.8582   28.4936 C   0  0  0  0  0  0  0  0  0  0  0  0
    9.1320  -15.8595   28.6784 O   0  0  0  0  0  0  0  0  0  0  0  0
   10.9657  -14.6809   29.2898 O   0  0  0  0  0  0  0  0  0  0  0  0
  2  1  1  0
  2 12  2  0
  3  2  1  0
  4  3  2  0
  4  5  1  0
  5 11  2  0
  6  5  1  0
  7  9  1  0
  7  6  1  0
  7  8  1  6
  9 10  2  0
 11 12  1  0
 13 14  1  0
 13  9  1  0
 14 19  1  0
 15 16  1  0
 14 15  1  6
 16 17  1  0
 17 21  1  0
 17 18  2  0
 19 20  2  0
 22 19  1  0
 22 26  1  0
 23 24  1  0
 23 22  1  0
 25 24  1  0
 25 26  1  0
 26 27  1  1
 27 28  2  0
 27 29  1  0
M  END
$$$$
