YEP.pdb
     RDKit          3D

 29 30  0  0  1  0  0  0  0  0999 V2000
   10.1716  -16.8194   31.1955 O   0  0  0  0  0  0  0  0  0  0  0  0
   10.2884  -16.2511   29.9202 C   0  0  0  0  0  0  0  0  0  0  0  0
   10.8333  -15.0113   29.7149 C   0  0  0  0  0  0  0  0  0  0  0  0
   10.9282  -14.4896   28.4349 C   0  0  0  0  0  0  0  0  0  0  0  0
   10.4811  -15.1931   27.3257 C   0  0  0  0  0  0  0  0  0  0  0  0
   10.5773  -14.6442   25.9456 C   0  0  0  0  0  0  0  0  0  0  0  0
   11.2778  -15.6828   25.1057 C   0  0  2  0  0  0  0  0  0  0  0  0
   12.5390  -15.9780   25.7298 N   0  0  0  0  0  0  0  0  0  0  0  0
   11.5291  -15.1855   23.7169 C   0  0  0  0  0  0  0  0  0  0  0  0
   12.3217  -14.2282   23.5233 O   0  0  0  0  0  0  0  0  0  0  0  0
    9.9362  -16.4443   27.5778 C   0  0  0  0  0  0  0  0  0  0  0  0
    9.8395  -16.9673   28.8469 C   0  0  0  0  0  0  0  0  0  0  0  0
   10.8557  -15.8184   22.6454 N   0  0  0  0  0  0  0  0  0  0  0  0
   10.8628  -15.2957   21.2908 C   0  0  1  0  0  0  0  0  0  0  0  0
   11.9642  -16.0412   20.5637 C   0  0  0  0  0  0  0  0  0  0  0  0
   11.9339  -15.5388   19.1231 C   0  0  0  0  0  0  0  0  0  0  0  0
   13.3135  -15.4470   18.5707 C   0  0  0  0  0  0  0  0  0  0  0  0
   13.8548  -16.4291   18.0068 O   0  0  0  0  0  0  0  0  0  0  0  0
    9.5402  -15.4164   20.6530 C   0  0  0  0  0  0  0  0  0  0  0  0
    9.0060  -16.5736   20.5347 O   0  0  0  0  0  0  0  0  0  0  0  0
   14.0337  -14.2677   18.6681 O   0  0  0  0  0  0  0  0  0  0  0  0
    8.7835  -14.3245   20.1440 N   0  0  0  0  0  0  0  0  0  0  0  0
    9.0070  -12.9062   20.3286 C   0  0  0  0  0  0  0  0  0  0  0  0
    8.6962  -12.3710   18.9228 C   0  0  0  0  0  0  0  0  0  0  0  0
    7.3156  -13.0346   18.7576 C   0  0  0  0  0  0  0  0  0  0  0  0
    7.5569  -14.4266   19.3492 C   0  0  1  0  0  0  0  0  0  0  0  0
    7.6947  -15.3570   18.2132 C   0  0  0  0  0  0  0  0  0  0  0  0
    8.8308  -15.6618   17.7997 O   0  0  0  0  0  0  0  0  0  0  0  0
    6.5895  -15.9032   17.5914 O   0  0  0  0  0  0  0  0  0  0  0  0
  2  1  1  0
  2 12  2  0
  3  2  1  0
  4  3  2  0
  4  5  1  0
  5 11  2  0
  6  5  1  0
  7  9  1  0
  7  6  1  0
  7  8  1  1
  9 10  2  0
 11 12  1  0
 13 14  1  0
 13  9  1  0
 14 19  1  0
 15 16  1  0
 14 15  1  6
 16 17  1  0
 17 21  1  0
 17 18  2  0
 19 20  2  0
 22 19  1  0
 22 26  1  0
 23 24  1  0
 23 22  1  0
 25 24  1  0
 25 26  1  0
 26 27  1  6
 27 28  2  0
 27 29  1  0
M  END
$$$$
