YEP.pdb
     RDKit          3D

 29 30  0  0  1  0  0  0  0  0999 V2000
    8.9772  -12.9603   16.4451 O   0  0  0  0  0  0  0  0  0  0  0  0
    8.3697  -13.3405   17.6491 C   0  0  0  0  0  0  0  0  0  0  0  0
    7.2113  -14.0703   17.6895 C   0  0  0  0  0  0  0  0  0  0  0  0
    6.6464  -14.4235   18.9044 C   0  0  0  0  0  0  0  0  0  0  0  0
    7.2243  -14.0568   20.1114 C   0  0  0  0  0  0  0  0  0  0  0  0
    6.6280  -14.4298   21.4230 C   0  0  0  0  0  0  0  0  0  0  0  0
    7.1265  -15.8137   21.7566 C   0  0  2  0  0  0  0  0  0  0  0  0
    6.3321  -16.7587   21.0197 N   0  0  0  0  0  0  0  0  0  0  0  0
    6.9948  -16.1056   23.2183 C   0  0  0  0  0  0  0  0  0  0  0  0
    5.8748  -16.0092   23.7826 O   0  0  0  0  0  0  0  0  0  0  0  0
    8.3963  -13.3186   20.0254 C   0  0  0  0  0  0  0  0  0  0  0  0
    8.9616  -12.9650   18.8216 C   0  0  0  0  0  0  0  0  0  0  0  0
    8.1543  -16.4878   23.9334 N   0  0  0  0  0  0  0  0  0  0  0  0
    8.1592  -16.7072   25.3688 C   0  0  1  0  0  0  0  0  0  0  0  0
    8.1434  -18.2109   25.5592 C   0  0  0  0  0  0  0  0  0  0  0  0
    6.7553  -18.6761   25.1288 C   0  0  0  0  0  0  0  0  0  0  0  0
    6.6189  -20.1486   25.3016 C   0  0  0  0  0  0  0  0  0  0  0  0
    5.5992  -20.7590   24.8978 O   0  0  0  0  0  0  0  0  0  0  0  0
    9.2985  -16.0363   26.0188 C   0  0  0  0  0  0  0  0  0  0  0  0
   10.4726  -16.5292   25.8875 O   0  0  0  0  0  0  0  0  0  0  0  0
    7.6214  -20.8811   25.9160 O   0  0  0  0  0  0  0  0  0  0  0  0
    9.2024  -14.8523   26.8015 N   0  0  0  0  0  0  0  0  0  0  0  0
    8.2001  -13.8095   26.7433 C   0  0  0  0  0  0  0  0  0  0  0  0
    7.9884  -13.5170   28.2363 C   0  0  0  0  0  0  0  0  0  0  0  0
    9.4677  -13.3020   28.6091 C   0  0  0  0  0  0  0  0  0  0  0  0
   10.1619  -14.4158   27.8192 C   0  0  1  0  0  0  0  0  0  0  0  0
   10.4900  -15.4835   28.7823 C   0  0  0  0  0  0  0  0  0  0  0  0
    9.7546  -16.4870   28.8651 O   0  0  0  0  0  0  0  0  0  0  0  0
   11.5990  -15.3995   29.6005 O   0  0  0  0  0  0  0  0  0  0  0  0
  2  1  1  0
  2 12  2  0
  3  2  1  0
  4  3  2  0
  4  5  1  0
  5 11  2  0
  6  5  1  0
  7  9  1  0
  7  6  1  0
  7  8  1  6
  9 10  2  0
 11 12  1  0
 13 14  1  0
 13  9  1  0
 14 19  1  0
 15 16  1  0
 14 15  1  6
 16 17  1  0
 17 21  1  0
 17 18  2  0
 19 20  2  0
 22 19  1  0
 22 26  1  0
 23 24  1  0
 23 22  1  0
 25 24  1  0
 25 26  1  0
 26 27  1  1
 27 28  2  0
 27 29  1  0
M  END
$$$$
