YEP.pdb
     RDKit          3D

 29 30  0  0  1  0  0  0  0  0999 V2000
    6.5835  -10.8186   27.1761 O   0  0  0  0  0  0  0  0  0  0  0  0
    6.5772  -12.1554   26.7567 C   0  0  0  0  0  0  0  0  0  0  0  0
    6.3325  -12.5174   25.4584 C   0  0  0  0  0  0  0  0  0  0  0  0
    6.3366  -13.8529   25.0896 C   0  0  0  0  0  0  0  0  0  0  0  0
    6.5853  -14.8624   26.0083 C   0  0  0  0  0  0  0  0  0  0  0  0
    6.5926  -16.3006   25.6252 C   0  0  0  0  0  0  0  0  0  0  0  0
    8.0203  -16.7765   25.7256 C   0  0  2  0  0  0  0  0  0  0  0  0
    8.4507  -16.5979   27.0857 N   0  0  0  0  0  0  0  0  0  0  0  0
    8.9232  -15.9935   24.8250 C   0  0  0  0  0  0  0  0  0  0  0  0
    9.9151  -15.3839   25.3011 O   0  0  0  0  0  0  0  0  0  0  0  0
    6.8282  -14.4526   27.3118 C   0  0  0  0  0  0  0  0  0  0  0  0
    6.8254  -13.1277   27.6837 C   0  0  0  0  0  0  0  0  0  0  0  0
    8.6284  -15.9623   23.4415 N   0  0  0  0  0  0  0  0  0  0  0  0
    9.5180  -15.3699   22.4587 C   0  0  1  0  0  0  0  0  0  0  0  0
   10.8452  -16.0852   22.6151 C   0  0  0  0  0  0  0  0  0  0  0  0
   11.7551  -15.5297   21.5233 C   0  0  0  0  0  0  0  0  0  0  0  0
   13.0654  -16.2367   21.5229 C   0  0  0  0  0  0  0  0  0  0  0  0
   13.6214  -16.5764   22.5957 O   0  0  0  0  0  0  0  0  0  0  0  0
    8.9565  -15.4468   21.0987 C   0  0  0  0  0  0  0  0  0  0  0  0
    8.8408  -16.5894   20.5334 O   0  0  0  0  0  0  0  0  0  0  0  0
   13.7030  -16.5366   20.3301 O   0  0  0  0  0  0  0  0  0  0  0  0
    8.5177  -14.3270   20.3389 N   0  0  0  0  0  0  0  0  0  0  0  0
    8.4989  -12.9298   20.7170 C   0  0  0  0  0  0  0  0  0  0  0  0
    8.9610  -12.2627   19.4128 C   0  0  0  0  0  0  0  0  0  0  0  0
    7.9447  -12.9382   18.4724 C   0  0  0  0  0  0  0  0  0  0  0  0
    7.9296  -14.3769   18.9978 C   0  0  1  0  0  0  0  0  0  0  0  0
    8.7303  -15.1844   18.0587 C   0  0  0  0  0  0  0  0  0  0  0  0
    9.9296  -15.4146   18.3102 O   0  0  0  0  0  0  0  0  0  0  0  0
    8.1815  -15.6958   16.8995 O   0  0  0  0  0  0  0  0  0  0  0  0
  2  1  1  0
  2 12  2  0
  3  2  1  0
  4  3  2  0
  4  5  1  0
  5 11  2  0
  6  5  1  0
  7  9  1  0
  7  6  1  0
  7  8  1  1
  9 10  2  0
 11 12  1  0
 13 14  1  0
 13  9  1  0
 14 19  1  0
 15 16  1  0
 14 15  1  6
 16 17  1  0
 17 21  1  0
 17 18  2  0
 19 20  2  0
 22 19  1  0
 22 26  1  0
 23 24  1  0
 23 22  1  0
 25 24  1  0
 25 26  1  0
 26 27  1  6
 27 28  2  0
 27 29  1  0
M  END
$$$$
