DYS.pdb
     RDKit          3D

 27 27  0  0  1  0  0  0  0  0999 V2000
   43.6287   -7.9023   -7.0274 N   0  0  0  0  0  0  0  0  0  0  0  0
   43.1432   -9.2863   -7.1563 C   0  0  1  0  0  0  0  0  0  0  0  0
   42.8616   -9.7567   -5.7723 C   0  0  0  0  0  0  0  0  0  0  0  0
   44.0122   -9.9497   -4.8940 C   0  0  0  0  0  0  0  0  0  0  0  0
   44.4154  -11.0474   -4.4457 O   0  0  0  0  0  0  0  0  0  0  0  0
   41.9869   -9.3205   -8.0790 C   0  0  0  0  0  0  0  0  0  0  0  0
   41.3154  -10.3498   -8.2385 O   0  0  0  0  0  0  0  0  0  0  0  0
   44.7782   -8.8368   -4.4788 O   0  0  0  0  0  0  0  0  0  0  0  0
   36.6825   -5.2864   -5.3843 O   0  0  0  0  0  0  0  0  0  0  0  0
   37.4748   -5.6536   -6.4616 C   0  0  0  0  0  0  0  0  0  0  0  0
   38.7414   -5.1310   -6.5972 C   0  0  0  0  0  0  0  0  0  0  0  0
   39.5137   -5.4979   -7.6600 C   0  0  0  0  0  0  0  0  0  0  0  0
   39.1204   -6.3811   -8.6486 C   0  0  0  0  0  0  0  0  0  0  0  0
   39.9725   -6.7617   -9.7872 C   0  0  0  0  0  0  0  0  0  0  0  0
   40.5183   -8.1305   -9.7757 C   0  0  2  0  0  0  0  0  0  0  0  0
   41.6384   -8.1553   -8.7953 N   0  0  0  0  0  0  0  0  0  0  0  0
   41.0034   -8.7358  -10.9870 C   0  0  0  0  0  0  0  0  0  0  0  0
   41.9965   -8.1853  -11.5909 O   0  0  0  0  0  0  0  0  0  0  0  0
   37.8295   -6.9040   -8.4965 C   0  0  0  0  0  0  0  0  0  0  0  0
   37.0437   -6.5375   -7.4248 C   0  0  0  0  0  0  0  0  0  0  0  0
   40.1781  -12.5305  -12.4247 O   0  0  0  0  0  0  0  0  0  0  0  0
   41.3142  -11.8627  -12.8770 C   0  0  0  0  0  0  0  0  0  0  0  0
   41.0403  -10.3621  -12.9039 C   0  0  2  0  0  0  0  0  0  0  0  0
   40.5120   -9.9148  -11.6290 N   0  0  0  0  0  0  0  0  0  0  0  0
   40.0497  -10.0827  -13.9602 C   0  0  0  0  0  0  0  0  0  0  0  0
   40.3214  -10.3470  -15.3102 O   0  0  0  0  0  0  0  0  0  0  0  0
   38.9447   -9.6026  -13.6661 O   0  0  0  0  0  0  0  0  0  0  0  0
  2  1  1  1
  2  6  1  0
  3  2  1  0
  4  8  1  0
  4  3  1  0
  5  4  2  0
  6 16  1  0
  6  7  2  0
  9 10  1  0
 10 11  2  0
 11 12  1  0
 13 12  2  0
 13 14  1  0
 15 14  1  6
 15 17  1  0
 16 15  1  0
 17 18  2  0
 19 13  1  0
 20 10  1  0
 20 19  2  0
 21 22  1  0
 23 22  1  1
 23 25  1  0
 24 17  1  0
 24 23  1  0
 25 26  1  0
 27 25  2  0
M  END
$$$$
