DYS.pdb
     RDKit          3D

 27 27  0  0  1  0  0  0  0  0999 V2000
   25.7210  -37.4681   -9.3770 N   0  0  0  0  0  0  0  0  0  0  0  0
   25.9592  -37.5077   -7.9246 C   0  0  1  0  0  0  0  0  0  0  0  0
   26.2942  -38.9211   -7.5985 C   0  0  0  0  0  0  0  0  0  0  0  0
   25.8706  -39.4149   -6.2912 C   0  0  0  0  0  0  0  0  0  0  0  0
   25.2218  -38.7665   -5.4384 O   0  0  0  0  0  0  0  0  0  0  0  0
   26.9984  -36.5171   -7.5669 C   0  0  0  0  0  0  0  0  0  0  0  0
   27.9619  -36.2907   -8.3126 O   0  0  0  0  0  0  0  0  0  0  0  0
   26.1914  -40.7336   -5.8965 O   0  0  0  0  0  0  0  0  0  0  0  0
   24.6073  -31.3990  -10.4842 O   0  0  0  0  0  0  0  0  0  0  0  0
   25.2206  -31.9102   -9.3504 C   0  0  0  0  0  0  0  0  0  0  0  0
   24.4891  -32.1142   -8.2020 C   0  0  0  0  0  0  0  0  0  0  0  0
   25.1006  -32.6174   -7.0914 C   0  0  0  0  0  0  0  0  0  0  0  0
   26.4401  -32.9525   -7.0166 C   0  0  0  0  0  0  0  0  0  0  0  0
   27.0780  -33.4943   -5.8054 C   0  0  0  0  0  0  0  0  0  0  0  0
   27.8506  -34.7389   -5.9657 C   0  0  2  0  0  0  0  0  0  0  0  0
   26.8923  -35.8119   -6.3488 N   0  0  0  0  0  0  0  0  0  0  0  0
   28.6477  -35.2508   -4.8833 C   0  0  0  0  0  0  0  0  0  0  0  0
   28.0495  -35.8350   -3.9061 O   0  0  0  0  0  0  0  0  0  0  0  0
   27.1708  -32.7392   -8.1929 C   0  0  0  0  0  0  0  0  0  0  0  0
   26.5589  -32.2309   -9.3188 C   0  0  0  0  0  0  0  0  0  0  0  0
   32.6958  -36.4891   -4.7508 O   0  0  0  0  0  0  0  0  0  0  0  0
   32.2582  -35.6352   -3.7405 C   0  0  0  0  0  0  0  0  0  0  0  0
   30.7448  -35.7607   -3.5938 C   0  0  2  0  0  0  0  0  0  0  0  0
   30.0698  -35.1979   -4.7481 N   0  0  0  0  0  0  0  0  0  0  0  0
   30.3259  -35.0262   -2.3856 C   0  0  0  0  0  0  0  0  0  0  0  0
   30.7981  -35.3763   -1.1127 O   0  0  0  0  0  0  0  0  0  0  0  0
   29.5375  -34.0733   -2.4785 O   0  0  0  0  0  0  0  0  0  0  0  0
  2  1  1  6
  2  6  1  0
  3  2  1  0
  4  8  1  0
  4  3  1  0
  5  4  2  0
  6 16  1  0
  6  7  2  0
  9 10  1  0
 10 11  2  0
 11 12  1  0
 13 12  2  0
 13 14  1  0
 15 14  1  1
 15 17  1  0
 16 15  1  0
 17 18  2  0
 19 13  1  0
 20 10  1  0
 20 19  2  0
 21 22  1  0
 23 22  1  6
 23 25  1  0
 24 17  1  0
 24 23  1  0
 25 26  1  0
 27 25  2  0
M  END
$$$$
