DYS.pdb
     RDKit          3D

 27 27  0  0  1  0  0  0  0  0999 V2000
   18.5756   -9.7930  -14.0192 N   0  0  0  0  0  0  0  0  0  0  0  0
   18.8239   -8.7048  -13.0590 C   0  0  1  0  0  0  0  0  0  0  0  0
   19.6483   -7.6966  -13.7801 C   0  0  0  0  0  0  0  0  0  0  0  0
   20.9790   -8.1175  -14.2095 C   0  0  0  0  0  0  0  0  0  0  0  0
   21.4194   -8.0707  -15.3811 O   0  0  0  0  0  0  0  0  0  0  0  0
   17.5339   -8.2034  -12.5357 C   0  0  0  0  0  0  0  0  0  0  0  0
   16.5360   -8.0992  -13.2631 O   0  0  0  0  0  0  0  0  0  0  0  0
   21.8961   -8.6317  -13.2650 O   0  0  0  0  0  0  0  0  0  0  0  0
   11.5021   -6.5927   -6.1202 O   0  0  0  0  0  0  0  0  0  0  0  0
   12.6078   -6.9386   -6.8823 C   0  0  0  0  0  0  0  0  0  0  0  0
   12.5130   -7.9405   -7.8219 C   0  0  0  0  0  0  0  0  0  0  0  0
   13.6057   -8.2741   -8.5669 C   0  0  0  0  0  0  0  0  0  0  0  0
   14.8453   -7.6713   -8.4561 C   0  0  0  0  0  0  0  0  0  0  0  0
   16.0109   -8.0493   -9.2722 C   0  0  0  0  0  0  0  0  0  0  0  0
   16.1569   -7.3688  -10.5711 C   0  0  2  0  0  0  0  0  0  0  0  0
   17.4347   -7.8345  -11.1769 N   0  0  0  0  0  0  0  0  0  0  0  0
   16.1503   -5.9326  -10.6504 C   0  0  0  0  0  0  0  0  0  0  0  0
   17.2024   -5.2944  -10.2763 O   0  0  0  0  0  0  0  0  0  0  0  0
   14.9257   -6.6541   -7.4961 C   0  0  0  0  0  0  0  0  0  0  0  0
   13.8251   -6.3119   -6.7397 C   0  0  0  0  0  0  0  0  0  0  0  0
   13.2486   -3.7070  -12.4904 O   0  0  0  0  0  0  0  0  0  0  0  0
   14.4975   -3.0957  -12.4014 C   0  0  0  0  0  0  0  0  0  0  0  0
   15.2461   -3.6505  -11.1934 C   0  0  2  0  0  0  0  0  0  0  0  0
   15.0912   -5.0906  -11.1118 N   0  0  0  0  0  0  0  0  0  0  0  0
   14.6913   -3.0366   -9.9725 C   0  0  0  0  0  0  0  0  0  0  0  0
   14.8409   -1.6684   -9.7054 O   0  0  0  0  0  0  0  0  0  0  0  0
   14.0748   -3.7319   -9.1512 O   0  0  0  0  0  0  0  0  0  0  0  0
  2  1  1  6
  2  6  1  0
  3  2  1  0
  4  8  1  0
  4  3  1  0
  5  4  2  0
  6 16  1  0
  6  7  2  0
  9 10  1  0
 10 11  2  0
 11 12  1  0
 13 12  2  0
 13 14  1  0
 15 14  1  1
 15 17  1  0
 16 15  1  0
 17 18  2  0
 19 13  1  0
 20 10  1  0
 20 19  2  0
 21 22  1  0
 23 22  1  6
 23 25  1  0
 24 17  1  0
 24 23  1  0
 25 26  1  0
 27 25  2  0
M  END
$$$$
