DYS.pdb
     RDKit          3D

 27 27  0  0  1  0  0  0  0  0999 V2000
   16.2781   -9.7086  -12.8920 N   0  0  0  0  0  0  0  0  0  0  0  0
   17.0500   -8.6692  -12.1910 C   0  0  1  0  0  0  0  0  0  0  0  0
   17.8726   -7.9924  -13.2309 C   0  0  0  0  0  0  0  0  0  0  0  0
   18.8741   -8.8070  -13.9134 C   0  0  0  0  0  0  0  0  0  0  0  0
   19.7439   -9.5163  -13.3575 O   0  0  0  0  0  0  0  0  0  0  0  0
   16.1261   -7.7848  -11.4468 C   0  0  0  0  0  0  0  0  0  0  0  0
   15.1283   -7.2876  -11.9880 O   0  0  0  0  0  0  0  0  0  0  0  0
   18.9156   -8.8386  -15.3258 O   0  0  0  0  0  0  0  0  0  0  0  0
   10.2368  -10.2411   -8.5386 O   0  0  0  0  0  0  0  0  0  0  0  0
   11.4122   -9.5138   -8.4273 C   0  0  0  0  0  0  0  0  0  0  0  0
   12.6261  -10.1250   -8.6475 C   0  0  0  0  0  0  0  0  0  0  0  0
   13.7772   -9.4018   -8.5358 C   0  0  0  0  0  0  0  0  0  0  0  0
   13.8323   -8.0594   -8.2087 C   0  0  0  0  0  0  0  0  0  0  0  0
   15.0882   -7.2998   -8.0939 C   0  0  0  0  0  0  0  0  0  0  0  0
   15.5324   -6.5716   -9.2956 C   0  0  2  0  0  0  0  0  0  0  0  0
   16.3848   -7.4992  -10.0890 N   0  0  0  0  0  0  0  0  0  0  0  0
   16.2533   -5.3326   -9.1766 C   0  0  0  0  0  0  0  0  0  0  0  0
   17.5256   -5.3446   -9.3640 O   0  0  0  0  0  0  0  0  0  0  0  0
   12.5893   -7.4519   -7.9877 C   0  0  0  0  0  0  0  0  0  0  0  0
   11.4221   -8.1770   -8.0990 C   0  0  0  0  0  0  0  0  0  0  0  0
   17.1184   -1.5972  -11.2061 O   0  0  0  0  0  0  0  0  0  0  0  0
   16.5570   -2.8115  -10.8166 C   0  0  0  0  0  0  0  0  0  0  0  0
   16.3853   -2.8250   -9.3007 C   0  0  2  0  0  0  0  0  0  0  0  0
   15.7215   -4.0413   -8.8711 N   0  0  0  0  0  0  0  0  0  0  0  0
   15.5642   -1.6643   -8.9091 C   0  0  0  0  0  0  0  0  0  0  0  0
   16.1473   -0.4492   -8.5224 O   0  0  0  0  0  0  0  0  0  0  0  0
   14.3267   -1.7466   -8.9158 O   0  0  0  0  0  0  0  0  0  0  0  0
  2  1  1  6
  2  6  1  0
  3  2  1  0
  4  8  1  0
  4  3  1  0
  5  4  2  0
  6 16  1  0
  6  7  2  0
  9 10  1  0
 10 11  2  0
 11 12  1  0
 13 12  2  0
 13 14  1  0
 15 14  1  1
 15 17  1  0
 16 15  1  0
 17 18  2  0
 19 13  1  0
 20 10  1  0
 20 19  2  0
 21 22  1  0
 23 22  1  6
 23 25  1  0
 24 17  1  0
 24 23  1  0
 25 26  1  0
 27 25  2  0
M  END
$$$$
