DYS.pdb
     RDKit          3D

 27 27  0  0  1  0  0  0  0  0999 V2000
   26.2213  -20.8594  -14.7345 N   0  0  0  0  0  0  0  0  0  0  0  0
   25.0237  -21.6646  -15.0261 C   0  0  1  0  0  0  0  0  0  0  0  0
   25.5083  -23.0478  -15.2868 C   0  0  0  0  0  0  0  0  0  0  0  0
   26.3691  -23.2369  -16.4511 C   0  0  0  0  0  0  0  0  0  0  0  0
   26.7695  -22.3333  -17.2204 O   0  0  0  0  0  0  0  0  0  0  0  0
   24.0586  -21.5365  -13.9118 C   0  0  0  0  0  0  0  0  0  0  0  0
   24.4360  -21.4451  -12.7350 O   0  0  0  0  0  0  0  0  0  0  0  0
   26.8231  -24.5316  -16.7910 O   0  0  0  0  0  0  0  0  0  0  0  0
   20.0962  -17.0105  -17.7801 O   0  0  0  0  0  0  0  0  0  0  0  0
   20.4481  -17.6903  -16.6238 C   0  0  0  0  0  0  0  0  0  0  0  0
   19.4714  -18.1981  -15.7968 C   0  0  0  0  0  0  0  0  0  0  0  0
   19.8268  -18.8653  -14.6614 C   0  0  0  0  0  0  0  0  0  0  0  0
   21.1302  -19.0836  -14.2545 C   0  0  0  0  0  0  0  0  0  0  0  0
   21.4890  -19.8072  -13.0236 C   0  0  0  0  0  0  0  0  0  0  0  0
   21.6539  -21.2670  -13.1393 C   0  0  2  0  0  0  0  0  0  0  0  0
   22.6755  -21.5178  -14.1928 N   0  0  0  0  0  0  0  0  0  0  0  0
   20.5267  -22.1104  -13.4344 C   0  0  0  0  0  0  0  0  0  0  0  0
   20.2509  -22.3540  -14.6668 O   0  0  0  0  0  0  0  0  0  0  0  0
   22.1122  -18.5610  -15.1062 C   0  0  0  0  0  0  0  0  0  0  0  0
   21.7600  -17.8856  -16.2553 C   0  0  0  0  0  0  0  0  0  0  0  0
   18.2790  -24.1367  -10.6384 O   0  0  0  0  0  0  0  0  0  0  0  0
   18.3125  -24.7079  -11.9088 C   0  0  0  0  0  0  0  0  0  0  0  0
   18.5764  -23.6195  -12.9448 C   0  0  2  0  0  0  0  0  0  0  0  0
   19.6430  -22.7405  -12.5040 N   0  0  0  0  0  0  0  0  0  0  0  0
   17.3439  -22.8293  -13.1226 C   0  0  0  0  0  0  0  0  0  0  0  0
   16.1920  -23.3849  -13.6973 O   0  0  0  0  0  0  0  0  0  0  0  0
   17.3071  -21.6436  -12.7610 O   0  0  0  0  0  0  0  0  0  0  0  0
  2  1  1  1
  2  6  1  0
  3  2  1  0
  4  8  1  0
  4  3  1  0
  5  4  2  0
  6 16  1  0
  6  7  2  0
  9 10  1  0
 10 11  2  0
 11 12  1  0
 13 12  2  0
 13 14  1  0
 15 14  1  6
 15 17  1  0
 16 15  1  0
 17 18  2  0
 19 13  1  0
 20 10  1  0
 20 19  2  0
 21 22  1  0
 23 22  1  1
 23 25  1  0
 24 17  1  0
 24 23  1  0
 25 26  1  0
 27 25  2  0
M  END
$$$$
