DYS.pdb
     RDKit          3D

 27 27  0  0  1  0  0  0  0  0999 V2000
   20.0844  -13.1167  -16.7567 N   0  0  0  0  0  0  0  0  0  0  0  0
   19.3815  -11.8258  -16.6717 C   0  0  1  0  0  0  0  0  0  0  0  0
   18.6370  -11.8441  -15.3827 C   0  0  0  0  0  0  0  0  0  0  0  0
   17.5405  -12.8015  -15.2675 C   0  0  0  0  0  0  0  0  0  0  0  0
   17.2092  -13.6433  -16.1337 O   0  0  0  0  0  0  0  0  0  0  0  0
   20.3557  -10.7219  -16.8190 C   0  0  0  0  0  0  0  0  0  0  0  0
   21.4888  -10.7869  -16.3216 O   0  0  0  0  0  0  0  0  0  0  0  0
   16.7466  -12.8287  -14.0984 O   0  0  0  0  0  0  0  0  0  0  0  0
   23.1530   -2.8814  -20.2508 O   0  0  0  0  0  0  0  0  0  0  0  0
   22.5896   -4.1159  -19.9650 C   0  0  0  0  0  0  0  0  0  0  0  0
   21.2233   -4.2417  -19.8505 C   0  0  0  0  0  0  0  0  0  0  0  0
   20.6779   -5.4598  -19.5691 C   0  0  0  0  0  0  0  0  0  0  0  0
   21.4048   -6.6212  -19.3820 C   0  0  0  0  0  0  0  0  0  0  0  0
   20.7928   -7.9254  -19.0787 C   0  0  0  0  0  0  0  0  0  0  0  0
   20.8979   -8.3969  -17.6864 C   0  0  2  0  0  0  0  0  0  0  0  0
   19.9885   -9.5668  -17.5424 N   0  0  0  0  0  0  0  0  0  0  0  0
   20.6209   -7.5087  -16.5894 C   0  0  0  0  0  0  0  0  0  0  0  0
   19.3930   -7.2785  -16.2837 O   0  0  0  0  0  0  0  0  0  0  0  0
   22.7932   -6.4768  -19.5017 C   0  0  0  0  0  0  0  0  0  0  0  0
   23.3510   -5.2486  -19.7860 C   0  0  0  0  0  0  0  0  0  0  0  0
   21.8969   -4.6534  -12.8374 O   0  0  0  0  0  0  0  0  0  0  0  0
   22.3244   -5.5510  -13.8136 C   0  0  0  0  0  0  0  0  0  0  0  0
   21.1398   -5.9445  -14.6908 C   0  0  2  0  0  0  0  0  0  0  0  0
   21.5653   -6.8269  -15.7607 N   0  0  0  0  0  0  0  0  0  0  0  0
   20.5607   -4.7214  -15.2771 C   0  0  0  0  0  0  0  0  0  0  0  0
   19.3510   -4.1860  -14.8126 O   0  0  0  0  0  0  0  0  0  0  0  0
   21.1439   -4.1390  -16.2039 O   0  0  0  0  0  0  0  0  0  0  0  0
  2  1  1  1
  2  6  1  0
  3  2  1  0
  4  8  1  0
  4  3  1  0
  5  4  2  0
  6 16  1  0
  6  7  2  0
  9 10  1  0
 10 11  2  0
 11 12  1  0
 13 12  2  0
 13 14  1  0
 15 14  1  6
 15 17  1  0
 16 15  1  0
 17 18  2  0
 19 13  1  0
 20 10  1  0
 20 19  2  0
 21 22  1  0
 23 22  1  1
 23 25  1  0
 24 17  1  0
 24 23  1  0
 25 26  1  0
 27 25  2  0
M  END
$$$$
