DYS.pdb
     RDKit          3D

 27 27  0  0  1  0  0  0  0  0999 V2000
   29.7384  -37.6704   -7.5235 N   0  0  0  0  0  0  0  0  0  0  0  0
   29.1847  -37.5496   -6.1646 C   0  0  1  0  0  0  0  0  0  0  0  0
   28.5864  -38.8741   -5.8423 C   0  0  0  0  0  0  0  0  0  0  0  0
   27.4022  -39.2656   -6.6017 C   0  0  0  0  0  0  0  0  0  0  0  0
   27.0587  -40.4401   -6.8689 O   0  0  0  0  0  0  0  0  0  0  0  0
   30.2450  -37.0967   -5.2372 C   0  0  0  0  0  0  0  0  0  0  0  0
   31.4191  -37.4731   -5.3618 O   0  0  0  0  0  0  0  0  0  0  0  0
   26.5275  -38.2764   -7.1059 O   0  0  0  0  0  0  0  0  0  0  0  0
   33.9121  -32.5828   -8.1778 O   0  0  0  0  0  0  0  0  0  0  0  0
   33.2151  -32.9764   -7.0454 C   0  0  0  0  0  0  0  0  0  0  0  0
   31.8386  -32.9488   -7.0372 C   0  0  0  0  0  0  0  0  0  0  0  0
   31.1613  -33.3376   -5.9189 C   0  0  0  0  0  0  0  0  0  0  0  0
   31.7593  -33.7729   -4.7505 C   0  0  0  0  0  0  0  0  0  0  0  0
   31.0063  -34.1876   -3.5554 C   0  0  0  0  0  0  0  0  0  0  0  0
   30.9451  -35.6344   -3.2818 C   0  0  2  0  0  0  0  0  0  0  0  0
   29.9144  -36.2155   -4.1854 N   0  0  0  0  0  0  0  0  0  0  0  0
   30.6661  -36.1180   -1.9562 C   0  0  0  0  0  0  0  0  0  0  0  0
   29.4388  -36.2008   -1.5809 O   0  0  0  0  0  0  0  0  0  0  0  0
   33.1600  -33.7954   -4.7746 C   0  0  0  0  0  0  0  0  0  0  0  0
   33.8507  -33.4037   -5.9015 C   0  0  0  0  0  0  0  0  0  0  0  0
   31.9041  -38.1296    2.3115 O   0  0  0  0  0  0  0  0  0  0  0  0
   32.3648  -37.5584    1.1271 C   0  0  0  0  0  0  0  0  0  0  0  0
   31.1805  -37.0090    0.3378 C   0  0  2  0  0  0  0  0  0  0  0  0
   31.6078  -36.5388   -0.9664 N   0  0  0  0  0  0  0  0  0  0  0  0
   30.5962  -35.8818    1.0881 C   0  0  0  0  0  0  0  0  0  0  0  0
   30.5378  -34.5902    0.5458 O   0  0  0  0  0  0  0  0  0  0  0  0
   30.1406  -36.0621    2.2275 O   0  0  0  0  0  0  0  0  0  0  0  0
  2  1  1  6
  2  6  1  0
  3  2  1  0
  4  8  1  0
  4  3  1  0
  5  4  2  0
  6 16  1  0
  6  7  2  0
  9 10  1  0
 10 11  2  0
 11 12  1  0
 13 12  2  0
 13 14  1  0
 15 14  1  1
 15 17  1  0
 16 15  1  0
 17 18  2  0
 19 13  1  0
 20 10  1  0
 20 19  2  0
 21 22  1  0
 23 22  1  1
 23 25  1  0
 24 17  1  0
 24 23  1  0
 25 26  1  0
 27 25  2  0
M  END
$$$$
