DYS.pdb
     RDKit          3D

 27 27  0  0  1  0  0  0  0  0999 V2000
   23.1996  -10.0107  -19.9560 N   0  0  0  0  0  0  0  0  0  0  0  0
   22.2313  -10.4447  -18.9353 C   0  0  1  0  0  0  0  0  0  0  0  0
   22.3734  -11.9230  -18.8322 C   0  0  0  0  0  0  0  0  0  0  0  0
   21.8272  -12.7166  -19.9296 C   0  0  0  0  0  0  0  0  0  0  0  0
   21.2984  -12.2617  -20.9699 O   0  0  0  0  0  0  0  0  0  0  0  0
   22.4711   -9.7013  -17.6786 C   0  0  0  0  0  0  0  0  0  0  0  0
   21.8773   -9.9918  -16.6305 O   0  0  0  0  0  0  0  0  0  0  0  0
   21.8701  -14.1280  -19.8700 O   0  0  0  0  0  0  0  0  0  0  0  0
   28.5957  -12.1794  -16.5092 O   0  0  0  0  0  0  0  0  0  0  0  0
   27.7681  -11.0666  -16.5076 C   0  0  0  0  0  0  0  0  0  0  0  0
   27.0203  -10.7638  -15.3920 C   0  0  0  0  0  0  0  0  0  0  0  0
   26.2090   -9.6673  -15.3993 C   0  0  0  0  0  0  0  0  0  0  0  0
   26.0676   -8.8024  -16.4690 C   0  0  0  0  0  0  0  0  0  0  0  0
   25.1847   -7.6244  -16.4530 C   0  0  0  0  0  0  0  0  0  0  0  0
   23.7346   -7.8857  -16.4298 C   0  0  2  0  0  0  0  0  0  0  0  0
   23.3972   -8.6361  -17.6706 N   0  0  0  0  0  0  0  0  0  0  0  0
   22.7963   -6.8006  -16.3239 C   0  0  0  0  0  0  0  0  0  0  0  0
   22.6202   -6.0420  -17.3474 O   0  0  0  0  0  0  0  0  0  0  0  0
   26.8349   -9.1240  -17.5963 C   0  0  0  0  0  0  0  0  0  0  0  0
   27.6569  -10.2307  -17.5956 C   0  0  0  0  0  0  0  0  0  0  0  0
   19.1413   -6.6066  -15.1879 O   0  0  0  0  0  0  0  0  0  0  0  0
   19.8104   -5.5960  -14.5006 C   0  0  0  0  0  0  0  0  0  0  0  0
   21.1252   -5.2879  -15.2104 C   0  0  2  0  0  0  0  0  0  0  0  0
   22.0012   -6.4441  -15.1906 N   0  0  0  0  0  0  0  0  0  0  0  0
   21.7872   -4.1703  -14.5121 C   0  0  0  0  0  0  0  0  0  0  0  0
   23.0195   -4.3361  -13.8641 O   0  0  0  0  0  0  0  0  0  0  0  0
   21.2559   -3.0499  -14.4870 O   0  0  0  0  0  0  0  0  0  0  0  0
  2  1  1  6
  2  6  1  0
  3  2  1  0
  4  8  1  0
  4  3  1  0
  5  4  2  0
  6 16  1  0
  6  7  2  0
  9 10  1  0
 10 11  2  0
 11 12  1  0
 13 12  2  0
 13 14  1  0
 15 14  1  6
 15 17  1  0
 16 15  1  0
 17 18  2  0
 19 13  1  0
 20 10  1  0
 20 19  2  0
 21 22  1  0
 23 22  1  1
 23 25  1  0
 24 17  1  0
 24 23  1  0
 25 26  1  0
 27 25  2  0
M  END
$$$$
