DYS.pdb
     RDKit          3D

 27 27  0  0  1  0  0  0  0  0999 V2000
   19.4789  -11.2109  -16.6256 N   0  0  0  0  0  0  0  0  0  0  0  0
   18.6924  -10.0408  -16.2013 C   0  0  1  0  0  0  0  0  0  0  0  0
   17.2654  -10.3940  -16.4363 C   0  0  0  0  0  0  0  0  0  0  0  0
   16.8439  -10.5480  -17.8258 C   0  0  0  0  0  0  0  0  0  0  0  0
   15.7608  -11.0446  -18.2119 O   0  0  0  0  0  0  0  0  0  0  0  0
   19.0325   -9.6973  -14.8029 C   0  0  0  0  0  0  0  0  0  0  0  0
   19.1369  -10.5691  -13.9284 O   0  0  0  0  0  0  0  0  0  0  0  0
   17.6904  -10.1171  -18.8725 O   0  0  0  0  0  0  0  0  0  0  0  0
   25.4930   -9.9081  -15.0833 O   0  0  0  0  0  0  0  0  0  0  0  0
   24.3700   -9.2428  -14.6150 C   0  0  0  0  0  0  0  0  0  0  0  0
   23.8408   -8.1926  -15.3311 C   0  0  0  0  0  0  0  0  0  0  0  0
   22.7360   -7.5440  -14.8629 C   0  0  0  0  0  0  0  0  0  0  0  0
   22.0778   -7.8614  -13.6889 C   0  0  0  0  0  0  0  0  0  0  0  0
   20.8862   -7.1458  -13.2039 C   0  0  0  0  0  0  0  0  0  0  0  0
   19.6466   -7.9333  -13.0815 C   0  0  2  0  0  0  0  0  0  0  0  0
   19.2436   -8.3460  -14.4539 N   0  0  0  0  0  0  0  0  0  0  0  0
   18.4822   -7.3729  -12.4496 C   0  0  0  0  0  0  0  0  0  0  0  0
   17.8044   -6.4879  -13.0910 O   0  0  0  0  0  0  0  0  0  0  0  0
   22.6283   -8.9319  -12.9719 C   0  0  0  0  0  0  0  0  0  0  0  0
   23.7447   -9.5918  -13.4394 C   0  0  0  0  0  0  0  0  0  0  0  0
   15.3033   -6.8814   -8.7707 O   0  0  0  0  0  0  0  0  0  0  0  0
   16.3948   -7.5859   -9.2745 C   0  0  0  0  0  0  0  0  0  0  0  0
   16.8106   -6.9826  -10.6127 C   0  0  2  0  0  0  0  0  0  0  0  0
   17.9572   -7.6851  -11.1572 N   0  0  0  0  0  0  0  0  0  0  0  0
   17.1689   -5.5678  -10.4009 C   0  0  0  0  0  0  0  0  0  0  0  0
   16.1904   -4.5671  -10.3167 O   0  0  0  0  0  0  0  0  0  0  0  0
   18.3592   -5.2367  -10.2925 O   0  0  0  0  0  0  0  0  0  0  0  0
  2  1  1  1
  2  6  1  0
  3  2  1  0
  4  8  1  0
  4  3  1  0
  5  4  2  0
  6 16  1  0
  6  7  2  0
  9 10  1  0
 10 11  2  0
 11 12  1  0
 13 12  2  0
 13 14  1  0
 15 14  1  6
 15 17  1  0
 16 15  1  0
 17 18  2  0
 19 13  1  0
 20 10  1  0
 20 19  2  0
 21 22  1  0
 23 22  1  1
 23 25  1  0
 24 17  1  0
 24 23  1  0
 25 26  1  0
 27 25  2  0
M  END
$$$$
