DYS.pdb
     RDKit          3D

 27 27  0  0  1  0  0  0  0  0999 V2000
   19.8486  -13.6133  -18.9523 N   0  0  0  0  0  0  0  0  0  0  0  0
   20.1265  -13.5915  -17.5066 C   0  0  1  0  0  0  0  0  0  0  0  0
   20.7923  -14.8856  -17.1935 C   0  0  0  0  0  0  0  0  0  0  0  0
   19.9353  -16.0648  -17.1071 C   0  0  0  0  0  0  0  0  0  0  0  0
   18.9387  -16.3002  -17.8282 O   0  0  0  0  0  0  0  0  0  0  0  0
   20.9128  -12.3834  -17.1725 C   0  0  0  0  0  0  0  0  0  0  0  0
   21.3429  -12.1863  -16.0272 O   0  0  0  0  0  0  0  0  0  0  0  0
   20.2038  -17.0640  -16.1442 O   0  0  0  0  0  0  0  0  0  0  0  0
   19.0602   -7.8912  -23.2847 O   0  0  0  0  0  0  0  0  0  0  0  0
   19.8937   -8.3322  -22.2679 C   0  0  0  0  0  0  0  0  0  0  0  0
   21.1934   -8.6907  -22.5468 C   0  0  0  0  0  0  0  0  0  0  0  0
   22.0061   -9.1234  -21.5404 C   0  0  0  0  0  0  0  0  0  0  0  0
   21.6236   -9.2372  -20.2164 C   0  0  0  0  0  0  0  0  0  0  0  0
   22.5196   -9.7074  -19.1471 C   0  0  0  0  0  0  0  0  0  0  0  0
   21.8798  -10.1484  -17.8950 C   0  0  2  0  0  0  0  0  0  0  0  0
   21.1807  -11.4316  -18.1798 N   0  0  0  0  0  0  0  0  0  0  0  0
   20.9412   -9.2981  -17.2130 C   0  0  0  0  0  0  0  0  0  0  0  0
   19.6855   -9.5415  -17.3475 O   0  0  0  0  0  0  0  0  0  0  0  0
   20.2986   -8.8688  -19.9488 C   0  0  0  0  0  0  0  0  0  0  0  0
   19.4720   -8.4306  -20.9612 C   0  0  0  0  0  0  0  0  0  0  0  0
   18.8151   -7.8875  -13.6411 O   0  0  0  0  0  0  0  0  0  0  0  0
   19.7198   -8.5378  -14.4778 C   0  0  0  0  0  0  0  0  0  0  0  0
   20.2085   -7.5645  -15.5461 C   0  0  2  0  0  0  0  0  0  0  0  0
   21.2311   -8.1801  -16.3707 N   0  0  0  0  0  0  0  0  0  0  0  0
   20.7774   -6.3788  -14.8787 C   0  0  0  0  0  0  0  0  0  0  0  0
   22.1275   -6.0303  -15.0260 O   0  0  0  0  0  0  0  0  0  0  0  0
   20.0595   -5.6612  -14.1663 O   0  0  0  0  0  0  0  0  0  0  0  0
  2  1  1  6
  2  6  1  0
  3  2  1  0
  4  8  1  0
  4  3  1  0
  5  4  2  0
  6 16  1  0
  6  7  2  0
  9 10  1  0
 10 11  2  0
 11 12  1  0
 13 12  2  0
 13 14  1  0
 15 14  1  6
 15 17  1  0
 16 15  1  0
 17 18  2  0
 19 13  1  0
 20 10  1  0
 20 19  2  0
 21 22  1  0
 23 22  1  1
 23 25  1  0
 24 17  1  0
 24 23  1  0
 25 26  1  0
 27 25  2  0
M  END
$$$$
