DYS.pdb
     RDKit          3D

 27 27  0  0  1  0  0  0  0  0999 V2000
   22.4829  -13.0170  -17.4950 N   0  0  0  0  0  0  0  0  0  0  0  0
   21.9456  -11.6767  -17.7825 C   0  0  1  0  0  0  0  0  0  0  0  0
   20.4638  -11.8188  -17.7956 C   0  0  0  0  0  0  0  0  0  0  0  0
   19.8933  -12.6873  -18.8215 C   0  0  0  0  0  0  0  0  0  0  0  0
   19.2173  -13.7209  -18.6130 O   0  0  0  0  0  0  0  0  0  0  0  0
   22.4753  -10.7097  -16.7956 C   0  0  0  0  0  0  0  0  0  0  0  0
   22.4332  -10.9375  -15.5782 O   0  0  0  0  0  0  0  0  0  0  0  0
   20.0872  -12.3869  -20.1889 O   0  0  0  0  0  0  0  0  0  0  0  0
   28.7606  -12.5531  -16.6785 O   0  0  0  0  0  0  0  0  0  0  0  0
   27.8541  -11.5040  -16.7052 C   0  0  0  0  0  0  0  0  0  0  0  0
   27.3246  -11.0792  -17.9031 C   0  0  0  0  0  0  0  0  0  0  0  0
   26.4336  -10.0466  -17.9199 C   0  0  0  0  0  0  0  0  0  0  0  0
   26.0006   -9.3648  -16.7974 C   0  0  0  0  0  0  0  0  0  0  0  0
   25.0374   -8.2523  -16.8410 C   0  0  0  0  0  0  0  0  0  0  0  0
   23.6859   -8.5274  -16.3222 C   0  0  2  0  0  0  0  0  0  0  0  0
   23.0423   -9.4991  -17.2485 N   0  0  0  0  0  0  0  0  0  0  0  0
   22.7486   -7.4562  -16.1153 C   0  0  0  0  0  0  0  0  0  0  0  0
   22.3223   -6.8094  -17.1420 O   0  0  0  0  0  0  0  0  0  0  0  0
   26.5484   -9.8087  -15.5867 C   0  0  0  0  0  0  0  0  0  0  0  0
   27.4493  -10.8519  -15.5626 C   0  0  0  0  0  0  0  0  0  0  0  0
   20.1528   -7.0719  -13.0358 O   0  0  0  0  0  0  0  0  0  0  0  0
   19.9144   -6.4123  -14.2397 C   0  0  0  0  0  0  0  0  0  0  0  0
   21.2386   -5.9215  -14.8171 C   0  0  2  0  0  0  0  0  0  0  0  0
   22.2047   -7.0021  -14.8737 N   0  0  0  0  0  0  0  0  0  0  0  0
   21.7635   -4.8513  -13.9487 C   0  0  0  0  0  0  0  0  0  0  0  0
   22.9421   -5.0186  -13.2078 O   0  0  0  0  0  0  0  0  0  0  0  0
   21.1614   -3.7707  -13.8592 O   0  0  0  0  0  0  0  0  0  0  0  0
  2  1  1  1
  2  6  1  0
  3  2  1  0
  4  8  1  0
  4  3  1  0
  5  4  2  0
  6 16  1  0
  6  7  2  0
  9 10  1  0
 10 11  2  0
 11 12  1  0
 13 12  2  0
 13 14  1  0
 15 14  1  6
 15 17  1  0
 16 15  1  0
 17 18  2  0
 19 13  1  0
 20 10  1  0
 20 19  2  0
 21 22  1  0
 23 22  1  1
 23 25  1  0
 24 17  1  0
 24 23  1  0
 25 26  1  0
 27 25  2  0
M  END
$$$$
