DYS.pdb
     RDKit          3D

 27 27  0  0  1  0  0  0  0  0999 V2000
   25.0320  -19.9037  -17.0552 N   0  0  0  0  0  0  0  0  0  0  0  0
   26.1754  -19.8623  -16.1286 C   0  0  1  0  0  0  0  0  0  0  0  0
   27.0301  -18.7286  -16.5762 C   0  0  0  0  0  0  0  0  0  0  0  0
   27.8185  -18.9349  -17.7879 C   0  0  0  0  0  0  0  0  0  0  0  0
   27.7173  -19.9074  -18.5707 O   0  0  0  0  0  0  0  0  0  0  0  0
   25.6808  -19.7651  -14.7374 C   0  0  0  0  0  0  0  0  0  0  0  0
   25.3608  -18.6771  -14.2378 O   0  0  0  0  0  0  0  0  0  0  0  0
   28.7980  -17.9876  -18.1630 O   0  0  0  0  0  0  0  0  0  0  0  0
   19.0626  -19.7166  -15.2416 O   0  0  0  0  0  0  0  0  0  0  0  0
   20.2004  -20.2436  -14.6495 C   0  0  0  0  0  0  0  0  0  0  0  0
   20.4471  -20.0263  -13.3125 C   0  0  0  0  0  0  0  0  0  0  0  0
   21.5688  -20.5485  -12.7385 C   0  0  0  0  0  0  0  0  0  0  0  0
   22.5138  -21.3045  -13.4075 C   0  0  0  0  0  0  0  0  0  0  0  0
   23.7178  -21.8577  -12.7656 C   0  0  0  0  0  0  0  0  0  0  0  0
   24.8753  -20.9540  -12.6422 C   0  0  2  0  0  0  0  0  0  0  0  0
   25.5699  -20.9373  -13.9589 N   0  0  0  0  0  0  0  0  0  0  0  0
   25.8791  -21.1825  -11.6377 C   0  0  0  0  0  0  0  0  0  0  0  0
   26.4945  -22.3119  -11.6335 O   0  0  0  0  0  0  0  0  0  0  0  0
   22.2487  -21.5168  -14.7668 C   0  0  0  0  0  0  0  0  0  0  0  0
   21.1169  -20.9920  -15.3531 C   0  0  0  0  0  0  0  0  0  0  0  0
   26.7622  -19.9312   -6.9965 O   0  0  0  0  0  0  0  0  0  0  0  0
   26.7911  -19.5312   -8.3308 C   0  0  0  0  0  0  0  0  0  0  0  0
   26.2587  -20.6603   -9.2079 C   0  0  2  0  0  0  0  0  0  0  0  0
   26.3018  -20.2849  -10.6085 N   0  0  0  0  0  0  0  0  0  0  0  0
   24.8610  -20.9349   -8.8258 C   0  0  0  0  0  0  0  0  0  0  0  0
   24.5348  -21.9471   -7.9120 O   0  0  0  0  0  0  0  0  0  0  0  0
   23.9390  -20.2645   -9.3143 O   0  0  0  0  0  0  0  0  0  0  0  0
  2  1  1  6
  2  6  1  0
  3  2  1  0
  4  8  1  0
  4  3  1  0
  5  4  2  0
  6 16  1  0
  6  7  2  0
  9 10  1  0
 10 11  2  0
 11 12  1  0
 13 12  2  0
 13 14  1  0
 15 14  1  6
 15 17  1  0
 16 15  1  0
 17 18  2  0
 19 13  1  0
 20 10  1  0
 20 19  2  0
 21 22  1  0
 23 22  1  1
 23 25  1  0
 24 17  1  0
 24 23  1  0
 25 26  1  0
 27 25  2  0
M  END
$$$$
