DYS.pdb
     RDKit          3D

 27 27  0  0  1  0  0  0  0  0999 V2000
   28.2168  -19.9134  -17.2467 N   0  0  0  0  0  0  0  0  0  0  0  0
   28.0155  -21.3712  -17.2896 C   0  0  1  0  0  0  0  0  0  0  0  0
   29.3641  -21.9695  -17.4886 C   0  0  0  0  0  0  0  0  0  0  0  0
   30.0676  -21.6165  -18.7185 C   0  0  0  0  0  0  0  0  0  0  0  0
   31.1557  -22.1017  -19.1049 O   0  0  0  0  0  0  0  0  0  0  0  0
   27.3084  -21.8088  -16.0657 C   0  0  0  0  0  0  0  0  0  0  0  0
   27.2249  -23.0065  -15.7587 O   0  0  0  0  0  0  0  0  0  0  0  0
   29.5220  -20.6476  -19.5910 O   0  0  0  0  0  0  0  0  0  0  0  0
   23.7679  -20.6841   -7.9101 O   0  0  0  0  0  0  0  0  0  0  0  0
   24.4194  -20.5995   -9.1314 C   0  0  0  0  0  0  0  0  0  0  0  0
   25.7270  -21.0147   -9.2468 C   0  0  0  0  0  0  0  0  0  0  0  0
   26.3599  -20.9278  -10.4520 C   0  0  0  0  0  0  0  0  0  0  0  0
   25.7809  -20.4413  -11.6096 C   0  0  0  0  0  0  0  0  0  0  0  0
   26.4851  -20.3571  -12.8997 C   0  0  0  0  0  0  0  0  0  0  0  0
   25.9758  -21.2108  -13.9876 C   0  0  2  0  0  0  0  0  0  0  0  0
   26.7144  -20.8418  -15.2264 N   0  0  0  0  0  0  0  0  0  0  0  0
   24.5757  -21.2198  -14.3172 C   0  0  0  0  0  0  0  0  0  0  0  0
   24.1035  -20.2432  -15.0081 O   0  0  0  0  0  0  0  0  0  0  0  0
   24.4504  -20.0229  -11.4759 C   0  0  0  0  0  0  0  0  0  0  0  0
   23.8048  -20.1080  -10.2608 C   0  0  0  0  0  0  0  0  0  0  0  0
   20.1267  -23.1894  -14.5383 O   0  0  0  0  0  0  0  0  0  0  0  0
   21.4780  -23.3868  -14.2622 C   0  0  0  0  0  0  0  0  0  0  0  0
   22.2004  -22.0433  -14.2904 C   0  0  2  0  0  0  0  0  0  0  0  0
   23.6052  -22.2101  -13.9692 N   0  0  0  0  0  0  0  0  0  0  0  0
   21.5803  -21.1537  -13.2909 C   0  0  0  0  0  0  0  0  0  0  0  0
   20.6039  -20.2137  -13.6498 O   0  0  0  0  0  0  0  0  0  0  0  0
   21.9183  -21.2247  -12.0997 O   0  0  0  0  0  0  0  0  0  0  0  0
  2  1  1  1
  2  6  1  0
  3  2  1  0
  4  8  1  0
  4  3  1  0
  5  4  2  0
  6 16  1  0
  6  7  2  0
  9 10  1  0
 10 11  2  0
 11 12  1  0
 13 12  2  0
 13 14  1  0
 15 14  1  1
 15 17  1  0
 16 15  1  0
 17 18  2  0
 19 13  1  0
 20 10  1  0
 20 19  2  0
 21 22  1  0
 23 22  1  1
 23 25  1  0
 24 17  1  0
 24 23  1  0
 25 26  1  0
 27 25  2  0
M  END
$$$$
