DYS.pdb
     RDKit          3D

 27 27  0  0  1  0  0  0  0  0999 V2000
   21.9212  -11.6796  -18.5389 N   0  0  0  0  0  0  0  0  0  0  0  0
   21.5142  -11.7838  -17.1279 C   0  0  1  0  0  0  0  0  0  0  0  0
   22.1575  -13.0189  -16.6017 C   0  0  0  0  0  0  0  0  0  0  0  0
   21.5530  -14.2920  -16.9840 C   0  0  0  0  0  0  0  0  0  0  0  0
   20.5077  -14.4328  -17.6594 O   0  0  0  0  0  0  0  0  0  0  0  0
   21.8727  -10.5368  -16.4166 C   0  0  0  0  0  0  0  0  0  0  0  0
   21.6586  -10.3980  -15.2039 O   0  0  0  0  0  0  0  0  0  0  0  0
   22.1549  -15.5073  -16.5862 O   0  0  0  0  0  0  0  0  0  0  0  0
   28.1179  -12.0143  -15.8122 O   0  0  0  0  0  0  0  0  0  0  0  0
   27.1858  -11.0255  -16.0891 C   0  0  0  0  0  0  0  0  0  0  0  0
   26.6187  -10.3040  -15.0627 C   0  0  0  0  0  0  0  0  0  0  0  0
   25.7028   -9.3334  -15.3443 C   0  0  0  0  0  0  0  0  0  0  0  0
   25.2792   -8.9993  -16.6176 C   0  0  0  0  0  0  0  0  0  0  0  0
   24.2883   -7.9469  -16.8966 C   0  0  0  0  0  0  0  0  0  0  0  0
   22.9023   -8.2155  -16.4741 C   0  0  2  0  0  0  0  0  0  0  0  0
   22.4724   -9.4792  -17.1335 N   0  0  0  0  0  0  0  0  0  0  0  0
   21.8655   -7.2452  -16.7036 C   0  0  0  0  0  0  0  0  0  0  0  0
   21.5475   -6.9653  -17.9179 O   0  0  0  0  0  0  0  0  0  0  0  0
   25.8653   -9.7421  -17.6509 C   0  0  0  0  0  0  0  0  0  0  0  0
   26.7917  -10.7245  -17.3732 C   0  0  0  0  0  0  0  0  0  0  0  0
   18.4632   -6.8583  -14.9464 O   0  0  0  0  0  0  0  0  0  0  0  0
   18.9516   -5.5617  -15.0927 C   0  0  0  0  0  0  0  0  0  0  0  0
   20.0954   -5.5642  -16.1024 C   0  0  2  0  0  0  0  0  0  0  0  0
   21.1110   -6.5282  -15.7236 N   0  0  0  0  0  0  0  0  0  0  0  0
   20.6975   -4.2184  -16.1357 C   0  0  0  0  0  0  0  0  0  0  0  0
   19.9476   -3.0867  -16.4863 O   0  0  0  0  0  0  0  0  0  0  0  0
   21.8945   -4.0648  -15.8498 O   0  0  0  0  0  0  0  0  0  0  0  0
  2  1  1  6
  2  6  1  0
  3  2  1  0
  4  8  1  0
  4  3  1  0
  5  4  2  0
  6 16  1  0
  6  7  2  0
  9 10  1  0
 10 11  2  0
 11 12  1  0
 13 12  2  0
 13 14  1  0
 15 14  1  6
 15 17  1  0
 16 15  1  0
 17 18  2  0
 19 13  1  0
 20 10  1  0
 20 19  2  0
 21 22  1  0
 23 22  1  1
 23 25  1  0
 24 17  1  0
 24 23  1  0
 25 26  1  0
 27 25  2  0
M  END
$$$$
