DYS.pdb
     RDKit          3D

 27 27  0  0  1  0  0  0  0  0999 V2000
   24.2846   -8.6856  -18.7065 N   0  0  0  0  0  0  0  0  0  0  0  0
   23.7207   -7.3261  -18.7455 C   0  0  1  0  0  0  0  0  0  0  0  0
   23.8495   -6.8648  -20.1550 C   0  0  0  0  0  0  0  0  0  0  0  0
   25.2020   -6.7694  -20.6972 C   0  0  0  0  0  0  0  0  0  0  0  0
   26.0970   -5.9887  -20.2994 O   0  0  0  0  0  0  0  0  0  0  0  0
   22.3394   -7.3484  -18.2154 C   0  0  0  0  0  0  0  0  0  0  0  0
   21.4472   -8.0144  -18.7595 O   0  0  0  0  0  0  0  0  0  0  0  0
   25.5950   -7.6062  -21.7663 O   0  0  0  0  0  0  0  0  0  0  0  0
   19.2357  -12.7378  -15.2258 O   0  0  0  0  0  0  0  0  0  0  0  0
   19.5988  -11.3994  -15.2149 C   0  0  0  0  0  0  0  0  0  0  0  0
   18.7052  -10.4380  -15.6309 C   0  0  0  0  0  0  0  0  0  0  0  0
   19.0709   -9.1241  -15.6169 C   0  0  0  0  0  0  0  0  0  0  0  0
   20.3061   -8.6572  -15.2062 C   0  0  0  0  0  0  0  0  0  0  0  0
   20.6778   -7.2327  -15.2003 C   0  0  0  0  0  0  0  0  0  0  0  0
   20.6514   -6.5374  -16.4994 C   0  0  2  0  0  0  0  0  0  0  0  0
   22.0280   -6.5947  -17.0634 N   0  0  0  0  0  0  0  0  0  0  0  0
   20.2142   -5.1700  -16.5895 C   0  0  0  0  0  0  0  0  0  0  0  0
   20.9885   -4.2490  -16.1354 O   0  0  0  0  0  0  0  0  0  0  0  0
   21.2039   -9.6474  -14.7861 C   0  0  0  0  0  0  0  0  0  0  0  0
   20.8407  -10.9772  -14.7977 C   0  0  0  0  0  0  0  0  0  0  0  0
   17.8389   -3.1973  -19.3551 O   0  0  0  0  0  0  0  0  0  0  0  0
   17.4655   -2.9834  -18.0299 C   0  0  0  0  0  0  0  0  0  0  0  0
   18.6544   -3.2704  -17.1179 C   0  0  2  0  0  0  0  0  0  0  0  0
   18.9895   -4.6817  -17.1421 N   0  0  0  0  0  0  0  0  0  0  0  0
   18.2959   -2.8842  -15.7405 C   0  0  0  0  0  0  0  0  0  0  0  0
   18.6483   -1.6338  -15.2131 O   0  0  0  0  0  0  0  0  0  0  0  0
   17.6677   -3.6715  -15.0168 O   0  0  0  0  0  0  0  0  0  0  0  0
  2  1  1  6
  2  6  1  0
  3  2  1  0
  4  8  1  0
  4  3  1  0
  5  4  2  0
  6 16  1  0
  6  7  2  0
  9 10  1  0
 10 11  2  0
 11 12  1  0
 13 12  2  0
 13 14  1  0
 15 14  1  1
 15 17  1  0
 16 15  1  0
 17 18  2  0
 19 13  1  0
 20 10  1  0
 20 19  2  0
 21 22  1  0
 23 22  1  6
 23 25  1  0
 24 17  1  0
 24 23  1  0
 25 26  1  0
 27 25  2  0
M  END
$$$$
