DYS.pdb
     RDKit          3D

 27 27  0  0  1  0  0  0  0  0999 V2000
   18.9678  -15.4673  -16.5724 N   0  0  0  0  0  0  0  0  0  0  0  0
   18.8045  -14.0221  -16.8013 C   0  0  1  0  0  0  0  0  0  0  0  0
   17.4951  -13.6527  -16.1972 C   0  0  0  0  0  0  0  0  0  0  0  0
   16.3205  -14.3779  -16.6735 C   0  0  0  0  0  0  0  0  0  0  0  0
   15.3521  -14.7463  -15.9699 O   0  0  0  0  0  0  0  0  0  0  0  0
   19.9746  -13.2998  -16.2549 C   0  0  0  0  0  0  0  0  0  0  0  0
   20.4896  -13.6234  -15.1752 O   0  0  0  0  0  0  0  0  0  0  0  0
   16.2096  -14.7230  -18.0396 O   0  0  0  0  0  0  0  0  0  0  0  0
   27.9738   -9.9550  -15.7983 O   0  0  0  0  0  0  0  0  0  0  0  0
   26.7149  -10.3757  -16.1997 C   0  0  0  0  0  0  0  0  0  0  0  0
   26.2264  -11.5922  -15.7787 C   0  0  0  0  0  0  0  0  0  0  0  0
   24.9870  -11.9979  -16.1785 C   0  0  0  0  0  0  0  0  0  0  0  0
   24.1486  -11.2668  -16.9998 C   0  0  0  0  0  0  0  0  0  0  0  0
   22.8140  -11.7264  -17.4182 C   0  0  0  0  0  0  0  0  0  0  0  0
   21.7002  -11.4512  -16.4934 C   0  0  2  0  0  0  0  0  0  0  0  0
   20.5190  -12.2168  -16.9781 N   0  0  0  0  0  0  0  0  0  0  0  0
   21.2612  -10.1020  -16.2565 C   0  0  0  0  0  0  0  0  0  0  0  0
   20.5763   -9.5120  -17.1713 O   0  0  0  0  0  0  0  0  0  0  0  0
   24.6598  -10.0317  -17.4197 C   0  0  0  0  0  0  0  0  0  0  0  0
   25.9115   -9.6156  -17.0193 C   0  0  0  0  0  0  0  0  0  0  0  0
   20.6577   -6.0993  -13.5359 O   0  0  0  0  0  0  0  0  0  0  0  0
   21.1371   -7.4067  -13.5853 C   0  0  0  0  0  0  0  0  0  0  0  0
   21.0390   -7.9264  -15.0163 C   0  0  2  0  0  0  0  0  0  0  0  0
   21.4902   -9.3030  -15.0934 N   0  0  0  0  0  0  0  0  0  0  0  0
   21.8928   -7.0907  -15.8808 C   0  0  0  0  0  0  0  0  0  0  0  0
   21.3726   -6.0020  -16.5949 O   0  0  0  0  0  0  0  0  0  0  0  0
   23.1023   -7.3420  -15.9910 O   0  0  0  0  0  0  0  0  0  0  0  0
  2  1  1  1
  2  6  1  0
  3  2  1  0
  4  8  1  0
  4  3  1  0
  5  4  2  0
  6 16  1  0
  6  7  2  0
  9 10  1  0
 10 11  2  0
 11 12  1  0
 13 12  2  0
 13 14  1  0
 15 14  1  6
 15 17  1  0
 16 15  1  0
 17 18  2  0
 19 13  1  0
 20 10  1  0
 20 19  2  0
 21 22  1  0
 23 22  1  1
 23 25  1  0
 24 17  1  0
 24 23  1  0
 25 26  1  0
 27 25  2  0
M  END
$$$$
