GDL.pdb
     RDKit          3D

 21 20  0  0  1  0  0  0  0  0999 V2000
    7.0937  -12.7017   19.2778 N   0  0  0  0  0  0  0  0  0  0  0  0
    8.3234  -13.3689   19.6163 C   0  0  0  0  0  0  0  0  0  0  0  0
    8.1702  -14.2824   20.7726 C   0  0  0  0  0  0  0  0  0  0  0  0
    7.0630  -14.3134   21.3665 O   0  0  0  0  0  0  0  0  0  0  0  0
    9.2146  -15.1055   21.2193 N   0  0  0  0  0  0  0  0  0  0  0  0
    9.0830  -16.1310   22.2196 C   0  0  1  0  0  0  0  0  0  0  0  0
   10.1119  -17.2088   22.0857 C   0  0  0  0  0  0  0  0  0  0  0  0
    9.9525  -18.0464   20.8877 C   0  0  0  0  0  0  0  0  0  0  0  0
   10.8741  -18.3776   20.1130 O   0  0  0  0  0  0  0  0  0  0  0  0
    9.3247  -15.4712   23.5550 C   0  0  0  0  0  0  0  0  0  0  0  0
   10.4193  -14.8984   23.7988 O   0  0  0  0  0  0  0  0  0  0  0  0
    8.6738  -18.5047   20.5963 O   0  0  0  0  0  0  0  0  0  0  0  0
    8.0954  -11.7848   25.5595 C   0  0  0  0  0  0  0  0  0  0  0  0
    7.0999  -12.8857   25.6323 C   0  0  2  0  0  0  0  0  0  0  0  0
    5.7347  -12.3269   26.1045 C   0  0  0  0  0  0  0  0  0  0  0  0
    7.4335  -14.1271   26.3496 C   0  0  0  0  0  0  0  0  0  0  0  0
    8.5900  -14.9014   25.9230 C   0  0  2  0  0  0  0  0  0  0  0  0
    8.3455  -15.4707   24.5691 N   0  0  0  0  0  0  0  0  0  0  0  0
    9.1161  -15.9341   26.7996 C   0  0  0  0  0  0  0  0  0  0  0  0
    9.0016  -17.2857   26.3879 O   0  0  0  0  0  0  0  0  0  0  0  0
    9.6684  -15.7777   27.8926 O   0  0  0  0  0  0  0  0  0  0  0  0
  1  2  1  0
  3  2  1  0
  4  3  2  0
  5  3  1  0
  6  5  1  0
  6  7  1  6
  8  7  1  0
  8 12  1  0
  9  8  2  0
 10  6  1  0
 10 18  1  0
 11 10  2  0
 14 13  1  1
 14 16  1  0
 14 15  1  0
 17 18  1  0
 17 16  1  1
 19 17  1  0
 20 19  1  0
 21 19  2  0
M  END
$$$$
