GDL.pdb
     RDKit          3D

 21 20  0  0  1  0  0  0  0  0999 V2000
    7.1976  -12.7205   19.2550 N   0  0  0  0  0  0  0  0  0  0  0  0
    8.4468  -13.1863   19.7976 C   0  0  0  0  0  0  0  0  0  0  0  0
    8.2591  -14.2346   20.8275 C   0  0  0  0  0  0  0  0  0  0  0  0
    7.1000  -14.4367   21.2694 O   0  0  0  0  0  0  0  0  0  0  0  0
    9.3267  -15.0005   21.3188 N   0  0  0  0  0  0  0  0  0  0  0  0
    9.2021  -16.0633   22.2804 C   0  0  1  0  0  0  0  0  0  0  0  0
   10.2573  -17.1126   22.1265 C   0  0  0  0  0  0  0  0  0  0  0  0
   10.1694  -17.8740   20.8717 C   0  0  0  0  0  0  0  0  0  0  0  0
    9.2516  -18.6663   20.5732 O   0  0  0  0  0  0  0  0  0  0  0  0
    9.4070  -15.4457   23.6418 C   0  0  0  0  0  0  0  0  0  0  0  0
   10.5029  -14.9026   23.9417 O   0  0  0  0  0  0  0  0  0  0  0  0
   11.1897  -17.6963   19.9458 O   0  0  0  0  0  0  0  0  0  0  0  0
    8.0184  -11.8447   25.7752 C   0  0  0  0  0  0  0  0  0  0  0  0
    7.0430  -12.9654   25.8075 C   0  0  2  0  0  0  0  0  0  0  0  0
    5.6773  -12.4560   26.3313 C   0  0  0  0  0  0  0  0  0  0  0  0
    7.4103  -14.2361   26.4533 C   0  0  0  0  0  0  0  0  0  0  0  0
    8.6011  -14.9409   26.0013 C   0  0  2  0  0  0  0  0  0  0  0  0
    8.3911  -15.4529   24.6190 N   0  0  0  0  0  0  0  0  0  0  0  0
    9.1621  -15.9929   26.8321 C   0  0  0  0  0  0  0  0  0  0  0  0
    9.0780  -17.3300   26.3690 O   0  0  0  0  0  0  0  0  0  0  0  0
    9.7212  -15.8649   27.9254 O   0  0  0  0  0  0  0  0  0  0  0  0
  1  2  1  0
  3  2  1  0
  4  3  2  0
  5  3  1  0
  6  5  1  0
  6  7  1  6
  8  7  1  0
  8 12  1  0
  9  8  2  0
 10  6  1  0
 10 18  1  0
 11 10  2  0
 14 13  1  1
 14 16  1  0
 14 15  1  0
 17 18  1  0
 17 16  1  1
 19 17  1  0
 20 19  1  0
 21 19  2  0
M  END
$$$$
