GDL.pdb
     RDKit          3D

 21 20  0  0  1  0  0  0  0  0999 V2000
    7.7704  -12.7084   18.3310 N   0  0  0  0  0  0  0  0  0  0  0  0
    8.7830  -13.0780   19.2850 C   0  0  0  0  0  0  0  0  0  0  0  0
    8.2699  -14.0017   20.3234 C   0  0  0  0  0  0  0  0  0  0  0  0
    7.0257  -14.1091   20.4650 O   0  0  0  0  0  0  0  0  0  0  0  0
    9.1239  -14.7524   21.1449 N   0  0  0  0  0  0  0  0  0  0  0  0
    8.6924  -15.7599   22.0769 C   0  0  1  0  0  0  0  0  0  0  0  0
    9.3884  -17.0695   21.8803 C   0  0  0  0  0  0  0  0  0  0  0  0
    9.0197  -17.7656   20.6387 C   0  0  0  0  0  0  0  0  0  0  0  0
    9.7219  -17.8189   19.6075 O   0  0  0  0  0  0  0  0  0  0  0  0
    9.0751  -15.2734   23.4531 C   0  0  0  0  0  0  0  0  0  0  0  0
   10.2420  -14.8614   23.6864 O   0  0  0  0  0  0  0  0  0  0  0  0
    7.7920  -18.4151   20.6128 O   0  0  0  0  0  0  0  0  0  0  0  0
    7.7268  -11.7072   25.5506 C   0  0  0  0  0  0  0  0  0  0  0  0
    6.8338  -12.8718   25.7845 C   0  0  2  0  0  0  0  0  0  0  0  0
    5.5181  -12.3976   26.4502 C   0  0  0  0  0  0  0  0  0  0  0  0
    7.3578  -14.0716   26.4574 C   0  0  0  0  0  0  0  0  0  0  0  0
    8.4989  -14.7657   25.8783 C   0  0  2  0  0  0  0  0  0  0  0  0
    8.1516  -15.2615   24.5180 N   0  0  0  0  0  0  0  0  0  0  0  0
    9.1443  -15.8254   26.6346 C   0  0  0  0  0  0  0  0  0  0  0  0
    9.0705  -17.1488   26.1321 O   0  0  0  0  0  0  0  0  0  0  0  0
    9.7694  -15.7148   27.6936 O   0  0  0  0  0  0  0  0  0  0  0  0
  1  2  1  0
  3  2  1  0
  4  3  2  0
  5  3  1  0
  6  5  1  0
  6  7  1  6
  8  7  1  0
  8 12  1  0
  9  8  2  0
 10  6  1  0
 10 18  1  0
 11 10  2  0
 14 13  1  1
 14 16  1  0
 14 15  1  0
 17 18  1  0
 17 16  1  1
 19 17  1  0
 20 19  1  0
 21 19  2  0
M  END
$$$$
