GDL.pdb
     RDKit          3D

 21 20  0  0  1  0  0  0  0  0999 V2000
    7.3914  -12.2745   19.2047 N   0  0  0  0  0  0  0  0  0  0  0  0
    8.5816  -12.9672   19.6238 C   0  0  0  0  0  0  0  0  0  0  0  0
    8.2952  -14.0376   20.6071 C   0  0  0  0  0  0  0  0  0  0  0  0
    7.0966  -14.2679   20.9069 O   0  0  0  0  0  0  0  0  0  0  0  0
    9.3128  -14.7939   21.2073 N   0  0  0  0  0  0  0  0  0  0  0  0
    9.0967  -15.9142   22.0837 C   0  0  1  0  0  0  0  0  0  0  0  0
   10.0745  -17.0241   21.8597 C   0  0  0  0  0  0  0  0  0  0  0  0
    9.7079  -18.2892   22.5134 C   0  0  0  0  0  0  0  0  0  0  0  0
    8.6775  -18.4759   23.1935 O   0  0  0  0  0  0  0  0  0  0  0  0
    9.3260  -15.4181   23.4902 C   0  0  0  0  0  0  0  0  0  0  0  0
   10.4584  -14.9966   23.8452 O   0  0  0  0  0  0  0  0  0  0  0  0
   10.5785  -19.3609   22.3608 O   0  0  0  0  0  0  0  0  0  0  0  0
    7.8617  -11.9095   25.7972 C   0  0  0  0  0  0  0  0  0  0  0  0
    6.9031  -13.0450   25.8118 C   0  0  2  0  0  0  0  0  0  0  0  0
    5.5540  -12.5837   26.4168 C   0  0  0  0  0  0  0  0  0  0  0  0
    7.3134  -14.3413   26.3758 C   0  0  0  0  0  0  0  0  0  0  0  0
    8.5116  -14.9888   25.8617 C   0  0  2  0  0  0  0  0  0  0  0  0
    8.2934  -15.4076   24.4496 N   0  0  0  0  0  0  0  0  0  0  0  0
    9.1038  -16.0844   26.6103 C   0  0  0  0  0  0  0  0  0  0  0  0
    9.8884  -15.7720   27.7489 O   0  0  0  0  0  0  0  0  0  0  0  0
    9.0062  -17.2919   26.3725 O   0  0  0  0  0  0  0  0  0  0  0  0
  1  2  1  0
  3  2  1  0
  4  3  2  0
  5  3  1  0
  6  5  1  0
  6  7  1  6
  8  7  1  0
  8 12  1  0
  9  8  2  0
 10  6  1  0
 10 18  1  0
 11 10  2  0
 14 13  1  1
 14 16  1  0
 14 15  1  0
 17 18  1  0
 17 16  1  1
 19 17  1  0
 20 19  1  0
 21 19  2  0
M  END
$$$$
