GDL.pdb
     RDKit          3D

 21 20  0  0  1  0  0  0  0  0999 V2000
    7.7105  -12.2704   19.0969 N   0  0  0  0  0  0  0  0  0  0  0  0
    8.7887  -13.0933   19.5792 C   0  0  0  0  0  0  0  0  0  0  0  0
    8.3375  -14.0813   20.5868 C   0  0  0  0  0  0  0  0  0  0  0  0
    7.1533  -14.0124   21.0020 O   0  0  0  0  0  0  0  0  0  0  0  0
    9.1853  -15.0813   21.0858 N   0  0  0  0  0  0  0  0  0  0  0  0
    8.8103  -16.0615   22.0698 C   0  0  1  0  0  0  0  0  0  0  0  0
    9.6142  -17.3195   21.9723 C   0  0  0  0  0  0  0  0  0  0  0  0
    9.1155  -18.2756   20.9728 C   0  0  0  0  0  0  0  0  0  0  0  0
    9.4117  -19.4877   20.9254 O   0  0  0  0  0  0  0  0  0  0  0  0
    9.1144  -15.4619   23.4206 C   0  0  0  0  0  0  0  0  0  0  0  0
   10.2143  -14.8871   23.6345 O   0  0  0  0  0  0  0  0  0  0  0  0
    8.2455  -17.7898   20.0048 O   0  0  0  0  0  0  0  0  0  0  0  0
    7.7163  -11.8750   25.6306 C   0  0  0  0  0  0  0  0  0  0  0  0
    6.8040  -13.0452   25.7128 C   0  0  2  0  0  0  0  0  0  0  0  0
    5.4414  -12.6064   26.3043 C   0  0  0  0  0  0  0  0  0  0  0  0
    7.2695  -14.2926   26.3403 C   0  0  0  0  0  0  0  0  0  0  0  0
    8.4674  -14.9395   25.8248 C   0  0  2  0  0  0  0  0  0  0  0  0
    8.1896  -15.5216   24.4828 N   0  0  0  0  0  0  0  0  0  0  0  0
    9.1567  -15.9181   26.6487 C   0  0  0  0  0  0  0  0  0  0  0  0
    9.2306  -17.2547   26.1824 O   0  0  0  0  0  0  0  0  0  0  0  0
    9.7043  -15.7259   27.7384 O   0  0  0  0  0  0  0  0  0  0  0  0
  1  2  1  0
  3  2  1  0
  4  3  2  0
  5  3  1  0
  6  5  1  0
  6  7  1  6
  8  7  1  0
  8 12  1  0
  9  8  2  0
 10  6  1  0
 10 18  1  0
 11 10  2  0
 14 13  1  1
 14 16  1  0
 14 15  1  0
 17 18  1  0
 17 16  1  1
 19 17  1  0
 20 19  1  0
 21 19  2  0
M  END
$$$$
