GDL.pdb
     RDKit          3D

 21 20  0  0  1  0  0  0  0  0999 V2000
    5.7660  -14.9710   20.5515 N   0  0  0  0  0  0  0  0  0  0  0  0
    7.0483  -14.4997   21.0050 C   0  0  0  0  0  0  0  0  0  0  0  0
    7.7209  -15.4685   21.9016 C   0  0  0  0  0  0  0  0  0  0  0  0
    7.0070  -16.2462   22.5835 O   0  0  0  0  0  0  0  0  0  0  0  0
    9.1175  -15.5421   22.0105 N   0  0  0  0  0  0  0  0  0  0  0  0
    9.8265  -16.3684   22.9508 C   0  0  1  0  0  0  0  0  0  0  0  0
   11.2460  -16.6185   22.5496 C   0  0  0  0  0  0  0  0  0  0  0  0
   11.3925  -17.3568   21.2865 C   0  0  0  0  0  0  0  0  0  0  0  0
   10.9883  -18.5203   21.0817 O   0  0  0  0  0  0  0  0  0  0  0  0
    9.8767  -15.6048   24.2513 C   0  0  0  0  0  0  0  0  0  0  0  0
   10.8135  -14.7962   24.4847 O   0  0  0  0  0  0  0  0  0  0  0  0
   12.0318  -16.7062   20.2387 O   0  0  0  0  0  0  0  0  0  0  0  0
    8.3547  -12.0438   25.9690 C   0  0  0  0  0  0  0  0  0  0  0  0
    7.4286  -13.2053   26.0114 C   0  0  2  0  0  0  0  0  0  0  0  0
    5.9859  -12.7148   26.2886 C   0  0  0  0  0  0  0  0  0  0  0  0
    7.7552  -14.3708   26.8490 C   0  0  0  0  0  0  0  0  0  0  0  0
    8.9769  -15.1152   26.5798 C   0  0  2  0  0  0  0  0  0  0  0  0
    8.8883  -15.7655   25.2433 N   0  0  0  0  0  0  0  0  0  0  0  0
    9.4538  -16.0760   27.5601 C   0  0  0  0  0  0  0  0  0  0  0  0
    9.4464  -17.4500   27.2113 O   0  0  0  0  0  0  0  0  0  0  0  0
    9.8788  -15.8390   28.6947 O   0  0  0  0  0  0  0  0  0  0  0  0
  1  2  1  0
  3  2  1  0
  4  3  2  0
  5  3  1  0
  6  5  1  0
  6  7  1  6
  8  7  1  0
  8 12  1  0
  9  8  2  0
 10  6  1  0
 10 18  1  0
 11 10  2  0
 14 13  1  1
 14 16  1  0
 14 15  1  0
 17 18  1  0
 17 16  1  1
 19 17  1  0
 20 19  1  0
 21 19  2  0
M  END
$$$$
