GDL.pdb
     RDKit          3D

 21 20  0  0  1  0  0  0  0  0999 V2000
    7.7667  -12.2510   19.0140 N   0  0  0  0  0  0  0  0  0  0  0  0
    8.6156  -13.3448   19.4077 C   0  0  0  0  0  0  0  0  0  0  0  0
    8.1075  -14.0503   20.6072 C   0  0  0  0  0  0  0  0  0  0  0  0
    7.0024  -13.6925   21.0870 O   0  0  0  0  0  0  0  0  0  0  0  0
    8.8169  -15.0956   21.2169 N   0  0  0  0  0  0  0  0  0  0  0  0
    8.3076  -15.9285   22.2736 C   0  0  1  0  0  0  0  0  0  0  0  0
    8.8054  -17.3370   22.1944 C   0  0  0  0  0  0  0  0  0  0  0  0
    8.4085  -18.0468   20.9693 C   0  0  0  0  0  0  0  0  0  0  0  0
    7.2365  -18.1703   20.5564 O   0  0  0  0  0  0  0  0  0  0  0  0
    8.8335  -15.3601   23.5687 C   0  0  0  0  0  0  0  0  0  0  0  0
   10.0505  -15.0603   23.6904 O   0  0  0  0  0  0  0  0  0  0  0  0
    9.4195  -18.6253   20.2123 O   0  0  0  0  0  0  0  0  0  0  0  0
    7.9458  -11.6511   25.6118 C   0  0  0  0  0  0  0  0  0  0  0  0
    7.0035  -12.7164   26.0424 C   0  0  2  0  0  0  0  0  0  0  0  0
    5.8466  -12.0925   26.8618 C   0  0  0  0  0  0  0  0  0  0  0  0
    7.5198  -13.9261   26.7034 C   0  0  0  0  0  0  0  0  0  0  0  0
    8.5109  -14.7400   26.0147 C   0  0  2  0  0  0  0  0  0  0  0  0
    7.9923  -15.1454   24.6792 N   0  0  0  0  0  0  0  0  0  0  0  0
    9.0752  -15.8957   26.6912 C   0  0  0  0  0  0  0  0  0  0  0  0
    9.8852  -15.6750   27.8334 O   0  0  0  0  0  0  0  0  0  0  0  0
    8.9332  -17.0838   26.3871 O   0  0  0  0  0  0  0  0  0  0  0  0
  1  2  1  0
  3  2  1  0
  4  3  2  0
  5  3  1  0
  6  5  1  0
  6  7  1  6
  8  7  1  0
  8 12  1  0
  9  8  2  0
 10  6  1  0
 10 18  1  0
 11 10  2  0
 14 13  1  1
 14 16  1  0
 14 15  1  0
 17 18  1  0
 17 16  1  1
 19 17  1  0
 20 19  1  0
 21 19  2  0
M  END
$$$$
