GDL.pdb
     RDKit          3D

 21 20  0  0  1  0  0  0  0  0999 V2000
    5.4327  -19.2353   23.4532 N   0  0  0  0  0  0  0  0  0  0  0  0
    5.8557  -17.9568   22.9447 C   0  0  0  0  0  0  0  0  0  0  0  0
    7.3213  -17.7659   23.0460 C   0  0  0  0  0  0  0  0  0  0  0  0
    8.0175  -18.7132   23.4905 O   0  0  0  0  0  0  0  0  0  0  0  0
    7.9483  -16.5706   22.6640 N   0  0  0  0  0  0  0  0  0  0  0  0
    9.3598  -16.3129   22.7676 C   0  0  1  0  0  0  0  0  0  0  0  0
    9.8521  -15.3503   21.7335 C   0  0  0  0  0  0  0  0  0  0  0  0
    9.9795  -15.9275   20.3872 C   0  0  0  0  0  0  0  0  0  0  0  0
   10.0157  -17.1484   20.1278 O   0  0  0  0  0  0  0  0  0  0  0  0
    9.5861  -15.6560   24.1070 C   0  0  0  0  0  0  0  0  0  0  0  0
   10.7428  -15.3099   24.4647 O   0  0  0  0  0  0  0  0  0  0  0  0
   10.0665  -15.0423   19.3201 O   0  0  0  0  0  0  0  0  0  0  0  0
    7.8735  -11.9068   25.7254 C   0  0  0  0  0  0  0  0  0  0  0  0
    7.0228  -13.0906   26.0143 C   0  0  2  0  0  0  0  0  0  0  0  0
    5.6410  -12.6271   26.5386 C   0  0  0  0  0  0  0  0  0  0  0  0
    7.5536  -14.1889   26.8381 C   0  0  0  0  0  0  0  0  0  0  0  0
    8.7368  -14.9053   26.3845 C   0  0  2  0  0  0  0  0  0  0  0  0
    8.5233  -15.4074   24.9991 N   0  0  0  0  0  0  0  0  0  0  0  0
    9.2840  -15.9681   27.2106 C   0  0  0  0  0  0  0  0  0  0  0  0
    9.0918  -17.3090   26.7927 O   0  0  0  0  0  0  0  0  0  0  0  0
    9.9159  -15.8467   28.2642 O   0  0  0  0  0  0  0  0  0  0  0  0
  1  2  1  0
  3  2  1  0
  4  3  2  0
  5  3  1  0
  6  5  1  0
  6  7  1  6
  8  7  1  0
  8 12  1  0
  9  8  2  0
 10  6  1  0
 10 18  1  0
 11 10  2  0
 14 13  1  1
 14 16  1  0
 14 15  1  0
 17 18  1  0
 17 16  1  1
 19 17  1  0
 20 19  1  0
 21 19  2  0
M  END
$$$$
