GDL.pdb
     RDKit          3D

 21 20  0  0  1  0  0  0  0  0999 V2000
    7.5583  -12.9024   18.1843 N   0  0  0  0  0  0  0  0  0  0  0  0
    8.6995  -13.1124   19.0362 C   0  0  0  0  0  0  0  0  0  0  0  0
    8.4616  -14.1676   20.0486 C   0  0  0  0  0  0  0  0  0  0  0  0
    7.2759  -14.4217   20.3789 O   0  0  0  0  0  0  0  0  0  0  0  0
    9.5108  -14.8841   20.6432 N   0  0  0  0  0  0  0  0  0  0  0  0
    9.3448  -15.9197   21.6279 C   0  0  1  0  0  0  0  0  0  0  0  0
   10.4269  -16.9514   21.5740 C   0  0  0  0  0  0  0  0  0  0  0  0
   10.3566  -17.8353   20.4010 C   0  0  0  0  0  0  0  0  0  0  0  0
   11.0023  -17.6809   19.3435 O   0  0  0  0  0  0  0  0  0  0  0  0
    9.4511  -15.2573   22.9795 C   0  0  0  0  0  0  0  0  0  0  0  0
   10.4436  -14.5364   23.2645 O   0  0  0  0  0  0  0  0  0  0  0  0
    9.5032  -18.9288   20.4775 O   0  0  0  0  0  0  0  0  0  0  0  0
    5.8480  -12.6530   27.1317 C   0  0  0  0  0  0  0  0  0  0  0  0
    7.1918  -13.1251   26.7076 C   0  0  2  0  0  0  0  0  0  0  0  0
    8.1950  -11.9453   26.7382 C   0  0  0  0  0  0  0  0  0  0  0  0
    7.3356  -13.9021   25.4657 C   0  0  0  0  0  0  0  0  0  0  0  0
    8.5141  -14.7378   25.2868 C   0  0  2  0  0  0  0  0  0  0  0  0
    8.4549  -15.4182   23.9638 N   0  0  0  0  0  0  0  0  0  0  0  0
    8.8646  -15.7013   26.3166 C   0  0  0  0  0  0  0  0  0  0  0  0
    9.7821  -15.3050   27.3217 O   0  0  0  0  0  0  0  0  0  0  0  0
    8.4503  -16.8588   26.4303 O   0  0  0  0  0  0  0  0  0  0  0  0
  1  2  1  0
  3  2  1  0
  4  3  2  0
  5  3  1  0
  6  5  1  0
  6  7  1  6
  8  7  1  0
  8 12  1  0
  9  8  2  0
 10  6  1  0
 10 18  1  0
 11 10  2  0
 14 13  1  6
 14 16  1  0
 14 15  1  0
 17 18  1  0
 17 16  1  1
 19 17  1  0
 20 19  1  0
 21 19  2  0
M  END
$$$$
