GDL.pdb
     RDKit          3D

 21 20  0  0  1  0  0  0  0  0999 V2000
    5.7783  -15.8106   19.9200 N   0  0  0  0  0  0  0  0  0  0  0  0
    6.5557  -14.9454   20.7681 C   0  0  0  0  0  0  0  0  0  0  0  0
    7.4106  -15.7008   21.7133 C   0  0  0  0  0  0  0  0  0  0  0  0
    6.8567  -16.4904   22.5191 O   0  0  0  0  0  0  0  0  0  0  0  0
    8.8063  -15.5618   21.7346 N   0  0  0  0  0  0  0  0  0  0  0  0
    9.6864  -16.2410   22.6478 C   0  0  1  0  0  0  0  0  0  0  0  0
   11.1180  -16.1975   22.2157 C   0  0  0  0  0  0  0  0  0  0  0  0
   11.4060  -16.9875   21.0095 C   0  0  0  0  0  0  0  0  0  0  0  0
   11.1398  -18.1985   20.8615 O   0  0  0  0  0  0  0  0  0  0  0  0
    9.6116  -15.4982   23.9592 C   0  0  0  0  0  0  0  0  0  0  0  0
   10.1093  -14.3472   24.0738 O   0  0  0  0  0  0  0  0  0  0  0  0
   12.0236  -16.3326   19.9514 O   0  0  0  0  0  0  0  0  0  0  0  0
    8.5845  -12.2395   26.5986 C   0  0  0  0  0  0  0  0  0  0  0  0
    7.5980  -13.1991   26.0381 C   0  0  2  0  0  0  0  0  0  0  0  0
    6.1685  -12.6176   26.1700 C   0  0  0  0  0  0  0  0  0  0  0  0
    7.6299  -14.6096   26.4579 C   0  0  0  0  0  0  0  0  0  0  0  0
    8.8883  -15.3386   26.3929 C   0  0  2  0  0  0  0  0  0  0  0  0
    8.9889  -16.0580   25.0931 N   0  0  0  0  0  0  0  0  0  0  0  0
    9.2456  -16.2371   27.4776 C   0  0  0  0  0  0  0  0  0  0  0  0
    9.3197  -17.6255   27.2018 O   0  0  0  0  0  0  0  0  0  0  0  0
    9.5014  -15.9338   28.6467 O   0  0  0  0  0  0  0  0  0  0  0  0
  1  2  1  0
  3  2  1  0
  4  3  2  0
  5  3  1  0
  6  5  1  0
  6  7  1  6
  8  7  1  0
  8 12  1  0
  9  8  2  0
 10  6  1  0
 10 18  1  0
 11 10  2  0
 14 13  1  1
 14 16  1  0
 14 15  1  0
 17 18  1  0
 17 16  1  1
 19 17  1  0
 20 19  1  0
 21 19  2  0
M  END
$$$$
