GDL.pdb
     RDKit          3D

 21 20  0  0  1  0  0  0  0  0999 V2000
    7.5540  -12.4056   18.9910 N   0  0  0  0  0  0  0  0  0  0  0  0
    8.6662  -13.1610   19.5050 C   0  0  0  0  0  0  0  0  0  0  0  0
    8.2586  -14.1205   20.5577 C   0  0  0  0  0  0  0  0  0  0  0  0
    7.0570  -14.1279   20.9260 O   0  0  0  0  0  0  0  0  0  0  0  0
    9.1658  -15.0119   21.1494 N   0  0  0  0  0  0  0  0  0  0  0  0
    8.8194  -16.0110   22.1249 C   0  0  1  0  0  0  0  0  0  0  0  0
    9.6341  -17.2588   21.9930 C   0  0  0  0  0  0  0  0  0  0  0  0
    9.4411  -17.9711   20.7212 C   0  0  0  0  0  0  0  0  0  0  0  0
    8.4033  -18.5801   20.3874 O   0  0  0  0  0  0  0  0  0  0  0  0
    9.1427  -15.4290   23.4790 C   0  0  0  0  0  0  0  0  0  0  0  0
   10.2860  -14.9586   23.7187 O   0  0  0  0  0  0  0  0  0  0  0  0
   10.4988  -17.9648   19.8206 O   0  0  0  0  0  0  0  0  0  0  0  0
    8.0381  -11.8037   25.7294 C   0  0  0  0  0  0  0  0  0  0  0  0
    7.0347  -12.8961   25.8209 C   0  0  2  0  0  0  0  0  0  0  0  0
    5.7180  -12.3484   26.4252 C   0  0  0  0  0  0  0  0  0  0  0  0
    7.4035  -14.1774   26.4446 C   0  0  0  0  0  0  0  0  0  0  0  0
    8.5174  -14.9368   25.8952 C   0  0  2  0  0  0  0  0  0  0  0  0
    8.1883  -15.3899   24.5156 N   0  0  0  0  0  0  0  0  0  0  0  0
    9.0645  -16.0469   26.6567 C   0  0  0  0  0  0  0  0  0  0  0  0
    9.8511  -15.7537   27.7990 O   0  0  0  0  0  0  0  0  0  0  0  0
    8.9259  -17.2520   26.4272 O   0  0  0  0  0  0  0  0  0  0  0  0
  1  2  1  0
  3  2  1  0
  4  3  2  0
  5  3  1  0
  6  5  1  0
  6  7  1  6
  8  7  1  0
  8 12  1  0
  9  8  2  0
 10  6  1  0
 10 18  1  0
 11 10  2  0
 14 13  1  1
 14 16  1  0
 14 15  1  0
 17 18  1  0
 17 16  1  1
 19 17  1  0
 20 19  1  0
 21 19  2  0
M  END
$$$$
