GDL.pdb
     RDKit          3D

 21 20  0  0  1  0  0  0  0  0999 V2000
    7.7070  -12.6524   18.2397 N   0  0  0  0  0  0  0  0  0  0  0  0
    8.7660  -13.4419   18.8116 C   0  0  0  0  0  0  0  0  0  0  0  0
    8.2868  -14.3255   19.9000 C   0  0  0  0  0  0  0  0  0  0  0  0
    7.0863  -14.2319   20.2601 O   0  0  0  0  0  0  0  0  0  0  0  0
    9.1256  -15.2542   20.5338 N   0  0  0  0  0  0  0  0  0  0  0  0
    8.7304  -16.1130   21.6182 C   0  0  1  0  0  0  0  0  0  0  0  0
    9.5645  -17.3514   21.7122 C   0  0  0  0  0  0  0  0  0  0  0  0
    9.3664  -18.2951   20.6021 C   0  0  0  0  0  0  0  0  0  0  0  0
    8.3106  -18.9192   20.3675 O   0  0  0  0  0  0  0  0  0  0  0  0
    8.9642  -15.3409   22.8934 C   0  0  0  0  0  0  0  0  0  0  0  0
   10.0799  -14.8038   23.1228 O   0  0  0  0  0  0  0  0  0  0  0  0
   10.4407  -18.5079   19.7475 O   0  0  0  0  0  0  0  0  0  0  0  0
    5.5879  -12.1576   26.9926 C   0  0  0  0  0  0  0  0  0  0  0  0
    6.8840  -12.7276   26.5413 C   0  0  2  0  0  0  0  0  0  0  0  0
    7.9359  -11.5982   26.4113 C   0  0  0  0  0  0  0  0  0  0  0  0
    6.9232  -13.6167   25.3688 C   0  0  0  0  0  0  0  0  0  0  0  0
    8.1360  -14.3743   25.0960 C   0  0  2  0  0  0  0  0  0  0  0  0
    7.9543  -15.1929   23.8656 N   0  0  0  0  0  0  0  0  0  0  0  0
    8.7130  -15.1943   26.1477 C   0  0  0  0  0  0  0  0  0  0  0  0
    8.3415  -16.5608   26.2129 O   0  0  0  0  0  0  0  0  0  0  0  0
    9.5120  -14.8397   27.0195 O   0  0  0  0  0  0  0  0  0  0  0  0
  1  2  1  0
  3  2  1  0
  4  3  2  0
  5  3  1  0
  6  5  1  0
  6  7  1  1
  8  7  1  0
  8 12  1  0
  9  8  2  0
 10  6  1  0
 10 18  1  0
 11 10  2  0
 14 13  1  6
 14 16  1  0
 14 15  1  0
 17 18  1  0
 17 16  1  1
 19 17  1  0
 20 19  1  0
 21 19  2  0
M  END
$$$$
