GDL.pdb
     RDKit          3D

 21 20  0  0  1  0  0  0  0  0999 V2000
    7.6782  -12.6074   19.1058 N   0  0  0  0  0  0  0  0  0  0  0  0
    8.5460  -13.7136   19.4143 C   0  0  0  0  0  0  0  0  0  0  0  0
    8.1358  -14.4262   20.6467 C   0  0  0  0  0  0  0  0  0  0  0  0
    6.9292  -14.3718   20.9943 O   0  0  0  0  0  0  0  0  0  0  0  0
    9.0458  -15.1528   21.4288 N   0  0  0  0  0  0  0  0  0  0  0  0
    8.6813  -16.0702   22.4753 C   0  0  1  0  0  0  0  0  0  0  0  0
    9.3683  -17.3935   22.3531 C   0  0  0  0  0  0  0  0  0  0  0  0
    8.8726  -18.2285   21.2489 C   0  0  0  0  0  0  0  0  0  0  0  0
    7.6985  -18.6350   21.1247 O   0  0  0  0  0  0  0  0  0  0  0  0
    9.1522  -15.4609   23.7730 C   0  0  0  0  0  0  0  0  0  0  0  0
   10.3706  -15.1987   23.9538 O   0  0  0  0  0  0  0  0  0  0  0  0
    9.7848  -18.5930   20.2666 O   0  0  0  0  0  0  0  0  0  0  0  0
    7.8464  -11.7117   25.3530 C   0  0  0  0  0  0  0  0  0  0  0  0
    7.0197  -12.7961   25.9438 C   0  0  2  0  0  0  0  0  0  0  0  0
    5.8138  -12.1833   26.6984 C   0  0  0  0  0  0  0  0  0  0  0  0
    7.6609  -13.8484   26.7489 C   0  0  0  0  0  0  0  0  0  0  0  0
    8.7082  -14.6605   26.1465 C   0  0  2  0  0  0  0  0  0  0  0  0
    8.2566  -15.1653   24.8206 N   0  0  0  0  0  0  0  0  0  0  0  0
    9.2909  -15.7499   26.9116 C   0  0  0  0  0  0  0  0  0  0  0  0
   10.1227  -15.4264   28.0129 O   0  0  0  0  0  0  0  0  0  0  0  0
    9.1478  -16.9607   26.7174 O   0  0  0  0  0  0  0  0  0  0  0  0
  1  2  1  0
  3  2  1  0
  4  3  2  0
  5  3  1  0
  6  5  1  0
  6  7  1  6
  8  7  1  0
  8 12  1  0
  9  8  2  0
 10  6  1  0
 10 18  1  0
 11 10  2  0
 14 13  1  1
 14 16  1  0
 14 15  1  0
 17 18  1  0
 17 16  1  1
 19 17  1  0
 20 19  1  0
 21 19  2  0
M  END
$$$$
