GDL.pdb
     RDKit          3D

 21 20  0  0  1  0  0  0  0  0999 V2000
    7.6129  -12.7169   18.2650 N   0  0  0  0  0  0  0  0  0  0  0  0
    8.7772  -13.3433   18.8343 C   0  0  0  0  0  0  0  0  0  0  0  0
    8.4462  -14.1973   19.9988 C   0  0  0  0  0  0  0  0  0  0  0  0
    7.2872  -14.1279   20.4799 O   0  0  0  0  0  0  0  0  0  0  0  0
    9.3796  -15.0723   20.5742 N   0  0  0  0  0  0  0  0  0  0  0  0
    9.0736  -16.0577   21.5766 C   0  0  1  0  0  0  0  0  0  0  0  0
   10.0247  -17.2125   21.5656 C   0  0  0  0  0  0  0  0  0  0  0  0
    9.7183  -18.2338   20.5531 C   0  0  0  0  0  0  0  0  0  0  0  0
   10.4904  -18.5989   19.6422 O   0  0  0  0  0  0  0  0  0  0  0  0
    9.2352  -15.3820   22.9161 C   0  0  0  0  0  0  0  0  0  0  0  0
   10.2967  -14.7669   23.2004 O   0  0  0  0  0  0  0  0  0  0  0  0
    8.4698  -18.8397   20.6169 O   0  0  0  0  0  0  0  0  0  0  0  0
    5.6778  -12.4607   26.9597 C   0  0  0  0  0  0  0  0  0  0  0  0
    7.0032  -12.9777   26.5302 C   0  0  2  0  0  0  0  0  0  0  0  0
    8.0095  -11.8061   26.4135 C   0  0  0  0  0  0  0  0  0  0  0  0
    7.0974  -13.8669   25.3610 C   0  0  0  0  0  0  0  0  0  0  0  0
    8.3038  -14.6591   25.1703 C   0  0  2  0  0  0  0  0  0  0  0  0
    8.2160  -15.4130   23.8893 N   0  0  0  0  0  0  0  0  0  0  0  0
    8.7446  -15.5485   26.2315 C   0  0  0  0  0  0  0  0  0  0  0  0
    9.7877  -15.1091   27.0849 O   0  0  0  0  0  0  0  0  0  0  0  0
    8.3110  -16.6746   26.4922 O   0  0  0  0  0  0  0  0  0  0  0  0
  1  2  1  0
  3  2  1  0
  4  3  2  0
  5  3  1  0
  6  5  1  0
  6  7  1  1
  8  7  1  0
  8 12  1  0
  9  8  2  0
 10  6  1  0
 10 18  1  0
 11 10  2  0
 14 13  1  6
 14 16  1  0
 14 15  1  0
 17 18  1  0
 17 16  1  1
 19 17  1  0
 20 19  1  0
 21 19  2  0
M  END
$$$$
