HHS.pdb
     RDKit          3D

 27 28  0  0  1  0  0  0  0  0999 V2000
    8.3837  -20.5789   18.7578 N   0  0  0  0  0  0  0  0  0  0  0  0
    9.1232  -19.7564   19.6831 C   0  0  1  0  0  0  0  0  0  0  0  0
    9.0908  -18.3398   19.1379 C   0  0  0  0  0  0  0  0  0  0  0  0
    9.8634  -18.2085   17.8801 C   0  0  0  0  0  0  0  0  0  0  0  0
    9.3782  -17.7259   16.6671 C   0  0  0  0  0  0  0  0  0  0  0  0
   10.3630  -17.7596   15.7739 N   0  0  0  0  0  0  0  0  0  0  0  0
   11.4749  -18.2467   16.3585 C   0  0  0  0  0  0  0  0  0  0  0  0
   11.1509  -18.5140   17.6393 N   0  0  0  0  0  0  0  0  0  0  0  0
    8.4846  -19.7254   21.0280 C   0  0  0  0  0  0  0  0  0  0  0  0
    7.5080  -18.9485   21.2245 O   0  0  0  0  0  0  0  0  0  0  0  0
    8.9072  -20.5227   22.1184 N   0  0  0  0  0  0  0  0  0  0  0  0
    8.3104  -20.5790   23.4095 C   0  0  1  0  0  0  0  0  0  0  0  0
    7.2978  -21.6361   23.6395 C   0  0  0  0  0  0  0  0  0  0  0  0
    6.0530  -21.5169   22.8541 C   0  0  0  0  0  0  0  0  0  0  0  0
    4.9130  -20.7736   23.0647 C   0  0  0  0  0  0  0  0  0  0  0  0
    4.0413  -21.0250   22.0485 N   0  0  0  0  0  0  0  0  0  0  0  0
    4.6120  -21.9068   21.2117 C   0  0  0  0  0  0  0  0  0  0  0  0
    5.8059  -22.1973   21.6918 N   0  0  0  0  0  0  0  0  0  0  0  0
    9.4263  -20.6586   24.4169 C   0  0  0  0  0  0  0  0  0  0  0  0
   10.4752  -21.3218   24.2135 O   0  0  0  0  0  0  0  0  0  0  0  0
    9.9215  -17.8388   27.5140 O   0  0  0  0  0  0  0  0  0  0  0  0
   10.8960  -18.6957   27.0692 C   0  0  0  0  0  0  0  0  0  0  0  0
   10.3761  -20.0623   26.6877 C   0  0  2  0  0  0  0  0  0  0  0  0
    9.3503  -19.9809   25.6637 N   0  0  0  0  0  0  0  0  0  0  0  0
    9.9897  -20.8774   27.8279 C   0  0  0  0  0  0  0  0  0  0  0  0
   10.8257  -21.1905   28.6992 O   0  0  0  0  0  0  0  0  0  0  0  0
    8.6910  -21.3200   27.9680 O   0  0  0  0  0  0  0  0  0  0  0  0
  2  1  1  6
  3  2  1  0
  4  3  1  0
  5  4  2  0
  6  7  1  0
  6  5  1  0
  7  8  2  0
  8  4  1  0
  9  2  1  0
  9 10  2  0
 11  9  1  0
 12 11  1  0
 12 13  1  6
 13 14  1  0
 14 18  1  0
 14 15  2  0
 15 16  1  0
 17 16  1  0
 18 17  2  0
 19 12  1  0
 20 19  2  0
 22 21  1  0
 23 22  1  1
 23 24  1  0
 24 19  1  0
 25 23  1  0
 25 27  1  0
 26 25  2  0
M  END
$$$$
