HHS.pdb
     RDKit          3D

 27 28  0  0  1  0  0  0  0  0999 V2000
    9.0743  -17.3307   19.4977 N   0  0  0  0  0  0  0  0  0  0  0  0
    9.3938  -16.6247   20.7139 C   0  0  1  0  0  0  0  0  0  0  0  0
    8.1519  -15.8476   21.1125 C   0  0  0  0  0  0  0  0  0  0  0  0
    7.9641  -14.6333   20.2841 C   0  0  0  0  0  0  0  0  0  0  0  0
    8.7732  -14.2313   19.2242 C   0  0  0  0  0  0  0  0  0  0  0  0
    8.2889  -13.0959   18.7290 N   0  0  0  0  0  0  0  0  0  0  0  0
    7.1923  -12.7405   19.4264 C   0  0  0  0  0  0  0  0  0  0  0  0
    7.0109  -13.6880   20.3678 N   0  0  0  0  0  0  0  0  0  0  0  0
    9.7057  -17.5594   21.8304 C   0  0  0  0  0  0  0  0  0  0  0  0
    8.9689  -18.5703   22.0068 O   0  0  0  0  0  0  0  0  0  0  0  0
   10.7916  -17.3863   22.7215 N   0  0  0  0  0  0  0  0  0  0  0  0
   11.1691  -18.2615   23.7788 C   0  0  1  0  0  0  0  0  0  0  0  0
   12.6152  -18.5417   23.9392 C   0  0  0  0  0  0  0  0  0  0  0  0
   13.2199  -19.4134   22.9119 C   0  0  0  0  0  0  0  0  0  0  0  0
   12.6510  -20.1622   21.9059 C   0  0  0  0  0  0  0  0  0  0  0  0
   13.6457  -20.8043   21.2321 N   0  0  0  0  0  0  0  0  0  0  0  0
   14.8189  -20.4727   21.7953 C   0  0  0  0  0  0  0  0  0  0  0  0
   14.5637  -19.6472   22.7920 N   0  0  0  0  0  0  0  0  0  0  0  0
   10.5710  -17.7164   25.0482 C   0  0  0  0  0  0  0  0  0  0  0  0
   10.6751  -16.5081   25.3806 O   0  0  0  0  0  0  0  0  0  0  0  0
    7.1688  -19.1958   26.9608 O   0  0  0  0  0  0  0  0  0  0  0  0
    7.7924  -17.9902   27.1587 C   0  0  0  0  0  0  0  0  0  0  0  0
    9.2997  -18.0860   27.2072 C   0  0  2  0  0  0  0  0  0  0  0  0
    9.8500  -18.5491   25.9463 N   0  0  0  0  0  0  0  0  0  0  0  0
    9.7997  -18.8190   28.3589 C   0  0  0  0  0  0  0  0  0  0  0  0
   10.5758  -19.7843   28.2113 O   0  0  0  0  0  0  0  0  0  0  0  0
    9.4251  -18.4609   29.6371 O   0  0  0  0  0  0  0  0  0  0  0  0
  2  1  1  6
  3  2  1  0
  4  3  1  0
  5  4  2  0
  6  7  1  0
  6  5  1  0
  7  8  2  0
  8  4  1  0
  9  2  1  0
  9 10  2  0
 11  9  1  0
 12 11  1  0
 12 13  1  1
 13 14  1  0
 14 18  1  0
 14 15  2  0
 15 16  1  0
 17 16  1  0
 18 17  2  0
 19 12  1  0
 20 19  2  0
 22 21  1  0
 23 22  1  6
 23 24  1  0
 24 19  1  0
 25 23  1  0
 25 27  1  0
 26 25  2  0
M  END
$$$$
