HHS.pdb
     RDKit          3D

 27 28  0  0  1  0  0  0  0  0999 V2000
   10.0746  -15.5532   17.2863 N   0  0  0  0  0  0  0  0  0  0  0  0
   10.8337  -14.5569   18.0010 C   0  0  1  0  0  0  0  0  0  0  0  0
   10.1371  -14.3426   19.3328 C   0  0  0  0  0  0  0  0  0  0  0  0
    8.8026  -13.7189   19.1702 C   0  0  0  0  0  0  0  0  0  0  0  0
    8.2210  -12.7917   20.0314 C   0  0  0  0  0  0  0  0  0  0  0  0
    7.0230  -12.4650   19.5551 N   0  0  0  0  0  0  0  0  0  0  0  0
    6.7996  -13.1449   18.4135 C   0  0  0  0  0  0  0  0  0  0  0  0
    7.8933  -13.9021   18.1961 N   0  0  0  0  0  0  0  0  0  0  0  0
   12.2167  -15.0226   18.2973 C   0  0  0  0  0  0  0  0  0  0  0  0
   12.4088  -16.2431   18.5609 O   0  0  0  0  0  0  0  0  0  0  0  0
   13.3488  -14.1731   18.3029 N   0  0  0  0  0  0  0  0  0  0  0  0
   14.6916  -14.5513   18.5861 C   0  0  1  0  0  0  0  0  0  0  0  0
   15.7629  -13.6458   18.1083 C   0  0  0  0  0  0  0  0  0  0  0  0
   17.1449  -14.1375   18.2787 C   0  0  0  0  0  0  0  0  0  0  0  0
   18.2849  -13.5079   18.7264 C   0  0  0  0  0  0  0  0  0  0  0  0
   19.3140  -14.3994   18.6837 N   0  0  0  0  0  0  0  0  0  0  0  0
   18.8411  -15.5676   18.2201 C   0  0  0  0  0  0  0  0  0  0  0  0
   17.5535  -15.4099   17.9804 N   0  0  0  0  0  0  0  0  0  0  0  0
   14.7895  -14.7829   20.0704 C   0  0  0  0  0  0  0  0  0  0  0  0
   14.4372  -13.9197   20.9144 O   0  0  0  0  0  0  0  0  0  0  0  0
   13.6595  -17.8678   21.8213 O   0  0  0  0  0  0  0  0  0  0  0  0
   14.8646  -17.5942   22.4167 C   0  0  0  0  0  0  0  0  0  0  0  0
   15.4496  -16.2587   22.0198 C   0  0  2  0  0  0  0  0  0  0  0  0
   15.2910  -16.0027   20.5998 N   0  0  0  0  0  0  0  0  0  0  0  0
   16.8084  -16.0540   22.4948 C   0  0  0  0  0  0  0  0  0  0  0  0
   17.7319  -15.8046   21.6942 O   0  0  0  0  0  0  0  0  0  0  0  0
   17.1022  -16.1319   23.8401 O   0  0  0  0  0  0  0  0  0  0  0  0
  2  1  1  6
  3  2  1  0
  4  3  1  0
  5  4  2  0
  6  7  1  0
  6  5  1  0
  7  8  2  0
  8  4  1  0
  9  2  1  0
  9 10  2  0
 11  9  1  0
 12 11  1  0
 12 13  1  1
 13 14  1  0
 14 18  1  0
 14 15  2  0
 15 16  1  0
 17 16  1  0
 18 17  2  0
 19 12  1  0
 20 19  2  0
 22 21  1  0
 23 22  1  6
 23 24  1  0
 24 19  1  0
 25 23  1  0
 25 27  1  0
 26 25  2  0
M  END
$$$$
