HHS.pdb
     RDKit          3D

 27 28  0  0  1  0  0  0  0  0999 V2000
   13.6020  -14.0195   18.1263 N   0  0  0  0  0  0  0  0  0  0  0  0
   13.1385  -15.3058   18.5850 C   0  0  1  0  0  0  0  0  0  0  0  0
   14.3717  -16.1265   18.9177 C   0  0  0  0  0  0  0  0  0  0  0  0
   15.0797  -16.5879   17.7003 C   0  0  0  0  0  0  0  0  0  0  0  0
   16.3338  -16.1612   17.2705 C   0  0  0  0  0  0  0  0  0  0  0  0
   16.6335  -16.7976   16.1417 N   0  0  0  0  0  0  0  0  0  0  0  0
   15.6209  -17.6251   15.8174 C   0  0  0  0  0  0  0  0  0  0  0  0
   14.6853  -17.4833   16.7773 N   0  0  0  0  0  0  0  0  0  0  0  0
   12.3356  -15.1912   19.8338 C   0  0  0  0  0  0  0  0  0  0  0  0
   12.6828  -14.3501   20.7102 O   0  0  0  0  0  0  0  0  0  0  0  0
   11.1900  -15.9760   20.1076 N   0  0  0  0  0  0  0  0  0  0  0  0
   10.3109  -15.8350   21.2183 C   0  0  1  0  0  0  0  0  0  0  0  0
    8.8730  -15.6377   20.9202 C   0  0  0  0  0  0  0  0  0  0  0  0
    8.5339  -14.4145   20.1654 C   0  0  0  0  0  0  0  0  0  0  0  0
    8.0964  -14.2366   18.8718 C   0  0  0  0  0  0  0  0  0  0  0  0
    7.9376  -12.9019   18.6508 N   0  0  0  0  0  0  0  0  0  0  0  0
    8.2661  -12.2461   19.7756 C   0  0  0  0  0  0  0  0  0  0  0  0
    8.6197  -13.1458   20.6732 N   0  0  0  0  0  0  0  0  0  0  0  0
   10.5277  -17.0237   22.1163 C   0  0  0  0  0  0  0  0  0  0  0  0
   10.3131  -18.2041   21.7396 O   0  0  0  0  0  0  0  0  0  0  0  0
   13.5488  -17.7022   24.6216 O   0  0  0  0  0  0  0  0  0  0  0  0
   12.5467  -18.5752   24.2823 C   0  0  0  0  0  0  0  0  0  0  0  0
   11.1620  -17.9772   24.3752 C   0  0  2  0  0  0  0  0  0  0  0  0
   10.9909  -16.8709   23.4511 N   0  0  0  0  0  0  0  0  0  0  0  0
   10.7540  -17.6620   25.7346 C   0  0  0  0  0  0  0  0  0  0  0  0
   10.3961  -16.5068   26.0402 O   0  0  0  0  0  0  0  0  0  0  0  0
   10.7549  -18.6347   26.7124 O   0  0  0  0  0  0  0  0  0  0  0  0
  2  1  1  1
  3  2  1  0
  4  3  1  0
  5  4  2  0
  6  7  1  0
  6  5  1  0
  7  8  2  0
  8  4  1  0
  9  2  1  0
  9 10  2  0
 11  9  1  0
 12 11  1  0
 12 13  1  6
 13 14  1  0
 14 18  1  0
 14 15  2  0
 15 16  1  0
 17 16  1  0
 18 17  2  0
 19 12  1  0
 20 19  2  0
 22 21  1  0
 23 22  1  1
 23 24  1  0
 24 19  1  0
 25 23  1  0
 25 27  1  0
 26 25  2  0
M  END
$$$$
