HHS.pdb
     RDKit          3D

 27 28  0  0  1  0  0  0  0  0999 V2000
    9.4215  -16.4894   18.7471 N   0  0  0  0  0  0  0  0  0  0  0  0
   10.0130  -16.0592   19.9899 C   0  0  1  0  0  0  0  0  0  0  0  0
    8.9133  -15.3878   20.7931 C   0  0  0  0  0  0  0  0  0  0  0  0
    8.3323  -14.2257   20.0803 C   0  0  0  0  0  0  0  0  0  0  0  0
    8.9632  -13.0050   19.8528 C   0  0  0  0  0  0  0  0  0  0  0  0
    8.1279  -12.2151   19.1842 N   0  0  0  0  0  0  0  0  0  0  0  0
    6.9734  -12.8745   18.9660 C   0  0  0  0  0  0  0  0  0  0  0  0
    7.1172  -14.0956   19.5185 N   0  0  0  0  0  0  0  0  0  0  0  0
   10.5064  -17.2104   20.7954 C   0  0  0  0  0  0  0  0  0  0  0  0
    9.7238  -18.1741   21.0297 O   0  0  0  0  0  0  0  0  0  0  0  0
   11.8164  -17.2969   21.3242 N   0  0  0  0  0  0  0  0  0  0  0  0
   12.3779  -18.4029   22.0226 C   0  0  1  0  0  0  0  0  0  0  0  0
   13.6849  -18.9106   21.5435 C   0  0  0  0  0  0  0  0  0  0  0  0
   13.6568  -19.6624   20.2728 C   0  0  0  0  0  0  0  0  0  0  0  0
   12.6052  -20.1216   19.5114 C   0  0  0  0  0  0  0  0  0  0  0  0
   13.1109  -20.7733   18.4273 N   0  0  0  0  0  0  0  0  0  0  0  0
   14.4514  -20.7304   18.4968 C   0  0  0  0  0  0  0  0  0  0  0  0
   14.7731  -20.0706   19.5929 N   0  0  0  0  0  0  0  0  0  0  0  0
   12.4337  -18.0319   23.4806 C   0  0  0  0  0  0  0  0  0  0  0  0
   13.0048  -16.9898   23.8920 O   0  0  0  0  0  0  0  0  0  0  0  0
    9.7632  -19.4721   26.4142 O   0  0  0  0  0  0  0  0  0  0  0  0
   10.6047  -18.3973   26.5498 C   0  0  0  0  0  0  0  0  0  0  0  0
   11.9554  -18.5971   25.9025 C   0  0  2  0  0  0  0  0  0  0  0  0
   11.8371  -18.8498   24.4780 N   0  0  0  0  0  0  0  0  0  0  0  0
   12.7942  -19.5638   26.5923 C   0  0  0  0  0  0  0  0  0  0  0  0
   13.2033  -20.5854   26.0050 O   0  0  0  0  0  0  0  0  0  0  0  0
   13.1534  -19.3696   27.9097 O   0  0  0  0  0  0  0  0  0  0  0  0
  2  1  1  6
  3  2  1  0
  4  3  1  0
  5  4  2  0
  6  7  1  0
  6  5  1  0
  7  8  2  0
  8  4  1  0
  9  2  1  0
  9 10  2  0
 11  9  1  0
 12 11  1  0
 12 13  1  6
 13 14  1  0
 14 18  1  0
 14 15  2  0
 15 16  1  0
 17 16  1  0
 18 17  2  0
 19 12  1  0
 20 19  2  0
 22 21  1  0
 23 22  1  1
 23 24  1  0
 24 19  1  0
 25 23  1  0
 25 27  1  0
 26 25  2  0
M  END
$$$$
