HHS.pdb
     RDKit          3D

 27 28  0  0  1  0  0  0  0  0999 V2000
    9.5039  -17.3317   18.5044 N   0  0  0  0  0  0  0  0  0  0  0  0
    8.7216  -17.7703   19.6337 C   0  0  1  0  0  0  0  0  0  0  0  0
    9.1488  -19.1946   19.9402 C   0  0  0  0  0  0  0  0  0  0  0  0
    8.5863  -20.1660   18.9726 C   0  0  0  0  0  0  0  0  0  0  0  0
    7.3755  -20.0408   18.2960 C   0  0  0  0  0  0  0  0  0  0  0  0
    7.2128  -21.1075   17.5185 N   0  0  0  0  0  0  0  0  0  0  0  0
    8.2733  -21.9261   17.6619 C   0  0  0  0  0  0  0  0  0  0  0  0
    9.0976  -21.3362   18.5504 N   0  0  0  0  0  0  0  0  0  0  0  0
    8.9997  -16.9560   20.8490 C   0  0  0  0  0  0  0  0  0  0  0  0
   10.1885  -16.6040   21.0916 O   0  0  0  0  0  0  0  0  0  0  0  0
    8.0028  -16.5438   21.7652 N   0  0  0  0  0  0  0  0  0  0  0  0
    8.1922  -15.7220   22.9119 C   0  0  1  0  0  0  0  0  0  0  0  0
    7.0085  -14.9899   23.4206 C   0  0  0  0  0  0  0  0  0  0  0  0
    7.2258  -14.1806   24.6366 C   0  0  0  0  0  0  0  0  0  0  0  0
    8.3584  -13.9516   25.3857 C   0  0  0  0  0  0  0  0  0  0  0  0
    8.0290  -13.1362   26.4260 N   0  0  0  0  0  0  0  0  0  0  0  0
    6.7189  -12.8533   26.3417 C   0  0  0  0  0  0  0  0  0  0  0  0
    6.2443  -13.4742   25.2789 N   0  0  0  0  0  0  0  0  0  0  0  0
    8.8090  -16.5811   23.9833 C   0  0  0  0  0  0  0  0  0  0  0  0
    8.2798  -17.6503   24.3810 O   0  0  0  0  0  0  0  0  0  0  0  0
   12.8322  -15.9360   25.2855 O   0  0  0  0  0  0  0  0  0  0  0  0
   12.1955  -17.1508   25.3053 C   0  0  0  0  0  0  0  0  0  0  0  0
   10.7133  -17.0559   25.5839 C   0  0  2  0  0  0  0  0  0  0  0  0
   10.0347  -16.2235   24.6073 N   0  0  0  0  0  0  0  0  0  0  0  0
   10.4009  -16.7032   26.9593 C   0  0  0  0  0  0  0  0  0  0  0  0
    9.6444  -15.7448   27.2147 O   0  0  0  0  0  0  0  0  0  0  0  0
   10.9353  -17.4219   28.0083 O   0  0  0  0  0  0  0  0  0  0  0  0
  2  1  1  6
  3  2  1  0
  4  3  1  0
  5  4  2  0
  6  7  1  0
  6  5  1  0
  7  8  2  0
  8  4  1  0
  9  2  1  0
  9 10  2  0
 11  9  1  0
 12 11  1  0
 12 13  1  1
 13 14  1  0
 14 18  1  0
 14 15  2  0
 15 16  1  0
 17 16  1  0
 18 17  2  0
 19 12  1  0
 20 19  2  0
 22 21  1  0
 23 22  1  1
 23 24  1  0
 24 19  1  0
 25 23  1  0
 25 27  1  0
 26 25  2  0
M  END
$$$$
