HHS.pdb
     RDKit          3D

 27 28  0  0  1  0  0  0  0  0999 V2000
   10.6597  -18.4604   18.0312 N   0  0  0  0  0  0  0  0  0  0  0  0
   11.7992  -17.6600   18.4062 C   0  0  1  0  0  0  0  0  0  0  0  0
   12.1244  -16.7712   17.2190 C   0  0  0  0  0  0  0  0  0  0  0  0
   12.2098  -17.5391   15.9544 C   0  0  0  0  0  0  0  0  0  0  0  0
   11.9725  -18.9034   15.8066 C   0  0  0  0  0  0  0  0  0  0  0  0
   12.1471  -19.2275   14.5286 N   0  0  0  0  0  0  0  0  0  0  0  0
   12.4902  -18.1246   13.8348 C   0  0  0  0  0  0  0  0  0  0  0  0
   12.5231  -17.1081   14.7194 N   0  0  0  0  0  0  0  0  0  0  0  0
   11.4920  -16.7645   19.5556 C   0  0  0  0  0  0  0  0  0  0  0  0
   12.3423  -15.8956   19.8993 O   0  0  0  0  0  0  0  0  0  0  0  0
   10.2899  -16.8241   20.3003 N   0  0  0  0  0  0  0  0  0  0  0  0
    9.9896  -16.0959   21.4860 C   0  0  1  0  0  0  0  0  0  0  0  0
    8.6968  -15.3730   21.5249 C   0  0  0  0  0  0  0  0  0  0  0  0
    8.5184  -14.3176   20.5075 C   0  0  0  0  0  0  0  0  0  0  0  0
    9.3886  -13.7971   19.5757 C   0  0  0  0  0  0  0  0  0  0  0  0
    8.7392  -12.8253   18.8760 N   0  0  0  0  0  0  0  0  0  0  0  0
    7.4867  -12.7293   19.3506 C   0  0  0  0  0  0  0  0  0  0  0  0
    7.3579  -13.6159   20.3189 N   0  0  0  0  0  0  0  0  0  0  0  0
   10.1211  -17.0491   22.6438 C   0  0  0  0  0  0  0  0  0  0  0  0
    9.3326  -18.0128   22.8195 O   0  0  0  0  0  0  0  0  0  0  0  0
   13.7327  -18.0409   24.4286 O   0  0  0  0  0  0  0  0  0  0  0  0
   12.5418  -18.7164   24.5129 C   0  0  0  0  0  0  0  0  0  0  0  0
   11.3460  -17.8168   24.7233 C   0  0  2  0  0  0  0  0  0  0  0  0
   11.1549  -16.9068   23.6086 N   0  0  0  0  0  0  0  0  0  0  0  0
   11.3365  -17.1542   26.0173 C   0  0  0  0  0  0  0  0  0  0  0  0
   11.4490  -17.8128   27.0707 O   0  0  0  0  0  0  0  0  0  0  0  0
   11.2031  -15.7842   26.1048 O   0  0  0  0  0  0  0  0  0  0  0  0
  2  1  1  6
  3  2  1  0
  4  3  1  0
  5  4  2  0
  6  7  1  0
  6  5  1  0
  7  8  2  0
  8  4  1  0
  9  2  1  0
  9 10  2  0
 11  9  1  0
 12 11  1  0
 12 13  1  6
 13 14  1  0
 14 18  1  0
 14 15  2  0
 15 16  1  0
 17 16  1  0
 18 17  2  0
 19 12  1  0
 20 19  2  0
 22 21  1  0
 23 22  1  6
 23 24  1  0
 24 19  1  0
 25 23  1  0
 25 27  1  0
 26 25  2  0
M  END
$$$$
