HHS.pdb
     RDKit          3D

 27 28  0  0  1  0  0  0  0  0999 V2000
   13.5213  -16.2566   13.6331 N   0  0  0  0  0  0  0  0  0  0  0  0
   12.4193  -16.8769   14.3263 C   0  0  1  0  0  0  0  0  0  0  0  0
   12.8758  -18.2691   14.7246 C   0  0  0  0  0  0  0  0  0  0  0  0
   12.7959  -19.2263   13.5961 C   0  0  0  0  0  0  0  0  0  0  0  0
   12.1792  -18.9964   12.3687 C   0  0  0  0  0  0  0  0  0  0  0  0
   12.3133  -20.0854   11.6170 N   0  0  0  0  0  0  0  0  0  0  0  0
   12.9953  -21.0195   12.3081 C   0  0  0  0  0  0  0  0  0  0  0  0
   13.2799  -20.4783   13.5094 N   0  0  0  0  0  0  0  0  0  0  0  0
   12.0754  -16.1508   15.5800 C   0  0  0  0  0  0  0  0  0  0  0  0
   13.0076  -15.7726   16.3442 O   0  0  0  0  0  0  0  0  0  0  0  0
   10.7505  -15.8516   15.9779 N   0  0  0  0  0  0  0  0  0  0  0  0
   10.3546  -15.1634   17.1594 C   0  0  1  0  0  0  0  0  0  0  0  0
    8.9952  -14.5740   17.1739 C   0  0  0  0  0  0  0  0  0  0  0  0
    8.5719  -13.9631   18.4499 C   0  0  0  0  0  0  0  0  0  0  0  0
    9.2085  -13.8678   19.6673 C   0  0  0  0  0  0  0  0  0  0  0  0
    8.3844  -13.2160   20.5342 N   0  0  0  0  0  0  0  0  0  0  0  0
    7.2509  -12.9041   19.8850 C   0  0  0  0  0  0  0  0  0  0  0  0
    7.3645  -13.3485   18.6481 N   0  0  0  0  0  0  0  0  0  0  0  0
   10.5576  -16.1046   18.3167 C   0  0  0  0  0  0  0  0  0  0  0  0
   10.3279  -17.3382   18.2337 O   0  0  0  0  0  0  0  0  0  0  0  0
   13.5736  -17.1196   20.4474 O   0  0  0  0  0  0  0  0  0  0  0  0
   12.2800  -17.5748   20.4151 C   0  0  0  0  0  0  0  0  0  0  0  0
   11.2526  -16.5089   20.7183 C   0  0  2  0  0  0  0  0  0  0  0  0
   11.0243  -15.6418   19.5768 N   0  0  0  0  0  0  0  0  0  0  0  0
   11.5127  -15.7835   21.9512 C   0  0  0  0  0  0  0  0  0  0  0  0
   11.6680  -14.5459   21.9409 O   0  0  0  0  0  0  0  0  0  0  0  0
   11.5927  -16.4503   23.1558 O   0  0  0  0  0  0  0  0  0  0  0  0
  2  1  1  1
  3  2  1  0
  4  3  1  0
  5  4  2  0
  6  7  1  0
  6  5  1  0
  7  8  2  0
  8  4  1  0
  9  2  1  0
  9 10  2  0
 11  9  1  0
 12 11  1  0
 12 13  1  6
 13 14  1  0
 14 18  1  0
 14 15  2  0
 15 16  1  0
 17 16  1  0
 18 17  2  0
 19 12  1  0
 20 19  2  0
 22 21  1  0
 23 22  1  6
 23 24  1  0
 24 19  1  0
 25 23  1  0
 25 27  1  0
 26 25  2  0
M  END
$$$$
