HHS.pdb
     RDKit          3D

 27 28  0  0  1  0  0  0  0  0999 V2000
   11.1053  -17.1240   15.4743 N   0  0  0  0  0  0  0  0  0  0  0  0
   12.1293  -16.1087   15.4557 C   0  0  1  0  0  0  0  0  0  0  0  0
   11.7240  -15.0922   14.4033 C   0  0  0  0  0  0  0  0  0  0  0  0
   11.3427  -15.7357   13.1240 C   0  0  0  0  0  0  0  0  0  0  0  0
   12.0897  -15.7287   11.9486 C   0  0  0  0  0  0  0  0  0  0  0  0
   11.4231  -16.4077   11.0194 N   0  0  0  0  0  0  0  0  0  0  0  0
   10.2670  -16.8587   11.5442 C   0  0  0  0  0  0  0  0  0  0  0  0
   10.2363  -16.4398   12.8249 N   0  0  0  0  0  0  0  0  0  0  0  0
   12.2159  -15.3866   16.7551 C   0  0  0  0  0  0  0  0  0  0  0  0
   13.0607  -14.4561   16.8836 O   0  0  0  0  0  0  0  0  0  0  0  0
   11.4001  -15.6794   17.8740 N   0  0  0  0  0  0  0  0  0  0  0  0
   11.4285  -15.0264   19.1385 C   0  0  1  0  0  0  0  0  0  0  0  0
   10.1561  -14.9657   19.8956 C   0  0  0  0  0  0  0  0  0  0  0  0
    9.1180  -14.0748   19.3395 C   0  0  0  0  0  0  0  0  0  0  0  0
    9.1493  -13.1904   18.2844 C   0  0  0  0  0  0  0  0  0  0  0  0
    7.9277  -12.5959   18.1846 N   0  0  0  0  0  0  0  0  0  0  0  0
    7.1382  -13.0893   19.1524 C   0  0  0  0  0  0  0  0  0  0  0  0
    7.8467  -13.9669   19.8366 N   0  0  0  0  0  0  0  0  0  0  0  0
   12.5211  -15.6684   19.9511 C   0  0  0  0  0  0  0  0  0  0  0  0
   12.6853  -16.9143   19.9992 O   0  0  0  0  0  0  0  0  0  0  0  0
   16.1591  -14.4853   19.9226 O   0  0  0  0  0  0  0  0  0  0  0  0
   15.8166  -14.6481   21.2408 C   0  0  0  0  0  0  0  0  0  0  0  0
   14.5539  -15.4525   21.4461 C   0  0  2  0  0  0  0  0  0  0  0  0
   13.4333  -14.8905   20.7143 N   0  0  0  0  0  0  0  0  0  0  0  0
   14.2547  -15.7197   22.8436 C   0  0  0  0  0  0  0  0  0  0  0  0
   13.1573  -15.3872   23.3346 O   0  0  0  0  0  0  0  0  0  0  0  0
   15.1789  -16.3462   23.6532 O   0  0  0  0  0  0  0  0  0  0  0  0
  2  1  1  1
  3  2  1  0
  4  3  1  0
  5  4  2  0
  6  7  1  0
  6  5  1  0
  7  8  2  0
  8  4  1  0
  9  2  1  0
  9 10  2  0
 11  9  1  0
 12 11  1  0
 12 13  1  1
 13 14  1  0
 14 18  1  0
 14 15  2  0
 15 16  1  0
 17 16  1  0
 18 17  2  0
 19 12  1  0
 20 19  2  0
 22 21  1  0
 23 22  1  1
 23 24  1  0
 24 19  1  0
 25 23  1  0
 25 27  1  0
 26 25  2  0
M  END
$$$$
