HHS.pdb
     RDKit          3D

 27 28  0  0  1  0  0  0  0  0999 V2000
   11.0962  -15.4497   14.4304 N   0  0  0  0  0  0  0  0  0  0  0  0
   11.4363  -16.3258   15.5241 C   0  0  1  0  0  0  0  0  0  0  0  0
   12.7631  -16.9752   15.1733 C   0  0  0  0  0  0  0  0  0  0  0  0
   12.6266  -17.9688   14.0823 C   0  0  0  0  0  0  0  0  0  0  0  0
   11.6341  -18.9403   13.9783 C   0  0  0  0  0  0  0  0  0  0  0  0
   11.8429  -19.6414   12.8676 N   0  0  0  0  0  0  0  0  0  0  0  0
   12.9360  -19.1639   12.2412 C   0  0  0  0  0  0  0  0  0  0  0  0
   13.3985  -18.1470   12.9953 N   0  0  0  0  0  0  0  0  0  0  0  0
   11.6361  -15.5738   16.7937 C   0  0  0  0  0  0  0  0  0  0  0  0
   12.2886  -14.4923   16.7688 O   0  0  0  0  0  0  0  0  0  0  0  0
   11.1344  -15.9984   18.0472 N   0  0  0  0  0  0  0  0  0  0  0  0
   11.1284  -15.2480   19.2568 C   0  0  1  0  0  0  0  0  0  0  0  0
    9.8085  -14.9575   19.8643 C   0  0  0  0  0  0  0  0  0  0  0  0
    8.8635  -14.2001   19.0191 C   0  0  0  0  0  0  0  0  0  0  0  0
    8.8720  -12.8897   18.5957 C   0  0  0  0  0  0  0  0  0  0  0  0
    7.7603  -12.6749   17.8384 N   0  0  0  0  0  0  0  0  0  0  0  0
    7.0611  -13.8199   17.7812 C   0  0  0  0  0  0  0  0  0  0  0  0
    7.7177  -14.7238   18.4827 N   0  0  0  0  0  0  0  0  0  0  0  0
   12.0366  -15.9540   20.2279 C   0  0  0  0  0  0  0  0  0  0  0  0
   12.0601  -17.2060   20.3444 O   0  0  0  0  0  0  0  0  0  0  0  0
   15.7795  -14.9028   21.0085 O   0  0  0  0  0  0  0  0  0  0  0  0
   15.1044  -15.0946   22.1870 C   0  0  0  0  0  0  0  0  0  0  0  0
   13.8138  -15.8648   22.0300 C   0  0  2  0  0  0  0  0  0  0  0  0
   12.9239  -15.2336   21.0724 N   0  0  0  0  0  0  0  0  0  0  0  0
   13.1690  -16.1842   23.2934 C   0  0  0  0  0  0  0  0  0  0  0  0
   12.0113  -15.7879   23.5354 O   0  0  0  0  0  0  0  0  0  0  0  0
   13.8255  -16.9317   24.2486 O   0  0  0  0  0  0  0  0  0  0  0  0
  2  1  1  6
  3  2  1  0
  4  3  1  0
  5  4  2  0
  6  7  1  0
  6  5  1  0
  7  8  2  0
  8  4  1  0
  9  2  1  0
  9 10  2  0
 11  9  1  0
 12 11  1  0
 12 13  1  1
 13 14  1  0
 14 18  1  0
 14 15  2  0
 15 16  1  0
 17 16  1  0
 18 17  2  0
 19 12  1  0
 20 19  2  0
 22 21  1  0
 23 22  1  1
 23 24  1  0
 24 19  1  0
 25 23  1  0
 25 27  1  0
 26 25  2  0
M  END
$$$$
