HHS.pdb
     RDKit          3D

 27 28  0  0  1  0  0  0  0  0999 V2000
   13.0828  -14.2002   17.1475 N   0  0  0  0  0  0  0  0  0  0  0  0
   13.3954  -15.0267   18.2872 C   0  0  1  0  0  0  0  0  0  0  0  0
   14.7747  -14.6124   18.7680 C   0  0  0  0  0  0  0  0  0  0  0  0
   15.8350  -14.9719   17.7971 C   0  0  0  0  0  0  0  0  0  0  0  0
   16.1609  -16.2598   17.3792 C   0  0  0  0  0  0  0  0  0  0  0  0
   17.1613  -16.1812   16.5065 N   0  0  0  0  0  0  0  0  0  0  0  0
   17.5019  -14.8885   16.3382 C   0  0  0  0  0  0  0  0  0  0  0  0
   16.6840  -14.1685   17.1315 N   0  0  0  0  0  0  0  0  0  0  0  0
   12.4490  -14.7968   19.4136 C   0  0  0  0  0  0  0  0  0  0  0  0
   12.3920  -13.6504   19.9414 O   0  0  0  0  0  0  0  0  0  0  0  0
   11.5949  -15.7950   19.9400 N   0  0  0  0  0  0  0  0  0  0  0  0
   10.6265  -15.6261   20.9696 C   0  0  1  0  0  0  0  0  0  0  0  0
    9.2030  -15.7848   20.5899 C   0  0  0  0  0  0  0  0  0  0  0  0
    8.6664  -14.7675   19.6637 C   0  0  0  0  0  0  0  0  0  0  0  0
    8.4560  -14.7978   18.3031 C   0  0  0  0  0  0  0  0  0  0  0  0
    7.9505  -13.5927   17.9187 N   0  0  0  0  0  0  0  0  0  0  0  0
    7.8421  -12.8141   19.0075 C   0  0  0  0  0  0  0  0  0  0  0  0
    8.2675  -13.5134   20.0420 N   0  0  0  0  0  0  0  0  0  0  0  0
   11.0014  -16.5528   22.0952 C   0  0  0  0  0  0  0  0  0  0  0  0
   11.4330  -17.7173   21.8974 O   0  0  0  0  0  0  0  0  0  0  0  0
    9.8593  -15.8251   26.1720 O   0  0  0  0  0  0  0  0  0  0  0  0
   11.1245  -16.2753   25.8925 C   0  0  0  0  0  0  0  0  0  0  0  0
   11.2318  -17.0088   24.5757 C   0  0  2  0  0  0  0  0  0  0  0  0
   10.8852  -16.1545   23.4545 N   0  0  0  0  0  0  0  0  0  0  0  0
   10.5389  -18.2869   24.5631 C   0  0  0  0  0  0  0  0  0  0  0  0
    9.5551  -18.4705   23.8185 O   0  0  0  0  0  0  0  0  0  0  0  0
   10.9563  -19.3210   25.3747 O   0  0  0  0  0  0  0  0  0  0  0  0
  2  1  1  6
  3  2  1  0
  4  3  1  0
  5  4  2  0
  6  7  1  0
  6  5  1  0
  7  8  2  0
  8  4  1  0
  9  2  1  0
  9 10  2  0
 11  9  1  0
 12 11  1  0
 12 13  1  6
 13 14  1  0
 14 18  1  0
 14 15  2  0
 15 16  1  0
 17 16  1  0
 18 17  2  0
 19 12  1  0
 20 19  2  0
 22 21  1  0
 23 22  1  1
 23 24  1  0
 24 19  1  0
 25 23  1  0
 25 27  1  0
 26 25  2  0
M  END
$$$$
