QFE.pdb
     RDKit          3D

 30 30  0  0  1  0  0  0  0  0999 V2000
    7.7216  -12.7137   16.9664 N   0  0  0  0  0  0  0  0  0  0  0  0
    7.5550  -13.9991   16.3979 C   0  0  0  0  0  0  0  0  0  0  0  0
    6.9389  -14.1040   15.3174 O   0  0  0  0  0  0  0  0  0  0  0  0
    8.0915  -15.2167   17.0510 C   0  0  0  0  0  0  0  0  0  0  0  0
    8.8243  -14.8575   18.3013 C   0  0  0  0  0  0  0  0  0  0  0  0
    8.8444  -15.9386   19.3271 C   0  0  2  0  0  0  0  0  0  0  0  0
    7.6956  -16.8143   19.2605 N   0  0  0  0  0  0  0  0  0  0  0  0
    8.9415  -15.2767   20.6693 C   0  0  0  0  0  0  0  0  0  0  0  0
   10.0220  -14.6303   20.8668 O   0  0  0  0  0  0  0  0  0  0  0  0
    7.9247  -15.3551   21.6459 N   0  0  0  0  0  0  0  0  0  0  0  0
    8.1081  -14.8082   22.9514 C   0  0  1  0  0  0  0  0  0  0  0  0
    6.8308  -14.2726   23.5538 C   0  0  0  0  0  0  0  0  0  0  0  0
    7.0213  -13.7074   24.8950 C   0  0  0  0  0  0  0  0  0  0  0  0
    7.6335  -12.4901   25.0386 C   0  0  0  0  0  0  0  0  0  0  0  0
    7.7973  -11.9865   26.3218 C   0  0  0  0  0  0  0  0  0  0  0  0
    7.3666  -12.6688   27.4383 C   0  0  0  0  0  0  0  0  0  0  0  0
    6.7517  -13.8921   27.2893 C   0  0  0  0  0  0  0  0  0  0  0  0
    6.5853  -14.4022   25.9968 C   0  0  0  0  0  0  0  0  0  0  0  0
    8.6556  -15.8135   23.9132 C   0  0  0  0  0  0  0  0  0  0  0  0
    8.0252  -16.8613   24.1282 O   0  0  0  0  0  0  0  0  0  0  0  0
    9.8642  -15.5946   24.5740 N   0  0  0  0  0  0  0  0  0  0  0  0
   10.6911  -16.6364   25.1810 C   0  0  1  0  0  0  0  0  0  0  0  0
   12.0799  -16.6081   24.6813 C   0  0  0  0  0  0  0  0  0  0  0  0
   12.9323  -17.6238   25.3880 C   0  0  0  0  0  0  0  0  0  0  0  0
   14.3278  -17.6270   24.8566 C   0  0  0  0  0  0  0  0  0  0  0  0
   15.0847  -16.6879   25.1918 O   0  0  0  0  0  0  0  0  0  0  0  0
   10.5292  -16.4951   26.6345 C   0  0  0  0  0  0  0  0  0  0  0  0
   10.9656  -17.4786   27.5188 O   0  0  0  0  0  0  0  0  0  0  0  0
   14.8075  -18.6102   24.0232 O   0  0  0  0  0  0  0  0  0  0  0  0
    9.9957  -15.4936   27.1511 O   0  0  0  0  0  0  0  0  0  0  0  0
  2  1  1  0
  3  2  2  0
  4  2  1  0
  5  4  1  0
  6  5  1  0
  6  7  1  1
  8  6  1  0
  8  9  2  0
 10  8  1  0
 11 10  1  0
 11 12  1  1
 13 14  2  0
 13 12  1  0
 15 14  1  0
 16 15  2  0
 17 16  1  0
 17 18  2  0
 18 13  1  0
 19 11  1  0
 20 19  2  0
 21 19  1  0
 22 23  1  1
 22 21  1  0
 24 25  1  0
 24 23  1  0
 25 29  1  0
 26 25  2  0
 27 22  1  0
 27 28  1  0
 30 27  2  0
M  END
$$$$
