QFE.pdb
     RDKit          3D

 30 30  0  0  1  0  0  0  0  0999 V2000
   10.8201  -16.5579   14.2576 N   0  0  0  0  0  0  0  0  0  0  0  0
    9.4672  -16.9497   14.3965 C   0  0  0  0  0  0  0  0  0  0  0  0
    8.8446  -17.3326   13.3847 O   0  0  0  0  0  0  0  0  0  0  0  0
    8.7758  -16.9163   15.7072 C   0  0  0  0  0  0  0  0  0  0  0  0
    9.7156  -16.4771   16.7811 C   0  0  0  0  0  0  0  0  0  0  0  0
    9.9271  -17.4878   17.8558 C   0  0  2  0  0  0  0  0  0  0  0  0
    8.8011  -18.3767   18.0373 N   0  0  0  0  0  0  0  0  0  0  0  0
   10.2317  -16.7378   19.1183 C   0  0  0  0  0  0  0  0  0  0  0  0
   11.2103  -15.9259   19.0318 O   0  0  0  0  0  0  0  0  0  0  0  0
    9.5010  -16.9077   20.3145 N   0  0  0  0  0  0  0  0  0  0  0  0
    9.8278  -16.1716   21.4928 C   0  0  1  0  0  0  0  0  0  0  0  0
    8.6175  -15.5819   22.1773 C   0  0  0  0  0  0  0  0  0  0  0  0
    8.0309  -14.4574   21.4382 C   0  0  0  0  0  0  0  0  0  0  0  0
    8.4915  -13.1859   21.6579 C   0  0  0  0  0  0  0  0  0  0  0  0
    7.9132  -12.1468   20.9417 C   0  0  0  0  0  0  0  0  0  0  0  0
    6.9031  -12.3577   20.0292 C   0  0  0  0  0  0  0  0  0  0  0  0
    6.4431  -13.6375   19.8115 C   0  0  0  0  0  0  0  0  0  0  0  0
    7.0243  -14.6870   20.5322 C   0  0  0  0  0  0  0  0  0  0  0  0
   10.5350  -17.0129   22.5064 C   0  0  0  0  0  0  0  0  0  0  0  0
   10.2221  -18.2074   22.6360 O   0  0  0  0  0  0  0  0  0  0  0  0
   11.5420  -16.4785   23.3101 N   0  0  0  0  0  0  0  0  0  0  0  0
   12.3662  -17.2431   24.2448 C   0  0  1  0  0  0  0  0  0  0  0  0
   13.7086  -16.6534   24.4160 C   0  0  0  0  0  0  0  0  0  0  0  0
   14.4135  -16.5151   23.0963 C   0  0  0  0  0  0  0  0  0  0  0  0
   15.7109  -15.7912   23.2459 C   0  0  0  0  0  0  0  0  0  0  0  0
   16.1053  -15.5284   24.4046 O   0  0  0  0  0  0  0  0  0  0  0  0
   11.5691  -17.3907   25.4702 C   0  0  0  0  0  0  0  0  0  0  0  0
   10.3543  -16.7303   25.6374 O   0  0  0  0  0  0  0  0  0  0  0  0
   16.4799  -15.4067   22.1725 O   0  0  0  0  0  0  0  0  0  0  0  0
   11.9351  -18.1104   26.4202 O   0  0  0  0  0  0  0  0  0  0  0  0
  2  1  1  0
  3  2  2  0
  4  2  1  0
  5  4  1  0
  6  5  1  0
  6  7  1  1
  8  6  1  0
  8  9  2  0
 10  8  1  0
 11 10  1  0
 11 12  1  1
 13 14  2  0
 13 12  1  0
 15 14  1  0
 16 15  2  0
 17 16  1  0
 17 18  2  0
 18 13  1  0
 19 11  1  0
 20 19  2  0
 21 19  1  0
 22 23  1  1
 22 21  1  0
 24 25  1  0
 24 23  1  0
 25 29  1  0
 26 25  2  0
 27 22  1  0
 27 28  1  0
 30 27  2  0
M  END
$$$$
