QFE.pdb
     RDKit          3D

 30 30  0  0  1  0  0  0  0  0999 V2000
    9.7122  -14.8159   15.7757 N   0  0  0  0  0  0  0  0  0  0  0  0
    8.4226  -14.4521   16.2318 C   0  0  0  0  0  0  0  0  0  0  0  0
    7.5591  -14.1210   15.3935 O   0  0  0  0  0  0  0  0  0  0  0  0
    8.0750  -14.4549   17.6727 C   0  0  0  0  0  0  0  0  0  0  0  0
    9.2475  -14.8855   18.4908 C   0  0  0  0  0  0  0  0  0  0  0  0
    8.9345  -15.9422   19.4941 C   0  0  2  0  0  0  0  0  0  0  0  0
    7.6527  -16.5761   19.2792 N   0  0  0  0  0  0  0  0  0  0  0  0
    8.9999  -15.3027   20.8491 C   0  0  0  0  0  0  0  0  0  0  0  0
   10.1431  -14.8337   21.1613 O   0  0  0  0  0  0  0  0  0  0  0  0
    7.8915  -15.2198   21.7197 N   0  0  0  0  0  0  0  0  0  0  0  0
    8.0381  -14.7628   23.0639 C   0  0  1  0  0  0  0  0  0  0  0  0
    6.8470  -13.9743   23.5544 C   0  0  0  0  0  0  0  0  0  0  0  0
    7.0120  -13.4786   24.9262 C   0  0  0  0  0  0  0  0  0  0  0  0
    7.7290  -12.3333   25.1530 C   0  0  0  0  0  0  0  0  0  0  0  0
    7.8649  -11.8942   26.4629 C   0  0  0  0  0  0  0  0  0  0  0  0
    7.3059  -12.5699   27.5250 C   0  0  0  0  0  0  0  0  0  0  0  0
    6.5859  -13.7208   27.2924 C   0  0  0  0  0  0  0  0  0  0  0  0
    6.4472  -14.1658   25.9729 C   0  0  0  0  0  0  0  0  0  0  0  0
    8.2403  -15.8902   24.0249 C   0  0  0  0  0  0  0  0  0  0  0  0
    7.5245  -16.9012   23.9416 O   0  0  0  0  0  0  0  0  0  0  0  0
    9.2208  -15.8260   25.0147 N   0  0  0  0  0  0  0  0  0  0  0  0
   10.0532  -16.9473   25.4475 C   0  0  1  0  0  0  0  0  0  0  0  0
   11.2804  -17.0763   24.6372 C   0  0  0  0  0  0  0  0  0  0  0  0
   12.1584  -18.1811   25.1532 C   0  0  0  0  0  0  0  0  0  0  0  0
   13.2820  -18.4674   24.2123 C   0  0  0  0  0  0  0  0  0  0  0  0
   14.1485  -17.5791   24.0467 O   0  0  0  0  0  0  0  0  0  0  0  0
   10.2537  -16.7769   26.8930 C   0  0  0  0  0  0  0  0  0  0  0  0
   10.3950  -17.8685   27.7463 O   0  0  0  0  0  0  0  0  0  0  0  0
   13.4001  -19.6551   23.5291 O   0  0  0  0  0  0  0  0  0  0  0  0
   10.3077  -15.6530   27.4301 O   0  0  0  0  0  0  0  0  0  0  0  0
  2  1  1  0
  3  2  2  0
  4  2  1  0
  5  4  1  0
  6  5  1  0
  6  7  1  6
  8  6  1  0
  8  9  2  0
 10  8  1  0
 11 10  1  0
 11 12  1  1
 13 14  2  0
 13 12  1  0
 15 14  1  0
 16 15  2  0
 17 16  1  0
 17 18  2  0
 18 13  1  0
 19 11  1  0
 20 19  2  0
 21 19  1  0
 22 23  1  6
 22 21  1  0
 24 25  1  0
 24 23  1  0
 25 29  1  0
 26 25  2  0
 27 22  1  0
 27 28  1  0
 30 27  2  0
M  END
$$$$
