QFE.pdb
     RDKit          3D

 30 30  0  0  1  0  0  0  0  0999 V2000
    8.6384  -12.7403   16.8082 N   0  0  0  0  0  0  0  0  0  0  0  0
    7.8456  -13.8784   16.5265 C   0  0  0  0  0  0  0  0  0  0  0  0
    7.1858  -13.9049   15.4672 O   0  0  0  0  0  0  0  0  0  0  0  0
    7.7802  -15.0329   17.4537 C   0  0  0  0  0  0  0  0  0  0  0  0
    8.6200  -14.7791   18.6619 C   0  0  0  0  0  0  0  0  0  0  0  0
    8.5859  -15.8775   19.6687 C   0  0  2  0  0  0  0  0  0  0  0  0
    7.3788  -16.6716   19.6111 N   0  0  0  0  0  0  0  0  0  0  0  0
    8.7541  -15.2483   21.0196 C   0  0  0  0  0  0  0  0  0  0  0  0
    9.8749  -14.6693   21.2010 O   0  0  0  0  0  0  0  0  0  0  0  0
    7.7586  -15.2866   22.0202 N   0  0  0  0  0  0  0  0  0  0  0  0
    8.0197  -14.8182   23.3429 C   0  0  1  0  0  0  0  0  0  0  0  0
    6.7743  -14.3644   24.0669 C   0  0  0  0  0  0  0  0  0  0  0  0
    7.0607  -13.7258   25.3572 C   0  0  0  0  0  0  0  0  0  0  0  0
    7.4227  -12.4049   25.3960 C   0  0  0  0  0  0  0  0  0  0  0  0
    7.6865  -11.8341   26.6335 C   0  0  0  0  0  0  0  0  0  0  0  0
    7.5953  -12.5505   27.8065 C   0  0  0  0  0  0  0  0  0  0  0  0
    7.2311  -13.8781   27.7628 C   0  0  0  0  0  0  0  0  0  0  0  0
    6.9645  -14.4561   26.5165 C   0  0  0  0  0  0  0  0  0  0  0  0
    8.6630  -15.8642   24.1958 C   0  0  0  0  0  0  0  0  0  0  0  0
    8.1999  -17.0161   24.2052 O   0  0  0  0  0  0  0  0  0  0  0  0
    9.7762  -15.5681   24.9822 N   0  0  0  0  0  0  0  0  0  0  0  0
   10.7629  -16.5433   25.4436 C   0  0  1  0  0  0  0  0  0  0  0  0
   12.1138  -16.2605   24.9200 C   0  0  0  0  0  0  0  0  0  0  0  0
   13.1231  -17.2285   25.4695 C   0  0  0  0  0  0  0  0  0  0  0  0
   14.4802  -16.9827   24.8974 C   0  0  0  0  0  0  0  0  0  0  0  0
   14.8591  -17.7121   23.9531 O   0  0  0  0  0  0  0  0  0  0  0  0
   10.6391  -16.5928   26.9069 C   0  0  0  0  0  0  0  0  0  0  0  0
   11.0898  -17.6857   27.6432 O   0  0  0  0  0  0  0  0  0  0  0  0
   15.3198  -15.9977   25.3624 O   0  0  0  0  0  0  0  0  0  0  0  0
   10.1272  -15.6650   27.5637 O   0  0  0  0  0  0  0  0  0  0  0  0
  2  1  1  0
  3  2  2  0
  4  2  1  0
  5  4  1  0
  6  5  1  0
  6  7  1  1
  8  6  1  0
  8  9  2  0
 10  8  1  0
 11 10  1  0
 11 12  1  1
 13 14  2  0
 13 12  1  0
 15 14  1  0
 16 15  2  0
 17 16  1  0
 17 18  2  0
 18 13  1  0
 19 11  1  0
 20 19  2  0
 21 19  1  0
 22 23  1  1
 22 21  1  0
 24 25  1  0
 24 23  1  0
 25 29  1  0
 26 25  2  0
 27 22  1  0
 27 28  1  0
 30 27  2  0
M  END
$$$$
