QFE.pdb
     RDKit          3D

 30 30  0  0  1  0  0  0  0  0999 V2000
    8.9847  -20.8950   20.5351 N   0  0  0  0  0  0  0  0  0  0  0  0
   10.1616  -20.2420   20.0969 C   0  0  0  0  0  0  0  0  0  0  0  0
   11.1971  -20.9179   19.9273 O   0  0  0  0  0  0  0  0  0  0  0  0
   10.1936  -18.7833   19.8361 C   0  0  0  0  0  0  0  0  0  0  0  0
    8.8627  -18.1724   20.1277 C   0  0  0  0  0  0  0  0  0  0  0  0
    8.7836  -16.7143   19.8293 C   0  0  2  0  0  0  0  0  0  0  0  0
    9.7593  -16.2736   18.8573 N   0  0  0  0  0  0  0  0  0  0  0  0
    8.9489  -15.9845   21.1290 C   0  0  0  0  0  0  0  0  0  0  0  0
   10.1382  -15.9764   21.5871 O   0  0  0  0  0  0  0  0  0  0  0  0
    7.8810  -15.3523   21.8024 N   0  0  0  0  0  0  0  0  0  0  0  0
    8.0753  -14.7141   23.0642 C   0  0  1  0  0  0  0  0  0  0  0  0
    6.8964  -13.8711   23.4891 C   0  0  0  0  0  0  0  0  0  0  0  0
    7.0670  -13.2740   24.8192 C   0  0  0  0  0  0  0  0  0  0  0  0
    8.0995  -12.4022   25.0451 C   0  0  0  0  0  0  0  0  0  0  0  0
    8.2306  -11.8572   26.3150 C   0  0  0  0  0  0  0  0  0  0  0  0
    7.3625  -12.1655   27.3390 C   0  0  0  0  0  0  0  0  0  0  0  0
    6.3259  -13.0424   27.1075 C   0  0  0  0  0  0  0  0  0  0  0  0
    6.1913  -13.5934   25.8281 C   0  0  0  0  0  0  0  0  0  0  0  0
    8.3263  -15.6975   24.1620 C   0  0  0  0  0  0  0  0  0  0  0  0
    7.5336  -16.6373   24.3348 O   0  0  0  0  0  0  0  0  0  0  0  0
    9.4373  -15.5776   24.9966 N   0  0  0  0  0  0  0  0  0  0  0  0
   10.1195  -16.6915   25.6534 C   0  0  1  0  0  0  0  0  0  0  0  0
   11.5032  -16.8622   25.1684 C   0  0  0  0  0  0  0  0  0  0  0  0
   12.2427  -17.8843   25.9844 C   0  0  0  0  0  0  0  0  0  0  0  0
   13.4000  -18.4498   25.2290 C   0  0  0  0  0  0  0  0  0  0  0  0
   14.4208  -17.7366   25.1005 O   0  0  0  0  0  0  0  0  0  0  0  0
    9.9685  -16.4718   27.0983 C   0  0  0  0  0  0  0  0  0  0  0  0
   10.1270  -17.5067   28.0167 O   0  0  0  0  0  0  0  0  0  0  0  0
   13.3876  -19.7089   24.6757 O   0  0  0  0  0  0  0  0  0  0  0  0
    9.6921  -15.3541   27.5768 O   0  0  0  0  0  0  0  0  0  0  0  0
  2  1  1  0
  3  2  2  0
  4  2  1  0
  5  4  1  0
  6  5  1  0
  6  7  1  6
  8  6  1  0
  8  9  2  0
 10  8  1  0
 11 10  1  0
 11 12  1  1
 13 14  2  0
 13 12  1  0
 15 14  1  0
 16 15  2  0
 17 16  1  0
 17 18  2  0
 18 13  1  0
 19 11  1  0
 20 19  2  0
 21 19  1  0
 22 23  1  1
 22 21  1  0
 24 25  1  0
 24 23  1  0
 25 29  1  0
 26 25  2  0
 27 22  1  0
 27 28  1  0
 30 27  2  0
M  END
$$$$
