QFE.pdb
     RDKit          3D

 30 30  0  0  1  0  0  0  0  0999 V2000
   13.1716  -17.8803   18.6347 N   0  0  0  0  0  0  0  0  0  0  0  0
   12.0550  -17.9748   17.7700 C   0  0  0  0  0  0  0  0  0  0  0  0
   12.1946  -18.5418   16.6668 O   0  0  0  0  0  0  0  0  0  0  0  0
   10.7316  -17.4199   18.1408 C   0  0  0  0  0  0  0  0  0  0  0  0
   10.7833  -16.8169   19.5058 C   0  0  0  0  0  0  0  0  0  0  0  0
    9.6112  -17.1511   20.3637 C   0  0  2  0  0  0  0  0  0  0  0  0
    8.3457  -17.0497   19.6714 N   0  0  0  0  0  0  0  0  0  0  0  0
    9.6524  -16.2346   21.5500 C   0  0  0  0  0  0  0  0  0  0  0  0
   10.7900  -16.1514   22.1188 O   0  0  0  0  0  0  0  0  0  0  0  0
    8.5285  -15.5150   22.0111 N   0  0  0  0  0  0  0  0  0  0  0  0
    8.5301  -14.8774   23.2880 C   0  0  1  0  0  0  0  0  0  0  0  0
    7.3386  -13.9739   23.5002 C   0  0  0  0  0  0  0  0  0  0  0  0
    7.3693  -13.2768   24.7916 C   0  0  0  0  0  0  0  0  0  0  0  0
    8.2971  -12.2925   25.0105 C   0  0  0  0  0  0  0  0  0  0  0  0
    8.2972  -11.6550   26.2435 C   0  0  0  0  0  0  0  0  0  0  0  0
    7.4021  -11.9812   27.2384 C   0  0  0  0  0  0  0  0  0  0  0  0
    6.4712  -12.9712   27.0141 C   0  0  0  0  0  0  0  0  0  0  0  0
    6.4687  -13.6157   25.7718 C   0  0  0  0  0  0  0  0  0  0  0  0
    8.5351  -15.8635   24.4118 C   0  0  0  0  0  0  0  0  0  0  0  0
    7.6591  -16.7421   24.4589 O   0  0  0  0  0  0  0  0  0  0  0  0
    9.5084  -15.8138   25.4096 N   0  0  0  0  0  0  0  0  0  0  0  0
   10.0732  -16.9771   26.0917 C   0  0  1  0  0  0  0  0  0  0  0  0
   11.3455  -17.4160   25.4852 C   0  0  0  0  0  0  0  0  0  0  0  0
   11.9649  -18.5357   26.2727 C   0  0  0  0  0  0  0  0  0  0  0  0
   12.8576  -19.3733   25.4176 C   0  0  0  0  0  0  0  0  0  0  0  0
   14.0599  -19.0380   25.3209 O   0  0  0  0  0  0  0  0  0  0  0  0
   10.1283  -16.6307   27.5185 C   0  0  0  0  0  0  0  0  0  0  0  0
   10.3794  -15.3295   27.9468 O   0  0  0  0  0  0  0  0  0  0  0  0
   12.4150  -20.4854   24.7404 O   0  0  0  0  0  0  0  0  0  0  0  0
    9.9544  -17.4776   28.4168 O   0  0  0  0  0  0  0  0  0  0  0  0
  2  1  1  0
  3  2  2  0
  4  2  1  0
  5  4  1  0
  6  5  1  0
  6  7  1  6
  8  6  1  0
  8  9  2  0
 10  8  1  0
 11 10  1  0
 11 12  1  1
 13 14  2  0
 13 12  1  0
 15 14  1  0
 16 15  2  0
 17 16  1  0
 17 18  2  0
 18 13  1  0
 19 11  1  0
 20 19  2  0
 21 19  1  0
 22 23  1  6
 22 21  1  0
 24 25  1  0
 24 23  1  0
 25 29  1  0
 26 25  2  0
 27 22  1  0
 27 28  1  0
 30 27  2  0
M  END
$$$$
