QFE.pdb
     RDKit          3D

 30 30  0  0  1  0  0  0  0  0999 V2000
    8.3659  -12.6897   16.6853 N   0  0  0  0  0  0  0  0  0  0  0  0
    8.1568  -14.0087   16.2165 C   0  0  0  0  0  0  0  0  0  0  0  0
    7.8815  -14.1825   15.0115 O   0  0  0  0  0  0  0  0  0  0  0  0
    8.2564  -15.1819   17.1169 C   0  0  0  0  0  0  0  0  0  0  0  0
    8.5787  -14.7453   18.5079 C   0  0  0  0  0  0  0  0  0  0  0  0
    8.7236  -15.8662   19.4795 C   0  0  2  0  0  0  0  0  0  0  0  0
    7.6448  -16.8267   19.4128 N   0  0  0  0  0  0  0  0  0  0  0  0
    8.8222  -15.2593   20.8474 C   0  0  0  0  0  0  0  0  0  0  0  0
    9.8548  -14.5363   21.0356 O   0  0  0  0  0  0  0  0  0  0  0  0
    7.8556  -15.4640   21.8561 N   0  0  0  0  0  0  0  0  0  0  0  0
    8.0101  -14.8959   23.1562 C   0  0  1  0  0  0  0  0  0  0  0  0
    6.7054  -14.4301   23.7577 C   0  0  0  0  0  0  0  0  0  0  0  0
    6.8815  -13.7126   25.0261 C   0  0  0  0  0  0  0  0  0  0  0  0
    6.5577  -14.3291   26.2061 C   0  0  0  0  0  0  0  0  0  0  0  0
    6.7367  -13.6203   27.3861 C   0  0  0  0  0  0  0  0  0  0  0  0
    7.2243  -12.3321   27.4016 C   0  0  0  0  0  0  0  0  0  0  0  0
    7.5485  -11.7162   26.2131 C   0  0  0  0  0  0  0  0  0  0  0  0
    7.3690  -12.4284   25.0218 C   0  0  0  0  0  0  0  0  0  0  0  0
    8.6175  -15.8591   24.1250 C   0  0  0  0  0  0  0  0  0  0  0  0
    8.0866  -16.9678   24.3001 O   0  0  0  0  0  0  0  0  0  0  0  0
    9.7721  -15.5337   24.8366 N   0  0  0  0  0  0  0  0  0  0  0  0
   10.5916  -16.4825   25.5886 C   0  0  1  0  0  0  0  0  0  0  0  0
   12.0358  -16.2650   25.3737 C   0  0  0  0  0  0  0  0  0  0  0  0
   12.5198  -16.9966   24.1538 C   0  0  0  0  0  0  0  0  0  0  0  0
   13.6753  -16.2939   23.5207 C   0  0  0  0  0  0  0  0  0  0  0  0
   14.6469  -15.9900   24.2492 O   0  0  0  0  0  0  0  0  0  0  0  0
   10.1320  -16.4088   26.9822 C   0  0  0  0  0  0  0  0  0  0  0  0
    9.9550  -15.1893   27.6312 O   0  0  0  0  0  0  0  0  0  0  0  0
   13.7124  -15.9716   22.1843 O   0  0  0  0  0  0  0  0  0  0  0  0
    9.8774  -17.4275   27.6544 O   0  0  0  0  0  0  0  0  0  0  0  0
  2  1  1  0
  3  2  2  0
  4  2  1  0
  5  4  1  0
  6  5  1  0
  6  7  1  1
  8  6  1  0
  8  9  2  0
 10  8  1  0
 11 10  1  0
 11 12  1  1
 13 14  2  0
 13 12  1  0
 15 14  1  0
 16 15  2  0
 17 16  1  0
 17 18  2  0
 18 13  1  0
 19 11  1  0
 20 19  2  0
 21 19  1  0
 22 23  1  1
 22 21  1  0
 24 25  1  0
 24 23  1  0
 25 29  1  0
 26 25  2  0
 27 22  1  0
 27 28  1  0
 30 27  2  0
M  END
$$$$
