QFE.pdb
     RDKit          3D

 30 30  0  0  1  0  0  0  0  0999 V2000
    8.1654  -12.9108   17.9328 N   0  0  0  0  0  0  0  0  0  0  0  0
    8.3489  -13.9443   16.9834 C   0  0  0  0  0  0  0  0  0  0  0  0
    7.7632  -13.8625   15.8841 O   0  0  0  0  0  0  0  0  0  0  0  0
    9.2150  -15.1146   17.2614 C   0  0  0  0  0  0  0  0  0  0  0  0
    9.7821  -15.0274   18.6399 C   0  0  0  0  0  0  0  0  0  0  0  0
    9.2216  -16.0269   19.5930 C   0  0  2  0  0  0  0  0  0  0  0  0
    7.9027  -16.4926   19.2265 N   0  0  0  0  0  0  0  0  0  0  0  0
    9.2112  -15.3899   20.9507 C   0  0  0  0  0  0  0  0  0  0  0  0
   10.3548  -15.0167   21.3720 O   0  0  0  0  0  0  0  0  0  0  0  0
    8.0359  -15.2114   21.7124 N   0  0  0  0  0  0  0  0  0  0  0  0
    8.0915  -14.7592   23.0650 C   0  0  1  0  0  0  0  0  0  0  0  0
    6.8100  -14.1047   23.5237 C   0  0  0  0  0  0  0  0  0  0  0  0
    6.9084  -13.5312   24.8713 C   0  0  0  0  0  0  0  0  0  0  0  0
    6.2815  -14.1502   25.9207 C   0  0  0  0  0  0  0  0  0  0  0  0
    6.3957  -13.5795   27.1809 C   0  0  0  0  0  0  0  0  0  0  0  0
    7.1123  -12.4239   27.4008 C   0  0  0  0  0  0  0  0  0  0  0  0
    7.7409  -11.8049   26.3431 C   0  0  0  0  0  0  0  0  0  0  0  0
    7.6275  -12.3781   25.0715 C   0  0  0  0  0  0  0  0  0  0  0  0
    8.3793  -15.8719   24.0212 C   0  0  0  0  0  0  0  0  0  0  0  0
    7.6307  -16.8620   24.0512 O   0  0  0  0  0  0  0  0  0  0  0  0
    9.4759  -15.8173   24.8814 N   0  0  0  0  0  0  0  0  0  0  0  0
    9.9128  -16.9038   25.7565 C   0  0  1  0  0  0  0  0  0  0  0  0
   11.2503  -17.4107   25.3913 C   0  0  0  0  0  0  0  0  0  0  0  0
   11.2215  -18.1110   24.0622 C   0  0  0  0  0  0  0  0  0  0  0  0
   12.5698  -18.6373   23.6953 C   0  0  0  0  0  0  0  0  0  0  0  0
   12.9247  -19.7330   24.1860 O   0  0  0  0  0  0  0  0  0  0  0  0
    9.7683  -16.4076   27.1320 C   0  0  0  0  0  0  0  0  0  0  0  0
   10.0494  -15.0852   27.4665 O   0  0  0  0  0  0  0  0  0  0  0  0
   13.4264  -17.9726   22.8494 O   0  0  0  0  0  0  0  0  0  0  0  0
    9.3887  -17.1390   28.0675 O   0  0  0  0  0  0  0  0  0  0  0  0
  2  1  1  0
  3  2  2  0
  4  2  1  0
  5  4  1  0
  6  5  1  0
  6  7  1  6
  8  6  1  0
  8  9  2  0
 10  8  1  0
 11 10  1  0
 11 12  1  1
 13 14  2  0
 13 12  1  0
 15 14  1  0
 16 15  2  0
 17 16  1  0
 17 18  2  0
 18 13  1  0
 19 11  1  0
 20 19  2  0
 21 19  1  0
 22 23  1  6
 22 21  1  0
 24 25  1  0
 24 23  1  0
 25 29  1  0
 26 25  2  0
 27 22  1  0
 27 28  1  0
 30 27  2  0
M  END
$$$$
