QFE.pdb
     RDKit          3D

 30 30  0  0  1  0  0  0  0  0999 V2000
    9.9636  -16.9294   15.2312 N   0  0  0  0  0  0  0  0  0  0  0  0
    8.8467  -17.5689   15.8202 C   0  0  0  0  0  0  0  0  0  0  0  0
    7.8729  -17.8654   15.0978 O   0  0  0  0  0  0  0  0  0  0  0  0
    8.8059  -17.8930   17.2659 C   0  0  0  0  0  0  0  0  0  0  0  0
   10.0547  -17.4283   17.9397 C   0  0  0  0  0  0  0  0  0  0  0  0
   10.3174  -18.0823   19.2529 C   0  0  2  0  0  0  0  0  0  0  0  0
    9.2237  -18.9101   19.7108 N   0  0  0  0  0  0  0  0  0  0  0  0
   10.6203  -16.9939   20.2393 C   0  0  0  0  0  0  0  0  0  0  0  0
   11.5950  -16.2391   19.9160 O   0  0  0  0  0  0  0  0  0  0  0  0
    9.8920  -16.8086   21.4347 N   0  0  0  0  0  0  0  0  0  0  0  0
   10.1821  -15.7259   22.3183 C   0  0  1  0  0  0  0  0  0  0  0  0
    8.9444  -15.0061   22.7990 C   0  0  0  0  0  0  0  0  0  0  0  0
    8.1694  -14.4046   21.7071 C   0  0  0  0  0  0  0  0  0  0  0  0
    8.5757  -13.2159   21.1601 C   0  0  0  0  0  0  0  0  0  0  0  0
    7.8184  -12.6762   20.1296 C   0  0  0  0  0  0  0  0  0  0  0  0
    6.6855  -13.2954   19.6495 C   0  0  0  0  0  0  0  0  0  0  0  0
    6.2806  -14.4902   20.2022 C   0  0  0  0  0  0  0  0  0  0  0  0
    7.0423  -15.0367   21.2413 C   0  0  0  0  0  0  0  0  0  0  0  0
   10.9262  -16.1739   23.5353 C   0  0  0  0  0  0  0  0  0  0  0  0
   11.1554  -15.3617   24.4459 O   0  0  0  0  0  0  0  0  0  0  0  0
   11.3677  -17.4905   23.6658 N   0  0  0  0  0  0  0  0  0  0  0  0
   12.0163  -18.0458   24.8526 C   0  0  1  0  0  0  0  0  0  0  0  0
   11.2844  -19.2068   25.3964 C   0  0  0  0  0  0  0  0  0  0  0  0
   11.9616  -19.7500   26.6228 C   0  0  0  0  0  0  0  0  0  0  0  0
   11.1869  -20.8800   27.2166 C   0  0  0  0  0  0  0  0  0  0  0  0
   11.6526  -21.4381   28.2358 O   0  0  0  0  0  0  0  0  0  0  0  0
   13.4171  -18.2872   24.4808 C   0  0  0  0  0  0  0  0  0  0  0  0
   13.7780  -18.6571   23.1875 O   0  0  0  0  0  0  0  0  0  0  0  0
    9.9958  -21.3256   26.6931 O   0  0  0  0  0  0  0  0  0  0  0  0
   14.3520  -18.1745   25.2979 O   0  0  0  0  0  0  0  0  0  0  0  0
  2  1  1  0
  3  2  2  0
  4  2  1  0
  5  4  1  0
  6  5  1  0
  6  7  1  1
  8  6  1  0
  8  9  2  0
 10  8  1  0
 11 10  1  0
 11 12  1  1
 13 14  2  0
 13 12  1  0
 15 14  1  0
 16 15  2  0
 17 16  1  0
 17 18  2  0
 18 13  1  0
 19 11  1  0
 20 19  2  0
 21 19  1  0
 22 23  1  6
 22 21  1  0
 24 25  1  0
 24 23  1  0
 25 29  1  0
 26 25  2  0
 27 22  1  0
 27 28  1  0
 30 27  2  0
M  END
$$$$
