QFE.pdb
     RDKit          3D

 30 30  0  0  1  0  0  0  0  0999 V2000
    8.2640  -12.9844   16.5380 N   0  0  0  0  0  0  0  0  0  0  0  0
    8.5680  -14.3607   16.6670 C   0  0  0  0  0  0  0  0  0  0  0  0
    7.7210  -15.2010   16.3003 O   0  0  0  0  0  0  0  0  0  0  0  0
    9.8605  -14.8255   17.2240 C   0  0  0  0  0  0  0  0  0  0  0  0
    9.9306  -14.5387   18.6876 C   0  0  0  0  0  0  0  0  0  0  0  0
    9.3547  -15.6120   19.5465 C   0  0  2  0  0  0  0  0  0  0  0  0
    8.0496  -16.0572   19.1112 N   0  0  0  0  0  0  0  0  0  0  0  0
    9.3042  -15.0812   20.9482 C   0  0  0  0  0  0  0  0  0  0  0  0
   10.4083  -14.6135   21.3801 O   0  0  0  0  0  0  0  0  0  0  0  0
    8.1337  -15.0922   21.7379 N   0  0  0  0  0  0  0  0  0  0  0  0
    8.1582  -14.6800   23.1041 C   0  0  1  0  0  0  0  0  0  0  0  0
    6.9038  -13.9520   23.5254 C   0  0  0  0  0  0  0  0  0  0  0  0
    6.9525  -13.4808   24.9148 C   0  0  0  0  0  0  0  0  0  0  0  0
    6.5694  -14.3177   25.9298 C   0  0  0  0  0  0  0  0  0  0  0  0
    6.6280  -13.8384   27.2313 C   0  0  0  0  0  0  0  0  0  0  0  0
    7.0548  -12.5621   27.5247 C   0  0  0  0  0  0  0  0  0  0  0  0
    7.4390  -11.7242   26.5013 C   0  0  0  0  0  0  0  0  0  0  0  0
    7.3810  -12.2048   25.1882 C   0  0  0  0  0  0  0  0  0  0  0  0
    8.3274  -15.8341   24.0394 C   0  0  0  0  0  0  0  0  0  0  0  0
    7.4300  -16.6876   24.1269 O   0  0  0  0  0  0  0  0  0  0  0  0
    9.4778  -15.9690   24.8165 N   0  0  0  0  0  0  0  0  0  0  0  0
    9.8491  -17.1671   25.5676 C   0  0  1  0  0  0  0  0  0  0  0  0
   11.0297  -17.8419   24.9933 C   0  0  0  0  0  0  0  0  0  0  0  0
   12.1369  -16.8629   24.7226 C   0  0  0  0  0  0  0  0  0  0  0  0
   13.2987  -17.5255   24.0586 C   0  0  0  0  0  0  0  0  0  0  0  0
   13.6243  -17.1305   22.9162 O   0  0  0  0  0  0  0  0  0  0  0  0
    9.9673  -16.7518   26.9721 C   0  0  0  0  0  0  0  0  0  0  0  0
   10.1196  -17.6796   27.9996 O   0  0  0  0  0  0  0  0  0  0  0  0
   14.0160  -18.5408   24.6468 O   0  0  0  0  0  0  0  0  0  0  0  0
    9.9378  -15.5541   27.3173 O   0  0  0  0  0  0  0  0  0  0  0  0
  2  1  1  0
  3  2  2  0
  4  2  1  0
  5  4  1  0
  6  5  1  0
  6  7  1  6
  8  6  1  0
  8  9  2  0
 10  8  1  0
 11 10  1  0
 11 12  1  1
 13 14  2  0
 13 12  1  0
 15 14  1  0
 16 15  2  0
 17 16  1  0
 17 18  2  0
 18 13  1  0
 19 11  1  0
 20 19  2  0
 21 19  1  0
 22 23  1  6
 22 21  1  0
 24 25  1  0
 24 23  1  0
 25 29  1  0
 26 25  2  0
 27 22  1  0
 27 28  1  0
 30 27  2  0
M  END
$$$$
