QFE.pdb
     RDKit          3D

 30 30  0  0  1  0  0  0  0  0999 V2000
   13.0415  -17.1606   18.6356 N   0  0  0  0  0  0  0  0  0  0  0  0
   12.0711  -17.9101   17.9287 C   0  0  0  0  0  0  0  0  0  0  0  0
   12.4501  -18.6927   17.0332 O   0  0  0  0  0  0  0  0  0  0  0  0
   10.6238  -17.7888   18.2246 C   0  0  0  0  0  0  0  0  0  0  0  0
   10.3965  -16.7953   19.3158 C   0  0  0  0  0  0  0  0  0  0  0  0
    9.4380  -17.2497   20.3627 C   0  0  2  0  0  0  0  0  0  0  0  0
    8.0924  -17.4363   19.8670 N   0  0  0  0  0  0  0  0  0  0  0  0
    9.4706  -16.2349   21.4665 C   0  0  0  0  0  0  0  0  0  0  0  0
   10.6367  -15.9579   21.9002 O   0  0  0  0  0  0  0  0  0  0  0  0
    8.3102  -15.6267   21.9928 N   0  0  0  0  0  0  0  0  0  0  0  0
    8.3267  -14.9741   23.2621 C   0  0  1  0  0  0  0  0  0  0  0  0
    7.1046  -14.1207   23.5050 C   0  0  0  0  0  0  0  0  0  0  0  0
    7.1165  -13.4606   24.8161 C   0  0  0  0  0  0  0  0  0  0  0  0
    6.3249  -13.9414   25.8259 C   0  0  0  0  0  0  0  0  0  0  0  0
    6.3612  -13.2920   27.0523 C   0  0  0  0  0  0  0  0  0  0  0  0
    7.1606  -12.1930   27.2773 C   0  0  0  0  0  0  0  0  0  0  0  0
    7.9547  -11.7131   26.2594 C   0  0  0  0  0  0  0  0  0  0  0  0
    7.9201  -12.3658   25.0219 C   0  0  0  0  0  0  0  0  0  0  0  0
    8.4125  -15.9453   24.3955 C   0  0  0  0  0  0  0  0  0  0  0  0
    7.4701  -16.7258   24.6054 O   0  0  0  0  0  0  0  0  0  0  0  0
    9.5348  -15.9902   25.2225 N   0  0  0  0  0  0  0  0  0  0  0  0
    9.8631  -17.0839   26.1355 C   0  0  1  0  0  0  0  0  0  0  0  0
   10.9656  -17.9234   25.6267 C   0  0  0  0  0  0  0  0  0  0  0  0
   12.2916  -17.2357   25.7889 C   0  0  0  0  0  0  0  0  0  0  0  0
   13.1788  -17.4805   24.6131 C   0  0  0  0  0  0  0  0  0  0  0  0
   12.7182  -18.1496   23.6605 O   0  0  0  0  0  0  0  0  0  0  0  0
   10.0797  -16.4693   27.4524 C   0  0  0  0  0  0  0  0  0  0  0  0
   10.1026  -17.2284   28.6198 O   0  0  0  0  0  0  0  0  0  0  0  0
   14.4670  -17.0049   24.5374 O   0  0  0  0  0  0  0  0  0  0  0  0
   10.2536  -15.2429   27.5946 O   0  0  0  0  0  0  0  0  0  0  0  0
  2  1  1  0
  3  2  2  0
  4  2  1  0
  5  4  1  0
  6  5  1  0
  6  7  1  6
  8  6  1  0
  8  9  2  0
 10  8  1  0
 11 10  1  0
 11 12  1  1
 13 14  2  0
 13 12  1  0
 15 14  1  0
 16 15  2  0
 17 16  1  0
 17 18  2  0
 18 13  1  0
 19 11  1  0
 20 19  2  0
 21 19  1  0
 22 23  1  6
 22 21  1  0
 24 25  1  0
 24 23  1  0
 25 29  1  0
 26 25  2  0
 27 22  1  0
 27 28  1  0
 30 27  2  0
M  END
$$$$
