QFE.pdb
     RDKit          3D

 30 30  0  0  1  0  0  0  0  0999 V2000
    9.6511  -20.6469   18.5632 N   0  0  0  0  0  0  0  0  0  0  0  0
    9.0406  -19.4011   18.2825 C   0  0  0  0  0  0  0  0  0  0  0  0
    9.2864  -18.8423   17.1938 O   0  0  0  0  0  0  0  0  0  0  0  0
    8.1219  -18.7479   19.2449 C   0  0  0  0  0  0  0  0  0  0  0  0
    8.8829  -17.8536   20.1670 C   0  0  0  0  0  0  0  0  0  0  0  0
    8.5512  -16.4076   20.0241 C   0  0  2  0  0  0  0  0  0  0  0  0
    9.3403  -15.7346   19.0164 N   0  0  0  0  0  0  0  0  0  0  0  0
    8.7391  -15.7728   21.3698 C   0  0  0  0  0  0  0  0  0  0  0  0
    9.8768  -15.9846   21.9037 O   0  0  0  0  0  0  0  0  0  0  0  0
    7.7438  -14.9995   22.0061 N   0  0  0  0  0  0  0  0  0  0  0  0
    7.9433  -14.4680   23.3156 C   0  0  1  0  0  0  0  0  0  0  0  0
    6.8625  -13.4988   23.7323 C   0  0  0  0  0  0  0  0  0  0  0  0
    7.0318  -13.0049   25.1042 C   0  0  0  0  0  0  0  0  0  0  0  0
    8.0698  -12.1606   25.3991 C   0  0  0  0  0  0  0  0  0  0  0  0
    8.1994  -11.7139   26.7070 C   0  0  0  0  0  0  0  0  0  0  0  0
    7.3245  -12.0916   27.7015 C   0  0  0  0  0  0  0  0  0  0  0  0
    6.2824  -12.9405   27.4006 C   0  0  0  0  0  0  0  0  0  0  0  0
    6.1494  -13.3925   26.0829 C   0  0  0  0  0  0  0  0  0  0  0  0
    7.9943  -15.5386   24.3581 C   0  0  0  0  0  0  0  0  0  0  0  0
    7.0496  -16.3375   24.4615 O   0  0  0  0  0  0  0  0  0  0  0  0
    9.0864  -15.6558   25.2176 N   0  0  0  0  0  0  0  0  0  0  0  0
    9.2913  -16.7432   26.1732 C   0  0  1  0  0  0  0  0  0  0  0  0
    9.8647  -17.9450   25.5360 C   0  0  0  0  0  0  0  0  0  0  0  0
   11.3355  -17.7749   25.2802 C   0  0  0  0  0  0  0  0  0  0  0  0
   11.9016  -18.9521   24.5567 C   0  0  0  0  0  0  0  0  0  0  0  0
   12.0304  -20.0235   25.1913 O   0  0  0  0  0  0  0  0  0  0  0  0
   10.0665  -16.1740   27.2840 C   0  0  0  0  0  0  0  0  0  0  0  0
   10.2016  -16.8403   28.4995 O   0  0  0  0  0  0  0  0  0  0  0  0
   12.2823  -18.9050   23.2360 O   0  0  0  0  0  0  0  0  0  0  0  0
   10.6414  -15.0710   27.1987 O   0  0  0  0  0  0  0  0  0  0  0  0
  2  1  1  0
  3  2  2  0
  4  2  1  0
  5  4  1  0
  6  5  1  0
  6  7  1  6
  8  6  1  0
  8  9  2  0
 10  8  1  0
 11 10  1  0
 11 12  1  1
 13 14  2  0
 13 12  1  0
 15 14  1  0
 16 15  2  0
 17 16  1  0
 17 18  2  0
 18 13  1  0
 19 11  1  0
 20 19  2  0
 21 19  1  0
 22 23  1  6
 22 21  1  0
 24 25  1  0
 24 23  1  0
 25 29  1  0
 26 25  2  0
 27 22  1  0
 27 28  1  0
 30 27  2  0
M  END
$$$$
