QFE.pdb
     RDKit          3D

 30 30  0  0  1  0  0  0  0  0999 V2000
    8.6528  -12.4873   16.7432 N   0  0  0  0  0  0  0  0  0  0  0  0
    8.0581  -13.7042   16.3324 C   0  0  0  0  0  0  0  0  0  0  0  0
    7.6769  -13.8185   15.1493 O   0  0  0  0  0  0  0  0  0  0  0  0
    7.8780  -14.8396   17.2680 C   0  0  0  0  0  0  0  0  0  0  0  0
    8.4124  -14.4920   18.6182 C   0  0  0  0  0  0  0  0  0  0  0  0
    8.7888  -15.6726   19.4464 C   0  0  2  0  0  0  0  0  0  0  0  0
    7.8291  -16.7520   19.3769 N   0  0  0  0  0  0  0  0  0  0  0  0
    8.9585  -15.1911   20.8565 C   0  0  0  0  0  0  0  0  0  0  0  0
   10.0638  -14.5998   21.0875 O   0  0  0  0  0  0  0  0  0  0  0  0
    7.9802  -15.3714   21.8586 N   0  0  0  0  0  0  0  0  0  0  0  0
    8.1675  -14.8585   23.1772 C   0  0  1  0  0  0  0  0  0  0  0  0
    6.9515  -14.1389   23.7107 C   0  0  0  0  0  0  0  0  0  0  0  0
    7.1852  -13.5047   25.0138 C   0  0  0  0  0  0  0  0  0  0  0  0
    6.6162  -14.0375   26.1405 C   0  0  0  0  0  0  0  0  0  0  0  0
    6.8584  -13.4113   27.3555 C   0  0  0  0  0  0  0  0  0  0  0  0
    7.6444  -12.2847   27.4565 C   0  0  0  0  0  0  0  0  0  0  0  0
    8.2145  -11.7524   26.3213 C   0  0  0  0  0  0  0  0  0  0  0  0
    7.9720  -12.3817   25.0950 C   0  0  0  0  0  0  0  0  0  0  0  0
    8.5032  -15.9344   24.1595 C   0  0  0  0  0  0  0  0  0  0  0  0
    7.7304  -16.8956   24.3023 O   0  0  0  0  0  0  0  0  0  0  0  0
    9.6714  -15.8773   24.9194 N   0  0  0  0  0  0  0  0  0  0  0  0
   10.1720  -16.9530   25.7736 C   0  0  1  0  0  0  0  0  0  0  0  0
   11.5109  -17.4167   25.3597 C   0  0  0  0  0  0  0  0  0  0  0  0
   11.4825  -17.9882   23.9704 C   0  0  0  0  0  0  0  0  0  0  0  0
   12.8240  -18.5052   23.5672 C   0  0  0  0  0  0  0  0  0  0  0  0
   13.7560  -18.4286   24.3995 O   0  0  0  0  0  0  0  0  0  0  0  0
   10.0603  -16.4666   27.1556 C   0  0  0  0  0  0  0  0  0  0  0  0
    9.9314  -17.3414   28.2315 O   0  0  0  0  0  0  0  0  0  0  0  0
   13.0720  -19.0557   22.3316 O   0  0  0  0  0  0  0  0  0  0  0  0
   10.0747  -15.2521   27.4375 O   0  0  0  0  0  0  0  0  0  0  0  0
  2  1  1  0
  3  2  2  0
  4  2  1  0
  5  4  1  0
  6  5  1  0
  6  7  1  1
  8  6  1  0
  8  9  2  0
 10  8  1  0
 11 10  1  0
 11 12  1  1
 13 14  2  0
 13 12  1  0
 15 14  1  0
 16 15  2  0
 17 16  1  0
 17 18  2  0
 18 13  1  0
 19 11  1  0
 20 19  2  0
 21 19  1  0
 22 23  1  6
 22 21  1  0
 24 25  1  0
 24 23  1  0
 25 29  1  0
 26 25  2  0
 27 22  1  0
 27 28  1  0
 30 27  2  0
M  END
$$$$
