FHG.pdb
     RDKit          3D

 26 27  0  0  1  0  0  0  0  0999 V2000
    5.4458  -17.5230   24.4401 N   0  0  0  0  0  0  0  0  0  0  0  0
    6.0763  -16.2738   24.7027 C   0  0  1  0  0  0  0  0  0  0  0  0
    6.3741  -16.0156   26.1444 C   0  0  0  0  0  0  0  0  0  0  0  0
    6.8730  -14.6904   26.4573 C   0  0  0  0  0  0  0  0  0  0  0  0
    8.1947  -14.4179   26.7838 C   0  0  0  0  0  0  0  0  0  0  0  0
    8.6024  -13.1345   27.0706 C   0  0  0  0  0  0  0  0  0  0  0  0
    7.6942  -12.0987   27.0360 C   0  0  0  0  0  0  0  0  0  0  0  0
    6.3754  -12.3460   26.7140 C   0  0  0  0  0  0  0  0  0  0  0  0
    5.9658  -13.6332   26.4262 C   0  0  0  0  0  0  0  0  0  0  0  0
    7.3576  -16.2220   23.9616 C   0  0  0  0  0  0  0  0  0  0  0  0
    8.0710  -17.2494   23.9183 O   0  0  0  0  0  0  0  0  0  0  0  0
    7.8135  -15.0581   23.2975 N   0  0  0  0  0  0  0  0  0  0  0  0
    9.0647  -15.1128   22.5728 C   0  0  1  0  0  0  0  0  0  0  0  0
    9.1778  -13.9070   21.6661 C   0  0  0  0  0  0  0  0  0  0  0  0
    8.4260  -14.0388   20.4069 C   0  0  0  0  0  0  0  0  0  0  0  0
    7.7623  -15.1881   19.9659 C   0  0  0  0  0  0  0  0  0  0  0  0
    7.1875  -14.9615   18.7905 N   0  0  0  0  0  0  0  0  0  0  0  0
    7.4512  -13.6911   18.4376 C   0  0  0  0  0  0  0  0  0  0  0  0
    8.1950  -13.1462   19.4142 N   0  0  0  0  0  0  0  0  0  0  0  0
   10.2275  -15.1022   23.5019 C   0  0  0  0  0  0  0  0  0  0  0  0
   10.2313  -14.3275   24.4843 O   0  0  0  0  0  0  0  0  0  0  0  0
   11.3546  -15.9470   23.3220 N   0  0  0  0  0  0  0  0  0  0  0  0
   12.5320  -15.8401   24.1968 C   0  0  0  0  0  0  0  0  0  0  0  0
   13.5747  -16.7850   23.7870 C   0  0  0  0  0  0  0  0  0  0  0  0
   13.3366  -17.6102   22.7014 O   0  0  0  0  0  0  0  0  0  0  0  0
   14.6726  -16.8695   24.3867 O   0  0  0  0  0  0  0  0  0  0  0  0
  2  1  1  1
  2 10  1  0
  3  2  1  0
  4  9  1  0
  4  3  1  0
  5  4  2  0
  6  7  2  0
  6  5  1  0
  7  8  1  0
  8  9  2  0
 10 11  2  0
 10 12  1  0
 12 13  1  0
 13 14  1  6
 14 15  1  0
 15 16  2  0
 15 19  1  0
 16 17  1  0
 17 18  1  0
 19 18  2  0
 20 21  2  0
 20 13  1  0
 22 20  1  0
 23 22  1  0
 23 24  1  0
 24 25  1  0
 26 24  2  0
M  END
$$$$
