FHG.pdb
     RDKit          3D

 26 27  0  0  1  0  0  0  0  0999 V2000
    6.3542  -17.2539   25.5846 N   0  0  0  0  0  0  0  0  0  0  0  0
    6.6507  -15.9282   25.1582 C   0  0  1  0  0  0  0  0  0  0  0  0
    7.6284  -15.1987   26.0215 C   0  0  0  0  0  0  0  0  0  0  0  0
    7.2068  -13.8907   26.4847 C   0  0  0  0  0  0  0  0  0  0  0  0
    7.9707  -13.0796   27.3132 C   0  0  0  0  0  0  0  0  0  0  0  0
    7.5097  -11.8465   27.7163 C   0  0  0  0  0  0  0  0  0  0  0  0
    6.2745  -11.4015   27.2975 C   0  0  0  0  0  0  0  0  0  0  0  0
    5.4982  -12.1907   26.4738 C   0  0  0  0  0  0  0  0  0  0  0  0
    5.9600  -13.4278   26.0691 C   0  0  0  0  0  0  0  0  0  0  0  0
    7.2119  -15.9829   23.7887 C   0  0  0  0  0  0  0  0  0  0  0  0
    7.5656  -17.0906   23.3258 O   0  0  0  0  0  0  0  0  0  0  0  0
    7.3670  -14.8340   22.9764 N   0  0  0  0  0  0  0  0  0  0  0  0
    7.8063  -15.0008   21.6080 C   0  0  1  0  0  0  0  0  0  0  0  0
    7.4800  -13.7538   20.8158 C   0  0  0  0  0  0  0  0  0  0  0  0
    7.8852  -13.8260   19.4021 C   0  0  0  0  0  0  0  0  0  0  0  0
    7.1322  -14.3797   18.3616 C   0  0  0  0  0  0  0  0  0  0  0  0
    7.7941  -14.2797   17.2148 N   0  0  0  0  0  0  0  0  0  0  0  0
    8.9681  -13.6738   17.4647 C   0  0  0  0  0  0  0  0  0  0  0  0
    9.0130  -13.4057   18.7800 N   0  0  0  0  0  0  0  0  0  0  0  0
    9.2766  -15.2214   21.5363 C   0  0  0  0  0  0  0  0  0  0  0  0
    9.8150  -15.4708   20.4348 O   0  0  0  0  0  0  0  0  0  0  0  0
   10.1131  -15.1609   22.6821 N   0  0  0  0  0  0  0  0  0  0  0  0
   11.5758  -15.2569   22.5614 C   0  0  0  0  0  0  0  0  0  0  0  0
   12.0418  -16.6009   22.9143 C   0  0  0  0  0  0  0  0  0  0  0  0
   12.9648  -16.7389   23.9367 O   0  0  0  0  0  0  0  0  0  0  0  0
   11.6323  -17.6269   22.3213 O   0  0  0  0  0  0  0  0  0  0  0  0
  2  1  1  1
  2 10  1  0
  3  2  1  0
  4  9  1  0
  4  3  1  0
  5  4  2  0
  6  7  2  0
  6  5  1  0
  7  8  1  0
  8  9  2  0
 10 11  2  0
 10 12  1  0
 12 13  1  0
 13 14  1  6
 14 15  1  0
 15 16  2  0
 15 19  1  0
 16 17  1  0
 17 18  1  0
 19 18  2  0
 20 21  2  0
 20 13  1  0
 22 20  1  0
 23 22  1  0
 23 24  1  0
 24 25  1  0
 26 24  2  0
M  END
$$$$
