FHG.pdb
     RDKit          3D

 26 27  0  0  1  0  0  0  0  0999 V2000
    5.8104  -17.7465   25.5190 N   0  0  0  0  0  0  0  0  0  0  0  0
    6.2492  -16.4021   25.3539 C   0  0  1  0  0  0  0  0  0  0  0  0
    7.1696  -15.9100   26.4237 C   0  0  0  0  0  0  0  0  0  0  0  0
    7.1072  -14.4885   26.7038 C   0  0  0  0  0  0  0  0  0  0  0  0
    5.9321  -13.7489   26.6968 C   0  0  0  0  0  0  0  0  0  0  0  0
    5.9437  -12.4000   26.9722 C   0  0  0  0  0  0  0  0  0  0  0  0
    7.1325  -11.7653   27.2600 C   0  0  0  0  0  0  0  0  0  0  0  0
    8.3126  -12.4803   27.2727 C   0  0  0  0  0  0  0  0  0  0  0  0
    8.3017  -13.8335   26.9966 C   0  0  0  0  0  0  0  0  0  0  0  0
    6.9609  -16.2890   24.0600 C   0  0  0  0  0  0  0  0  0  0  0  0
    7.5951  -17.2795   23.6320 O   0  0  0  0  0  0  0  0  0  0  0  0
    6.9561  -15.1062   23.2823 N   0  0  0  0  0  0  0  0  0  0  0  0
    7.6150  -15.1152   21.9942 C   0  0  1  0  0  0  0  0  0  0  0  0
    7.3338  -13.8155   21.2726 C   0  0  0  0  0  0  0  0  0  0  0  0
    7.8064  -13.7968   19.8782 C   0  0  0  0  0  0  0  0  0  0  0  0
    7.7749  -14.8753   18.9882 C   0  0  0  0  0  0  0  0  0  0  0  0
    8.2785  -14.5138   17.8140 N   0  0  0  0  0  0  0  0  0  0  0  0
    8.6444  -13.2228   17.8989 C   0  0  0  0  0  0  0  0  0  0  0  0
    8.3569  -12.8019   19.1415 N   0  0  0  0  0  0  0  0  0  0  0  0
    9.0898  -15.2504   22.1433 C   0  0  0  0  0  0  0  0  0  0  0  0
    9.6945  -14.5611   22.9944 O   0  0  0  0  0  0  0  0  0  0  0  0
    9.8574  -16.1428   21.3491 N   0  0  0  0  0  0  0  0  0  0  0  0
   11.2859  -16.3647   21.6201 C   0  0  0  0  0  0  0  0  0  0  0  0
   12.1148  -15.4388   20.8432 C   0  0  0  0  0  0  0  0  0  0  0  0
   13.0243  -14.6375   21.5117 O   0  0  0  0  0  0  0  0  0  0  0  0
   12.0267  -15.3495   19.5956 O   0  0  0  0  0  0  0  0  0  0  0  0
  2  1  1  1
  2 10  1  0
  3  2  1  0
  4  9  1  0
  4  3  1  0
  5  4  2  0
  6  7  2  0
  6  5  1  0
  7  8  1  0
  8  9  2  0
 10 11  2  0
 10 12  1  0
 12 13  1  0
 13 14  1  1
 14 15  1  0
 15 16  2  0
 15 19  1  0
 16 17  1  0
 17 18  1  0
 19 18  2  0
 20 21  2  0
 20 13  1  0
 22 20  1  0
 23 22  1  0
 23 24  1  0
 24 25  1  0
 26 24  2  0
M  END
$$$$
