FHG.pdb
     RDKit          3D

 26 27  0  0  1  0  0  0  0  0999 V2000
    8.2680  -15.5180   25.6299 N   0  0  0  0  0  0  0  0  0  0  0  0
    7.3138  -15.4967   24.5734 C   0  0  1  0  0  0  0  0  0  0  0  0
    6.6178  -14.1873   24.3870 C   0  0  0  0  0  0  0  0  0  0  0  0
    6.7616  -13.2370   25.4729 C   0  0  0  0  0  0  0  0  0  0  0  0
    7.7531  -12.2664   25.5261 C   0  0  0  0  0  0  0  0  0  0  0  0
    7.8328  -11.3941   26.5882 C   0  0  0  0  0  0  0  0  0  0  0  0
    6.9209  -11.4767   27.6181 C   0  0  0  0  0  0  0  0  0  0  0  0
    5.9271  -12.4334   27.5865 C   0  0  0  0  0  0  0  0  0  0  0  0
    5.8466  -13.3087   26.5213 C   0  0  0  0  0  0  0  0  0  0  0  0
    8.0016  -15.8262   23.3038 C   0  0  0  0  0  0  0  0  0  0  0  0
    7.3104  -16.1003   22.2971 O   0  0  0  0  0  0  0  0  0  0  0  0
    9.4113  -15.8453   23.1773 N   0  0  0  0  0  0  0  0  0  0  0  0
    9.9940  -16.2822   21.9271 C   0  0  1  0  0  0  0  0  0  0  0  0
   10.3901  -15.0760   21.1041 C   0  0  0  0  0  0  0  0  0  0  0  0
    9.2572  -14.4192   20.4310 C   0  0  0  0  0  0  0  0  0  0  0  0
    8.3037  -15.0518   19.6269 C   0  0  0  0  0  0  0  0  0  0  0  0
    7.4227  -14.1652   19.1787 N   0  0  0  0  0  0  0  0  0  0  0  0
    7.7649  -12.9586   19.6635 C   0  0  0  0  0  0  0  0  0  0  0  0
    8.8669  -13.1219   20.4136 N   0  0  0  0  0  0  0  0  0  0  0  0
   11.2135  -17.1038   22.1581 C   0  0  0  0  0  0  0  0  0  0  0  0
   12.0623  -17.2266   21.2471 O   0  0  0  0  0  0  0  0  0  0  0  0
   11.4635  -17.7677   23.3882 N   0  0  0  0  0  0  0  0  0  0  0  0
   12.6673  -18.5914   23.5765 C   0  0  0  0  0  0  0  0  0  0  0  0
   12.7319  -19.1171   24.9430 C   0  0  0  0  0  0  0  0  0  0  0  0
   13.8296  -19.8743   25.3143 O   0  0  0  0  0  0  0  0  0  0  0  0
   11.8270  -18.9036   25.7842 O   0  0  0  0  0  0  0  0  0  0  0  0
  2  1  1  1
  2 10  1  0
  3  2  1  0
  4  9  1  0
  4  3  1  0
  5  4  2  0
  6  7  2  0
  6  5  1  0
  7  8  1  0
  8  9  2  0
 10 11  2  0
 10 12  1  0
 12 13  1  0
 13 14  1  6
 14 15  1  0
 15 16  2  0
 15 19  1  0
 16 17  1  0
 17 18  1  0
 19 18  2  0
 20 21  2  0
 20 13  1  0
 22 20  1  0
 23 22  1  0
 23 24  1  0
 24 25  1  0
 26 24  2  0
M  END
$$$$
