FHG.pdb
     RDKit          3D

 26 27  0  0  1  0  0  0  0  0999 V2000
    5.1680  -17.2482   23.6957 N   0  0  0  0  0  0  0  0  0  0  0  0
    6.0758  -16.2507   24.1517 C   0  0  1  0  0  0  0  0  0  0  0  0
    6.3212  -16.2569   25.6260 C   0  0  0  0  0  0  0  0  0  0  0  0
    6.8339  -15.0208   26.1847 C   0  0  0  0  0  0  0  0  0  0  0  0
    6.0933  -13.8506   26.2847 C   0  0  0  0  0  0  0  0  0  0  0  0
    6.6422  -12.7102   26.8268 C   0  0  0  0  0  0  0  0  0  0  0  0
    7.9438  -12.7195   27.2794 C   0  0  0  0  0  0  0  0  0  0  0  0
    8.6986  -13.8712   27.1901 C   0  0  0  0  0  0  0  0  0  0  0  0
    8.1486  -15.0154   26.6464 C   0  0  0  0  0  0  0  0  0  0  0  0
    7.3793  -16.4487   23.4771 C   0  0  0  0  0  0  0  0  0  0  0  0
    7.7024  -17.6029   23.1165 O   0  0  0  0  0  0  0  0  0  0  0  0
    8.2798  -15.3872   23.2207 N   0  0  0  0  0  0  0  0  0  0  0  0
    9.4579  -15.6487   22.4223 C   0  0  1  0  0  0  0  0  0  0  0  0
    9.7797  -14.4330   21.5812 C   0  0  0  0  0  0  0  0  0  0  0  0
    8.7594  -14.1282   20.5642 C   0  0  0  0  0  0  0  0  0  0  0  0
    8.8446  -14.4326   19.2018 C   0  0  0  0  0  0  0  0  0  0  0  0
    7.7520  -14.0178   18.5714 N   0  0  0  0  0  0  0  0  0  0  0  0
    6.9416  -13.4452   19.4788 C   0  0  0  0  0  0  0  0  0  0  0  0
    7.5553  -13.5166   20.6713 N   0  0  0  0  0  0  0  0  0  0  0  0
   10.6379  -15.9409   23.2813 C   0  0  0  0  0  0  0  0  0  0  0  0
   11.7871  -15.6560   22.8770 O   0  0  0  0  0  0  0  0  0  0  0  0
   10.5178  -16.5398   24.5632 N   0  0  0  0  0  0  0  0  0  0  0  0
   11.7081  -16.9010   25.3480 C   0  0  0  0  0  0  0  0  0  0  0  0
   11.3381  -17.2750   26.7159 C   0  0  0  0  0  0  0  0  0  0  0  0
   12.3438  -17.5408   27.6290 O   0  0  0  0  0  0  0  0  0  0  0  0
   10.1427  -17.3615   27.0845 O   0  0  0  0  0  0  0  0  0  0  0  0
  2  1  1  1
  2 10  1  0
  3  2  1  0
  4  9  1  0
  4  3  1  0
  5  4  2  0
  6  7  2  0
  6  5  1  0
  7  8  1  0
  8  9  2  0
 10 11  2  0
 10 12  1  0
 12 13  1  0
 13 14  1  1
 14 15  1  0
 15 16  2  0
 15 19  1  0
 16 17  1  0
 17 18  1  0
 19 18  2  0
 20 21  2  0
 20 13  1  0
 22 20  1  0
 23 22  1  0
 23 24  1  0
 24 25  1  0
 26 24  2  0
M  END
$$$$
