FHG.pdb
     RDKit          3D

 26 27  0  0  1  0  0  0  0  0999 V2000
    5.5967  -16.6747   24.2744 N   0  0  0  0  0  0  0  0  0  0  0  0
    6.7169  -15.7973   24.3239 C   0  0  1  0  0  0  0  0  0  0  0  0
    7.2650  -15.5612   25.6941 C   0  0  0  0  0  0  0  0  0  0  0  0
    7.2279  -14.1884   26.1598 C   0  0  0  0  0  0  0  0  0  0  0  0
    8.3505  -13.3798   26.2763 C   0  0  0  0  0  0  0  0  0  0  0  0
    8.2445  -12.0828   26.7260 C   0  0  0  0  0  0  0  0  0  0  0  0
    7.0119  -11.5702   27.0679 C   0  0  0  0  0  0  0  0  0  0  0  0
    5.8825  -12.3556   26.9601 C   0  0  0  0  0  0  0  0  0  0  0  0
    5.9881  -13.6567   26.5090 C   0  0  0  0  0  0  0  0  0  0  0  0
    7.8046  -16.3666   23.4954 C   0  0  0  0  0  0  0  0  0  0  0  0
    7.7947  -17.5934   23.2474 O   0  0  0  0  0  0  0  0  0  0  0  0
    8.8591  -15.5826   22.9692 N   0  0  0  0  0  0  0  0  0  0  0  0
    9.7713  -16.1854   22.0215 C   0  0  1  0  0  0  0  0  0  0  0  0
   10.0716  -15.2018   20.9118 C   0  0  0  0  0  0  0  0  0  0  0  0
    8.8691  -14.6648   20.2534 C   0  0  0  0  0  0  0  0  0  0  0  0
    8.2023  -15.2428   19.1683 C   0  0  0  0  0  0  0  0  0  0  0  0
    7.1576  -14.4987   18.8246 N   0  0  0  0  0  0  0  0  0  0  0  0
    7.1115  -13.4403   19.6526 C   0  0  0  0  0  0  0  0  0  0  0  0
    8.1427  -13.5494   20.5062 N   0  0  0  0  0  0  0  0  0  0  0  0
   11.0584  -16.5549   22.6715 C   0  0  0  0  0  0  0  0  0  0  0  0
   11.9159  -17.2017   22.0298 O   0  0  0  0  0  0  0  0  0  0  0  0
   11.3645  -16.2006   24.0120 N   0  0  0  0  0  0  0  0  0  0  0  0
   12.5876  -16.6887   24.6669 C   0  0  0  0  0  0  0  0  0  0  0  0
   13.7771  -16.0569   24.0893 C   0  0  0  0  0  0  0  0  0  0  0  0
   13.6293  -15.2577   22.9687 O   0  0  0  0  0  0  0  0  0  0  0  0
   14.9214  -16.2166   24.5764 O   0  0  0  0  0  0  0  0  0  0  0  0
  2  1  1  1
  2 10  1  0
  3  2  1  0
  4  9  1  0
  4  3  1  0
  5  4  2  0
  6  7  2  0
  6  5  1  0
  7  8  1  0
  8  9  2  0
 10 11  2  0
 10 12  1  0
 12 13  1  0
 13 14  1  6
 14 15  1  0
 15 16  2  0
 15 19  1  0
 16 17  1  0
 17 18  1  0
 19 18  2  0
 20 21  2  0
 20 13  1  0
 22 20  1  0
 23 22  1  0
 23 24  1  0
 24 25  1  0
 26 24  2  0
M  END
$$$$
