FHG.pdb
     RDKit          3D

 26 27  0  0  1  0  0  0  0  0999 V2000
    9.1082  -14.8385   25.3923 N   0  0  0  0  0  0  0  0  0  0  0  0
    7.9625  -15.3248   24.7008 C   0  0  1  0  0  0  0  0  0  0  0  0
    6.9122  -14.2961   24.4321 C   0  0  0  0  0  0  0  0  0  0  0  0
    6.6562  -13.3603   25.5099 C   0  0  0  0  0  0  0  0  0  0  0  0
    5.6985  -13.5581   26.4957 C   0  0  0  0  0  0  0  0  0  0  0  0
    5.5066  -12.6277   27.4922 C   0  0  0  0  0  0  0  0  0  0  0  0
    6.2702  -11.4809   27.5211 C   0  0  0  0  0  0  0  0  0  0  0  0
    7.2278  -11.2633   26.5517 C   0  0  0  0  0  0  0  0  0  0  0  0
    7.4208  -12.1962   25.5518 C   0  0  0  0  0  0  0  0  0  0  0  0
    8.3932  -15.8803   23.3972 C   0  0  0  0  0  0  0  0  0  0  0  0
    7.5599  -16.5046   22.7028 O   0  0  0  0  0  0  0  0  0  0  0  0
    9.7104  -15.7363   22.8992 N   0  0  0  0  0  0  0  0  0  0  0  0
   10.1058  -16.5050   21.7389 C   0  0  1  0  0  0  0  0  0  0  0  0
   10.3346  -15.5740   20.5685 C   0  0  0  0  0  0  0  0  0  0  0  0
    9.1707  -14.7327   20.2434 C   0  0  0  0  0  0  0  0  0  0  0  0
    7.9126  -15.1944   19.8434 C   0  0  0  0  0  0  0  0  0  0  0  0
    7.0958  -14.1693   19.6306 N   0  0  0  0  0  0  0  0  0  0  0  0
    7.7775  -13.0371   19.8784 C   0  0  0  0  0  0  0  0  0  0  0  0
    9.0214  -13.3861   20.2455 N   0  0  0  0  0  0  0  0  0  0  0  0
   11.3700  -17.2496   21.9901 C   0  0  0  0  0  0  0  0  0  0  0  0
   12.4263  -16.8903   21.4240 O   0  0  0  0  0  0  0  0  0  0  0  0
   11.4344  -18.3707   22.8593 N   0  0  0  0  0  0  0  0  0  0  0  0
   12.7206  -19.0011   23.1928 C   0  0  0  0  0  0  0  0  0  0  0  0
   12.5384  -20.0694   24.1795 C   0  0  0  0  0  0  0  0  0  0  0  0
   11.2766  -20.2797   24.7083 O   0  0  0  0  0  0  0  0  0  0  0  0
   13.4865  -20.7970   24.5588 O   0  0  0  0  0  0  0  0  0  0  0  0
  2  1  1  6
  2 10  1  0
  3  2  1  0
  4  9  1  0
  4  3  1  0
  5  4  2  0
  6  7  2  0
  6  5  1  0
  7  8  1  0
  8  9  2  0
 10 11  2  0
 10 12  1  0
 12 13  1  0
 13 14  1  6
 14 15  1  0
 15 16  2  0
 15 19  1  0
 16 17  1  0
 17 18  1  0
 19 18  2  0
 20 21  2  0
 20 13  1  0
 22 20  1  0
 23 22  1  0
 23 24  1  0
 24 25  1  0
 26 24  2  0
M  END
$$$$
