FHG.pdb
     RDKit          3D

 26 27  0  0  1  0  0  0  0  0999 V2000
    5.7128  -17.0804   24.7248 N   0  0  0  0  0  0  0  0  0  0  0  0
    6.6335  -15.9975   24.6434 C   0  0  1  0  0  0  0  0  0  0  0  0
    7.2716  -15.6216   25.9416 C   0  0  0  0  0  0  0  0  0  0  0  0
    7.1233  -14.2346   26.3383 C   0  0  0  0  0  0  0  0  0  0  0  0
    8.0445  -13.5504   27.1200 C   0  0  0  0  0  0  0  0  0  0  0  0
    7.8420  -12.2319   27.4609 C   0  0  0  0  0  0  0  0  0  0  0  0
    6.7128  -11.5728   27.0254 C   0  0  0  0  0  0  0  0  0  0  0  0
    5.7838  -12.2329   26.2475 C   0  0  0  0  0  0  0  0  0  0  0  0
    5.9863  -13.5555   25.9052 C   0  0  0  0  0  0  0  0  0  0  0  0
    7.7146  -16.3616   23.6987 C   0  0  0  0  0  0  0  0  0  0  0  0
    7.8166  -17.5531   23.3294 O   0  0  0  0  0  0  0  0  0  0  0  0
    8.6413  -15.4189   23.1927 N   0  0  0  0  0  0  0  0  0  0  0  0
    9.5300  -15.8186   22.1232 C   0  0  1  0  0  0  0  0  0  0  0  0
    9.8590  -14.6183   21.2629 C   0  0  0  0  0  0  0  0  0  0  0  0
    8.8086  -14.2815   20.2877 C   0  0  0  0  0  0  0  0  0  0  0  0
    7.6385  -15.0129   20.0589 C   0  0  0  0  0  0  0  0  0  0  0  0
    6.9122  -14.4292   19.1128 N   0  0  0  0  0  0  0  0  0  0  0  0
    7.5683  -13.3284   18.7057 C   0  0  0  0  0  0  0  0  0  0  0  0
    8.7048  -13.2488   19.4169 N   0  0  0  0  0  0  0  0  0  0  0  0
   10.8063  -16.3664   22.6585 C   0  0  0  0  0  0  0  0  0  0  0  0
   11.7793  -16.5388   21.8911 O   0  0  0  0  0  0  0  0  0  0  0  0
   10.9744  -16.7093   24.0262 N   0  0  0  0  0  0  0  0  0  0  0  0
   12.2391  -17.2768   24.5177 C   0  0  0  0  0  0  0  0  0  0  0  0
   12.2221  -17.4036   25.9777 C   0  0  0  0  0  0  0  0  0  0  0  0
   13.3773  -17.8069   26.6248 O   0  0  0  0  0  0  0  0  0  0  0  0
   11.1973  -17.1591   26.6574 O   0  0  0  0  0  0  0  0  0  0  0  0
  2  1  1  1
  2 10  1  0
  3  2  1  0
  4  9  1  0
  4  3  1  0
  5  4  2  0
  6  7  2  0
  6  5  1  0
  7  8  1  0
  8  9  2  0
 10 11  2  0
 10 12  1  0
 12 13  1  0
 13 14  1  6
 14 15  1  0
 15 16  2  0
 15 19  1  0
 16 17  1  0
 17 18  1  0
 19 18  2  0
 20 21  2  0
 20 13  1  0
 22 20  1  0
 23 22  1  0
 23 24  1  0
 24 25  1  0
 26 24  2  0
M  END
$$$$
