FHG.pdb
     RDKit          3D

 26 27  0  0  1  0  0  0  0  0999 V2000
    7.3109  -17.0297   17.0237 N   0  0  0  0  0  0  0  0  0  0  0  0
    7.7983  -16.0737   17.9595 C   0  0  1  0  0  0  0  0  0  0  0  0
    6.7423  -15.2311   18.5986 C   0  0  0  0  0  0  0  0  0  0  0  0
    7.1753  -14.4229   19.7221 C   0  0  0  0  0  0  0  0  0  0  0  0
    6.9791  -14.7756   21.0507 C   0  0  0  0  0  0  0  0  0  0  0  0
    7.4161  -13.9608   22.0708 C   0  0  0  0  0  0  0  0  0  0  0  0
    8.0583  -12.7767   21.7804 C   0  0  0  0  0  0  0  0  0  0  0  0
    8.2643  -12.4059   20.4673 C   0  0  0  0  0  0  0  0  0  0  0  0
    7.8262  -13.2227   19.4435 C   0  0  0  0  0  0  0  0  0  0  0  0
    8.5190  -16.7880   19.0383 C   0  0  0  0  0  0  0  0  0  0  0  0
    7.9797  -17.7872   19.5648 O   0  0  0  0  0  0  0  0  0  0  0  0
    9.7956  -16.3899   19.5026 N   0  0  0  0  0  0  0  0  0  0  0  0
   10.4921  -17.2397   20.4440 C   0  0  1  0  0  0  0  0  0  0  0  0
   11.8608  -17.5839   19.8988 C   0  0  0  0  0  0  0  0  0  0  0  0
   11.8324  -18.5621   18.7987 C   0  0  0  0  0  0  0  0  0  0  0  0
   10.7515  -19.3825   18.4599 C   0  0  0  0  0  0  0  0  0  0  0  0
   11.0645  -20.1442   17.4183 N   0  0  0  0  0  0  0  0  0  0  0  0
   12.3257  -19.8523   17.0547 C   0  0  0  0  0  0  0  0  0  0  0  0
   12.7775  -18.9019   17.8893 N   0  0  0  0  0  0  0  0  0  0  0  0
   10.6755  -16.5571   21.7540 C   0  0  0  0  0  0  0  0  0  0  0  0
   11.0835  -15.3748   21.7873 O   0  0  0  0  0  0  0  0  0  0  0  0
   10.4037  -17.1976   22.9918 N   0  0  0  0  0  0  0  0  0  0  0  0
   10.5588  -16.4828   24.2678 C   0  0  0  0  0  0  0  0  0  0  0  0
   11.9392  -16.5720   24.7520 C   0  0  0  0  0  0  0  0  0  0  0  0
   12.2707  -15.9424   25.9394 O   0  0  0  0  0  0  0  0  0  0  0  0
   12.8271  -17.1987   24.1267 O   0  0  0  0  0  0  0  0  0  0  0  0
  2  1  1  6
  2 10  1  0
  3  2  1  0
  4  9  1  0
  4  3  1  0
  5  4  2  0
  6  7  2  0
  6  5  1  0
  7  8  1  0
  8  9  2  0
 10 11  2  0
 10 12  1  0
 12 13  1  0
 13 14  1  6
 14 15  1  0
 15 16  2  0
 15 19  1  0
 16 17  1  0
 17 18  1  0
 19 18  2  0
 20 21  2  0
 20 13  1  0
 22 20  1  0
 23 22  1  0
 23 24  1  0
 24 25  1  0
 26 24  2  0
M  END
$$$$
