FHG.pdb
     RDKit          3D

 26 27  0  0  1  0  0  0  0  0999 V2000
    5.5209  -17.6236   24.1187 N   0  0  0  0  0  0  0  0  0  0  0  0
    6.1410  -16.3723   24.3957 C   0  0  1  0  0  0  0  0  0  0  0  0
    6.3814  -16.1020   25.8457 C   0  0  0  0  0  0  0  0  0  0  0  0
    6.8407  -14.7652   26.1699 C   0  0  0  0  0  0  0  0  0  0  0  0
    8.1597  -14.4511   26.4690 C   0  0  0  0  0  0  0  0  0  0  0  0
    8.5286  -13.1589   26.7686 C   0  0  0  0  0  0  0  0  0  0  0  0
    7.5837  -12.1559   26.7745 C   0  0  0  0  0  0  0  0  0  0  0  0
    6.2669  -12.4448   26.4803 C   0  0  0  0  0  0  0  0  0  0  0  0
    5.8961  -13.7409   26.1797 C   0  0  0  0  0  0  0  0  0  0  0  0
    7.4507  -16.3268   23.7056 C   0  0  0  0  0  0  0  0  0  0  0  0
    8.0887  -17.3925   23.5521 O   0  0  0  0  0  0  0  0  0  0  0  0
    8.0157  -15.1273   23.2099 N   0  0  0  0  0  0  0  0  0  0  0  0
    9.1437  -15.2080   22.3072 C   0  0  1  0  0  0  0  0  0  0  0  0
    9.2956  -13.8966   21.5683 C   0  0  0  0  0  0  0  0  0  0  0  0
    8.5347  -13.8334   20.3093 C   0  0  0  0  0  0  0  0  0  0  0  0
    7.8091  -14.8833   19.7373 C   0  0  0  0  0  0  0  0  0  0  0  0
    7.2444  -14.4845   18.6036 N   0  0  0  0  0  0  0  0  0  0  0  0
    7.5752  -13.1963   18.4059 C   0  0  0  0  0  0  0  0  0  0  0  0
    8.3496  -12.8151   19.4350 N   0  0  0  0  0  0  0  0  0  0  0  0
   10.4087  -15.4704   23.0464 C   0  0  0  0  0  0  0  0  0  0  0  0
   10.5959  -14.9429   24.1654 O   0  0  0  0  0  0  0  0  0  0  0  0
   11.4330  -16.3078   22.5309 N   0  0  0  0  0  0  0  0  0  0  0  0
   12.3256  -17.0573   23.4280 C   0  0  0  0  0  0  0  0  0  0  0  0
   13.4131  -16.2041   23.9150 C   0  0  0  0  0  0  0  0  0  0  0  0
   13.6535  -16.1435   25.2769 O   0  0  0  0  0  0  0  0  0  0  0  0
   14.1308  -15.5291   23.1395 O   0  0  0  0  0  0  0  0  0  0  0  0
  2  1  1  1
  2 10  1  0
  3  2  1  0
  4  9  1  0
  4  3  1  0
  5  4  2  0
  6  7  2  0
  6  5  1  0
  7  8  1  0
  8  9  2  0
 10 11  2  0
 10 12  1  0
 12 13  1  0
 13 14  1  1
 14 15  1  0
 15 16  2  0
 15 19  1  0
 16 17  1  0
 17 18  1  0
 19 18  2  0
 20 21  2  0
 20 13  1  0
 22 20  1  0
 23 22  1  0
 23 24  1  0
 24 25  1  0
 26 24  2  0
M  END
$$$$
