FHG.pdb
     RDKit          3D

 26 27  0  0  1  0  0  0  0  0999 V2000
    7.7622  -15.7419   25.4815 N   0  0  0  0  0  0  0  0  0  0  0  0
    6.9448  -15.6370   24.3205 C   0  0  1  0  0  0  0  0  0  0  0  0
    6.3078  -14.2993   24.1242 C   0  0  0  0  0  0  0  0  0  0  0  0
    6.4367  -13.3714   25.2312 C   0  0  0  0  0  0  0  0  0  0  0  0
    5.5187  -13.2710   26.2681 C   0  0  0  0  0  0  0  0  0  0  0  0
    5.7020  -12.3668   27.2900 C   0  0  0  0  0  0  0  0  0  0  0  0
    6.8085  -11.5454   27.2936 C   0  0  0  0  0  0  0  0  0  0  0  0
    7.7339  -11.6277   26.2734 C   0  0  0  0  0  0  0  0  0  0  0  0
    7.5507  -12.5345   25.2480 C   0  0  0  0  0  0  0  0  0  0  0  0
    7.7744  -15.9205   23.1268 C   0  0  0  0  0  0  0  0  0  0  0  0
    7.2045  -16.1297   22.0323 O   0  0  0  0  0  0  0  0  0  0  0  0
    9.1886  -15.9659   23.1682 N   0  0  0  0  0  0  0  0  0  0  0  0
    9.9169  -16.1678   21.9344 C   0  0  1  0  0  0  0  0  0  0  0  0
   10.2271  -14.8278   21.3044 C   0  0  0  0  0  0  0  0  0  0  0  0
    9.0824  -14.2224   20.6035 C   0  0  0  0  0  0  0  0  0  0  0  0
    8.8605  -14.2485   19.2229 C   0  0  0  0  0  0  0  0  0  0  0  0
    7.7352  -13.6080   18.9285 N   0  0  0  0  0  0  0  0  0  0  0  0
    7.2021  -13.1562   20.0773 C   0  0  0  0  0  0  0  0  0  0  0  0
    8.0181  -13.5301   21.0764 N   0  0  0  0  0  0  0  0  0  0  0  0
   11.2051  -16.8727   22.1774 C   0  0  0  0  0  0  0  0  0  0  0  0
   12.1120  -16.8250   21.3168 O   0  0  0  0  0  0  0  0  0  0  0  0
   11.4578  -17.6113   23.3636 N   0  0  0  0  0  0  0  0  0  0  0  0
   12.6721  -18.4289   23.5058 C   0  0  0  0  0  0  0  0  0  0  0  0
   12.7919  -18.9533   24.8691 C   0  0  0  0  0  0  0  0  0  0  0  0
   13.8584  -18.5418   25.6499 O   0  0  0  0  0  0  0  0  0  0  0  0
   11.9615  -19.7606   25.3495 O   0  0  0  0  0  0  0  0  0  0  0  0
  2  1  1  1
  2 10  1  0
  3  2  1  0
  4  9  1  0
  4  3  1  0
  5  4  2  0
  6  7  2  0
  6  5  1  0
  7  8  1  0
  8  9  2  0
 10 11  2  0
 10 12  1  0
 12 13  1  0
 13 14  1  1
 14 15  1  0
 15 16  2  0
 15 19  1  0
 16 17  1  0
 17 18  1  0
 19 18  2  0
 20 21  2  0
 20 13  1  0
 22 20  1  0
 23 22  1  0
 23 24  1  0
 24 25  1  0
 26 24  2  0
M  END
$$$$
