FHG.pdb
     RDKit          3D

 26 27  0  0  1  0  0  0  0  0999 V2000
    5.9879  -17.0428   24.5872 N   0  0  0  0  0  0  0  0  0  0  0  0
    6.8044  -15.8809   24.4851 C   0  0  1  0  0  0  0  0  0  0  0  0
    7.3422  -15.3795   25.7863 C   0  0  0  0  0  0  0  0  0  0  0  0
    7.0333  -13.9991   26.1058 C   0  0  0  0  0  0  0  0  0  0  0  0
    7.8164  -12.9205   25.7170 C   0  0  0  0  0  0  0  0  0  0  0  0
    7.4647  -11.6329   26.0546 C   0  0  0  0  0  0  0  0  0  0  0  0
    6.3217  -11.4003   26.7885 C   0  0  0  0  0  0  0  0  0  0  0  0
    5.5283  -12.4570   27.1858 C   0  0  0  0  0  0  0  0  0  0  0  0
    5.8804  -13.7488   26.8474 C   0  0  0  0  0  0  0  0  0  0  0  0
    7.9583  -16.1854   23.6080 C   0  0  0  0  0  0  0  0  0  0  0  0
    8.2689  -17.3822   23.4138 O   0  0  0  0  0  0  0  0  0  0  0  0
    8.7289  -15.1797   22.9767 N   0  0  0  0  0  0  0  0  0  0  0  0
    9.7168  -15.5707   21.9945 C   0  0  1  0  0  0  0  0  0  0  0  0
   10.0009  -14.4066   21.0709 C   0  0  0  0  0  0  0  0  0  0  0  0
    8.9242  -14.1413   20.1022 C   0  0  0  0  0  0  0  0  0  0  0  0
    7.7783  -14.9217   19.9172 C   0  0  0  0  0  0  0  0  0  0  0  0
    7.0170  -14.3972   18.9640 N   0  0  0  0  0  0  0  0  0  0  0  0
    7.6262  -13.2880   18.5096 C   0  0  0  0  0  0  0  0  0  0  0  0
    8.7697  -13.1434   19.1990 N   0  0  0  0  0  0  0  0  0  0  0  0
   10.9960  -15.9674   22.6440 C   0  0  0  0  0  0  0  0  0  0  0  0
   11.9367  -16.4082   21.9469 O   0  0  0  0  0  0  0  0  0  0  0  0
   11.2025  -15.8668   24.0453 N   0  0  0  0  0  0  0  0  0  0  0  0
   12.0124  -16.8595   24.7675 C   0  0  0  0  0  0  0  0  0  0  0  0
   13.4082  -16.8183   24.3224 C   0  0  0  0  0  0  0  0  0  0  0  0
   14.3855  -16.4441   25.2285 O   0  0  0  0  0  0  0  0  0  0  0  0
   13.7444  -17.1104   23.1504 O   0  0  0  0  0  0  0  0  0  0  0  0
  2  1  1  1
  2 10  1  0
  3  2  1  0
  4  9  1  0
  4  3  1  0
  5  4  2  0
  6  7  2  0
  6  5  1  0
  7  8  1  0
  8  9  2  0
 10 11  2  0
 10 12  1  0
 12 13  1  0
 13 14  1  6
 14 15  1  0
 15 16  2  0
 15 19  1  0
 16 17  1  0
 17 18  1  0
 19 18  2  0
 20 21  2  0
 20 13  1  0
 22 20  1  0
 23 22  1  0
 23 24  1  0
 24 25  1  0
 26 24  2  0
M  END
$$$$
