NTT.pdb
     RDKit          3D

 23 22  0  0  1  0  0  0  0  0999 V2000
   15.1954  -14.5019   18.2730 N   0  0  0  0  0  0  0  0  0  0  0  0
   13.9683  -14.7972   17.6189 C   0  0  0  0  0  0  0  0  0  0  0  0
   14.0380  -15.5237   16.5849 O   0  0  0  0  0  0  0  0  0  0  0  0
   12.6739  -14.2756   18.1296 C   0  0  0  0  0  0  0  0  0  0  0  0
   12.3454  -14.9865   19.4042 C   0  0  2  0  0  0  0  0  0  0  0  0
   11.8760  -16.3255   19.0490 N   0  0  0  0  0  0  0  0  0  0  0  0
   11.3569  -14.2723   20.2324 C   0  0  0  0  0  0  0  0  0  0  0  0
   11.5913  -13.0941   20.5539 O   0  0  0  0  0  0  0  0  0  0  0  0
    7.6616  -13.6096   19.5365 C   0  0  0  0  0  0  0  0  0  0  0  0
    7.7685  -14.2520   20.8859 C   0  0  1  0  0  0  0  0  0  0  0  0
    7.3587  -15.5809   20.7745 O   0  0  0  0  0  0  0  0  0  0  0  0
    9.1616  -14.1900   21.4628 C   0  0  2  0  0  0  0  0  0  0  0  0
   10.1351  -14.8715   20.6864 N   0  0  0  0  0  0  0  0  0  0  0  0
    9.0979  -14.6718   22.8789 C   0  0  0  0  0  0  0  0  0  0  0  0
    9.7357  -15.6475   23.2989 O   0  0  0  0  0  0  0  0  0  0  0  0
    7.4439  -13.9289   27.5056 C   0  0  0  0  0  0  0  0  0  0  0  0
    7.4880  -13.4562   26.0712 C   0  0  1  0  0  0  0  0  0  0  0  0
    8.2551  -12.2918   26.0464 O   0  0  0  0  0  0  0  0  0  0  0  0
    8.1563  -14.4564   25.1650 C   0  0  2  0  0  0  0  0  0  0  0  0
    8.2642  -13.9808   23.8009 N   0  0  0  0  0  0  0  0  0  0  0  0
    7.3561  -15.7067   25.1886 C   0  0  0  0  0  0  0  0  0  0  0  0
    7.4463  -16.5905   26.2533 O   0  0  0  0  0  0  0  0  0  0  0  0
    6.5736  -16.0098   24.2539 O   0  0  0  0  0  0  0  0  0  0  0  0
  2  4  1  0
  2  1  1  0
  3  2  2  0
  5  4  1  0
  5  6  1  6
  7  5  1  0
  7  8  2  0
 10  9  1  6
 10 12  1  0
 11 10  1  0
 12 13  1  6
 12 14  1  0
 13  7  1  0
 14 20  1  0
 14 15  2  0
 17 16  1  1
 18 17  1  0
 19 17  1  0
 19 20  1  6
 21 22  1  0
 21 19  1  0
 23 21  2  0
M  END
$$$$
