NTT.pdb
     RDKit          3D

 23 22  0  0  1  0  0  0  0  0999 V2000
    3.7669  -19.4729   19.8809 N   0  0  0  0  0  0  0  0  0  0  0  0
    4.9239  -19.4290   19.0562 C   0  0  0  0  0  0  0  0  0  0  0  0
    4.7526  -19.6741   17.8263 O   0  0  0  0  0  0  0  0  0  0  0  0
    6.2627  -19.1109   19.6172 C   0  0  0  0  0  0  0  0  0  0  0  0
    6.7261  -17.8140   19.0330 C   0  0  2  0  0  0  0  0  0  0  0  0
    7.3751  -18.1166   17.7576 N   0  0  0  0  0  0  0  0  0  0  0  0
    7.6229  -17.0590   19.9268 C   0  0  0  0  0  0  0  0  0  0  0  0
    8.8172  -17.3986   19.9956 O   0  0  0  0  0  0  0  0  0  0  0  0
    8.1186  -13.2465   19.9572 C   0  0  0  0  0  0  0  0  0  0  0  0
    7.8969  -13.6916   21.3707 C   0  0  1  0  0  0  0  0  0  0  0  0
    6.6206  -13.2883   21.7641 O   0  0  0  0  0  0  0  0  0  0  0  0
    8.0439  -15.1826   21.5522 C   0  0  2  0  0  0  0  0  0  0  0  0
    7.1839  -15.9492   20.7228 N   0  0  0  0  0  0  0  0  0  0  0  0
    7.8819  -15.4896   23.0085 C   0  0  0  0  0  0  0  0  0  0  0  0
    6.7836  -15.6796   23.5496 O   0  0  0  0  0  0  0  0  0  0  0  0
    6.9276  -17.4154   24.8208 C   0  0  0  0  0  0  0  0  0  0  0  0
    8.3246  -17.3223   25.3889 C   0  0  1  0  0  0  0  0  0  0  0  0
    9.1206  -18.2121   24.6683 O   0  0  0  0  0  0  0  0  0  0  0  0
    8.9156  -15.9476   25.2179 C   0  0  2  0  0  0  0  0  0  0  0  0
    9.0436  -15.5703   23.8251 N   0  0  0  0  0  0  0  0  0  0  0  0
   10.2563  -15.9395   25.8554 C   0  0  0  0  0  0  0  0  0  0  0  0
   11.4028  -15.7399   25.1013 O   0  0  0  0  0  0  0  0  0  0  0  0
   10.4031  -16.1116   27.0910 O   0  0  0  0  0  0  0  0  0  0  0  0
  2  4  1  0
  2  1  1  0
  3  2  2  0
  5  4  1  0
  5  6  1  6
  7  5  1  0
  7  8  2  0
 10  9  1  6
 10 12  1  0
 11 10  1  0
 12 13  1  6
 12 14  1  0
 13  7  1  0
 14 20  1  0
 14 15  2  0
 17 16  1  6
 18 17  1  0
 19 17  1  0
 19 20  1  6
 21 22  1  0
 21 19  1  0
 23 21  2  0
M  END
$$$$
