NTT.pdb
     RDKit          3D

 23 22  0  0  1  0  0  0  0  0999 V2000
   14.9595  -17.5717   14.6294 N   0  0  0  0  0  0  0  0  0  0  0  0
   15.4877  -16.9717   15.8049 C   0  0  0  0  0  0  0  0  0  0  0  0
   16.7423  -17.0360   15.9592 O   0  0  0  0  0  0  0  0  0  0  0  0
   14.6050  -16.3050   16.7972 C   0  0  0  0  0  0  0  0  0  0  0  0
   13.1935  -16.3885   16.3086 C   0  0  2  0  0  0  0  0  0  0  0  0
   13.0885  -15.5309   15.1284 N   0  0  0  0  0  0  0  0  0  0  0  0
   12.1991  -16.0187   17.3321 C   0  0  0  0  0  0  0  0  0  0  0  0
   12.0821  -14.8199   17.6413 O   0  0  0  0  0  0  0  0  0  0  0  0
    8.4018  -16.9347   17.5075 C   0  0  0  0  0  0  0  0  0  0  0  0
    9.0641  -17.3025   18.8003 C   0  0  1  0  0  0  0  0  0  0  0  0
    9.2095  -18.6894   18.8414 O   0  0  0  0  0  0  0  0  0  0  0  0
   10.4064  -16.6388   18.9879 C   0  0  2  0  0  0  0  0  0  0  0  0
   11.3580  -16.9766   17.9902 N   0  0  0  0  0  0  0  0  0  0  0  0
   10.8804  -16.9379   20.3762 C   0  0  0  0  0  0  0  0  0  0  0  0
   11.8713  -17.6390   20.6246 O   0  0  0  0  0  0  0  0  0  0  0  0
   10.1659  -16.3572   25.2721 C   0  0  0  0  0  0  0  0  0  0  0  0
    9.7747  -15.9700   23.8650 C   0  0  1  0  0  0  0  0  0  0  0  0
   10.0686  -14.6149   23.7157 O   0  0  0  0  0  0  0  0  0  0  0  0
   10.5690  -16.7209   22.8288 C   0  0  2  0  0  0  0  0  0  0  0  0
   10.1632  -16.3937   21.4772 N   0  0  0  0  0  0  0  0  0  0  0  0
   10.3750  -18.1740   23.0630 C   0  0  0  0  0  0  0  0  0  0  0  0
   11.3342  -18.9230   23.7279 O   0  0  0  0  0  0  0  0  0  0  0  0
    9.3443  -18.7760   22.6717 O   0  0  0  0  0  0  0  0  0  0  0  0
  2  4  1  0
  2  1  1  0
  3  2  2  0
  5  4  1  0
  5  6  1  6
  7  5  1  0
  7  8  2  0
 10  9  1  6
 10 12  1  0
 11 10  1  0
 12 13  1  6
 12 14  1  0
 13  7  1  0
 14 20  1  0
 14 15  2  0
 17 16  1  1
 18 17  1  0
 19 17  1  0
 19 20  1  6
 21 22  1  0
 21 19  1  0
 23 21  2  0
M  END
$$$$
