NTT.pdb
     RDKit          3D

 23 22  0  0  1  0  0  0  0  0999 V2000
    6.6568  -15.8515   17.2530 N   0  0  0  0  0  0  0  0  0  0  0  0
    7.9459  -16.4121   17.4637 C   0  0  0  0  0  0  0  0  0  0  0  0
    8.3116  -17.3125   16.6529 O   0  0  0  0  0  0  0  0  0  0  0  0
    8.8139  -15.9587   18.5814 C   0  0  0  0  0  0  0  0  0  0  0  0
    8.0620  -14.9458   19.3855 C   0  0  2  0  0  0  0  0  0  0  0  0
    8.0147  -13.7126   18.6003 N   0  0  0  0  0  0  0  0  0  0  0  0
    8.6436  -14.7116   20.7197 C   0  0  0  0  0  0  0  0  0  0  0  0
    9.6384  -13.9711   20.8127 O   0  0  0  0  0  0  0  0  0  0  0  0
    7.4865  -12.9191   23.6357 C   0  0  0  0  0  0  0  0  0  0  0  0
    7.7788  -14.3010   24.1358 C   0  0  1  0  0  0  0  0  0  0  0  0
    6.5675  -14.9699   24.3139 O   0  0  0  0  0  0  0  0  0  0  0  0
    8.6708  -15.0901   23.2089 C   0  0  2  0  0  0  0  0  0  0  0  0
    8.1169  -15.2977   21.9184 N   0  0  0  0  0  0  0  0  0  0  0  0
    9.0436  -16.3650   23.8996 C   0  0  0  0  0  0  0  0  0  0  0  0
    8.5241  -17.4599   23.6420 O   0  0  0  0  0  0  0  0  0  0  0  0
   12.5006  -19.0461   25.9112 C   0  0  0  0  0  0  0  0  0  0  0  0
   12.0117  -17.7450   25.3187 C   0  0  1  0  0  0  0  0  0  0  0  0
   12.2764  -17.7924   23.9503 O   0  0  0  0  0  0  0  0  0  0  0  0
   10.5251  -17.5696   25.4850 C   0  0  2  0  0  0  0  0  0  0  0  0
   10.0467  -16.3303   24.9073 N   0  0  0  0  0  0  0  0  0  0  0  0
   10.2185  -17.5863   26.9375 C   0  0  0  0  0  0  0  0  0  0  0  0
   10.2181  -18.7746   27.6522 O   0  0  0  0  0  0  0  0  0  0  0  0
    9.9501  -16.5346   27.5698 O   0  0  0  0  0  0  0  0  0  0  0  0
  2  4  1  0
  2  1  1  0
  3  2  2  0
  5  4  1  0
  5  6  1  6
  7  5  1  0
  7  8  2  0
 10  9  1  6
 10 12  1  0
 11 10  1  0
 12 13  1  6
 12 14  1  0
 13  7  1  0
 14 20  1  0
 14 15  2  0
 17 16  1  1
 18 17  1  0
 19 17  1  0
 19 20  1  1
 21 22  1  0
 21 19  1  0
 23 21  2  0
M  END
$$$$
