NTT.pdb
     RDKit          3D

 23 22  0  0  1  0  0  0  0  0999 V2000
    8.2509  -12.5573   17.9184 N   0  0  0  0  0  0  0  0  0  0  0  0
    9.1140  -13.0378   18.9406 C   0  0  0  0  0  0  0  0  0  0  0  0
   10.3547  -13.0157   18.6913 O   0  0  0  0  0  0  0  0  0  0  0  0
    8.5789  -13.5389   20.2332 C   0  0  0  0  0  0  0  0  0  0  0  0
    8.9880  -14.9688   20.3939 C   0  0  2  0  0  0  0  0  0  0  0  0
    8.3140  -15.7362   19.3468 N   0  0  0  0  0  0  0  0  0  0  0  0
    8.6947  -15.5126   21.7323 C   0  0  0  0  0  0  0  0  0  0  0  0
    7.5069  -15.6063   22.0885 O   0  0  0  0  0  0  0  0  0  0  0  0
    9.0682  -18.7917   23.2884 C   0  0  0  0  0  0  0  0  0  0  0  0
    9.8203  -17.8521   24.1811 C   0  0  1  0  0  0  0  0  0  0  0  0
   11.1859  -18.0349   23.9619 O   0  0  0  0  0  0  0  0  0  0  0  0
    9.4532  -16.4048   23.9613 C   0  0  2  0  0  0  0  0  0  0  0  0
    9.7149  -15.9399   22.6458 N   0  0  0  0  0  0  0  0  0  0  0  0
   10.1322  -15.5897   25.0177 C   0  0  0  0  0  0  0  0  0  0  0  0
   11.2580  -15.0914   24.8792 O   0  0  0  0  0  0  0  0  0  0  0  0
    8.9539  -12.4050   26.9453 C   0  0  0  0  0  0  0  0  0  0  0  0
    9.1962  -13.5588   27.8903 C   0  0  1  0  0  0  0  0  0  0  0  0
    7.9622  -14.1664   28.1208 O   0  0  0  0  0  0  0  0  0  0  0  0
   10.1070  -14.5990   27.2931 C   0  0  2  0  0  0  0  0  0  0  0  0
    9.4588  -15.3684   26.2508 N   0  0  0  0  0  0  0  0  0  0  0  0
   10.5408  -15.5114   28.3810 C   0  0  0  0  0  0  0  0  0  0  0  0
   11.2657  -15.0358   29.4633 O   0  0  0  0  0  0  0  0  0  0  0  0
   10.2707  -16.7380   28.3638 O   0  0  0  0  0  0  0  0  0  0  0  0
  2  4  1  0
  2  1  1  0
  3  2  2  0
  5  4  1  0
  5  6  1  6
  7  5  1  0
  7  8  2  0
 10  9  1  6
 10 12  1  0
 11 10  1  0
 12 13  1  6
 12 14  1  0
 13  7  1  0
 14 20  1  0
 14 15  2  0
 17 16  1  6
 18 17  1  0
 19 17  1  0
 19 20  1  6
 21 22  1  0
 21 19  1  0
 23 21  2  0
M  END
$$$$
