NTT.pdb
     RDKit          3D

 23 22  0  0  1  0  0  0  0  0999 V2000
   10.1371  -16.7558   13.2478 N   0  0  0  0  0  0  0  0  0  0  0  0
    9.2756  -17.0496   14.3396 C   0  0  0  0  0  0  0  0  0  0  0  0
    8.6089  -18.1226   14.2625 O   0  0  0  0  0  0  0  0  0  0  0  0
    9.1688  -16.1380   15.5084 C   0  0  0  0  0  0  0  0  0  0  0  0
    9.0452  -16.9674   16.7473 C   0  0  2  0  0  0  0  0  0  0  0  0
    7.6611  -17.4340   16.8242 N   0  0  0  0  0  0  0  0  0  0  0  0
    9.4389  -16.2481   17.9724 C   0  0  0  0  0  0  0  0  0  0  0  0
   10.6179  -15.8692   18.0861 O   0  0  0  0  0  0  0  0  0  0  0  0
    7.4529  -13.2930   19.7727 C   0  0  0  0  0  0  0  0  0  0  0  0
    7.8376  -14.3519   20.7606 C   0  0  1  0  0  0  0  0  0  0  0  0
    6.6917  -15.0685   21.1062 O   0  0  0  0  0  0  0  0  0  0  0  0
    8.8950  -15.2934   20.2380 C   0  0  2  0  0  0  0  0  0  0  0  0
    8.5263  -15.9634   19.0420 N   0  0  0  0  0  0  0  0  0  0  0  0
    9.2679  -16.2304   21.3445 C   0  0  0  0  0  0  0  0  0  0  0  0
    8.9888  -17.4376   21.3420 O   0  0  0  0  0  0  0  0  0  0  0  0
   12.2145  -17.6388   24.8579 C   0  0  0  0  0  0  0  0  0  0  0  0
   11.8399  -16.7449   23.6987 C   0  0  1  0  0  0  0  0  0  0  0  0
   12.3245  -17.3512   22.5400 O   0  0  0  0  0  0  0  0  0  0  0  0
   10.3477  -16.6090   23.5468 C   0  0  2  0  0  0  0  0  0  0  0  0
    9.9811  -15.7194   22.4639 N   0  0  0  0  0  0  0  0  0  0  0  0
    9.8004  -16.0831   24.8227 C   0  0  0  0  0  0  0  0  0  0  0  0
    9.5342  -14.7314   24.9806 O   0  0  0  0  0  0  0  0  0  0  0  0
    9.5593  -16.8349   25.7997 O   0  0  0  0  0  0  0  0  0  0  0  0
  2  4  1  0
  2  1  1  0
  3  2  2  0
  5  4  1  0
  5  6  1  1
  7  5  1  0
  7  8  2  0
 10  9  1  6
 10 12  1  0
 11 10  1  0
 12 13  1  6
 12 14  1  0
 13  7  1  0
 14 20  1  0
 14 15  2  0
 17 16  1  1
 18 17  1  0
 19 17  1  0
 19 20  1  6
 21 22  1  0
 21 19  1  0
 23 21  2  0
M  END
$$$$
