NTT.pdb
     RDKit          3D

 23 22  0  0  1  0  0  0  0  0999 V2000
    7.4088  -17.2482   13.8588 N   0  0  0  0  0  0  0  0  0  0  0  0
    8.2558  -18.0431   14.6781 C   0  0  0  0  0  0  0  0  0  0  0  0
    8.2817  -19.2840   14.4304 O   0  0  0  0  0  0  0  0  0  0  0  0
    9.0665  -17.4402   15.7679 C   0  0  0  0  0  0  0  0  0  0  0  0
    8.6955  -15.9963   15.8923 C   0  0  2  0  0  0  0  0  0  0  0  0
    9.1665  -15.3187   14.6847 N   0  0  0  0  0  0  0  0  0  0  0  0
    9.2303  -15.3594   17.1095 C   0  0  0  0  0  0  0  0  0  0  0  0
   10.2987  -14.7280   17.0294 O   0  0  0  0  0  0  0  0  0  0  0  0
    7.5490  -12.8748   19.4545 C   0  0  0  0  0  0  0  0  0  0  0  0
    8.1020  -13.9784   20.3039 C   0  0  1  0  0  0  0  0  0  0  0  0
    7.0381  -14.7534   20.7661 O   0  0  0  0  0  0  0  0  0  0  0  0
    9.0930  -14.8497   19.5714 C   0  0  2  0  0  0  0  0  0  0  0  0
    8.5770  -15.4328   18.3845 N   0  0  0  0  0  0  0  0  0  0  0  0
    9.6238  -15.8610   20.5394 C   0  0  0  0  0  0  0  0  0  0  0  0
    9.3225  -17.0624   20.5075 O   0  0  0  0  0  0  0  0  0  0  0  0
   13.1295  -17.0105   23.8170 C   0  0  0  0  0  0  0  0  0  0  0  0
   12.5071  -15.9941   22.8883 C   0  0  1  0  0  0  0  0  0  0  0  0
   13.3197  -15.9198   21.7574 O   0  0  0  0  0  0  0  0  0  0  0  0
   11.1338  -16.4103   22.4308 C   0  0  2  0  0  0  0  0  0  0  0  0
   10.5231  -15.4320   21.5543 N   0  0  0  0  0  0  0  0  0  0  0  0
   10.2828  -16.5930   23.6335 C   0  0  0  0  0  0  0  0  0  0  0  0
   10.3848  -17.7362   24.4117 O   0  0  0  0  0  0  0  0  0  0  0  0
    9.4451  -15.7274   23.9897 O   0  0  0  0  0  0  0  0  0  0  0  0
  2  4  1  0
  2  1  1  0
  3  2  2  0
  5  4  1  0
  5  6  1  6
  7  5  1  0
  7  8  2  0
 10  9  1  6
 10 12  1  0
 11 10  1  0
 12 13  1  6
 12 14  1  0
 13  7  1  0
 14 20  1  0
 14 15  2  0
 17 16  1  1
 18 17  1  0
 19 17  1  0
 19 20  1  6
 21 22  1  0
 21 19  1  0
 23 21  2  0
M  END
$$$$
