NTT.pdb
     RDKit          3D

 23 22  0  0  1  0  0  0  0  0999 V2000
    5.9790  -19.6527   15.7298 N   0  0  0  0  0  0  0  0  0  0  0  0
    6.3688  -18.2884   15.6444 C   0  0  0  0  0  0  0  0  0  0  0  0
    6.3764  -17.7726   14.4886 O   0  0  0  0  0  0  0  0  0  0  0  0
    6.7467  -17.5140   16.8552 C   0  0  0  0  0  0  0  0  0  0  0  0
    7.7644  -16.4894   16.4647 C   0  0  2  0  0  0  0  0  0  0  0  0
    8.6103  -17.0857   15.4312 N   0  0  0  0  0  0  0  0  0  0  0  0
    8.5668  -16.0018   17.6011 C   0  0  0  0  0  0  0  0  0  0  0  0
    9.8041  -15.9630   17.4817 O   0  0  0  0  0  0  0  0  0  0  0  0
    7.6126  -12.8103   19.7619 C   0  0  0  0  0  0  0  0  0  0  0  0
    8.0519  -13.9248   20.6620 C   0  0  1  0  0  0  0  0  0  0  0  0
    6.9317  -14.4164   21.3327 O   0  0  0  0  0  0  0  0  0  0  0  0
    8.7424  -15.0454   19.9237 C   0  0  2  0  0  0  0  0  0  0  0  0
    7.9888  -15.5689   18.8407 N   0  0  0  0  0  0  0  0  0  0  0  0
    9.1329  -16.0876   20.9251 C   0  0  0  0  0  0  0  0  0  0  0  0
    8.5496  -17.1741   21.0445 O   0  0  0  0  0  0  0  0  0  0  0  0
   12.5827  -17.9706   23.8596 C   0  0  0  0  0  0  0  0  0  0  0  0
   12.1500  -16.9700   22.8134 C   0  0  1  0  0  0  0  0  0  0  0  0
   12.5910  -17.4493   21.5802 O   0  0  0  0  0  0  0  0  0  0  0  0
   10.6514  -16.8411   22.7378 C   0  0  2  0  0  0  0  0  0  0  0  0
   10.2308  -15.8283   21.7912 N   0  0  0  0  0  0  0  0  0  0  0  0
   10.1500  -16.4895   24.0902 C   0  0  0  0  0  0  0  0  0  0  0  0
   10.0056  -17.4590   25.0710 O   0  0  0  0  0  0  0  0  0  0  0  0
    9.8401  -15.3112   24.3959 O   0  0  0  0  0  0  0  0  0  0  0  0
  2  4  1  0
  2  1  1  0
  3  2  2  0
  5  4  1  0
  5  6  1  6
  7  5  1  0
  7  8  2  0
 10  9  1  6
 10 12  1  0
 11 10  1  0
 12 13  1  6
 12 14  1  0
 13  7  1  0
 14 20  1  0
 14 15  2  0
 17 16  1  1
 18 17  1  0
 19 17  1  0
 19 20  1  6
 21 22  1  0
 21 19  1  0
 23 21  2  0
M  END
$$$$
