NTT.pdb
     RDKit          3D

 23 22  0  0  1  0  0  0  0  0999 V2000
   14.4846  -16.5674   16.8928 N   0  0  0  0  0  0  0  0  0  0  0  0
   14.6031  -15.1545   16.7906 C   0  0  0  0  0  0  0  0  0  0  0  0
   15.3867  -14.7146   15.8993 O   0  0  0  0  0  0  0  0  0  0  0  0
   13.8422  -14.2470   17.6883 C   0  0  0  0  0  0  0  0  0  0  0  0
   13.0899  -15.0794   18.6778 C   0  0  2  0  0  0  0  0  0  0  0  0
   12.4323  -16.1538   17.9344 N   0  0  0  0  0  0  0  0  0  0  0  0
   12.1206  -14.3051   19.4741 C   0  0  0  0  0  0  0  0  0  0  0  0
   12.5447  -13.3870   20.1977 O   0  0  0  0  0  0  0  0  0  0  0  0
    8.3970  -12.7638   18.5705 C   0  0  0  0  0  0  0  0  0  0  0  0
    8.4099  -13.7385   19.7085 C   0  0  1  0  0  0  0  0  0  0  0  0
    7.9283  -14.9630   19.2447 O   0  0  0  0  0  0  0  0  0  0  0  0
    9.7790  -13.9212   20.3165 C   0  0  2  0  0  0  0  0  0  0  0  0
   10.7089  -14.5598   19.4548 N   0  0  0  0  0  0  0  0  0  0  0  0
    9.6131  -14.6263   21.6267 C   0  0  0  0  0  0  0  0  0  0  0  0
    8.6193  -14.4927   22.3545 O   0  0  0  0  0  0  0  0  0  0  0  0
    8.0171  -16.7084   22.8714 C   0  0  0  0  0  0  0  0  0  0  0  0
    9.3752  -17.3260   23.1108 C   0  0  1  0  0  0  0  0  0  0  0  0
    9.6887  -18.0788   21.9795 O   0  0  0  0  0  0  0  0  0  0  0  0
   10.4510  -16.2844   23.2723 C   0  0  2  0  0  0  0  0  0  0  0  0
   10.6447  -15.4989   22.0706 N   0  0  0  0  0  0  0  0  0  0  0  0
   11.7173  -16.9790   23.6159 C   0  0  0  0  0  0  0  0  0  0  0  0
   11.8973  -17.5568   24.8636 O   0  0  0  0  0  0  0  0  0  0  0  0
   12.6661  -17.0695   22.7977 O   0  0  0  0  0  0  0  0  0  0  0  0
  2  4  1  0
  2  1  1  0
  3  2  2  0
  5  4  1  0
  5  6  1  6
  7  5  1  0
  7  8  2  0
 10  9  1  6
 10 12  1  0
 11 10  1  0
 12 13  1  6
 12 14  1  0
 13  7  1  0
 14 20  1  0
 14 15  2  0
 17 16  1  6
 18 17  1  0
 19 17  1  0
 19 20  1  6
 21 22  1  0
 21 19  1  0
 23 21  2  0
M  END
$$$$
