NTT.pdb
     RDKit          3D

 23 22  0  0  1  0  0  0  0  0999 V2000
    9.4984  -13.9918   17.6245 N   0  0  0  0  0  0  0  0  0  0  0  0
    8.1525  -13.6613   17.9407 C   0  0  0  0  0  0  0  0  0  0  0  0
    7.4094  -13.3248   16.9729 O   0  0  0  0  0  0  0  0  0  0  0  0
    7.6512  -13.7107   19.3387 C   0  0  0  0  0  0  0  0  0  0  0  0
    8.7481  -14.2217   20.2184 C   0  0  2  0  0  0  0  0  0  0  0  0
    9.1231  -15.5463   19.7241 N   0  0  0  0  0  0  0  0  0  0  0  0
    8.3794  -14.2648   21.6451 C   0  0  0  0  0  0  0  0  0  0  0  0
    7.9413  -13.2297   22.1772 O   0  0  0  0  0  0  0  0  0  0  0  0
    5.9284  -16.5971   23.3584 C   0  0  0  0  0  0  0  0  0  0  0  0
    7.1969  -16.6363   24.1551 C   0  0  1  0  0  0  0  0  0  0  0  0
    7.8231  -17.8616   23.9257 O   0  0  0  0  0  0  0  0  0  0  0  0
    8.1403  -15.5063   23.8226 C   0  0  2  0  0  0  0  0  0  0  0  0
    8.5016  -15.4451   22.4512 N   0  0  0  0  0  0  0  0  0  0  0  0
    9.3217  -15.6056   24.7368 C   0  0  0  0  0  0  0  0  0  0  0  0
   10.4603  -15.9080   24.3530 O   0  0  0  0  0  0  0  0  0  0  0  0
   10.1548  -12.9031   27.5948 C   0  0  0  0  0  0  0  0  0  0  0  0
   10.1510  -14.3217   28.1150 C   0  0  1  0  0  0  0  0  0  0  0  0
    8.9138  -14.5324   28.7230 O   0  0  0  0  0  0  0  0  0  0  0  0
   10.2873  -15.3323   27.0067 C   0  0  2  0  0  0  0  0  0  0  0  0
    9.1400  -15.3409   26.1224 N   0  0  0  0  0  0  0  0  0  0  0  0
   10.4442  -16.6739   27.6227 C   0  0  0  0  0  0  0  0  0  0  0  0
   11.5579  -16.9799   28.3901 O   0  0  0  0  0  0  0  0  0  0  0  0
    9.5824  -17.5756   27.4742 O   0  0  0  0  0  0  0  0  0  0  0  0
  2  4  1  0
  2  1  1  0
  3  2  2  0
  5  4  1  0
  5  6  1  6
  7  5  1  0
  7  8  2  0
 10  9  1  6
 10 12  1  0
 11 10  1  0
 12 13  1  6
 12 14  1  0
 13  7  1  0
 14 20  1  0
 14 15  2  0
 17 16  1  6
 18 17  1  0
 19 17  1  0
 19 20  1  6
 21 22  1  0
 21 19  1  0
 23 21  2  0
M  END
$$$$
