NTT.pdb
     RDKit          3D

 23 22  0  0  1  0  0  0  0  0999 V2000
   16.5072  -14.2882   17.5268 N   0  0  0  0  0  0  0  0  0  0  0  0
   15.5564  -14.7597   18.4724 C   0  0  0  0  0  0  0  0  0  0  0  0
   15.7862  -15.8913   18.9908 O   0  0  0  0  0  0  0  0  0  0  0  0
   14.3565  -13.9589   18.8288 C   0  0  0  0  0  0  0  0  0  0  0  0
   13.1364  -14.7417   18.4591 C   0  0  2  0  0  0  0  0  0  0  0  0
   13.0346  -14.7284   17.0000 N   0  0  0  0  0  0  0  0  0  0  0  0
   11.9042  -14.2335   19.0887 C   0  0  0  0  0  0  0  0  0  0  0  0
   11.6479  -13.0199   18.9989 O   0  0  0  0  0  0  0  0  0  0  0  0
    8.4574  -14.1774   18.4227 C   0  0  0  0  0  0  0  0  0  0  0  0
    8.5397  -14.8588   19.7546 C   0  0  1  0  0  0  0  0  0  0  0  0
    8.3833  -16.2310   19.5575 O   0  0  0  0  0  0  0  0  0  0  0  0
    9.8354  -14.5877   20.4795 C   0  0  2  0  0  0  0  0  0  0  0  0
   10.9845  -15.0725   19.8016 N   0  0  0  0  0  0  0  0  0  0  0  0
    9.7068  -15.1217   21.8723 C   0  0  0  0  0  0  0  0  0  0  0  0
   10.4346  -16.0120   22.3335 O   0  0  0  0  0  0  0  0  0  0  0  0
    7.3057  -14.9499   26.2326 C   0  0  0  0  0  0  0  0  0  0  0  0
    7.4173  -14.4488   24.8115 C   0  0  1  0  0  0  0  0  0  0  0  0
    7.6209  -13.0708   24.8773 O   0  0  0  0  0  0  0  0  0  0  0  0
    8.5977  -15.0456   24.0912 C   0  0  2  0  0  0  0  0  0  0  0  0
    8.6991  -14.5861   22.7211 N   0  0  0  0  0  0  0  0  0  0  0  0
    8.4479  -16.5226   24.1053 C   0  0  0  0  0  0  0  0  0  0  0  0
    9.1714  -17.3038   24.9937 O   0  0  0  0  0  0  0  0  0  0  0  0
    7.6674  -17.1166   23.3205 O   0  0  0  0  0  0  0  0  0  0  0  0
  2  4  1  0
  2  1  1  0
  3  2  2  0
  5  4  1  0
  5  6  1  6
  7  5  1  0
  7  8  2  0
 10  9  1  6
 10 12  1  0
 11 10  1  0
 12 13  1  6
 12 14  1  0
 13  7  1  0
 14 20  1  0
 14 15  2  0
 17 16  1  1
 18 17  1  0
 19 17  1  0
 19 20  1  6
 21 22  1  0
 21 19  1  0
 23 21  2  0
M  END
$$$$
