GKS.pdb
     RDKit          3D

 20 19  0  0  1  0  0  0  0  0999 V2000
    8.1556  -19.3880   20.2303 N   0  0  0  0  0  0  0  0  0  0  0  0
    7.9133  -20.6990   20.7726 C   0  0  0  0  0  0  0  0  0  0  0  0
    7.5263  -20.5789   22.2062 C   0  0  0  0  0  0  0  0  0  0  0  0
    7.4721  -19.4464   22.7181 O   0  0  0  0  0  0  0  0  0  0  0  0
    7.2304  -21.7556   22.9488 N   0  0  0  0  0  0  0  0  0  0  0  0
    6.9468  -21.6948   24.3380 C   0  0  1  0  0  0  0  0  0  0  0  0
    6.0909  -22.7389   24.9302 C   0  0  0  0  0  0  0  0  0  0  0  0
    4.6523  -22.7112   24.5286 C   0  0  0  0  0  0  0  0  0  0  0  0
    3.8125  -23.8528   24.9636 C   0  0  0  0  0  0  0  0  0  0  0  0
    2.4200  -23.7530   24.3714 C   0  0  0  0  0  0  0  0  0  0  0  0
    1.6151  -24.8796   24.8518 N   0  0  0  0  0  0  0  0  0  0  0  0
    8.2634  -21.5601   25.0820 C   0  0  0  0  0  0  0  0  0  0  0  0
    9.2688  -22.2459   24.7730 O   0  0  0  0  0  0  0  0  0  0  0  0
    8.7852  -18.5043   27.7243 O   0  0  0  0  0  0  0  0  0  0  0  0
    9.9253  -19.0222   27.1367 C   0  0  0  0  0  0  0  0  0  0  0  0
    9.7255  -20.4926   26.8303 C   0  0  2  0  0  0  0  0  0  0  0  0
    8.4310  -20.6575   26.1609 N   0  0  0  0  0  0  0  0  0  0  0  0
    9.8004  -21.2971   28.0598 C   0  0  0  0  0  0  0  0  0  0  0  0
   10.9817  -21.2526   28.7862 O   0  0  0  0  0  0  0  0  0  0  0  0
    8.8527  -22.0086   28.4675 O   0  0  0  0  0  0  0  0  0  0  0  0
  2  1  1  0
  3  4  2  0
  3  2  1  0
  5  3  1  0
  6  5  1  0
  6  7  1  1
  8  7  1  0
  9  8  1  0
 10 11  1  0
 10  9  1  0
 12  6  1  0
 12 13  2  0
 15 14  1  0
 16 15  1  1
 17 16  1  0
 17 12  1  0
 18 19  1  0
 18 16  1  0
 20 18  2  0
M  END
$$$$
