GKS.pdb
     RDKit          3D

 20 19  0  0  1  0  0  0  0  0999 V2000
    7.7922  -12.3373   18.2990 N   0  0  0  0  0  0  0  0  0  0  0  0
    8.4770  -13.5527   18.6528 C   0  0  0  0  0  0  0  0  0  0  0  0
    7.8040  -14.1779   19.8257 C   0  0  0  0  0  0  0  0  0  0  0  0
    7.3605  -13.4402   20.7239 O   0  0  0  0  0  0  0  0  0  0  0  0
    7.6863  -15.5942   19.8882 N   0  0  0  0  0  0  0  0  0  0  0  0
    7.1202  -16.2342   21.0211 C   0  0  1  0  0  0  0  0  0  0  0  0
    6.7210  -17.6488   20.9069 C   0  0  0  0  0  0  0  0  0  0  0  0
    6.1536  -18.2702   22.1412 C   0  0  0  0  0  0  0  0  0  0  0  0
    5.7713  -19.7001   22.0573 C   0  0  0  0  0  0  0  0  0  0  0  0
    5.1089  -20.1565   23.3428 C   0  0  0  0  0  0  0  0  0  0  0  0
    4.6962  -21.5552   23.1967 N   0  0  0  0  0  0  0  0  0  0  0  0
    8.0464  -16.0066   22.2025 C   0  0  0  0  0  0  0  0  0  0  0  0
    9.2946  -16.0758   22.0850 O   0  0  0  0  0  0  0  0  0  0  0  0
    6.6444  -14.2623   25.6368 O   0  0  0  0  0  0  0  0  0  0  0  0
    7.9739  -14.1227   25.2815 C   0  0  0  0  0  0  0  0  0  0  0  0
    8.4631  -15.3877   24.6061 C   0  0  2  0  0  0  0  0  0  0  0  0
    7.5570  -15.7042   23.4971 N   0  0  0  0  0  0  0  0  0  0  0  0
    8.5411  -16.4973   25.5690 C   0  0  0  0  0  0  0  0  0  0  0  0
    7.7662  -17.6208   25.3193 O   0  0  0  0  0  0  0  0  0  0  0  0
    9.2692  -16.4650   26.5885 O   0  0  0  0  0  0  0  0  0  0  0  0
  2  1  1  0
  3  4  2  0
  3  2  1  0
  5  3  1  0
  6  5  1  0
  6  7  1  6
  8  7  1  0
  9  8  1  0
 10 11  1  0
 10  9  1  0
 12  6  1  0
 12 13  2  0
 15 14  1  0
 16 15  1  1
 17 16  1  0
 17 12  1  0
 18 19  1  0
 18 16  1  0
 20 18  2  0
M  END
$$$$
