GKS.pdb
     RDKit          3D

 20 19  0  0  1  0  0  0  0  0999 V2000
    5.3355  -19.4088   20.7576 N   0  0  0  0  0  0  0  0  0  0  0  0
    5.3623  -18.4237   21.8066 C   0  0  0  0  0  0  0  0  0  0  0  0
    6.5157  -17.5048   21.5948 C   0  0  0  0  0  0  0  0  0  0  0  0
    7.5872  -17.9772   21.1751 O   0  0  0  0  0  0  0  0  0  0  0  0
    6.3630  -16.1188   21.8763 N   0  0  0  0  0  0  0  0  0  0  0  0
    7.4630  -15.2266   21.7882 C   0  0  1  0  0  0  0  0  0  0  0  0
    7.1932  -13.7804   21.6918 C   0  0  0  0  0  0  0  0  0  0  0  0
    7.8749  -13.0608   20.5742 C   0  0  0  0  0  0  0  0  0  0  0  0
    7.8210  -13.6962   19.2359 C   0  0  0  0  0  0  0  0  0  0  0  0
    8.5557  -12.8545   18.2105 C   0  0  0  0  0  0  0  0  0  0  0  0
    8.5790  -13.5716   16.9325 N   0  0  0  0  0  0  0  0  0  0  0  0
    8.4192  -15.5442   22.9240 C   0  0  0  0  0  0  0  0  0  0  0  0
    8.0401  -15.5584   24.1209 O   0  0  0  0  0  0  0  0  0  0  0  0
   10.4130  -18.4759   23.3110 O   0  0  0  0  0  0  0  0  0  0  0  0
   10.3313  -17.5441   24.3300 C   0  0  0  0  0  0  0  0  0  0  0  0
   10.6928  -16.1702   23.8031 C   0  0  2  0  0  0  0  0  0  0  0  0
    9.7859  -15.8413   22.6984 N   0  0  0  0  0  0  0  0  0  0  0  0
   12.0992  -16.1290   23.3735 C   0  0  0  0  0  0  0  0  0  0  0  0
   12.3552  -15.8679   22.0351 O   0  0  0  0  0  0  0  0  0  0  0  0
   13.0575  -16.3178   24.1588 O   0  0  0  0  0  0  0  0  0  0  0  0
  2  1  1  0
  3  4  2  0
  3  2  1  0
  5  3  1  0
  6  5  1  0
  6  7  1  1
  8  7  1  0
  9  8  1  0
 10 11  1  0
 10  9  1  0
 12  6  1  0
 12 13  2  0
 15 14  1  0
 16 15  1  6
 17 16  1  0
 17 12  1  0
 18 19  1  0
 18 16  1  0
 20 18  2  0
M  END
$$$$
