GKS.pdb
     RDKit          3D

 20 19  0  0  1  0  0  0  0  0999 V2000
    8.6689  -21.7246   15.9162 N   0  0  0  0  0  0  0  0  0  0  0  0
    9.5278  -20.8189   15.1995 C   0  0  0  0  0  0  0  0  0  0  0  0
   10.8499  -21.4661   14.9700 C   0  0  0  0  0  0  0  0  0  0  0  0
   11.0184  -22.6359   15.3583 O   0  0  0  0  0  0  0  0  0  0  0  0
   11.8798  -20.7341   14.3165 N   0  0  0  0  0  0  0  0  0  0  0  0
   13.1371  -21.3285   14.0347 C   0  0  1  0  0  0  0  0  0  0  0  0
   13.8481  -20.9283   12.8068 C   0  0  0  0  0  0  0  0  0  0  0  0
   13.0588  -21.0010   11.5406 C   0  0  0  0  0  0  0  0  0  0  0  0
   13.7404  -20.5623   10.2994 C   0  0  0  0  0  0  0  0  0  0  0  0
   12.8081  -20.6662    9.1078 C   0  0  0  0  0  0  0  0  0  0  0  0
   13.4906  -20.1437    7.9207 N   0  0  0  0  0  0  0  0  0  0  0  0
   14.0147  -21.1797   15.2647 C   0  0  0  0  0  0  0  0  0  0  0  0
   13.8320  -20.2581   16.0978 O   0  0  0  0  0  0  0  0  0  0  0  0
   14.7444  -23.6846   18.0574 O   0  0  0  0  0  0  0  0  0  0  0  0
   14.8974  -22.3148   17.9415 C   0  0  0  0  0  0  0  0  0  0  0  0
   15.8372  -21.9956   16.7966 C   0  0  2  0  0  0  0  0  0  0  0  0
   15.0833  -22.0679   15.5407 N   0  0  0  0  0  0  0  0  0  0  0  0
   16.9831  -22.9183   16.7888 C   0  0  0  0  0  0  0  0  0  0  0  0
   17.8934  -22.8215   17.8314 O   0  0  0  0  0  0  0  0  0  0  0  0
   17.1635  -23.7733   15.8905 O   0  0  0  0  0  0  0  0  0  0  0  0
  2  1  1  0
  3  4  2  0
  3  2  1  0
  5  3  1  0
  6  5  1  0
  6  7  1  6
  8  7  1  0
  9  8  1  0
 10 11  1  0
 10  9  1  0
 12  6  1  0
 12 13  2  0
 15 14  1  0
 16 15  1  1
 17 16  1  0
 17 12  1  0
 18 19  1  0
 18 16  1  0
 20 18  2  0
M  END
$$$$
