GKS.pdb
     RDKit          3D

 20 19  0  0  1  0  0  0  0  0999 V2000
   -4.8249  -19.8944   25.9953 N   0  0  0  0  0  0  0  0  0  0  0  0
   -5.2536  -20.7600   24.9283 C   0  0  0  0  0  0  0  0  0  0  0  0
   -5.8544  -21.9960   25.5033 C   0  0  0  0  0  0  0  0  0  0  0  0
   -6.8755  -22.4676   24.9719 O   0  0  0  0  0  0  0  0  0  0  0  0
   -5.2484  -22.6019   26.6389 N   0  0  0  0  0  0  0  0  0  0  0  0
   -5.6668  -23.8765   27.1014 C   0  0  1  0  0  0  0  0  0  0  0  0
   -4.6396  -24.8889   27.4070 C   0  0  0  0  0  0  0  0  0  0  0  0
   -5.1442  -26.2615   27.7118 C   0  0  0  0  0  0  0  0  0  0  0  0
   -4.1316  -27.2853   28.0644 C   0  0  0  0  0  0  0  0  0  0  0  0
   -4.7950  -28.6113   28.3825 C   0  0  0  0  0  0  0  0  0  0  0  0
   -3.7578  -29.6204   28.6148 N   0  0  0  0  0  0  0  0  0  0  0  0
   -6.6123  -23.6663   28.2706 C   0  0  0  0  0  0  0  0  0  0  0  0
   -6.2785  -22.9920   29.2758 O   0  0  0  0  0  0  0  0  0  0  0  0
   -8.8674  -24.6063   31.7861 O   0  0  0  0  0  0  0  0  0  0  0  0
   -8.0715  -24.7032   30.6589 C   0  0  0  0  0  0  0  0  0  0  0  0
   -8.7837  -24.0908   29.4701 C   0  0  2  0  0  0  0  0  0  0  0  0
   -7.9179  -24.2158   28.2929 N   0  0  0  0  0  0  0  0  0  0  0  0
   -9.1295  -22.6856   29.7354 C   0  0  0  0  0  0  0  0  0  0  0  0
  -10.0143  -22.4260   30.7720 O   0  0  0  0  0  0  0  0  0  0  0  0
   -8.6619  -21.7315   29.0708 O   0  0  0  0  0  0  0  0  0  0  0  0
  2  1  1  0
  3  4  2  0
  3  2  1  0
  5  3  1  0
  6  5  1  0
  6  7  1  1
  8  7  1  0
  9  8  1  0
 10 11  1  0
 10  9  1  0
 12  6  1  0
 12 13  2  0
 15 14  1  0
 16 15  1  1
 17 16  1  0
 17 12  1  0
 18 19  1  0
 18 16  1  0
 20 18  2  0
M  END
$$$$
