GKS.pdb
     RDKit          3D

 20 19  0  0  1  0  0  0  0  0999 V2000
    4.9824  -19.5353   23.0315 N   0  0  0  0  0  0  0  0  0  0  0  0
    4.9743  -18.0962   23.0499 C   0  0  0  0  0  0  0  0  0  0  0  0
    6.2956  -17.5868   22.5872 C   0  0  0  0  0  0  0  0  0  0  0  0
    7.2291  -18.3954   22.4376 O   0  0  0  0  0  0  0  0  0  0  0  0
    6.4551  -16.1969   22.3298 N   0  0  0  0  0  0  0  0  0  0  0  0
    7.6835  -15.6763   21.8461 C   0  0  1  0  0  0  0  0  0  0  0  0
    7.6611  -14.4303   21.0585 C   0  0  0  0  0  0  0  0  0  0  0  0
    7.5117  -14.5928   19.5811 C   0  0  0  0  0  0  0  0  0  0  0  0
    8.0181  -13.4893   18.7304 C   0  0  0  0  0  0  0  0  0  0  0  0
    7.6482  -13.7166   17.2774 C   0  0  0  0  0  0  0  0  0  0  0  0
    8.1275  -12.5841   16.4800 N   0  0  0  0  0  0  0  0  0  0  0  0
    8.6485  -15.5839   23.0146 C   0  0  0  0  0  0  0  0  0  0  0  0
    8.3985  -14.8777   24.0223 O   0  0  0  0  0  0  0  0  0  0  0  0
   10.6206  -18.3422   24.6387 O   0  0  0  0  0  0  0  0  0  0  0  0
   10.6791  -17.0704   25.1796 C   0  0  0  0  0  0  0  0  0  0  0  0
   10.8814  -16.0500   24.0779 C   0  0  2  0  0  0  0  0  0  0  0  0
    9.8787  -16.2861   23.0340 N   0  0  0  0  0  0  0  0  0  0  0  0
   12.2476  -16.1285   23.5377 C   0  0  0  0  0  0  0  0  0  0  0  0
   13.2948  -15.8043   24.3882 O   0  0  0  0  0  0  0  0  0  0  0  0
   12.4953  -16.4716   22.3581 O   0  0  0  0  0  0  0  0  0  0  0  0
  2  1  1  0
  3  4  2  0
  3  2  1  0
  5  3  1  0
  6  5  1  0
  6  7  1  1
  8  7  1  0
  9  8  1  0
 10 11  1  0
 10  9  1  0
 12  6  1  0
 12 13  2  0
 15 14  1  0
 16 15  1  1
 17 16  1  0
 17 12  1  0
 18 19  1  0
 18 16  1  0
 20 18  2  0
M  END
$$$$
