GKS.pdb
     RDKit          3D

 20 19  0  0  1  0  0  0  0  0999 V2000
    7.7724  -16.6410   16.4473 N   0  0  0  0  0  0  0  0  0  0  0  0
    8.7171  -17.2938   17.3149 C   0  0  0  0  0  0  0  0  0  0  0  0
    8.2737  -17.1486   18.7297 C   0  0  0  0  0  0  0  0  0  0  0  0
    7.7178  -16.0911   19.0766 O   0  0  0  0  0  0  0  0  0  0  0  0
    8.4960  -18.2168   19.6426 N   0  0  0  0  0  0  0  0  0  0  0  0
    8.0625  -18.1318   20.9911 C   0  0  1  0  0  0  0  0  0  0  0  0
    7.9246  -19.3770   21.7682 C   0  0  0  0  0  0  0  0  0  0  0  0
    6.8363  -20.3030   21.3325 C   0  0  0  0  0  0  0  0  0  0  0  0
    6.7556  -21.6137   22.0204 C   0  0  0  0  0  0  0  0  0  0  0  0
    5.6565  -22.4695   21.4209 C   0  0  0  0  0  0  0  0  0  0  0  0
    5.5950  -23.7429   22.1437 N   0  0  0  0  0  0  0  0  0  0  0  0
    8.9402  -17.1194   21.7052 C   0  0  0  0  0  0  0  0  0  0  0  0
   10.1730  -17.0403   21.4802 O   0  0  0  0  0  0  0  0  0  0  0  0
    7.3053  -13.9338   23.7377 O   0  0  0  0  0  0  0  0  0  0  0  0
    8.5715  -13.8536   23.1868 C   0  0  0  0  0  0  0  0  0  0  0  0
    9.2670  -15.1955   23.2943 C   0  0  2  0  0  0  0  0  0  0  0  0
    8.4203  -16.2113   22.6602 N   0  0  0  0  0  0  0  0  0  0  0  0
    9.5441  -15.5289   24.7002 C   0  0  0  0  0  0  0  0  0  0  0  0
   10.3705  -14.6723   25.4132 O   0  0  0  0  0  0  0  0  0  0  0  0
    9.0692  -16.5407   25.2670 O   0  0  0  0  0  0  0  0  0  0  0  0
  2  1  1  0
  3  4  2  0
  3  2  1  0
  5  3  1  0
  6  5  1  0
  6  7  1  1
  8  7  1  0
  9  8  1  0
 10 11  1  0
 10  9  1  0
 12  6  1  0
 12 13  2  0
 15 14  1  0
 16 15  1  1
 17 16  1  0
 17 12  1  0
 18 19  1  0
 18 16  1  0
 20 18  2  0
M  END
$$$$
