GKS.pdb
     RDKit          3D

 20 19  0  0  1  0  0  0  0  0999 V2000
    5.9799  -20.2141   18.7949 N   0  0  0  0  0  0  0  0  0  0  0  0
    7.2570  -20.4001   19.4322 C   0  0  0  0  0  0  0  0  0  0  0  0
    7.0680  -20.4793   20.9078 C   0  0  0  0  0  0  0  0  0  0  0  0
    6.2642  -19.7001   21.4504 O   0  0  0  0  0  0  0  0  0  0  0  0
    7.8073  -21.4383   21.6544 N   0  0  0  0  0  0  0  0  0  0  0  0
    7.6794  -21.5274   23.0649 C   0  0  1  0  0  0  0  0  0  0  0  0
    7.9815  -22.8124   23.7215 C   0  0  0  0  0  0  0  0  0  0  0  0
    7.7015  -22.8798   25.1873 C   0  0  0  0  0  0  0  0  0  0  0  0
    7.9083  -24.1897   25.8500 C   0  0  0  0  0  0  0  0  0  0  0  0
    7.4784  -24.1316   27.3031 C   0  0  0  0  0  0  0  0  0  0  0  0
    7.6376  -25.4600   27.9015 N   0  0  0  0  0  0  0  0  0  0  0  0
    8.4645  -20.3839   23.6822 C   0  0  0  0  0  0  0  0  0  0  0  0
    9.6830  -20.2105   23.4336 O   0  0  0  0  0  0  0  0  0  0  0  0
    6.5137  -17.4877   25.7732 O   0  0  0  0  0  0  0  0  0  0  0  0
    7.7377  -17.1299   25.2372 C   0  0  0  0  0  0  0  0  0  0  0  0
    8.6374  -18.3459   25.1486 C   0  0  2  0  0  0  0  0  0  0  0  0
    7.8695  -19.4525   24.5685 N   0  0  0  0  0  0  0  0  0  0  0  0
    9.1704  -18.6988   26.4737 C   0  0  0  0  0  0  0  0  0  0  0  0
   10.0374  -17.8000   27.0781 O   0  0  0  0  0  0  0  0  0  0  0  0
    8.8750  -19.7632   27.0657 O   0  0  0  0  0  0  0  0  0  0  0  0
  2  1  1  0
  3  4  2  0
  3  2  1  0
  5  3  1  0
  6  5  1  0
  6  7  1  1
  8  7  1  0
  9  8  1  0
 10 11  1  0
 10  9  1  0
 12  6  1  0
 12 13  2  0
 15 14  1  0
 16 15  1  1
 17 16  1  0
 17 12  1  0
 18 19  1  0
 18 16  1  0
 20 18  2  0
M  END
$$$$
