GKS.pdb
     RDKit          3D

 20 19  0  0  1  0  0  0  0  0999 V2000
    5.9823  -18.8438   18.8456 N   0  0  0  0  0  0  0  0  0  0  0  0
    6.1758  -18.7861   20.2706 C   0  0  0  0  0  0  0  0  0  0  0  0
    7.2881  -17.8454   20.5825 C   0  0  0  0  0  0  0  0  0  0  0  0
    8.4375  -18.1314   20.2020 O   0  0  0  0  0  0  0  0  0  0  0  0
    7.0090  -16.6511   21.3032 N   0  0  0  0  0  0  0  0  0  0  0  0
    8.0286  -15.7016   21.5730 C   0  0  1  0  0  0  0  0  0  0  0  0
    7.6419  -14.2992   21.8125 C   0  0  0  0  0  0  0  0  0  0  0  0
    7.1795  -13.5345   20.6155 C   0  0  0  0  0  0  0  0  0  0  0  0
    8.0666  -13.5471   19.4278 C   0  0  0  0  0  0  0  0  0  0  0  0
    7.4482  -12.7645   18.2856 C   0  0  0  0  0  0  0  0  0  0  0  0
    8.2763  -12.9325   17.0882 N   0  0  0  0  0  0  0  0  0  0  0  0
    8.8927  -16.2449   22.6969 C   0  0  0  0  0  0  0  0  0  0  0  0
    8.4828  -16.2868   23.8830 O   0  0  0  0  0  0  0  0  0  0  0  0
   12.0790  -18.5842   21.8896 O   0  0  0  0  0  0  0  0  0  0  0  0
   11.5211  -18.6457   23.1538 C   0  0  0  0  0  0  0  0  0  0  0  0
   11.0187  -17.2761   23.5634 C   0  0  2  0  0  0  0  0  0  0  0  0
   10.2034  -16.7332   22.4718 N   0  0  0  0  0  0  0  0  0  0  0  0
   12.1420  -16.3838   23.8895 C   0  0  0  0  0  0  0  0  0  0  0  0
   12.9500  -16.7330   24.9619 O   0  0  0  0  0  0  0  0  0  0  0  0
   12.3910  -15.3381   23.2452 O   0  0  0  0  0  0  0  0  0  0  0  0
  2  1  1  0
  3  4  2  0
  3  2  1  0
  5  3  1  0
  6  5  1  0
  6  7  1  1
  8  7  1  0
  9  8  1  0
 10 11  1  0
 10  9  1  0
 12  6  1  0
 12 13  2  0
 15 14  1  0
 16 15  1  6
 17 16  1  0
 17 12  1  0
 18 19  1  0
 18 16  1  0
 20 18  2  0
M  END
$$$$
