PHY.pdb
     RDKit          3D

 30 32  0  0  1  0  0  0  0  0999 V2000
    6.4368  -17.9924   20.5946 N   0  0  0  0  0  0  0  0  0  0  0  0
    5.3265  -18.2313   19.7204 C   0  0  0  0  0  0  0  0  0  0  0  0
    5.8772  -18.7890   18.4314 C   0  0  0  0  0  0  0  0  0  0  0  0
    7.3368  -18.4579   18.4582 C   0  0  0  0  0  0  0  0  0  0  0  0
    7.6567  -18.2516   19.9065 C   0  0  1  0  0  0  0  0  0  0  0  0
    8.6013  -17.1082   20.1103 C   0  0  0  0  0  0  0  0  0  0  0  0
    9.7611  -17.1688   19.6144 O   0  0  0  0  0  0  0  0  0  0  0  0
    8.2528  -15.9601   20.8351 N   0  0  0  0  0  0  0  0  0  0  0  0
    9.2479  -14.8255   20.9125 C   0  0  1  0  0  0  0  0  0  0  0  0
    8.4546  -13.6710   20.3801 C   0  0  0  0  0  0  0  0  0  0  0  0
    8.0488  -13.7008   18.9874 C   0  0  0  0  0  0  0  0  0  0  0  0
    6.7534  -13.3929   18.5414 C   0  0  0  0  0  0  0  0  0  0  0  0
    6.7535  -13.5245   17.2249 N   0  0  0  0  0  0  0  0  0  0  0  0
    7.9719  -13.8993   16.7924 C   0  0  0  0  0  0  0  0  0  0  0  0
    8.7247  -13.9937   17.8970 N   0  0  0  0  0  0  0  0  0  0  0  0
    9.6412  -14.7222   22.3305 C   0  0  0  0  0  0  0  0  0  0  0  0
    9.1824  -13.7564   23.0585 O   0  0  0  0  0  0  0  0  0  0  0  0
   10.8501  -15.1882   30.6527 O   0  0  0  0  0  0  0  0  0  0  0  0
   10.5684  -15.3226   29.2935 C   0  0  0  0  0  0  0  0  0  0  0  0
   10.6456  -16.5372   28.6526 C   0  0  0  0  0  0  0  0  0  0  0  0
   10.3678  -16.6588   27.3214 C   0  0  0  0  0  0  0  0  0  0  0  0
    9.9994  -15.5139   26.6128 C   0  0  0  0  0  0  0  0  0  0  0  0
    9.6971  -15.5810   25.1816 C   0  0  0  0  0  0  0  0  0  0  0  0
   10.9436  -15.4598   24.3438 C   0  0  2  0  0  0  0  0  0  0  0  0
   10.5024  -15.6465   22.9417 N   0  0  0  0  0  0  0  0  0  0  0  0
   11.9360  -16.4699   24.7030 C   0  0  0  0  0  0  0  0  0  0  0  0
   12.9587  -16.2120   25.3753 O   0  0  0  0  0  0  0  0  0  0  0  0
    9.9178  -14.2836   27.2469 C   0  0  0  0  0  0  0  0  0  0  0  0
   10.2057  -14.2087   28.5856 C   0  0  0  0  0  0  0  0  0  0  0  0
   11.7456  -17.7948   24.2810 O   0  0  0  0  0  0  0  0  0  0  0  0
  1  2  1  0
  1  5  1  0
  2  3  1  0
  3  4  1  0
  5  4  1  0
  5  6  1  6
  6  7  2  0
  8  6  1  0
  9  8  1  0
  9 10  1  1
 11 10  1  0
 11 15  1  0
 12 13  1  0
 12 11  2  0
 13 14  1  0
 14 15  2  0
 16  9  1  0
 17 16  2  0
 18 19  1  0
 19 29  2  0
 19 20  1  0
 20 21  2  0
 21 22  1  0
 22 23  1  0
 24 23  1  1
 24 25  1  0
 25 16  1  0
 26 24  1  0
 26 30  1  0
 27 26  2  0
 28 22  2  0
 29 28  1  0
M  END
$$$$
