PHY.pdb
     RDKit          3D

 30 32  0  0  1  0  0  0  0  0999 V2000
    9.3484  -14.2974   19.3201 N   0  0  0  0  0  0  0  0  0  0  0  0
    8.8694  -13.9360   18.0185 C   0  0  0  0  0  0  0  0  0  0  0  0
    7.7825  -12.9067   18.2061 C   0  0  0  0  0  0  0  0  0  0  0  0
    7.3849  -13.0206   19.6447 C   0  0  0  0  0  0  0  0  0  0  0  0
    8.5620  -13.6548   20.3188 C   0  0  1  0  0  0  0  0  0  0  0  0
    8.1406  -14.6567   21.3483 C   0  0  0  0  0  0  0  0  0  0  0  0
    7.2341  -14.3516   22.1728 O   0  0  0  0  0  0  0  0  0  0  0  0
    8.7134  -15.9328   21.4396 N   0  0  0  0  0  0  0  0  0  0  0  0
    8.0757  -16.9459   22.3619 C   0  0  1  0  0  0  0  0  0  0  0  0
    8.5172  -18.2452   21.7596 C   0  0  0  0  0  0  0  0  0  0  0  0
    7.8281  -18.7221   20.5751 C   0  0  0  0  0  0  0  0  0  0  0  0
    6.7239  -18.0757   19.9967 C   0  0  0  0  0  0  0  0  0  0  0  0
    6.3639  -18.7889   18.9421 N   0  0  0  0  0  0  0  0  0  0  0  0
    7.1694  -19.8585   18.8036 C   0  0  0  0  0  0  0  0  0  0  0  0
    8.0424  -19.7762   19.8170 N   0  0  0  0  0  0  0  0  0  0  0  0
    8.6040  -16.6618   23.7097 C   0  0  0  0  0  0  0  0  0  0  0  0
    9.8379  -16.3020   23.8562 O   0  0  0  0  0  0  0  0  0  0  0  0
    6.5754  -10.4553   25.8271 O   0  0  0  0  0  0  0  0  0  0  0  0
    6.7899  -11.8008   26.1244 C   0  0  0  0  0  0  0  0  0  0  0  0
    8.0558  -12.3225   26.2561 C   0  0  0  0  0  0  0  0  0  0  0  0
    8.2557  -13.6414   26.5475 C   0  0  0  0  0  0  0  0  0  0  0  0
    7.1382  -14.4618   26.7112 C   0  0  0  0  0  0  0  0  0  0  0  0
    7.2901  -15.8858   27.0171 C   0  0  0  0  0  0  0  0  0  0  0  0
    8.3928  -16.5143   26.2051 C   0  0  2  0  0  0  0  0  0  0  0  0
    7.8120  -16.7587   24.8641 N   0  0  0  0  0  0  0  0  0  0  0  0
    8.8511  -17.7689   26.7966 C   0  0  0  0  0  0  0  0  0  0  0  0
    8.6056  -18.8884   26.2958 O   0  0  0  0  0  0  0  0  0  0  0  0
    5.8569  -13.9484   26.5812 C   0  0  0  0  0  0  0  0  0  0  0  0
    5.7038  -12.6175   26.2880 C   0  0  0  0  0  0  0  0  0  0  0  0
    9.6024  -17.7313   27.9814 O   0  0  0  0  0  0  0  0  0  0  0  0
  1  2  1  0
  1  5  1  0
  2  3  1  0
  3  4  1  0
  5  4  1  0
  5  6  1  1
  6  7  2  0
  8  6  1  0
  9  8  1  0
  9 10  1  6
 11 10  1  0
 11 15  1  0
 12 13  1  0
 12 11  2  0
 13 14  1  0
 14 15  2  0
 16  9  1  0
 17 16  2  0
 18 19  1  0
 19 29  2  0
 19 20  1  0
 20 21  2  0
 21 22  1  0
 22 23  1  0
 24 23  1  1
 24 25  1  0
 25 16  1  0
 26 24  1  0
 26 30  1  0
 27 26  2  0
 28 22  2  0
 29 28  1  0
M  END
$$$$
