PHY.pdb
     RDKit          3D

 30 32  0  0  1  0  0  0  0  0999 V2000
    9.4428  -13.7875   19.5982 N   0  0  0  0  0  0  0  0  0  0  0  0
    9.0361  -13.3277   18.3031 C   0  0  0  0  0  0  0  0  0  0  0  0
    7.7417  -12.5727   18.4768 C   0  0  0  0  0  0  0  0  0  0  0  0
    7.2297  -12.9855   19.8215 C   0  0  0  0  0  0  0  0  0  0  0  0
    8.4380  -13.4750   20.5582 C   0  0  1  0  0  0  0  0  0  0  0  0
    8.1345  -14.6882   21.3810 C   0  0  0  0  0  0  0  0  0  0  0  0
    7.0959  -14.7039   22.0993 O   0  0  0  0  0  0  0  0  0  0  0  0
    8.9605  -15.8207   21.3907 N   0  0  0  0  0  0  0  0  0  0  0  0
    8.6107  -16.9614   22.3180 C   0  0  1  0  0  0  0  0  0  0  0  0
    9.3089  -18.1200   21.6731 C   0  0  0  0  0  0  0  0  0  0  0  0
    8.7029  -18.7199   20.4993 C   0  0  0  0  0  0  0  0  0  0  0  0
    7.3191  -18.7580   20.2640 C   0  0  0  0  0  0  0  0  0  0  0  0
    7.1378  -19.3749   19.1077 N   0  0  0  0  0  0  0  0  0  0  0  0
    8.3218  -19.7384   18.5806 C   0  0  0  0  0  0  0  0  0  0  0  0
    9.2426  -19.3201   19.4599 N   0  0  0  0  0  0  0  0  0  0  0  0
    9.1191  -16.5777   23.6486 C   0  0  0  0  0  0  0  0  0  0  0  0
   10.2904  -16.0404   23.7613 O   0  0  0  0  0  0  0  0  0  0  0  0
    6.5928  -10.6507   25.9089 O   0  0  0  0  0  0  0  0  0  0  0  0
    6.9435  -11.9729   26.1802 C   0  0  0  0  0  0  0  0  0  0  0  0
    8.2486  -12.4039   26.1251 C   0  0  0  0  0  0  0  0  0  0  0  0
    8.5822  -13.7006   26.3925 C   0  0  0  0  0  0  0  0  0  0  0  0
    7.5623  -14.5930   26.7269 C   0  0  0  0  0  0  0  0  0  0  0  0
    7.8581  -15.9976   27.0165 C   0  0  0  0  0  0  0  0  0  0  0  0
    8.9768  -16.5197   26.1526 C   0  0  2  0  0  0  0  0  0  0  0  0
    8.3727  -16.7656   24.8222 N   0  0  0  0  0  0  0  0  0  0  0  0
    9.5424  -17.7549   26.6899 C   0  0  0  0  0  0  0  0  0  0  0  0
    9.4050  -18.8663   26.1328 O   0  0  0  0  0  0  0  0  0  0  0  0
    6.2427  -14.1714   26.7860 C   0  0  0  0  0  0  0  0  0  0  0  0
    5.9542  -12.8595   26.5096 C   0  0  0  0  0  0  0  0  0  0  0  0
   10.2761  -17.7069   27.8853 O   0  0  0  0  0  0  0  0  0  0  0  0
  1  2  1  0
  1  5  1  0
  2  3  1  0
  3  4  1  0
  5  4  1  0
  5  6  1  6
  6  7  2  0
  8  6  1  0
  9  8  1  0
  9 10  1  6
 11 10  1  0
 11 15  1  0
 12 13  1  0
 12 11  2  0
 13 14  1  0
 14 15  2  0
 16  9  1  0
 17 16  2  0
 18 19  1  0
 19 29  2  0
 19 20  1  0
 20 21  2  0
 21 22  1  0
 22 23  1  0
 24 23  1  1
 24 25  1  0
 25 16  1  0
 26 24  1  0
 26 30  1  0
 27 26  2  0
 28 22  2  0
 29 28  1  0
M  END
$$$$
