PHY.pdb
     RDKit          3D

 30 32  0  0  1  0  0  0  0  0999 V2000
    6.2678  -18.1257   21.5061 N   0  0  0  0  0  0  0  0  0  0  0  0
    5.0745  -18.0923   20.7130 C   0  0  0  0  0  0  0  0  0  0  0  0
    5.4604  -18.4520   19.2996 C   0  0  0  0  0  0  0  0  0  0  0  0
    6.9455  -18.2718   19.2456 C   0  0  0  0  0  0  0  0  0  0  0  0
    7.3955  -18.3680   20.6705 C   0  0  1  0  0  0  0  0  0  0  0  0
    8.4736  -17.3770   20.9817 C   0  0  0  0  0  0  0  0  0  0  0  0
    9.6121  -17.5159   20.4532 O   0  0  0  0  0  0  0  0  0  0  0  0
    8.2744  -16.2893   21.8431 N   0  0  0  0  0  0  0  0  0  0  0  0
    9.4370  -15.3641   22.1184 C   0  0  1  0  0  0  0  0  0  0  0  0
    8.9343  -14.0561   21.5870 C   0  0  0  0  0  0  0  0  0  0  0  0
    8.6576  -13.9530   20.1665 C   0  0  0  0  0  0  0  0  0  0  0  0
    7.4048  -13.6068   19.6349 C   0  0  0  0  0  0  0  0  0  0  0  0
    7.5265  -13.6113   18.3175 N   0  0  0  0  0  0  0  0  0  0  0  0
    8.7833  -13.9398   17.9648 C   0  0  0  0  0  0  0  0  0  0  0  0
    9.4333  -14.1381   19.1198 N   0  0  0  0  0  0  0  0  0  0  0  0
    9.6607  -15.4105   23.5758 C   0  0  0  0  0  0  0  0  0  0  0  0
   10.5162  -14.6093   24.1230 O   0  0  0  0  0  0  0  0  0  0  0  0
    6.2103  -10.8303   26.5436 O   0  0  0  0  0  0  0  0  0  0  0  0
    6.6704  -12.1467   26.5566 C   0  0  0  0  0  0  0  0  0  0  0  0
    7.9769  -12.4564   26.8551 C   0  0  0  0  0  0  0  0  0  0  0  0
    8.4179  -13.7486   26.8653 C   0  0  0  0  0  0  0  0  0  0  0  0
    7.5079  -14.7630   26.5634 C   0  0  0  0  0  0  0  0  0  0  0  0
    7.9245  -16.1668   26.5512 C   0  0  0  0  0  0  0  0  0  0  0  0
    9.2556  -16.3457   25.8682 C   0  0  2  0  0  0  0  0  0  0  0  0
    8.9689  -16.2972   24.4153 N   0  0  0  0  0  0  0  0  0  0  0  0
    9.8766  -17.6201   26.2212 C   0  0  0  0  0  0  0  0  0  0  0  0
   10.0624  -18.5400   25.3944 O   0  0  0  0  0  0  0  0  0  0  0  0
    6.1882  -14.4643   26.2608 C   0  0  0  0  0  0  0  0  0  0  0  0
    5.7895  -13.1522   26.2627 C   0  0  0  0  0  0  0  0  0  0  0  0
   10.2887  -17.8356   27.5453 O   0  0  0  0  0  0  0  0  0  0  0  0
  1  2  1  0
  1  5  1  0
  2  3  1  0
  3  4  1  0
  5  4  1  0
  5  6  1  6
  6  7  2  0
  8  6  1  0
  9  8  1  0
  9 10  1  1
 11 10  1  0
 11 15  1  0
 12 13  1  0
 12 11  2  0
 13 14  1  0
 14 15  2  0
 16  9  1  0
 17 16  2  0
 18 19  1  0
 19 29  2  0
 19 20  1  0
 20 21  2  0
 21 22  1  0
 22 23  1  0
 24 23  1  1
 24 25  1  0
 25 16  1  0
 26 24  1  0
 26 30  1  0
 27 26  2  0
 28 22  2  0
 29 28  1  0
M  END
$$$$
