PHY.pdb
     RDKit          3D

 30 32  0  0  1  0  0  0  0  0999 V2000
    9.5452  -14.0483   18.7042 N   0  0  0  0  0  0  0  0  0  0  0  0
    8.8031  -13.8487   17.4944 C   0  0  0  0  0  0  0  0  0  0  0  0
    7.4462  -13.3131   17.8790 C   0  0  0  0  0  0  0  0  0  0  0  0
    7.3079  -13.6195   19.3377 C   0  0  0  0  0  0  0  0  0  0  0  0
    8.7124  -13.7858   19.8296 C   0  0  1  0  0  0  0  0  0  0  0  0
    8.8284  -14.9083   20.8132 C   0  0  0  0  0  0  0  0  0  0  0  0
    7.9759  -15.0089   21.7395 O   0  0  0  0  0  0  0  0  0  0  0  0
    9.8523  -15.8637   20.7522 N   0  0  0  0  0  0  0  0  0  0  0  0
    9.9064  -16.9328   21.8189 C   0  0  1  0  0  0  0  0  0  0  0  0
   10.8597  -17.9251   21.2252 C   0  0  0  0  0  0  0  0  0  0  0  0
   10.3634  -18.8273   20.2030 C   0  0  0  0  0  0  0  0  0  0  0  0
    9.0077  -19.1525   20.0354 C   0  0  0  0  0  0  0  0  0  0  0  0
    8.9322  -19.9926   19.0161 N   0  0  0  0  0  0  0  0  0  0  0  0
   10.1583  -20.2305   18.5141 C   0  0  0  0  0  0  0  0  0  0  0  0
   10.9947  -19.5020   19.2661 N   0  0  0  0  0  0  0  0  0  0  0  0
   10.3747  -16.2625   23.0467 C   0  0  0  0  0  0  0  0  0  0  0  0
   11.1757  -15.2502   22.9635 O   0  0  0  0  0  0  0  0  0  0  0  0
    5.8093  -11.4125   28.1435 O   0  0  0  0  0  0  0  0  0  0  0  0
    6.3943  -12.3343   27.2758 C   0  0  0  0  0  0  0  0  0  0  0  0
    5.7460  -13.4864   26.8957 C   0  0  0  0  0  0  0  0  0  0  0  0
    6.3271  -14.3829   26.0455 C   0  0  0  0  0  0  0  0  0  0  0  0
    7.6074  -14.1064   25.5628 C   0  0  0  0  0  0  0  0  0  0  0  0
    8.2843  -15.0342   24.6543 C   0  0  0  0  0  0  0  0  0  0  0  0
    9.4647  -15.6976   25.3152 C   0  0  2  0  0  0  0  0  0  0  0  0
    9.9777  -16.6759   24.3277 N   0  0  0  0  0  0  0  0  0  0  0  0
    9.0807  -16.3764   26.5505 C   0  0  0  0  0  0  0  0  0  0  0  0
    9.3577  -15.9327   27.6866 O   0  0  0  0  0  0  0  0  0  0  0  0
    8.2716  -12.9487   25.9382 C   0  0  0  0  0  0  0  0  0  0  0  0
    7.6493  -12.0766   26.7942 C   0  0  0  0  0  0  0  0  0  0  0  0
    8.3677  -17.5828   26.4738 O   0  0  0  0  0  0  0  0  0  0  0  0
  1  2  1  0
  1  5  1  0
  2  3  1  0
  3  4  1  0
  5  4  1  0
  5  6  1  1
  6  7  2  0
  8  6  1  0
  9  8  1  0
  9 10  1  6
 11 10  1  0
 11 15  1  0
 12 13  1  0
 12 11  2  0
 13 14  1  0
 14 15  2  0
 16  9  1  0
 17 16  2  0
 18 19  1  0
 19 29  2  0
 19 20  1  0
 20 21  2  0
 21 22  1  0
 22 23  1  0
 24 23  1  6
 24 25  1  0
 25 16  1  0
 26 24  1  0
 26 30  1  0
 27 26  2  0
 28 22  2  0
 29 28  1  0
M  END
$$$$
