PHY.pdb
     RDKit          3D

 30 32  0  0  1  0  0  0  0  0999 V2000
    9.3441  -13.9438   19.5540 N   0  0  0  0  0  0  0  0  0  0  0  0
    8.8475  -13.5108   18.2812 C   0  0  0  0  0  0  0  0  0  0  0  0
    7.6733  -12.5996   18.5396 C   0  0  0  0  0  0  0  0  0  0  0  0
    7.2737  -12.8747   19.9558 C   0  0  0  0  0  0  0  0  0  0  0  0
    8.4953  -13.4625   20.5917 C   0  0  1  0  0  0  0  0  0  0  0  0
    8.1533  -14.5843   21.5220 C   0  0  0  0  0  0  0  0  0  0  0  0
    7.2004  -14.4416   22.3384 O   0  0  0  0  0  0  0  0  0  0  0  0
    8.8510  -15.8002   21.5283 N   0  0  0  0  0  0  0  0  0  0  0  0
    8.4401  -16.8631   22.5207 C   0  0  1  0  0  0  0  0  0  0  0  0
    8.8951  -18.1209   21.8449 C   0  0  0  0  0  0  0  0  0  0  0  0
    8.1405  -18.5973   20.7010 C   0  0  0  0  0  0  0  0  0  0  0  0
    6.7396  -18.5572   20.6140 C   0  0  0  0  0  0  0  0  0  0  0  0
    6.4078  -19.0700   19.4404 N   0  0  0  0  0  0  0  0  0  0  0  0
    7.5105  -19.4397   18.7626 C   0  0  0  0  0  0  0  0  0  0  0  0
    8.5378  -19.1337   19.5668 N   0  0  0  0  0  0  0  0  0  0  0  0
    9.1334  -16.5360   23.7811 C   0  0  0  0  0  0  0  0  0  0  0  0
   10.3678  -16.1502   23.7570 O   0  0  0  0  0  0  0  0  0  0  0  0
    6.3390  -10.7219   25.5355 O   0  0  0  0  0  0  0  0  0  0  0  0
    6.8411  -11.9554   25.9493 C   0  0  0  0  0  0  0  0  0  0  0  0
    8.1880  -12.2341   25.9316 C   0  0  0  0  0  0  0  0  0  0  0  0
    8.6700  -13.4449   26.3389 C   0  0  0  0  0  0  0  0  0  0  0  0
    7.7601  -14.4076   26.7790 C   0  0  0  0  0  0  0  0  0  0  0  0
    8.2172  -15.7269   27.2206 C   0  0  0  0  0  0  0  0  0  0  0  0
    9.2393  -16.3058   26.2770 C   0  0  2  0  0  0  0  0  0  0  0  0
    8.5008  -16.6187   25.0312 N   0  0  0  0  0  0  0  0  0  0  0  0
    9.8529  -17.5147   26.8211 C   0  0  0  0  0  0  0  0  0  0  0  0
   10.5670  -17.5137   27.8480 O   0  0  0  0  0  0  0  0  0  0  0  0
    6.4000  -14.1394   26.8018 C   0  0  0  0  0  0  0  0  0  0  0  0
    5.9610  -12.9094   26.3836 C   0  0  0  0  0  0  0  0  0  0  0  0
    9.6397  -18.7406   26.1720 O   0  0  0  0  0  0  0  0  0  0  0  0
  1  2  1  0
  1  5  1  0
  2  3  1  0
  3  4  1  0
  5  4  1  0
  5  6  1  1
  6  7  2  0
  8  6  1  0
  9  8  1  0
  9 10  1  6
 11 10  1  0
 11 15  1  0
 12 13  1  0
 12 11  2  0
 13 14  1  0
 14 15  2  0
 16  9  1  0
 17 16  2  0
 18 19  1  0
 19 29  2  0
 19 20  1  0
 20 21  2  0
 21 22  1  0
 22 23  1  0
 24 23  1  1
 24 25  1  0
 25 16  1  0
 26 24  1  0
 26 30  1  0
 27 26  2  0
 28 22  2  0
 29 28  1  0
M  END
$$$$
