PHY.pdb
     RDKit          3D

 30 32  0  0  1  0  0  0  0  0999 V2000
    9.3801  -13.3757   20.2987 N   0  0  0  0  0  0  0  0  0  0  0  0
    9.1476  -12.8763   18.9755 C   0  0  0  0  0  0  0  0  0  0  0  0
    7.6683  -12.6102   18.8458 C   0  0  0  0  0  0  0  0  0  0  0  0
    7.0381  -13.3665   19.9734 C   0  0  0  0  0  0  0  0  0  0  0  0
    8.1378  -13.5519   20.9728 C   0  0  1  0  0  0  0  0  0  0  0  0
    8.0953  -14.9098   21.6014 C   0  0  0  0  0  0  0  0  0  0  0  0
    7.0046  -15.3398   22.0708 O   0  0  0  0  0  0  0  0  0  0  0  0
    9.2245  -15.7353   21.6939 N   0  0  0  0  0  0  0  0  0  0  0  0
    9.0704  -17.1016   22.3211 C   0  0  1  0  0  0  0  0  0  0  0  0
    9.8366  -17.9738   21.3734 C   0  0  0  0  0  0  0  0  0  0  0  0
    9.9591  -19.3853   21.6858 C   0  0  0  0  0  0  0  0  0  0  0  0
    9.1793  -20.0458   22.6489 C   0  0  0  0  0  0  0  0  0  0  0  0
    9.5639  -21.3117   22.6595 N   0  0  0  0  0  0  0  0  0  0  0  0
   10.5461  -21.5098   21.7607 C   0  0  0  0  0  0  0  0  0  0  0  0
   10.7524  -20.3131   21.1941 N   0  0  0  0  0  0  0  0  0  0  0  0
    9.6357  -16.9943   23.6794 C   0  0  0  0  0  0  0  0  0  0  0  0
   10.0386  -18.0576   24.2963 O   0  0  0  0  0  0  0  0  0  0  0  0
    5.9022  -10.5896   26.5150 O   0  0  0  0  0  0  0  0  0  0  0  0
    6.4934  -11.8482   26.4092 C   0  0  0  0  0  0  0  0  0  0  0  0
    7.8575  -12.0051   26.3281 C   0  0  0  0  0  0  0  0  0  0  0  0
    8.4271  -13.2417   26.2249 C   0  0  0  0  0  0  0  0  0  0  0  0
    7.5899  -14.3585   26.2026 C   0  0  0  0  0  0  0  0  0  0  0  0
    8.1426  -15.7095   26.0858 C   0  0  0  0  0  0  0  0  0  0  0  0
    9.6250  -15.6825   25.8178 C   0  0  2  0  0  0  0  0  0  0  0  0
    9.7663  -15.7658   24.3452 N   0  0  0  0  0  0  0  0  0  0  0  0
   10.3100  -16.8027   26.4581 C   0  0  0  0  0  0  0  0  0  0  0  0
   10.7422  -16.7570   27.6309 O   0  0  0  0  0  0  0  0  0  0  0  0
    6.2133  -14.2140   26.2838 C   0  0  0  0  0  0  0  0  0  0  0  0
    5.6852  -12.9526   26.3864 C   0  0  0  0  0  0  0  0  0  0  0  0
   10.4987  -17.9911   25.7358 O   0  0  0  0  0  0  0  0  0  0  0  0
  1  2  1  0
  1  5  1  0
  2  3  1  0
  3  4  1  0
  5  4  1  0
  5  6  1  6
  6  7  2  0
  8  6  1  0
  9  8  1  0
  9 10  1  6
 11 10  1  0
 11 15  1  0
 12 13  1  0
 12 11  2  0
 13 14  1  0
 14 15  2  0
 16  9  1  0
 17 16  2  0
 18 19  1  0
 19 29  2  0
 19 20  1  0
 20 21  2  0
 21 22  1  0
 22 23  1  0
 24 23  1  6
 24 25  1  0
 25 16  1  0
 26 24  1  0
 26 30  1  0
 27 26  2  0
 28 22  2  0
 29 28  1  0
M  END
$$$$
