PHY.pdb
     RDKit          3D

 30 32  0  0  1  0  0  0  0  0999 V2000
    9.0978  -14.4251   19.4284 N   0  0  0  0  0  0  0  0  0  0  0  0
    8.7484  -14.0164   18.0998 C   0  0  0  0  0  0  0  0  0  0  0  0
    7.7810  -12.8650   18.2203 C   0  0  0  0  0  0  0  0  0  0  0  0
    7.2822  -12.9239   19.6304 C   0  0  0  0  0  0  0  0  0  0  0  0
    8.3311  -13.6890   20.3766 C   0  0  1  0  0  0  0  0  0  0  0  0
    7.7298  -14.6288   21.3748 C   0  0  0  0  0  0  0  0  0  0  0  0
    6.9631  -14.1732   22.2689 O   0  0  0  0  0  0  0  0  0  0  0  0
    7.9823  -16.0076   21.3620 N   0  0  0  0  0  0  0  0  0  0  0  0
    7.3404  -16.8689   22.4248 C   0  0  1  0  0  0  0  0  0  0  0  0
    7.4784  -18.2439   21.8450 C   0  0  0  0  0  0  0  0  0  0  0  0
    7.0450  -19.3735   22.6457 C   0  0  0  0  0  0  0  0  0  0  0  0
    6.5263  -19.2600   23.9457 C   0  0  0  0  0  0  0  0  0  0  0  0
    6.2408  -20.4840   24.3589 N   0  0  0  0  0  0  0  0  0  0  0  0
    6.5437  -21.3829   23.4038 C   0  0  0  0  0  0  0  0  0  0  0  0
    7.0286  -20.6628   22.3829 N   0  0  0  0  0  0  0  0  0  0  0  0
    8.1027  -16.6258   23.6641 C   0  0  0  0  0  0  0  0  0  0  0  0
    9.3869  -16.4788   23.6132 O   0  0  0  0  0  0  0  0  0  0  0  0
    7.1501  -10.1299   25.8464 O   0  0  0  0  0  0  0  0  0  0  0  0
    7.2496  -11.4832   26.1681 C   0  0  0  0  0  0  0  0  0  0  0  0
    8.4401  -12.0513   26.5582 C   0  0  0  0  0  0  0  0  0  0  0  0
    8.5275  -13.3774   26.8713 C   0  0  0  0  0  0  0  0  0  0  0  0
    7.3726  -14.1568   26.7872 C   0  0  0  0  0  0  0  0  0  0  0  0
    7.4064  -15.5863   27.1032 C   0  0  0  0  0  0  0  0  0  0  0  0
    8.2924  -16.3456   26.1499 C   0  0  2  0  0  0  0  0  0  0  0  0
    7.4861  -16.5374   24.9217 N   0  0  0  0  0  0  0  0  0  0  0  0
    8.6953  -17.6376   26.7001 C   0  0  0  0  0  0  0  0  0  0  0  0
    9.4713  -17.7515   27.6744 O   0  0  0  0  0  0  0  0  0  0  0  0
    6.1664  -13.5966   26.3953 C   0  0  0  0  0  0  0  0  0  0  0  0
    6.1255  -12.2602   26.0904 C   0  0  0  0  0  0  0  0  0  0  0  0
    8.1962  -18.8133   26.1185 O   0  0  0  0  0  0  0  0  0  0  0  0
  1  2  1  0
  1  5  1  0
  2  3  1  0
  3  4  1  0
  5  4  1  0
  5  6  1  1
  6  7  2  0
  8  6  1  0
  9  8  1  0
  9 10  1  6
 11 10  1  0
 11 15  1  0
 12 13  1  0
 12 11  2  0
 13 14  1  0
 14 15  2  0
 16  9  1  0
 17 16  2  0
 18 19  1  0
 19 29  2  0
 19 20  1  0
 20 21  2  0
 21 22  1  0
 22 23  1  0
 24 23  1  1
 24 25  1  0
 25 16  1  0
 26 24  1  0
 26 30  1  0
 27 26  2  0
 28 22  2  0
 29 28  1  0
M  END
$$$$
