PHY.pdb
     RDKit          3D

 30 32  0  0  1  0  0  0  0  0999 V2000
    9.1709  -14.5068   19.4552 N   0  0  0  0  0  0  0  0  0  0  0  0
    8.8404  -14.1474   18.1077 C   0  0  0  0  0  0  0  0  0  0  0  0
    7.8546  -13.0073   18.1722 C   0  0  0  0  0  0  0  0  0  0  0  0
    7.3306  -13.0270   19.5743 C   0  0  0  0  0  0  0  0  0  0  0  0
    8.3762  -13.7514   20.3644 C   0  0  1  0  0  0  0  0  0  0  0  0
    7.7700  -14.6665   21.3822 C   0  0  0  0  0  0  0  0  0  0  0  0
    6.9017  -14.2150   22.1802 O   0  0  0  0  0  0  0  0  0  0  0  0
    8.1268  -16.0178   21.4911 N   0  0  0  0  0  0  0  0  0  0  0  0
    7.4541  -16.8589   22.5511 C   0  0  1  0  0  0  0  0  0  0  0  0
    7.5190  -18.2322   21.9547 C   0  0  0  0  0  0  0  0  0  0  0  0
    7.1122  -19.3572   22.7757 C   0  0  0  0  0  0  0  0  0  0  0  0
    7.9498  -19.9914   23.7074 C   0  0  0  0  0  0  0  0  0  0  0  0
    7.2465  -20.9640   24.2641 N   0  0  0  0  0  0  0  0  0  0  0  0
    6.0036  -20.9971   23.7481 C   0  0  0  0  0  0  0  0  0  0  0  0
    5.9684  -20.0039   22.8491 N   0  0  0  0  0  0  0  0  0  0  0  0
    8.2397  -16.6674   23.7849 C   0  0  0  0  0  0  0  0  0  0  0  0
    9.5113  -16.4421   23.7115 O   0  0  0  0  0  0  0  0  0  0  0  0
    6.9959  -10.4431   25.8241 O   0  0  0  0  0  0  0  0  0  0  0  0
    7.1184  -11.7879   26.1723 C   0  0  0  0  0  0  0  0  0  0  0  0
    6.0698  -12.6691   26.0462 C   0  0  0  0  0  0  0  0  0  0  0  0
    6.1995  -13.9841   26.3897 C   0  0  0  0  0  0  0  0  0  0  0  0
    7.4309  -14.4244   26.8778 C   0  0  0  0  0  0  0  0  0  0  0  0
    7.6277  -15.8216   27.2696 C   0  0  0  0  0  0  0  0  0  0  0  0
    8.4893  -16.5607   26.2789 C   0  0  2  0  0  0  0  0  0  0  0  0
    7.6584  -16.7121   25.0615 N   0  0  0  0  0  0  0  0  0  0  0  0
    8.8921  -17.8705   26.7852 C   0  0  0  0  0  0  0  0  0  0  0  0
    8.4610  -18.9457   26.3135 O   0  0  0  0  0  0  0  0  0  0  0  0
    8.4959  -13.5464   27.0098 C   0  0  0  0  0  0  0  0  0  0  0  0
    8.3200  -12.2342   26.6523 C   0  0  0  0  0  0  0  0  0  0  0  0
    9.8042  -17.9405   27.8495 O   0  0  0  0  0  0  0  0  0  0  0  0
  1  2  1  0
  1  5  1  0
  2  3  1  0
  3  4  1  0
  5  4  1  0
  5  6  1  1
  6  7  2  0
  8  6  1  0
  9  8  1  0
  9 10  1  6
 11 10  1  0
 11 15  1  0
 12 13  1  0
 12 11  2  0
 13 14  1  0
 14 15  2  0
 16  9  1  0
 17 16  2  0
 18 19  1  0
 19 29  2  0
 19 20  1  0
 20 21  2  0
 21 22  1  0
 22 23  1  0
 24 23  1  1
 24 25  1  0
 25 16  1  0
 26 24  1  0
 26 30  1  0
 27 26  2  0
 28 22  2  0
 29 28  1  0
M  END
$$$$
