PHY.pdb
     RDKit          3D

 30 32  0  0  1  0  0  0  0  0999 V2000
    9.3996  -14.9217   18.3647 N   0  0  0  0  0  0  0  0  0  0  0  0
    8.6710  -14.5916   17.1754 C   0  0  0  0  0  0  0  0  0  0  0  0
    7.7716  -13.4260   17.5046 C   0  0  0  0  0  0  0  0  0  0  0  0
    7.7105  -13.3938   18.9999 C   0  0  0  0  0  0  0  0  0  0  0  0
    8.9393  -14.1218   19.4497 C   0  0  1  0  0  0  0  0  0  0  0  0
    8.6669  -14.9931   20.6361 C   0  0  0  0  0  0  0  0  0  0  0  0
    8.1619  -14.4827   21.6750 O   0  0  0  0  0  0  0  0  0  0  0  0
    8.9504  -16.3659   20.6465 N   0  0  0  0  0  0  0  0  0  0  0  0
    8.5576  -17.1750   21.8608 C   0  0  1  0  0  0  0  0  0  0  0  0
    8.7131  -18.5819   21.3685 C   0  0  0  0  0  0  0  0  0  0  0  0
    8.3686  -19.6663   22.2687 C   0  0  0  0  0  0  0  0  0  0  0  0
    9.2163  -20.1446   23.2808 C   0  0  0  0  0  0  0  0  0  0  0  0
    8.5750  -21.1259   23.8941 N   0  0  0  0  0  0  0  0  0  0  0  0
    7.3627  -21.3113   23.3392 C   0  0  0  0  0  0  0  0  0  0  0  0
    7.2818  -20.4031   22.3571 N   0  0  0  0  0  0  0  0  0  0  0  0
    9.4848  -16.7752   22.9363 C   0  0  0  0  0  0  0  0  0  0  0  0
   10.5912  -16.1727   22.6432 O   0  0  0  0  0  0  0  0  0  0  0  0
    6.1079  -10.9082   27.9168 O   0  0  0  0  0  0  0  0  0  0  0  0
    6.5692  -11.9506   27.1134 C   0  0  0  0  0  0  0  0  0  0  0  0
    7.8921  -12.3271   27.1012 C   0  0  0  0  0  0  0  0  0  0  0  0
    8.3343  -13.3492   26.3112 C   0  0  0  0  0  0  0  0  0  0  0  0
    7.4082  -14.0138   25.5055 C   0  0  0  0  0  0  0  0  0  0  0  0
    7.8247  -15.1126   24.6316 C   0  0  0  0  0  0  0  0  0  0  0  0
    8.9666  -15.8946   25.2275 C   0  0  2  0  0  0  0  0  0  0  0  0
    9.2136  -17.0167   24.2919 N   0  0  0  0  0  0  0  0  0  0  0  0
    8.6367  -16.4042   26.5562 C   0  0  0  0  0  0  0  0  0  0  0  0
    9.2908  -16.1099   27.5809 O   0  0  0  0  0  0  0  0  0  0  0  0
    6.0719  -13.6442   25.5085 C   0  0  0  0  0  0  0  0  0  0  0  0
    5.6727  -12.6118   26.3181 C   0  0  0  0  0  0  0  0  0  0  0  0
    7.5378  -17.2644   26.7045 O   0  0  0  0  0  0  0  0  0  0  0  0
  1  2  1  0
  1  5  1  0
  2  3  1  0
  3  4  1  0
  5  4  1  0
  5  6  1  1
  6  7  2  0
  8  6  1  0
  9  8  1  0
  9 10  1  6
 11 10  1  0
 11 15  1  0
 12 13  1  0
 12 11  2  0
 13 14  1  0
 14 15  2  0
 16  9  1  0
 17 16  2  0
 18 19  1  0
 19 29  2  0
 19 20  1  0
 20 21  2  0
 21 22  1  0
 22 23  1  0
 24 23  1  6
 24 25  1  0
 25 16  1  0
 26 24  1  0
 26 30  1  0
 27 26  2  0
 28 22  2  0
 29 28  1  0
M  END
$$$$
