PHY.pdb
     RDKit          3D

 30 32  0  0  1  0  0  0  0  0999 V2000
    9.1975  -14.5283   19.3912 N   0  0  0  0  0  0  0  0  0  0  0  0
    8.8467  -14.1589   18.0516 C   0  0  0  0  0  0  0  0  0  0  0  0
    7.8118  -13.0648   18.1401 C   0  0  0  0  0  0  0  0  0  0  0  0
    7.2941  -13.1337   19.5430 C   0  0  0  0  0  0  0  0  0  0  0  0
    8.3735  -13.8258   20.3165 C   0  0  1  0  0  0  0  0  0  0  0  0
    7.8119  -14.7856   21.3187 C   0  0  0  0  0  0  0  0  0  0  0  0
    6.9604  -14.3764   22.1567 O   0  0  0  0  0  0  0  0  0  0  0  0
    8.1928  -16.1337   21.3697 N   0  0  0  0  0  0  0  0  0  0  0  0
    7.5717  -17.0198   22.4245 C   0  0  1  0  0  0  0  0  0  0  0  0
    7.8740  -18.3922   21.9039 C   0  0  0  0  0  0  0  0  0  0  0  0
    7.3940  -19.5342   22.6593 C   0  0  0  0  0  0  0  0  0  0  0  0
    6.7098  -19.4345   23.8814 C   0  0  0  0  0  0  0  0  0  0  0  0
    6.4299  -20.6670   24.2724 N   0  0  0  0  0  0  0  0  0  0  0  0
    6.8922  -21.5586   23.3760 C   0  0  0  0  0  0  0  0  0  0  0  0
    7.4696  -20.8250   22.4146 N   0  0  0  0  0  0  0  0  0  0  0  0
    8.2310  -16.6663   23.6959 C   0  0  0  0  0  0  0  0  0  0  0  0
    9.4817  -16.3365   23.7041 O   0  0  0  0  0  0  0  0  0  0  0  0
    7.0751  -10.2062   26.0438 O   0  0  0  0  0  0  0  0  0  0  0  0
    7.1649  -11.5719   26.3119 C   0  0  0  0  0  0  0  0  0  0  0  0
    8.3573  -12.1687   26.6495 C   0  0  0  0  0  0  0  0  0  0  0  0
    8.4352  -13.5066   26.9103 C   0  0  0  0  0  0  0  0  0  0  0  0
    7.2684  -14.2682   26.8269 C   0  0  0  0  0  0  0  0  0  0  0  0
    7.2914  -15.7089   27.0881 C   0  0  0  0  0  0  0  0  0  0  0  0
    8.2717  -16.4208   26.1923 C   0  0  2  0  0  0  0  0  0  0  0  0
    7.5484  -16.6641   24.9222 N   0  0  0  0  0  0  0  0  0  0  0  0
    8.7155  -17.6850   26.7744 C   0  0  0  0  0  0  0  0  0  0  0  0
    8.3310  -18.7997   26.3574 O   0  0  0  0  0  0  0  0  0  0  0  0
    6.0601  -13.6789   26.4877 C   0  0  0  0  0  0  0  0  0  0  0  0
    6.0290  -12.3315   26.2342 C   0  0  0  0  0  0  0  0  0  0  0  0
    9.6148  -17.6626   27.8517 O   0  0  0  0  0  0  0  0  0  0  0  0
  1  2  1  0
  1  5  1  0
  2  3  1  0
  3  4  1  0
  5  4  1  0
  5  6  1  1
  6  7  2  0
  8  6  1  0
  9  8  1  0
  9 10  1  6
 11 10  1  0
 11 15  1  0
 12 13  1  0
 12 11  2  0
 13 14  1  0
 14 15  2  0
 16  9  1  0
 17 16  2  0
 18 19  1  0
 19 29  2  0
 19 20  1  0
 20 21  2  0
 21 22  1  0
 22 23  1  0
 24 23  1  1
 24 25  1  0
 25 16  1  0
 26 24  1  0
 26 30  1  0
 27 26  2  0
 28 22  2  0
 29 28  1  0
M  END
$$$$
