PHY.pdb
     RDKit          3D

 30 32  0  0  1  0  0  0  0  0999 V2000
   13.2075  -20.8851   15.9875 N   0  0  0  0  0  0  0  0  0  0  0  0
   12.2340  -20.9255   14.9365 C   0  0  0  0  0  0  0  0  0  0  0  0
   12.4738  -22.1878   14.1458 C   0  0  0  0  0  0  0  0  0  0  0  0
   13.8551  -22.6245   14.5226 C   0  0  0  0  0  0  0  0  0  0  0  0
   14.1159  -21.9730   15.8454 C   0  0  1  0  0  0  0  0  0  0  0  0
   15.5221  -21.4706   15.9507 C   0  0  0  0  0  0  0  0  0  0  0  0
   16.4669  -22.2994   16.0750 O   0  0  0  0  0  0  0  0  0  0  0  0
   15.8415  -20.1061   15.9174 N   0  0  0  0  0  0  0  0  0  0  0  0
   17.2983  -19.7050   15.9396 C   0  0  1  0  0  0  0  0  0  0  0  0
   17.3369  -18.5950   14.9335 C   0  0  0  0  0  0  0  0  0  0  0  0
   17.7201  -18.9158   13.5714 C   0  0  0  0  0  0  0  0  0  0  0  0
   18.3761  -20.1005   13.1999 C   0  0  0  0  0  0  0  0  0  0  0  0
   18.5619  -20.0482   11.8910 N   0  0  0  0  0  0  0  0  0  0  0  0
   18.0654  -18.9003   11.3933 C   0  0  0  0  0  0  0  0  0  0  0  0
   17.5648  -18.2453   12.4498 N   0  0  0  0  0  0  0  0  0  0  0  0
   17.5925  -19.3090   17.3298 C   0  0  0  0  0  0  0  0  0  0  0  0
   16.7725  -18.5390   17.9685 O   0  0  0  0  0  0  0  0  0  0  0  0
   15.5515  -24.5776   20.8166 O   0  0  0  0  0  0  0  0  0  0  0  0
   16.5244  -23.5907   20.6604 C   0  0  0  0  0  0  0  0  0  0  0  0
   16.6409  -22.5402   21.5406 C   0  0  0  0  0  0  0  0  0  0  0  0
   17.5969  -21.5788   21.3792 C   0  0  0  0  0  0  0  0  0  0  0  0
   18.4650  -21.6818   20.2910 C   0  0  0  0  0  0  0  0  0  0  0  0
   19.5051  -20.6769   20.0620 C   0  0  0  0  0  0  0  0  0  0  0  0
   18.9414  -19.4247   19.4419 C   0  0  2  0  0  0  0  0  0  0  0  0
   18.7412  -19.7437   18.0089 N   0  0  0  0  0  0  0  0  0  0  0  0
   19.8529  -18.2924   19.5878 C   0  0  0  0  0  0  0  0  0  0  0  0
   20.3294  -17.6708   18.6126 O   0  0  0  0  0  0  0  0  0  0  0  0
   18.3582  -22.7358   19.3965 C   0  0  0  0  0  0  0  0  0  0  0  0
   17.3829  -23.6786   19.5981 C   0  0  0  0  0  0  0  0  0  0  0  0
   20.2192  -17.8719   20.8757 O   0  0  0  0  0  0  0  0  0  0  0  0
  1  2  1  0
  1  5  1  0
  2  3  1  0
  3  4  1  0
  5  4  1  0
  5  6  1  6
  6  7  2  0
  8  6  1  0
  9  8  1  0
  9 10  1  6
 11 10  1  0
 11 15  1  0
 12 13  1  0
 12 11  2  0
 13 14  1  0
 14 15  2  0
 16  9  1  0
 17 16  2  0
 18 19  1  0
 19 29  2  0
 19 20  1  0
 20 21  2  0
 21 22  1  0
 22 23  1  0
 24 23  1  1
 24 25  1  0
 25 16  1  0
 26 24  1  0
 26 30  1  0
 27 26  2  0
 28 22  2  0
 29 28  1  0
M  END
$$$$
