PHY.pdb
     RDKit          3D

 30 32  0  0  1  0  0  0  0  0999 V2000
    9.3825  -14.1137   18.5955 N   0  0  0  0  0  0  0  0  0  0  0  0
    8.5877  -13.9550   17.4135 C   0  0  0  0  0  0  0  0  0  0  0  0
    7.2367  -13.4385   17.8427 C   0  0  0  0  0  0  0  0  0  0  0  0
    7.1644  -13.7163   19.3118 C   0  0  0  0  0  0  0  0  0  0  0  0
    8.5910  -13.8439   19.7486 C   0  0  1  0  0  0  0  0  0  0  0  0
    8.7704  -14.9425   20.7495 C   0  0  0  0  0  0  0  0  0  0  0  0
    7.9644  -15.0346   21.7174 O   0  0  0  0  0  0  0  0  0  0  0  0
    9.8045  -15.8847   20.6602 N   0  0  0  0  0  0  0  0  0  0  0  0
    9.8953  -16.9594   21.7187 C   0  0  1  0  0  0  0  0  0  0  0  0
   10.8065  -17.9610   21.0765 C   0  0  0  0  0  0  0  0  0  0  0  0
   10.2645  -18.8139   20.0354 C   0  0  0  0  0  0  0  0  0  0  0  0
    8.9468  -18.7275   19.5579 C   0  0  0  0  0  0  0  0  0  0  0  0
    8.8112  -19.6513   18.6206 N   0  0  0  0  0  0  0  0  0  0  0  0
    9.9627  -20.3305   18.4630 C   0  0  0  0  0  0  0  0  0  0  0  0
   10.8156  -19.7874   19.3424 N   0  0  0  0  0  0  0  0  0  0  0  0
   10.4298  -16.3008   22.9257 C   0  0  0  0  0  0  0  0  0  0  0  0
   11.2610  -15.3166   22.8089 O   0  0  0  0  0  0  0  0  0  0  0  0
    6.2886  -11.0774   27.9180 O   0  0  0  0  0  0  0  0  0  0  0  0
    6.7924  -12.0464   27.0508 C   0  0  0  0  0  0  0  0  0  0  0  0
    6.1630  -12.3609   25.8689 C   0  0  0  0  0  0  0  0  0  0  0  0
    6.6641  -13.3112   25.0262 C   0  0  0  0  0  0  0  0  0  0  0  0
    7.8416  -13.9666   25.3899 C   0  0  0  0  0  0  0  0  0  0  0  0
    8.4224  -15.0001   24.5303 C   0  0  0  0  0  0  0  0  0  0  0  0
    9.5703  -15.7046   25.2059 C   0  0  2  0  0  0  0  0  0  0  0  0
   10.0654  -16.6958   24.2221 N   0  0  0  0  0  0  0  0  0  0  0  0
    9.1458  -16.3747   26.4326 C   0  0  0  0  0  0  0  0  0  0  0  0
    8.3512  -17.3407   26.4418 O   0  0  0  0  0  0  0  0  0  0  0  0
    8.4860  -13.6588   26.5784 C   0  0  0  0  0  0  0  0  0  0  0  0
    7.9465  -12.6974   27.3940 C   0  0  0  0  0  0  0  0  0  0  0  0
    9.6445  -15.9244   27.6647 O   0  0  0  0  0  0  0  0  0  0  0  0
  1  2  1  0
  1  5  1  0
  2  3  1  0
  3  4  1  0
  5  4  1  0
  5  6  1  1
  6  7  2  0
  8  6  1  0
  9  8  1  0
  9 10  1  6
 11 10  1  0
 11 15  1  0
 12 13  1  0
 12 11  2  0
 13 14  1  0
 14 15  2  0
 16  9  1  0
 17 16  2  0
 18 19  1  0
 19 29  2  0
 19 20  1  0
 20 21  2  0
 21 22  1  0
 22 23  1  0
 24 23  1  6
 24 25  1  0
 25 16  1  0
 26 24  1  0
 26 30  1  0
 27 26  2  0
 28 22  2  0
 29 28  1  0
M  END
$$$$
