PHY.pdb
     RDKit          3D

 30 32  0  0  1  0  0  0  0  0999 V2000
    9.4522  -13.8872   19.3434 N   0  0  0  0  0  0  0  0  0  0  0  0
    9.0157  -13.5106   18.0313 C   0  0  0  0  0  0  0  0  0  0  0  0
    7.7562  -12.6955   18.1900 C   0  0  0  0  0  0  0  0  0  0  0  0
    7.2788  -12.9862   19.5786 C   0  0  0  0  0  0  0  0  0  0  0  0
    8.4947  -13.4651   20.3097 C   0  0  1  0  0  0  0  0  0  0  0  0
    8.1779  -14.6005   21.2325 C   0  0  0  0  0  0  0  0  0  0  0  0
    7.1381  -14.5447   21.9470 O   0  0  0  0  0  0  0  0  0  0  0  0
    8.9926  -15.7361   21.3408 N   0  0  0  0  0  0  0  0  0  0  0  0
    8.5890  -16.8245   22.3083 C   0  0  1  0  0  0  0  0  0  0  0  0
    9.2166  -18.0406   21.6975 C   0  0  0  0  0  0  0  0  0  0  0  0
    8.5781  -18.6335   20.5375 C   0  0  0  0  0  0  0  0  0  0  0  0
    7.2018  -18.5499   20.2716 C   0  0  0  0  0  0  0  0  0  0  0  0
    6.9840  -19.1996   19.1398 N   0  0  0  0  0  0  0  0  0  0  0  0
    8.1372  -19.6987   18.6574 C   0  0  0  0  0  0  0  0  0  0  0  0
    9.0770  -19.3301   19.5387 N   0  0  0  0  0  0  0  0  0  0  0  0
    9.1299  -16.4257   23.6216 C   0  0  0  0  0  0  0  0  0  0  0  0
   10.3003  -15.8803   23.6986 O   0  0  0  0  0  0  0  0  0  0  0  0
    6.2946  -10.5176   25.9617 O   0  0  0  0  0  0  0  0  0  0  0  0
    6.6419  -11.8451   26.2109 C   0  0  0  0  0  0  0  0  0  0  0  0
    5.7005  -12.8474   26.2472 C   0  0  0  0  0  0  0  0  0  0  0  0
    6.0504  -14.1443   26.4919 C   0  0  0  0  0  0  0  0  0  0  0  0
    7.3977  -14.4390   26.7077 C   0  0  0  0  0  0  0  0  0  0  0  0
    7.8320  -15.8102   26.9824 C   0  0  0  0  0  0  0  0  0  0  0  0
    9.0002  -16.2071   26.1174 C   0  0  2  0  0  0  0  0  0  0  0  0
    8.4159  -16.6076   24.8161 N   0  0  0  0  0  0  0  0  0  0  0  0
    9.7511  -17.3165   26.7001 C   0  0  0  0  0  0  0  0  0  0  0  0
    9.7397  -18.4726   26.2228 O   0  0  0  0  0  0  0  0  0  0  0  0
    8.3564  -13.4380   26.6737 C   0  0  0  0  0  0  0  0  0  0  0  0
    7.9592  -12.1494   26.4241 C   0  0  0  0  0  0  0  0  0  0  0  0
   10.5253  -17.0889   27.8483 O   0  0  0  0  0  0  0  0  0  0  0  0
  1  2  1  0
  1  5  1  0
  2  3  1  0
  3  4  1  0
  5  4  1  0
  5  6  1  1
  6  7  2  0
  8  6  1  0
  9  8  1  0
  9 10  1  6
 11 10  1  0
 11 15  1  0
 12 13  1  0
 12 11  2  0
 13 14  1  0
 14 15  2  0
 16  9  1  0
 17 16  2  0
 18 19  1  0
 19 29  2  0
 19 20  1  0
 20 21  2  0
 21 22  1  0
 22 23  1  0
 24 23  1  1
 24 25  1  0
 25 16  1  0
 26 24  1  0
 26 30  1  0
 27 26  2  0
 28 22  2  0
 29 28  1  0
M  END
$$$$
