PHY.pdb
     RDKit          3D

 30 32  0  0  1  0  0  0  0  0999 V2000
    9.2345  -13.8760   18.2435 N   0  0  0  0  0  0  0  0  0  0  0  0
    8.4800  -13.5714   17.0637 C   0  0  0  0  0  0  0  0  0  0  0  0
    7.1581  -12.9959   17.5079 C   0  0  0  0  0  0  0  0  0  0  0  0
    7.0329  -13.3800   18.9493 C   0  0  0  0  0  0  0  0  0  0  0  0
    8.4369  -13.6407   19.4000 C   0  0  1  0  0  0  0  0  0  0  0  0
    8.5173  -14.8229   20.3149 C   0  0  0  0  0  0  0  0  0  0  0  0
    7.7149  -14.9083   21.2863 O   0  0  0  0  0  0  0  0  0  0  0  0
    9.4538  -15.8512   20.1402 N   0  0  0  0  0  0  0  0  0  0  0  0
    9.4944  -16.9705   21.1547 C   0  0  1  0  0  0  0  0  0  0  0  0
   10.3622  -17.9847   20.4735 C   0  0  0  0  0  0  0  0  0  0  0  0
   10.6372  -19.2294   21.1664 C   0  0  0  0  0  0  0  0  0  0  0  0
   10.1555  -19.5355   22.4494 C   0  0  0  0  0  0  0  0  0  0  0  0
   10.6020  -20.7429   22.7549 N   0  0  0  0  0  0  0  0  0  0  0  0
   11.3439  -21.2365   21.7460 C   0  0  0  0  0  0  0  0  0  0  0  0
   11.3372  -20.2832   20.8041 N   0  0  0  0  0  0  0  0  0  0  0  0
   10.0543  -16.3851   22.3876 C   0  0  0  0  0  0  0  0  0  0  0  0
   11.0410  -15.5517   22.3156 O   0  0  0  0  0  0  0  0  0  0  0  0
   11.0962  -14.6702   30.9504 O   0  0  0  0  0  0  0  0  0  0  0  0
   10.6213  -14.8909   29.6579 C   0  0  0  0  0  0  0  0  0  0  0  0
   10.5224  -13.8738   28.7371 C   0  0  0  0  0  0  0  0  0  0  0  0
   10.0562  -14.0999   27.4738 C   0  0  0  0  0  0  0  0  0  0  0  0
    9.6766  -15.3981   27.1287 C   0  0  0  0  0  0  0  0  0  0  0  0
    9.1621  -15.6999   25.7913 C   0  0  0  0  0  0  0  0  0  0  0  0
   10.2455  -16.2222   24.8837 C   0  0  2  0  0  0  0  0  0  0  0  0
    9.5513  -16.6910   23.6616 N   0  0  0  0  0  0  0  0  0  0  0  0
   10.9843  -17.3207   25.5014 C   0  0  0  0  0  0  0  0  0  0  0  0
   10.5484  -18.4919   25.5519 O   0  0  0  0  0  0  0  0  0  0  0  0
    9.7714  -16.4322   28.0475 C   0  0  0  0  0  0  0  0  0  0  0  0
   10.2454  -16.1588   29.3050 C   0  0  0  0  0  0  0  0  0  0  0  0
   12.2424  -17.0644   26.0680 O   0  0  0  0  0  0  0  0  0  0  0  0
  1  2  1  0
  1  5  1  0
  2  3  1  0
  3  4  1  0
  5  4  1  0
  5  6  1  1
  6  7  2  0
  8  6  1  0
  9  8  1  0
  9 10  1  6
 11 10  1  0
 11 15  1  0
 12 13  1  0
 12 11  2  0
 13 14  1  0
 14 15  2  0
 16  9  1  0
 17 16  2  0
 18 19  1  0
 19 29  2  0
 19 20  1  0
 20 21  2  0
 21 22  1  0
 22 23  1  0
 24 23  1  1
 24 25  1  0
 25 16  1  0
 26 24  1  0
 26 30  1  0
 27 26  2  0
 28 22  2  0
 29 28  1  0
M  END
$$$$
