PHY.pdb
     RDKit          3D

 30 32  0  0  1  0  0  0  0  0999 V2000
    9.5011  -14.3014   18.6549 N   0  0  0  0  0  0  0  0  0  0  0  0
    8.8278  -13.9346   17.4440 C   0  0  0  0  0  0  0  0  0  0  0  0
    7.5404  -13.2503   17.8315 C   0  0  0  0  0  0  0  0  0  0  0  0
    7.3198  -13.6226   19.2645 C   0  0  0  0  0  0  0  0  0  0  0  0
    8.6757  -14.0000   19.7759 C   0  0  1  0  0  0  0  0  0  0  0  0
    8.6161  -15.1847   20.6890 C   0  0  0  0  0  0  0  0  0  0  0  0
    7.6447  -15.3014   21.4875 O   0  0  0  0  0  0  0  0  0  0  0  0
    9.6012  -16.1820   20.6982 N   0  0  0  0  0  0  0  0  0  0  0  0
    9.5115  -17.2757   21.7372 C   0  0  1  0  0  0  0  0  0  0  0  0
   10.5889  -18.2199   21.2975 C   0  0  0  0  0  0  0  0  0  0  0  0
   10.3162  -19.0985   20.1755 C   0  0  0  0  0  0  0  0  0  0  0  0
    9.0461  -19.2641   19.6001 C   0  0  0  0  0  0  0  0  0  0  0  0
    9.1776  -20.1319   18.6101 N   0  0  0  0  0  0  0  0  0  0  0  0
   10.4571  -20.5378   18.5105 C   0  0  0  0  0  0  0  0  0  0  0  0
   11.1109  -19.8842   19.4808 N   0  0  0  0  0  0  0  0  0  0  0  0
    9.7367  -16.6217   23.0402 C   0  0  0  0  0  0  0  0  0  0  0  0
   10.5585  -15.6267   23.1290 O   0  0  0  0  0  0  0  0  0  0  0  0
    6.0356  -11.2466   28.3561 O   0  0  0  0  0  0  0  0  0  0  0  0
    6.5541  -12.1628   27.4415 C   0  0  0  0  0  0  0  0  0  0  0  0
    7.9078  -12.3003   27.2394 C   0  0  0  0  0  0  0  0  0  0  0  0
    8.4058  -13.2003   26.3416 C   0  0  0  0  0  0  0  0  0  0  0  0
    7.5056  -13.9886   25.6228 C   0  0  0  0  0  0  0  0  0  0  0  0
    7.9803  -14.9656   24.6408 C   0  0  0  0  0  0  0  0  0  0  0  0
    8.7806  -16.0640   25.2915 C   0  0  2  0  0  0  0  0  0  0  0  0
    9.0818  -17.0326   24.2114 N   0  0  0  0  0  0  0  0  0  0  0  0
    8.0318  -16.7152   26.3636 C   0  0  0  0  0  0  0  0  0  0  0  0
    8.2165  -16.4630   27.5746 O   0  0  0  0  0  0  0  0  0  0  0  0
    6.1388  -13.8599   25.8171 C   0  0  0  0  0  0  0  0  0  0  0  0
    5.6835  -12.9428   26.7294 C   0  0  0  0  0  0  0  0  0  0  0  0
    7.0571  -17.6696   26.0339 O   0  0  0  0  0  0  0  0  0  0  0  0
  1  2  1  0
  1  5  1  0
  2  3  1  0
  3  4  1  0
  5  4  1  0
  5  6  1  1
  6  7  2  0
  8  6  1  0
  9  8  1  0
  9 10  1  6
 11 10  1  0
 11 15  1  0
 12 13  1  0
 12 11  2  0
 13 14  1  0
 14 15  2  0
 16  9  1  0
 17 16  2  0
 18 19  1  0
 19 29  2  0
 19 20  1  0
 20 21  2  0
 21 22  1  0
 22 23  1  0
 24 23  1  6
 24 25  1  0
 25 16  1  0
 26 24  1  0
 26 30  1  0
 27 26  2  0
 28 22  2  0
 29 28  1  0
M  END
$$$$
