PHY.pdb
     RDKit          3D

 30 32  0  0  1  0  0  0  0  0999 V2000
    9.5279  -13.9183   18.9378 N   0  0  0  0  0  0  0  0  0  0  0  0
    8.8358  -13.5151   17.7494 C   0  0  0  0  0  0  0  0  0  0  0  0
    7.5333  -12.8848   18.1761 C   0  0  0  0  0  0  0  0  0  0  0  0
    7.3336  -13.3283   19.5918 C   0  0  0  0  0  0  0  0  0  0  0  0
    8.7031  -13.6915   20.0767 C   0  0  1  0  0  0  0  0  0  0  0  0
    8.6825  -14.9180   20.9347 C   0  0  0  0  0  0  0  0  0  0  0  0
    7.8089  -15.0242   21.8404 O   0  0  0  0  0  0  0  0  0  0  0  0
    9.5997  -15.9663   20.7766 N   0  0  0  0  0  0  0  0  0  0  0  0
    9.4268  -17.2098   21.6176 C   0  0  1  0  0  0  0  0  0  0  0  0
    9.8156  -18.2961   20.6613 C   0  0  0  0  0  0  0  0  0  0  0  0
    8.8843  -18.6470   19.6054 C   0  0  0  0  0  0  0  0  0  0  0  0
    7.5224  -18.3051   19.6155 C   0  0  0  0  0  0  0  0  0  0  0  0
    6.9924  -18.7855   18.5025 N   0  0  0  0  0  0  0  0  0  0  0  0
    7.9301  -19.4180   17.7727 C   0  0  0  0  0  0  0  0  0  0  0  0
    9.0621  -19.3082   18.4816 N   0  0  0  0  0  0  0  0  0  0  0  0
   10.3175  -17.0435   22.7818 C   0  0  0  0  0  0  0  0  0  0  0  0
   11.3053  -16.2103   22.7244 O   0  0  0  0  0  0  0  0  0  0  0  0
   10.3820  -13.5960   30.5004 O   0  0  0  0  0  0  0  0  0  0  0  0
   10.2802  -14.1867   29.2412 C   0  0  0  0  0  0  0  0  0  0  0  0
   11.0703  -15.2504   28.8720 C   0  0  0  0  0  0  0  0  0  0  0  0
   10.9632  -15.8221   27.6368 C   0  0  0  0  0  0  0  0  0  0  0  0
   10.0257  -15.3012   26.7432 C   0  0  0  0  0  0  0  0  0  0  0  0
    9.8707  -15.8679   25.4019 C   0  0  0  0  0  0  0  0  0  0  0  0
   10.5786  -17.1917   25.2724 C   0  0  2  0  0  0  0  0  0  0  0  0
   10.1351  -17.7568   23.9765 N   0  0  0  0  0  0  0  0  0  0  0  0
   10.2345  -18.0972   26.3660 C   0  0  0  0  0  0  0  0  0  0  0  0
   11.0077  -18.3402   27.3186 O   0  0  0  0  0  0  0  0  0  0  0  0
    9.2232  -14.2293   27.1029 C   0  0  0  0  0  0  0  0  0  0  0  0
    9.3653  -13.6868   28.3543 C   0  0  0  0  0  0  0  0  0  0  0  0
    8.9820  -18.7303   26.3602 O   0  0  0  0  0  0  0  0  0  0  0  0
  1  2  1  0
  1  5  1  0
  2  3  1  0
  3  4  1  0
  5  4  1  0
  5  6  1  1
  6  7  2  0
  8  6  1  0
  9  8  1  0
  9 10  1  6
 11 10  1  0
 11 15  1  0
 12 13  1  0
 12 11  2  0
 13 14  1  0
 14 15  2  0
 16  9  1  0
 17 16  2  0
 18 19  1  0
 19 29  2  0
 19 20  1  0
 20 21  2  0
 21 22  1  0
 22 23  1  0
 24 23  1  1
 24 25  1  0
 25 16  1  0
 26 24  1  0
 26 30  1  0
 27 26  2  0
 28 22  2  0
 29 28  1  0
M  END
$$$$
