GVW.pdb
     RDKit          3D

 26 27  0  0  1  0  0  0  0  0999 V2000
    7.4808  -12.8314   17.8570 N   0  0  0  0  0  0  0  0  0  0  0  0
    8.5199  -13.1240   18.8004 C   0  0  0  0  0  0  0  0  0  0  0  0
    8.0626  -14.2247   19.7096 C   0  0  0  0  0  0  0  0  0  0  0  0
    7.0456  -14.8709   19.4170 O   0  0  0  0  0  0  0  0  0  0  0  0
    8.2211  -16.9859   19.4628 C   0  0  0  0  0  0  0  0  0  0  0  0
    9.1341  -16.9312   20.6874 C   0  0  1  0  0  0  0  0  0  0  0  0
   10.5756  -16.8430   20.3032 C   0  0  0  0  0  0  0  0  0  0  0  0
    8.6865  -15.7724   21.5797 C   0  0  2  0  0  0  0  0  0  0  0  0
    8.7965  -14.5135   20.8914 N   0  0  0  0  0  0  0  0  0  0  0  0
    9.5692  -15.7915   22.8001 C   0  0  0  0  0  0  0  0  0  0  0  0
   10.7243  -15.3091   22.7274 O   0  0  0  0  0  0  0  0  0  0  0  0
    9.0867  -16.3511   24.0086 N   0  0  0  0  0  0  0  0  0  0  0  0
    9.7999  -16.1625   25.2554 C   0  0  1  0  0  0  0  0  0  0  0  0
    8.7680  -16.2491   26.3676 C   0  0  0  0  0  0  0  0  0  0  0  0
    7.6257  -15.3646   26.1005 C   0  0  0  0  0  0  0  0  0  0  0  0
    6.3714  -15.7775   25.6380 C   0  0  0  0  0  0  0  0  0  0  0  0
    5.6117  -14.6850   25.5242 N   0  0  0  0  0  0  0  0  0  0  0  0
    6.3315  -13.6005   25.8944 C   0  0  0  0  0  0  0  0  0  0  0  0
    6.0259  -12.2523   25.9599 C   0  0  0  0  0  0  0  0  0  0  0  0
    6.9831  -11.3593   26.3830 C   0  0  0  0  0  0  0  0  0  0  0  0
    8.2467  -11.7572   26.7480 C   0  0  0  0  0  0  0  0  0  0  0  0
    8.5641  -13.0981   26.6872 C   0  0  0  0  0  0  0  0  0  0  0  0
    7.5953  -14.0006   26.2591 C   0  0  0  0  0  0  0  0  0  0  0  0
   10.7657  -17.3028   25.3996 C   0  0  0  0  0  0  0  0  0  0  0  0
   11.7489  -17.2280   26.3550 O   0  0  0  0  0  0  0  0  0  0  0  0
   10.7008  -18.3216   24.6730 O   0  0  0  0  0  0  0  0  0  0  0  0
  2  1  1  0
  3  4  2  0
  3  2  1  0
  6  5  1  6
  6  8  1  0
  7  6  1  0
  8  9  1  6
  9  3  1  0
 10 11  2  0
 10  8  1  0
 12 10  1  0
 13 12  1  0
 13 14  1  1
 15 23  1  0
 15 14  1  0
 16 15  2  0
 17 16  1  0
 17 18  1  0
 18 19  1  0
 18 23  2  0
 19 20  2  0
 20 21  1  0
 22 21  2  0
 23 22  1  0
 24 13  1  0
 25 24  1  0
 26 24  2  0
M  END
$$$$
