GVW.pdb
     RDKit          3D

 26 27  0  0  1  0  0  0  0  0999 V2000
    5.2727  -18.7485   20.1454 N   0  0  0  0  0  0  0  0  0  0  0  0
    5.3695  -17.8138   21.2282 C   0  0  0  0  0  0  0  0  0  0  0  0
    6.6454  -17.0381   21.0954 C   0  0  0  0  0  0  0  0  0  0  0  0
    7.7266  -17.6451   21.0836 O   0  0  0  0  0  0  0  0  0  0  0  0
    8.8258  -12.6244   20.4520 C   0  0  0  0  0  0  0  0  0  0  0  0
    7.5140  -13.4086   20.4679 C   0  0  1  0  0  0  0  0  0  0  0  0
    6.8641  -13.4333   19.1224 C   0  0  0  0  0  0  0  0  0  0  0  0
    7.7879  -14.8087   21.0197 C   0  0  2  0  0  0  0  0  0  0  0  0
    6.6015  -15.6224   20.9855 N   0  0  0  0  0  0  0  0  0  0  0  0
    8.2750  -14.6356   22.4345 C   0  0  0  0  0  0  0  0  0  0  0  0
    7.8356  -13.6824   23.1206 O   0  0  0  0  0  0  0  0  0  0  0  0
    9.2183  -15.5464   22.9702 N   0  0  0  0  0  0  0  0  0  0  0  0
    9.8882  -15.2749   24.2256 C   0  0  1  0  0  0  0  0  0  0  0  0
    9.1341  -16.0418   25.2992 C   0  0  0  0  0  0  0  0  0  0  0  0
    7.8537  -15.3932   25.6129 C   0  0  0  0  0  0  0  0  0  0  0  0
    6.5892  -15.9610   25.4226 C   0  0  0  0  0  0  0  0  0  0  0  0
    5.6868  -15.0638   25.8281 N   0  0  0  0  0  0  0  0  0  0  0  0
    6.3263  -13.9545   26.2659 C   0  0  0  0  0  0  0  0  0  0  0  0
    5.8704  -12.7532   26.7804 C   0  0  0  0  0  0  0  0  0  0  0  0
    6.7762  -11.7854   27.1486 C   0  0  0  0  0  0  0  0  0  0  0  0
    8.1328  -11.9657   27.0245 C   0  0  0  0  0  0  0  0  0  0  0  0
    8.6002  -13.1584   26.5131 C   0  0  0  0  0  0  0  0  0  0  0  0
    7.6833  -14.1367   26.1410 C   0  0  0  0  0  0  0  0  0  0  0  0
   11.2806  -15.8268   24.1225 C   0  0  0  0  0  0  0  0  0  0  0  0
   12.1949  -15.5184   25.0993 O   0  0  0  0  0  0  0  0  0  0  0  0
   11.6331  -16.5612   23.1704 O   0  0  0  0  0  0  0  0  0  0  0  0
  2  1  1  0
  3  4  2  0
  3  2  1  0
  6  5  1  6
  6  8  1  0
  7  6  1  0
  8  9  1  1
  9  3  1  0
 10 11  2  0
 10  8  1  0
 12 10  1  0
 13 12  1  0
 13 14  1  1
 15 23  1  0
 15 14  1  0
 16 15  2  0
 17 16  1  0
 17 18  1  0
 18 19  1  0
 18 23  2  0
 19 20  2  0
 20 21  1  0
 22 21  2  0
 23 22  1  0
 24 13  1  0
 25 24  1  0
 26 24  2  0
M  END
$$$$
