GVW.pdb
     RDKit          3D

 26 27  0  0  1  0  0  0  0  0999 V2000
   13.1542  -13.5893   19.4408 N   0  0  0  0  0  0  0  0  0  0  0  0
   12.3275  -14.7475   19.6150 C   0  0  0  0  0  0  0  0  0  0  0  0
   11.3405  -14.4863   20.7127 C   0  0  0  0  0  0  0  0  0  0  0  0
   11.6796  -13.7902   21.6812 O   0  0  0  0  0  0  0  0  0  0  0  0
    6.7118  -15.0857   22.4173 C   0  0  0  0  0  0  0  0  0  0  0  0
    7.6595  -15.1683   21.2210 C   0  0  1  0  0  0  0  0  0  0  0  0
    7.2698  -14.2175   20.1358 C   0  0  0  0  0  0  0  0  0  0  0  0
    9.0905  -14.9499   21.7148 C   0  0  2  0  0  0  0  0  0  0  0  0
   10.0335  -15.0374   20.6314 N   0  0  0  0  0  0  0  0  0  0  0  0
    9.3655  -16.0112   22.7478 C   0  0  0  0  0  0  0  0  0  0  0  0
   10.2037  -16.9087   22.4947 O   0  0  0  0  0  0  0  0  0  0  0  0
    8.6778  -15.9828   23.9858 N   0  0  0  0  0  0  0  0  0  0  0  0
    9.3162  -16.4359   25.2047 C   0  0  1  0  0  0  0  0  0  0  0  0
    8.2755  -16.3359   26.3075 C   0  0  0  0  0  0  0  0  0  0  0  0
    7.4144  -15.1606   26.1183 C   0  0  0  0  0  0  0  0  0  0  0  0
    6.0948  -15.1887   25.6543 C   0  0  0  0  0  0  0  0  0  0  0  0
    5.6585  -13.9268   25.6240 N   0  0  0  0  0  0  0  0  0  0  0  0
    6.6450  -13.1033   26.0484 C   0  0  0  0  0  0  0  0  0  0  0  0
    6.7151  -11.7300   26.2048 C   0  0  0  0  0  0  0  0  0  0  0  0
    7.8785  -11.1580   26.6654 C   0  0  0  0  0  0  0  0  0  0  0  0
    8.9879  -11.9051   26.9807 C   0  0  0  0  0  0  0  0  0  0  0  0
    8.9310  -13.2748   26.8294 C   0  0  0  0  0  0  0  0  0  0  0  0
    7.7540  -13.8524   26.3634 C   0  0  0  0  0  0  0  0  0  0  0  0
    9.6825  -17.8791   25.0125 C   0  0  0  0  0  0  0  0  0  0  0  0
   10.6696  -18.4270   25.7939 O   0  0  0  0  0  0  0  0  0  0  0  0
    9.1133  -18.5989   24.1593 O   0  0  0  0  0  0  0  0  0  0  0  0
  2  1  1  0
  3  4  2  0
  3  2  1  0
  6  5  1  1
  6  8  1  0
  7  6  1  0
  8  9  1  6
  9  3  1  0
 10 11  2  0
 10  8  1  0
 12 10  1  0
 13 12  1  0
 13 14  1  1
 15 23  1  0
 15 14  1  0
 16 15  2  0
 17 16  1  0
 17 18  1  0
 18 19  1  0
 18 23  2  0
 19 20  2  0
 20 21  1  0
 22 21  2  0
 23 22  1  0
 24 13  1  0
 25 24  1  0
 26 24  2  0
M  END
$$$$
