GVW.pdb
     RDKit          3D

 26 27  0  0  1  0  0  0  0  0999 V2000
   13.0148  -16.3995   18.7229 N   0  0  0  0  0  0  0  0  0  0  0  0
   11.6657  -16.8258   18.9540 C   0  0  0  0  0  0  0  0  0  0  0  0
   11.0870  -16.0333   20.0873 C   0  0  0  0  0  0  0  0  0  0  0  0
   11.8470  -15.5429   20.9355 O   0  0  0  0  0  0  0  0  0  0  0  0
    7.0130  -14.1325   22.2125 C   0  0  0  0  0  0  0  0  0  0  0  0
    7.6283  -14.7784   20.9715 C   0  0  1  0  0  0  0  0  0  0  0  0
    7.5681  -13.8721   19.7847 C   0  0  0  0  0  0  0  0  0  0  0  0
    9.0532  -15.2221   21.3067 C   0  0  2  0  0  0  0  0  0  0  0  0
    9.6805  -15.8543   20.1764 N   0  0  0  0  0  0  0  0  0  0  0  0
    8.9539  -16.1793   22.4655 C   0  0  0  0  0  0  0  0  0  0  0  0
    8.9577  -17.4131   22.2420 O   0  0  0  0  0  0  0  0  0  0  0  0
    8.8580  -15.6772   23.7865 N   0  0  0  0  0  0  0  0  0  0  0  0
    9.3656  -16.4354   24.9118 C   0  0  1  0  0  0  0  0  0  0  0  0
    9.2003  -15.5579   26.1414 C   0  0  0  0  0  0  0  0  0  0  0  0
    7.8798  -14.9139   26.1590 C   0  0  0  0  0  0  0  0  0  0  0  0
    6.6585  -15.5630   25.9480 C   0  0  0  0  0  0  0  0  0  0  0  0
    5.6975  -14.6407   26.0457 N   0  0  0  0  0  0  0  0  0  0  0  0
    6.2588  -13.4378   26.3090 C   0  0  0  0  0  0  0  0  0  0  0  0
    5.7222  -12.1764   26.4998 C   0  0  0  0  0  0  0  0  0  0  0  0
    6.5588  -11.1148   26.7565 C   0  0  0  0  0  0  0  0  0  0  0  0
    7.9234  -11.2584   26.8322 C   0  0  0  0  0  0  0  0  0  0  0  0
    8.4708  -12.5103   26.6440 C   0  0  0  0  0  0  0  0  0  0  0  0
    7.6238  -13.5834   26.3844 C   0  0  0  0  0  0  0  0  0  0  0  0
    8.4990  -17.6519   25.0637 C   0  0  0  0  0  0  0  0  0  0  0  0
    7.3671  -17.7654   24.2948 O   0  0  0  0  0  0  0  0  0  0  0  0
    8.7785  -18.5674   25.8722 O   0  0  0  0  0  0  0  0  0  0  0  0
  2  1  1  0
  3  4  2  0
  3  2  1  0
  6  5  1  1
  6  8  1  0
  7  6  1  0
  8  9  1  6
  9  3  1  0
 10 11  2  0
 10  8  1  0
 12 10  1  0
 13 12  1  0
 13 14  1  1
 15 23  1  0
 15 14  1  0
 16 15  2  0
 17 16  1  0
 17 18  1  0
 18 19  1  0
 18 23  2  0
 19 20  2  0
 20 21  1  0
 22 21  2  0
 23 22  1  0
 24 13  1  0
 25 24  1  0
 26 24  2  0
M  END
$$$$
