GVW.pdb
     RDKit          3D

 26 27  0  0  1  0  0  0  0  0999 V2000
    6.6828  -19.2595   19.6103 N   0  0  0  0  0  0  0  0  0  0  0  0
    6.4708  -18.1758   20.5247 C   0  0  0  0  0  0  0  0  0  0  0  0
    7.6208  -17.2190   20.4280 C   0  0  0  0  0  0  0  0  0  0  0  0
    8.6255  -17.5410   19.7766 O   0  0  0  0  0  0  0  0  0  0  0  0
    7.2064  -13.5369   19.5156 C   0  0  0  0  0  0  0  0  0  0  0  0
    8.0213  -13.5719   20.8082 C   0  0  1  0  0  0  0  0  0  0  0  0
    7.2179  -13.1206   21.9848 C   0  0  0  0  0  0  0  0  0  0  0  0
    8.5951  -14.9784   20.9867 C   0  0  2  0  0  0  0  0  0  0  0  0
    7.5468  -15.9596   21.0814 N   0  0  0  0  0  0  0  0  0  0  0  0
    9.4222  -14.9588   22.2454 C   0  0  0  0  0  0  0  0  0  0  0  0
   10.4255  -14.2093   22.3066 O   0  0  0  0  0  0  0  0  0  0  0  0
    9.0588  -15.7826   23.3389 N   0  0  0  0  0  0  0  0  0  0  0  0
    9.8286  -15.7765   24.5661 C   0  0  1  0  0  0  0  0  0  0  0  0
    8.8796  -16.1849   25.6805 C   0  0  0  0  0  0  0  0  0  0  0  0
    7.7010  -15.3086   25.7202 C   0  0  0  0  0  0  0  0  0  0  0  0
    6.3955  -15.6905   25.3926 C   0  0  0  0  0  0  0  0  0  0  0  0
    5.6161  -14.6184   25.5565 N   0  0  0  0  0  0  0  0  0  0  0  0
    6.3725  -13.5764   25.9731 C   0  0  0  0  0  0  0  0  0  0  0  0
    6.0665  -12.2628   26.2831 C   0  0  0  0  0  0  0  0  0  0  0  0
    7.0675  -11.4102   26.6877 C   0  0  0  0  0  0  0  0  0  0  0  0
    8.3759  -11.8156   26.7980 C   0  0  0  0  0  0  0  0  0  0  0  0
    8.6941  -13.1223   26.4920 C   0  0  0  0  0  0  0  0  0  0  0  0
    7.6810  -13.9840   26.0828 C   0  0  0  0  0  0  0  0  0  0  0  0
   10.8985  -16.8213   24.4326 C   0  0  0  0  0  0  0  0  0  0  0  0
   11.8969  -16.8784   25.3735 O   0  0  0  0  0  0  0  0  0  0  0  0
   10.9071  -17.6434   23.4870 O   0  0  0  0  0  0  0  0  0  0  0  0
  2  1  1  0
  3  4  2  0
  3  2  1  0
  6  5  1  6
  6  8  1  0
  7  6  1  0
  8  9  1  1
  9  3  1  0
 10 11  2  0
 10  8  1  0
 12 10  1  0
 13 12  1  0
 13 14  1  1
 15 23  1  0
 15 14  1  0
 16 15  2  0
 17 16  1  0
 17 18  1  0
 18 19  1  0
 18 23  2  0
 19 20  2  0
 20 21  1  0
 22 21  2  0
 23 22  1  0
 24 13  1  0
 25 24  1  0
 26 24  2  0
M  END
$$$$
