GVW.pdb
     RDKit          3D

 26 27  0  0  1  0  0  0  0  0999 V2000
   11.9767  -16.6156   17.8400 N   0  0  0  0  0  0  0  0  0  0  0  0
   10.7675  -16.9316   18.5424 C   0  0  0  0  0  0  0  0  0  0  0  0
   10.5908  -15.9663   19.6757 C   0  0  0  0  0  0  0  0  0  0  0  0
   11.5866  -15.4053   20.1564 O   0  0  0  0  0  0  0  0  0  0  0  0
    7.5810  -13.2781   20.4440 C   0  0  0  0  0  0  0  0  0  0  0  0
    7.6672  -14.4026   21.4754 C   0  0  1  0  0  0  0  0  0  0  0  0
    6.5900  -15.4201   21.2806 C   0  0  0  0  0  0  0  0  0  0  0  0
    9.0708  -15.0080   21.4230 C   0  0  2  0  0  0  0  0  0  0  0  0
    9.2899  -15.7068   20.1843 N   0  0  0  0  0  0  0  0  0  0  0  0
    9.1874  -15.9488   22.5935 C   0  0  0  0  0  0  0  0  0  0  0  0
    9.1430  -17.1855   22.3913 O   0  0  0  0  0  0  0  0  0  0  0  0
    9.3451  -15.4282   23.9014 N   0  0  0  0  0  0  0  0  0  0  0  0
    9.6916  -16.2920   25.0117 C   0  0  1  0  0  0  0  0  0  0  0  0
    9.5049  -15.4733   26.2783 C   0  0  0  0  0  0  0  0  0  0  0  0
    8.1686  -14.8643   26.3232 C   0  0  0  0  0  0  0  0  0  0  0  0
    6.9574  -15.5613   26.2559 C   0  0  0  0  0  0  0  0  0  0  0  0
    5.9760  -14.6585   26.3305 N   0  0  0  0  0  0  0  0  0  0  0  0
    6.5147  -13.4221   26.4417 C   0  0  0  0  0  0  0  0  0  0  0  0
    5.9519  -12.1622   26.5485 C   0  0  0  0  0  0  0  0  0  0  0  0
    6.7693  -11.0602   26.6482 C   0  0  0  0  0  0  0  0  0  0  0  0
    8.1398  -11.1612   26.6459 C   0  0  0  0  0  0  0  0  0  0  0  0
    8.7132  -12.4111   26.5400 C   0  0  0  0  0  0  0  0  0  0  0  0
    7.8857  -13.5252   26.4393 C   0  0  0  0  0  0  0  0  0  0  0  0
    8.7122  -17.4299   25.0206 C   0  0  0  0  0  0  0  0  0  0  0  0
    9.0363  -18.5842   25.6896 O   0  0  0  0  0  0  0  0  0  0  0  0
    7.6069  -17.3569   24.4350 O   0  0  0  0  0  0  0  0  0  0  0  0
  2  1  1  0
  3  4  2  0
  3  2  1  0
  6  5  1  6
  6  8  1  0
  7  6  1  0
  8  9  1  6
  9  3  1  0
 10 11  2  0
 10  8  1  0
 12 10  1  0
 13 12  1  0
 13 14  1  1
 15 23  1  0
 15 14  1  0
 16 15  2  0
 17 16  1  0
 17 18  1  0
 18 19  1  0
 18 23  2  0
 19 20  2  0
 20 21  1  0
 22 21  2  0
 23 22  1  0
 24 13  1  0
 25 24  1  0
 26 24  2  0
M  END
$$$$
