GVW.pdb
     RDKit          3D

 26 27  0  0  1  0  0  0  0  0999 V2000
    6.9990  -19.8225   20.1227 N   0  0  0  0  0  0  0  0  0  0  0  0
    6.5995  -18.6683   20.8733 C   0  0  0  0  0  0  0  0  0  0  0  0
    7.5842  -17.5630   20.6365 C   0  0  0  0  0  0  0  0  0  0  0  0
    8.6891  -17.8299   20.1410 O   0  0  0  0  0  0  0  0  0  0  0  0
    6.5479  -13.5997   21.9206 C   0  0  0  0  0  0  0  0  0  0  0  0
    7.3739  -13.8042   20.6511 C   0  0  1  0  0  0  0  0  0  0  0  0
    8.2679  -12.6388   20.3751 C   0  0  0  0  0  0  0  0  0  0  0  0
    8.1395  -15.1228   20.7728 C   0  0  2  0  0  0  0  0  0  0  0  0
    7.2418  -16.2280   20.9814 N   0  0  0  0  0  0  0  0  0  0  0  0
    9.0840  -14.9763   21.9370 C   0  0  0  0  0  0  0  0  0  0  0  0
   10.0293  -14.1562   21.8585 O   0  0  0  0  0  0  0  0  0  0  0  0
    8.8943  -15.7621   23.1001 N   0  0  0  0  0  0  0  0  0  0  0  0
    9.7938  -15.6517   24.2303 C   0  0  1  0  0  0  0  0  0  0  0  0
    9.0097  -16.0844   25.4580 C   0  0  0  0  0  0  0  0  0  0  0  0
    7.8147  -15.2501   25.6445 C   0  0  0  0  0  0  0  0  0  0  0  0
    6.4955  -15.6642   25.4305 C   0  0  0  0  0  0  0  0  0  0  0  0
    5.7040  -14.6252   25.7092 N   0  0  0  0  0  0  0  0  0  0  0  0
    6.4658  -13.5734   26.0896 C   0  0  0  0  0  0  0  0  0  0  0  0
    6.1521  -12.2822   26.4770 C   0  0  0  0  0  0  0  0  0  0  0  0
    7.1618  -11.4110   26.8147 C   0  0  0  0  0  0  0  0  0  0  0  0
    8.4863  -11.7757   26.7826 C   0  0  0  0  0  0  0  0  0  0  0  0
    8.8123  -13.0596   26.3984 C   0  0  0  0  0  0  0  0  0  0  0  0
    7.7904  -13.9402   26.0569 C   0  0  0  0  0  0  0  0  0  0  0  0
   10.9194  -16.6199   24.0073 C   0  0  0  0  0  0  0  0  0  0  0  0
   12.0081  -16.5817   24.8431 O   0  0  0  0  0  0  0  0  0  0  0  0
   10.8944  -17.4624   23.0802 O   0  0  0  0  0  0  0  0  0  0  0  0
  2  1  1  0
  3  4  2  0
  3  2  1  0
  6  5  1  1
  6  8  1  0
  7  6  1  0
  8  9  1  1
  9  3  1  0
 10 11  2  0
 10  8  1  0
 12 10  1  0
 13 12  1  0
 13 14  1  1
 15 23  1  0
 15 14  1  0
 16 15  2  0
 17 16  1  0
 17 18  1  0
 18 19  1  0
 18 23  2  0
 19 20  2  0
 20 21  1  0
 22 21  2  0
 23 22  1  0
 24 13  1  0
 25 24  1  0
 26 24  2  0
M  END
$$$$
