GVW.pdb
     RDKit          3D

 26 27  0  0  1  0  0  0  0  0999 V2000
   13.6314  -14.3574   18.5824 N   0  0  0  0  0  0  0  0  0  0  0  0
   12.5049  -15.2300   18.7400 C   0  0  0  0  0  0  0  0  0  0  0  0
   11.6575  -14.7387   19.8748 C   0  0  0  0  0  0  0  0  0  0  0  0
   12.2061  -14.2993   20.8963 O   0  0  0  0  0  0  0  0  0  0  0  0
    7.0936  -13.6674   21.5201 C   0  0  0  0  0  0  0  0  0  0  0  0
    7.9792  -14.0277   20.3277 C   0  0  1  0  0  0  0  0  0  0  0  0
    8.0029  -12.9398   19.3034 C   0  0  0  0  0  0  0  0  0  0  0  0
    9.3736  -14.3856   20.8446 C   0  0  2  0  0  0  0  0  0  0  0  0
   10.2415  -14.7822   19.7676 N   0  0  0  0  0  0  0  0  0  0  0  0
    9.2007  -15.5103   21.8317 C   0  0  0  0  0  0  0  0  0  0  0  0
    9.1650  -16.6917   21.4130 O   0  0  0  0  0  0  0  0  0  0  0  0
    9.0813  -15.2216   23.2132 N   0  0  0  0  0  0  0  0  0  0  0  0
    9.3719  -16.2282   24.2138 C   0  0  1  0  0  0  0  0  0  0  0  0
    9.3433  -15.5269   25.5617 C   0  0  0  0  0  0  0  0  0  0  0  0
    8.0020  -15.0064   25.8596 C   0  0  0  0  0  0  0  0  0  0  0  0
    6.8245  -15.7619   25.8760 C   0  0  0  0  0  0  0  0  0  0  0  0
    5.8259  -14.9323   26.1893 N   0  0  0  0  0  0  0  0  0  0  0  0
    6.3214  -13.6863   26.3713 C   0  0  0  0  0  0  0  0  0  0  0  0
    5.7259  -12.4814   26.7016 C   0  0  0  0  0  0  0  0  0  0  0  0
    6.5011  -11.3509   26.8184 C   0  0  0  0  0  0  0  0  0  0  0  0
    7.8605  -11.3701   26.6178 C   0  0  0  0  0  0  0  0  0  0  0  0
    8.4662  -12.5645   26.2882 C   0  0  0  0  0  0  0  0  0  0  0  0
    7.6813  -13.7075   26.1702 C   0  0  0  0  0  0  0  0  0  0  0  0
    8.2644  -17.2408   24.1700 C   0  0  0  0  0  0  0  0  0  0  0  0
    8.4698  -18.4791   24.7263 O   0  0  0  0  0  0  0  0  0  0  0  0
    7.1572  -16.9888   23.6402 O   0  0  0  0  0  0  0  0  0  0  0  0
  2  1  1  0
  3  4  2  0
  3  2  1  0
  6  5  1  1
  6  8  1  0
  7  6  1  0
  8  9  1  6
  9  3  1  0
 10 11  2  0
 10  8  1  0
 12 10  1  0
 13 12  1  0
 13 14  1  1
 15 23  1  0
 15 14  1  0
 16 15  2  0
 17 16  1  0
 17 18  1  0
 18 19  1  0
 18 23  2  0
 19 20  2  0
 20 21  1  0
 22 21  2  0
 23 22  1  0
 24 13  1  0
 25 24  1  0
 26 24  2  0
M  END
$$$$
