GVW.pdb
     RDKit          3D

 26 27  0  0  1  0  0  0  0  0999 V2000
    6.9472  -19.8300   20.1970 N   0  0  0  0  0  0  0  0  0  0  0  0
    6.5199  -18.5942   20.7850 C   0  0  0  0  0  0  0  0  0  0  0  0
    7.5851  -17.5591   20.5819 C   0  0  0  0  0  0  0  0  0  0  0  0
    8.6998  -17.9083   20.1662 O   0  0  0  0  0  0  0  0  0  0  0  0
    6.7360  -13.5208   21.7310 C   0  0  0  0  0  0  0  0  0  0  0  0
    7.5886  -13.7912   20.4917 C   0  0  1  0  0  0  0  0  0  0  0  0
    8.5572  -12.6836   20.2302 C   0  0  0  0  0  0  0  0  0  0  0  0
    8.2720  -15.1498   20.6552 C   0  0  2  0  0  0  0  0  0  0  0  0
    7.3064  -16.1955   20.8673 N   0  0  0  0  0  0  0  0  0  0  0  0
    9.2011  -15.0349   21.8353 C   0  0  0  0  0  0  0  0  0  0  0  0
   10.1734  -14.2456   21.7739 O   0  0  0  0  0  0  0  0  0  0  0  0
    8.9666  -15.8154   22.9939 N   0  0  0  0  0  0  0  0  0  0  0  0
    9.7732  -15.6440   24.1850 C   0  0  1  0  0  0  0  0  0  0  0  0
    8.9512  -16.1698   25.3499 C   0  0  0  0  0  0  0  0  0  0  0  0
    7.7215  -15.3856   25.5272 C   0  0  0  0  0  0  0  0  0  0  0  0
    6.4255  -15.8379   25.2564 C   0  0  0  0  0  0  0  0  0  0  0  0
    5.5884  -14.8383   25.5460 N   0  0  0  0  0  0  0  0  0  0  0  0
    6.2992  -13.7748   25.9875 C   0  0  0  0  0  0  0  0  0  0  0  0
    5.9269  -12.5105   26.4098 C   0  0  0  0  0  0  0  0  0  0  0  0
    6.8933  -11.6170   26.8104 C   0  0  0  0  0  0  0  0  0  0  0  0
    8.2305  -11.9333   26.8081 C   0  0  0  0  0  0  0  0  0  0  0  0
    8.6148  -13.1901   26.3895 C   0  0  0  0  0  0  0  0  0  0  0  0
    7.6367  -14.0932   25.9845 C   0  0  0  0  0  0  0  0  0  0  0  0
   10.9964  -16.5004   24.0285 C   0  0  0  0  0  0  0  0  0  0  0  0
   11.0903  -17.3385   22.9450 O   0  0  0  0  0  0  0  0  0  0  0  0
   11.9348  -16.4727   24.8584 O   0  0  0  0  0  0  0  0  0  0  0  0
  2  1  1  0
  3  4  2  0
  3  2  1  0
  6  5  1  1
  6  8  1  0
  7  6  1  0
  8  9  1  1
  9  3  1  0
 10 11  2  0
 10  8  1  0
 12 10  1  0
 13 12  1  0
 13 14  1  1
 15 23  1  0
 15 14  1  0
 16 15  2  0
 17 16  1  0
 17 18  1  0
 18 19  1  0
 18 23  2  0
 19 20  2  0
 20 21  1  0
 22 21  2  0
 23 22  1  0
 24 13  1  0
 25 24  1  0
 26 24  2  0
M  END
$$$$
