GVW.pdb
     RDKit          3D

 26 27  0  0  1  0  0  0  0  0999 V2000
    7.2226  -19.6263   19.3902 N   0  0  0  0  0  0  0  0  0  0  0  0
    6.7800  -18.7162   20.4056 C   0  0  0  0  0  0  0  0  0  0  0  0
    7.6859  -17.5219   20.4240 C   0  0  0  0  0  0  0  0  0  0  0  0
    8.8158  -17.6090   19.9210 O   0  0  0  0  0  0  0  0  0  0  0  0
    8.0582  -12.6313   21.1953 C   0  0  0  0  0  0  0  0  0  0  0  0
    7.1589  -13.8671   21.1920 C   0  0  1  0  0  0  0  0  0  0  0  0
    6.0717  -13.7613   20.1722 C   0  0  0  0  0  0  0  0  0  0  0  0
    8.0330  -15.1075   21.0001 C   0  0  2  0  0  0  0  0  0  0  0  0
    7.2413  -16.3090   21.0156 N   0  0  0  0  0  0  0  0  0  0  0  0
    9.0364  -15.1158   22.1236 C   0  0  0  0  0  0  0  0  0  0  0  0
    9.9692  -14.2779   22.1170 O   0  0  0  0  0  0  0  0  0  0  0  0
    8.9149  -16.0646   23.1682 N   0  0  0  0  0  0  0  0  0  0  0  0
    9.9127  -16.1541   24.2148 C   0  0  1  0  0  0  0  0  0  0  0  0
    9.8116  -14.8737   25.0269 C   0  0  0  0  0  0  0  0  0  0  0  0
    8.4211  -14.6013   25.4157 C   0  0  0  0  0  0  0  0  0  0  0  0
    7.3706  -15.5243   25.3686 C   0  0  0  0  0  0  0  0  0  0  0  0
    6.2734  -14.8981   25.8018 N   0  0  0  0  0  0  0  0  0  0  0  0
    6.5852  -13.6204   26.1201 C   0  0  0  0  0  0  0  0  0  0  0  0
    5.8312  -12.5662   26.6058 C   0  0  0  0  0  0  0  0  0  0  0  0
    6.4340  -11.3518   26.8392 C   0  0  0  0  0  0  0  0  0  0  0  0
    7.7717  -11.1404   26.6065 C   0  0  0  0  0  0  0  0  0  0  0  0
    8.5343  -12.1828   26.1225 C   0  0  0  0  0  0  0  0  0  0  0  0
    7.9238  -13.4108   25.8868 C   0  0  0  0  0  0  0  0  0  0  0  0
    9.5435  -17.3154   25.0918 C   0  0  0  0  0  0  0  0  0  0  0  0
   10.4101  -17.7052   26.0829 O   0  0  0  0  0  0  0  0  0  0  0  0
    8.4670  -17.9398   24.9457 O   0  0  0  0  0  0  0  0  0  0  0  0
  2  1  1  0
  3  4  2  0
  3  2  1  0
  6  5  1  6
  6  8  1  0
  7  6  1  0
  8  9  1  1
  9  3  1  0
 10 11  2  0
 10  8  1  0
 12 10  1  0
 13 12  1  0
 13 14  1  1
 15 23  1  0
 15 14  1  0
 16 15  2  0
 17 16  1  0
 17 18  1  0
 18 19  1  0
 18 23  2  0
 19 20  2  0
 20 21  1  0
 22 21  2  0
 23 22  1  0
 24 13  1  0
 25 24  1  0
 26 24  2  0
M  END
$$$$
