GVW.pdb
     RDKit          3D

 26 27  0  0  1  0  0  0  0  0999 V2000
    7.7092  -19.8318   19.4573 N   0  0  0  0  0  0  0  0  0  0  0  0
    7.1848  -18.8686   20.3807 C   0  0  0  0  0  0  0  0  0  0  0  0
    8.0663  -17.6561   20.3797 C   0  0  0  0  0  0  0  0  0  0  0  0
    9.2559  -17.7705   20.0491 O   0  0  0  0  0  0  0  0  0  0  0  0
    6.4150  -13.9359   21.7321 C   0  0  0  0  0  0  0  0  0  0  0  0
    7.4111  -13.9552   20.5731 C   0  0  1  0  0  0  0  0  0  0  0  0
    8.1856  -12.6802   20.4838 C   0  0  0  0  0  0  0  0  0  0  0  0
    8.3087  -15.1849   20.7202 C   0  0  2  0  0  0  0  0  0  0  0  0
    7.5311  -16.3951   20.7563 N   0  0  0  0  0  0  0  0  0  0  0  0
    9.0848  -15.0116   21.9995 C   0  0  0  0  0  0  0  0  0  0  0  0
    9.8992  -14.0632   22.0974 O   0  0  0  0  0  0  0  0  0  0  0  0
    8.8865  -15.9170   23.0707 N   0  0  0  0  0  0  0  0  0  0  0  0
    9.7038  -15.8504   24.2650 C   0  0  1  0  0  0  0  0  0  0  0  0
    8.8216  -16.2836   25.4241 C   0  0  0  0  0  0  0  0  0  0  0  0
    7.6684  -15.3859   25.5763 C   0  0  0  0  0  0  0  0  0  0  0  0
    6.3362  -15.7267   25.3185 C   0  0  0  0  0  0  0  0  0  0  0  0
    5.5939  -14.6469   25.5766 N   0  0  0  0  0  0  0  0  0  0  0  0
    6.3992  -13.6394   25.9860 C   0  0  0  0  0  0  0  0  0  0  0  0
    6.1440  -12.3342   26.3691 C   0  0  0  0  0  0  0  0  0  0  0  0
    7.1883  -11.5202   26.7429 C   0  0  0  0  0  0  0  0  0  0  0  0
    8.4913  -11.9566   26.7513 C   0  0  0  0  0  0  0  0  0  0  0  0
    8.7591  -13.2552   26.3717 C   0  0  0  0  0  0  0  0  0  0  0  0
    7.7023  -14.0778   25.9938 C   0  0  0  0  0  0  0  0  0  0  0  0
   10.8177  -16.8443   24.1053 C   0  0  0  0  0  0  0  0  0  0  0  0
   11.8083  -16.8950   25.0547 O   0  0  0  0  0  0  0  0  0  0  0  0
   10.8700  -17.6294   23.1302 O   0  0  0  0  0  0  0  0  0  0  0  0
  2  1  1  0
  3  4  2  0
  3  2  1  0
  6  5  1  1
  6  8  1  0
  7  6  1  0
  8  9  1  1
  9  3  1  0
 10 11  2  0
 10  8  1  0
 12 10  1  0
 13 12  1  0
 13 14  1  1
 15 23  1  0
 15 14  1  0
 16 15  2  0
 17 16  1  0
 17 18  1  0
 18 19  1  0
 18 23  2  0
 19 20  2  0
 20 21  1  0
 22 21  2  0
 23 22  1  0
 24 13  1  0
 25 24  1  0
 26 24  2  0
M  END
$$$$
