GVW.pdb
     RDKit          3D

 26 27  0  0  1  0  0  0  0  0999 V2000
    6.2904  -19.8771   21.0368 N   0  0  0  0  0  0  0  0  0  0  0  0
    6.0125  -18.5802   21.5811 C   0  0  0  0  0  0  0  0  0  0  0  0
    7.1140  -17.6391   21.1960 C   0  0  0  0  0  0  0  0  0  0  0  0
    8.1656  -18.0960   20.7239 O   0  0  0  0  0  0  0  0  0  0  0  0
    6.5885  -13.4141   21.9093 C   0  0  0  0  0  0  0  0  0  0  0  0
    7.3338  -13.9257   20.6769 C   0  0  1  0  0  0  0  0  0  0  0  0
    8.3397  -12.9362   20.1844 C   0  0  0  0  0  0  0  0  0  0  0  0
    7.9523  -15.2846   21.0086 C   0  0  2  0  0  0  0  0  0  0  0  0
    6.9414  -16.2405   21.3760 N   0  0  0  0  0  0  0  0  0  0  0  0
    8.9150  -15.0632   22.1458 C   0  0  0  0  0  0  0  0  0  0  0  0
    9.6112  -14.0205   22.1639 O   0  0  0  0  0  0  0  0  0  0  0  0
    9.0216  -16.0299   23.1756 N   0  0  0  0  0  0  0  0  0  0  0  0
    9.8892  -15.8136   24.3154 C   0  0  1  0  0  0  0  0  0  0  0  0
    9.0848  -16.1753   25.5530 C   0  0  0  0  0  0  0  0  0  0  0  0
    7.8668  -15.3594   25.6503 C   0  0  0  0  0  0  0  0  0  0  0  0
    6.5653  -15.8142   25.4121 C   0  0  0  0  0  0  0  0  0  0  0  0
    5.7427  -14.7798   25.6047 N   0  0  0  0  0  0  0  0  0  0  0  0
    6.4680  -13.6920   25.9538 C   0  0  0  0  0  0  0  0  0  0  0  0
    6.1136  -12.3892   26.2581 C   0  0  0  0  0  0  0  0  0  0  0  0
    7.0918  -11.4782   26.5835 C   0  0  0  0  0  0  0  0  0  0  0  0
    8.4238  -11.8141   26.6191 C   0  0  0  0  0  0  0  0  0  0  0  0
    8.7903  -13.1092   26.3180 C   0  0  0  0  0  0  0  0  0  0  0  0
    7.8002  -14.0300   25.9889 C   0  0  0  0  0  0  0  0  0  0  0  0
   11.0431  -16.7659   24.1912 C   0  0  0  0  0  0  0  0  0  0  0  0
   12.1103  -16.6365   25.0453 O   0  0  0  0  0  0  0  0  0  0  0  0
   11.0609  -17.6761   23.3301 O   0  0  0  0  0  0  0  0  0  0  0  0
  2  1  1  0
  3  4  2  0
  3  2  1  0
  6  5  1  1
  6  8  1  0
  7  6  1  0
  8  9  1  1
  9  3  1  0
 10 11  2  0
 10  8  1  0
 12 10  1  0
 13 12  1  0
 13 14  1  1
 15 23  1  0
 15 14  1  0
 16 15  2  0
 17 16  1  0
 17 18  1  0
 18 19  1  0
 18 23  2  0
 19 20  2  0
 20 21  1  0
 22 21  2  0
 23 22  1  0
 24 13  1  0
 25 24  1  0
 26 24  2  0
M  END
$$$$
