GVW.pdb
     RDKit          3D

 26 27  0  0  1  0  0  0  0  0999 V2000
    6.2466  -19.2845   20.1662 N   0  0  0  0  0  0  0  0  0  0  0  0
    6.2666  -18.2520   21.1606 C   0  0  0  0  0  0  0  0  0  0  0  0
    7.4058  -17.3194   20.8782 C   0  0  0  0  0  0  0  0  0  0  0  0
    8.4252  -17.7565   20.3240 O   0  0  0  0  0  0  0  0  0  0  0  0
    7.2448  -13.6972   19.4338 C   0  0  0  0  0  0  0  0  0  0  0  0
    7.9556  -13.6352   20.7853 C   0  0  1  0  0  0  0  0  0  0  0  0
    7.0980  -13.0090   21.8369 C   0  0  0  0  0  0  0  0  0  0  0  0
    8.4186  -15.0442   21.1595 C   0  0  2  0  0  0  0  0  0  0  0  0
    7.3049  -15.9512   21.2475 N   0  0  0  0  0  0  0  0  0  0  0  0
    9.1247  -14.9367   22.4857 C   0  0  0  0  0  0  0  0  0  0  0  0
    9.7409  -13.8816   22.7670 O   0  0  0  0  0  0  0  0  0  0  0  0
    9.0843  -16.0228   23.3941 N   0  0  0  0  0  0  0  0  0  0  0  0
    9.8181  -15.9791   24.6425 C   0  0  1  0  0  0  0  0  0  0  0  0
    8.8383  -16.3600   25.7399 C   0  0  0  0  0  0  0  0  0  0  0  0
    7.7006  -15.4312   25.7801 C   0  0  0  0  0  0  0  0  0  0  0  0
    6.3832  -15.7474   25.4307 C   0  0  0  0  0  0  0  0  0  0  0  0
    5.6517  -14.6433   25.6030 N   0  0  0  0  0  0  0  0  0  0  0  0
    6.4497  -13.6440   26.0456 C   0  0  0  0  0  0  0  0  0  0  0  0
    6.2002  -12.3228   26.3735 C   0  0  0  0  0  0  0  0  0  0  0  0
    7.2340  -11.5236   26.8040 C   0  0  0  0  0  0  0  0  0  0  0  0
    8.5210  -11.9905   26.9231 C   0  0  0  0  0  0  0  0  0  0  0  0
    8.7829  -13.3054   26.5995 C   0  0  0  0  0  0  0  0  0  0  0  0
    7.7367  -14.1129   26.1642 C   0  0  0  0  0  0  0  0  0  0  0  0
   10.8948  -17.0227   24.5697 C   0  0  0  0  0  0  0  0  0  0  0  0
   11.8941  -17.0177   25.5112 O   0  0  0  0  0  0  0  0  0  0  0  0
   10.9084  -17.8989   23.6740 O   0  0  0  0  0  0  0  0  0  0  0  0
  2  1  1  0
  3  4  2  0
  3  2  1  0
  6  5  1  6
  6  8  1  0
  7  6  1  0
  8  9  1  1
  9  3  1  0
 10 11  2  0
 10  8  1  0
 12 10  1  0
 13 12  1  0
 13 14  1  1
 15 23  1  0
 15 14  1  0
 16 15  2  0
 17 16  1  0
 17 18  1  0
 18 19  1  0
 18 23  2  0
 19 20  2  0
 20 21  1  0
 22 21  2  0
 23 22  1  0
 24 13  1  0
 25 24  1  0
 26 24  2  0
M  END
$$$$
