GVW.pdb
     RDKit          3D

 26 27  0  0  1  0  0  0  0  0999 V2000
    5.1991  -15.6077   19.9368 N   0  0  0  0  0  0  0  0  0  0  0  0
    6.3143  -14.9800   20.5830 C   0  0  0  0  0  0  0  0  0  0  0  0
    7.1481  -16.0296   21.2541 C   0  0  0  0  0  0  0  0  0  0  0  0
    6.6535  -17.1433   21.4830 O   0  0  0  0  0  0  0  0  0  0  0  0
   11.3352  -15.6865   21.1998 C   0  0  0  0  0  0  0  0  0  0  0  0
   10.5841  -16.9955   21.4414 C   0  0  1  0  0  0  0  0  0  0  0  0
   11.4613  -18.0340   22.0621 C   0  0  0  0  0  0  0  0  0  0  0  0
    9.3373  -16.6971   22.2756 C   0  0  2  0  0  0  0  0  0  0  0  0
    8.4897  -15.7373   21.6190 N   0  0  0  0  0  0  0  0  0  0  0  0
    9.8134  -16.1677   23.6030 C   0  0  0  0  0  0  0  0  0  0  0  0
   10.4432  -15.0840   23.6393 O   0  0  0  0  0  0  0  0  0  0  0  0
    9.5456  -16.8962   24.7879 N   0  0  0  0  0  0  0  0  0  0  0  0
   10.0035  -16.4192   26.0768 C   0  0  1  0  0  0  0  0  0  0  0  0
    8.7946  -16.4164   26.9976 C   0  0  0  0  0  0  0  0  0  0  0  0
    7.7374  -15.5366   26.4810 C   0  0  0  0  0  0  0  0  0  0  0  0
    6.5574  -15.9639   25.8625 C   0  0  0  0  0  0  0  0  0  0  0  0
    5.8609  -14.8709   25.5398 N   0  0  0  0  0  0  0  0  0  0  0  0
    6.5496  -13.7725   25.9275 C   0  0  0  0  0  0  0  0  0  0  0  0
    6.2820  -12.4179   25.8317 C   0  0  0  0  0  0  0  0  0  0  0  0
    7.1905  -11.5102   26.3248 C   0  0  0  0  0  0  0  0  0  0  0  0
    8.3683  -11.8992   26.9164 C   0  0  0  0  0  0  0  0  0  0  0  0
    8.6471  -13.2462   27.0181 C   0  0  0  0  0  0  0  0  0  0  0  0
    7.7275  -14.1636   26.5190 C   0  0  0  0  0  0  0  0  0  0  0  0
   11.0055  -17.4102   26.5946 C   0  0  0  0  0  0  0  0  0  0  0  0
   11.7399  -17.0955   27.7112 O   0  0  0  0  0  0  0  0  0  0  0  0
   11.1914  -18.5168   26.0371 O   0  0  0  0  0  0  0  0  0  0  0  0
  2  1  1  0
  3  4  2  0
  3  2  1  0
  6  5  1  1
  6  8  1  0
  7  6  1  0
  8  9  1  6
  9  3  1  0
 10 11  2  0
 10  8  1  0
 12 10  1  0
 13 12  1  0
 13 14  1  1
 15 23  1  0
 15 14  1  0
 16 15  2  0
 17 16  1  0
 17 18  1  0
 18 19  1  0
 18 23  2  0
 19 20  2  0
 20 21  1  0
 22 21  2  0
 23 22  1  0
 24 13  1  0
 25 24  1  0
 26 24  2  0
M  END
$$$$
