GVW.pdb
     RDKit          3D

 26 27  0  0  1  0  0  0  0  0999 V2000
    6.1418  -15.6087   19.4880 N   0  0  0  0  0  0  0  0  0  0  0  0
    7.1060  -14.9908   20.3503 C   0  0  0  0  0  0  0  0  0  0  0  0
    7.6971  -16.0319   21.2527 C   0  0  0  0  0  0  0  0  0  0  0  0
    6.9773  -16.9492   21.6745 O   0  0  0  0  0  0  0  0  0  0  0  0
   11.9141  -16.1648   21.6007 C   0  0  0  0  0  0  0  0  0  0  0  0
   11.0384  -17.3984   21.8181 C   0  0  1  0  0  0  0  0  0  0  0  0
   11.7337  -18.4369   22.6376 C   0  0  0  0  0  0  0  0  0  0  0  0
    9.7091  -16.9529   22.4295 C   0  0  2  0  0  0  0  0  0  0  0  0
    9.0693  -15.9557   21.6129 N   0  0  0  0  0  0  0  0  0  0  0  0
   10.0173  -16.4037   23.7979 C   0  0  0  0  0  0  0  0  0  0  0  0
   10.6452  -15.3228   23.8962 O   0  0  0  0  0  0  0  0  0  0  0  0
    9.5964  -17.1108   24.9508 N   0  0  0  0  0  0  0  0  0  0  0  0
    9.8753  -16.6053   26.2795 C   0  0  1  0  0  0  0  0  0  0  0  0
    8.5571  -16.6097   27.0355 C   0  0  0  0  0  0  0  0  0  0  0  0
    7.5737  -15.7289   26.3906 C   0  0  0  0  0  0  0  0  0  0  0  0
    6.4893  -16.1546   25.6157 C   0  0  0  0  0  0  0  0  0  0  0  0
    5.8364  -15.0613   25.2133 N   0  0  0  0  0  0  0  0  0  0  0  0
    6.4612  -13.9640   25.7001 C   0  0  0  0  0  0  0  0  0  0  0  0
    6.2015  -12.6097   25.5823 C   0  0  0  0  0  0  0  0  0  0  0  0
    7.0311  -11.7034   26.2012 C   0  0  0  0  0  0  0  0  0  0  0  0
    8.1213  -12.0937   26.9411 C   0  0  0  0  0  0  0  0  0  0  0  0
    8.3912  -13.4404   27.0663 C   0  0  0  0  0  0  0  0  0  0  0  0
    7.5515  -14.3564   26.4400 C   0  0  0  0  0  0  0  0  0  0  0  0
   10.8170  -17.5697   26.9406 C   0  0  0  0  0  0  0  0  0  0  0  0
   11.3825  -17.2311   28.1451 O   0  0  0  0  0  0  0  0  0  0  0  0
   11.1023  -18.6756   26.4250 O   0  0  0  0  0  0  0  0  0  0  0  0
  2  1  1  0
  3  4  2  0
  3  2  1  0
  6  5  1  1
  6  8  1  0
  7  6  1  0
  8  9  1  6
  9  3  1  0
 10 11  2  0
 10  8  1  0
 12 10  1  0
 13 12  1  0
 13 14  1  1
 15 23  1  0
 15 14  1  0
 16 15  2  0
 17 16  1  0
 17 18  1  0
 18 19  1  0
 18 23  2  0
 19 20  2  0
 20 21  1  0
 22 21  2  0
 23 22  1  0
 24 13  1  0
 25 24  1  0
 26 24  2  0
M  END
$$$$
