GVW.pdb
     RDKit          3D

 26 27  0  0  1  0  0  0  0  0999 V2000
    7.9027  -20.0394   19.9758 N   0  0  0  0  0  0  0  0  0  0  0  0
    7.3757  -19.1042   20.9260 C   0  0  0  0  0  0  0  0  0  0  0  0
    8.1522  -17.8248   20.8391 C   0  0  0  0  0  0  0  0  0  0  0  0
    9.2844  -17.8348   20.3336 O   0  0  0  0  0  0  0  0  0  0  0  0
    8.0383  -12.8817   21.1465 C   0  0  0  0  0  0  0  0  0  0  0  0
    7.2701  -14.1912   21.3223 C   0  0  1  0  0  0  0  0  0  0  0  0
    6.1514  -14.3163   20.3392 C   0  0  0  0  0  0  0  0  0  0  0  0
    8.2609  -15.3538   21.2438 C   0  0  2  0  0  0  0  0  0  0  0  0
    7.5846  -16.6206   21.3353 N   0  0  0  0  0  0  0  0  0  0  0  0
    9.2296  -15.1831   22.3847 C   0  0  0  0  0  0  0  0  0  0  0  0
   10.1726  -14.3648   22.2694 O   0  0  0  0  0  0  0  0  0  0  0  0
    9.0645  -15.9446   23.5676 N   0  0  0  0  0  0  0  0  0  0  0  0
    9.9541  -15.7703   24.6976 C   0  0  1  0  0  0  0  0  0  0  0  0
    9.1424  -16.0765   25.9453 C   0  0  0  0  0  0  0  0  0  0  0  0
    7.9053  -15.2845   25.9800 C   0  0  0  0  0  0  0  0  0  0  0  0
    6.6136  -15.7904   25.7981 C   0  0  0  0  0  0  0  0  0  0  0  0
    5.7671  -14.7627   25.9035 N   0  0  0  0  0  0  0  0  0  0  0  0
    6.4680  -13.6304   26.1439 C   0  0  0  0  0  0  0  0  0  0  0  0
    6.0838  -12.3140   26.3311 C   0  0  0  0  0  0  0  0  0  0  0  0
    7.0417  -11.3538   26.5614 C   0  0  0  0  0  0  0  0  0  0  0  0
    8.3819  -11.6529   26.6139 C   0  0  0  0  0  0  0  0  0  0  0  0
    8.7780  -12.9610   26.4290 C   0  0  0  0  0  0  0  0  0  0  0  0
    7.8084  -13.9316   26.1960 C   0  0  0  0  0  0  0  0  0  0  0  0
   11.0503  -16.7881   24.5699 C   0  0  0  0  0  0  0  0  0  0  0  0
   12.1205  -16.7277   25.4279 O   0  0  0  0  0  0  0  0  0  0  0  0
   11.0172  -17.6918   23.7025 O   0  0  0  0  0  0  0  0  0  0  0  0
  2  1  1  0
  3  4  2  0
  3  2  1  0
  6  5  1  6
  6  8  1  0
  7  6  1  0
  8  9  1  1
  9  3  1  0
 10 11  2  0
 10  8  1  0
 12 10  1  0
 13 12  1  0
 13 14  1  1
 15 23  1  0
 15 14  1  0
 16 15  2  0
 17 16  1  0
 17 18  1  0
 18 19  1  0
 18 23  2  0
 19 20  2  0
 20 21  1  0
 22 21  2  0
 23 22  1  0
 24 13  1  0
 25 24  1  0
 26 24  2  0
M  END
$$$$
