GVW.pdb
     RDKit          3D

 26 27  0  0  1  0  0  0  0  0999 V2000
   11.9121  -17.7370   17.9376 N   0  0  0  0  0  0  0  0  0  0  0  0
   10.6772  -17.9360   18.6381 C   0  0  0  0  0  0  0  0  0  0  0  0
   10.5327  -16.8778   19.6901 C   0  0  0  0  0  0  0  0  0  0  0  0
   11.5453  -16.4494   20.2634 O   0  0  0  0  0  0  0  0  0  0  0  0
    6.5547  -15.7449   21.1400 C   0  0  0  0  0  0  0  0  0  0  0  0
    7.6858  -14.7348   20.9493 C   0  0  1  0  0  0  0  0  0  0  0  0
    7.5517  -13.5683   21.8737 C   0  0  0  0  0  0  0  0  0  0  0  0
    9.0223  -15.4625   21.1032 C   0  0  2  0  0  0  0  0  0  0  0  0
    9.2428  -16.3804   20.0172 N   0  0  0  0  0  0  0  0  0  0  0  0
    8.9747  -16.1948   22.4187 C   0  0  0  0  0  0  0  0  0  0  0  0
    8.8772  -17.4449   22.4199 O   0  0  0  0  0  0  0  0  0  0  0  0
    9.0403  -15.4667   23.6319 N   0  0  0  0  0  0  0  0  0  0  0  0
    9.7380  -15.9986   24.7847 C   0  0  1  0  0  0  0  0  0  0  0  0
    9.6128  -14.9623   25.8891 C   0  0  0  0  0  0  0  0  0  0  0  0
    8.2135  -14.5562   26.0783 C   0  0  0  0  0  0  0  0  0  0  0  0
    7.1036  -15.4025   25.9807 C   0  0  0  0  0  0  0  0  0  0  0  0
    6.0183  -14.6617   26.2199 N   0  0  0  0  0  0  0  0  0  0  0  0
    6.3945  -13.3850   26.4640 C   0  0  0  0  0  0  0  0  0  0  0  0
    5.6780  -12.2387   26.7610 C   0  0  0  0  0  0  0  0  0  0  0  0
    6.3469  -11.0536   26.9625 C   0  0  0  0  0  0  0  0  0  0  0  0
    7.7154  -10.9608   26.8799 C   0  0  0  0  0  0  0  0  0  0  0  0
    8.4412  -12.0958   26.5847 C   0  0  0  0  0  0  0  0  0  0  0  0
    7.7639  -13.2942   26.3809 C   0  0  0  0  0  0  0  0  0  0  0  0
    9.0218  -17.2482   25.2085 C   0  0  0  0  0  0  0  0  0  0  0  0
    9.6648  -18.1396   26.0313 O   0  0  0  0  0  0  0  0  0  0  0  0
    7.8536  -17.5017   24.8328 O   0  0  0  0  0  0  0  0  0  0  0  0
  2  1  1  0
  3  4  2  0
  3  2  1  0
  6  5  1  1
  6  8  1  0
  7  6  1  0
  8  9  1  6
  9  3  1  0
 10 11  2  0
 10  8  1  0
 12 10  1  0
 13 12  1  0
 13 14  1  1
 15 23  1  0
 15 14  1  0
 16 15  2  0
 17 16  1  0
 17 18  1  0
 18 19  1  0
 18 23  2  0
 19 20  2  0
 20 21  1  0
 22 21  2  0
 23 22  1  0
 24 13  1  0
 25 24  1  0
 26 24  2  0
M  END
$$$$
