SFA.pdb
     RDKit          3D

 23 23  0  0  1  0  0  0  0  0999 V2000
   23.2358   -8.4120  -19.8803 O   0  0  0  0  0  0  0  0  0  0  0  0
   22.1554   -8.4103  -19.0334 C   0  0  0  0  0  0  0  0  0  0  0  0
   22.2793   -9.3824  -17.8850 C   0  0  2  0  0  0  0  0  0  0  0  0
   21.8768  -10.6894  -18.3694 N   0  0  0  0  0  0  0  0  0  0  0  0
   21.3658   -9.0042  -16.7769 C   0  0  0  0  0  0  0  0  0  0  0  0
   20.1911   -9.4772  -16.8391 O   0  0  0  0  0  0  0  0  0  0  0  0
   21.7368   -8.1796  -15.7105 N   0  0  0  0  0  0  0  0  0  0  0  0
   20.7366   -7.7312  -14.7499 C   0  0  1  0  0  0  0  0  0  0  0  0
   21.2925   -7.8338  -13.3403 C   0  0  0  0  0  0  0  0  0  0  0  0
   20.3646   -7.4720  -12.2758 C   0  0  0  0  0  0  0  0  0  0  0  0
   19.3836   -8.3074  -11.7819 C   0  0  0  0  0  0  0  0  0  0  0  0
   18.5400   -7.9448  -10.7658 C   0  0  0  0  0  0  0  0  0  0  0  0
   18.6636   -6.7032  -10.2063 C   0  0  0  0  0  0  0  0  0  0  0  0
   19.6320   -5.8450  -10.6755 C   0  0  0  0  0  0  0  0  0  0  0  0
   20.4686   -6.2268  -11.6954 C   0  0  0  0  0  0  0  0  0  0  0  0
   20.3125   -6.3549  -14.9796 C   0  0  0  0  0  0  0  0  0  0  0  0
   21.1483   -5.4323  -15.1153 O   0  0  0  0  0  0  0  0  0  0  0  0
   17.7077   -4.5430  -16.5428 C   0  0  0  0  0  0  0  0  0  0  0  0
   18.5522   -4.6167  -15.2677 C   0  0  2  0  0  0  0  0  0  0  0  0
   18.9369   -5.9953  -15.0602 N   0  0  0  0  0  0  0  0  0  0  0  0
   17.6806   -4.1570  -14.1538 C   0  0  0  0  0  0  0  0  0  0  0  0
   17.6995   -2.8549  -13.6817 O   0  0  0  0  0  0  0  0  0  0  0  0
   16.8789   -4.9796  -13.6007 O   0  0  0  0  0  0  0  0  0  0  0  0
  2  1  1  0
  3  4  1  6
  3  2  1  0
  5  3  1  0
  6  5  2  0
  7  5  1  0
  8  9  1  1
  8  7  1  0
  9 10  1  0
 10 15  2  0
 11 12  2  0
 11 10  1  0
 12 13  1  0
 13 14  2  0
 15 14  1  0
 16  8  1  0
 17 16  2  0
 19 18  1  6
 19 20  1  0
 20 16  1  0
 21 19  1  0
 21 22  1  0
 23 21  2  0
M  END
$$$$
