SFA.pdb
     RDKit          3D

 23 23  0  0  1  0  0  0  0  0999 V2000
   42.2771   -5.2280  -12.6740 O   0  0  0  0  0  0  0  0  0  0  0  0
   41.1433   -4.4557  -12.6240 C   0  0  0  0  0  0  0  0  0  0  0  0
   39.9976   -5.1017  -11.8832 C   0  0  2  0  0  0  0  0  0  0  0  0
   38.9048   -4.1481  -11.8450 N   0  0  0  0  0  0  0  0  0  0  0  0
   40.3852   -5.4093  -10.4830 C   0  0  0  0  0  0  0  0  0  0  0  0
   40.2407   -4.4674   -9.6467 O   0  0  0  0  0  0  0  0  0  0  0  0
   40.8835   -6.6482  -10.0686 N   0  0  0  0  0  0  0  0  0  0  0  0
   41.2773   -6.8511   -8.6801 C   0  0  1  0  0  0  0  0  0  0  0  0
   40.3945   -7.9097   -8.0427 C   0  0  0  0  0  0  0  0  0  0  0  0
   39.0505   -7.4704   -7.6879 C   0  0  0  0  0  0  0  0  0  0  0  0
   38.7337   -6.7971   -6.5258 C   0  0  0  0  0  0  0  0  0  0  0  0
   37.4633   -6.3793   -6.2309 C   0  0  0  0  0  0  0  0  0  0  0  0
   36.4540   -6.6335   -7.1179 C   0  0  0  0  0  0  0  0  0  0  0  0
   36.7357   -7.3031   -8.2869 C   0  0  0  0  0  0  0  0  0  0  0  0
   38.0162   -7.7141   -8.5649 C   0  0  0  0  0  0  0  0  0  0  0  0
   42.6684   -7.2675   -8.5444 C   0  0  0  0  0  0  0  0  0  0  0  0
   43.0966   -8.2958   -9.1164 O   0  0  0  0  0  0  0  0  0  0  0  0
   45.8132   -5.6909   -7.2915 C   0  0  0  0  0  0  0  0  0  0  0  0
   44.9973   -6.9069   -7.7388 C   0  0  2  0  0  0  0  0  0  0  0  0
   43.6011   -6.5304   -7.7604 N   0  0  0  0  0  0  0  0  0  0  0  0
   45.2240   -7.9680   -6.7217 C   0  0  0  0  0  0  0  0  0  0  0  0
   44.2286   -8.3991   -5.8602 O   0  0  0  0  0  0  0  0  0  0  0  0
   46.3725   -8.5128   -6.6252 O   0  0  0  0  0  0  0  0  0  0  0  0
  2  1  1  0
  3  4  1  1
  3  2  1  0
  5  3  1  0
  6  5  2  0
  7  5  1  0
  8  9  1  6
  8  7  1  0
  9 10  1  0
 10 15  2  0
 11 12  2  0
 11 10  1  0
 12 13  1  0
 13 14  2  0
 15 14  1  0
 16  8  1  0
 17 16  2  0
 19 18  1  1
 19 20  1  0
 20 16  1  0
 21 19  1  0
 21 22  1  0
 23 21  2  0
M  END
$$$$
