SFA.pdb
     RDKit          3D

 23 23  0  0  1  0  0  0  0  0999 V2000
   18.1380   -9.1105  -21.0209 O   0  0  0  0  0  0  0  0  0  0  0  0
   17.9806  -10.4045  -20.5906 C   0  0  0  0  0  0  0  0  0  0  0  0
   19.1022  -10.8939  -19.7067 C   0  0  2  0  0  0  0  0  0  0  0  0
   18.7953  -12.2585  -19.3212 N   0  0  0  0  0  0  0  0  0  0  0  0
   19.1888  -10.0776  -18.4690 C   0  0  0  0  0  0  0  0  0  0  0  0
   18.3622  -10.3683  -17.5526 O   0  0  0  0  0  0  0  0  0  0  0  0
   20.1101   -9.0425  -18.2833 N   0  0  0  0  0  0  0  0  0  0  0  0
   20.1329   -8.2994  -17.0297 C   0  0  1  0  0  0  0  0  0  0  0  0
   21.5420   -8.2856  -16.4636 C   0  0  0  0  0  0  0  0  0  0  0  0
   21.7039   -7.5585  -15.2105 C   0  0  0  0  0  0  0  0  0  0  0  0
   21.4717   -8.0987  -13.9622 C   0  0  0  0  0  0  0  0  0  0  0  0
   21.6530   -7.3949  -12.8015 C   0  0  0  0  0  0  0  0  0  0  0  0
   22.0830   -6.0983  -12.8671 C   0  0  0  0  0  0  0  0  0  0  0  0
   22.3241   -5.5288  -14.0966 C   0  0  0  0  0  0  0  0  0  0  0  0
   22.1364   -6.2509  -15.2495 C   0  0  0  0  0  0  0  0  0  0  0  0
   19.6843   -6.9203  -17.1844 C   0  0  0  0  0  0  0  0  0  0  0  0
   20.1505   -6.1832  -18.0830 O   0  0  0  0  0  0  0  0  0  0  0  0
   16.7488   -4.9524  -16.5659 C   0  0  0  0  0  0  0  0  0  0  0  0
   18.2788   -4.9777  -16.5109 C   0  0  2  0  0  0  0  0  0  0  0  0
   18.7012   -6.3487  -16.3273 N   0  0  0  0  0  0  0  0  0  0  0  0
   18.6751   -4.1597  -15.3338 C   0  0  0  0  0  0  0  0  0  0  0  0
   19.0548   -2.8320  -15.4431 O   0  0  0  0  0  0  0  0  0  0  0  0
   18.6708   -4.6843  -14.1720 O   0  0  0  0  0  0  0  0  0  0  0  0
  2  1  1  0
  3  4  1  1
  3  2  1  0
  5  3  1  0
  6  5  2  0
  7  5  1  0
  8  9  1  6
  8  7  1  0
  9 10  1  0
 10 15  2  0
 11 12  2  0
 11 10  1  0
 12 13  1  0
 13 14  2  0
 15 14  1  0
 16  8  1  0
 17 16  2  0
 19 18  1  1
 19 20  1  0
 20 16  1  0
 21 19  1  0
 21 22  1  0
 23 21  2  0
M  END
$$$$
