SFA.pdb
     RDKit          3D

 23 23  0  0  1  0  0  0  0  0999 V2000
   20.4896  -20.0162  -18.3149 O   0  0  0  0  0  0  0  0  0  0  0  0
   20.8317  -19.0143  -17.4410 C   0  0  0  0  0  0  0  0  0  0  0  0
   22.3210  -18.8340  -17.2728 C   0  0  2  0  0  0  0  0  0  0  0  0
   22.7744  -19.8061  -16.2959 N   0  0  0  0  0  0  0  0  0  0  0  0
   22.6294  -17.4797  -16.7473 C   0  0  0  0  0  0  0  0  0  0  0  0
   22.3883  -17.2929  -15.5166 O   0  0  0  0  0  0  0  0  0  0  0  0
   23.1543  -16.4443  -17.5266 N   0  0  0  0  0  0  0  0  0  0  0  0
   23.3146  -15.1111  -16.9600 C   0  0  1  0  0  0  0  0  0  0  0  0
   24.7908  -14.7786  -16.8324 C   0  0  0  0  0  0  0  0  0  0  0  0
   25.5971  -15.7749  -16.1380 C   0  0  0  0  0  0  0  0  0  0  0  0
   26.2869  -16.7920  -16.7655 C   0  0  0  0  0  0  0  0  0  0  0  0
   27.0533  -17.7010  -16.0857 C   0  0  0  0  0  0  0  0  0  0  0  0
   27.1483  -17.6089  -14.7246 C   0  0  0  0  0  0  0  0  0  0  0  0
   26.4727  -16.6060  -14.0673 C   0  0  0  0  0  0  0  0  0  0  0  0
   25.7092  -15.7038  -14.7666 C   0  0  0  0  0  0  0  0  0  0  0  0
   22.6765  -14.0764  -17.7659 C   0  0  0  0  0  0  0  0  0  0  0  0
   22.7721  -14.0752  -19.0144 O   0  0  0  0  0  0  0  0  0  0  0  0
   20.0369  -11.5274  -17.3627 C   0  0  0  0  0  0  0  0  0  0  0  0
   21.3530  -11.9798  -18.0012 C   0  0  2  0  0  0  0  0  0  0  0  0
   21.9191  -13.0243  -17.1765 N   0  0  0  0  0  0  0  0  0  0  0  0
   22.2504  -10.7939  -18.0102 C   0  0  0  0  0  0  0  0  0  0  0  0
   22.0119   -9.6852  -18.8056 O   0  0  0  0  0  0  0  0  0  0  0  0
   23.2833  -10.7801  -17.2632 O   0  0  0  0  0  0  0  0  0  0  0  0
  2  1  1  0
  3  4  1  1
  3  2  1  0
  5  3  1  0
  6  5  2  0
  7  5  1  0
  8  9  1  6
  8  7  1  0
  9 10  1  0
 10 15  2  0
 11 12  2  0
 11 10  1  0
 12 13  1  0
 13 14  2  0
 15 14  1  0
 16  8  1  0
 17 16  2  0
 19 18  1  1
 19 20  1  0
 20 16  1  0
 21 19  1  0
 21 22  1  0
 23 21  2  0
M  END
$$$$
