SFA.pdb
     RDKit          3D

 23 23  0  0  1  0  0  0  0  0999 V2000
   20.1953  -22.2420   -9.5307 O   0  0  0  0  0  0  0  0  0  0  0  0
   21.1883  -22.9951   -8.9552 C   0  0  0  0  0  0  0  0  0  0  0  0
   22.1494  -22.1940   -8.1105 C   0  0  2  0  0  0  0  0  0  0  0  0
   21.3704  -21.4729   -7.1215 N   0  0  0  0  0  0  0  0  0  0  0  0
   22.8709  -21.1961   -8.9406 C   0  0  0  0  0  0  0  0  0  0  0  0
   22.3561  -20.0385   -8.9906 O   0  0  0  0  0  0  0  0  0  0  0  0
   24.0489  -21.4732   -9.6408 N   0  0  0  0  0  0  0  0  0  0  0  0
   24.6518  -20.4543  -10.4908 C   0  0  1  0  0  0  0  0  0  0  0  0
   26.1655  -20.5368  -10.4008 C   0  0  0  0  0  0  0  0  0  0  0  0
   26.7377  -20.1308   -9.1229 C   0  0  0  0  0  0  0  0  0  0  0  0
   27.5236  -20.9417   -8.3299 C   0  0  0  0  0  0  0  0  0  0  0  0
   28.0639  -20.5232   -7.1431 C   0  0  0  0  0  0  0  0  0  0  0  0
   27.8224  -19.2481   -6.7122 C   0  0  0  0  0  0  0  0  0  0  0  0
   27.0423  -18.4130   -7.4794 C   0  0  0  0  0  0  0  0  0  0  0  0
   26.5093  -18.8509   -8.6668 C   0  0  0  0  0  0  0  0  0  0  0  0
   24.2649  -20.5877  -11.8906 C   0  0  0  0  0  0  0  0  0  0  0  0
   24.2770  -21.7009  -12.4640 O   0  0  0  0  0  0  0  0  0  0  0  0
   22.7415  -18.3465  -14.4900 C   0  0  0  0  0  0  0  0  0  0  0  0
   23.4084  -19.6463  -14.0314 C   0  0  2  0  0  0  0  0  0  0  0  0
   23.8572  -19.4666  -12.6683 N   0  0  0  0  0  0  0  0  0  0  0  0
   24.5746  -19.8645  -14.9281 C   0  0  0  0  0  0  0  0  0  0  0  0
   24.4479  -20.4061  -16.1967 O   0  0  0  0  0  0  0  0  0  0  0  0
   25.7433  -19.5466  -14.5301 O   0  0  0  0  0  0  0  0  0  0  0  0
  2  1  1  0
  3  4  1  1
  3  2  1  0
  5  3  1  0
  6  5  2  0
  7  5  1  0
  8  9  1  6
  8  7  1  0
  9 10  1  0
 10 15  2  0
 11 12  2  0
 11 10  1  0
 12 13  1  0
 13 14  2  0
 15 14  1  0
 16  8  1  0
 17 16  2  0
 19 18  1  6
 19 20  1  0
 20 16  1  0
 21 19  1  0
 21 22  1  0
 23 21  2  0
M  END
$$$$
