SFA.pdb
     RDKit          3D

 23 23  0  0  1  0  0  0  0  0999 V2000
   16.6009  -10.8205  -18.0202 O   0  0  0  0  0  0  0  0  0  0  0  0
   17.4087  -10.2961  -17.0420 C   0  0  0  0  0  0  0  0  0  0  0  0
   18.8405  -10.7688  -17.1153 C   0  0  2  0  0  0  0  0  0  0  0  0
   18.8744  -12.1432  -16.6519 N   0  0  0  0  0  0  0  0  0  0  0  0
   19.7058   -9.9621  -16.2175 C   0  0  0  0  0  0  0  0  0  0  0  0
   19.6189  -10.2233  -14.9799 O   0  0  0  0  0  0  0  0  0  0  0  0
   20.5775   -8.9657  -16.6670 N   0  0  0  0  0  0  0  0  0  0  0  0
   21.4754   -8.3019  -15.7302 C   0  0  1  0  0  0  0  0  0  0  0  0
   22.9171   -8.6292  -16.0772 C   0  0  0  0  0  0  0  0  0  0  0  0
   23.2957  -10.0277  -15.9161 C   0  0  0  0  0  0  0  0  0  0  0  0
   23.5740  -10.6233  -14.7028 C   0  0  0  0  0  0  0  0  0  0  0  0
   23.9071  -11.9462  -14.5825 C   0  0  0  0  0  0  0  0  0  0  0  0
   23.9705  -12.7236  -15.7058 C   0  0  0  0  0  0  0  0  0  0  0  0
   23.6986  -12.1608  -16.9321 C   0  0  0  0  0  0  0  0  0  0  0  0
   23.3663  -10.8321  -17.0324 C   0  0  0  0  0  0  0  0  0  0  0  0
   21.3183   -6.8520  -15.7311 C   0  0  0  0  0  0  0  0  0  0  0  0
   21.0860   -6.2250  -16.7899 O   0  0  0  0  0  0  0  0  0  0  0  0
   20.8981   -4.1791  -13.1516 C   0  0  0  0  0  0  0  0  0  0  0  0
   21.2308   -4.6504  -14.5700 C   0  0  2  0  0  0  0  0  0  0  0  0
   21.4206   -6.0837  -14.5364 N   0  0  0  0  0  0  0  0  0  0  0  0
   22.4994   -3.9765  -14.9549 C   0  0  0  0  0  0  0  0  0  0  0  0
   22.5256   -2.7665  -15.6288 O   0  0  0  0  0  0  0  0  0  0  0  0
   23.6151   -4.5189  -14.6611 O   0  0  0  0  0  0  0  0  0  0  0  0
  2  1  1  0
  3  4  1  1
  3  2  1  0
  5  3  1  0
  6  5  2  0
  7  5  1  0
  8  9  1  6
  8  7  1  0
  9 10  1  0
 10 15  2  0
 11 12  2  0
 11 10  1  0
 12 13  1  0
 13 14  2  0
 15 14  1  0
 16  8  1  0
 17 16  2  0
 19 18  1  1
 19 20  1  0
 20 16  1  0
 21 19  1  0
 21 22  1  0
 23 21  2  0
M  END
$$$$
