SFA.pdb
     RDKit          3D

 23 23  0  0  1  0  0  0  0  0999 V2000
   15.9800   -9.3553  -18.7574 O   0  0  0  0  0  0  0  0  0  0  0  0
   17.0663   -9.2954  -17.9203 C   0  0  0  0  0  0  0  0  0  0  0  0
   18.1581  -10.2787  -18.2668 C   0  0  2  0  0  0  0  0  0  0  0  0
   17.6687  -11.6081  -17.9536 N   0  0  0  0  0  0  0  0  0  0  0  0
   19.3682  -10.0310  -17.4422 C   0  0  0  0  0  0  0  0  0  0  0  0
   19.3602  -10.5341  -16.2785 O   0  0  0  0  0  0  0  0  0  0  0  0
   20.4715   -9.2938  -17.8826 N   0  0  0  0  0  0  0  0  0  0  0  0
   21.6380   -9.1383  -17.0229 C   0  0  1  0  0  0  0  0  0  0  0  0
   22.8837   -9.6088  -17.7530 C   0  0  0  0  0  0  0  0  0  0  0  0
   24.1185   -9.5531  -16.9802 C   0  0  0  0  0  0  0  0  0  0  0  0
   25.1115   -8.6134  -17.1675 C   0  0  0  0  0  0  0  0  0  0  0  0
   26.2520   -8.5753  -16.4102 C   0  0  0  0  0  0  0  0  0  0  0  0
   26.4281   -9.5030  -15.4211 C   0  0  0  0  0  0  0  0  0  0  0  0
   25.4566  -10.4544  -15.2077 C   0  0  0  0  0  0  0  0  0  0  0  0
   24.3197  -10.4764  -15.9776 C   0  0  0  0  0  0  0  0  0  0  0  0
   21.8452   -7.7583  -16.5990 C   0  0  0  0  0  0  0  0  0  0  0  0
   21.8520   -6.8191  -17.4273 O   0  0  0  0  0  0  0  0  0  0  0  0
   22.1377   -5.9663  -13.3048 C   0  0  0  0  0  0  0  0  0  0  0  0
   22.1490   -6.0268  -14.8348 C   0  0  2  0  0  0  0  0  0  0  0  0
   22.0485   -7.4137  -15.2323 N   0  0  0  0  0  0  0  0  0  0  0  0
   23.4541   -5.4638  -15.2725 C   0  0  0  0  0  0  0  0  0  0  0  0
   23.6230   -4.1225  -15.5748 O   0  0  0  0  0  0  0  0  0  0  0  0
   24.4669   -6.2306  -15.3789 O   0  0  0  0  0  0  0  0  0  0  0  0
  2  1  1  0
  3  4  1  1
  3  2  1  0
  5  3  1  0
  6  5  2  0
  7  5  1  0
  8  9  1  6
  8  7  1  0
  9 10  1  0
 10 15  2  0
 11 12  2  0
 11 10  1  0
 12 13  1  0
 13 14  2  0
 15 14  1  0
 16  8  1  0
 17 16  2  0
 19 18  1  1
 19 20  1  0
 20 16  1  0
 21 19  1  0
 21 22  1  0
 23 21  2  0
M  END
$$$$
