SFA.pdb
     RDKit          3D

 23 23  0  0  1  0  0  0  0  0999 V2000
   16.5481  -13.4323  -19.3118 O   0  0  0  0  0  0  0  0  0  0  0  0
   17.4806  -13.0123  -18.3961 C   0  0  0  0  0  0  0  0  0  0  0  0
   18.8484  -13.6190  -18.5967 C   0  0  2  0  0  0  0  0  0  0  0  0
   18.7768  -15.0099  -18.1905 N   0  0  0  0  0  0  0  0  0  0  0  0
   19.8533  -12.9428  -17.7374 C   0  0  0  0  0  0  0  0  0  0  0  0
   19.9048  -13.3314  -16.5316 O   0  0  0  0  0  0  0  0  0  0  0  0
   20.7101  -11.9346  -18.1891 N   0  0  0  0  0  0  0  0  0  0  0  0
   21.6303  -11.2869  -17.2628 C   0  0  1  0  0  0  0  0  0  0  0  0
   23.0631  -11.5328  -17.7022 C   0  0  0  0  0  0  0  0  0  0  0  0
   24.0865  -10.9183  -16.8655 C   0  0  0  0  0  0  0  0  0  0  0  0
   24.5943  -11.4858  -15.7148 C   0  0  0  0  0  0  0  0  0  0  0  0
   25.5715  -10.8919  -14.9611 C   0  0  0  0  0  0  0  0  0  0  0  0
   26.0756   -9.6830  -15.3540 C   0  0  0  0  0  0  0  0  0  0  0  0
   25.5911   -9.0893  -16.4973 C   0  0  0  0  0  0  0  0  0  0  0  0
   24.6109   -9.7006  -17.2399 C   0  0  0  0  0  0  0  0  0  0  0  0
   21.4165   -9.8472  -17.1711 C   0  0  0  0  0  0  0  0  0  0  0  0
   21.4510   -9.1198  -18.1898 O   0  0  0  0  0  0  0  0  0  0  0  0
   19.5699   -7.5381  -15.2066 C   0  0  0  0  0  0  0  0  0  0  0  0
   20.9256   -7.7765  -15.8774 C   0  0  2  0  0  0  0  0  0  0  0  0
   21.1597   -9.2027  -15.9275 N   0  0  0  0  0  0  0  0  0  0  0  0
   21.9463   -7.1216  -15.0165 C   0  0  0  0  0  0  0  0  0  0  0  0
   22.0836   -5.7454  -14.9392 O   0  0  0  0  0  0  0  0  0  0  0  0
   22.7335   -7.8391  -14.3160 O   0  0  0  0  0  0  0  0  0  0  0  0
  2  1  1  0
  3  4  1  1
  3  2  1  0
  5  3  1  0
  6  5  2  0
  7  5  1  0
  8  9  1  6
  8  7  1  0
  9 10  1  0
 10 15  2  0
 11 12  2  0
 11 10  1  0
 12 13  1  0
 13 14  2  0
 15 14  1  0
 16  8  1  0
 17 16  2  0
 19 18  1  1
 19 20  1  0
 20 16  1  0
 21 19  1  0
 21 22  1  0
 23 21  2  0
M  END
$$$$
