SFA.pdb
     RDKit          3D

 23 23  0  0  1  0  0  0  0  0999 V2000
   26.6445  -19.5322  -17.4334 O   0  0  0  0  0  0  0  0  0  0  0  0
   26.0963  -20.3307  -16.4606 C   0  0  0  0  0  0  0  0  0  0  0  0
   27.1140  -20.9396  -15.5265 C   0  0  2  0  0  0  0  0  0  0  0  0
   27.6743  -22.1046  -16.1851 N   0  0  0  0  0  0  0  0  0  0  0  0
   26.4668  -21.3925  -14.2689 C   0  0  0  0  0  0  0  0  0  0  0  0
   26.0577  -22.5925  -14.2553 O   0  0  0  0  0  0  0  0  0  0  0  0
   26.2981  -20.5788  -13.1446 N   0  0  0  0  0  0  0  0  0  0  0  0
   25.6598  -21.1092  -11.9465 C   0  0  1  0  0  0  0  0  0  0  0  0
   26.2820  -20.4839  -10.7103 C   0  0  0  0  0  0  0  0  0  0  0  0
   27.6908  -20.7919  -10.4971 C   0  0  0  0  0  0  0  0  0  0  0  0
   28.2594  -21.0160   -9.2599 C   0  0  0  0  0  0  0  0  0  0  0  0
   29.5835  -21.3239   -9.0944 C   0  0  0  0  0  0  0  0  0  0  0  0
   30.3900  -21.4169  -10.1949 C   0  0  0  0  0  0  0  0  0  0  0  0
   29.8547  -21.1994  -11.4441 C   0  0  0  0  0  0  0  0  0  0  0  0
   28.5242  -20.8916  -11.5897 C   0  0  0  0  0  0  0  0  0  0  0  0
   24.2232  -20.8596  -11.9164 C   0  0  0  0  0  0  0  0  0  0  0  0
   23.5497  -21.0691  -10.8818 O   0  0  0  0  0  0  0  0  0  0  0  0
   21.8769  -18.7506  -13.7577 C   0  0  0  0  0  0  0  0  0  0  0  0
   22.1172  -20.0347  -12.9591 C   0  0  2  0  0  0  0  0  0  0  0  0
   23.5211  -20.3690  -13.0541 N   0  0  0  0  0  0  0  0  0  0  0  0
   21.2956  -21.0946  -13.6019 C   0  0  0  0  0  0  0  0  0  0  0  0
   21.8567  -22.1543  -14.2955 O   0  0  0  0  0  0  0  0  0  0  0  0
   20.0244  -21.0419  -13.5212 O   0  0  0  0  0  0  0  0  0  0  0  0
  2  1  1  0
  3  4  1  6
  3  2  1  0
  5  3  1  0
  6  5  2  0
  7  5  1  0
  8  9  1  1
  8  7  1  0
  9 10  1  0
 10 15  2  0
 11 12  2  0
 11 10  1  0
 12 13  1  0
 13 14  2  0
 15 14  1  0
 16  8  1  0
 17 16  2  0
 19 18  1  6
 19 20  1  0
 20 16  1  0
 21 19  1  0
 21 22  1  0
 23 21  2  0
M  END
$$$$
