SFA.pdb
     RDKit          3D

 23 23  0  0  1  0  0  0  0  0999 V2000
   27.0098  -18.8006  -15.6183 O   0  0  0  0  0  0  0  0  0  0  0  0
   27.9672  -18.7848  -14.6347 C   0  0  0  0  0  0  0  0  0  0  0  0
   28.2926  -20.1500  -14.0785 C   0  0  2  0  0  0  0  0  0  0  0  0
   28.6510  -21.0057  -15.1939 N   0  0  0  0  0  0  0  0  0  0  0  0
   27.1046  -20.7415  -13.4118 C   0  0  0  0  0  0  0  0  0  0  0  0
   26.6185  -21.7770  -13.9586 O   0  0  0  0  0  0  0  0  0  0  0  0
   26.5251  -20.2210  -12.2507 N   0  0  0  0  0  0  0  0  0  0  0  0
   25.4108  -20.9130  -11.6155 C   0  0  1  0  0  0  0  0  0  0  0  0
   25.2369  -20.4133  -10.1921 C   0  0  0  0  0  0  0  0  0  0  0  0
   26.4180  -20.5206   -9.3444 C   0  0  0  0  0  0  0  0  0  0  0  0
   26.5664  -19.8779   -8.1324 C   0  0  0  0  0  0  0  0  0  0  0  0
   27.6812  -20.0157   -7.3489 C   0  0  0  0  0  0  0  0  0  0  0  0
   28.7003  -20.8226   -7.7737 C   0  0  0  0  0  0  0  0  0  0  0  0
   28.5843  -21.4785   -8.9781 C   0  0  0  0  0  0  0  0  0  0  0  0
   27.4584  -21.3276   -9.7498 C   0  0  0  0  0  0  0  0  0  0  0  0
   24.1519  -20.7252  -12.3275 C   0  0  0  0  0  0  0  0  0  0  0  0
   23.8232  -19.6048  -12.7801 O   0  0  0  0  0  0  0  0  0  0  0  0
   21.6066  -22.9120  -13.9223 C   0  0  0  0  0  0  0  0  0  0  0  0
   22.0171  -21.5836  -13.2808 C   0  0  2  0  0  0  0  0  0  0  0  0
   23.2413  -21.7990  -12.5414 N   0  0  0  0  0  0  0  0  0  0  0  0
   20.9199  -21.2037  -12.3516 C   0  0  0  0  0  0  0  0  0  0  0  0
   19.6694  -20.8083  -12.7975 O   0  0  0  0  0  0  0  0  0  0  0  0
   21.1202  -21.2376  -11.0930 O   0  0  0  0  0  0  0  0  0  0  0  0
  2  1  1  0
  3  4  1  6
  3  2  1  0
  5  3  1  0
  6  5  2  0
  7  5  1  0
  8  9  1  1
  8  7  1  0
  9 10  1  0
 10 15  2  0
 11 12  2  0
 11 10  1  0
 12 13  1  0
 13 14  2  0
 15 14  1  0
 16  8  1  0
 17 16  2  0
 19 18  1  1
 19 20  1  0
 20 16  1  0
 21 19  1  0
 21 22  1  0
 23 21  2  0
M  END
$$$$
