SFA.pdb
     RDKit          3D

 23 23  0  0  1  0  0  0  0  0999 V2000
   20.0328   -8.5145  -14.4745 O   0  0  0  0  0  0  0  0  0  0  0  0
   18.8262   -8.1391  -13.9381 C   0  0  0  0  0  0  0  0  0  0  0  0
   18.1133   -9.2493  -13.2045 C   0  0  2  0  0  0  0  0  0  0  0  0
   17.5917  -10.1691  -14.1978 N   0  0  0  0  0  0  0  0  0  0  0  0
   16.9650   -8.7133  -12.4301 C   0  0  0  0  0  0  0  0  0  0  0  0
   15.8668   -8.6206  -13.0569 O   0  0  0  0  0  0  0  0  0  0  0  0
   17.0455   -8.3228  -11.0900 N   0  0  0  0  0  0  0  0  0  0  0  0
   15.8753   -7.7747  -10.4160 C   0  0  1  0  0  0  0  0  0  0  0  0
   15.8009   -8.3077   -8.9959 C   0  0  0  0  0  0  0  0  0  0  0  0
   14.6344   -7.8845   -8.2309 C   0  0  0  0  0  0  0  0  0  0  0  0
   14.6492   -6.8861   -7.2785 C   0  0  0  0  0  0  0  0  0  0  0  0
   13.5305   -6.4972   -6.5909 C   0  0  0  0  0  0  0  0  0  0  0  0
   12.3390   -7.1169   -6.8490 C   0  0  0  0  0  0  0  0  0  0  0  0
   12.2893   -8.1170   -7.7933 C   0  0  0  0  0  0  0  0  0  0  0  0
   13.4221   -8.4929   -8.4725 C   0  0  0  0  0  0  0  0  0  0  0  0
   15.8878   -6.3174  -10.3618 C   0  0  0  0  0  0  0  0  0  0  0  0
   16.8883   -5.6921   -9.9422 O   0  0  0  0  0  0  0  0  0  0  0  0
   15.3206   -3.7080   -9.3104 C   0  0  0  0  0  0  0  0  0  0  0  0
   14.8140   -4.0961  -10.7023 C   0  0  2  0  0  0  0  0  0  0  0  0
   14.7708   -5.5396  -10.7805 N   0  0  0  0  0  0  0  0  0  0  0  0
   15.8012   -3.5616  -11.6778 C   0  0  0  0  0  0  0  0  0  0  0  0
   16.0214   -2.2045  -11.8471 O   0  0  0  0  0  0  0  0  0  0  0  0
   16.4797   -4.3691  -12.3940 O   0  0  0  0  0  0  0  0  0  0  0  0
  2  1  1  0
  3  4  1  6
  3  2  1  0
  5  3  1  0
  6  5  2  0
  7  5  1  0
  8  9  1  1
  8  7  1  0
  9 10  1  0
 10 15  2  0
 11 12  2  0
 11 10  1  0
 12 13  1  0
 13 14  2  0
 15 14  1  0
 16  8  1  0
 17 16  2  0
 19 18  1  1
 19 20  1  0
 20 16  1  0
 21 19  1  0
 21 22  1  0
 23 21  2  0
M  END
$$$$
