SFA.pdb
     RDKit          3D

 23 23  0  0  1  0  0  0  0  0999 V2000
   14.3934  -12.4526    6.9745 O   0  0  0  0  0  0  0  0  0  0  0  0
   13.3699  -12.9929    6.2363 C   0  0  0  0  0  0  0  0  0  0  0  0
   13.7893  -13.4611    4.8637 C   0  0  2  0  0  0  0  0  0  0  0  0
   12.6266  -14.0480    4.2246 N   0  0  0  0  0  0  0  0  0  0  0  0
   14.8346  -14.5113    4.9645 C   0  0  0  0  0  0  0  0  0  0  0  0
   14.4189  -15.7089    4.9844 O   0  0  0  0  0  0  0  0  0  0  0  0
   16.2044  -14.2406    5.0354 N   0  0  0  0  0  0  0  0  0  0  0  0
   17.1634  -15.3351    5.1152 C   0  0  1  0  0  0  0  0  0  0  0  0
   18.4785  -14.9163    4.4816 C   0  0  0  0  0  0  0  0  0  0  0  0
   19.1516  -13.7944    5.1245 C   0  0  0  0  0  0  0  0  0  0  0  0
   18.8628  -12.4681    4.8761 C   0  0  0  0  0  0  0  0  0  0  0  0
   19.4997  -11.4362    5.5126 C   0  0  0  0  0  0  0  0  0  0  0  0
   20.4667  -11.7176    6.4378 C   0  0  0  0  0  0  0  0  0  0  0  0
   20.7791  -13.0302    6.7095 C   0  0  0  0  0  0  0  0  0  0  0  0
   20.1292  -14.0513    6.0607 C   0  0  0  0  0  0  0  0  0  0  0  0
   17.4254  -15.7553    6.4870 C   0  0  0  0  0  0  0  0  0  0  0  0
   17.1555  -15.0102    7.4566 O   0  0  0  0  0  0  0  0  0  0  0  0
   18.4043  -16.1551    9.0016 C   0  0  0  0  0  0  0  0  0  0  0  0
   18.2119  -17.4215    8.1627 C   0  0  2  0  0  0  0  0  0  0  0  0
   17.9968  -17.0243    6.7888 N   0  0  0  0  0  0  0  0  0  0  0  0
   17.0004  -18.1020    8.6927 C   0  0  0  0  0  0  0  0  0  0  0  0
   16.9232  -18.5823    9.9898 O   0  0  0  0  0  0  0  0  0  0  0  0
   15.9846  -18.2578    7.9383 O   0  0  0  0  0  0  0  0  0  0  0  0
  2  1  1  0
  3  4  1  1
  3  2  1  0
  5  3  1  0
  6  5  2  0
  7  5  1  0
  8  9  1  1
  8  7  1  0
  9 10  1  0
 10 15  2  0
 11 12  2  0
 11 10  1  0
 12 13  1  0
 13 14  2  0
 15 14  1  0
 16  8  1  0
 17 16  2  0
 19 18  1  1
 19 20  1  0
 20 16  1  0
 21 19  1  0
 21 22  1  0
 23 21  2  0
M  END
$$$$
