SFA.pdb
     RDKit          3D

 23 23  0  0  1  0  0  0  0  0999 V2000
   20.8081  -34.2839  -14.7256 O   0  0  0  0  0  0  0  0  0  0  0  0
   20.6472  -33.8981  -13.4180 C   0  0  0  0  0  0  0  0  0  0  0  0
   21.9370  -33.8429  -12.6354 C   0  0  2  0  0  0  0  0  0  0  0  0
   22.1462  -35.1488  -12.0392 N   0  0  0  0  0  0  0  0  0  0  0  0
   21.8415  -32.8485  -11.5365 C   0  0  0  0  0  0  0  0  0  0  0  0
   21.2666  -33.2438  -10.4778 O   0  0  0  0  0  0  0  0  0  0  0  0
   22.3414  -31.5456  -11.6214 N   0  0  0  0  0  0  0  0  0  0  0  0
   22.1728  -30.6231  -10.5057 C   0  0  1  0  0  0  0  0  0  0  0  0
   23.5318  -30.1885   -9.9856 C   0  0  0  0  0  0  0  0  0  0  0  0
   24.3589  -31.2547   -9.4341 C   0  0  0  0  0  0  0  0  0  0  0  0
   24.3370  -31.6516   -8.1127 C   0  0  0  0  0  0  0  0  0  0  0  0
   25.1124  -32.6718   -7.6294 C   0  0  0  0  0  0  0  0  0  0  0  0
   25.9501  -33.3356   -8.4825 C   0  0  0  0  0  0  0  0  0  0  0  0
   25.9963  -32.9649   -9.8072 C   0  0  0  0  0  0  0  0  0  0  0  0
   25.2110  -31.9391  -10.2730 C   0  0  0  0  0  0  0  0  0  0  0  0
   21.4155  -29.4311  -10.8701 C   0  0  0  0  0  0  0  0  0  0  0  0
   21.2118  -29.1332  -12.0692 O   0  0  0  0  0  0  0  0  0  0  0  0
   20.7668  -26.8479  -11.5889 C   0  0  0  0  0  0  0  0  0  0  0  0
   20.1529  -27.3657  -10.2852 C   0  0  2  0  0  0  0  0  0  0  0  0
   20.8746  -28.5540   -9.8873 N   0  0  0  0  0  0  0  0  0  0  0  0
   18.7372  -27.7058  -10.5882 C   0  0  0  0  0  0  0  0  0  0  0  0
   17.8185  -26.7605  -11.0141 O   0  0  0  0  0  0  0  0  0  0  0  0
   18.3364  -28.9089  -10.4566 O   0  0  0  0  0  0  0  0  0  0  0  0
  2  1  1  0
  3  4  1  1
  3  2  1  0
  5  3  1  0
  6  5  2  0
  7  5  1  0
  8  9  1  6
  8  7  1  0
  9 10  1  0
 10 15  2  0
 11 12  2  0
 11 10  1  0
 12 13  1  0
 13 14  2  0
 15 14  1  0
 16  8  1  0
 17 16  2  0
 19 18  1  6
 19 20  1  0
 20 16  1  0
 21 19  1  0
 21 22  1  0
 23 21  2  0
M  END
$$$$
