SFA.pdb
     RDKit          3D

 23 23  0  0  1  0  0  0  0  0999 V2000
   25.5947  -25.2300  -18.6745 O   0  0  0  0  0  0  0  0  0  0  0  0
   26.9510  -25.0917  -18.5141 C   0  0  0  0  0  0  0  0  0  0  0  0
   27.4175  -25.2669  -17.0890 C   0  0  2  0  0  0  0  0  0  0  0  0
   27.1778  -26.6478  -16.7142 N   0  0  0  0  0  0  0  0  0  0  0  0
   26.6346  -24.4014  -16.1707 C   0  0  0  0  0  0  0  0  0  0  0  0
   26.1475  -24.9726  -15.1489 O   0  0  0  0  0  0  0  0  0  0  0  0
   26.4226  -23.0356  -16.3814 N   0  0  0  0  0  0  0  0  0  0  0  0
   25.6942  -22.2474  -15.3953 C   0  0  1  0  0  0  0  0  0  0  0  0
   26.4663  -20.9793  -15.0759 C   0  0  0  0  0  0  0  0  0  0  0  0
   27.3656  -20.5153  -16.1251 C   0  0  0  0  0  0  0  0  0  0  0  0
   28.6429  -20.9979  -16.3243 C   0  0  0  0  0  0  0  0  0  0  0  0
   29.4565  -20.5553  -17.3331 C   0  0  0  0  0  0  0  0  0  0  0  0
   28.9961  -19.5929  -18.1886 C   0  0  0  0  0  0  0  0  0  0  0  0
   27.7263  -19.0899  -18.0180 C   0  0  0  0  0  0  0  0  0  0  0  0
   26.9254  -19.5465  -17.0003 C   0  0  0  0  0  0  0  0  0  0  0  0
   24.3593  -21.8732  -15.8482 C   0  0  0  0  0  0  0  0  0  0  0  0
   23.5781  -21.2341  -15.1070 O   0  0  0  0  0  0  0  0  0  0  0  0
   21.9852  -23.1078  -18.3375 C   0  0  0  0  0  0  0  0  0  0  0  0
   22.5161  -21.9254  -17.5222 C   0  0  2  0  0  0  0  0  0  0  0  0
   23.8824  -22.2140  -17.1460 N   0  0  0  0  0  0  0  0  0  0  0  0
   21.6621  -21.8289  -16.3084 C   0  0  0  0  0  0  0  0  0  0  0  0
   21.4226  -22.9114  -15.4780 O   0  0  0  0  0  0  0  0  0  0  0  0
   21.1218  -20.7147  -16.0055 O   0  0  0  0  0  0  0  0  0  0  0  0
  2  1  1  0
  3  4  1  1
  3  2  1  0
  5  3  1  0
  6  5  2  0
  7  5  1  0
  8  9  1  6
  8  7  1  0
  9 10  1  0
 10 15  2  0
 11 12  2  0
 11 10  1  0
 12 13  1  0
 13 14  2  0
 15 14  1  0
 16  8  1  0
 17 16  2  0
 19 18  1  6
 19 20  1  0
 20 16  1  0
 21 19  1  0
 21 22  1  0
 23 21  2  0
M  END
$$$$
