DSK.pdb
     RDKit          3D

 24 23  0  0  1  0  0  0  0  0999 V2000
   20.2379   -6.6982  -15.1985 N   0  0  0  0  0  0  0  0  0  0  0  0
   20.0792   -6.7063  -13.7362 C   0  0  1  0  0  0  0  0  0  0  0  0
   20.6424   -5.4138  -13.2599 C   0  0  0  0  0  0  0  0  0  0  0  0
   22.0756   -5.2239  -13.3798 C   0  0  0  0  0  0  0  0  0  0  0  0
   22.8578   -6.0977  -13.7955 O   0  0  0  0  0  0  0  0  0  0  0  0
   18.6550   -6.9331  -13.3863 C   0  0  0  0  0  0  0  0  0  0  0  0
   17.6898   -6.3293  -13.9058 O   0  0  0  0  0  0  0  0  0  0  0  0
   22.6364   -4.0060  -13.0168 O   0  0  0  0  0  0  0  0  0  0  0  0
   17.6638  -10.2824  -11.4527 O   0  0  0  0  0  0  0  0  0  0  0  0
   16.6194   -9.6101  -12.1082 C   0  0  0  0  0  0  0  0  0  0  0  0
   16.9234   -8.1255  -11.9750 C   0  0  2  0  0  0  0  0  0  0  0  0
   18.2653   -7.8989  -12.3873 N   0  0  0  0  0  0  0  0  0  0  0  0
   16.6253   -7.7103  -10.6019 C   0  0  0  0  0  0  0  0  0  0  0  0
   17.4092   -8.0480   -9.6787 O   0  0  0  0  0  0  0  0  0  0  0  0
   15.4938   -6.9398  -10.2341 N   0  0  0  0  0  0  0  0  0  0  0  0
   15.1644   -6.6853   -8.8092 C   0  0  1  0  0  0  0  0  0  0  0  0
   14.2099   -5.5233   -8.7459 C   0  0  0  0  0  0  0  0  0  0  0  0
   13.7536   -5.1909   -7.3714 C   0  0  0  0  0  0  0  0  0  0  0  0
   12.8746   -3.9488   -7.4523 C   0  0  0  0  0  0  0  0  0  0  0  0
   12.4722   -3.4800   -6.0711 C   0  0  0  0  0  0  0  0  0  0  0  0
   13.6849   -3.0042   -5.4135 N   0  0  0  0  0  0  0  0  0  0  0  0
   14.5350   -7.9128   -8.3178 C   0  0  0  0  0  0  0  0  0  0  0  0
   14.0482   -8.7405   -9.1154 O   0  0  0  0  0  0  0  0  0  0  0  0
   14.4697   -8.1789   -6.9707 O   0  0  0  0  0  0  0  0  0  0  0  0
  2  1  1  6
  2  3  1  0
  3  4  1  0
  4  5  2  0
  4  8  1  0
  6  2  1  0
  7  6  2  0
  9 10  1  0
 11 10  1  1
 11 13  1  0
 11 12  1  0
 12  6  1  0
 13 14  2  0
 15 16  1  0
 15 13  1  0
 17 18  1  0
 16 17  1  6
 19 20  1  0
 19 18  1  0
 20 21  1  0
 22 24  1  0
 22 16  1  0
 23 22  2  0
M  END
$$$$
