DSK.pdb
     RDKit          3D

 24 23  0  0  1  0  0  0  0  0999 V2000
   21.8442  -19.7527  -14.6423 N   0  0  0  0  0  0  0  0  0  0  0  0
   21.2176  -21.0494  -14.3430 C   0  0  1  0  0  0  0  0  0  0  0  0
   22.2361  -22.0800  -14.6823 C   0  0  0  0  0  0  0  0  0  0  0  0
   22.4642  -22.3578  -16.0877 C   0  0  0  0  0  0  0  0  0  0  0  0
   21.8533  -21.7939  -17.0134 O   0  0  0  0  0  0  0  0  0  0  0  0
   20.7542  -21.0705  -12.9334 C   0  0  0  0  0  0  0  0  0  0  0  0
   21.4650  -20.7764  -11.9462 O   0  0  0  0  0  0  0  0  0  0  0  0
   23.4139  -23.3038  -16.4521 O   0  0  0  0  0  0  0  0  0  0  0  0
   16.9255  -20.8081  -12.3499 O   0  0  0  0  0  0  0  0  0  0  0  0
   17.6841  -20.5277  -11.2017 C   0  0  0  0  0  0  0  0  0  0  0  0
   18.8930  -21.4494  -11.2588 C   0  0  2  0  0  0  0  0  0  0  0  0
   19.4045  -21.4445  -12.5855 N   0  0  0  0  0  0  0  0  0  0  0  0
   18.4970  -22.7686  -10.7591 C   0  0  0  0  0  0  0  0  0  0  0  0
   18.1295  -23.6468  -11.5803 O   0  0  0  0  0  0  0  0  0  0  0  0
   18.4993  -23.1312   -9.3888 N   0  0  0  0  0  0  0  0  0  0  0  0
   17.9656  -24.4407   -8.9369 C   0  0  1  0  0  0  0  0  0  0  0  0
   18.2782  -24.5977   -7.4730 C   0  0  0  0  0  0  0  0  0  0  0  0
   17.7135  -25.8297   -6.8638 C   0  0  0  0  0  0  0  0  0  0  0  0
   18.0444  -25.8164   -5.3765 C   0  0  0  0  0  0  0  0  0  0  0  0
   17.2687  -26.8865   -4.6400 C   0  0  0  0  0  0  0  0  0  0  0  0
   17.6522  -26.7986   -3.2348 N   0  0  0  0  0  0  0  0  0  0  0  0
   16.5202  -24.3847   -9.1649 C   0  0  0  0  0  0  0  0  0  0  0  0
   15.9062  -23.3006   -9.0877 O   0  0  0  0  0  0  0  0  0  0  0  0
   15.8120  -25.5227   -9.4704 O   0  0  0  0  0  0  0  0  0  0  0  0
  2  1  1  1
  2  3  1  0
  3  4  1  0
  4  5  2  0
  4  8  1  0
  6  2  1  0
  7  6  2  0
  9 10  1  0
 11 10  1  6
 11 13  1  0
 11 12  1  0
 12  6  1  0
 13 14  2  0
 15 16  1  0
 15 13  1  0
 17 18  1  0
 16 17  1  1
 19 20  1  0
 19 18  1  0
 20 21  1  0
 22 24  1  0
 22 16  1  0
 23 22  2  0
M  END
$$$$
