DSK.pdb
     RDKit          3D

 24 23  0  0  1  0  0  0  0  0999 V2000
   22.3093  -14.6267  -17.8795 N   0  0  0  0  0  0  0  0  0  0  0  0
   21.0930  -13.9041  -17.4771 C   0  0  1  0  0  0  0  0  0  0  0  0
   20.2161  -14.9160  -16.8276 C   0  0  0  0  0  0  0  0  0  0  0  0
   19.7097  -15.9932  -17.6567 C   0  0  0  0  0  0  0  0  0  0  0  0
   19.9141  -16.0799  -18.8810 O   0  0  0  0  0  0  0  0  0  0  0  0
   21.4552  -12.7492  -16.6185 C   0  0  0  0  0  0  0  0  0  0  0  0
   20.6652  -12.1610  -15.8465 O   0  0  0  0  0  0  0  0  0  0  0  0
   18.9489  -17.0012  -17.0782 O   0  0  0  0  0  0  0  0  0  0  0  0
   25.2444  -11.4962  -14.9292 O   0  0  0  0  0  0  0  0  0  0  0  0
   24.6727  -10.8447  -16.0342 C   0  0  0  0  0  0  0  0  0  0  0  0
   23.1684  -11.0281  -15.9009 C   0  0  2  0  0  0  0  0  0  0  0  0
   22.7901  -12.2007  -16.6107 N   0  0  0  0  0  0  0  0  0  0  0  0
   22.5078   -9.7997  -16.3495 C   0  0  0  0  0  0  0  0  0  0  0  0
   22.5357   -9.5033  -17.5710 O   0  0  0  0  0  0  0  0  0  0  0  0
   21.8264   -8.9049  -15.4868 N   0  0  0  0  0  0  0  0  0  0  0  0
   21.1020   -7.7231  -16.0179 C   0  0  1  0  0  0  0  0  0  0  0  0
   19.6341   -8.0521  -16.0666 C   0  0  0  0  0  0  0  0  0  0  0  0
   18.7770   -6.9240  -16.5145 C   0  0  0  0  0  0  0  0  0  0  0  0
   17.3212   -7.3512  -16.3737 C   0  0  0  0  0  0  0  0  0  0  0  0
   16.3881   -6.2546  -16.8388 C   0  0  0  0  0  0  0  0  0  0  0  0
   15.0498   -6.8330  -16.9008 N   0  0  0  0  0  0  0  0  0  0  0  0
   21.3677   -6.6335  -15.0762 C   0  0  0  0  0  0  0  0  0  0  0  0
   21.0894   -5.4538  -15.3745 O   0  0  0  0  0  0  0  0  0  0  0  0
   21.9260   -6.8879  -13.8460 O   0  0  0  0  0  0  0  0  0  0  0  0
  2  1  1  1
  2  3  1  0
  3  4  1  0
  4  5  2  0
  4  8  1  0
  6  2  1  0
  7  6  2  0
  9 10  1  0
 11 10  1  6
 11 13  1  0
 11 12  1  0
 12  6  1  0
 13 14  2  0
 15 16  1  0
 15 13  1  0
 17 18  1  0
 16 17  1  1
 19 20  1  0
 19 18  1  0
 20 21  1  0
 22 24  1  0
 22 16  1  0
 23 22  2  0
M  END
$$$$
