DSK.pdb
     RDKit          3D

 24 23  0  0  1  0  0  0  0  0999 V2000
   17.7010  -11.9255  -14.1050 N   0  0  0  0  0  0  0  0  0  0  0  0
   17.4183  -10.9504  -15.1694 C   0  0  1  0  0  0  0  0  0  0  0  0
   15.9674  -11.0877  -15.4704 C   0  0  0  0  0  0  0  0  0  0  0  0
   15.5024  -12.3758  -15.9490 C   0  0  0  0  0  0  0  0  0  0  0  0
   16.0900  -13.0454  -16.8176 O   0  0  0  0  0  0  0  0  0  0  0  0
   17.8399   -9.5956  -14.7349 C   0  0  0  0  0  0  0  0  0  0  0  0
   17.3149   -8.9532  -13.7979 O   0  0  0  0  0  0  0  0  0  0  0  0
   14.3359  -12.9189  -15.4256 O   0  0  0  0  0  0  0  0  0  0  0  0
   21.4367   -8.4819  -15.7772 O   0  0  0  0  0  0  0  0  0  0  0  0
   20.9069   -7.7477  -14.7037 C   0  0  0  0  0  0  0  0  0  0  0  0
   19.4142   -7.6263  -14.9709 C   0  0  2  0  0  0  0  0  0  0  0  0
   18.9228   -8.8954  -15.3829 N   0  0  0  0  0  0  0  0  0  0  0  0
   19.2000   -6.5434  -15.9343 C   0  0  0  0  0  0  0  0  0  0  0  0
   19.3298   -6.7842  -17.1615 O   0  0  0  0  0  0  0  0  0  0  0  0
   18.8498   -5.2182  -15.5734 N   0  0  0  0  0  0  0  0  0  0  0  0
   18.5534   -4.1913  -16.6035 C   0  0  1  0  0  0  0  0  0  0  0  0
   17.4934   -3.2708  -16.0607 C   0  0  0  0  0  0  0  0  0  0  0  0
   16.1523   -3.4693  -16.6688 C   0  0  0  0  0  0  0  0  0  0  0  0
   15.1959   -2.4605  -16.0446 C   0  0  0  0  0  0  0  0  0  0  0  0
   13.8018   -2.6135  -16.6125 C   0  0  0  0  0  0  0  0  0  0  0  0
   12.9913   -1.5413  -16.0443 N   0  0  0  0  0  0  0  0  0  0  0  0
   19.8103   -3.4744  -16.8283 C   0  0  0  0  0  0  0  0  0  0  0  0
   20.8102   -3.7068  -16.1181 O   0  0  0  0  0  0  0  0  0  0  0  0
   19.9148   -2.5342  -17.8258 O   0  0  0  0  0  0  0  0  0  0  0  0
  2  1  1  1
  2  3  1  0
  3  4  1  0
  4  5  2  0
  4  8  1  0
  6  2  1  0
  7  6  2  0
  9 10  1  0
 11 10  1  6
 11 13  1  0
 11 12  1  0
 12  6  1  0
 13 14  2  0
 15 16  1  0
 15 13  1  0
 17 18  1  0
 16 17  1  1
 19 20  1  0
 19 18  1  0
 20 21  1  0
 22 24  1  0
 22 16  1  0
 23 22  2  0
M  END
$$$$
