DSK.pdb
     RDKit          3D

 24 23  0  0  1  0  0  0  0  0999 V2000
   18.9084  -12.7635  -15.4852 N   0  0  0  0  0  0  0  0  0  0  0  0
   17.5074  -12.3590  -15.6777 C   0  0  1  0  0  0  0  0  0  0  0  0
   16.7069  -13.6097  -15.5797 C   0  0  0  0  0  0  0  0  0  0  0  0
   16.8147  -14.5602  -16.6703 C   0  0  0  0  0  0  0  0  0  0  0  0
   17.4879  -14.3621  -17.6978 O   0  0  0  0  0  0  0  0  0  0  0  0
   17.1474  -11.3089  -14.6929 C   0  0  0  0  0  0  0  0  0  0  0  0
   16.4066  -11.4882  -13.7004 O   0  0  0  0  0  0  0  0  0  0  0  0
   16.1382  -15.7708  -16.5912 O   0  0  0  0  0  0  0  0  0  0  0  0
   19.4827   -8.0367  -13.6584 O   0  0  0  0  0  0  0  0  0  0  0  0
   18.2281   -7.7213  -14.2051 C   0  0  0  0  0  0  0  0  0  0  0  0
   17.3260   -8.9090  -13.9051 C   0  0  2  0  0  0  0  0  0  0  0  0
   17.6416   -9.9582  -14.8115 N   0  0  0  0  0  0  0  0  0  0  0  0
   15.9326   -8.4585  -13.9497 C   0  0  0  0  0  0  0  0  0  0  0  0
   15.3787   -8.2983  -15.0670 O   0  0  0  0  0  0  0  0  0  0  0  0
   15.1500   -8.1855  -12.7998 N   0  0  0  0  0  0  0  0  0  0  0  0
   13.7032   -7.8715  -12.9085 C   0  0  1  0  0  0  0  0  0  0  0  0
   12.9739   -8.6287  -11.8315 C   0  0  0  0  0  0  0  0  0  0  0  0
   11.5071   -8.3915  -11.8142 C   0  0  0  0  0  0  0  0  0  0  0  0
   10.9366   -9.0476  -10.5628 C   0  0  0  0  0  0  0  0  0  0  0  0
    9.4401   -8.8413  -10.4781 C   0  0  0  0  0  0  0  0  0  0  0  0
    8.9923   -9.4779   -9.2437 N   0  0  0  0  0  0  0  0  0  0  0  0
   13.5905   -6.4256  -12.7060 C   0  0  0  0  0  0  0  0  0  0  0  0
   14.5225   -5.7830  -12.1801 O   0  0  0  0  0  0  0  0  0  0  0  0
   12.4587   -5.7476  -13.0924 O   0  0  0  0  0  0  0  0  0  0  0  0
  2  1  1  1
  2  3  1  0
  3  4  1  0
  4  5  2  0
  4  8  1  0
  6  2  1  0
  7  6  2  0
  9 10  1  0
 11 10  1  6
 11 13  1  0
 11 12  1  0
 12  6  1  0
 13 14  2  0
 15 16  1  0
 15 13  1  0
 17 18  1  0
 16 17  1  1
 19 20  1  0
 19 18  1  0
 20 21  1  0
 22 24  1  0
 22 16  1  0
 23 22  2  0
M  END
$$$$
