DSK.pdb
     RDKit          3D

 24 23  0  0  1  0  0  0  0  0999 V2000
   22.9316  -13.9007  -17.9003 N   0  0  0  0  0  0  0  0  0  0  0  0
   21.9343  -12.9246  -18.3653 C   0  0  1  0  0  0  0  0  0  0  0  0
   20.7708  -13.7254  -18.8340 C   0  0  0  0  0  0  0  0  0  0  0  0
   20.9528  -14.5380  -20.0218 C   0  0  0  0  0  0  0  0  0  0  0  0
   21.5803  -14.1625  -21.0285 O   0  0  0  0  0  0  0  0  0  0  0  0
   21.6310  -11.9597  -17.2796 C   0  0  0  0  0  0  0  0  0  0  0  0
   21.2645  -12.2783  -16.1262 O   0  0  0  0  0  0  0  0  0  0  0  0
   20.4060  -15.8141  -20.0673 O   0  0  0  0  0  0  0  0  0  0  0  0
   22.4008   -8.0520  -14.9867 O   0  0  0  0  0  0  0  0  0  0  0  0
   22.7189   -8.8462  -16.1004 C   0  0  0  0  0  0  0  0  0  0  0  0
   21.4342   -9.5618  -16.4897 C   0  0  2  0  0  0  0  0  0  0  0  0
   21.7397  -10.5347  -17.4807 N   0  0  0  0  0  0  0  0  0  0  0  0
   20.4477   -8.5587  -16.8987 C   0  0  0  0  0  0  0  0  0  0  0  0
   20.5570   -8.0216  -18.0302 O   0  0  0  0  0  0  0  0  0  0  0  0
   19.3580   -8.1432  -16.0930 N   0  0  0  0  0  0  0  0  0  0  0  0
   18.4342   -7.0704  -16.5393 C   0  0  1  0  0  0  0  0  0  0  0  0
   17.1290   -7.2376  -15.8087 C   0  0  0  0  0  0  0  0  0  0  0  0
   16.1177   -6.1985  -16.1336 C   0  0  0  0  0  0  0  0  0  0  0  0
   14.8561   -6.4999  -15.3340 C   0  0  0  0  0  0  0  0  0  0  0  0
   13.7820   -5.4705  -15.6097 C   0  0  0  0  0  0  0  0  0  0  0  0
   12.5847   -5.9040  -14.8969 N   0  0  0  0  0  0  0  0  0  0  0  0
   19.0825   -5.8076  -16.1794 C   0  0  0  0  0  0  0  0  0  0  0  0
   19.8848   -5.7547  -15.2246 O   0  0  0  0  0  0  0  0  0  0  0  0
   18.8228   -4.6575  -16.8863 O   0  0  0  0  0  0  0  0  0  0  0  0
  2  1  1  1
  2  3  1  0
  3  4  1  0
  4  5  2  0
  4  8  1  0
  6  2  1  0
  7  6  2  0
  9 10  1  0
 11 10  1  6
 11 13  1  0
 11 12  1  0
 12  6  1  0
 13 14  2  0
 15 16  1  0
 15 13  1  0
 17 18  1  0
 16 17  1  1
 19 20  1  0
 19 18  1  0
 20 21  1  0
 22 24  1  0
 22 16  1  0
 23 22  2  0
M  END
$$$$
