DSK.pdb
     RDKit          3D

 24 23  0  0  1  0  0  0  0  0999 V2000
   20.2695  -10.0457  -16.1224 N   0  0  0  0  0  0  0  0  0  0  0  0
   20.0260   -8.6473  -15.7368 C   0  0  1  0  0  0  0  0  0  0  0  0
   18.9068   -8.1779  -16.5980 C   0  0  0  0  0  0  0  0  0  0  0  0
   19.1710   -8.0298  -18.0167 C   0  0  0  0  0  0  0  0  0  0  0  0
   18.5443   -8.6351  -18.9050 O   0  0  0  0  0  0  0  0  0  0  0  0
   19.7671   -8.5658  -14.2778 C   0  0  0  0  0  0  0  0  0  0  0  0
   19.0406   -9.3594  -13.6387 O   0  0  0  0  0  0  0  0  0  0  0  0
   20.1764   -7.1691  -18.4385 O   0  0  0  0  0  0  0  0  0  0  0  0
   21.1757   -5.3020  -12.2533 O   0  0  0  0  0  0  0  0  0  0  0  0
   21.1906   -6.4775  -11.4849 C   0  0  0  0  0  0  0  0  0  0  0  0
   20.1117   -7.3773  -12.0686 C   0  0  2  0  0  0  0  0  0  0  0  0
   20.3538   -7.5305  -13.4613 N   0  0  0  0  0  0  0  0  0  0  0  0
   18.8021   -6.8129  -11.7322 C   0  0  0  0  0  0  0  0  0  0  0  0
   18.3393   -5.8818  -12.4392 O   0  0  0  0  0  0  0  0  0  0  0  0
   18.0049   -7.2511  -10.6451 N   0  0  0  0  0  0  0  0  0  0  0  0
   16.6822   -6.6392  -10.3632 C   0  0  1  0  0  0  0  0  0  0  0  0
   15.7299   -7.7356   -9.9675 C   0  0  0  0  0  0  0  0  0  0  0  0
   14.3928   -7.2488   -9.5397 C   0  0  0  0  0  0  0  0  0  0  0  0
   13.5573   -8.4567   -9.1338 C   0  0  0  0  0  0  0  0  0  0  0  0
   12.1680   -8.0351   -8.7079 C   0  0  0  0  0  0  0  0  0  0  0  0
   11.4468   -9.2511   -8.3462 N   0  0  0  0  0  0  0  0  0  0  0  0
   16.9003   -5.7049   -9.2569 C   0  0  0  0  0  0  0  0  0  0  0  0
   16.0722   -4.8030   -9.0142 O   0  0  0  0  0  0  0  0  0  0  0  0
   18.0185   -5.8035   -8.4634 O   0  0  0  0  0  0  0  0  0  0  0  0
  2  1  1  6
  2  3  1  0
  3  4  1  0
  4  5  2  0
  4  8  1  0
  6  2  1  0
  7  6  2  0
  9 10  1  0
 11 10  1  6
 11 13  1  0
 11 12  1  0
 12  6  1  0
 13 14  2  0
 15 16  1  0
 15 13  1  0
 17 18  1  0
 16 17  1  1
 19 20  1  0
 19 18  1  0
 20 21  1  0
 22 24  1  0
 22 16  1  0
 23 22  2  0
M  END
$$$$
