DSK.pdb
     RDKit          3D

 24 23  0  0  1  0  0  0  0  0999 V2000
   19.5642  -14.7552  -16.1687 N   0  0  0  0  0  0  0  0  0  0  0  0
   19.0131  -13.4997  -16.7012 C   0  0  1  0  0  0  0  0  0  0  0  0
   17.6319  -13.3997  -16.1564 C   0  0  0  0  0  0  0  0  0  0  0  0
   16.7040  -14.4651  -16.4856 C   0  0  0  0  0  0  0  0  0  0  0  0
   16.4272  -14.8076  -17.6494 O   0  0  0  0  0  0  0  0  0  0  0  0
   19.9066  -12.3687  -16.3482 C   0  0  0  0  0  0  0  0  0  0  0  0
   20.2206  -12.0478  -15.1801 O   0  0  0  0  0  0  0  0  0  0  0  0
   16.0723  -15.1615  -15.4632 O   0  0  0  0  0  0  0  0  0  0  0  0
   23.2059  -11.1764  -18.4540 O   0  0  0  0  0  0  0  0  0  0  0  0
   22.2082  -10.1920  -18.3653 C   0  0  0  0  0  0  0  0  0  0  0  0
   21.4331  -10.4897  -17.0906 C   0  0  2  0  0  0  0  0  0  0  0  0
   20.4989  -11.5273  -17.3601 N   0  0  0  0  0  0  0  0  0  0  0  0
   20.8398   -9.2416  -16.6039 C   0  0  0  0  0  0  0  0  0  0  0  0
   19.7601   -8.8418  -17.1089 O   0  0  0  0  0  0  0  0  0  0  0  0
   21.4084   -8.4378  -15.5841 N   0  0  0  0  0  0  0  0  0  0  0  0
   20.6885   -7.2592  -15.0400 C   0  0  1  0  0  0  0  0  0  0  0  0
   20.5816   -7.4194  -13.5472 C   0  0  0  0  0  0  0  0  0  0  0  0
   19.8793   -6.2996  -12.8685 C   0  0  0  0  0  0  0  0  0  0  0  0
   19.8436   -6.5997  -11.3750 C   0  0  0  0  0  0  0  0  0  0  0  0
   19.1785   -5.4744  -10.6129 C   0  0  0  0  0  0  0  0  0  0  0  0
   19.1163   -5.8866   -9.2144 N   0  0  0  0  0  0  0  0  0  0  0  0
   21.5049   -6.0946  -15.3887 C   0  0  0  0  0  0  0  0  0  0  0  0
   22.7224   -6.2221  -15.6326 O   0  0  0  0  0  0  0  0  0  0  0  0
   20.9472   -4.8400  -15.4567 O   0  0  0  0  0  0  0  0  0  0  0  0
  2  1  1  1
  2  3  1  0
  3  4  1  0
  4  5  2  0
  4  8  1  0
  6  2  1  0
  7  6  2  0
  9 10  1  0
 11 10  1  6
 11 13  1  0
 11 12  1  0
 12  6  1  0
 13 14  2  0
 15 16  1  0
 15 13  1  0
 17 18  1  0
 16 17  1  1
 19 20  1  0
 19 18  1  0
 20 21  1  0
 22 24  1  0
 22 16  1  0
 23 22  2  0
M  END
$$$$
