DSK.pdb
     RDKit          3D

 24 23  0  0  1  0  0  0  0  0999 V2000
   22.9625  -19.2324  -17.2506 N   0  0  0  0  0  0  0  0  0  0  0  0
   23.7783  -19.4066  -16.0391 C   0  0  1  0  0  0  0  0  0  0  0  0
   24.8030  -18.3282  -16.0815 C   0  0  0  0  0  0  0  0  0  0  0  0
   25.8509  -18.4399  -17.0784 C   0  0  0  0  0  0  0  0  0  0  0  0
   25.9854  -19.4182  -17.8354 O   0  0  0  0  0  0  0  0  0  0  0  0
   22.9057  -19.3914  -14.8389 C   0  0  0  0  0  0  0  0  0  0  0  0
   23.3195  -19.4112  -13.6580 O   0  0  0  0  0  0  0  0  0  0  0  0
   26.7727  -17.4104  -17.2194 O   0  0  0  0  0  0  0  0  0  0  0  0
   19.5055  -17.3956  -13.0296 O   0  0  0  0  0  0  0  0  0  0  0  0
   19.4972  -18.2803  -14.1203 C   0  0  0  0  0  0  0  0  0  0  0  0
   20.5813  -19.3095  -13.8376 C   0  0  2  0  0  0  0  0  0  0  0  0
   21.4673  -19.3515  -14.9490 N   0  0  0  0  0  0  0  0  0  0  0  0
   19.9389  -20.5866  -13.5167 C   0  0  0  0  0  0  0  0  0  0  0  0
   19.6200  -21.3615  -14.4541 O   0  0  0  0  0  0  0  0  0  0  0  0
   19.6463  -21.0184  -12.1987 N   0  0  0  0  0  0  0  0  0  0  0  0
   19.0294  -22.3436  -11.9406 C   0  0  1  0  0  0  0  0  0  0  0  0
   19.0072  -22.5721  -10.4531 C   0  0  0  0  0  0  0  0  0  0  0  0
   18.3800  -23.8570  -10.0488 C   0  0  0  0  0  0  0  0  0  0  0  0
   18.3302  -23.9007   -8.5265 C   0  0  0  0  0  0  0  0  0  0  0  0
   17.7298  -25.2023   -8.0419 C   0  0  0  0  0  0  0  0  0  0  0  0
   17.7202  -25.1492   -6.5836 N   0  0  0  0  0  0  0  0  0  0  0  0
   17.6714  -22.2662  -12.4831 C   0  0  0  0  0  0  0  0  0  0  0  0
   17.1195  -23.2785  -12.9615 O   0  0  0  0  0  0  0  0  0  0  0  0
   16.9774  -21.0796  -12.4742 O   0  0  0  0  0  0  0  0  0  0  0  0
  2  1  1  6
  2  3  1  0
  3  4  1  0
  4  5  2  0
  4  8  1  0
  6  2  1  0
  7  6  2  0
  9 10  1  0
 11 10  1  6
 11 13  1  0
 11 12  1  0
 12  6  1  0
 13 14  2  0
 15 16  1  0
 15 13  1  0
 17 18  1  0
 16 17  1  1
 19 20  1  0
 19 18  1  0
 20 21  1  0
 22 24  1  0
 22 16  1  0
 23 22  2  0
M  END
$$$$
