DSK.pdb
     RDKit          3D

 24 23  0  0  1  0  0  0  0  0999 V2000
   21.2844  -13.2936  -17.6619 N   0  0  0  0  0  0  0  0  0  0  0  0
   20.0826  -12.5706  -17.2185 C   0  0  1  0  0  0  0  0  0  0  0  0
   19.1387  -13.6130  -16.7316 C   0  0  0  0  0  0  0  0  0  0  0  0
   18.8249  -14.7052  -17.6333 C   0  0  0  0  0  0  0  0  0  0  0  0
   18.9967  -15.9054  -17.3538 O   0  0  0  0  0  0  0  0  0  0  0  0
   20.4550  -11.5465  -16.2112 C   0  0  0  0  0  0  0  0  0  0  0  0
   19.6373  -10.8839  -15.5342 O   0  0  0  0  0  0  0  0  0  0  0  0
   18.3008  -14.4257  -18.8890 O   0  0  0  0  0  0  0  0  0  0  0  0
   24.3849  -10.3373  -16.0105 O   0  0  0  0  0  0  0  0  0  0  0  0
   23.7335  -10.3586  -14.7665 C   0  0  0  0  0  0  0  0  0  0  0  0
   22.2518  -10.1811  -15.0625 C   0  0  2  0  0  0  0  0  0  0  0  0
   21.8341  -11.2284  -15.9289 N   0  0  0  0  0  0  0  0  0  0  0  0
   22.0402   -8.8298  -15.5875 C   0  0  0  0  0  0  0  0  0  0  0  0
   22.2206   -8.6165  -16.8134 O   0  0  0  0  0  0  0  0  0  0  0  0
   21.6388   -7.7249  -14.7955 N   0  0  0  0  0  0  0  0  0  0  0  0
   21.3915   -6.3920  -15.4004 C   0  0  1  0  0  0  0  0  0  0  0  0
   19.9046   -6.1639  -15.4478 C   0  0  0  0  0  0  0  0  0  0  0  0
   19.5162   -4.8081  -15.9156 C   0  0  0  0  0  0  0  0  0  0  0  0
   17.9970   -4.7054  -15.8590 C   0  0  0  0  0  0  0  0  0  0  0  0
   17.5148   -3.4398  -16.5338 C   0  0  0  0  0  0  0  0  0  0  0  0
   16.0596   -3.4281  -16.4252 N   0  0  0  0  0  0  0  0  0  0  0  0
   22.0462   -5.4237  -14.5183 C   0  0  0  0  0  0  0  0  0  0  0  0
   22.2551   -5.6971  -13.3184 O   0  0  0  0  0  0  0  0  0  0  0  0
   22.4454   -4.1972  -14.9937 O   0  0  0  0  0  0  0  0  0  0  0  0
  2  1  1  1
  2  3  1  0
  3  4  1  0
  4  5  2  0
  4  8  1  0
  6  2  1  0
  7  6  2  0
  9 10  1  0
 11 10  1  6
 11 13  1  0
 11 12  1  0
 12  6  1  0
 13 14  2  0
 15 16  1  0
 15 13  1  0
 17 18  1  0
 16 17  1  1
 19 20  1  0
 19 18  1  0
 20 21  1  0
 22 24  1  0
 22 16  1  0
 23 22  2  0
M  END
$$$$
