DSK.pdb
     RDKit          3D

 24 23  0  0  1  0  0  0  0  0999 V2000
   18.0530  -12.6602  -15.1290 N   0  0  0  0  0  0  0  0  0  0  0  0
   19.0317  -12.2276  -16.1382 C   0  0  1  0  0  0  0  0  0  0  0  0
   18.6373  -12.9059  -17.4027 C   0  0  0  0  0  0  0  0  0  0  0  0
   18.5313  -14.3525  -17.3810 C   0  0  0  0  0  0  0  0  0  0  0  0
   19.0822  -15.0748  -16.5307 O   0  0  0  0  0  0  0  0  0  0  0  0
   19.0605  -10.7455  -16.2078 C   0  0  0  0  0  0  0  0  0  0  0  0
   19.4991  -10.0871  -17.1774 O   0  0  0  0  0  0  0  0  0  0  0  0
   17.7777  -14.9973  -18.3536 O   0  0  0  0  0  0  0  0  0  0  0  0
   18.1897   -8.6276  -12.8185 O   0  0  0  0  0  0  0  0  0  0  0  0
   17.7223   -8.0032  -13.9864 C   0  0  0  0  0  0  0  0  0  0  0  0
   18.6074   -8.5056  -15.1171 C   0  0  2  0  0  0  0  0  0  0  0  0
   18.5685   -9.9270  -15.1258 N   0  0  0  0  0  0  0  0  0  0  0  0
   19.9446   -7.9297  -14.9531 C   0  0  0  0  0  0  0  0  0  0  0  0
   20.7665   -8.5025  -14.1933 O   0  0  0  0  0  0  0  0  0  0  0  0
   20.3854   -6.7497  -15.6032 N   0  0  0  0  0  0  0  0  0  0  0  0
   21.7946   -6.2942  -15.5021 C   0  0  1  0  0  0  0  0  0  0  0  0
   22.1201   -5.4908  -16.7326 C   0  0  0  0  0  0  0  0  0  0  0  0
   23.4392   -4.8091  -16.6771 C   0  0  0  0  0  0  0  0  0  0  0  0
   23.5903   -3.9678  -17.9385 C   0  0  0  0  0  0  0  0  0  0  0  0
   24.9131   -3.2333  -17.9437 C   0  0  0  0  0  0  0  0  0  0  0  0
   24.9499   -2.4326  -19.1632 N   0  0  0  0  0  0  0  0  0  0  0  0
   21.8624   -5.4649  -14.2971 C   0  0  0  0  0  0  0  0  0  0  0  0
   20.8334   -4.9309  -13.8344 O   0  0  0  0  0  0  0  0  0  0  0  0
   23.0584   -5.2602  -13.6509 O   0  0  0  0  0  0  0  0  0  0  0  0
  2  1  1  1
  2  3  1  0
  3  4  1  0
  4  5  2  0
  4  8  1  0
  6  2  1  0
  7  6  2  0
  9 10  1  0
 11 10  1  1
 11 13  1  0
 11 12  1  0
 12  6  1  0
 13 14  2  0
 15 16  1  0
 15 13  1  0
 17 18  1  0
 16 17  1  6
 19 20  1  0
 19 18  1  0
 20 21  1  0
 22 24  1  0
 22 16  1  0
 23 22  2  0
M  END
$$$$
