DSK.pdb
     RDKit          3D

 24 23  0  0  1  0  0  0  0  0999 V2000
   19.5647  -12.0249  -16.9123 N   0  0  0  0  0  0  0  0  0  0  0  0
   18.5733  -11.1920  -16.2145 C   0  0  1  0  0  0  0  0  0  0  0  0
   17.5940  -12.1407  -15.6183 C   0  0  0  0  0  0  0  0  0  0  0  0
   16.8974  -13.0380  -16.5205 C   0  0  0  0  0  0  0  0  0  0  0  0
   16.1495  -12.6546  -17.4381 O   0  0  0  0  0  0  0  0  0  0  0  0
   19.2574  -10.3067  -15.2396 C   0  0  0  0  0  0  0  0  0  0  0  0
   18.6731   -9.6034  -14.3852 O   0  0  0  0  0  0  0  0  0  0  0  0
   17.0547  -14.4105  -16.3761 O   0  0  0  0  0  0  0  0  0  0  0  0
   23.3368  -10.1226  -15.3769 O   0  0  0  0  0  0  0  0  0  0  0  0
   22.7939   -9.8442  -14.1119 C   0  0  0  0  0  0  0  0  0  0  0  0
   21.4020   -9.2842  -14.3637 C   0  0  2  0  0  0  0  0  0  0  0  0
   20.6952  -10.1874  -15.2042 N   0  0  0  0  0  0  0  0  0  0  0  0
   21.5357   -7.9264  -14.8978 C   0  0  0  0  0  0  0  0  0  0  0  0
   21.7342   -7.7723  -16.1297 O   0  0  0  0  0  0  0  0  0  0  0  0
   21.4554   -6.7519  -14.1082 N   0  0  0  0  0  0  0  0  0  0  0  0
   21.5075   -5.4029  -14.7255 C   0  0  1  0  0  0  0  0  0  0  0  0
   20.1358   -4.7899  -14.6361 C   0  0  0  0  0  0  0  0  0  0  0  0
   19.2455   -5.1335  -15.7749 C   0  0  0  0  0  0  0  0  0  0  0  0
   17.9140   -4.4228  -15.5656 C   0  0  0  0  0  0  0  0  0  0  0  0
   16.8956   -4.8682  -16.5922 C   0  0  0  0  0  0  0  0  0  0  0  0
   15.6419   -4.1959  -16.2669 N   0  0  0  0  0  0  0  0  0  0  0  0
   22.4790   -4.6396  -13.9394 C   0  0  0  0  0  0  0  0  0  0  0  0
   22.7747   -4.9919  -12.7790 O   0  0  0  0  0  0  0  0  0  0  0  0
   23.0856   -3.5230  -14.4636 O   0  0  0  0  0  0  0  0  0  0  0  0
  2  1  1  1
  2  3  1  0
  3  4  1  0
  4  5  2  0
  4  8  1  0
  6  2  1  0
  7  6  2  0
  9 10  1  0
 11 10  1  6
 11 13  1  0
 11 12  1  0
 12  6  1  0
 13 14  2  0
 15 16  1  0
 15 13  1  0
 17 18  1  0
 16 17  1  1
 19 20  1  0
 19 18  1  0
 20 21  1  0
 22 24  1  0
 22 16  1  0
 23 22  2  0
M  END
$$$$
