DSK.pdb
     RDKit          3D

 24 23  0  0  1  0  0  0  0  0999 V2000
   16.7131   -9.1754  -10.5547 N   0  0  0  0  0  0  0  0  0  0  0  0
   16.8504   -9.1195  -12.0181 C   0  0  1  0  0  0  0  0  0  0  0  0
   15.6368   -8.4144  -12.5128 C   0  0  0  0  0  0  0  0  0  0  0  0
   14.3575   -9.0719  -12.3243 C   0  0  0  0  0  0  0  0  0  0  0  0
   13.5014   -8.6988  -11.5021 O   0  0  0  0  0  0  0  0  0  0  0  0
   18.1373   -8.4742  -12.3780 C   0  0  0  0  0  0  0  0  0  0  0  0
   18.5608   -7.4060  -11.8823 O   0  0  0  0  0  0  0  0  0  0  0  0
   14.0417  -10.1855  -13.0921 O   0  0  0  0  0  0  0  0  0  0  0  0
   21.6485  -10.3332  -13.3604 O   0  0  0  0  0  0  0  0  0  0  0  0
   21.1135   -9.5610  -14.4044 C   0  0  0  0  0  0  0  0  0  0  0  0
   20.2706   -8.4815  -13.7423 C   0  0  2  0  0  0  0  0  0  0  0  0
   19.0249   -9.0503  -13.3594 N   0  0  0  0  0  0  0  0  0  0  0  0
   20.1691   -7.3425  -14.6582 C   0  0  0  0  0  0  0  0  0  0  0  0
   19.2902   -7.3590  -15.5571 O   0  0  0  0  0  0  0  0  0  0  0  0
   21.0080   -6.2013  -14.6011 N   0  0  0  0  0  0  0  0  0  0  0  0
   20.8140   -5.0548  -15.5237 C   0  0  1  0  0  0  0  0  0  0  0  0
   19.7030   -4.1960  -14.9819 C   0  0  0  0  0  0  0  0  0  0  0  0
   19.4604   -2.9571  -15.7655 C   0  0  0  0  0  0  0  0  0  0  0  0
   18.2944   -2.2135  -15.1259 C   0  0  0  0  0  0  0  0  0  0  0  0
   17.8914   -1.0180  -15.9613 C   0  0  0  0  0  0  0  0  0  0  0  0
   16.7119   -0.4359  -15.3293 N   0  0  0  0  0  0  0  0  0  0  0  0
   22.0856   -4.3286  -15.5337 C   0  0  0  0  0  0  0  0  0  0  0  0
   22.9461   -4.5420  -14.6551 O   0  0  0  0  0  0  0  0  0  0  0  0
   22.3575   -3.4005  -16.5107 O   0  0  0  0  0  0  0  0  0  0  0  0
  2  1  1  1
  2  3  1  0
  3  4  1  0
  4  5  2  0
  4  8  1  0
  6  2  1  0
  7  6  2  0
  9 10  1  0
 11 10  1  6
 11 13  1  0
 11 12  1  0
 12  6  1  0
 13 14  2  0
 15 16  1  0
 15 13  1  0
 17 18  1  0
 16 17  1  1
 19 20  1  0
 19 18  1  0
 20 21  1  0
 22 24  1  0
 22 16  1  0
 23 22  2  0
M  END
$$$$
