LND.pdb
     RDKit          3D

 25 24  0  0  1  0  0  0  0  0999 V2000
    8.9625  -13.0953   18.7191 C   0  0  0  0  0  0  0  0  0  0  0  0
    7.5879  -13.4262   19.2768 C   0  0  2  0  0  0  0  0  0  0  0  0
    6.7283  -12.2009   18.9962 C   0  0  0  0  0  0  0  0  0  0  0  0
    7.6506  -13.7613   20.7422 C   0  0  0  0  0  0  0  0  0  0  0  0
    8.4923  -14.9926   20.9484 C   0  0  2  0  0  0  0  0  0  0  0  0
    8.0135  -16.0394   20.0688 N   0  0  0  0  0  0  0  0  0  0  0  0
    8.4900  -15.4746   22.3324 C   0  0  0  0  0  0  0  0  0  0  0  0
    8.8069  -14.6748   23.2624 O   0  0  0  0  0  0  0  0  0  0  0  0
    7.9011  -18.4678   26.6793 N   0  0  0  0  0  0  0  0  0  0  0  0
    7.0124  -18.8314   25.6340 C   0  0  0  0  0  0  0  0  0  0  0  0
    6.1181  -19.6480   25.9038 O   0  0  0  0  0  0  0  0  0  0  0  0
    7.1722  -18.2472   24.3007 C   0  0  0  0  0  0  0  0  0  0  0  0
    8.2780  -17.2569   24.1297 C   0  0  2  0  0  0  0  0  0  0  0  0
    8.1581  -16.7826   22.7349 N   0  0  0  0  0  0  0  0  0  0  0  0
    9.6434  -17.8253   24.3153 C   0  0  0  0  0  0  0  0  0  0  0  0
    9.8466  -18.9968   23.9282 O   0  0  0  0  0  0  0  0  0  0  0  0
   10.6953  -17.0881   24.9069 N   0  0  0  0  0  0  0  0  0  0  0  0
   12.0175  -17.7394   25.0220 C   0  0  1  0  0  0  0  0  0  0  0  0
   13.0444  -16.7406   24.5677 C   0  0  0  0  0  0  0  0  0  0  0  0
   14.4010  -17.2494   24.4465 C   0  0  0  0  0  0  0  0  0  0  0  0
   14.7994  -18.3941   24.6674 O   0  0  0  0  0  0  0  0  0  0  0  0
   12.2249  -18.0942   26.4704 C   0  0  0  0  0  0  0  0  0  0  0  0
   13.1152  -19.0632   26.8546 O   0  0  0  0  0  0  0  0  0  0  0  0
   15.3932  -16.3341   24.0255 O   0  0  0  0  0  0  0  0  0  0  0  0
   11.5774  -17.5032   27.3748 O   0  0  0  0  0  0  0  0  0  0  0  0
  2  1  1  1
  3  2  1  0
  4  5  1  0
  4  2  1  0
  5  6  1  6
  7  5  1  0
  7  8  2  0
 10  9  1  0
 10 12  1  0
 11 10  2  0
 13 12  1  6
 13 14  1  0
 14  7  1  0
 15 16  2  0
 15 13  1  0
 17 15  1  0
 18 17  1  0
 18 19  1  1
 20 19  1  0
 20 21  2  0
 22 18  1  0
 23 22  1  0
 24 20  1  0
 25 22  2  0
M  END
$$$$
