LND.pdb
     RDKit          3D

 25 24  0  0  1  0  0  0  0  0999 V2000
    9.2492  -12.7535   19.1221 C   0  0  0  0  0  0  0  0  0  0  0  0
    7.9201  -13.4086   19.4600 C   0  0  2  0  0  0  0  0  0  0  0  0
    6.8525  -12.4171   19.0170 C   0  0  0  0  0  0  0  0  0  0  0  0
    7.8231  -13.7422   20.9239 C   0  0  0  0  0  0  0  0  0  0  0  0
    8.8737  -14.7580   21.2863 C   0  0  2  0  0  0  0  0  0  0  0  0
    8.6808  -15.9413   20.4731 N   0  0  0  0  0  0  0  0  0  0  0  0
    8.8608  -15.1288   22.7040 C   0  0  0  0  0  0  0  0  0  0  0  0
    8.0413  -14.5557   23.4819 O   0  0  0  0  0  0  0  0  0  0  0  0
    6.6810  -17.7330   26.3329 N   0  0  0  0  0  0  0  0  0  0  0  0
    7.4375  -18.3023   25.2755 C   0  0  0  0  0  0  0  0  0  0  0  0
    7.5859  -19.5341   25.2792 O   0  0  0  0  0  0  0  0  0  0  0  0
    8.0069  -17.4415   24.2366 C   0  0  0  0  0  0  0  0  0  0  0  0
    9.3408  -16.8331   24.5253 C   0  0  2  0  0  0  0  0  0  0  0  0
    9.6996  -16.0915   23.2980 N   0  0  0  0  0  0  0  0  0  0  0  0
   10.4182  -17.8242   24.8055 C   0  0  0  0  0  0  0  0  0  0  0  0
   10.3112  -18.5294   25.8325 O   0  0  0  0  0  0  0  0  0  0  0  0
   11.5374  -17.9846   23.9562 N   0  0  0  0  0  0  0  0  0  0  0  0
   12.8820  -17.7876   24.5383 C   0  0  1  0  0  0  0  0  0  0  0  0
   13.2837  -16.3673   24.2551 C   0  0  0  0  0  0  0  0  0  0  0  0
   14.1487  -16.1801   23.1016 C   0  0  0  0  0  0  0  0  0  0  0  0
   15.1946  -16.7759   22.8390 O   0  0  0  0  0  0  0  0  0  0  0  0
   12.7745  -18.0243   26.0213 C   0  0  0  0  0  0  0  0  0  0  0  0
   11.8352  -17.3838   26.7871 O   0  0  0  0  0  0  0  0  0  0  0  0
   13.7569  -15.2015   22.1592 O   0  0  0  0  0  0  0  0  0  0  0  0
   13.5546  -18.8254   26.6013 O   0  0  0  0  0  0  0  0  0  0  0  0
  2  1  1  1
  3  2  1  0
  4  5  1  0
  4  2  1  0
  5  6  1  6
  7  5  1  0
  7  8  2  0
 10  9  1  0
 10 12  1  0
 11 10  2  0
 13 12  1  6
 13 14  1  0
 14  7  1  0
 15 16  2  0
 15 13  1  0
 17 15  1  0
 18 17  1  0
 18 19  1  1
 20 19  1  0
 20 21  2  0
 22 18  1  0
 23 22  1  0
 24 20  1  0
 25 22  2  0
M  END
$$$$
