LND.pdb
     RDKit          3D

 25 24  0  0  1  0  0  0  0  0999 V2000
    9.3654  -12.8198   19.2618 C   0  0  0  0  0  0  0  0  0  0  0  0
    7.9803  -13.3451   19.6016 C   0  0  2  0  0  0  0  0  0  0  0  0
    7.0339  -12.1730   19.3792 C   0  0  0  0  0  0  0  0  0  0  0  0
    7.9185  -13.8752   21.0083 C   0  0  0  0  0  0  0  0  0  0  0  0
    8.9494  -14.9572   21.1914 C   0  0  2  0  0  0  0  0  0  0  0  0
    8.7517  -15.9691   20.1736 N   0  0  0  0  0  0  0  0  0  0  0  0
    8.9107  -15.5801   22.5174 C   0  0  0  0  0  0  0  0  0  0  0  0
    8.9961  -14.8440   23.5450 O   0  0  0  0  0  0  0  0  0  0  0  0
    5.6063  -18.1317   22.7921 N   0  0  0  0  0  0  0  0  0  0  0  0
    6.3318  -17.9071   23.9912 C   0  0  0  0  0  0  0  0  0  0  0  0
    5.7923  -17.2067   24.8617 O   0  0  0  0  0  0  0  0  0  0  0  0
    7.6626  -18.4937   24.1624 C   0  0  0  0  0  0  0  0  0  0  0  0
    8.8224  -17.5527   24.1151 C   0  0  2  0  0  0  0  0  0  0  0  0
    8.7834  -16.9612   22.7610 N   0  0  0  0  0  0  0  0  0  0  0  0
   10.1490  -18.2058   24.3030 C   0  0  0  0  0  0  0  0  0  0  0  0
   10.2520  -19.4162   24.0068 O   0  0  0  0  0  0  0  0  0  0  0  0
   11.2732  -17.5052   24.7982 N   0  0  0  0  0  0  0  0  0  0  0  0
   12.5069  -18.2753   25.0634 C   0  0  1  0  0  0  0  0  0  0  0  0
   13.6672  -17.3936   24.6962 C   0  0  0  0  0  0  0  0  0  0  0  0
   13.6246  -16.8290   23.3571 C   0  0  0  0  0  0  0  0  0  0  0  0
   13.3959  -17.4160   22.2984 O   0  0  0  0  0  0  0  0  0  0  0  0
   12.5316  -18.6026   26.5328 C   0  0  0  0  0  0  0  0  0  0  0  0
   11.5955  -18.0997   27.3989 O   0  0  0  0  0  0  0  0  0  0  0  0
   13.8728  -15.4420   23.2385 O   0  0  0  0  0  0  0  0  0  0  0  0
   13.4236  -19.3544   27.0078 O   0  0  0  0  0  0  0  0  0  0  0  0
  2  1  1  1
  3  2  1  0
  4  5  1  0
  4  2  1  0
  5  6  1  6
  7  5  1  0
  7  8  2  0
 10  9  1  0
 10 12  1  0
 11 10  2  0
 13 12  1  6
 13 14  1  0
 14  7  1  0
 15 16  2  0
 15 13  1  0
 17 15  1  0
 18 17  1  0
 18 19  1  1
 20 19  1  0
 20 21  2  0
 22 18  1  0
 23 22  1  0
 24 20  1  0
 25 22  2  0
M  END
$$$$
