LND.pdb
     RDKit          3D

 25 24  0  0  1  0  0  0  0  0999 V2000
    9.2934  -13.1670   20.2282 C   0  0  0  0  0  0  0  0  0  0  0  0
    7.8862  -13.4418   19.7239 C   0  0  2  0  0  0  0  0  0  0  0  0
    7.2860  -12.0745   19.4251 C   0  0  0  0  0  0  0  0  0  0  0  0
    7.0789  -14.2168   20.7295 C   0  0  0  0  0  0  0  0  0  0  0  0
    7.7955  -15.4925   21.0849 C   0  0  2  0  0  0  0  0  0  0  0  0
    7.5891  -16.4565   20.0234 N   0  0  0  0  0  0  0  0  0  0  0  0
    7.3628  -16.0673   22.3616 C   0  0  0  0  0  0  0  0  0  0  0  0
    6.1427  -16.3709   22.5170 O   0  0  0  0  0  0  0  0  0  0  0  0
    5.5742  -20.0308   24.8963 N   0  0  0  0  0  0  0  0  0  0  0  0
    6.8029  -19.3564   25.1200 C   0  0  0  0  0  0  0  0  0  0  0  0
    7.4145  -19.6175   26.1675 O   0  0  0  0  0  0  0  0  0  0  0  0
    7.3012  -18.3960   24.1331 C   0  0  0  0  0  0  0  0  0  0  0  0
    7.7692  -17.0770   24.6566 C   0  0  2  0  0  0  0  0  0  0  0  0
    8.2030  -16.3208   23.4629 N   0  0  0  0  0  0  0  0  0  0  0  0
    8.9208  -17.1657   25.5988 C   0  0  0  0  0  0  0  0  0  0  0  0
   10.0079  -17.5952   25.1546 O   0  0  0  0  0  0  0  0  0  0  0  0
    8.8180  -16.7840   26.9565 N   0  0  0  0  0  0  0  0  0  0  0  0
   10.0354  -16.8618   27.7916 C   0  0  1  0  0  0  0  0  0  0  0  0
    9.9351  -15.7742   28.8238 C   0  0  0  0  0  0  0  0  0  0  0  0
   10.1137  -14.4202   28.3252 C   0  0  0  0  0  0  0  0  0  0  0  0
   10.4428  -14.0721   27.1901 O   0  0  0  0  0  0  0  0  0  0  0  0
   10.0515  -18.2172   28.4468 C   0  0  0  0  0  0  0  0  0  0  0  0
   11.1877  -18.7275   29.0193 O   0  0  0  0  0  0  0  0  0  0  0  0
    9.8861  -13.3657   29.2393 O   0  0  0  0  0  0  0  0  0  0  0  0
    9.0095  -18.9239   28.4848 O   0  0  0  0  0  0  0  0  0  0  0  0
  2  1  1  1
  3  2  1  0
  4  5  1  0
  4  2  1  0
  5  6  1  6
  7  5  1  0
  7  8  2  0
 10  9  1  0
 10 12  1  0
 11 10  2  0
 13 12  1  6
 13 14  1  0
 14  7  1  0
 15 16  2  0
 15 13  1  0
 17 15  1  0
 18 17  1  0
 18 19  1  1
 20 19  1  0
 20 21  2  0
 22 18  1  0
 23 22  1  0
 24 20  1  0
 25 22  2  0
M  END
$$$$
