LND.pdb
     RDKit          3D

 25 24  0  0  1  0  0  0  0  0999 V2000
    7.4364  -11.7406   27.0511 C   0  0  0  0  0  0  0  0  0  0  0  0
    6.5531  -12.1168   25.8729 C   0  0  2  0  0  0  0  0  0  0  0  0
    5.3542  -11.1808   25.9470 C   0  0  0  0  0  0  0  0  0  0  0  0
    6.1544  -13.5667   25.9201 C   0  0  0  0  0  0  0  0  0  0  0  0
    7.3845  -14.4320   25.9926 C   0  0  2  0  0  0  0  0  0  0  0  0
    8.4684  -13.7632   25.3021 N   0  0  0  0  0  0  0  0  0  0  0  0
    7.1906  -15.7688   25.4242 C   0  0  0  0  0  0  0  0  0  0  0  0
    6.2370  -16.4856   25.8505 O   0  0  0  0  0  0  0  0  0  0  0  0
    7.2759  -20.0320   22.3297 N   0  0  0  0  0  0  0  0  0  0  0  0
    7.4765  -18.7991   21.6557 C   0  0  0  0  0  0  0  0  0  0  0  0
    7.4128  -18.8093   20.4167 O   0  0  0  0  0  0  0  0  0  0  0  0
    7.7460  -17.5809   22.4225 C   0  0  0  0  0  0  0  0  0  0  0  0
    7.7868  -17.7189   23.9098 C   0  0  2  0  0  0  0  0  0  0  0  0
    7.9897  -16.3460   24.4186 N   0  0  0  0  0  0  0  0  0  0  0  0
    8.8976  -18.5747   24.4153 C   0  0  0  0  0  0  0  0  0  0  0  0
    8.8485  -19.8003   24.1722 O   0  0  0  0  0  0  0  0  0  0  0  0
    9.9851  -18.0466   25.1488 N   0  0  0  0  0  0  0  0  0  0  0  0
   11.0136  -18.9896   25.6371 C   0  0  1  0  0  0  0  0  0  0  0  0
   12.3427  -18.2991   25.5129 C   0  0  0  0  0  0  0  0  0  0  0  0
   12.7801  -18.0244   24.1538 C   0  0  0  0  0  0  0  0  0  0  0  0
   12.2736  -18.4226   23.1037 O   0  0  0  0  0  0  0  0  0  0  0  0
   10.7045  -19.2928   27.0791 C   0  0  0  0  0  0  0  0  0  0  0  0
    9.6693  -18.6818   27.7381 O   0  0  0  0  0  0  0  0  0  0  0  0
   13.9215  -17.2037   24.0018 O   0  0  0  0  0  0  0  0  0  0  0  0
   11.3979  -20.1243   27.7228 O   0  0  0  0  0  0  0  0  0  0  0  0
  2  1  1  1
  3  2  1  0
  4  5  1  0
  4  2  1  0
  5  6  1  6
  7  5  1  0
  7  8  2  0
 10  9  1  0
 10 12  1  0
 11 10  2  0
 13 12  1  6
 13 14  1  0
 14  7  1  0
 15 16  2  0
 15 13  1  0
 17 15  1  0
 18 17  1  0
 18 19  1  1
 20 19  1  0
 20 21  2  0
 22 18  1  0
 23 22  1  0
 24 20  1  0
 25 22  2  0
M  END
$$$$
