LND.pdb
     RDKit          3D

 25 24  0  0  1  0  0  0  0  0999 V2000
    7.3164  -12.1294   27.3583 C   0  0  0  0  0  0  0  0  0  0  0  0
    6.6087  -12.4849   26.0611 C   0  0  2  0  0  0  0  0  0  0  0  0
    5.3228  -11.6691   26.0614 C   0  0  0  0  0  0  0  0  0  0  0  0
    6.3515  -13.9637   25.9576 C   0  0  0  0  0  0  0  0  0  0  0  0
    7.6575  -14.7001   25.8185 C   0  0  2  0  0  0  0  0  0  0  0  0
    8.7420  -13.7403   25.8538 N   0  0  0  0  0  0  0  0  0  0  0  0
    7.7480  -15.4987   24.5931 C   0  0  0  0  0  0  0  0  0  0  0  0
    6.9276  -16.4478   24.4158 O   0  0  0  0  0  0  0  0  0  0  0  0
    6.2603  -15.4406   21.8294 N   0  0  0  0  0  0  0  0  0  0  0  0
    7.3061  -15.0630   20.9472 C   0  0  0  0  0  0  0  0  0  0  0  0
    7.0017  -14.3667   19.9665 O   0  0  0  0  0  0  0  0  0  0  0  0
    8.6799  -15.4951   21.2130 C   0  0  0  0  0  0  0  0  0  0  0  0
    8.9087  -16.2705   22.4697 C   0  0  2  0  0  0  0  0  0  0  0  0
    8.6900  -15.3023   23.5650 N   0  0  0  0  0  0  0  0  0  0  0  0
   10.2850  -16.8268   22.6041 C   0  0  0  0  0  0  0  0  0  0  0  0
   10.6461  -17.6983   21.7834 O   0  0  0  0  0  0  0  0  0  0  0  0
   11.1764  -16.4025   23.6166 N   0  0  0  0  0  0  0  0  0  0  0  0
   12.5123  -17.0333   23.6716 C   0  0  1  0  0  0  0  0  0  0  0  0
   13.5251  -15.9469   23.4422 C   0  0  0  0  0  0  0  0  0  0  0  0
   14.9120  -16.3820   23.4071 C   0  0  0  0  0  0  0  0  0  0  0  0
   15.3510  -17.4721   23.0371 O   0  0  0  0  0  0  0  0  0  0  0  0
   12.6761  -17.6323   25.0432 C   0  0  0  0  0  0  0  0  0  0  0  0
   11.6800  -17.5652   25.9825 O   0  0  0  0  0  0  0  0  0  0  0  0
   15.8853  -15.4553   23.8465 O   0  0  0  0  0  0  0  0  0  0  0  0
   13.7451  -18.2156   25.3650 O   0  0  0  0  0  0  0  0  0  0  0  0
  2  1  1  1
  3  2  1  0
  4  5  1  0
  4  2  1  0
  5  6  1  6
  7  5  1  0
  7  8  2  0
 10  9  1  0
 10 12  1  0
 11 10  2  0
 13 12  1  6
 13 14  1  0
 14  7  1  0
 15 16  2  0
 15 13  1  0
 17 15  1  0
 18 17  1  0
 18 19  1  1
 20 19  1  0
 20 21  2  0
 22 18  1  0
 23 22  1  0
 24 20  1  0
 25 22  2  0
M  END
$$$$
