LND.pdb
     RDKit          3D

 25 24  0  0  1  0  0  0  0  0999 V2000
    8.5066  -12.4649   20.7561 C   0  0  0  0  0  0  0  0  0  0  0  0
    7.9886  -13.6336   19.9340 C   0  0  2  0  0  0  0  0  0  0  0  0
    6.6106  -13.2088   19.4447 C   0  0  0  0  0  0  0  0  0  0  0  0
    7.9464  -14.9028   20.7409 C   0  0  0  0  0  0  0  0  0  0  0  0
    9.3126  -15.1967   21.3013 C   0  0  2  0  0  0  0  0  0  0  0  0
   10.3041  -14.9387   20.2770 N   0  0  0  0  0  0  0  0  0  0  0  0
    9.4581  -16.5703   21.7910 C   0  0  0  0  0  0  0  0  0  0  0  0
    8.6138  -17.0193   22.6221 O   0  0  0  0  0  0  0  0  0  0  0  0
    8.9370  -20.0537   19.3686 N   0  0  0  0  0  0  0  0  0  0  0  0
   10.2240  -19.4717   19.5079 C   0  0  0  0  0  0  0  0  0  0  0  0
   10.6556  -18.8065   18.5537 O   0  0  0  0  0  0  0  0  0  0  0  0
   10.9866  -19.6680   20.7426 C   0  0  0  0  0  0  0  0  0  0  0  0
   10.5782  -18.8462   21.9219 C   0  0  2  0  0  0  0  0  0  0  0  0
   10.4792  -17.4626   21.4114 N   0  0  0  0  0  0  0  0  0  0  0  0
   11.5557  -18.8615   23.0471 C   0  0  0  0  0  0  0  0  0  0  0  0
   11.8604  -19.9687   23.5418 O   0  0  0  0  0  0  0  0  0  0  0  0
   12.1366  -17.6786   23.5600 N   0  0  0  0  0  0  0  0  0  0  0  0
   13.0362  -17.7990   24.7270 C   0  0  1  0  0  0  0  0  0  0  0  0
   14.0291  -16.6743   24.6390 C   0  0  0  0  0  0  0  0  0  0  0  0
   14.9292  -16.7223   23.4982 C   0  0  0  0  0  0  0  0  0  0  0  0
   15.6335  -17.6648   23.1328 O   0  0  0  0  0  0  0  0  0  0  0  0
   12.1923  -17.6678   25.9670 C   0  0  0  0  0  0  0  0  0  0  0  0
   12.6964  -17.9356   27.2133 O   0  0  0  0  0  0  0  0  0  0  0  0
   15.0180  -15.5567   22.7028 O   0  0  0  0  0  0  0  0  0  0  0  0
   10.9886  -17.3052   25.8884 O   0  0  0  0  0  0  0  0  0  0  0  0
  2  1  1  1
  3  2  1  0
  4  5  1  0
  4  2  1  0
  5  6  1  6
  7  5  1  0
  7  8  2  0
 10  9  1  0
 10 12  1  0
 11 10  2  0
 13 12  1  6
 13 14  1  0
 14  7  1  0
 15 16  2  0
 15 13  1  0
 17 15  1  0
 18 17  1  0
 18 19  1  6
 20 19  1  0
 20 21  2  0
 22 18  1  0
 23 22  1  0
 24 20  1  0
 25 22  2  0
M  END
$$$$
