LND.pdb
     RDKit          3D

 25 24  0  0  1  0  0  0  0  0999 V2000
    8.4961  -12.1964   19.1096 C   0  0  0  0  0  0  0  0  0  0  0  0
    8.0839  -13.5048   19.7640 C   0  0  2  0  0  0  0  0  0  0  0  0
    7.2507  -13.1097   20.9759 C   0  0  0  0  0  0  0  0  0  0  0  0
    9.2795  -14.3392   20.1355 C   0  0  0  0  0  0  0  0  0  0  0  0
   10.0224  -14.7485   18.8915 C   0  0  2  0  0  0  0  0  0  0  0  0
    9.1492  -15.5637   18.0719 N   0  0  0  0  0  0  0  0  0  0  0  0
   11.2617  -15.4802   19.1674 C   0  0  0  0  0  0  0  0  0  0  0  0
   11.2259  -16.7446   19.2401 O   0  0  0  0  0  0  0  0  0  0  0  0
   14.9487  -13.7067   16.9959 N   0  0  0  0  0  0  0  0  0  0  0  0
   15.0173  -14.9189   17.7310 C   0  0  0  0  0  0  0  0  0  0  0  0
   15.1964  -15.9657   17.0896 O   0  0  0  0  0  0  0  0  0  0  0  0
   14.8783  -14.9000   19.1887 C   0  0  0  0  0  0  0  0  0  0  0  0
   13.7246  -15.6563   19.7631 C   0  0  2  0  0  0  0  0  0  0  0  0
   12.5250  -14.8902   19.3645 N   0  0  0  0  0  0  0  0  0  0  0  0
   13.7405  -15.7615   21.2499 C   0  0  0  0  0  0  0  0  0  0  0  0
   13.8874  -14.7090   21.9089 O   0  0  0  0  0  0  0  0  0  0  0  0
   13.5965  -16.9973   21.9220 N   0  0  0  0  0  0  0  0  0  0  0  0
   13.5958  -16.9852   23.4003 C   0  0  1  0  0  0  0  0  0  0  0  0
   12.8179  -18.1888   23.8528 C   0  0  0  0  0  0  0  0  0  0  0  0
   11.9630  -17.9820   25.0105 C   0  0  0  0  0  0  0  0  0  0  0  0
   11.8381  -16.9566   25.6819 O   0  0  0  0  0  0  0  0  0  0  0  0
   15.0278  -17.0751   23.8563 C   0  0  0  0  0  0  0  0  0  0  0  0
   15.4920  -16.3471   24.9211 O   0  0  0  0  0  0  0  0  0  0  0  0
   11.1742  -19.0786   25.4285 O   0  0  0  0  0  0  0  0  0  0  0  0
   15.8438  -17.8295   23.2635 O   0  0  0  0  0  0  0  0  0  0  0  0
  2  1  1  1
  3  2  1  0
  4  5  1  0
  4  2  1  0
  5  6  1  6
  7  5  1  0
  7  8  2  0
 10  9  1  0
 10 12  1  0
 11 10  2  0
 13 12  1  1
 13 14  1  0
 14  7  1  0
 15 16  2  0
 15 13  1  0
 17 15  1  0
 18 17  1  0
 18 19  1  1
 20 19  1  0
 20 21  2  0
 22 18  1  0
 23 22  1  0
 24 20  1  0
 25 22  2  0
M  END
$$$$
