LND.pdb
     RDKit          3D

 25 24  0  0  1  0  0  0  0  0999 V2000
    7.3865  -12.3057   27.7529 C   0  0  0  0  0  0  0  0  0  0  0  0
    6.9555  -12.5009   26.3086 C   0  0  2  0  0  0  0  0  0  0  0  0
    6.2385  -11.2149   25.9198 C   0  0  0  0  0  0  0  0  0  0  0  0
    6.0828  -13.7163   26.1503 C   0  0  0  0  0  0  0  0  0  0  0  0
    6.9405  -14.9372   25.9478 C   0  0  2  0  0  0  0  0  0  0  0  0
    8.2914  -14.6364   26.3761 N   0  0  0  0  0  0  0  0  0  0  0  0
    6.9589  -15.4126   24.5617 C   0  0  0  0  0  0  0  0  0  0  0  0
    5.9264  -15.2560   23.8444 O   0  0  0  0  0  0  0  0  0  0  0  0
    7.4277  -13.2928   20.1160 N   0  0  0  0  0  0  0  0  0  0  0  0
    8.4226  -14.0074   20.8330 C   0  0  0  0  0  0  0  0  0  0  0  0
    9.4932  -14.2359   20.2491 O   0  0  0  0  0  0  0  0  0  0  0  0
    8.1637  -14.4436   22.2068 C   0  0  0  0  0  0  0  0  0  0  0  0
    8.3588  -15.8961   22.4982 C   0  0  2  0  0  0  0  0  0  0  0  0
    8.0502  -16.0454   23.9361 N   0  0  0  0  0  0  0  0  0  0  0  0
    9.7465  -16.3869   22.2636 C   0  0  0  0  0  0  0  0  0  0  0  0
    9.9722  -17.0206   21.2095 O   0  0  0  0  0  0  0  0  0  0  0  0
   10.7950  -16.1588   23.1847 N   0  0  0  0  0  0  0  0  0  0  0  0
   11.8727  -17.1671   23.2703 C   0  0  1  0  0  0  0  0  0  0  0  0
   13.1769  -16.4208   23.2950 C   0  0  0  0  0  0  0  0  0  0  0  0
   13.6300  -15.9106   22.0112 C   0  0  0  0  0  0  0  0  0  0  0  0
   14.1340  -14.8122   21.7718 O   0  0  0  0  0  0  0  0  0  0  0  0
   11.6754  -17.9359   24.5497 C   0  0  0  0  0  0  0  0  0  0  0  0
   10.6437  -17.6549   25.4075 O   0  0  0  0  0  0  0  0  0  0  0  0
   13.4818  -16.7646   20.8940 O   0  0  0  0  0  0  0  0  0  0  0  0
   12.4630  -18.8662   24.8672 O   0  0  0  0  0  0  0  0  0  0  0  0
  2  1  1  1
  3  2  1  0
  4  5  1  0
  4  2  1  0
  5  6  1  6
  7  5  1  0
  7  8  2  0
 10  9  1  0
 10 12  1  0
 11 10  2  0
 13 12  1  1
 13 14  1  0
 14  7  1  0
 15 16  2  0
 15 13  1  0
 17 15  1  0
 18 17  1  0
 18 19  1  1
 20 19  1  0
 20 21  2  0
 22 18  1  0
 23 22  1  0
 24 20  1  0
 25 22  2  0
M  END
$$$$
