LND.pdb
     RDKit          3D

 25 24  0  0  1  0  0  0  0  0999 V2000
    9.3291  -12.4982   18.8871 C   0  0  0  0  0  0  0  0  0  0  0  0
    8.0071  -13.1776   19.2043 C   0  0  2  0  0  0  0  0  0  0  0  0
    7.0582  -12.0560   19.6052 C   0  0  0  0  0  0  0  0  0  0  0  0
    8.1617  -14.2136   20.2842 C   0  0  0  0  0  0  0  0  0  0  0  0
    9.3339  -15.1054   19.9716 C   0  0  2  0  0  0  0  0  0  0  0  0
    9.0803  -15.7903   18.7205 N   0  0  0  0  0  0  0  0  0  0  0  0
    9.6143  -16.0884   21.0217 C   0  0  0  0  0  0  0  0  0  0  0  0
    9.7306  -15.6921   22.2195 O   0  0  0  0  0  0  0  0  0  0  0  0
   10.4204  -20.6299   23.6598 N   0  0  0  0  0  0  0  0  0  0  0  0
    9.6034  -20.7902   22.5103 C   0  0  0  0  0  0  0  0  0  0  0  0
    9.0128  -21.8731   22.3766 O   0  0  0  0  0  0  0  0  0  0  0  0
    9.4837  -19.7004   21.5394 C   0  0  0  0  0  0  0  0  0  0  0  0
   10.1580  -18.4134   21.8880 C   0  0  2  0  0  0  0  0  0  0  0  0
    9.7704  -17.4726   20.8158 N   0  0  0  0  0  0  0  0  0  0  0  0
   11.6460  -18.4924   21.9266 C   0  0  0  0  0  0  0  0  0  0  0  0
   12.2322  -18.9686   20.9300 O   0  0  0  0  0  0  0  0  0  0  0  0
   12.3979  -18.0511   23.0399 N   0  0  0  0  0  0  0  0  0  0  0  0
   13.8697  -18.1741   22.9738 C   0  0  1  0  0  0  0  0  0  0  0  0
   14.4162  -16.8043   22.6843 C   0  0  0  0  0  0  0  0  0  0  0  0
   15.7766  -16.7690   22.1727 C   0  0  0  0  0  0  0  0  0  0  0  0
   16.3001  -17.5422   21.3689 O   0  0  0  0  0  0  0  0  0  0  0  0
   14.3457  -18.6641   24.3154 C   0  0  0  0  0  0  0  0  0  0  0  0
   15.4995  -19.3922   24.4488 O   0  0  0  0  0  0  0  0  0  0  0  0
   16.6113  -15.7293   22.6436 O   0  0  0  0  0  0  0  0  0  0  0  0
   13.6875  -18.4149   25.3600 O   0  0  0  0  0  0  0  0  0  0  0  0
  2  1  1  1
  3  2  1  0
  4  5  1  0
  4  2  1  0
  5  6  1  6
  7  5  1  0
  7  8  2  0
 10  9  1  0
 10 12  1  0
 11 10  2  0
 13 12  1  6
 13 14  1  0
 14  7  1  0
 15 16  2  0
 15 13  1  0
 17 15  1  0
 18 17  1  0
 18 19  1  1
 20 19  1  0
 20 21  2  0
 22 18  1  0
 23 22  1  0
 24 20  1  0
 25 22  2  0
M  END
$$$$
