LND.pdb
     RDKit          3D

 25 24  0  0  1  0  0  0  0  0999 V2000
    6.6554  -12.4187   27.8534 C   0  0  0  0  0  0  0  0  0  0  0  0
    7.0370  -12.0814   26.4214 C   0  0  2  0  0  0  0  0  0  0  0  0
    6.4878  -10.6832   26.1717 C   0  0  0  0  0  0  0  0  0  0  0  0
    6.4942  -13.0944   25.4503 C   0  0  0  0  0  0  0  0  0  0  0  0
    7.3795  -14.3122   25.4353 C   0  0  2  0  0  0  0  0  0  0  0  0
    8.7068  -13.9313   25.8736 N   0  0  0  0  0  0  0  0  0  0  0  0
    7.4619  -14.9562   24.1215 C   0  0  0  0  0  0  0  0  0  0  0  0
    6.4378  -15.5406   23.6580 O   0  0  0  0  0  0  0  0  0  0  0  0
    7.7942  -12.4092   20.9171 N   0  0  0  0  0  0  0  0  0  0  0  0
    7.5935  -13.8132   20.8610 C   0  0  0  0  0  0  0  0  0  0  0  0
    6.4286  -14.2181   20.7254 O   0  0  0  0  0  0  0  0  0  0  0  0
    8.7383  -14.7210   20.9622 C   0  0  0  0  0  0  0  0  0  0  0  0
    8.6839  -15.7524   22.0420 C   0  0  2  0  0  0  0  0  0  0  0  0
    8.6077  -14.9858   23.3035 N   0  0  0  0  0  0  0  0  0  0  0  0
    9.8812  -16.6381   22.1037 C   0  0  0  0  0  0  0  0  0  0  0  0
   10.3888  -17.0112   21.0236 O   0  0  0  0  0  0  0  0  0  0  0  0
   10.4475  -17.0596   23.3291 N   0  0  0  0  0  0  0  0  0  0  0  0
   11.7586  -17.7412   23.2875 C   0  0  1  0  0  0  0  0  0  0  0  0
   12.7963  -16.6897   23.0114 C   0  0  0  0  0  0  0  0  0  0  0  0
   14.0629  -17.1814   22.4941 C   0  0  0  0  0  0  0  0  0  0  0  0
   15.0052  -17.6540   23.1318 O   0  0  0  0  0  0  0  0  0  0  0  0
   11.9861  -18.3720   24.6355 C   0  0  0  0  0  0  0  0  0  0  0  0
   11.4298  -17.8543   25.7765 O   0  0  0  0  0  0  0  0  0  0  0  0
   14.2516  -17.1168   21.0943 O   0  0  0  0  0  0  0  0  0  0  0  0
   12.7019  -19.4021   24.7493 O   0  0  0  0  0  0  0  0  0  0  0  0
  2  1  1  1
  3  2  1  0
  4  5  1  0
  4  2  1  0
  5  6  1  6
  7  5  1  0
  7  8  2  0
 10  9  1  0
 10 12  1  0
 11 10  2  0
 13 12  1  6
 13 14  1  0
 14  7  1  0
 15 16  2  0
 15 13  1  0
 17 15  1  0
 18 17  1  0
 18 19  1  1
 20 19  1  0
 20 21  2  0
 22 18  1  0
 23 22  1  0
 24 20  1  0
 25 22  2  0
M  END
$$$$
