LND.pdb
     RDKit          3D

 25 24  0  0  1  0  0  0  0  0999 V2000
    8.0469  -12.3355   18.6766 C   0  0  0  0  0  0  0  0  0  0  0  0
    8.1296  -13.3596   19.7966 C   0  0  2  0  0  0  0  0  0  0  0  0
    7.6459  -12.6366   21.0466 C   0  0  0  0  0  0  0  0  0  0  0  0
    9.5247  -13.9018   19.9495 C   0  0  0  0  0  0  0  0  0  0  0  0
    9.8942  -14.7093   18.7336 C   0  0  2  0  0  0  0  0  0  0  0  0
    8.8546  -15.6879   18.4880 N   0  0  0  0  0  0  0  0  0  0  0  0
   11.1879  -15.3869   18.8555 C   0  0  0  0  0  0  0  0  0  0  0  0
   11.2886  -16.5921   18.4779 O   0  0  0  0  0  0  0  0  0  0  0  0
   15.0688  -15.0779   16.7101 N   0  0  0  0  0  0  0  0  0  0  0  0
   14.8452  -14.0717   17.6859 C   0  0  0  0  0  0  0  0  0  0  0  0
   14.8000  -12.8958   17.2928 O   0  0  0  0  0  0  0  0  0  0  0  0
   14.6783  -14.4408   19.0932 C   0  0  0  0  0  0  0  0  0  0  0  0
   13.6675  -15.4993   19.3944 C   0  0  2  0  0  0  0  0  0  0  0  0
   12.3630  -14.8047   19.3684 N   0  0  0  0  0  0  0  0  0  0  0  0
   13.8307  -16.1394   20.7306 C   0  0  0  0  0  0  0  0  0  0  0  0
   14.7193  -17.0099   20.8572 O   0  0  0  0  0  0  0  0  0  0  0  0
   13.0218  -15.7945   21.8380 N   0  0  0  0  0  0  0  0  0  0  0  0
   13.1070  -16.6403   23.0475 C   0  0  1  0  0  0  0  0  0  0  0  0
   14.0359  -15.9501   24.0064 C   0  0  0  0  0  0  0  0  0  0  0  0
   15.4533  -16.0891   23.7137 C   0  0  0  0  0  0  0  0  0  0  0  0
   16.2225  -16.9660   24.1102 O   0  0  0  0  0  0  0  0  0  0  0  0
   11.7221  -16.7427   23.6291 C   0  0  0  0  0  0  0  0  0  0  0  0
   11.4669  -17.4779   24.7576 O   0  0  0  0  0  0  0  0  0  0  0  0
   16.0333  -15.1093   22.8754 O   0  0  0  0  0  0  0  0  0  0  0  0
   10.7528  -16.1491   23.0864 O   0  0  0  0  0  0  0  0  0  0  0  0
  2  1  1  6
  3  2  1  0
  4  5  1  0
  4  2  1  0
  5  6  1  1
  7  5  1  0
  7  8  2  0
 10  9  1  0
 10 12  1  0
 11 10  2  0
 13 12  1  1
 13 14  1  0
 14  7  1  0
 15 16  2  0
 15 13  1  0
 17 15  1  0
 18 17  1  0
 18 19  1  1
 20 19  1  0
 20 21  2  0
 22 18  1  0
 23 22  1  0
 24 20  1  0
 25 22  2  0
M  END
$$$$
