LND.pdb
     RDKit          3D

 25 24  0  0  1  0  0  0  0  0999 V2000
    5.0204  -21.1331   18.8966 C   0  0  0  0  0  0  0  0  0  0  0  0
    4.8714  -19.7691   18.2429 C   0  0  2  0  0  0  0  0  0  0  0  0
    4.0090  -20.0003   17.0093 C   0  0  0  0  0  0  0  0  0  0  0  0
    6.2085  -19.1675   17.9053 C   0  0  0  0  0  0  0  0  0  0  0  0
    6.9967  -18.9356   19.1670 C   0  0  2  0  0  0  0  0  0  0  0  0
    6.0938  -18.4863   20.2070 N   0  0  0  0  0  0  0  0  0  0  0  0
    8.0821  -17.9643   19.0054 C   0  0  0  0  0  0  0  0  0  0  0  0
    8.9747  -18.1796   18.1324 O   0  0  0  0  0  0  0  0  0  0  0  0
    9.0248  -12.0678   19.1563 N   0  0  0  0  0  0  0  0  0  0  0  0
    9.4879  -13.3794   18.8739 C   0  0  0  0  0  0  0  0  0  0  0  0
   10.6266  -13.4915   18.3943 O   0  0  0  0  0  0  0  0  0  0  0  0
    8.6301  -14.5339   19.1496 C   0  0  0  0  0  0  0  0  0  0  0  0
    9.3172  -15.8065   19.5252 C   0  0  2  0  0  0  0  0  0  0  0  0
    8.2281  -16.7797   19.7526 N   0  0  0  0  0  0  0  0  0  0  0  0
   10.1333  -15.7178   20.7693 C   0  0  0  0  0  0  0  0  0  0  0  0
    9.6002  -15.2179   21.7839 O   0  0  0  0  0  0  0  0  0  0  0  0
   11.4698  -16.1757   20.8311 N   0  0  0  0  0  0  0  0  0  0  0  0
   12.2142  -15.9708   22.0918 C   0  0  1  0  0  0  0  0  0  0  0  0
   12.6189  -17.3285   22.5932 C   0  0  0  0  0  0  0  0  0  0  0  0
   12.4680  -17.5374   24.0241 C   0  0  0  0  0  0  0  0  0  0  0  0
   13.1444  -17.0521   24.9323 O   0  0  0  0  0  0  0  0  0  0  0  0
   13.4273  -15.1380   21.7733 C   0  0  0  0  0  0  0  0  0  0  0  0
   14.1228  -14.4744   22.7506 O   0  0  0  0  0  0  0  0  0  0  0  0
   11.4251  -18.3971   24.4395 O   0  0  0  0  0  0  0  0  0  0  0  0
   13.8372  -15.0288   20.5873 O   0  0  0  0  0  0  0  0  0  0  0  0
  2  1  1  6
  3  2  1  0
  4  5  1  0
  4  2  1  0
  5  6  1  1
  7  5  1  0
  7  8  2  0
 10  9  1  0
 10 12  1  0
 11 10  2  0
 13 12  1  1
 13 14  1  0
 14  7  1  0
 15 16  2  0
 15 13  1  0
 17 15  1  0
 18 17  1  0
 18 19  1  6
 20 19  1  0
 20 21  2  0
 22 18  1  0
 23 22  1  0
 24 20  1  0
 25 22  2  0
M  END
$$$$
