LND.pdb
     RDKit          3D

 25 24  0  0  1  0  0  0  0  0999 V2000
    9.1662  -12.1784   19.3621 C   0  0  0  0  0  0  0  0  0  0  0  0
    8.1504  -13.2278   18.9417 C   0  0  2  0  0  0  0  0  0  0  0  0
    6.8610  -12.4631   18.6744 C   0  0  0  0  0  0  0  0  0  0  0  0
    7.9819  -14.2889   19.9950 C   0  0  0  0  0  0  0  0  0  0  0  0
    9.3227  -14.8779   20.3448 C   0  0  2  0  0  0  0  0  0  0  0  0
   10.0112  -15.2339   19.1209 N   0  0  0  0  0  0  0  0  0  0  0  0
    9.2334  -16.0518   21.2175 C   0  0  0  0  0  0  0  0  0  0  0  0
    8.5636  -15.9711   22.2899 O   0  0  0  0  0  0  0  0  0  0  0  0
    7.2994  -19.6661   20.2060 N   0  0  0  0  0  0  0  0  0  0  0  0
    8.6892  -19.5887   19.9288 C   0  0  0  0  0  0  0  0  0  0  0  0
    9.0284  -19.4704   18.7412 O   0  0  0  0  0  0  0  0  0  0  0  0
    9.6588  -19.6492   21.0246 C   0  0  0  0  0  0  0  0  0  0  0  0
    9.7608  -18.4414   21.8984 C   0  0  2  0  0  0  0  0  0  0  0  0
    9.8408  -17.2971   20.9661 N   0  0  0  0  0  0  0  0  0  0  0  0
   10.9677  -18.4182   22.7729 C   0  0  0  0  0  0  0  0  0  0  0  0
   11.1975  -19.4243   23.4789 O   0  0  0  0  0  0  0  0  0  0  0  0
   11.8432  -17.3088   22.8240 N   0  0  0  0  0  0  0  0  0  0  0  0
   12.9844  -17.3704   23.7617 C   0  0  1  0  0  0  0  0  0  0  0  0
   13.9376  -16.2757   23.3720 C   0  0  0  0  0  0  0  0  0  0  0  0
   14.5821  -16.4385   22.0790 C   0  0  0  0  0  0  0  0  0  0  0  0
   14.6147  -17.4489   21.3748 O   0  0  0  0  0  0  0  0  0  0  0  0
   12.4463  -17.1384   25.1486 C   0  0  0  0  0  0  0  0  0  0  0  0
   13.1711  -17.4617   26.2662 O   0  0  0  0  0  0  0  0  0  0  0  0
   15.2560  -15.3123   21.5528 O   0  0  0  0  0  0  0  0  0  0  0  0
   11.3035  -16.6364   25.3177 O   0  0  0  0  0  0  0  0  0  0  0  0
  2  1  1  1
  3  2  1  0
  4  5  1  0
  4  2  1  0
  5  6  1  6
  7  5  1  0
  7  8  2  0
 10  9  1  0
 10 12  1  0
 11 10  2  0
 13 12  1  6
 13 14  1  0
 14  7  1  0
 15 16  2  0
 15 13  1  0
 17 15  1  0
 18 17  1  0
 18 19  1  6
 20 19  1  0
 20 21  2  0
 22 18  1  0
 23 22  1  0
 24 20  1  0
 25 22  2  0
M  END
$$$$
