LND.pdb
     RDKit          3D

 25 24  0  0  1  0  0  0  0  0999 V2000
    8.5951  -14.3522   18.7496 C   0  0  0  0  0  0  0  0  0  0  0  0
    7.5899  -13.6288   19.6305 C   0  0  2  0  0  0  0  0  0  0  0  0
    7.3653  -12.2766   18.9672 C   0  0  0  0  0  0  0  0  0  0  0  0
    8.0848  -13.5001   21.0455 C   0  0  0  0  0  0  0  0  0  0  0  0
    8.1910  -14.8638   21.6748 C   0  0  2  0  0  0  0  0  0  0  0  0
    6.9726  -15.5998   21.4052 N   0  0  0  0  0  0  0  0  0  0  0  0
    8.4297  -14.8213   23.1201 C   0  0  0  0  0  0  0  0  0  0  0  0
    9.5214  -14.3426   23.5490 O   0  0  0  0  0  0  0  0  0  0  0  0
    5.4610  -12.2922   26.1840 N   0  0  0  0  0  0  0  0  0  0  0  0
    6.6026  -13.1047   26.4099 C   0  0  0  0  0  0  0  0  0  0  0  0
    7.6192  -12.5495   26.8544 O   0  0  0  0  0  0  0  0  0  0  0  0
    6.5494  -14.5391   26.1192 C   0  0  0  0  0  0  0  0  0  0  0  0
    7.7877  -15.1562   25.5547 C   0  0  2  0  0  0  0  0  0  0  0  0
    7.5310  -15.2766   24.1040 N   0  0  0  0  0  0  0  0  0  0  0  0
    8.0948  -16.5129   26.0902 C   0  0  0  0  0  0  0  0  0  0  0  0
    7.2825  -17.4332   25.8519 O   0  0  0  0  0  0  0  0  0  0  0  0
    9.2590  -16.7814   26.8467 N   0  0  0  0  0  0  0  0  0  0  0  0
    9.5360  -18.1859   27.2156 C   0  0  1  0  0  0  0  0  0  0  0  0
    9.9519  -18.9001   25.9603 C   0  0  0  0  0  0  0  0  0  0  0  0
   11.3330  -18.6976   25.5538 C   0  0  0  0  0  0  0  0  0  0  0  0
   11.9087  -17.6283   25.3462 O   0  0  0  0  0  0  0  0  0  0  0  0
   10.6574  -18.1794   28.2202 C   0  0  0  0  0  0  0  0  0  0  0  0
   11.0173  -19.3105   28.9059 O   0  0  0  0  0  0  0  0  0  0  0  0
   12.1233  -19.8557   25.3708 O   0  0  0  0  0  0  0  0  0  0  0  0
   11.2993  -17.1221   28.4584 O   0  0  0  0  0  0  0  0  0  0  0  0
  2  1  1  6
  3  2  1  0
  4  5  1  0
  4  2  1  0
  5  6  1  1
  7  5  1  0
  7  8  2  0
 10  9  1  0
 10 12  1  0
 11 10  2  0
 13 12  1  1
 13 14  1  0
 14  7  1  0
 15 16  2  0
 15 13  1  0
 17 15  1  0
 18 17  1  0
 18 19  1  6
 20 19  1  0
 20 21  2  0
 22 18  1  0
 23 22  1  0
 24 20  1  0
 25 22  2  0
M  END
$$$$
