LND.pdb
     RDKit          3D

 25 24  0  0  1  0  0  0  0  0999 V2000
    7.3811  -11.9458   27.3209 C   0  0  0  0  0  0  0  0  0  0  0  0
    6.4187  -12.2925   26.1968 C   0  0  2  0  0  0  0  0  0  0  0  0
    5.0414  -11.8777   26.6968 C   0  0  0  0  0  0  0  0  0  0  0  0
    6.4856  -13.7529   25.8410 C   0  0  0  0  0  0  0  0  0  0  0  0
    7.8860  -14.1119   25.4204 C   0  0  2  0  0  0  0  0  0  0  0  0
    8.4628  -12.9900   24.7080 N   0  0  0  0  0  0  0  0  0  0  0  0
    7.9528  -15.3125   24.5827 C   0  0  0  0  0  0  0  0  0  0  0  0
    7.3480  -16.3599   24.9602 O   0  0  0  0  0  0  0  0  0  0  0  0
    6.0802  -15.6999   21.0623 N   0  0  0  0  0  0  0  0  0  0  0  0
    7.4419  -15.3157   20.9498 C   0  0  0  0  0  0  0  0  0  0  0  0
    7.6788  -14.1343   20.6541 O   0  0  0  0  0  0  0  0  0  0  0  0
    8.5017  -16.2998   21.1802 C   0  0  0  0  0  0  0  0  0  0  0  0
    8.7743  -16.6728   22.6012 C   0  0  2  0  0  0  0  0  0  0  0  0
    8.6471  -15.4116   23.3616 N   0  0  0  0  0  0  0  0  0  0  0  0
   10.1375  -17.2271   22.8382 C   0  0  0  0  0  0  0  0  0  0  0  0
   10.4017  -18.3529   22.3624 O   0  0  0  0  0  0  0  0  0  0  0  0
   11.1215  -16.5262   23.5732 N   0  0  0  0  0  0  0  0  0  0  0  0
   12.3818  -17.2311   23.8898 C   0  0  1  0  0  0  0  0  0  0  0  0
   13.4907  -16.2212   23.7930 C   0  0  0  0  0  0  0  0  0  0  0  0
   14.5180  -16.5130   22.8065 C   0  0  0  0  0  0  0  0  0  0  0  0
   14.6024  -17.5012   22.0756 O   0  0  0  0  0  0  0  0  0  0  0  0
   12.2660  -17.7609   25.2943 C   0  0  0  0  0  0  0  0  0  0  0  0
   11.2287  -17.4034   26.1161 O   0  0  0  0  0  0  0  0  0  0  0  0
   15.5505  -15.5588   22.6555 O   0  0  0  0  0  0  0  0  0  0  0  0
   13.1296  -18.5542   25.7541 O   0  0  0  0  0  0  0  0  0  0  0  0
  2  1  1  1
  3  2  1  0
  4  5  1  0
  4  2  1  0
  5  6  1  6
  7  5  1  0
  7  8  2  0
 10  9  1  0
 10 12  1  0
 11 10  2  0
 13 12  1  6
 13 14  1  0
 14  7  1  0
 15 16  2  0
 15 13  1  0
 17 15  1  0
 18 17  1  0
 18 19  1  1
 20 19  1  0
 20 21  2  0
 22 18  1  0
 23 22  1  0
 24 20  1  0
 25 22  2  0
M  END
$$$$
