RSA.pdb
     RDKit          3D

 23 22  0  0  1  0  0  0  0  0999 V2000
   12.3953  -12.9773  -13.1788 N   0  0  0  0  0  0  0  0  0  0  0  0
   12.1674  -13.8503  -14.2863 C   0  0  0  0  0  0  0  0  0  0  0  0
   11.0323  -14.4107  -14.3882 N   0  0  0  0  0  0  0  0  0  0  0  0
   13.1922  -14.0622  -15.2198 N   0  0  0  0  0  0  0  0  0  0  0  0
   14.4950  -13.4682  -15.0323 C   0  0  0  0  0  0  0  0  0  0  0  0
   15.4247  -13.8602  -16.1379 C   0  0  0  0  0  0  0  0  0  0  0  0
   16.7715  -13.2754  -16.0357 C   0  0  0  0  0  0  0  0  0  0  0  0
   17.7315  -13.7579  -17.0821 C   0  0  2  0  0  0  0  0  0  0  0  0
   18.0382  -15.1239  -16.9092 N   0  0  0  0  0  0  0  0  0  0  0  0
   18.9110  -12.8561  -17.0287 C   0  0  0  0  0  0  0  0  0  0  0  0
   19.8780  -13.2101  -16.3036 O   0  0  0  0  0  0  0  0  0  0  0  0
   10.7207  -15.0514  -15.1319 O   0  0  0  0  0  0  0  0  0  0  0  0
   18.9706   -8.9540  -18.5920 C   0  0  0  0  0  0  0  0  0  0  0  0
   20.0393   -9.8075  -18.8462 C   0  0  1  0  0  0  0  0  0  0  0  0
   20.2206  -10.8097  -17.7159 N   0  0  0  0  0  0  0  0  0  0  0  0
   19.0310  -11.6396  -17.7236 C   0  0  0  0  0  0  0  0  0  0  0  0
   20.4092  -10.1475  -16.4195 O   0  0  0  0  0  0  0  0  0  0  0  0
   19.3512   -9.8833  -15.7472 C   0  0  0  0  0  0  0  0  0  0  0  0
   23.0463   -9.6846  -13.9179 C   0  0  2  0  0  0  0  0  0  0  0  0
   21.8303   -9.1203  -14.6391 N   0  0  0  0  0  0  0  0  0  0  0  0
   21.6779   -9.7954  -15.8892 C   0  0  0  0  0  0  0  0  0  0  0  0
   21.8364   -7.6597  -14.7373 O   0  0  0  0  0  0  0  0  0  0  0  0
   21.9779   -7.0040  -15.8086 O   0  0  0  0  0  0  0  0  0  0  0  0
  1  2  1  0
  2  3  2  0
  2  4  1  0
  4  5  1  0
  6  5  1  0
  6  7  1  0
  7  8  1  0
  8  9  1  1
 10  8  1  0
 10 15  1  0
 11 10  2  0
 12 13  1  0
 14 13  1  6
 14 15  1  0
 14 16  1  0
 16 17  2  0
 16 20  1  0
 19 18  1  1
 19 21  1  0
 20 19  1  0
 21 23  1  0
 22 21  2  0
M  END
$$$$
