RSA.pdb
     RDKit          3D

 23 22  0  0  1  0  0  0  0  0999 V2000
   28.1469  -10.8572  -21.2786 N   0  0  0  0  0  0  0  0  0  0  0  0
   27.2714  -11.7724  -21.9392 C   0  0  0  0  0  0  0  0  0  0  0  0
   27.7836  -12.7569  -22.5568 N   0  0  0  0  0  0  0  0  0  0  0  0
   25.8861  -11.5607  -21.8882 N   0  0  0  0  0  0  0  0  0  0  0  0
   25.3259  -10.5502  -21.0219 C   0  0  0  0  0  0  0  0  0  0  0  0
   24.2215  -11.1166  -20.1854 C   0  0  0  0  0  0  0  0  0  0  0  0
   23.6142  -10.1566  -19.2494 C   0  0  0  0  0  0  0  0  0  0  0  0
   22.5463  -10.7432  -18.3749 C   0  0  2  0  0  0  0  0  0  0  0  0
   21.8147  -11.7402  -19.0537 N   0  0  0  0  0  0  0  0  0  0  0  0
   21.7222   -9.6077  -17.8864 C   0  0  0  0  0  0  0  0  0  0  0  0
   21.2717   -8.8067  -18.7476 O   0  0  0  0  0  0  0  0  0  0  0  0
   27.2828  -13.4971  -23.0688 O   0  0  0  0  0  0  0  0  0  0  0  0
   20.1933   -9.5967  -14.1171 C   0  0  0  0  0  0  0  0  0  0  0  0
   19.5523   -8.8941  -15.1323 C   0  0  1  0  0  0  0  0  0  0  0  0
   20.5595   -8.2710  -16.0873 N   0  0  0  0  0  0  0  0  0  0  0  0
   21.4069   -9.3581  -16.5390 C   0  0  0  0  0  0  0  0  0  0  0  0
   21.3412   -7.2078  -15.4445 O   0  0  0  0  0  0  0  0  0  0  0  0
   22.4663   -7.5468  -14.9341 C   0  0  0  0  0  0  0  0  0  0  0  0
   21.1260   -3.4791  -15.0753 C   0  0  2  0  0  0  0  0  0  0  0  0
   21.6878   -4.8452  -14.7077 N   0  0  0  0  0  0  0  0  0  0  0  0
   20.9190   -5.8550  -15.3644 C   0  0  0  0  0  0  0  0  0  0  0  0
   21.8408   -5.0439  -13.2654 O   0  0  0  0  0  0  0  0  0  0  0  0
   21.1163   -5.7974  -12.5547 O   0  0  0  0  0  0  0  0  0  0  0  0
  1  2  1  0
  2  3  2  0
  2  4  1  0
  4  5  1  0
  6  5  1  0
  6  7  1  0
  7  8  1  0
  8  9  1  6
 10  8  1  0
 10 15  1  0
 11 10  2  0
 12 13  1  0
 14 13  1  6
 14 15  1  0
 14 16  1  0
 16 17  2  0
 16 20  1  0
 19 18  1  6
 19 21  1  0
 20 19  1  0
 21 23  1  0
 22 21  2  0
M  END
$$$$
