RSA.pdb
     RDKit          3D

 23 22  0  0  1  0  0  0  0  0999 V2000
   26.2583  -20.8074   -9.3420 N   0  0  0  0  0  0  0  0  0  0  0  0
   25.0487  -20.9956  -10.0783 C   0  0  0  0  0  0  0  0  0  0  0  0
   23.9441  -20.8061   -9.4809 N   0  0  0  0  0  0  0  0  0  0  0  0
   25.1138  -21.3802  -11.4252 N   0  0  0  0  0  0  0  0  0  0  0  0
   26.3881  -21.5839  -12.0733 C   0  0  0  0  0  0  0  0  0  0  0  0
   26.7368  -20.4176  -12.9441 C   0  0  0  0  0  0  0  0  0  0  0  0
   25.9546  -20.3325  -14.1881 C   0  0  0  0  0  0  0  0  0  0  0  0
   25.9393  -21.5987  -14.9917 C   0  0  2  0  0  0  0  0  0  0  0  0
   27.1038  -21.7241  -15.7779 N   0  0  0  0  0  0  0  0  0  0  0  0
   24.6744  -21.5951  -15.7709 C   0  0  0  0  0  0  0  0  0  0  0  0
   24.6813  -21.0044  -16.8832 O   0  0  0  0  0  0  0  0  0  0  0  0
   22.9986  -20.9412   -9.8663 O   0  0  0  0  0  0  0  0  0  0  0  0
   21.1322  -23.0256  -14.1988 C   0  0  0  0  0  0  0  0  0  0  0  0
   21.3765  -23.3000  -15.5405 C   0  0  1  0  0  0  0  0  0  0  0  0
   22.2634  -22.2331  -16.1650 N   0  0  0  0  0  0  0  0  0  0  0  0
   23.4717  -22.1990  -15.3633 C   0  0  0  0  0  0  0  0  0  0  0  0
   21.6028  -20.9228  -16.2029 O   0  0  0  0  0  0  0  0  0  0  0  0
   21.7473  -20.1737  -15.1737 C   0  0  0  0  0  0  0  0  0  0  0  0
   19.9072  -18.7923  -18.7633 C   0  0  2  0  0  0  0  0  0  0  0  0
   20.2221  -19.1660  -17.3216 N   0  0  0  0  0  0  0  0  0  0  0  0
   20.8309  -20.4585  -17.2999 C   0  0  0  0  0  0  0  0  0  0  0  0
   19.0790  -19.0205  -16.4186 O   0  0  0  0  0  0  0  0  0  0  0  0
   18.3954  -19.9759  -15.9520 O   0  0  0  0  0  0  0  0  0  0  0  0
  1  2  1  0
  2  3  2  0
  2  4  1  0
  4  5  1  0
  6  5  1  0
  6  7  1  0
  7  8  1  0
  8  9  1  6
 10  8  1  0
 10 15  1  0
 11 10  2  0
 12 13  1  0
 14 13  1  6
 14 15  1  0
 14 16  1  0
 16 17  2  0
 16 20  1  0
 19 18  1  6
 19 21  1  0
 20 19  1  0
 21 23  1  0
 22 21  2  0
M  END
$$$$
