RSA.pdb
     RDKit          3D

 23 22  0  0  1  0  0  0  0  0999 V2000
   22.5004  -14.7182  -22.2874 N   0  0  0  0  0  0  0  0  0  0  0  0
   22.7488  -15.9735  -21.6525 C   0  0  0  0  0  0  0  0  0  0  0  0
   22.1904  -17.0102  -22.1284 N   0  0  0  0  0  0  0  0  0  0  0  0
   23.5927  -16.0257  -20.5338 N   0  0  0  0  0  0  0  0  0  0  0  0
   24.1850  -14.8218  -20.0001 C   0  0  0  0  0  0  0  0  0  0  0  0
   25.6610  -14.7981  -20.2472 C   0  0  0  0  0  0  0  0  0  0  0  0
   26.3480  -13.6114  -19.7120 C   0  0  0  0  0  0  0  0  0  0  0  0
   27.2320  -13.8929  -18.5336 C   0  0  2  0  0  0  0  0  0  0  0  0
   27.3528  -15.2788  -18.2996 N   0  0  0  0  0  0  0  0  0  0  0  0
   26.6751  -13.1270  -17.3888 C   0  0  0  0  0  0  0  0  0  0  0  0
   25.9454  -13.7518  -16.5744 O   0  0  0  0  0  0  0  0  0  0  0  0
   22.2749  -17.9760  -21.7806 O   0  0  0  0  0  0  0  0  0  0  0  0
   28.2963   -9.5886  -16.1966 C   0  0  0  0  0  0  0  0  0  0  0  0
   27.6149  -10.4246  -15.3180 C   0  0  1  0  0  0  0  0  0  0  0  0
   26.3975  -11.0458  -15.9864 N   0  0  0  0  0  0  0  0  0  0  0  0
   26.8991  -11.7604  -17.1447 C   0  0  0  0  0  0  0  0  0  0  0  0
   25.4025  -10.0349  -16.3643 O   0  0  0  0  0  0  0  0  0  0  0  0
   25.6086   -9.4036  -17.4598 C   0  0  0  0  0  0  0  0  0  0  0  0
   22.1193   -8.7832  -15.0199 C   0  0  2  0  0  0  0  0  0  0  0  0
   23.2933   -8.7487  -15.9883 N   0  0  0  0  0  0  0  0  0  0  0  0
   24.2509   -9.7322  -15.5916 C   0  0  0  0  0  0  0  0  0  0  0  0
   23.8485   -7.4083  -16.1841 O   0  0  0  0  0  0  0  0  0  0  0  0
   23.2622   -6.4584  -16.7773 O   0  0  0  0  0  0  0  0  0  0  0  0
  1  2  1  0
  2  3  2  0
  2  4  1  0
  4  5  1  0
  6  5  1  0
  6  7  1  0
  7  8  1  0
  8  9  1  1
 10  8  1  0
 10 15  1  0
 11 10  2  0
 12 13  1  0
 14 13  1  1
 14 15  1  0
 14 16  1  0
 16 17  2  0
 16 20  1  0
 19 18  1  6
 19 21  1  0
 20 19  1  0
 21 23  1  0
 22 21  2  0
M  END
$$$$
