RSA.pdb
     RDKit          3D

 23 22  0  0  1  0  0  0  0  0999 V2000
   29.6436  -25.7365  -15.7911 N   0  0  0  0  0  0  0  0  0  0  0  0
   28.8829  -26.2125  -16.9025 C   0  0  0  0  0  0  0  0  0  0  0  0
   29.3253  -27.2099  -17.5525 N   0  0  0  0  0  0  0  0  0  0  0  0
   27.6823  -25.5721  -17.2415 N   0  0  0  0  0  0  0  0  0  0  0  0
   27.1588  -24.5046  -16.4219 C   0  0  0  0  0  0  0  0  0  0  0  0
   27.9395  -23.2438  -16.6249 C   0  0  0  0  0  0  0  0  0  0  0  0
   27.3514  -22.0552  -15.9863 C   0  0  0  0  0  0  0  0  0  0  0  0
   26.4521  -21.2577  -16.8834 C   0  0  2  0  0  0  0  0  0  0  0  0
   27.0130  -21.1020  -18.1684 N   0  0  0  0  0  0  0  0  0  0  0  0
   26.1721  -19.9790  -16.1808 C   0  0  0  0  0  0  0  0  0  0  0  0
   25.7383  -20.0500  -15.0005 O   0  0  0  0  0  0  0  0  0  0  0  0
   28.8860  -27.6659  -18.3648 O   0  0  0  0  0  0  0  0  0  0  0  0
   28.2536  -16.5939  -15.9948 C   0  0  0  0  0  0  0  0  0  0  0  0
   26.9955  -16.4189  -16.5621 C   0  0  2  0  0  0  0  0  0  0  0  0
   26.0140  -17.4625  -16.0500 N   0  0  0  0  0  0  0  0  0  0  0  0
   26.3532  -18.6976  -16.7307 C   0  0  0  0  0  0  0  0  0  0  0  0
   24.6202  -17.0741  -16.2978 O   0  0  0  0  0  0  0  0  0  0  0  0
   24.1495  -17.3255  -17.4625 C   0  0  0  0  0  0  0  0  0  0  0  0
   21.7541  -15.7439  -14.2688 C   0  0  2  0  0  0  0  0  0  0  0  0
   22.4207  -16.1283  -15.5822 N   0  0  0  0  0  0  0  0  0  0  0  0
   23.7903  -16.4488  -15.3308 C   0  0  0  0  0  0  0  0  0  0  0  0
   22.2151  -15.1476  -16.6494 O   0  0  0  0  0  0  0  0  0  0  0  0
   21.1745  -15.0555  -17.3611 O   0  0  0  0  0  0  0  0  0  0  0  0
  1  2  1  0
  2  3  2  0
  2  4  1  0
  4  5  1  0
  6  5  1  0
  6  7  1  0
  7  8  1  0
  8  9  1  6
 10  8  1  0
 10 15  1  0
 11 10  2  0
 12 13  1  0
 14 13  1  1
 14 15  1  0
 14 16  1  0
 16 17  2  0
 16 20  1  0
 19 18  1  1
 19 21  1  0
 20 19  1  0
 21 23  1  0
 22 21  2  0
M  END
$$$$
