RSA.pdb
     RDKit          3D

 23 22  0  0  1  0  0  0  0  0999 V2000
   26.4568  -20.7931   -9.5437 N   0  0  0  0  0  0  0  0  0  0  0  0
   25.0832  -20.6923   -9.9226 C   0  0  0  0  0  0  0  0  0  0  0  0
   24.2176  -20.5186   -9.0096 N   0  0  0  0  0  0  0  0  0  0  0  0
   24.7326  -20.7871  -11.2770 N   0  0  0  0  0  0  0  0  0  0  0  0
   25.7282  -21.0947  -12.2768 C   0  0  0  0  0  0  0  0  0  0  0  0
   26.2945  -19.8424  -12.8693 C   0  0  0  0  0  0  0  0  0  0  0  0
   27.2215  -20.0656  -13.9907 C   0  0  0  0  0  0  0  0  0  0  0  0
   26.6466  -20.8824  -15.1095 C   0  0  2  0  0  0  0  0  0  0  0  0
   26.7605  -22.2642  -14.8498 N   0  0  0  0  0  0  0  0  0  0  0  0
   27.3234  -20.4377  -16.3550 C   0  0  0  0  0  0  0  0  0  0  0  0
   28.0706  -21.2685  -16.9361 O   0  0  0  0  0  0  0  0  0  0  0  0
   23.1992  -20.4229   -9.1298 O   0  0  0  0  0  0  0  0  0  0  0  0
   25.5024  -19.2948  -19.3182 C   0  0  0  0  0  0  0  0  0  0  0  0
   26.8175  -19.7346  -19.2068 C   0  0  1  0  0  0  0  0  0  0  0  0
   27.6200  -18.8324  -18.2812 N   0  0  0  0  0  0  0  0  0  0  0  0
   27.1949  -19.1629  -16.9343 C   0  0  0  0  0  0  0  0  0  0  0  0
   27.4091  -17.4109  -18.5808 O   0  0  0  0  0  0  0  0  0  0  0  0
   26.3262  -16.8836  -18.1444 C   0  0  0  0  0  0  0  0  0  0  0  0
   29.2250  -14.7156  -20.4808 C   0  0  2  0  0  0  0  0  0  0  0  0
   28.0407  -15.2677  -19.6999 N   0  0  0  0  0  0  0  0  0  0  0  0
   28.3268  -16.6132  -19.3132 C   0  0  0  0  0  0  0  0  0  0  0  0
   26.7587  -15.0950  -20.3854 O   0  0  0  0  0  0  0  0  0  0  0  0
   26.2155  -15.9534  -21.1376 O   0  0  0  0  0  0  0  0  0  0  0  0
  1  2  1  0
  2  3  2  0
  2  4  1  0
  4  5  1  0
  6  5  1  0
  6  7  1  0
  7  8  1  0
  8  9  1  1
 10  8  1  0
 10 15  1  0
 11 10  2  0
 12 13  1  0
 14 13  1  1
 14 15  1  0
 14 16  1  0
 16 17  2  0
 16 20  1  0
 19 18  1  1
 19 21  1  0
 20 19  1  0
 21 23  1  0
 22 21  2  0
M  END
$$$$
