RSA.pdb
     RDKit          3D

 23 22  0  0  1  0  0  0  0  0999 V2000
   46.4733  -10.6413   -5.5777 N   0  0  0  0  0  0  0  0  0  0  0  0
   45.9689  -11.9010   -6.0243 C   0  0  0  0  0  0  0  0  0  0  0  0
   45.5668  -12.7323   -5.1524 N   0  0  0  0  0  0  0  0  0  0  0  0
   45.9323  -12.1816   -7.3977 N   0  0  0  0  0  0  0  0  0  0  0  0
   45.0166  -11.4833   -8.2690 C   0  0  0  0  0  0  0  0  0  0  0  0
   44.8029  -10.0773   -7.8024 C   0  0  0  0  0  0  0  0  0  0  0  0
   43.8173   -9.3187   -8.5896 C   0  0  0  0  0  0  0  0  0  0  0  0
   42.8081   -8.5797   -7.7621 C   0  0  2  0  0  0  0  0  0  0  0  0
   42.0488   -9.4626   -6.9661 N   0  0  0  0  0  0  0  0  0  0  0  0
   42.0021   -7.7595   -8.7028 C   0  0  0  0  0  0  0  0  0  0  0  0
   42.6276   -7.0426   -9.5280 O   0  0  0  0  0  0  0  0  0  0  0  0
   45.1444  -13.6559   -5.3235 O   0  0  0  0  0  0  0  0  0  0  0  0
   37.9085   -7.8383   -8.5627 C   0  0  0  0  0  0  0  0  0  0  0  0
   38.4808   -7.6319   -9.8137 C   0  0  1  0  0  0  0  0  0  0  0  0
   39.8290   -6.9376   -9.6913 N   0  0  0  0  0  0  0  0  0  0  0  0
   40.5970   -7.7214   -8.7429 C   0  0  0  0  0  0  0  0  0  0  0  0
   39.6912   -5.5432   -9.2538 O   0  0  0  0  0  0  0  0  0  0  0  0
   39.3821   -5.3517   -8.0253 C   0  0  0  0  0  0  0  0  0  0  0  0
   40.0868   -2.1272  -10.7775 C   0  0  2  0  0  0  0  0  0  0  0  0
   39.6198   -3.0836   -9.6891 N   0  0  0  0  0  0  0  0  0  0  0  0
   39.8801   -4.4249  -10.1073 C   0  0  0  0  0  0  0  0  0  0  0  0
   38.2435   -2.8425   -9.2523 O   0  0  0  0  0  0  0  0  0  0  0  0
   37.2257   -3.4529   -9.6872 O   0  0  0  0  0  0  0  0  0  0  0  0
  1  2  1  0
  2  3  2  0
  2  4  1  0
  4  5  1  0
  6  5  1  0
  6  7  1  0
  7  8  1  0
  8  9  1  6
 10  8  1  0
 10 15  1  0
 11 10  2  0
 12 13  1  0
 14 13  1  6
 14 15  1  0
 14 16  1  0
 16 17  2  0
 16 20  1  0
 19 18  1  1
 19 21  1  0
 20 19  1  0
 21 23  1  0
 22 21  2  0
M  END
$$$$
