RSA.pdb
     RDKit          3D

 23 22  0  0  1  0  0  0  0  0999 V2000
   17.6166  -14.0131  -20.6127 N   0  0  0  0  0  0  0  0  0  0  0  0
   18.4092  -14.3297  -21.7582 C   0  0  0  0  0  0  0  0  0  0  0  0
   17.8671  -14.9804  -22.7046 N   0  0  0  0  0  0  0  0  0  0  0  0
   19.7488  -13.9180  -21.8052 N   0  0  0  0  0  0  0  0  0  0  0  0
   20.3220  -13.1478  -20.7265 C   0  0  0  0  0  0  0  0  0  0  0  0
   20.5642  -11.7330  -21.1506 C   0  0  0  0  0  0  0  0  0  0  0  0
   21.0898  -10.8612  -20.0875 C   0  0  0  0  0  0  0  0  0  0  0  0
   22.5409  -11.0781  -19.7768 C   0  0  2  0  0  0  0  0  0  0  0  0
   22.8698  -12.4499  -19.7842 N   0  0  0  0  0  0  0  0  0  0  0  0
   22.8088  -10.3933  -18.4859 C   0  0  0  0  0  0  0  0  0  0  0  0
   22.6049  -11.0485  -17.4298 O   0  0  0  0  0  0  0  0  0  0  0  0
   18.3065  -15.2706  -23.5898 O   0  0  0  0  0  0  0  0  0  0  0  0
   25.2955   -7.1683  -18.2474 C   0  0  0  0  0  0  0  0  0  0  0  0
   25.1001   -8.0771  -17.2124 C   0  0  1  0  0  0  0  0  0  0  0  0
   23.6325   -8.4585  -17.0883 N   0  0  0  0  0  0  0  0  0  0  0  0
   23.2713   -9.0722  -18.3520 C   0  0  0  0  0  0  0  0  0  0  0  0
   22.7863   -7.2967  -16.7904 O   0  0  0  0  0  0  0  0  0  0  0  0
   22.3613   -6.6202  -17.7920 C   0  0  0  0  0  0  0  0  0  0  0  0
   20.9168   -5.9497  -13.8657 C   0  0  2  0  0  0  0  0  0  0  0  0
   21.5949   -5.7649  -15.2159 N   0  0  0  0  0  0  0  0  0  0  0  0
   22.4255   -6.8980  -15.4768 C   0  0  0  0  0  0  0  0  0  0  0  0
   22.2709   -4.4741  -15.3571 O   0  0  0  0  0  0  0  0  0  0  0  0
   23.5194   -4.2948  -15.2752 O   0  0  0  0  0  0  0  0  0  0  0  0
  1  2  1  0
  2  3  2  0
  2  4  1  0
  4  5  1  0
  6  5  1  0
  6  7  1  0
  7  8  1  0
  8  9  1  1
 10  8  1  0
 10 15  1  0
 11 10  2  0
 12 13  1  0
 14 13  1  1
 14 15  1  0
 14 16  1  0
 16 17  2  0
 16 20  1  0
 19 18  1  6
 19 21  1  0
 20 19  1  0
 21 23  1  0
 22 21  2  0
M  END
$$$$
