RSA.pdb
     RDKit          3D

 23 22  0  0  1  0  0  0  0  0999 V2000
   39.0123  -12.5055   -7.0662 N   0  0  0  0  0  0  0  0  0  0  0  0
   37.8377  -11.7587   -6.7449 C   0  0  0  0  0  0  0  0  0  0  0  0
   37.2714  -11.9771   -5.6293 N   0  0  0  0  0  0  0  0  0  0  0  0
   37.3480  -10.8159   -7.6601 N   0  0  0  0  0  0  0  0  0  0  0  0
   38.0946  -10.4879   -8.8518 C   0  0  0  0  0  0  0  0  0  0  0  0
   39.3105   -9.6825   -8.5154 C   0  0  0  0  0  0  0  0  0  0  0  0
   40.1530   -9.3411   -9.6730 C   0  0  0  0  0  0  0  0  0  0  0  0
   41.3631   -8.5234   -9.3319 C   0  0  2  0  0  0  0  0  0  0  0  0
   41.8061   -8.7823   -8.0179 N   0  0  0  0  0  0  0  0  0  0  0  0
   41.0058   -7.1041   -9.5869 C   0  0  0  0  0  0  0  0  0  0  0  0
   40.6500   -6.4100   -8.5981 O   0  0  0  0  0  0  0  0  0  0  0  0
   36.4213  -11.5237   -5.2653 O   0  0  0  0  0  0  0  0  0  0  0  0
   41.2589   -5.4187  -13.3831 C   0  0  0  0  0  0  0  0  0  0  0  0
   41.5604   -4.6487  -12.2644 C   0  0  1  0  0  0  0  0  0  0  0  0
   40.7276   -5.0760  -11.0650 N   0  0  0  0  0  0  0  0  0  0  0  0
   41.0338   -6.4766  -10.8450 C   0  0  0  0  0  0  0  0  0  0  0  0
   39.2924   -4.8654  -11.2895 O   0  0  0  0  0  0  0  0  0  0  0  0
   38.6472   -5.8259  -11.8395 C   0  0  0  0  0  0  0  0  0  0  0  0
   36.7849   -2.1337  -10.6424 C   0  0  2  0  0  0  0  0  0  0  0  0
   37.2173   -3.4748  -11.2182 N   0  0  0  0  0  0  0  0  0  0  0  0
   38.6031   -3.6765  -10.9341 C   0  0  0  0  0  0  0  0  0  0  0  0
   36.8571   -3.6481  -12.6265 O   0  0  0  0  0  0  0  0  0  0  0  0
   37.6303   -3.4420  -13.6050 O   0  0  0  0  0  0  0  0  0  0  0  0
  1  2  1  0
  2  3  2  0
  2  4  1  0
  4  5  1  0
  6  5  1  0
  6  7  1  0
  7  8  1  0
  8  9  1  1
 10  8  1  0
 10 15  1  0
 11 10  2  0
 12 13  1  0
 14 13  1  1
 14 15  1  0
 14 16  1  0
 16 17  2  0
 16 20  1  0
 19 18  1  1
 19 21  1  0
 20 19  1  0
 21 23  1  0
 22 21  2  0
M  END
$$$$
