RSA.pdb
     RDKit          3D

 23 22  0  0  1  0  0  0  0  0999 V2000
   30.7945  -25.2735  -18.6671 N   0  0  0  0  0  0  0  0  0  0  0  0
   31.0221  -25.4792  -17.2719 C   0  0  0  0  0  0  0  0  0  0  0  0
   31.7167  -26.4811  -16.9161 N   0  0  0  0  0  0  0  0  0  0  0  0
   30.4779  -24.5793  -16.3443 N   0  0  0  0  0  0  0  0  0  0  0  0
   29.7425  -23.4182  -16.7872 C   0  0  0  0  0  0  0  0  0  0  0  0
   28.6211  -23.8116  -17.6972 C   0  0  0  0  0  0  0  0  0  0  0  0
   27.2816  -23.4599  -17.1986 C   0  0  0  0  0  0  0  0  0  0  0  0
   26.9442  -24.0626  -15.8673 C   0  0  2  0  0  0  0  0  0  0  0  0
   27.0596  -25.4682  -15.8941 N   0  0  0  0  0  0  0  0  0  0  0  0
   25.5909  -23.5682  -15.5049 C   0  0  0  0  0  0  0  0  0  0  0  0
   24.6712  -24.4223  -15.4008 O   0  0  0  0  0  0  0  0  0  0  0  0
   31.9616  -26.7567  -15.9544 O   0  0  0  0  0  0  0  0  0  0  0  0
   22.9991  -19.9811  -13.5416 C   0  0  0  0  0  0  0  0  0  0  0  0
   24.1931  -20.4986  -14.0334 C   0  0  2  0  0  0  0  0  0  0  0  0
   23.9506  -21.7700  -14.8331 N   0  0  0  0  0  0  0  0  0  0  0  0
   25.2577  -22.2224  -15.2698 C   0  0  0  0  0  0  0  0  0  0  0  0
   23.0505  -21.5408  -15.9698 O   0  0  0  0  0  0  0  0  0  0  0  0
   23.5521  -20.9584  -16.9948 C   0  0  0  0  0  0  0  0  0  0  0  0
   19.6214  -22.5948  -17.0192 C   0  0  2  0  0  0  0  0  0  0  0  0
   20.8228  -21.6631  -17.0955 N   0  0  0  0  0  0  0  0  0  0  0  0
   21.6842  -21.9251  -15.9859 C   0  0  0  0  0  0  0  0  0  0  0  0
   20.4590  -20.2546  -17.2593 O   0  0  0  0  0  0  0  0  0  0  0  0
   20.2587  -19.4410  -16.3130 O   0  0  0  0  0  0  0  0  0  0  0  0
  1  2  1  0
  2  3  2  0
  2  4  1  0
  4  5  1  0
  6  5  1  0
  6  7  1  0
  7  8  1  0
  8  9  1  6
 10  8  1  0
 10 15  1  0
 11 10  2  0
 12 13  1  0
 14 13  1  1
 14 15  1  0
 14 16  1  0
 16 17  2  0
 16 20  1  0
 19 18  1  6
 19 21  1  0
 20 19  1  0
 21 23  1  0
 22 21  2  0
M  END
$$$$
