RSA.pdb
     RDKit          3D

 23 22  0  0  1  0  0  0  0  0999 V2000
   12.7589  -12.5916  -15.9555 N   0  0  0  0  0  0  0  0  0  0  0  0
   13.2423  -12.1172  -14.6978 C   0  0  0  0  0  0  0  0  0  0  0  0
   12.6586  -12.5107  -13.6407 N   0  0  0  0  0  0  0  0  0  0  0  0
   14.3357  -11.2398  -14.6656 N   0  0  0  0  0  0  0  0  0  0  0  0
   14.7380  -10.5190  -15.8505 C   0  0  0  0  0  0  0  0  0  0  0  0
   15.9527  -11.1399  -16.4665 C   0  0  0  0  0  0  0  0  0  0  0  0
   17.2275  -10.6862  -15.8872 C   0  0  0  0  0  0  0  0  0  0  0  0
   18.4432  -11.2472  -16.5630 C   0  0  2  0  0  0  0  0  0  0  0  0
   18.5749  -12.6307  -16.3210 N   0  0  0  0  0  0  0  0  0  0  0  0
   19.5998  -10.4348  -16.1054 C   0  0  0  0  0  0  0  0  0  0  0  0
   19.9484  -10.5510  -14.9007 O   0  0  0  0  0  0  0  0  0  0  0  0
   12.8762  -12.2357  -12.6723 O   0  0  0  0  0  0  0  0  0  0  0  0
   21.5414   -7.5657  -18.5175 C   0  0  0  0  0  0  0  0  0  0  0  0
   22.2717   -8.4359  -17.7145 C   0  0  1  0  0  0  0  0  0  0  0  0
   21.4952   -8.8046  -16.4592 N   0  0  0  0  0  0  0  0  0  0  0  0
   20.3344   -9.5473  -16.9117 C   0  0  0  0  0  0  0  0  0  0  0  0
   21.1098   -7.6195  -15.6836 O   0  0  0  0  0  0  0  0  0  0  0  0
   19.9865   -7.0778  -15.9772 C   0  0  0  0  0  0  0  0  0  0  0  0
   22.0810   -6.0315  -12.4849 C   0  0  2  0  0  0  0  0  0  0  0  0
   21.4855   -5.9290  -13.8821 N   0  0  0  0  0  0  0  0  0  0  0  0
   21.9040   -7.0598  -14.6488 C   0  0  0  0  0  0  0  0  0  0  0  0
   21.7296   -4.6374  -14.5266 O   0  0  0  0  0  0  0  0  0  0  0  0
   22.4438   -4.4616  -15.5545 O   0  0  0  0  0  0  0  0  0  0  0  0
  1  2  1  0
  2  3  2  0
  2  4  1  0
  4  5  1  0
  6  5  1  0
  6  7  1  0
  7  8  1  0
  8  9  1  1
 10  8  1  0
 10 15  1  0
 11 10  2  0
 12 13  1  0
 14 13  1  1
 14 15  1  0
 14 16  1  0
 16 17  2  0
 16 20  1  0
 19 18  1  1
 19 21  1  0
 20 19  1  0
 21 23  1  0
 22 21  2  0
M  END
$$$$
