HAL.pdb
     RDKit          3D

 24 24  0  0  1  0  0  0  0  0999 V2000
   25.6622  -18.1079  -16.7148 N   0  0  0  0  0  0  0  0  0  0  0  0
   26.2664  -17.8908  -15.4235 C   0  0  1  0  0  0  0  0  0  0  0  0
   26.4348  -16.4308  -15.1713 C   0  0  0  0  0  0  0  0  0  0  0  0
   27.1088  -15.7113  -16.2632 C   0  0  0  0  0  0  0  0  0  0  0  0
   26.6201  -14.7207  -17.0598 C   0  0  0  0  0  0  0  0  0  0  0  0
   27.5652  -14.3363  -17.9440 N   0  0  0  0  0  0  0  0  0  0  0  0
   28.6351  -15.0822  -17.7000 C   0  0  0  0  0  0  0  0  0  0  0  0
   28.3876  -15.9152  -16.6964 N   0  0  0  0  0  0  0  0  0  0  0  0
   25.5937  -18.6331  -14.3293 C   0  0  0  0  0  0  0  0  0  0  0  0
   24.5861  -18.1532  -13.7413 O   0  0  0  0  0  0  0  0  0  0  0  0
   25.3809  -22.1226  -13.3244 C   0  0  0  0  0  0  0  0  0  0  0  0
   25.4274  -20.6818  -12.8613 C   0  0  2  0  0  0  0  0  0  0  0  0
   26.0341  -19.8966  -13.8887 N   0  0  0  0  0  0  0  0  0  0  0  0
   26.2023  -20.5828  -11.5773 C   0  0  0  0  0  0  0  0  0  0  0  0
   27.4501  -20.5149  -11.5443 O   0  0  0  0  0  0  0  0  0  0  0  0
   26.4721  -19.9055   -6.1401 C   0  0  0  0  0  0  0  0  0  0  0  0
   27.5039  -19.6389   -7.2016 C   0  0  2  0  0  0  0  0  0  0  0  0
   28.2625  -18.3484   -6.8479 C   0  0  0  0  0  0  0  0  0  0  0  0
   26.9057  -19.5564   -8.5513 C   0  0  0  0  0  0  0  0  0  0  0  0
   26.1338  -20.7171   -9.0541 C   0  0  2  0  0  0  0  0  0  0  0  0
   25.5029  -20.5645  -10.3387 N   0  0  0  0  0  0  0  0  0  0  0  0
   25.1410  -21.2346   -8.0787 C   0  0  0  0  0  0  0  0  0  0  0  0
   23.9641  -20.8033   -8.0562 O   0  0  0  0  0  0  0  0  0  0  0  0
   25.4775  -22.2119   -7.1583 O   0  0  0  0  0  0  0  0  0  0  0  0
  2  1  1  6
  3  4  1  0
  3  2  1  0
  4  5  2  0
  6  5  1  0
  7  6  1  0
  8  7  2  0
  8  4  1  0
  9  2  1  0
 10  9  2  0
 12 11  1  6
 12 14  1  0
 12 13  1  0
 13  9  1  0
 14 21  1  0
 15 14  2  0
 17 16  1  1
 18 17  1  0
 19 17  1  0
 20 19  1  1
 20 22  1  0
 21 20  1  0
 22 23  2  0
 22 24  1  0
M  END
$$$$
