HAL.pdb
     RDKit          3D

 24 24  0  0  1  0  0  0  0  0999 V2000
   25.6168  -19.2574  -14.8385 N   0  0  0  0  0  0  0  0  0  0  0  0
   26.4977  -19.0320  -13.7192 C   0  0  1  0  0  0  0  0  0  0  0  0
   27.2445  -17.7539  -13.8993 C   0  0  0  0  0  0  0  0  0  0  0  0
   28.0879  -17.7212  -15.1042 C   0  0  0  0  0  0  0  0  0  0  0  0
   28.2865  -18.6983  -16.0318 C   0  0  0  0  0  0  0  0  0  0  0  0
   29.1427  -18.2619  -16.9801 N   0  0  0  0  0  0  0  0  0  0  0  0
   29.4752  -17.0217  -16.6456 C   0  0  0  0  0  0  0  0  0  0  0  0
   28.8561  -16.6733  -15.5241 N   0  0  0  0  0  0  0  0  0  0  0  0
   25.8240  -19.1737  -12.4050 C   0  0  0  0  0  0  0  0  0  0  0  0
   24.8082  -18.4834  -12.1170 O   0  0  0  0  0  0  0  0  0  0  0  0
   24.6829  -21.4161  -10.2475 C   0  0  0  0  0  0  0  0  0  0  0  0
   25.6718  -20.2749  -10.1370 C   0  0  2  0  0  0  0  0  0  0  0  0
   26.2723  -20.0723  -11.4170 N   0  0  0  0  0  0  0  0  0  0  0  0
   26.7095  -20.5970   -9.0985 C   0  0  0  0  0  0  0  0  0  0  0  0
   27.7036  -21.3164   -9.3368 O   0  0  0  0  0  0  0  0  0  0  0  0
   29.5091  -18.2554   -4.2563 C   0  0  0  0  0  0  0  0  0  0  0  0
   29.1338  -19.5157   -4.9865 C   0  0  2  0  0  0  0  0  0  0  0  0
   30.4175  -20.2300   -5.4425 C   0  0  0  0  0  0  0  0  0  0  0  0
   28.2333  -19.2501   -6.1288 C   0  0  0  0  0  0  0  0  0  0  0  0
   27.4570  -20.3788   -6.6938 C   0  0  2  0  0  0  0  0  0  0  0  0
   26.5704  -20.0698   -7.7847 N   0  0  0  0  0  0  0  0  0  0  0  0
   26.7197  -21.1611   -5.6694 C   0  0  0  0  0  0  0  0  0  0  0  0
   25.4709  -21.2657   -5.7039 O   0  0  0  0  0  0  0  0  0  0  0  0
   27.3831  -21.8037   -4.6387 O   0  0  0  0  0  0  0  0  0  0  0  0
  2  1  1  6
  3  4  1  0
  3  2  1  0
  4  5  2  0
  6  5  1  0
  7  6  1  0
  8  7  2  0
  8  4  1  0
  9  2  1  0
 10  9  2  0
 12 11  1  6
 12 14  1  0
 12 13  1  0
 13  9  1  0
 14 21  1  0
 15 14  2  0
 17 16  1  6
 18 17  1  0
 19 17  1  0
 20 19  1  1
 20 22  1  0
 21 20  1  0
 22 23  2  0
 22 24  1  0
M  END
$$$$
