HAL.pdb
     RDKit          3D

 24 24  0  0  1  0  0  0  0  0999 V2000
   18.7062  -12.1508  -15.9059 N   0  0  0  0  0  0  0  0  0  0  0  0
   19.3606  -11.1953  -16.7652 C   0  0  1  0  0  0  0  0  0  0  0  0
   18.3505  -10.4396  -17.5603 C   0  0  0  0  0  0  0  0  0  0  0  0
   17.4616  -11.2950  -18.3617 C   0  0  0  0  0  0  0  0  0  0  0  0
   16.1427  -11.5727  -18.1662 C   0  0  0  0  0  0  0  0  0  0  0  0
   15.7035  -12.4096  -19.1303 N   0  0  0  0  0  0  0  0  0  0  0  0
   16.7413  -12.6516  -19.9208 C   0  0  0  0  0  0  0  0  0  0  0  0
   17.8083  -11.9950  -19.4817 N   0  0  0  0  0  0  0  0  0  0  0  0
   20.3475  -10.3464  -16.0537 C   0  0  0  0  0  0  0  0  0  0  0  0
   19.9975   -9.6093  -15.0916 O   0  0  0  0  0  0  0  0  0  0  0  0
   24.0662  -10.1475  -16.0499 C   0  0  0  0  0  0  0  0  0  0  0  0
   22.7170   -9.5163  -15.7782 C   0  0  2  0  0  0  0  0  0  0  0  0
   21.7112  -10.3131  -16.4054 N   0  0  0  0  0  0  0  0  0  0  0  0
   22.6966   -8.1085  -16.3041 C   0  0  0  0  0  0  0  0  0  0  0  0
   22.3811   -7.8312  -17.4815 O   0  0  0  0  0  0  0  0  0  0  0  0
   20.3256   -4.3140  -15.2714 C   0  0  0  0  0  0  0  0  0  0  0  0
   21.3555   -4.6425  -14.2256 C   0  0  2  0  0  0  0  0  0  0  0  0
   21.2339   -3.6341  -13.0705 C   0  0  0  0  0  0  0  0  0  0  0  0
   22.7261   -4.6597  -14.7801 C   0  0  0  0  0  0  0  0  0  0  0  0
   23.0496   -5.6502  -15.8338 C   0  0  2  0  0  0  0  0  0  0  0  0
   23.0481   -7.0345  -15.4400 N   0  0  0  0  0  0  0  0  0  0  0  0
   24.3080   -5.3491  -16.5624 C   0  0  0  0  0  0  0  0  0  0  0  0
   25.3536   -6.0094  -16.3568 O   0  0  0  0  0  0  0  0  0  0  0  0
   24.3736   -4.3289  -17.4953 O   0  0  0  0  0  0  0  0  0  0  0  0
  2  1  1  1
  3  4  1  0
  3  2  1  0
  4  5  2  0
  6  5  1  0
  7  6  1  0
  8  7  2  0
  8  4  1  0
  9  2  1  0
 10  9  2  0
 12 11  1  6
 12 14  1  0
 12 13  1  0
 13  9  1  0
 14 21  1  0
 15 14  2  0
 17 16  1  6
 18 17  1  0
 19 17  1  0
 20 19  1  1
 20 22  1  0
 21 20  1  0
 22 23  2  0
 22 24  1  0
M  END
$$$$
