HAL.pdb
     RDKit          3D

 24 24  0  0  1  0  0  0  0  0999 V2000
   24.0128  -22.0030  -13.5731 N   0  0  0  0  0  0  0  0  0  0  0  0
   24.3061  -20.9885  -12.5910 C   0  0  1  0  0  0  0  0  0  0  0  0
   23.0518  -20.5430  -11.9188 C   0  0  0  0  0  0  0  0  0  0  0  0
   22.0592  -19.9603  -12.8350 C   0  0  0  0  0  0  0  0  0  0  0  0
   22.1350  -18.8030  -13.5488 C   0  0  0  0  0  0  0  0  0  0  0  0
   21.0030  -18.6316  -14.2643 N   0  0  0  0  0  0  0  0  0  0  0  0
   20.2274  -19.6748  -13.9980 C   0  0  0  0  0  0  0  0  0  0  0  0
   20.8376  -20.4868  -13.1432 N   0  0  0  0  0  0  0  0  0  0  0  0
   25.4017  -21.3678  -11.6654 C   0  0  0  0  0  0  0  0  0  0  0  0
   25.2626  -22.3184  -10.8478 O   0  0  0  0  0  0  0  0  0  0  0  0
   28.9661  -20.3014  -11.2736 C   0  0  0  0  0  0  0  0  0  0  0  0
   27.7090  -20.9459  -10.7286 C   0  0  2  0  0  0  0  0  0  0  0  0
   26.6414  -20.6991  -11.6447 N   0  0  0  0  0  0  0  0  0  0  0  0
   27.3954  -20.3849   -9.3699 C   0  0  0  0  0  0  0  0  0  0  0  0
   26.6010  -19.4352   -9.1977 O   0  0  0  0  0  0  0  0  0  0  0  0
   30.1324  -20.7423   -3.7767 C   0  0  0  0  0  0  0  0  0  0  0  0
   28.8908  -20.3571   -4.5334 C   0  0  2  0  0  0  0  0  0  0  0  0
   27.6575  -20.7418   -3.6987 C   0  0  0  0  0  0  0  0  0  0  0  0
   28.8433  -20.9742   -5.8762 C   0  0  0  0  0  0  0  0  0  0  0  0
   27.9992  -20.3399   -6.9159 C   0  0  2  0  0  0  0  0  0  0  0  0
   28.0193  -20.9459   -8.2212 N   0  0  0  0  0  0  0  0  0  0  0  0
   28.2247  -18.8784   -7.0504 C   0  0  0  0  0  0  0  0  0  0  0  0
   27.4081  -18.0479   -6.5868 O   0  0  0  0  0  0  0  0  0  0  0  0
   29.3444  -18.3785   -7.6924 O   0  0  0  0  0  0  0  0  0  0  0  0
  2  1  1  1
  3  4  1  0
  3  2  1  0
  4  5  2  0
  6  5  1  0
  7  6  1  0
  8  7  2  0
  8  4  1  0
  9  2  1  0
 10  9  2  0
 12 11  1  6
 12 14  1  0
 12 13  1  0
 13  9  1  0
 14 21  1  0
 15 14  2  0
 17 16  1  1
 18 17  1  0
 19 17  1  0
 20 19  1  1
 20 22  1  0
 21 20  1  0
 22 23  2  0
 22 24  1  0
M  END
$$$$
