HAL.pdb
     RDKit          3D

 24 24  0  0  1  0  0  0  0  0999 V2000
   23.8979  -22.1242  -13.4536 N   0  0  0  0  0  0  0  0  0  0  0  0
   24.1325  -21.1120  -12.4535 C   0  0  1  0  0  0  0  0  0  0  0  0
   22.8408  -20.6701  -11.8536 C   0  0  0  0  0  0  0  0  0  0  0  0
   21.9458  -19.9884  -12.8013 C   0  0  0  0  0  0  0  0  0  0  0  0
   20.7420  -20.4028  -13.2849 C   0  0  0  0  0  0  0  0  0  0  0  0
   20.2498  -19.4804  -14.1391 N   0  0  0  0  0  0  0  0  0  0  0  0
   21.1408  -18.4982  -14.1874 C   0  0  0  0  0  0  0  0  0  0  0  0
   22.1675  -18.7784  -13.3940 N   0  0  0  0  0  0  0  0  0  0  0  0
   25.1735  -21.4923  -11.4674 C   0  0  0  0  0  0  0  0  0  0  0  0
   24.9967  -22.4573  -10.6744 O   0  0  0  0  0  0  0  0  0  0  0  0
   28.7676  -20.7211  -11.0615 C   0  0  0  0  0  0  0  0  0  0  0  0
   27.4456  -21.1079  -10.4331 C   0  0  2  0  0  0  0  0  0  0  0  0
   26.4005  -20.8085  -11.3595 N   0  0  0  0  0  0  0  0  0  0  0  0
   27.2548  -20.3599   -9.1435 C   0  0  0  0  0  0  0  0  0  0  0  0
   26.5204  -19.3527   -9.0485 O   0  0  0  0  0  0  0  0  0  0  0  0
   28.8574  -19.5475   -3.8754 C   0  0  0  0  0  0  0  0  0  0  0  0
   27.5805  -20.2779   -4.1893 C   0  0  2  0  0  0  0  0  0  0  0  0
   27.2936  -21.2882   -3.0656 C   0  0  0  0  0  0  0  0  0  0  0  0
   27.6298  -20.9433   -5.5089 C   0  0  0  0  0  0  0  0  0  0  0  0
   27.8893  -20.1140   -6.7092 C   0  0  2  0  0  0  0  0  0  0  0  0
   27.9302  -20.8025   -7.9724 N   0  0  0  0  0  0  0  0  0  0  0  0
   29.0903  -19.2499   -6.5827 C   0  0  0  0  0  0  0  0  0  0  0  0
   28.9910  -18.0358   -6.2865 O   0  0  0  0  0  0  0  0  0  0  0  0
   30.3637  -19.7522   -6.7871 O   0  0  0  0  0  0  0  0  0  0  0  0
  2  1  1  6
  3  4  1  0
  3  2  1  0
  4  5  2  0
  6  5  1  0
  7  6  1  0
  8  7  2  0
  8  4  1  0
  9  2  1  0
 10  9  2  0
 12 11  1  6
 12 14  1  0
 12 13  1  0
 13  9  1  0
 14 21  1  0
 15 14  2  0
 17 16  1  1
 18 17  1  0
 19 17  1  0
 20 19  1  1
 20 22  1  0
 21 20  1  0
 22 23  2  0
 22 24  1  0
M  END
$$$$
