HAL.pdb
     RDKit          3D

 24 24  0  0  1  0  0  0  0  0999 V2000
   17.2856  -14.1228  -18.3030 N   0  0  0  0  0  0  0  0  0  0  0  0
   16.8062  -13.2080  -17.2965 C   0  0  1  0  0  0  0  0  0  0  0  0
   16.7967  -13.8696  -15.9602 C   0  0  0  0  0  0  0  0  0  0  0  0
   15.8694  -15.0076  -15.8651 C   0  0  0  0  0  0  0  0  0  0  0  0
   14.9669  -15.4502  -16.7839 C   0  0  0  0  0  0  0  0  0  0  0  0
   14.3081  -16.5238  -16.2980 N   0  0  0  0  0  0  0  0  0  0  0  0
   14.7967  -16.7484  -15.0849 C   0  0  0  0  0  0  0  0  0  0  0  0
   15.7346  -15.8529  -14.8011 N   0  0  0  0  0  0  0  0  0  0  0  0
   17.4880  -11.8908  -17.3288 C   0  0  0  0  0  0  0  0  0  0  0  0
   18.7377  -11.8088  -17.4797 O   0  0  0  0  0  0  0  0  0  0  0  0
   16.2758   -8.3524  -16.9817 C   0  0  0  0  0  0  0  0  0  0  0  0
   17.3818   -9.3744  -17.1391 C   0  0  2  0  0  0  0  0  0  0  0  0
   16.7913  -10.6738  -17.1941 N   0  0  0  0  0  0  0  0  0  0  0  0
   18.3440   -9.2667  -15.9895 C   0  0  0  0  0  0  0  0  0  0  0  0
   18.3425  -10.0673  -15.0295 O   0  0  0  0  0  0  0  0  0  0  0  0
   23.5271  -10.2897  -14.4733 C   0  0  0  0  0  0  0  0  0  0  0  0
   22.4959   -9.2524  -14.1225 C   0  0  2  0  0  0  0  0  0  0  0  0
   22.0765   -9.4413  -12.6547 C   0  0  0  0  0  0  0  0  0  0  0  0
   21.3259   -9.3031  -15.0252 C   0  0  0  0  0  0  0  0  0  0  0  0
   20.4057   -8.1419  -15.0550 C   0  0  2  0  0  0  0  0  0  0  0  0
   19.3031   -8.2162  -15.9771 N   0  0  0  0  0  0  0  0  0  0  0  0
   21.1006   -6.8407  -15.2256 C   0  0  0  0  0  0  0  0  0  0  0  0
   21.1430   -6.2659  -16.3388 O   0  0  0  0  0  0  0  0  0  0  0  0
   21.7272   -6.2141  -14.1624 O   0  0  0  0  0  0  0  0  0  0  0  0
  2  1  1  6
  3  4  1  0
  3  2  1  0
  4  5  2  0
  6  5  1  0
  7  6  1  0
  8  7  2  0
  8  4  1  0
  9  2  1  0
 10  9  2  0
 12 11  1  1
 12 14  1  0
 12 13  1  0
 13  9  1  0
 14 21  1  0
 15 14  2  0
 17 16  1  6
 18 17  1  0
 19 17  1  0
 20 19  1  6
 20 22  1  0
 21 20  1  0
 22 23  2  0
 22 24  1  0
M  END
$$$$
