HAL.pdb
     RDKit          3D

 24 24  0  0  1  0  0  0  0  0999 V2000
   24.8368  -18.8712  -19.3545 N   0  0  0  0  0  0  0  0  0  0  0  0
   24.9227  -19.9326  -18.3821 C   0  0  1  0  0  0  0  0  0  0  0  0
   26.1357  -20.7635  -18.6307 C   0  0  0  0  0  0  0  0  0  0  0  0
   26.0861  -21.5300  -19.8854 C   0  0  0  0  0  0  0  0  0  0  0  0
   25.9171  -22.8702  -20.0588 C   0  0  0  0  0  0  0  0  0  0  0  0
   25.9376  -23.1674  -21.3756 N   0  0  0  0  0  0  0  0  0  0  0  0
   26.1182  -22.0205  -22.0180 C   0  0  0  0  0  0  0  0  0  0  0  0
   26.2104  -21.0229  -21.1471 N   0  0  0  0  0  0  0  0  0  0  0  0
   24.7738  -19.4600  -16.9837 C   0  0  0  0  0  0  0  0  0  0  0  0
   25.7629  -19.0174  -16.3379 O   0  0  0  0  0  0  0  0  0  0  0  0
   21.8545  -18.4633  -14.9521 C   0  0  0  0  0  0  0  0  0  0  0  0
   23.2911  -18.9383  -15.0065 C   0  0  2  0  0  0  0  0  0  0  0  0
   23.5392  -19.4783  -16.3054 N   0  0  0  0  0  0  0  0  0  0  0  0
   23.5291  -19.9688  -13.9387 C   0  0  0  0  0  0  0  0  0  0  0  0
   23.0883  -21.1361  -14.0155 O   0  0  0  0  0  0  0  0  0  0  0  0
   26.0040  -19.9169   -8.1710 C   0  0  0  0  0  0  0  0  0  0  0  0
   25.3398  -20.7076   -9.2646 C   0  0  2  0  0  0  0  0  0  0  0  0
   26.0710  -22.0514   -9.4243 C   0  0  0  0  0  0  0  0  0  0  0  0
   25.2984  -19.9646  -10.5423 C   0  0  0  0  0  0  0  0  0  0  0  0
   24.3757  -20.4336  -11.6028 C   0  0  2  0  0  0  0  0  0  0  0  0
   24.2852  -19.6187  -12.7857 N   0  0  0  0  0  0  0  0  0  0  0  0
   23.0081  -20.7323  -11.1075 C   0  0  0  0  0  0  0  0  0  0  0  0
   22.6517  -21.9055  -10.8464 O   0  0  0  0  0  0  0  0  0  0  0  0
   22.0761  -19.7273  -10.9156 O   0  0  0  0  0  0  0  0  0  0  0  0
  2  1  1  6
  3  4  1  0
  3  2  1  0
  4  5  2  0
  6  5  1  0
  7  6  1  0
  8  7  2  0
  8  4  1  0
  9  2  1  0
 10  9  2  0
 12 11  1  6
 12 14  1  0
 12 13  1  0
 13  9  1  0
 14 21  1  0
 15 14  2  0
 17 16  1  1
 18 17  1  0
 19 17  1  0
 20 19  1  1
 20 22  1  0
 21 20  1  0
 22 23  2  0
 22 24  1  0
M  END
$$$$
