HAL.pdb
     RDKit          3D

 24 24  0  0  1  0  0  0  0  0999 V2000
   25.2973  -17.5867  -15.6883 N   0  0  0  0  0  0  0  0  0  0  0  0
   24.3302  -18.3405  -14.9293 C   0  0  1  0  0  0  0  0  0  0  0  0
   23.0904  -18.5456  -15.7321 C   0  0  0  0  0  0  0  0  0  0  0  0
   22.6181  -17.3337  -16.4194 C   0  0  0  0  0  0  0  0  0  0  0  0
   22.5853  -17.0700  -17.7551 C   0  0  0  0  0  0  0  0  0  0  0  0
   22.0816  -15.8352  -17.9655 N   0  0  0  0  0  0  0  0  0  0  0  0
   21.8026  -15.3331  -16.7694 C   0  0  0  0  0  0  0  0  0  0  0  0
   22.1152  -16.2121  -15.8249 N   0  0  0  0  0  0  0  0  0  0  0  0
   24.8898  -19.5770  -14.3304 C   0  0  0  0  0  0  0  0  0  0  0  0
   24.1411  -20.4281  -13.7769 O   0  0  0  0  0  0  0  0  0  0  0  0
   28.2222  -21.2369  -14.4332 C   0  0  0  0  0  0  0  0  0  0  0  0
   26.8855  -21.0153  -13.7575 C   0  0  2  0  0  0  0  0  0  0  0  0
   26.2681  -19.8683  -14.3433 N   0  0  0  0  0  0  0  0  0  0  0  0
   27.0853  -20.8257  -12.2800 C   0  0  0  0  0  0  0  0  0  0  0  0
   28.1440  -20.3725  -11.7937 O   0  0  0  0  0  0  0  0  0  0  0  0
   25.8121  -19.5912   -7.3224 C   0  0  0  0  0  0  0  0  0  0  0  0
   27.1315  -20.0373   -7.8905 C   0  0  2  0  0  0  0  0  0  0  0  0
   28.2237  -19.0452   -7.4560 C   0  0  0  0  0  0  0  0  0  0  0  0
   27.0862  -20.1743   -9.3621 C   0  0  0  0  0  0  0  0  0  0  0  0
   26.1719  -21.1814   -9.9501 C   0  0  2  0  0  0  0  0  0  0  0  0
   26.0366  -21.1710  -11.3830 N   0  0  0  0  0  0  0  0  0  0  0  0
   24.8225  -21.1886   -9.3303 C   0  0  0  0  0  0  0  0  0  0  0  0
   23.8677  -20.5570   -9.8412 O   0  0  0  0  0  0  0  0  0  0  0  0
   24.5686  -21.8925   -8.1660 O   0  0  0  0  0  0  0  0  0  0  0  0
  2  1  1  6
  3  4  1  0
  3  2  1  0
  4  5  2  0
  6  5  1  0
  7  6  1  0
  8  7  2  0
  8  4  1  0
  9  2  1  0
 10  9  2  0
 12 11  1  6
 12 14  1  0
 12 13  1  0
 13  9  1  0
 14 21  1  0
 15 14  2  0
 17 16  1  6
 18 17  1  0
 19 17  1  0
 20 19  1  1
 20 22  1  0
 21 20  1  0
 22 23  2  0
 22 24  1  0
M  END
$$$$
