HAL.pdb
     RDKit          3D

 24 24  0  0  1  0  0  0  0  0999 V2000
   19.7049  -15.3022  -18.7530 N   0  0  0  0  0  0  0  0  0  0  0  0
   19.2472  -14.2683  -17.8578 C   0  0  1  0  0  0  0  0  0  0  0  0
   18.9690  -14.8396  -16.5088 C   0  0  0  0  0  0  0  0  0  0  0  0
   17.9759  -15.9248  -16.5144 C   0  0  0  0  0  0  0  0  0  0  0  0
   16.7212  -15.9287  -17.0441 C   0  0  0  0  0  0  0  0  0  0  0  0
   16.1365  -17.1260  -16.8270 N   0  0  0  0  0  0  0  0  0  0  0  0
   17.0205  -17.8629  -16.1667 C   0  0  0  0  0  0  0  0  0  0  0  0
   18.1324  -17.1657  -15.9665 N   0  0  0  0  0  0  0  0  0  0  0  0
   20.1199  -13.0687  -17.8526 C   0  0  0  0  0  0  0  0  0  0  0  0
   21.3311  -13.1469  -17.5087 O   0  0  0  0  0  0  0  0  0  0  0  0
   19.6246   -9.5212  -18.9610 C   0  0  0  0  0  0  0  0  0  0  0  0
   20.4391  -10.5995  -18.2783 C   0  0  2  0  0  0  0  0  0  0  0  0
   19.6547  -11.7919  -18.2243 N   0  0  0  0  0  0  0  0  0  0  0  0
   20.8306  -10.1478  -16.8992 C   0  0  0  0  0  0  0  0  0  0  0  0
   20.1278  -10.3712  -15.8898 O   0  0  0  0  0  0  0  0  0  0  0  0
   23.8540  -11.3887  -14.1371 C   0  0  0  0  0  0  0  0  0  0  0  0
   24.5066  -10.5055  -15.1649 C   0  0  2  0  0  0  0  0  0  0  0  0
   26.0259  -10.4983  -14.9251 C   0  0  0  0  0  0  0  0  0  0  0  0
   23.9551   -9.1337  -15.1510 C   0  0  0  0  0  0  0  0  0  0  0  0
   22.5146   -8.9484  -15.4451 C   0  0  2  0  0  0  0  0  0  0  0  0
   22.0480   -9.4350  -16.7167 N   0  0  0  0  0  0  0  0  0  0  0  0
   22.0464   -7.5524  -15.2527 C   0  0  0  0  0  0  0  0  0  0  0  0
   21.7880   -6.8114  -16.2303 O   0  0  0  0  0  0  0  0  0  0  0  0
   21.8779   -7.0172  -13.9874 O   0  0  0  0  0  0  0  0  0  0  0  0
  2  1  1  6
  3  4  1  0
  3  2  1  0
  4  5  2  0
  6  5  1  0
  7  6  1  0
  8  7  2  0
  8  4  1  0
  9  2  1  0
 10  9  2  0
 12 11  1  1
 12 14  1  0
 12 13  1  0
 13  9  1  0
 14 21  1  0
 15 14  2  0
 17 16  1  1
 18 17  1  0
 19 17  1  0
 20 19  1  6
 20 22  1  0
 21 20  1  0
 22 23  2  0
 22 24  1  0
M  END
$$$$
