HAL.pdb
     RDKit          3D

 24 24  0  0  1  0  0  0  0  0999 V2000
   20.9261  -34.3264    5.5449 N   0  0  0  0  0  0  0  0  0  0  0  0
   21.8378  -34.0680    4.4579 C   0  0  1  0  0  0  0  0  0  0  0  0
   21.7819  -32.6298    4.0682 C   0  0  0  0  0  0  0  0  0  0  0  0
   22.7040  -32.2710    2.9796 C   0  0  0  0  0  0  0  0  0  0  0  0
   22.5157  -32.3746    1.6347 C   0  0  0  0  0  0  0  0  0  0  0  0
   23.6159  -31.9403    0.9838 N   0  0  0  0  0  0  0  0  0  0  0  0
   24.4836  -31.5690    1.9165 C   0  0  0  0  0  0  0  0  0  0  0  0
   23.9611  -31.7572    3.1223 N   0  0  0  0  0  0  0  0  0  0  0  0
   23.2051  -34.5889    4.7030 C   0  0  0  0  0  0  0  0  0  0  0  0
   23.8170  -34.3303    5.7754 O   0  0  0  0  0  0  0  0  0  0  0  0
   25.3017  -37.1811    3.0634 C   0  0  0  0  0  0  0  0  0  0  0  0
   25.1898  -35.9541    3.9436 C   0  0  2  0  0  0  0  0  0  0  0  0
   23.8899  -35.3891    3.7674 N   0  0  0  0  0  0  0  0  0  0  0  0
   26.2621  -34.9656    3.5803 C   0  0  0  0  0  0  0  0  0  0  0  0
   26.1282  -34.1311    2.6593 O   0  0  0  0  0  0  0  0  0  0  0  0
   28.0869  -31.1570    5.2565 C   0  0  0  0  0  0  0  0  0  0  0  0
   28.3293  -32.4172    6.0411 C   0  0  2  0  0  0  0  0  0  0  0  0
   28.9937  -32.0524    7.3795 C   0  0  0  0  0  0  0  0  0  0  0  0
   29.1435  -33.3945    5.2871 C   0  0  0  0  0  0  0  0  0  0  0  0
   28.5540  -34.0256    4.0829 C   0  0  2  0  0  0  0  0  0  0  0  0
   27.4867  -34.9654    4.3042 N   0  0  0  0  0  0  0  0  0  0  0  0
   29.5635  -34.6340    3.1797 C   0  0  0  0  0  0  0  0  0  0  0  0
   29.8226  -35.8597    3.2241 O   0  0  0  0  0  0  0  0  0  0  0  0
   30.2558  -33.8710    2.2555 O   0  0  0  0  0  0  0  0  0  0  0  0
  2  1  1  1
  3  4  1  0
  3  2  1  0
  4  5  2  0
  6  5  1  0
  7  6  1  0
  8  7  2  0
  8  4  1  0
  9  2  1  0
 10  9  2  0
 12 11  1  6
 12 14  1  0
 12 13  1  0
 13  9  1  0
 14 21  1  0
 15 14  2  0
 17 16  1  6
 18 17  1  0
 19 17  1  0
 20 19  1  1
 20 22  1  0
 21 20  1  0
 22 23  2  0
 22 24  1  0
M  END
$$$$
