HAL.pdb
     RDKit          3D

 24 24  0  0  1  0  0  0  0  0999 V2000
   23.7171  -21.7324  -15.4472 N   0  0  0  0  0  0  0  0  0  0  0  0
   24.4211  -20.7169  -14.7037 C   0  0  1  0  0  0  0  0  0  0  0  0
   23.5128  -19.5723  -14.4061 C   0  0  0  0  0  0  0  0  0  0  0  0
   22.9932  -18.8965  -15.6050 C   0  0  0  0  0  0  0  0  0  0  0  0
   23.2846  -19.1387  -16.9132 C   0  0  0  0  0  0  0  0  0  0  0  0
   22.5941  -18.2872  -17.7011 N   0  0  0  0  0  0  0  0  0  0  0  0
   21.8776  -17.5199  -16.8896 C   0  0  0  0  0  0  0  0  0  0  0  0
   22.0989  -17.8649  -15.6270 N   0  0  0  0  0  0  0  0  0  0  0  0
   25.1483  -21.2507  -13.5259 C   0  0  0  0  0  0  0  0  0  0  0  0
   24.5644  -21.9758  -12.6747 O   0  0  0  0  0  0  0  0  0  0  0  0
   28.6932  -20.9870  -12.3227 C   0  0  0  0  0  0  0  0  0  0  0  0
   27.2235  -21.2632  -12.0861 C   0  0  2  0  0  0  0  0  0  0  0  0
   26.5114  -20.9828  -13.2921 N   0  0  0  0  0  0  0  0  0  0  0  0
   26.7204  -20.4147  -10.9521 C   0  0  0  0  0  0  0  0  0  0  0  0
   26.3674  -19.2250  -11.1030 O   0  0  0  0  0  0  0  0  0  0  0  0
   23.2652  -19.5004   -8.6852 C   0  0  0  0  0  0  0  0  0  0  0  0
   23.8107  -20.8500   -8.3066 C   0  0  2  0  0  0  0  0  0  0  0  0
   22.8022  -21.5557   -7.3843 C   0  0  0  0  0  0  0  0  0  0  0  0
   25.1424  -20.7539   -7.6711 C   0  0  0  0  0  0  0  0  0  0  0  0
   26.2709  -20.2240   -8.4721 C   0  0  2  0  0  0  0  0  0  0  0  0
   26.6359  -20.9722   -9.6461 N   0  0  0  0  0  0  0  0  0  0  0  0
   27.4886  -19.9482   -7.6682 C   0  0  0  0  0  0  0  0  0  0  0  0
   28.5399  -20.6116   -7.8300 O   0  0  0  0  0  0  0  0  0  0  0  0
   27.5085  -18.9489   -6.7109 O   0  0  0  0  0  0  0  0  0  0  0  0
  2  1  1  1
  3  4  1  0
  3  2  1  0
  4  5  2  0
  6  5  1  0
  7  6  1  0
  8  7  2  0
  8  4  1  0
  9  2  1  0
 10  9  2  0
 12 11  1  6
 12 14  1  0
 12 13  1  0
 13  9  1  0
 14 21  1  0
 15 14  2  0
 17 16  1  1
 18 17  1  0
 19 17  1  0
 20 19  1  1
 20 22  1  0
 21 20  1  0
 22 23  2  0
 22 24  1  0
M  END
$$$$
