HAL.pdb
     RDKit          3D

 24 24  0  0  1  0  0  0  0  0999 V2000
   26.4674  -22.0870  -12.0099 N   0  0  0  0  0  0  0  0  0  0  0  0
   27.2783  -21.0550  -11.4124 C   0  0  1  0  0  0  0  0  0  0  0  0
   26.4674  -19.8227  -11.1947 C   0  0  0  0  0  0  0  0  0  0  0  0
   25.8969  -19.2590  -12.4280 C   0  0  0  0  0  0  0  0  0  0  0  0
   26.5441  -18.8190  -13.5425 C   0  0  0  0  0  0  0  0  0  0  0  0
   25.6466  -18.3710  -14.4461 N   0  0  0  0  0  0  0  0  0  0  0  0
   24.4486  -18.5307  -13.8983 C   0  0  0  0  0  0  0  0  0  0  0  0
   24.5709  -19.0615  -12.6877 N   0  0  0  0  0  0  0  0  0  0  0  0
   28.0315  -21.5173  -10.2208 C   0  0  0  0  0  0  0  0  0  0  0  0
   27.4363  -21.8046   -9.1464 O   0  0  0  0  0  0  0  0  0  0  0  0
   31.6636  -22.2180   -9.5766 C   0  0  0  0  0  0  0  0  0  0  0  0
   30.2278  -22.0905   -9.1131 C   0  0  2  0  0  0  0  0  0  0  0  0
   29.4330  -21.6593  -10.2188 N   0  0  0  0  0  0  0  0  0  0  0  0
   30.1438  -21.1135   -7.9740 C   0  0  0  0  0  0  0  0  0  0  0  0
   30.1467  -19.8751   -8.1441 O   0  0  0  0  0  0  0  0  0  0  0  0
   29.5000  -17.8497   -4.7281 C   0  0  0  0  0  0  0  0  0  0  0  0
   28.5499  -18.5934   -5.6264 C   0  0  2  0  0  0  0  0  0  0  0  0
   27.1342  -18.0221   -5.4386 C   0  0  0  0  0  0  0  0  0  0  0  0
   28.5770  -20.0511   -5.3804 C   0  0  0  0  0  0  0  0  0  0  0  0
   29.8731  -20.7616   -5.4857 C   0  0  2  0  0  0  0  0  0  0  0  0
   30.0567  -21.6008   -6.6404 N   0  0  0  0  0  0  0  0  0  0  0  0
   30.2304  -21.5249   -4.2631 C   0  0  0  0  0  0  0  0  0  0  0  0
   30.2220  -22.7784   -4.2521 O   0  0  0  0  0  0  0  0  0  0  0  0
   30.5858  -20.8813   -3.0904 O   0  0  0  0  0  0  0  0  0  0  0  0
  2  1  1  1
  3  4  1  0
  3  2  1  0
  4  5  2  0
  6  5  1  0
  7  6  1  0
  8  7  2  0
  8  4  1  0
  9  2  1  0
 10  9  2  0
 12 11  1  6
 12 14  1  0
 12 13  1  0
 13  9  1  0
 14 21  1  0
 15 14  2  0
 17 16  1  1
 18 17  1  0
 19 17  1  0
 20 19  1  1
 20 22  1  0
 21 20  1  0
 22 23  2  0
 22 24  1  0
M  END
$$$$
