HAL.pdb
     RDKit          3D

 24 24  0  0  1  0  0  0  0  0999 V2000
   19.5222  -14.9537  -18.4813 N   0  0  0  0  0  0  0  0  0  0  0  0
   18.9274  -14.0460  -17.5316 C   0  0  1  0  0  0  0  0  0  0  0  0
   18.8631  -14.6790  -16.1830 C   0  0  0  0  0  0  0  0  0  0  0  0
   18.1215  -15.9492  -16.1556 C   0  0  0  0  0  0  0  0  0  0  0  0
   16.7744  -16.1495  -16.1626 C   0  0  0  0  0  0  0  0  0  0  0  0
   16.5082  -17.4725  -16.1234 N   0  0  0  0  0  0  0  0  0  0  0  0
   17.6812  -18.0921  -16.0921 C   0  0  0  0  0  0  0  0  0  0  0  0
   18.6650  -17.2010  -16.1105 N   0  0  0  0  0  0  0  0  0  0  0  0
   19.5381  -12.6942  -17.5509 C   0  0  0  0  0  0  0  0  0  0  0  0
   20.7700  -12.5338  -17.3315 O   0  0  0  0  0  0  0  0  0  0  0  0
   18.2189   -9.2952  -18.4306 C   0  0  0  0  0  0  0  0  0  0  0  0
   19.3164  -10.2055  -17.9214 C   0  0  2  0  0  0  0  0  0  0  0  0
   18.7903  -11.5287  -17.8103 N   0  0  0  0  0  0  0  0  0  0  0  0
   19.8160   -9.7097  -16.5934 C   0  0  0  0  0  0  0  0  0  0  0  0
   19.2717  -10.0139  -15.5100 O   0  0  0  0  0  0  0  0  0  0  0  0
   22.8829  -10.6653  -13.7895 C   0  0  0  0  0  0  0  0  0  0  0  0
   23.4770  -10.0039  -15.0028 C   0  0  2  0  0  0  0  0  0  0  0  0
   25.0108  -10.0649  -14.9044 C   0  0  0  0  0  0  0  0  0  0  0  0
   23.0051   -8.6121  -15.1654 C   0  0  0  0  0  0  0  0  0  0  0  0
   21.5521   -8.3737  -15.3323 C   0  0  2  0  0  0  0  0  0  0  0  0
   20.9545   -8.8579  -16.5488 N   0  0  0  0  0  0  0  0  0  0  0  0
   21.1569   -6.9578  -15.1218 C   0  0  0  0  0  0  0  0  0  0  0  0
   20.8556   -6.2154  -16.0860 O   0  0  0  0  0  0  0  0  0  0  0  0
   21.1067   -6.4050  -13.8540 O   0  0  0  0  0  0  0  0  0  0  0  0
  2  1  1  6
  3  4  1  0
  3  2  1  0
  4  5  2  0
  6  5  1  0
  7  6  1  0
  8  7  2  0
  8  4  1  0
  9  2  1  0
 10  9  2  0
 12 11  1  1
 12 14  1  0
 12 13  1  0
 13  9  1  0
 14 21  1  0
 15 14  2  0
 17 16  1  1
 18 17  1  0
 19 17  1  0
 20 19  1  6
 20 22  1  0
 21 20  1  0
 22 23  2  0
 22 24  1  0
M  END
$$$$
