HAL.pdb
     RDKit          3D

 24 24  0  0  1  0  0  0  0  0999 V2000
   18.4880  -12.4751  -17.1324 N   0  0  0  0  0  0  0  0  0  0  0  0
   19.6353  -11.7366  -17.5992 C   0  0  1  0  0  0  0  0  0  0  0  0
   19.3171  -11.0447  -18.8812 C   0  0  0  0  0  0  0  0  0  0  0  0
   18.8301  -11.9438  -19.9388 C   0  0  0  0  0  0  0  0  0  0  0  0
   17.5757  -12.0462  -20.4591 C   0  0  0  0  0  0  0  0  0  0  0  0
   17.5519  -13.0031  -21.4112 N   0  0  0  0  0  0  0  0  0  0  0  0
   18.7827  -13.4935  -21.4835 C   0  0  0  0  0  0  0  0  0  0  0  0
   19.5689  -12.8752  -20.6106 N   0  0  0  0  0  0  0  0  0  0  0  0
   20.2344  -10.8648  -16.5590 C   0  0  0  0  0  0  0  0  0  0  0  0
   19.5201  -10.0776  -15.8797 O   0  0  0  0  0  0  0  0  0  0  0  0
   23.6932  -10.5035  -15.1573 C   0  0  0  0  0  0  0  0  0  0  0  0
   22.2738  -10.0088  -15.3393 C   0  0  2  0  0  0  0  0  0  0  0  0
   21.6140  -10.8641  -16.2738 N   0  0  0  0  0  0  0  0  0  0  0  0
   22.2870   -8.5865  -15.8249 C   0  0  0  0  0  0  0  0  0  0  0  0
   22.2080   -8.2847  -17.0355 O   0  0  0  0  0  0  0  0  0  0  0  0
   19.4198   -3.9703  -16.5421 C   0  0  0  0  0  0  0  0  0  0  0  0
   20.8670   -4.3186  -16.3257 C   0  0  2  0  0  0  0  0  0  0  0  0
   21.6640   -3.9494  -17.5884 C   0  0  0  0  0  0  0  0  0  0  0  0
   21.0502   -5.7430  -15.9734 C   0  0  0  0  0  0  0  0  0  0  0  0
   22.2628   -6.1333  -15.2164 C   0  0  2  0  0  0  0  0  0  0  0  0
   22.3933   -7.5270  -14.8817 N   0  0  0  0  0  0  0  0  0  0  0  0
   22.4897   -5.3135  -13.9993 C   0  0  0  0  0  0  0  0  0  0  0  0
   22.1746   -5.7354  -12.8616 O   0  0  0  0  0  0  0  0  0  0  0  0
   23.0573   -4.0534  -14.0752 O   0  0  0  0  0  0  0  0  0  0  0  0
  2  1  1  1
  3  4  1  0
  3  2  1  0
  4  5  2  0
  6  5  1  0
  7  6  1  0
  8  7  2  0
  8  4  1  0
  9  2  1  0
 10  9  2  0
 12 11  1  6
 12 14  1  0
 12 13  1  0
 13  9  1  0
 14 21  1  0
 15 14  2  0
 17 16  1  6
 18 17  1  0
 19 17  1  0
 20 19  1  1
 20 22  1  0
 21 20  1  0
 22 23  2  0
 22 24  1  0
M  END
$$$$
