DLC.pdb
     RDKit          3D

 23 22  0  0  1  0  0  0  0  0999 V2000
    9.5362  -16.6356   20.5056 N   0  0  0  0  0  0  0  0  0  0  0  0
    8.9036  -17.0343   21.7253 C   0  0  1  0  0  0  0  0  0  0  0  0
    9.3238  -18.4099   22.1116 C   0  0  0  0  0  0  0  0  0  0  0  0
    8.9781  -19.3544   21.0276 C   0  0  0  0  0  0  0  0  0  0  0  0
    8.1031  -19.0270   20.1918 O   0  0  0  0  0  0  0  0  0  0  0  0
    9.2132  -16.0890   22.8486 C   0  0  0  0  0  0  0  0  0  0  0  0
   10.3757  -15.6316   22.9962 O   0  0  0  0  0  0  0  0  0  0  0  0
    9.6145  -20.5794   20.9430 O   0  0  0  0  0  0  0  0  0  0  0  0
    7.9207  -11.7756   25.9576 C   0  0  0  0  0  0  0  0  0  0  0  0
    7.1908  -13.0786   26.2601 C   0  0  1  0  0  0  0  0  0  0  0  0
    5.7104  -12.6545   26.3887 C   0  0  0  0  0  0  0  0  0  0  0  0
    7.2459  -14.0443   25.1465 C   0  0  0  0  0  0  0  0  0  0  0  0
    8.5432  -14.7284   24.8731 C   0  0  2  0  0  0  0  0  0  0  0  0
    8.2295  -15.6783   23.7742 N   0  0  0  0  0  0  0  0  0  0  0  0
    9.0791  -15.5379   25.9693 C   0  0  0  0  0  0  0  0  0  0  0  0
    8.5966  -16.6697   26.2370 O   0  0  0  0  0  0  0  0  0  0  0  0
   10.1515  -15.0993   26.7713 N   0  0  0  0  0  0  0  0  0  0  0  0
   10.7603  -15.9495   27.7743 C   0  0  1  0  0  0  0  0  0  0  0  0
   12.2604  -16.0418   27.5960 C   0  0  0  0  0  0  0  0  0  0  0  0
   12.9350  -17.0540   28.9401 S   0  0  0  0  0  0  0  0  0  0  0  0
   10.5009  -15.4018   29.1294 C   0  0  0  0  0  0  0  0  0  0  0  0
   10.0728  -14.1024   29.3012 O   0  0  0  0  0  0  0  0  0  0  0  0
   10.6736  -16.1321   30.1360 O   0  0  0  0  0  0  0  0  0  0  0  0
  2  1  1  6
  3  2  1  0
  3  4  1  0
  4  5  2  0
  4  8  1  0
  6  2  1  0
  7  6  2  0
 10  9  1  6
 10 12  1  0
 11 10  1  0
 13 12  1  1
 13 14  1  0
 14  6  1  0
 15 13  1  0
 15 17  1  0
 16 15  2  0
 18 17  1  0
 18 21  1  0
 18 19  1  6
 20 19  1  0
 21 22  1  0
 23 21  2  0
M  END
$$$$
