DLC.pdb
     RDKit          3D

 23 22  0  0  1  0  0  0  0  0999 V2000
    7.9536  -16.1617   21.3850 N   0  0  0  0  0  0  0  0  0  0  0  0
    9.3008  -16.3509   21.8275 C   0  0  1  0  0  0  0  0  0  0  0  0
   10.2500  -15.5933   20.9653 C   0  0  0  0  0  0  0  0  0  0  0  0
   10.3427  -16.2457   19.6414 C   0  0  0  0  0  0  0  0  0  0  0  0
    9.8367  -17.3821   19.4868 O   0  0  0  0  0  0  0  0  0  0  0  0
    9.4834  -15.9266   23.2551 C   0  0  0  0  0  0  0  0  0  0  0  0
   10.6325  -15.8773   23.7646 O   0  0  0  0  0  0  0  0  0  0  0  0
   10.9796  -15.6059   18.5938 O   0  0  0  0  0  0  0  0  0  0  0  0
    6.0097  -12.3788   25.6596 C   0  0  0  0  0  0  0  0  0  0  0  0
    7.3172  -13.0897   25.3323 C   0  0  1  0  0  0  0  0  0  0  0  0
    8.3866  -12.2670   26.0857 C   0  0  0  0  0  0  0  0  0  0  0  0
    7.3864  -14.4560   25.8839 C   0  0  0  0  0  0  0  0  0  0  0  0
    8.5641  -15.2993   25.5267 C   0  0  2  0  0  0  0  0  0  0  0  0
    8.3914  -15.5700   24.0757 N   0  0  0  0  0  0  0  0  0  0  0  0
    8.6307  -16.6085   26.1791 C   0  0  0  0  0  0  0  0  0  0  0  0
    7.9309  -17.5731   25.7727 O   0  0  0  0  0  0  0  0  0  0  0  0
    9.4728  -16.8554   27.2816 N   0  0  0  0  0  0  0  0  0  0  0  0
    9.9270  -18.1893   27.6195 C   0  0  1  0  0  0  0  0  0  0  0  0
   10.7915  -18.7810   26.5273 C   0  0  0  0  0  0  0  0  0  0  0  0
   11.4486  -20.3657   27.1133 S   0  0  0  0  0  0  0  0  0  0  0  0
   10.7367  -18.1501   28.8630 C   0  0  0  0  0  0  0  0  0  0  0  0
   11.1155  -16.9504   29.4273 O   0  0  0  0  0  0  0  0  0  0  0  0
   11.0829  -19.2255   29.4107 O   0  0  0  0  0  0  0  0  0  0  0  0
  2  1  1  6
  3  2  1  0
  3  4  1  0
  4  5  2  0
  4  8  1  0
  6  2  1  0
  7  6  2  0
 10  9  1  1
 10 12  1  0
 11 10  1  0
 13 12  1  1
 13 14  1  0
 14  6  1  0
 15 13  1  0
 15 17  1  0
 16 15  2  0
 18 17  1  0
 18 21  1  0
 18 19  1  6
 20 19  1  0
 21 22  1  0
 23 21  2  0
M  END
$$$$
