DLC.pdb
     RDKit          3D

 23 22  0  0  1  0  0  0  0  0999 V2000
    8.2456  -16.6537   22.1476 N   0  0  0  0  0  0  0  0  0  0  0  0
    9.5936  -16.4290   22.5708 C   0  0  1  0  0  0  0  0  0  0  0  0
   10.3260  -15.5960   21.5767 C   0  0  0  0  0  0  0  0  0  0  0  0
   10.4708  -16.3494   20.3125 C   0  0  0  0  0  0  0  0  0  0  0  0
   10.0812  -17.5400   20.2660 O   0  0  0  0  0  0  0  0  0  0  0  0
    9.6526  -15.7621   23.9136 C   0  0  0  0  0  0  0  0  0  0  0  0
   10.7350  -15.2869   24.3435 O   0  0  0  0  0  0  0  0  0  0  0  0
   11.0288  -15.7433   19.2016 O   0  0  0  0  0  0  0  0  0  0  0  0
    5.6792  -12.4350   25.7926 C   0  0  0  0  0  0  0  0  0  0  0  0
    7.0676  -13.0191   25.5622 C   0  0  1  0  0  0  0  0  0  0  0  0
    8.0125  -12.0237   26.2724 C   0  0  0  0  0  0  0  0  0  0  0  0
    7.2657  -14.3199   26.2287 C   0  0  0  0  0  0  0  0  0  0  0  0
    8.5878  -14.9939   26.0757 C   0  0  2  0  0  0  0  0  0  0  0  0
    8.5143  -15.6408   24.7399 N   0  0  0  0  0  0  0  0  0  0  0  0
    8.8697  -16.0666   27.0317 C   0  0  0  0  0  0  0  0  0  0  0  0
    9.0627  -15.8164   28.2505 O   0  0  0  0  0  0  0  0  0  0  0  0
    8.9368  -17.4195   26.6431 N   0  0  0  0  0  0  0  0  0  0  0  0
    9.1583  -18.4849   27.6000 C   0  0  1  0  0  0  0  0  0  0  0  0
    8.3816  -19.7328   27.2397 C   0  0  0  0  0  0  0  0  0  0  0  0
    6.6123  -19.3426   27.2995 S   0  0  0  0  0  0  0  0  0  0  0  0
   10.5980  -18.8450   27.6346 C   0  0  0  0  0  0  0  0  0  0  0  0
   11.0597  -19.8511   28.4567 O   0  0  0  0  0  0  0  0  0  0  0  0
   11.4092  -18.2245   26.9044 O   0  0  0  0  0  0  0  0  0  0  0  0
  2  1  1  6
  3  2  1  0
  3  4  1  0
  4  5  2  0
  4  8  1  0
  6  2  1  0
  7  6  2  0
 10  9  1  1
 10 12  1  0
 11 10  1  0
 13 12  1  1
 13 14  1  0
 14  6  1  0
 15 13  1  0
 15 17  1  0
 16 15  2  0
 18 17  1  0
 18 21  1  0
 18 19  1  6
 20 19  1  0
 21 22  1  0
 23 21  2  0
M  END
$$$$
