DLC.pdb
     RDKit          3D

 23 22  0  0  1  0  0  0  0  0999 V2000
    8.4725  -17.6318   21.5396 N   0  0  0  0  0  0  0  0  0  0  0  0
    9.7242  -16.9394   21.5630 C   0  0  1  0  0  0  0  0  0  0  0  0
   10.0496  -16.3934   20.2161 C   0  0  0  0  0  0  0  0  0  0  0  0
   10.7888  -17.4098   19.4368 C   0  0  0  0  0  0  0  0  0  0  0  0
   10.8923  -18.5715   19.8962 O   0  0  0  0  0  0  0  0  0  0  0  0
    9.7239  -15.8208   22.5630 C   0  0  0  0  0  0  0  0  0  0  0  0
   10.6831  -15.0085   22.6127 O   0  0  0  0  0  0  0  0  0  0  0  0
   11.3552  -17.0768   18.2199 O   0  0  0  0  0  0  0  0  0  0  0  0
    7.2554  -11.9027   25.5304 C   0  0  0  0  0  0  0  0  0  0  0  0
    7.0348  -13.3490   25.9565 C   0  0  1  0  0  0  0  0  0  0  0  0
    5.5149  -13.4306   26.2232 C   0  0  0  0  0  0  0  0  0  0  0  0
    7.3154  -14.3181   24.8804 C   0  0  0  0  0  0  0  0  0  0  0  0
    8.7410  -14.6198   24.5605 C   0  0  2  0  0  0  0  0  0  0  0  0
    8.6644  -15.6339   23.4770 N   0  0  0  0  0  0  0  0  0  0  0  0
    9.5186  -15.2346   25.6382 C   0  0  0  0  0  0  0  0  0  0  0  0
    9.8360  -16.4524   25.5971 O   0  0  0  0  0  0  0  0  0  0  0  0
    9.9495  -14.5041   26.7636 N   0  0  0  0  0  0  0  0  0  0  0  0
   10.7371  -15.1094   27.8185 C   0  0  1  0  0  0  0  0  0  0  0  0
   10.8704  -14.1928   29.0154 C   0  0  0  0  0  0  0  0  0  0  0  0
   11.6261  -15.1289   30.3715 S   0  0  0  0  0  0  0  0  0  0  0  0
   10.0891  -16.3622   28.2809 C   0  0  0  0  0  0  0  0  0  0  0  0
   10.8211  -17.5168   28.4612 O   0  0  0  0  0  0  0  0  0  0  0  0
    8.8551  -16.3723   28.5119 O   0  0  0  0  0  0  0  0  0  0  0  0
  2  1  1  6
  3  2  1  0
  3  4  1  0
  4  5  2  0
  4  8  1  0
  6  2  1  0
  7  6  2  0
 10  9  1  6
 10 12  1  0
 11 10  1  0
 13 12  1  1
 13 14  1  0
 14  6  1  0
 15 13  1  0
 15 17  1  0
 16 15  2  0
 18 17  1  0
 18 21  1  0
 18 19  1  1
 20 19  1  0
 21 22  1  0
 23 21  2  0
M  END
$$$$
