DLC.pdb
     RDKit          3D

 23 22  0  0  1  0  0  0  0  0999 V2000
    8.0340  -16.9854   21.6946 N   0  0  0  0  0  0  0  0  0  0  0  0
    9.3879  -16.6841   22.0450 C   0  0  1  0  0  0  0  0  0  0  0  0
   10.1206  -16.1180   20.8785 C   0  0  0  0  0  0  0  0  0  0  0  0
   10.2272  -17.1428   19.8178 C   0  0  0  0  0  0  0  0  0  0  0  0
    9.6641  -18.2504   19.9836 O   0  0  0  0  0  0  0  0  0  0  0  0
    9.4655  -15.7205   23.1925 C   0  0  0  0  0  0  0  0  0  0  0  0
   10.5713  -15.2359   23.5457 O   0  0  0  0  0  0  0  0  0  0  0  0
   10.9392  -16.8767   18.6624 O   0  0  0  0  0  0  0  0  0  0  0  0
    7.5764  -11.5424   26.3475 C   0  0  0  0  0  0  0  0  0  0  0  0
    6.8351  -12.8734   26.3183 C   0  0  1  0  0  0  0  0  0  0  0  0
    5.3497  -12.4691   26.1833 C   0  0  0  0  0  0  0  0  0  0  0  0
    7.1497  -13.6846   25.1272 C   0  0  0  0  0  0  0  0  0  0  0  0
    8.4209  -14.4654   25.1244 C   0  0  2  0  0  0  0  0  0  0  0  0
    8.3195  -15.3219   23.9142 N   0  0  0  0  0  0  0  0  0  0  0  0
    8.6095  -15.3783   26.2536 C   0  0  0  0  0  0  0  0  0  0  0  0
    8.7378  -14.9416   27.4276 O   0  0  0  0  0  0  0  0  0  0  0  0
    8.6546  -16.7770   26.0883 N   0  0  0  0  0  0  0  0  0  0  0  0
    8.7619  -17.6820   27.2148 C   0  0  1  0  0  0  0  0  0  0  0  0
    7.5857  -18.6316   27.2855 C   0  0  0  0  0  0  0  0  0  0  0  0
    7.4078  -19.4429   25.6742 S   0  0  0  0  0  0  0  0  0  0  0  0
    9.9944  -18.5003   27.0930 C   0  0  0  0  0  0  0  0  0  0  0  0
   10.3853  -19.3520   28.1045 O   0  0  0  0  0  0  0  0  0  0  0  0
   10.6929  -18.4167   26.0531 O   0  0  0  0  0  0  0  0  0  0  0  0
  2  1  1  6
  3  2  1  0
  3  4  1  0
  4  5  2  0
  4  8  1  0
  6  2  1  0
  7  6  2  0
 10  9  1  6
 10 12  1  0
 11 10  1  0
 13 12  1  1
 13 14  1  0
 14  6  1  0
 15 13  1  0
 15 17  1  0
 16 15  2  0
 18 17  1  0
 18 21  1  0
 18 19  1  6
 20 19  1  0
 21 22  1  0
 23 21  2  0
M  END
$$$$
