DLC.pdb
     RDKit          3D

 23 22  0  0  1  0  0  0  0  0999 V2000
   11.2998  -18.5045   16.3647 N   0  0  0  0  0  0  0  0  0  0  0  0
   10.2756  -18.5967   17.3593 C   0  0  1  0  0  0  0  0  0  0  0  0
   10.3081  -19.9276   18.0272 C   0  0  0  0  0  0  0  0  0  0  0  0
   10.1608  -20.9930   17.0124 C   0  0  0  0  0  0  0  0  0  0  0  0
   10.9311  -21.9812   17.0518 O   0  0  0  0  0  0  0  0  0  0  0  0
   10.4068  -17.5201   18.3960 C   0  0  0  0  0  0  0  0  0  0  0  0
   11.5415  -17.1026   18.7430 O   0  0  0  0  0  0  0  0  0  0  0  0
    9.1856  -20.8943   16.0368 O   0  0  0  0  0  0  0  0  0  0  0  0
    8.6572  -12.6970   20.2512 C   0  0  0  0  0  0  0  0  0  0  0  0
    7.8903  -13.9187   20.7425 C   0  0  1  0  0  0  0  0  0  0  0  0
    6.4070  -13.5203   20.5717 C   0  0  0  0  0  0  0  0  0  0  0  0
    8.0957  -15.1093   19.8963 C   0  0  0  0  0  0  0  0  0  0  0  0
    9.4157  -15.8009   19.9649 C   0  0  2  0  0  0  0  0  0  0  0  0
    9.2808  -16.9378   19.0174 N   0  0  0  0  0  0  0  0  0  0  0  0
    9.7587  -16.3904   21.2606 C   0  0  0  0  0  0  0  0  0  0  0  0
    9.1979  -17.4431   21.6642 O   0  0  0  0  0  0  0  0  0  0  0  0
   10.7243  -15.8189   22.1130 N   0  0  0  0  0  0  0  0  0  0  0  0
   11.1558  -16.4703   23.3333 C   0  0  1  0  0  0  0  0  0  0  0  0
   12.5785  -16.1009   23.6935 C   0  0  0  0  0  0  0  0  0  0  0  0
   13.6931  -16.8823   22.4962 S   0  0  0  0  0  0  0  0  0  0  0  0
   10.2845  -16.0605   24.4630 C   0  0  0  0  0  0  0  0  0  0  0  0
   10.4117  -16.6425   25.7065 O   0  0  0  0  0  0  0  0  0  0  0  0
    9.4175  -15.1700   24.2849 O   0  0  0  0  0  0  0  0  0  0  0  0
  2  1  1  6
  3  2  1  0
  3  4  1  0
  4  5  2  0
  4  8  1  0
  6  2  1  0
  7  6  2  0
 10  9  1  6
 10 12  1  0
 11 10  1  0
 13 12  1  1
 13 14  1  0
 14  6  1  0
 15 13  1  0
 15 17  1  0
 16 15  2  0
 18 17  1  0
 18 21  1  0
 18 19  1  1
 20 19  1  0
 21 22  1  0
 23 21  2  0
M  END
$$$$
