DLC.pdb
     RDKit          3D

 23 22  0  0  1  0  0  0  0  0999 V2000
    8.7875  -18.4491   19.1044 N   0  0  0  0  0  0  0  0  0  0  0  0
   10.0730  -17.8250   19.0366 C   0  0  1  0  0  0  0  0  0  0  0  0
   10.4058  -17.4550   17.6328 C   0  0  0  0  0  0  0  0  0  0  0  0
   10.6333  -18.6822   16.8396 C   0  0  0  0  0  0  0  0  0  0  0  0
   10.7055  -19.7845   17.4320 O   0  0  0  0  0  0  0  0  0  0  0  0
   10.1444  -16.6004   19.9006 C   0  0  0  0  0  0  0  0  0  0  0  0
   11.2253  -15.9691   20.0255 O   0  0  0  0  0  0  0  0  0  0  0  0
   10.7637  -18.6076   15.4648 O   0  0  0  0  0  0  0  0  0  0  0  0
    6.4293  -12.8632   19.5801 C   0  0  0  0  0  0  0  0  0  0  0  0
    7.7786  -13.5261   19.8291 C   0  0  1  0  0  0  0  0  0  0  0  0
    8.7806  -12.3498   19.8081 C   0  0  0  0  0  0  0  0  0  0  0  0
    7.8862  -14.1332   21.1691 C   0  0  0  0  0  0  0  0  0  0  0  0
    9.1119  -14.9221   21.4868 C   0  0  2  0  0  0  0  0  0  0  0  0
    9.0200  -16.1109   20.6000 N   0  0  0  0  0  0  0  0  0  0  0  0
    9.1985  -15.4404   22.8536 C   0  0  0  0  0  0  0  0  0  0  0  0
    9.4057  -14.6707   23.8283 O   0  0  0  0  0  0  0  0  0  0  0  0
    9.0542  -16.8111   23.1467 N   0  0  0  0  0  0  0  0  0  0  0  0
    9.1860  -17.3279   24.4940 C   0  0  1  0  0  0  0  0  0  0  0  0
    8.0991  -18.3295   24.8195 C   0  0  0  0  0  0  0  0  0  0  0  0
    6.4930  -17.5056   24.6511 S   0  0  0  0  0  0  0  0  0  0  0  0
   10.4925  -18.0154   24.6486 C   0  0  0  0  0  0  0  0  0  0  0  0
   11.3666  -18.1279   23.5881 O   0  0  0  0  0  0  0  0  0  0  0  0
   10.8080  -18.5026   25.7618 O   0  0  0  0  0  0  0  0  0  0  0  0
  2  1  1  6
  3  2  1  0
  3  4  1  0
  4  5  2  0
  4  8  1  0
  6  2  1  0
  7  6  2  0
 10  9  1  1
 10 12  1  0
 11 10  1  0
 13 12  1  1
 13 14  1  0
 14  6  1  0
 15 13  1  0
 15 17  1  0
 16 15  2  0
 18 17  1  0
 18 21  1  0
 18 19  1  6
 20 19  1  0
 21 22  1  0
 23 21  2  0
M  END
$$$$
