DLC.pdb
     RDKit          3D

 23 22  0  0  1  0  0  0  0  0999 V2000
   10.1284  -19.0342   18.5583 N   0  0  0  0  0  0  0  0  0  0  0  0
   11.0714  -18.1729   17.9137 C   0  0  1  0  0  0  0  0  0  0  0  0
   10.8578  -18.1670   16.4397 C   0  0  0  0  0  0  0  0  0  0  0  0
   11.1628  -19.5061   15.8914 C   0  0  0  0  0  0  0  0  0  0  0  0
   10.4713  -20.4853   16.2581 O   0  0  0  0  0  0  0  0  0  0  0  0
   10.9867  -16.7670   18.4310 C   0  0  0  0  0  0  0  0  0  0  0  0
   11.9162  -15.9485   18.2110 O   0  0  0  0  0  0  0  0  0  0  0  0
   12.1970  -19.6687   14.9877 O   0  0  0  0  0  0  0  0  0  0  0  0
    8.2533  -12.0415   19.6208 C   0  0  0  0  0  0  0  0  0  0  0  0
    8.0191  -13.3156   20.4234 C   0  0  1  0  0  0  0  0  0  0  0  0
    6.4817  -13.3924   20.5592 C   0  0  0  0  0  0  0  0  0  0  0  0
    8.4292  -14.5360   19.7037 C   0  0  0  0  0  0  0  0  0  0  0  0
    9.8584  -14.9553   19.7887 C   0  0  2  0  0  0  0  0  0  0  0  0
    9.8780  -16.3087   19.1752 N   0  0  0  0  0  0  0  0  0  0  0  0
   10.3954  -15.1147   21.1416 C   0  0  0  0  0  0  0  0  0  0  0  0
   10.4892  -14.1319   21.9232 O   0  0  0  0  0  0  0  0  0  0  0  0
   10.8284  -16.3616   21.6350 N   0  0  0  0  0  0  0  0  0  0  0  0
   11.3386  -16.5212   22.9818 C   0  0  1  0  0  0  0  0  0  0  0  0
   10.3234  -17.1776   23.8921 C   0  0  0  0  0  0  0  0  0  0  0  0
   11.1105  -17.4914   25.4947 S   0  0  0  0  0  0  0  0  0  0  0  0
   12.5506  -17.3780   22.9673 C   0  0  0  0  0  0  0  0  0  0  0  0
   13.4760  -17.3182   23.9877 O   0  0  0  0  0  0  0  0  0  0  0  0
   12.7375  -18.1702   22.0113 O   0  0  0  0  0  0  0  0  0  0  0  0
  2  1  1  1
  3  2  1  0
  3  4  1  0
  4  5  2  0
  4  8  1  0
  6  2  1  0
  7  6  2  0
 10  9  1  6
 10 12  1  0
 11 10  1  0
 13 12  1  1
 13 14  1  0
 14  6  1  0
 15 13  1  0
 15 17  1  0
 16 15  2  0
 18 17  1  0
 18 21  1  0
 18 19  1  1
 20 19  1  0
 21 22  1  0
 23 21  2  0
M  END
$$$$
