DLC.pdb
     RDKit          3D

 23 22  0  0  1  0  0  0  0  0999 V2000
   10.6672  -18.6689   18.9126 N   0  0  0  0  0  0  0  0  0  0  0  0
    9.4718  -18.3369   19.6249 C   0  0  1  0  0  0  0  0  0  0  0  0
    9.0260  -19.4807   20.4683 C   0  0  0  0  0  0  0  0  0  0  0  0
    8.3067  -20.4624   19.6283 C   0  0  0  0  0  0  0  0  0  0  0  0
    8.7296  -20.6992   18.4723 O   0  0  0  0  0  0  0  0  0  0  0  0
    9.6575  -17.1264   20.4919 C   0  0  0  0  0  0  0  0  0  0  0  0
   10.7669  -16.8966   21.0385 O   0  0  0  0  0  0  0  0  0  0  0  0
    7.1846  -21.1063   20.1172 O   0  0  0  0  0  0  0  0  0  0  0  0
    8.6427  -13.5345   18.6719 C   0  0  0  0  0  0  0  0  0  0  0  0
    8.1639  -12.9746   20.0059 C   0  0  1  0  0  0  0  0  0  0  0  0
    6.8632  -12.2211   19.6477 C   0  0  0  0  0  0  0  0  0  0  0  0
    7.7789  -14.0237   20.9686 C   0  0  0  0  0  0  0  0  0  0  0  0
    8.8427  -14.9410   21.4711 C   0  0  2  0  0  0  0  0  0  0  0  0
    8.6123  -16.2073   20.7283 N   0  0  0  0  0  0  0  0  0  0  0  0
    8.7675  -15.2844   22.8926 C   0  0  0  0  0  0  0  0  0  0  0  0
    8.9907  -14.4215   23.7820 O   0  0  0  0  0  0  0  0  0  0  0  0
    8.4433  -16.5825   23.3348 N   0  0  0  0  0  0  0  0  0  0  0  0
    8.3381  -16.9123   24.7419 C   0  0  1  0  0  0  0  0  0  0  0  0
    7.0067  -17.5528   25.0698 C   0  0  0  0  0  0  0  0  0  0  0  0
    7.2344  -18.6471   26.4970 S   0  0  0  0  0  0  0  0  0  0  0  0
    9.4049  -17.8729   25.1193 C   0  0  0  0  0  0  0  0  0  0  0  0
   10.2090  -18.4548   24.1622 O   0  0  0  0  0  0  0  0  0  0  0  0
    9.5790  -18.1611   26.3288 O   0  0  0  0  0  0  0  0  0  0  0  0
  2  1  1  1
  3  2  1  0
  3  4  1  0
  4  5  2  0
  4  8  1  0
  6  2  1  0
  7  6  2  0
 10  9  1  6
 10 12  1  0
 11 10  1  0
 13 12  1  6
 13 14  1  0
 14  6  1  0
 15 13  1  0
 15 17  1  0
 16 15  2  0
 18 17  1  0
 18 21  1  0
 18 19  1  6
 20 19  1  0
 21 22  1  0
 23 21  2  0
M  END
$$$$
