DLC.pdb
     RDKit          3D

 23 22  0  0  1  0  0  0  0  0999 V2000
    8.2579  -17.9246   22.5154 N   0  0  0  0  0  0  0  0  0  0  0  0
    9.5911  -17.4130   22.4289 C   0  0  1  0  0  0  0  0  0  0  0  0
    9.9931  -17.2279   21.0068 C   0  0  0  0  0  0  0  0  0  0  0  0
   10.1719  -18.5497   20.3683 C   0  0  0  0  0  0  0  0  0  0  0  0
    9.9651  -19.5847   21.0446 O   0  0  0  0  0  0  0  0  0  0  0  0
    9.7362  -16.1093   23.1573 C   0  0  0  0  0  0  0  0  0  0  0  0
   10.7882  -15.4288   23.0450 O   0  0  0  0  0  0  0  0  0  0  0  0
   10.5617  -18.6355   19.0442 O   0  0  0  0  0  0  0  0  0  0  0  0
    7.5922  -11.4069   25.1753 C   0  0  0  0  0  0  0  0  0  0  0  0
    7.2348  -12.7202   25.8606 C   0  0  1  0  0  0  0  0  0  0  0  0
    5.7092  -12.6196   26.0847 C   0  0  0  0  0  0  0  0  0  0  0  0
    7.4464  -13.8984   24.9989 C   0  0  0  0  0  0  0  0  0  0  0  0
    8.8489  -14.2813   24.6638 C   0  0  2  0  0  0  0  0  0  0  0  0
    8.7152  -15.5976   23.9871 N   0  0  0  0  0  0  0  0  0  0  0  0
    9.7389  -14.5001   25.8058 C   0  0  0  0  0  0  0  0  0  0  0  0
   10.4301  -13.5605   26.2800 O   0  0  0  0  0  0  0  0  0  0  0  0
    9.8656  -15.7579   26.4282 N   0  0  0  0  0  0  0  0  0  0  0  0
   10.5866  -15.9314   27.6731 C   0  0  1  0  0  0  0  0  0  0  0  0
    9.8233  -15.3587   28.8478 C   0  0  0  0  0  0  0  0  0  0  0  0
    9.9165  -13.5502   28.7637 S   0  0  0  0  0  0  0  0  0  0  0  0
   10.8025  -17.3760   27.9377 C   0  0  0  0  0  0  0  0  0  0  0  0
   10.3386  -18.3361   27.0635 O   0  0  0  0  0  0  0  0  0  0  0  0
   11.4170  -17.7307   28.9735 O   0  0  0  0  0  0  0  0  0  0  0  0
  2  1  1  6
  3  2  1  0
  3  4  1  0
  4  5  2  0
  4  8  1  0
  6  2  1  0
  7  6  2  0
 10  9  1  6
 10 12  1  0
 11 10  1  0
 13 12  1  1
 13 14  1  0
 14  6  1  0
 15 13  1  0
 15 17  1  0
 16 15  2  0
 18 17  1  0
 18 21  1  0
 18 19  1  1
 20 19  1  0
 21 22  1  0
 23 21  2  0
M  END
$$$$
