DLC.pdb
     RDKit          3D

 23 22  0  0  1  0  0  0  0  0999 V2000
    9.7727  -18.4965   20.8652 N   0  0  0  0  0  0  0  0  0  0  0  0
   10.8667  -17.6019   21.0879 C   0  0  1  0  0  0  0  0  0  0  0  0
   11.5640  -17.2935   19.8084 C   0  0  0  0  0  0  0  0  0  0  0  0
   12.2826  -18.4962   19.3356 C   0  0  0  0  0  0  0  0  0  0  0  0
   12.1797  -19.5618   19.9878 O   0  0  0  0  0  0  0  0  0  0  0  0
   10.4179  -16.3209   21.7275 C   0  0  0  0  0  0  0  0  0  0  0  0
   11.2585  -15.4521   22.0752 O   0  0  0  0  0  0  0  0  0  0  0  0
   13.0551  -18.4394   18.1898 O   0  0  0  0  0  0  0  0  0  0  0  0
    6.2840  -13.4544   19.8796 C   0  0  0  0  0  0  0  0  0  0  0  0
    7.5978  -13.8229   20.5580 C   0  0  1  0  0  0  0  0  0  0  0  0
    8.3251  -12.4691   20.7204 C   0  0  0  0  0  0  0  0  0  0  0  0
    7.4152  -14.3568   21.9208 C   0  0  0  0  0  0  0  0  0  0  0  0
    8.6263  -14.8034   22.6687 C   0  0  2  0  0  0  0  0  0  0  0  0
    9.0548  -16.0392   21.9633 N   0  0  0  0  0  0  0  0  0  0  0  0
    8.4064  -15.1879   24.0644 C   0  0  0  0  0  0  0  0  0  0  0  0
    7.7871  -14.4304   24.8570 O   0  0  0  0  0  0  0  0  0  0  0  0
    8.8687  -16.4120   24.5873 N   0  0  0  0  0  0  0  0  0  0  0  0
    8.6107  -16.8106   25.9563 C   0  0  1  0  0  0  0  0  0  0  0  0
    7.1286  -16.9432   26.2321 C   0  0  0  0  0  0  0  0  0  0  0  0
    6.5044  -18.3830   25.3244 S   0  0  0  0  0  0  0  0  0  0  0  0
    9.2389  -18.1276   26.2287 C   0  0  0  0  0  0  0  0  0  0  0  0
    9.1529  -18.7125   27.4744 O   0  0  0  0  0  0  0  0  0  0  0  0
    9.8586  -18.7196   25.3112 O   0  0  0  0  0  0  0  0  0  0  0  0
  2  1  1  6
  3  2  1  0
  3  4  1  0
  4  5  2  0
  4  8  1  0
  6  2  1  0
  7  6  2  0
 10  9  1  1
 10 12  1  0
 11 10  1  0
 13 12  1  6
 13 14  1  0
 14  6  1  0
 15 13  1  0
 15 17  1  0
 16 15  2  0
 18 17  1  0
 18 21  1  0
 18 19  1  6
 20 19  1  0
 21 22  1  0
 23 21  2  0
M  END
$$$$
