DLC.pdb
     RDKit          3D

 23 22  0  0  1  0  0  0  0  0999 V2000
    9.8702  -15.9608   20.5013 N   0  0  0  0  0  0  0  0  0  0  0  0
    8.9256  -16.3379   21.5074 C   0  0  1  0  0  0  0  0  0  0  0  0
    8.9820  -17.8046   21.7598 C   0  0  0  0  0  0  0  0  0  0  0  0
    8.6166  -18.5323   20.5255 C   0  0  0  0  0  0  0  0  0  0  0  0
    7.4045  -18.7168   20.2645 O   0  0  0  0  0  0  0  0  0  0  0  0
    9.1610  -15.6053   22.7955 C   0  0  0  0  0  0  0  0  0  0  0  0
   10.3307  -15.4141   23.2169 O   0  0  0  0  0  0  0  0  0  0  0  0
    9.6026  -18.9998   19.6758 O   0  0  0  0  0  0  0  0  0  0  0  0
    7.8472  -11.8083   26.6200 C   0  0  0  0  0  0  0  0  0  0  0  0
    6.9249  -13.0087   26.4454 C   0  0  1  0  0  0  0  0  0  0  0  0
    5.5077  -12.3926   26.4489 C   0  0  0  0  0  0  0  0  0  0  0  0
    7.0808  -13.6724   25.1374 C   0  0  0  0  0  0  0  0  0  0  0  0
    8.3388  -14.4319   24.8802 C   0  0  2  0  0  0  0  0  0  0  0  0
    8.0973  -15.1065   23.5783 N   0  0  0  0  0  0  0  0  0  0  0  0
    8.6469  -15.4958   25.8381 C   0  0  0  0  0  0  0  0  0  0  0  0
    8.0264  -16.5912   25.8140 O   0  0  0  0  0  0  0  0  0  0  0  0
    9.6434  -15.3524   26.8240 N   0  0  0  0  0  0  0  0  0  0  0  0
   10.0730  -16.4619   27.6511 C   0  0  1  0  0  0  0  0  0  0  0  0
   11.2558  -17.1871   27.0466 C   0  0  0  0  0  0  0  0  0  0  0  0
   12.5261  -15.9624   26.6308 S   0  0  0  0  0  0  0  0  0  0  0  0
   10.4837  -15.9682   28.9894 C   0  0  0  0  0  0  0  0  0  0  0  0
   10.4600  -14.6225   29.2890 O   0  0  0  0  0  0  0  0  0  0  0  0
   10.8586  -16.7878   29.8635 O   0  0  0  0  0  0  0  0  0  0  0  0
  2  1  1  6
  3  2  1  0
  3  4  1  0
  4  5  2  0
  4  8  1  0
  6  2  1  0
  7  6  2  0
 10  9  1  6
 10 12  1  0
 11 10  1  0
 13 12  1  1
 13 14  1  0
 14  6  1  0
 15 13  1  0
 15 17  1  0
 16 15  2  0
 18 17  1  0
 18 21  1  0
 18 19  1  6
 20 19  1  0
 21 22  1  0
 23 21  2  0
M  END
$$$$
