DLC.pdb
     RDKit          3D

 23 22  0  0  1  0  0  0  0  0999 V2000
    8.8985  -15.3641   20.4014 N   0  0  0  0  0  0  0  0  0  0  0  0
    8.2412  -16.0465   21.4734 C   0  0  1  0  0  0  0  0  0  0  0  0
    8.3893  -17.5214   21.3286 C   0  0  0  0  0  0  0  0  0  0  0  0
    7.7236  -17.9646   20.0847 C   0  0  0  0  0  0  0  0  0  0  0  0
    6.6550  -17.4098   19.7360 O   0  0  0  0  0  0  0  0  0  0  0  0
    8.7732  -15.6253   22.8116 C   0  0  0  0  0  0  0  0  0  0  0  0
   10.0103  -15.4857   22.9918 O   0  0  0  0  0  0  0  0  0  0  0  0
    8.2773  -18.9768   19.3221 O   0  0  0  0  0  0  0  0  0  0  0  0
    5.7460  -12.3445   26.2125 C   0  0  0  0  0  0  0  0  0  0  0  0
    6.9314  -12.9210   25.4478 C   0  0  1  0  0  0  0  0  0  0  0  0
    8.1096  -12.0008   25.8392 C   0  0  0  0  0  0  0  0  0  0  0  0
    7.3034  -14.2767   25.8940 C   0  0  0  0  0  0  0  0  0  0  0  0
    8.4595  -14.9435   25.2273 C   0  0  2  0  0  0  0  0  0  0  0  0
    7.9226  -15.3713   23.9093 N   0  0  0  0  0  0  0  0  0  0  0  0
    8.9552  -16.1581   25.8777 C   0  0  0  0  0  0  0  0  0  0  0  0
    8.2301  -17.1825   25.9797 O   0  0  0  0  0  0  0  0  0  0  0  0
   10.2549  -16.2444   26.4152 N   0  0  0  0  0  0  0  0  0  0  0  0
   10.7655  -17.4670   27.0020 C   0  0  1  0  0  0  0  0  0  0  0  0
   12.2755  -17.5366   26.9284 C   0  0  0  0  0  0  0  0  0  0  0  0
   12.8210  -19.0411   27.7800 S   0  0  0  0  0  0  0  0  0  0  0  0
   10.3806  -17.5423   28.4336 C   0  0  0  0  0  0  0  0  0  0  0  0
   10.1625  -18.7571   29.0484 O   0  0  0  0  0  0  0  0  0  0  0  0
   10.2513  -16.4840   29.0966 O   0  0  0  0  0  0  0  0  0  0  0  0
  2  1  1  6
  3  2  1  0
  3  4  1  0
  4  5  2  0
  4  8  1  0
  6  2  1  0
  7  6  2  0
 10  9  1  1
 10 12  1  0
 11 10  1  0
 13 12  1  1
 13 14  1  0
 14  6  1  0
 15 13  1  0
 15 17  1  0
 16 15  2  0
 18 17  1  0
 18 21  1  0
 18 19  1  1
 20 19  1  0
 21 22  1  0
 23 21  2  0
M  END
$$$$
