EDM.pdb
     RDKit          3D

 26 25  0  0  1  0  0  0  0  0999 V2000
    6.6211  -17.7700   19.8684 N   0  0  0  0  0  0  0  0  0  0  0  0
    8.0828  -17.5803   19.8126 C   0  0  1  0  0  0  0  0  0  0  0  0
    8.2897  -16.2245   19.2224 C   0  0  0  0  0  0  0  0  0  0  0  0
    7.7818  -15.0808   20.0307 C   0  0  0  0  0  0  0  0  0  0  0  0
    7.9880  -13.8197   19.2435 C   0  0  0  0  0  0  0  0  0  0  0  0
    8.3583  -12.7487   19.7711 O   0  0  0  0  0  0  0  0  0  0  0  0
    8.5782  -17.6074   21.2173 C   0  0  0  0  0  0  0  0  0  0  0  0
    7.7963  -17.4003   22.1813 O   0  0  0  0  0  0  0  0  0  0  0  0
    7.7647  -13.8184   17.8736 O   0  0  0  0  0  0  0  0  0  0  0  0
    9.9549  -17.8682   21.5319 N   0  0  0  0  0  0  0  0  0  0  0  0
   10.3611  -17.9578   22.8965 C   0  0  1  0  0  0  0  0  0  0  0  0
   11.8207  -18.3475   22.9815 C   0  0  0  0  0  0  0  0  0  0  0  0
   12.1704  -18.5915   24.3828 C   0  0  0  0  0  0  0  0  0  0  0  0
   11.2620  -19.0800   25.1171 O   0  0  0  0  0  0  0  0  0  0  0  0
   10.1638  -16.6730   23.6393 C   0  0  0  0  0  0  0  0  0  0  0  0
   10.4854  -15.6228   23.0500 O   0  0  0  0  0  0  0  0  0  0  0  0
   13.3858  -18.3431   24.9814 O   0  0  0  0  0  0  0  0  0  0  0  0
    6.4620  -11.0379   26.6995 C   0  0  0  0  0  0  0  0  0  0  0  0
    6.5145  -12.6109   25.8208 S   0  0  0  0  0  0  0  0  0  0  0  0
    8.0497  -13.4647   26.3139 C   0  0  0  0  0  0  0  0  0  0  0  0
    8.1559  -14.6924   25.4857 C   0  0  0  0  0  0  0  0  0  0  0  0
    9.4055  -15.5128   25.8027 C   0  0  2  0  0  0  0  0  0  0  0  0
    9.6399  -16.6296   24.9459 N   0  0  0  0  0  0  0  0  0  0  0  0
    9.4688  -15.7673   27.2350 C   0  0  0  0  0  0  0  0  0  0  0  0
    9.3245  -16.9517   27.6294 O   0  0  0  0  0  0  0  0  0  0  0  0
    9.6767  -14.8086   28.2170 O   0  0  0  0  0  0  0  0  0  0  0  0
  2  1  1  1
  3  2  1  0
  3  4  1  0
  5  4  1  0
  5  6  2  0
  7  2  1  0
  7  8  2  0
  9  5  1  0
 10  7  1  0
 11 10  1  0
 11 12  1  6
 13 12  1  0
 13 17  1  0
 14 13  2  0
 15 11  1  0
 16 15  2  0
 18 19  1  0
 19 20  1  0
 20 21  1  0
 22 21  1  1
 22 23  1  0
 22 24  1  0
 23 15  1  0
 24 26  1  0
 25 24  2  0
M  END
$$$$
