EDM.pdb
     RDKit          3D

 26 25  0  0  1  0  0  0  0  0999 V2000
    5.9903  -17.6518   21.4057 N   0  0  0  0  0  0  0  0  0  0  0  0
    6.6799  -18.7061   22.1729 C   0  0  1  0  0  0  0  0  0  0  0  0
    6.5473  -19.9491   21.3563 C   0  0  0  0  0  0  0  0  0  0  0  0
    5.5503  -19.8954   20.2505 C   0  0  0  0  0  0  0  0  0  0  0  0
    5.1508  -21.3010   19.9083 C   0  0  0  0  0  0  0  0  0  0  0  0
    4.3421  -21.5681   18.9934 O   0  0  0  0  0  0  0  0  0  0  0  0
    8.1121  -18.3075   22.2686 C   0  0  0  0  0  0  0  0  0  0  0  0
    8.9264  -18.9852   22.9477 O   0  0  0  0  0  0  0  0  0  0  0  0
    5.6876  -22.3631   20.6225 O   0  0  0  0  0  0  0  0  0  0  0  0
    8.6230  -17.1451   21.5978 N   0  0  0  0  0  0  0  0  0  0  0  0
    9.9466  -16.6938   21.8796 C   0  0  1  0  0  0  0  0  0  0  0  0
   10.5718  -16.1021   20.6352 C   0  0  0  0  0  0  0  0  0  0  0  0
   10.8386  -17.1766   19.6761 C   0  0  0  0  0  0  0  0  0  0  0  0
    9.9722  -17.3563   18.7704 O   0  0  0  0  0  0  0  0  0  0  0  0
    9.9830  -15.6674   22.9690 C   0  0  0  0  0  0  0  0  0  0  0  0
   10.1968  -14.4875   22.6287 O   0  0  0  0  0  0  0  0  0  0  0  0
   11.9350  -18.0101   19.6604 O   0  0  0  0  0  0  0  0  0  0  0  0
    6.0667  -11.3423   27.3307 C   0  0  0  0  0  0  0  0  0  0  0  0
    6.3941  -12.4576   25.9529 S   0  0  0  0  0  0  0  0  0  0  0  0
    7.8776  -13.4321   26.3755 C   0  0  0  0  0  0  0  0  0  0  0  0
    8.2046  -14.2703   25.1945 C   0  0  0  0  0  0  0  0  0  0  0  0
    9.4188  -15.1687   25.4255 C   0  0  2  0  0  0  0  0  0  0  0  0
    9.7870  -15.9978   24.3240 N   0  0  0  0  0  0  0  0  0  0  0  0
    9.2992  -15.8232   26.7207 C   0  0  0  0  0  0  0  0  0  0  0  0
    8.8534  -16.9978   26.7477 O   0  0  0  0  0  0  0  0  0  0  0  0
    9.6371  -15.2608   27.9438 O   0  0  0  0  0  0  0  0  0  0  0  0
  2  1  1  6
  3  2  1  0
  3  4  1  0
  5  4  1  0
  5  6  2  0
  7  2  1  0
  7  8  2  0
  9  5  1  0
 10  7  1  0
 11 10  1  0
 11 12  1  6
 13 12  1  0
 13 17  1  0
 14 13  2  0
 15 11  1  0
 16 15  2  0
 18 19  1  0
 19 20  1  0
 20 21  1  0
 22 21  1  6
 22 23  1  0
 22 24  1  0
 23 15  1  0
 24 26  1  0
 25 24  2  0
M  END
$$$$
