EDM.pdb
     RDKit          3D

 26 25  0  0  1  0  0  0  0  0999 V2000
    9.9300  -15.0077   19.5395 N   0  0  0  0  0  0  0  0  0  0  0  0
    8.8650  -14.0481   19.8872 C   0  0  1  0  0  0  0  0  0  0  0  0
    8.3666  -13.5122   18.5857 C   0  0  0  0  0  0  0  0  0  0  0  0
    7.7842  -14.5158   17.6513 C   0  0  0  0  0  0  0  0  0  0  0  0
    8.7233  -14.6804   16.4922 C   0  0  0  0  0  0  0  0  0  0  0  0
    9.7750  -14.0147   16.3771 O   0  0  0  0  0  0  0  0  0  0  0  0
    7.7887  -14.8214   20.5675 C   0  0  0  0  0  0  0  0  0  0  0  0
    6.6978  -15.0572   19.9863 O   0  0  0  0  0  0  0  0  0  0  0  0
    8.4333  -15.6024   15.4961 O   0  0  0  0  0  0  0  0  0  0  0  0
    7.9451  -15.3272   21.9024 N   0  0  0  0  0  0  0  0  0  0  0  0
    8.9127  -16.3427   22.1623 C   0  0  1  0  0  0  0  0  0  0  0  0
    9.7100  -16.6359   20.9102 C   0  0  0  0  0  0  0  0  0  0  0  0
    9.4532  -18.0158   20.4911 C   0  0  0  0  0  0  0  0  0  0  0  0
   10.3637  -18.8612   20.7346 O   0  0  0  0  0  0  0  0  0  0  0  0
    9.8613  -15.9645   23.2572 C   0  0  0  0  0  0  0  0  0  0  0  0
   10.9174  -15.3947   22.9200 O   0  0  0  0  0  0  0  0  0  0  0  0
    8.3229  -18.4855   19.8593 O   0  0  0  0  0  0  0  0  0  0  0  0
    6.2194  -11.1938   27.4091 C   0  0  0  0  0  0  0  0  0  0  0  0
    6.4891  -12.3620   26.0630 S   0  0  0  0  0  0  0  0  0  0  0  0
    7.8748  -13.4463   26.5459 C   0  0  0  0  0  0  0  0  0  0  0  0
    8.1389  -14.3577   25.4041 C   0  0  0  0  0  0  0  0  0  0  0  0
    9.2813  -15.3344   25.6796 C   0  0  2  0  0  0  0  0  0  0  0  0
    9.5926  -16.2308   24.6138 N   0  0  0  0  0  0  0  0  0  0  0  0
    9.1059  -15.9274   26.9979 C   0  0  0  0  0  0  0  0  0  0  0  0
    9.2564  -15.1861   28.0014 O   0  0  0  0  0  0  0  0  0  0  0  0
    8.7836  -17.2536   27.2503 O   0  0  0  0  0  0  0  0  0  0  0  0
  2  1  1  6
  3  2  1  0
  3  4  1  0
  5  4  1  0
  5  6  2  0
  7  2  1  0
  7  8  2  0
  9  5  1  0
 10  7  1  0
 11 10  1  0
 11 12  1  6
 13 12  1  0
 13 17  1  0
 14 13  2  0
 15 11  1  0
 16 15  2  0
 18 19  1  0
 19 20  1  0
 20 21  1  0
 22 21  1  6
 22 23  1  0
 22 24  1  0
 23 15  1  0
 24 26  1  0
 25 24  2  0
M  END
$$$$
