EDM.pdb
     RDKit          3D

 26 25  0  0  1  0  0  0  0  0999 V2000
    6.7071  -15.4799   19.2277 N   0  0  0  0  0  0  0  0  0  0  0  0
    8.0197  -14.9800   19.6784 C   0  0  1  0  0  0  0  0  0  0  0  0
    7.8085  -13.5398   20.0111 C   0  0  0  0  0  0  0  0  0  0  0  0
    7.8019  -12.6011   18.8542 C   0  0  0  0  0  0  0  0  0  0  0  0
    9.2213  -12.3787   18.4204 C   0  0  0  0  0  0  0  0  0  0  0  0
    9.5367  -11.5362   17.5525 O   0  0  0  0  0  0  0  0  0  0  0  0
    8.3758  -15.7419   20.9080 C   0  0  0  0  0  0  0  0  0  0  0  0
    7.4892  -16.0916   21.7297 O   0  0  0  0  0  0  0  0  0  0  0  0
   10.2416  -13.1265   18.9916 O   0  0  0  0  0  0  0  0  0  0  0  0
    9.7316  -16.1079   21.2084 N   0  0  0  0  0  0  0  0  0  0  0  0
   10.0107  -16.8830   22.3729 C   0  0  1  0  0  0  0  0  0  0  0  0
   11.2890  -17.6697   22.1817 C   0  0  0  0  0  0  0  0  0  0  0  0
   11.6131  -18.3672   23.4283 C   0  0  0  0  0  0  0  0  0  0  0  0
   10.6867  -19.0539   23.9512 O   0  0  0  0  0  0  0  0  0  0  0  0
   10.1453  -16.0412   23.6037 C   0  0  0  0  0  0  0  0  0  0  0  0
   10.8731  -15.0325   23.5232 O   0  0  0  0  0  0  0  0  0  0  0  0
   12.8220  -18.3510   24.0883 O   0  0  0  0  0  0  0  0  0  0  0  0
    6.4662  -11.2803   27.8779 C   0  0  0  0  0  0  0  0  0  0  0  0
    6.5172  -12.5324   26.5822 S   0  0  0  0  0  0  0  0  0  0  0  0
    7.9177  -13.6437   26.9468 C   0  0  0  0  0  0  0  0  0  0  0  0
    8.0153  -14.6113   25.8250 C   0  0  0  0  0  0  0  0  0  0  0  0
    9.2229  -15.5394   25.9487 C   0  0  2  0  0  0  0  0  0  0  0  0
    9.4882  -16.3561   24.8090 N   0  0  0  0  0  0  0  0  0  0  0  0
    9.1863  -16.2146   27.2383 C   0  0  0  0  0  0  0  0  0  0  0  0
    9.6743  -15.6164   28.2298 O   0  0  0  0  0  0  0  0  0  0  0  0
    8.6549  -17.4747   27.4751 O   0  0  0  0  0  0  0  0  0  0  0  0
  2  1  1  1
  3  2  1  0
  3  4  1  0
  5  4  1  0
  5  6  2  0
  7  2  1  0
  7  8  2  0
  9  5  1  0
 10  7  1  0
 11 10  1  0
 11 12  1  6
 13 12  1  0
 13 17  1  0
 14 13  2  0
 15 11  1  0
 16 15  2  0
 18 19  1  0
 19 20  1  0
 20 21  1  0
 22 21  1  6
 22 23  1  0
 22 24  1  0
 23 15  1  0
 24 26  1  0
 25 24  2  0
M  END
$$$$
