EDM.pdb
     RDKit          3D

 26 25  0  0  1  0  0  0  0  0999 V2000
   11.8511  -16.6133   19.3457 N   0  0  0  0  0  0  0  0  0  0  0  0
   12.0573  -16.9488   20.7673 C   0  0  1  0  0  0  0  0  0  0  0  0
   13.0181  -15.9299   21.2852 C   0  0  0  0  0  0  0  0  0  0  0  0
   14.4614  -16.2326   21.0734 C   0  0  0  0  0  0  0  0  0  0  0  0
   15.1484  -16.2076   22.4075 C   0  0  0  0  0  0  0  0  0  0  0  0
   15.6512  -15.1686   22.8873 O   0  0  0  0  0  0  0  0  0  0  0  0
   10.7389  -16.7991   21.4446 C   0  0  0  0  0  0  0  0  0  0  0  0
   10.1359  -15.6946   21.4457 O   0  0  0  0  0  0  0  0  0  0  0  0
   15.2414  -17.3724   23.1565 O   0  0  0  0  0  0  0  0  0  0  0  0
   10.1032  -17.8959   22.1193 N   0  0  0  0  0  0  0  0  0  0  0  0
    8.8319  -17.7018   22.7366 C   0  0  1  0  0  0  0  0  0  0  0  0
    7.9574  -18.9180   22.5229 C   0  0  0  0  0  0  0  0  0  0  0  0
    6.6530  -18.6856   23.1475 C   0  0  0  0  0  0  0  0  0  0  0  0
    6.6489  -18.5005   24.4000 O   0  0  0  0  0  0  0  0  0  0  0  0
    8.9418  -17.4426   24.2071 C   0  0  0  0  0  0  0  0  0  0  0  0
    9.0651  -18.4361   24.9497 O   0  0  0  0  0  0  0  0  0  0  0  0
    5.4322  -18.6487   22.5106 O   0  0  0  0  0  0  0  0  0  0  0  0
    6.9182  -10.8905   25.8981 C   0  0  0  0  0  0  0  0  0  0  0  0
    6.9526  -12.4988   26.7115 S   0  0  0  0  0  0  0  0  0  0  0  0
    6.9937  -13.7736   25.4068 C   0  0  0  0  0  0  0  0  0  0  0  0
    7.0758  -15.0928   26.0830 C   0  0  0  0  0  0  0  0  0  0  0  0
    8.4789  -15.6959   26.0336 C   0  0  2  0  0  0  0  0  0  0  0  0
    8.9097  -16.1429   24.7487 N   0  0  0  0  0  0  0  0  0  0  0  0
    8.6444  -16.6315   27.1369 C   0  0  0  0  0  0  0  0  0  0  0  0
    9.3907  -16.2924   28.0894 O   0  0  0  0  0  0  0  0  0  0  0  0
    8.0454  -17.8798   27.2337 O   0  0  0  0  0  0  0  0  0  0  0  0
  2  1  1  6
  3  2  1  0
  3  4  1  0
  5  4  1  0
  5  6  2  0
  7  2  1  0
  7  8  2  0
  9  5  1  0
 10  7  1  0
 11 10  1  0
 11 12  1  1
 13 12  1  0
 13 17  1  0
 14 13  2  0
 15 11  1  0
 16 15  2  0
 18 19  1  0
 19 20  1  0
 20 21  1  0
 22 21  1  6
 22 23  1  0
 22 24  1  0
 23 15  1  0
 24 26  1  0
 25 24  2  0
M  END
$$$$
