EDM.pdb
     RDKit          3D

 26 25  0  0  1  0  0  0  0  0999 V2000
    9.4922  -12.6436   18.8980 N   0  0  0  0  0  0  0  0  0  0  0  0
    8.4192  -13.6249   18.6494 C   0  0  1  0  0  0  0  0  0  0  0  0
    8.7195  -14.2185   17.3127 C   0  0  0  0  0  0  0  0  0  0  0  0
    7.7014  -13.9771   16.2522 C   0  0  0  0  0  0  0  0  0  0  0  0
    8.1141  -14.7323   15.0227 C   0  0  0  0  0  0  0  0  0  0  0  0
    9.1491  -15.4318   14.9771 O   0  0  0  0  0  0  0  0  0  0  0  0
    8.5299  -14.6670   19.7083 C   0  0  0  0  0  0  0  0  0  0  0  0
    7.5345  -15.3651   20.0328 O   0  0  0  0  0  0  0  0  0  0  0  0
    7.3312  -14.6666   13.8786 O   0  0  0  0  0  0  0  0  0  0  0  0
    9.7633  -14.9195   20.3990 N   0  0  0  0  0  0  0  0  0  0  0  0
    9.8157  -15.9357   21.3987 C   0  0  1  0  0  0  0  0  0  0  0  0
   10.9075  -16.9316   21.0733 C   0  0  0  0  0  0  0  0  0  0  0  0
   11.0000  -17.9121   22.1576 C   0  0  0  0  0  0  0  0  0  0  0  0
   11.3866  -17.4786   23.2826 O   0  0  0  0  0  0  0  0  0  0  0  0
   10.0644  -15.3818   22.7673 C   0  0  0  0  0  0  0  0  0  0  0  0
   10.7256  -14.3277   22.8402 O   0  0  0  0  0  0  0  0  0  0  0  0
   10.7099  -19.2561   22.0766 O   0  0  0  0  0  0  0  0  0  0  0  0
    6.0166  -11.7227   27.6005 C   0  0  0  0  0  0  0  0  0  0  0  0
    6.4689  -12.4477   26.0133 S   0  0  0  0  0  0  0  0  0  0  0  0
    7.6210  -13.8229   26.3458 C   0  0  0  0  0  0  0  0  0  0  0  0
    8.0651  -14.3524   25.0318 C   0  0  0  0  0  0  0  0  0  0  0  0
    9.1353  -15.4353   25.1621 C   0  0  2  0  0  0  0  0  0  0  0  0
    9.5823  -16.0071   23.9335 N   0  0  0  0  0  0  0  0  0  0  0  0
    8.7564  -16.3682   26.2139 C   0  0  0  0  0  0  0  0  0  0  0  0
    8.1591  -17.4219   25.8790 O   0  0  0  0  0  0  0  0  0  0  0  0
    8.9978  -16.1976   27.5700 O   0  0  0  0  0  0  0  0  0  0  0  0
  2  1  1  1
  3  2  1  0
  3  4  1  0
  5  4  1  0
  5  6  2  0
  7  2  1  0
  7  8  2  0
  9  5  1  0
 10  7  1  0
 11 10  1  0
 11 12  1  6
 13 12  1  0
 13 17  1  0
 14 13  2  0
 15 11  1  0
 16 15  2  0
 18 19  1  0
 19 20  1  0
 20 21  1  0
 22 21  1  6
 22 23  1  0
 22 24  1  0
 23 15  1  0
 24 26  1  0
 25 24  2  0
M  END
$$$$
