EDM.pdb
     RDKit          3D

 26 25  0  0  1  0  0  0  0  0999 V2000
    9.2001  -12.8409   19.0472 N   0  0  0  0  0  0  0  0  0  0  0  0
    7.8778  -13.3648   19.4383 C   0  0  1  0  0  0  0  0  0  0  0  0
    7.2199  -13.7855   18.1656 C   0  0  0  0  0  0  0  0  0  0  0  0
    7.9831  -13.5049   16.9174 C   0  0  0  0  0  0  0  0  0  0  0  0
    8.7901  -14.7231   16.5751 C   0  0  0  0  0  0  0  0  0  0  0  0
    9.5177  -15.3055   17.4081 O   0  0  0  0  0  0  0  0  0  0  0  0
    8.1199  -14.5517   20.3054 C   0  0  0  0  0  0  0  0  0  0  0  0
    7.1589  -15.2176   20.7706 O   0  0  0  0  0  0  0  0  0  0  0  0
    8.7427  -15.2418   15.2886 O   0  0  0  0  0  0  0  0  0  0  0  0
    9.4459  -14.9852   20.6461 N   0  0  0  0  0  0  0  0  0  0  0  0
    9.6235  -16.0044   21.6283 C   0  0  1  0  0  0  0  0  0  0  0  0
   10.8866  -16.7877   21.3444 C   0  0  0  0  0  0  0  0  0  0  0  0
   10.9924  -17.8897   22.3036 C   0  0  0  0  0  0  0  0  0  0  0  0
   11.8122  -17.7355   23.2562 O   0  0  0  0  0  0  0  0  0  0  0  0
    9.7029  -15.4539   23.0183 C   0  0  0  0  0  0  0  0  0  0  0  0
   10.0956  -14.2771   23.1400 O   0  0  0  0  0  0  0  0  0  0  0  0
   10.2915  -19.0750   22.2735 O   0  0  0  0  0  0  0  0  0  0  0  0
    7.0366  -11.0966   27.3310 C   0  0  0  0  0  0  0  0  0  0  0  0
    6.5940  -12.6948   26.6244 S   0  0  0  0  0  0  0  0  0  0  0  0
    8.1322  -13.4806   26.0367 C   0  0  0  0  0  0  0  0  0  0  0  0
    7.7596  -14.7916   25.4480 C   0  0  0  0  0  0  0  0  0  0  0  0
    8.9184  -15.7876   25.4421 C   0  0  2  0  0  0  0  0  0  0  0  0
    9.3546  -16.2136   24.1519 N   0  0  0  0  0  0  0  0  0  0  0  0
    8.6636  -16.8348   26.4211 C   0  0  0  0  0  0  0  0  0  0  0  0
    8.2390  -17.9411   26.0027 O   0  0  0  0  0  0  0  0  0  0  0  0
    8.8494  -16.7211   27.7919 O   0  0  0  0  0  0  0  0  0  0  0  0
  2  1  1  6
  3  2  1  0
  3  4  1  0
  5  4  1  0
  5  6  2  0
  7  2  1  0
  7  8  2  0
  9  5  1  0
 10  7  1  0
 11 10  1  0
 11 12  1  6
 13 12  1  0
 13 17  1  0
 14 13  2  0
 15 11  1  0
 16 15  2  0
 18 19  1  0
 19 20  1  0
 20 21  1  0
 22 21  1  6
 22 23  1  0
 22 24  1  0
 23 15  1  0
 24 26  1  0
 25 24  2  0
M  END
$$$$
