EDM.pdb
     RDKit          3D

 26 25  0  0  1  0  0  0  0  0999 V2000
    5.8854  -16.8479   20.8187 N   0  0  0  0  0  0  0  0  0  0  0  0
    7.2803  -17.0247   20.3726 C   0  0  1  0  0  0  0  0  0  0  0  0
    7.6131  -15.7931   19.5967 C   0  0  0  0  0  0  0  0  0  0  0  0
    7.6696  -14.5278   20.3811 C   0  0  0  0  0  0  0  0  0  0  0  0
    8.0383  -13.4116   19.4481 C   0  0  0  0  0  0  0  0  0  0  0  0
    7.6860  -13.3914   18.2489 O   0  0  0  0  0  0  0  0  0  0  0  0
    8.1225  -17.0994   21.5992 C   0  0  0  0  0  0  0  0  0  0  0  0
    7.5975  -17.1051   22.7428 O   0  0  0  0  0  0  0  0  0  0  0  0
    8.8003  -12.3486   19.9126 O   0  0  0  0  0  0  0  0  0  0  0  0
    9.5554  -17.1674   21.5332 N   0  0  0  0  0  0  0  0  0  0  0  0
   10.3016  -17.4657   22.7119 C   0  0  1  0  0  0  0  0  0  0  0  0
   11.7414  -17.7650   22.3557 C   0  0  0  0  0  0  0  0  0  0  0  0
   12.4531  -18.1969   23.5610 C   0  0  0  0  0  0  0  0  0  0  0  0
   11.8045  -18.9184   24.3745 O   0  0  0  0  0  0  0  0  0  0  0  0
   10.2763  -16.3460   23.7055 C   0  0  0  0  0  0  0  0  0  0  0  0
   11.2069  -15.5186   23.6504 O   0  0  0  0  0  0  0  0  0  0  0  0
   13.7545  -17.8971   23.8983 O   0  0  0  0  0  0  0  0  0  0  0  0
    6.5015  -11.1360   26.0695 C   0  0  0  0  0  0  0  0  0  0  0  0
    6.1737  -12.7106   26.8834 S   0  0  0  0  0  0  0  0  0  0  0  0
    7.7564  -13.6115   26.9947 C   0  0  0  0  0  0  0  0  0  0  0  0
    7.8129  -14.5458   25.8422 C   0  0  0  0  0  0  0  0  0  0  0  0
    9.1383  -15.3017   25.7588 C   0  0  2  0  0  0  0  0  0  0  0  0
    9.2565  -16.2141   24.6680 N   0  0  0  0  0  0  0  0  0  0  0  0
    9.4890  -15.8138   27.0760 C   0  0  0  0  0  0  0  0  0  0  0  0
    9.5288  -14.9997   28.0325 O   0  0  0  0  0  0  0  0  0  0  0  0
    9.7871  -17.1359   27.3752 O   0  0  0  0  0  0  0  0  0  0  0  0
  2  1  1  1
  3  2  1  0
  3  4  1  0
  5  4  1  0
  5  6  2  0
  7  2  1  0
  7  8  2  0
  9  5  1  0
 10  7  1  0
 11 10  1  0
 11 12  1  6
 13 12  1  0
 13 17  1  0
 14 13  2  0
 15 11  1  0
 16 15  2  0
 18 19  1  0
 19 20  1  0
 20 21  1  0
 22 21  1  1
 22 23  1  0
 22 24  1  0
 23 15  1  0
 24 26  1  0
 25 24  2  0
M  END
$$$$
