EDM.pdb
     RDKit          3D

 26 25  0  0  1  0  0  0  0  0999 V2000
    9.4256  -13.2071   21.0253 N   0  0  0  0  0  0  0  0  0  0  0  0
    8.1063  -13.7552   21.3928 C   0  0  1  0  0  0  0  0  0  0  0  0
    7.4517  -14.1255   20.1029 C   0  0  0  0  0  0  0  0  0  0  0  0
    7.9393  -13.4002   18.8964 C   0  0  0  0  0  0  0  0  0  0  0  0
    8.1400  -14.4000   17.7952 C   0  0  0  0  0  0  0  0  0  0  0  0
    7.9110  -15.6200   17.9425 O   0  0  0  0  0  0  0  0  0  0  0  0
    8.3553  -14.9764   22.2089 C   0  0  0  0  0  0  0  0  0  0  0  0
    7.3986  -15.6765   22.6309 O   0  0  0  0  0  0  0  0  0  0  0  0
    8.5975  -13.9765   16.5551 O   0  0  0  0  0  0  0  0  0  0  0  0
    9.6833  -15.4054   22.5475 N   0  0  0  0  0  0  0  0  0  0  0  0
    9.8653  -16.5904   23.3206 C   0  0  1  0  0  0  0  0  0  0  0  0
   11.2562  -17.1455   23.1046 C   0  0  0  0  0  0  0  0  0  0  0  0
   11.3923  -18.3997   23.8489 C   0  0  0  0  0  0  0  0  0  0  0  0
   10.3276  -19.0508   24.0622 O   0  0  0  0  0  0  0  0  0  0  0  0
    9.6648  -16.3560   24.7857 C   0  0  0  0  0  0  0  0  0  0  0  0
    9.2918  -17.3293   25.4692 O   0  0  0  0  0  0  0  0  0  0  0  0
   12.5598  -18.9411   24.3398 O   0  0  0  0  0  0  0  0  0  0  0  0
    5.4915  -12.3256   26.5844 C   0  0  0  0  0  0  0  0  0  0  0  0
    7.0982  -11.5086   26.6005 S   0  0  0  0  0  0  0  0  0  0  0  0
    8.3253  -12.6971   25.9595 C   0  0  0  0  0  0  0  0  0  0  0  0
    8.4276  -13.8002   26.9480 C   0  0  0  0  0  0  0  0  0  0  0  0
    9.6603  -14.6765   26.7301 C   0  0  2  0  0  0  0  0  0  0  0  0
    9.8819  -15.1004   25.3857 N   0  0  0  0  0  0  0  0  0  0  0  0
    9.7082  -15.7104   27.7543 C   0  0  0  0  0  0  0  0  0  0  0  0
    9.7240  -16.9098   27.3797 O   0  0  0  0  0  0  0  0  0  0  0  0
    9.7384  -15.4890   29.1242 O   0  0  0  0  0  0  0  0  0  0  0  0
  2  1  1  6
  3  2  1  0
  3  4  1  0
  5  4  1  0
  5  6  2  0
  7  2  1  0
  7  8  2  0
  9  5  1  0
 10  7  1  0
 11 10  1  0
 11 12  1  1
 13 12  1  0
 13 17  1  0
 14 13  2  0
 15 11  1  0
 16 15  2  0
 18 19  1  0
 19 20  1  0
 20 21  1  0
 22 21  1  6
 22 23  1  0
 22 24  1  0
 23 15  1  0
 24 26  1  0
 25 24  2  0
M  END
$$$$
