EDM.pdb
     RDKit          3D

 26 25  0  0  1  0  0  0  0  0999 V2000
    9.1378  -13.4698   18.5690 N   0  0  0  0  0  0  0  0  0  0  0  0
    9.4620  -14.8950   18.7680 C   0  0  1  0  0  0  0  0  0  0  0  0
   10.9530  -14.9736   18.7534 C   0  0  0  0  0  0  0  0  0  0  0  0
   11.6653  -13.9282   19.5403 C   0  0  0  0  0  0  0  0  0  0  0  0
   13.1413  -14.1705   19.4172 C   0  0  0  0  0  0  0  0  0  0  0  0
   13.8529  -14.5043   20.3892 O   0  0  0  0  0  0  0  0  0  0  0  0
    8.9430  -15.2751   20.1117 C   0  0  0  0  0  0  0  0  0  0  0  0
    8.3986  -14.4208   20.8583 O   0  0  0  0  0  0  0  0  0  0  0  0
   13.7632  -14.0241   18.1850 O   0  0  0  0  0  0  0  0  0  0  0  0
    9.0392  -16.6181   20.6107 N   0  0  0  0  0  0  0  0  0  0  0  0
    8.3457  -16.9778   21.8043 C   0  0  1  0  0  0  0  0  0  0  0  0
    8.1270  -18.4743   21.8495 C   0  0  0  0  0  0  0  0  0  0  0  0
    7.4816  -18.8259   23.1166 C   0  0  0  0  0  0  0  0  0  0  0  0
    8.2369  -18.9325   24.1272 O   0  0  0  0  0  0  0  0  0  0  0  0
    9.0797  -16.5628   23.0414 C   0  0  0  0  0  0  0  0  0  0  0  0
   10.3194  -16.6921   23.0347 O   0  0  0  0  0  0  0  0  0  0  0  0
    6.1381  -19.0524   23.3191 O   0  0  0  0  0  0  0  0  0  0  0  0
    5.8927  -11.7915   26.9233 C   0  0  0  0  0  0  0  0  0  0  0  0
    7.6497  -11.5634   26.5913 S   0  0  0  0  0  0  0  0  0  0  0  0
    8.4445  -13.2029   26.6879 C   0  0  0  0  0  0  0  0  0  0  0  0
    7.9729  -13.9900   25.5207 C   0  0  0  0  0  0  0  0  0  0  0  0
    8.8941  -15.1628   25.1878 C   0  0  2  0  0  0  0  0  0  0  0  0
    8.4193  -16.0472   24.1735 N   0  0  0  0  0  0  0  0  0  0  0  0
    9.3608  -15.7792   26.4217 C   0  0  0  0  0  0  0  0  0  0  0  0
   10.1379  -15.1162   27.1536 O   0  0  0  0  0  0  0  0  0  0  0  0
    9.0211  -17.0485   26.8689 O   0  0  0  0  0  0  0  0  0  0  0  0
  2  1  1  1
  3  2  1  0
  3  4  1  0
  5  4  1  0
  5  6  2  0
  7  2  1  0
  7  8  2  0
  9  5  1  0
 10  7  1  0
 11 10  1  0
 11 12  1  1
 13 12  1  0
 13 17  1  0
 14 13  2  0
 15 11  1  0
 16 15  2  0
 18 19  1  0
 19 20  1  0
 20 21  1  0
 22 21  1  1
 22 23  1  0
 22 24  1  0
 23 15  1  0
 24 26  1  0
 25 24  2  0
M  END
$$$$
