EDM.pdb
     RDKit          3D

 26 25  0  0  1  0  0  0  0  0999 V2000
   13.9126  -17.3886   19.6070 N   0  0  0  0  0  0  0  0  0  0  0  0
   12.8084  -18.1588   20.2099 C   0  0  1  0  0  0  0  0  0  0  0  0
   13.4523  -19.0866   21.1866 C   0  0  0  0  0  0  0  0  0  0  0  0
   14.9097  -18.8787   21.4149 C   0  0  0  0  0  0  0  0  0  0  0  0
   15.2594  -19.4372   22.7633 C   0  0  0  0  0  0  0  0  0  0  0  0
   15.3370  -18.7257   23.7881 O   0  0  0  0  0  0  0  0  0  0  0  0
   11.9397  -17.1839   20.9271 C   0  0  0  0  0  0  0  0  0  0  0  0
   12.4276  -16.1500   21.4529 O   0  0  0  0  0  0  0  0  0  0  0  0
   15.5109  -20.7951   22.9025 O   0  0  0  0  0  0  0  0  0  0  0  0
   10.5220  -17.3773   21.0496 N   0  0  0  0  0  0  0  0  0  0  0  0
    9.7394  -16.4207   21.7620 C   0  0  1  0  0  0  0  0  0  0  0  0
    8.2663  -16.6684   21.5204 C   0  0  0  0  0  0  0  0  0  0  0  0
    7.9889  -16.5460   20.0873 C   0  0  0  0  0  0  0  0  0  0  0  0
    8.6915  -15.7128   19.4429 O   0  0  0  0  0  0  0  0  0  0  0  0
    9.9956  -16.4539   23.2367 C   0  0  0  0  0  0  0  0  0  0  0  0
   10.0473  -17.5757   23.7776 O   0  0  0  0  0  0  0  0  0  0  0  0
    7.0418  -17.2444   19.3714 O   0  0  0  0  0  0  0  0  0  0  0  0
    5.9023  -11.4873   27.4131 C   0  0  0  0  0  0  0  0  0  0  0  0
    6.4924  -12.1682   25.8518 S   0  0  0  0  0  0  0  0  0  0  0  0
    7.6918  -13.4856   26.2454 C   0  0  0  0  0  0  0  0  0  0  0  0
    8.3668  -13.8595   24.9769 C   0  0  0  0  0  0  0  0  0  0  0  0
    9.5095  -14.8521   25.1859 C   0  0  2  0  0  0  0  0  0  0  0  0
   10.1732  -15.2825   23.9983 N   0  0  0  0  0  0  0  0  0  0  0  0
    9.0836  -15.8958   26.1076 C   0  0  0  0  0  0  0  0  0  0  0  0
    8.8462  -15.5692   27.2976 O   0  0  0  0  0  0  0  0  0  0  0  0
    8.9138  -17.2357   25.7875 O   0  0  0  0  0  0  0  0  0  0  0  0
  2  1  1  1
  3  2  1  0
  3  4  1  0
  5  4  1  0
  5  6  2  0
  7  2  1  0
  7  8  2  0
  9  5  1  0
 10  7  1  0
 11 10  1  0
 11 12  1  1
 13 12  1  0
 13 17  1  0
 14 13  2  0
 15 11  1  0
 16 15  2  0
 18 19  1  0
 19 20  1  0
 20 21  1  0
 22 21  1  6
 22 23  1  0
 22 24  1  0
 23 15  1  0
 24 26  1  0
 25 24  2  0
M  END
$$$$
