EDM.pdb
     RDKit          3D

 26 25  0  0  1  0  0  0  0  0999 V2000
    7.5795  -19.1553   22.3412 N   0  0  0  0  0  0  0  0  0  0  0  0
    8.7615  -19.9440   22.7369 C   0  0  1  0  0  0  0  0  0  0  0  0
    8.9302  -20.9769   21.6719 C   0  0  0  0  0  0  0  0  0  0  0  0
    7.6995  -21.7274   21.2955 C   0  0  0  0  0  0  0  0  0  0  0  0
    7.1153  -21.0889   20.0693 C   0  0  0  0  0  0  0  0  0  0  0  0
    7.5768  -20.0397   19.5707 O   0  0  0  0  0  0  0  0  0  0  0  0
    9.9249  -19.0136   22.7357 C   0  0  0  0  0  0  0  0  0  0  0  0
   11.0614  -19.4011   23.1121 O   0  0  0  0  0  0  0  0  0  0  0  0
    6.0186  -21.6686   19.4467 O   0  0  0  0  0  0  0  0  0  0  0  0
    9.8040  -17.6475   22.3097 N   0  0  0  0  0  0  0  0  0  0  0  0
   10.9153  -16.7643   22.4510 C   0  0  1  0  0  0  0  0  0  0  0  0
   10.9984  -15.8359   21.2592 C   0  0  0  0  0  0  0  0  0  0  0  0
   11.4518  -16.5951   20.0914 C   0  0  0  0  0  0  0  0  0  0  0  0
   10.5924  -16.8116   19.1872 O   0  0  0  0  0  0  0  0  0  0  0  0
   10.8370  -15.9387   23.6975 C   0  0  0  0  0  0  0  0  0  0  0  0
   11.1979  -14.7487   23.6123 O   0  0  0  0  0  0  0  0  0  0  0  0
   12.7168  -17.0968   19.8784 O   0  0  0  0  0  0  0  0  0  0  0  0
    6.3648  -12.5777   25.5651 C   0  0  0  0  0  0  0  0  0  0  0  0
    7.7663  -12.4688   26.6935 S   0  0  0  0  0  0  0  0  0  0  0  0
    8.2748  -14.1723   27.1042 C   0  0  0  0  0  0  0  0  0  0  0  0
    8.7580  -14.8019   25.8494 C   0  0  0  0  0  0  0  0  0  0  0  0
    9.9005  -15.7888   26.0854 C   0  0  2  0  0  0  0  0  0  0  0  0
   10.3793  -16.4625   24.9221 N   0  0  0  0  0  0  0  0  0  0  0  0
    9.5919  -16.6221   27.2389 C   0  0  0  0  0  0  0  0  0  0  0  0
    9.2101  -17.8006   27.0283 O   0  0  0  0  0  0  0  0  0  0  0  0
    9.6821  -16.2282   28.5667 O   0  0  0  0  0  0  0  0  0  0  0  0
  2  1  1  6
  3  2  1  0
  3  4  1  0
  5  4  1  0
  5  6  2  0
  7  2  1  0
  7  8  2  0
  9  5  1  0
 10  7  1  0
 11 10  1  0
 11 12  1  6
 13 12  1  0
 13 17  1  0
 14 13  2  0
 15 11  1  0
 16 15  2  0
 18 19  1  0
 19 20  1  0
 20 21  1  0
 22 21  1  6
 22 23  1  0
 22 24  1  0
 23 15  1  0
 24 26  1  0
 25 24  2  0
M  END
$$$$
