EDM.pdb
     RDKit          3D

 26 25  0  0  1  0  0  0  0  0999 V2000
   11.8050  -16.5422   20.1883 N   0  0  0  0  0  0  0  0  0  0  0  0
   10.5856  -15.9549   20.7749 C   0  0  1  0  0  0  0  0  0  0  0  0
    9.5121  -16.1585   19.7573 C   0  0  0  0  0  0  0  0  0  0  0  0
    9.3305  -17.5569   19.2769 C   0  0  0  0  0  0  0  0  0  0  0  0
    8.1835  -17.5769   18.3091 C   0  0  0  0  0  0  0  0  0  0  0  0
    7.0805  -18.0980   18.5819 O   0  0  0  0  0  0  0  0  0  0  0  0
   10.2772  -16.7344   22.0064 C   0  0  0  0  0  0  0  0  0  0  0  0
    9.2724  -16.4565   22.7110 O   0  0  0  0  0  0  0  0  0  0  0  0
    8.3299  -17.0001   17.0553 O   0  0  0  0  0  0  0  0  0  0  0  0
   11.1031  -17.8260   22.4406 N   0  0  0  0  0  0  0  0  0  0  0  0
   10.8507  -18.4420   23.7023 C   0  0  1  0  0  0  0  0  0  0  0  0
   11.2274  -19.9067   23.6522 C   0  0  0  0  0  0  0  0  0  0  0  0
   12.4987  -20.0500   22.9388 C   0  0  0  0  0  0  0  0  0  0  0  0
   12.4292  -20.2422   21.6893 O   0  0  0  0  0  0  0  0  0  0  0  0
   11.6050  -17.7909   24.8197 C   0  0  0  0  0  0  0  0  0  0  0  0
   12.4432  -16.9229   24.5071 O   0  0  0  0  0  0  0  0  0  0  0  0
   13.7601  -19.9975   23.4897 O   0  0  0  0  0  0  0  0  0  0  0  0
   10.9873  -13.5731   29.5538 C   0  0  0  0  0  0  0  0  0  0  0  0
   10.3140  -13.9696   27.9293 S   0  0  0  0  0  0  0  0  0  0  0  0
    9.3862  -15.5328   28.0857 C   0  0  0  0  0  0  0  0  0  0  0  0
    9.7695  -16.3891   26.9350 C   0  0  0  0  0  0  0  0  0  0  0  0
   10.9360  -17.3226   27.2558 C   0  0  2  0  0  0  0  0  0  0  0  0
   11.3931  -18.1285   26.1706 N   0  0  0  0  0  0  0  0  0  0  0  0
   10.6758  -18.0107   28.5124 C   0  0  0  0  0  0  0  0  0  0  0  0
   10.9191  -17.3964   29.5813 O   0  0  0  0  0  0  0  0  0  0  0  0
   10.1772  -19.2999   28.6388 O   0  0  0  0  0  0  0  0  0  0  0  0
  2  1  1  6
  3  2  1  0
  3  4  1  0
  5  4  1  0
  5  6  2  0
  7  2  1  0
  7  8  2  0
  9  5  1  0
 10  7  1  0
 11 10  1  0
 11 12  1  6
 13 12  1  0
 13 17  1  0
 14 13  2  0
 15 11  1  0
 16 15  2  0
 18 19  1  0
 19 20  1  0
 20 21  1  0
 22 21  1  6
 22 23  1  0
 22 24  1  0
 23 15  1  0
 24 26  1  0
 25 24  2  0
M  END
$$$$
