EKR.pdb
     RDKit          3D

 30 29  0  0  1  0  0  0  0  0999 V2000
   11.6354  -23.4145   19.8619 N   0  0  0  0  0  0  0  0  0  0  0  0
   11.7159  -22.0485   20.3674 C   0  0  1  0  0  0  0  0  0  0  0  0
   10.3231  -21.5101   20.4433 C   0  0  0  0  0  0  0  0  0  0  0  0
    9.3121  -22.5123   20.9492 C   0  0  0  0  0  0  0  0  0  0  0  0
    7.9666  -21.8906   21.0918 C   0  0  0  0  0  0  0  0  0  0  0  0
    7.0407  -22.2415   20.3215 O   0  0  0  0  0  0  0  0  0  0  0  0
   12.4523  -22.0417   21.6536 C   0  0  0  0  0  0  0  0  0  0  0  0
   12.2394  -22.9499   22.4890 O   0  0  0  0  0  0  0  0  0  0  0  0
    7.6722  -20.9262   22.0472 O   0  0  0  0  0  0  0  0  0  0  0  0
   13.4099  -21.0227   21.9725 N   0  0  0  0  0  0  0  0  0  0  0  0
   14.1131  -20.8911   23.2003 C   0  0  1  0  0  0  0  0  0  0  0  0
   15.2862  -19.9708   23.2213 C   0  0  0  0  0  0  0  0  0  0  0  0
   16.0682  -19.9199   24.4766 C   0  0  0  0  0  0  0  0  0  0  0  0
   17.5424  -19.7116   24.2941 C   0  0  0  0  0  0  0  0  0  0  0  0
   18.3597  -19.6350   25.5342 C   0  0  0  0  0  0  0  0  0  0  0  0
   19.7415  -19.2931   25.3635 N   0  0  0  0  0  0  0  0  0  0  0  0
   13.2514  -20.7898   24.4089 C   0  0  0  0  0  0  0  0  0  0  0  0
   12.3879  -19.8934   24.4485 O   0  0  0  0  0  0  0  0  0  0  0  0
    8.4806  -24.9007   30.1175 N   0  0  0  0  0  0  0  0  0  0  0  0
    9.7356  -24.8931   30.8044 C   0  0  0  0  0  0  0  0  0  0  0  0
    9.9191  -25.7054   31.7886 N   0  0  0  0  0  0  0  0  0  0  0  0
   10.7765  -24.0069   30.4179 N   0  0  0  0  0  0  0  0  0  0  0  0
   11.2037  -23.8673   29.0459 C   0  0  0  0  0  0  0  0  0  0  0  0
   12.3701  -22.9811   28.8691 C   0  0  0  0  0  0  0  0  0  0  0  0
   12.9282  -22.7250   27.5410 C   0  0  0  0  0  0  0  0  0  0  0  0
   12.4944  -21.5994   26.6907 C   0  0  2  0  0  0  0  0  0  0  0  0
   13.4014  -21.6724   25.4821 N   0  0  0  0  0  0  0  0  0  0  0  0
   12.5943  -20.2663   27.2612 C   0  0  0  0  0  0  0  0  0  0  0  0
   13.5645  -19.5149   27.3808 O   0  0  0  0  0  0  0  0  0  0  0  0
   11.3726  -19.7076   27.7793 O   0  0  0  0  0  0  0  0  0  0  0  0
  2  1  1  1
  2  7  1  0
  3  2  1  0
  3  4  1  0
  4  5  1  0
  5  6  2  0
  7  8  2  0
  9  5  1  0
 10  7  1  0
 10 11  1  0
 11 17  1  0
 12 13  1  0
 11 12  1  6
 14 13  1  0
 15 14  1  0
 16 15  1  0
 17 18  2  0
 19 20  1  0
 20 21  2  0
 22 23  1  0
 22 20  1  0
 23 24  1  0
 24 25  1  0
 26 25  1  1
 26 28  1  0
 27 26  1  0
 27 17  1  0
 28 29  2  0
 28 30  1  0
M  END
$$$$
