EKR.pdb
     RDKit          3D

 30 29  0  0  1  0  0  0  0  0999 V2000
   13.2598  -17.5688   17.1996 N   0  0  0  0  0  0  0  0  0  0  0  0
   14.0233  -17.8097   18.4191 C   0  0  1  0  0  0  0  0  0  0  0  0
   15.0198  -16.7035   18.5563 C   0  0  0  0  0  0  0  0  0  0  0  0
   14.5828  -15.4098   17.9100 C   0  0  0  0  0  0  0  0  0  0  0  0
   15.6327  -14.3624   18.0445 C   0  0  0  0  0  0  0  0  0  0  0  0
   16.5298  -14.4966   18.9110 O   0  0  0  0  0  0  0  0  0  0  0  0
   13.0923  -17.9486   19.5639 C   0  0  0  0  0  0  0  0  0  0  0  0
   11.9253  -17.5055   19.4649 O   0  0  0  0  0  0  0  0  0  0  0  0
   15.6765  -13.2237   17.2501 O   0  0  0  0  0  0  0  0  0  0  0  0
   13.4875  -18.5816   20.7888 N   0  0  0  0  0  0  0  0  0  0  0  0
   12.6467  -18.8422   21.9043 C   0  0  1  0  0  0  0  0  0  0  0  0
   12.9887  -20.0150   22.7593 C   0  0  0  0  0  0  0  0  0  0  0  0
   12.0408  -20.3428   23.8474 C   0  0  0  0  0  0  0  0  0  0  0  0
   12.3515  -21.6045   24.5966 C   0  0  0  0  0  0  0  0  0  0  0  0
   11.3338  -22.0587   25.5812 C   0  0  0  0  0  0  0  0  0  0  0  0
   11.5597  -23.3408   26.1820 N   0  0  0  0  0  0  0  0  0  0  0  0
   12.2376  -17.6379   22.6762 C   0  0  0  0  0  0  0  0  0  0  0  0
   13.1271  -16.9083   23.1529 O   0  0  0  0  0  0  0  0  0  0  0  0
    6.5527  -12.6479   19.3478 N   0  0  0  0  0  0  0  0  0  0  0  0
    7.7884  -13.1096   18.7940 C   0  0  0  0  0  0  0  0  0  0  0  0
    8.0664  -12.8401   17.5643 N   0  0  0  0  0  0  0  0  0  0  0  0
    8.7081  -13.8570   19.5776 N   0  0  0  0  0  0  0  0  0  0  0  0
    8.3842  -14.3405   20.8988 C   0  0  0  0  0  0  0  0  0  0  0  0
    9.5126  -14.9917   21.5914 C   0  0  0  0  0  0  0  0  0  0  0  0
    9.3579  -15.5308   22.9429 C   0  0  0  0  0  0  0  0  0  0  0  0
   10.4730  -16.1308   23.7009 C   0  0  2  0  0  0  0  0  0  0  0  0
   10.8895  -17.3253   22.8711 N   0  0  0  0  0  0  0  0  0  0  0  0
   10.1823  -16.5865   25.0501 C   0  0  0  0  0  0  0  0  0  0  0  0
    9.9280  -17.7140   25.4793 O   0  0  0  0  0  0  0  0  0  0  0  0
   10.1858  -15.5738   26.0736 O   0  0  0  0  0  0  0  0  0  0  0  0
  2  1  1  6
  2  7  1  0
  3  2  1  0
  3  4  1  0
  4  5  1  0
  5  6  2  0
  7  8  2  0
  9  5  1  0
 10  7  1  0
 10 11  1  0
 11 17  1  0
 12 13  1  0
 11 12  1  1
 14 13  1  0
 15 14  1  0
 16 15  1  0
 17 18  2  0
 19 20  1  0
 20 21  2  0
 22 23  1  0
 22 20  1  0
 23 24  1  0
 24 25  1  0
 26 25  1  6
 26 28  1  0
 27 26  1  0
 27 17  1  0
 28 29  2  0
 28 30  1  0
M  END
$$$$
