EKR.pdb
     RDKit          3D

 30 29  0  0  1  0  0  0  0  0999 V2000
   12.0667  -19.3418   17.5824 N   0  0  0  0  0  0  0  0  0  0  0  0
   12.1198  -17.8926   17.7403 C   0  0  1  0  0  0  0  0  0  0  0  0
   11.6635  -17.2793   16.4554 C   0  0  0  0  0  0  0  0  0  0  0  0
   10.1904  -17.4718   16.1808 C   0  0  0  0  0  0  0  0  0  0  0  0
    9.8117  -16.8954   14.8611 C   0  0  0  0  0  0  0  0  0  0  0  0
    9.0447  -15.9036   14.8188 O   0  0  0  0  0  0  0  0  0  0  0  0
   11.3284  -17.4972   18.9295 C   0  0  0  0  0  0  0  0  0  0  0  0
   11.2974  -16.2942   19.2755 O   0  0  0  0  0  0  0  0  0  0  0  0
   10.2679  -17.4026   13.6510 O   0  0  0  0  0  0  0  0  0  0  0  0
   10.5893  -18.4551   19.6998 N   0  0  0  0  0  0  0  0  0  0  0  0
    9.8103  -18.1767   20.8552 C   0  0  1  0  0  0  0  0  0  0  0  0
    8.6508  -19.0728   21.1305 C   0  0  0  0  0  0  0  0  0  0  0  0
    8.7036  -20.4282   20.5390 C   0  0  0  0  0  0  0  0  0  0  0  0
    7.5196  -21.2970   20.8446 C   0  0  0  0  0  0  0  0  0  0  0  0
    7.4806  -22.6241   20.1747 C   0  0  0  0  0  0  0  0  0  0  0  0
    6.3579  -23.4596   20.4862 N   0  0  0  0  0  0  0  0  0  0  0  0
   10.5937  -17.8217   22.0692 C   0  0  0  0  0  0  0  0  0  0  0  0
   11.6981  -18.3698   22.2440 O   0  0  0  0  0  0  0  0  0  0  0  0
    9.4724  -15.4586   29.3360 N   0  0  0  0  0  0  0  0  0  0  0  0
   10.0718  -14.1599   29.3088 C   0  0  0  0  0  0  0  0  0  0  0  0
   10.5254  -13.6532   30.4042 N   0  0  0  0  0  0  0  0  0  0  0  0
   10.1734  -13.4255   28.0969 N   0  0  0  0  0  0  0  0  0  0  0  0
    9.6337  -13.9128   26.8497 C   0  0  0  0  0  0  0  0  0  0  0  0
   10.3604  -15.0708   26.2946 C   0  0  0  0  0  0  0  0  0  0  0  0
   10.0328  -15.6030   24.9715 C   0  0  0  0  0  0  0  0  0  0  0  0
   10.8098  -16.6769   24.3226 C   0  0  2  0  0  0  0  0  0  0  0  0
   10.1093  -16.8987   23.0002 N   0  0  0  0  0  0  0  0  0  0  0  0
   10.8867  -17.9488   25.0217 C   0  0  0  0  0  0  0  0  0  0  0  0
   10.0859  -18.8848   25.0760 O   0  0  0  0  0  0  0  0  0  0  0  0
   12.0862  -18.1791   25.7842 O   0  0  0  0  0  0  0  0  0  0  0  0
  2  1  1  6
  2  7  1  0
  3  2  1  0
  3  4  1  0
  4  5  1  0
  5  6  2  0
  7  8  2  0
  9  5  1  0
 10  7  1  0
 10 11  1  0
 11 17  1  0
 12 13  1  0
 11 12  1  1
 14 13  1  0
 15 14  1  0
 16 15  1  0
 17 18  2  0
 19 20  1  0
 20 21  2  0
 22 23  1  0
 22 20  1  0
 23 24  1  0
 24 25  1  0
 26 25  1  1
 26 28  1  0
 27 26  1  0
 27 17  1  0
 28 29  2  0
 28 30  1  0
M  END
$$$$
