EKR.pdb
     RDKit          3D

 30 29  0  0  1  0  0  0  0  0999 V2000
   10.2212  -18.8500   20.3799 N   0  0  0  0  0  0  0  0  0  0  0  0
   11.3978  -18.5976   21.2045 C   0  0  1  0  0  0  0  0  0  0  0  0
   12.5475  -18.3342   20.2856 C   0  0  0  0  0  0  0  0  0  0  0  0
   12.1308  -18.0114   18.8698 C   0  0  0  0  0  0  0  0  0  0  0  0
   13.3183  -17.7847   18.0004 C   0  0  0  0  0  0  0  0  0  0  0  0
   14.4665  -17.8154   18.5049 O   0  0  0  0  0  0  0  0  0  0  0  0
   11.1051  -17.5016   22.1583 C   0  0  0  0  0  0  0  0  0  0  0  0
   11.9740  -17.1662   22.9953 O   0  0  0  0  0  0  0  0  0  0  0  0
   13.2258  -17.5366   16.6367 O   0  0  0  0  0  0  0  0  0  0  0  0
    9.8507  -16.8061   22.1508 N   0  0  0  0  0  0  0  0  0  0  0  0
    9.5053  -15.6962   22.9682 C   0  0  1  0  0  0  0  0  0  0  0  0
    8.5073  -14.7309   22.4246 C   0  0  0  0  0  0  0  0  0  0  0  0
    8.7182  -14.2696   21.0344 C   0  0  0  0  0  0  0  0  0  0  0  0
    7.6587  -13.3478   20.5074 C   0  0  0  0  0  0  0  0  0  0  0  0
    7.7728  -12.9552   19.0776 C   0  0  0  0  0  0  0  0  0  0  0  0
    6.6879  -12.1859   18.5421 N   0  0  0  0  0  0  0  0  0  0  0  0
    9.3067  -16.0152   24.4077 C   0  0  0  0  0  0  0  0  0  0  0  0
    8.2633  -16.6046   24.7464 O   0  0  0  0  0  0  0  0  0  0  0  0
   13.9642  -19.7508   30.4479 N   0  0  0  0  0  0  0  0  0  0  0  0
   12.6180  -19.6992   30.9291 C   0  0  0  0  0  0  0  0  0  0  0  0
   12.3925  -19.8687   32.1872 N   0  0  0  0  0  0  0  0  0  0  0  0
   11.5322  -19.4648   30.0433 N   0  0  0  0  0  0  0  0  0  0  0  0
   11.7144  -18.8893   28.7319 C   0  0  0  0  0  0  0  0  0  0  0  0
   10.8196  -17.7509   28.4479 C   0  0  0  0  0  0  0  0  0  0  0  0
   10.9169  -17.0110   27.1893 C   0  0  0  0  0  0  0  0  0  0  0  0
   10.0145  -15.8965   26.8409 C   0  0  2  0  0  0  0  0  0  0  0  0
   10.2606  -15.6629   25.3665 N   0  0  0  0  0  0  0  0  0  0  0  0
   10.2155  -14.6412   27.5455 C   0  0  0  0  0  0  0  0  0  0  0  0
   10.7068  -13.5765   27.1646 O   0  0  0  0  0  0  0  0  0  0  0  0
    9.7769  -14.6091   28.9165 O   0  0  0  0  0  0  0  0  0  0  0  0
  2  1  1  6
  2  7  1  0
  3  2  1  0
  3  4  1  0
  4  5  1  0
  5  6  2  0
  7  8  2  0
  9  5  1  0
 10  7  1  0
 10 11  1  0
 11 17  1  0
 12 13  1  0
 11 12  1  6
 14 13  1  0
 15 14  1  0
 16 15  1  0
 17 18  2  0
 19 20  1  0
 20 21  2  0
 22 23  1  0
 22 20  1  0
 23 24  1  0
 24 25  1  0
 26 25  1  1
 26 28  1  0
 27 26  1  0
 27 17  1  0
 28 29  2  0
 28 30  1  0
M  END
$$$$
