EKR.pdb
     RDKit          3D

 30 29  0  0  1  0  0  0  0  0999 V2000
    8.1966  -18.2416   17.5319 N   0  0  0  0  0  0  0  0  0  0  0  0
    9.6026  -17.8530   17.5457 C   0  0  1  0  0  0  0  0  0  0  0  0
    9.9261  -17.2731   16.2061 C   0  0  0  0  0  0  0  0  0  0  0  0
   11.3536  -16.7948   16.0809 C   0  0  0  0  0  0  0  0  0  0  0  0
   11.7250  -16.5847   14.6542 C   0  0  0  0  0  0  0  0  0  0  0  0
   11.0447  -15.8013   13.9491 O   0  0  0  0  0  0  0  0  0  0  0  0
    9.8512  -16.9436   18.6894 C   0  0  0  0  0  0  0  0  0  0  0  0
   11.0279  -16.6311   18.9823 O   0  0  0  0  0  0  0  0  0  0  0  0
   12.8022  -17.2185   14.0479 O   0  0  0  0  0  0  0  0  0  0  0  0
    8.7790  -16.4039   19.4746 N   0  0  0  0  0  0  0  0  0  0  0  0
    8.9167  -15.6462   20.6688 C   0  0  1  0  0  0  0  0  0  0  0  0
    7.8123  -14.7053   21.0129 C   0  0  0  0  0  0  0  0  0  0  0  0
    7.6986  -13.4835   20.1859 C   0  0  0  0  0  0  0  0  0  0  0  0
    7.4734  -13.7296   18.7235 C   0  0  0  0  0  0  0  0  0  0  0  0
    7.3920  -12.5263   17.8534 C   0  0  0  0  0  0  0  0  0  0  0  0
    7.1901  -12.7670   16.4546 N   0  0  0  0  0  0  0  0  0  0  0  0
    9.4418  -16.4049   21.8359 C   0  0  0  0  0  0  0  0  0  0  0  0
    8.9518  -17.5219   22.0867 O   0  0  0  0  0  0  0  0  0  0  0  0
   17.8044  -16.3852   24.9174 N   0  0  0  0  0  0  0  0  0  0  0  0
   17.2540  -17.7037   24.8447 C   0  0  0  0  0  0  0  0  0  0  0  0
   18.0486  -18.7189   24.8594 N   0  0  0  0  0  0  0  0  0  0  0  0
   15.8507  -17.9076   24.7573 N   0  0  0  0  0  0  0  0  0  0  0  0
   14.9757  -16.9823   24.0774 C   0  0  0  0  0  0  0  0  0  0  0  0
   13.5401  -17.2530   24.2850 C   0  0  0  0  0  0  0  0  0  0  0  0
   12.5167  -16.4057   23.6722 C   0  0  0  0  0  0  0  0  0  0  0  0
   11.0732  -16.7015   23.7558 C   0  0  2  0  0  0  0  0  0  0  0  0
   10.4586  -15.8840   22.6410 N   0  0  0  0  0  0  0  0  0  0  0  0
   10.4022  -16.3616   24.9995 C   0  0  0  0  0  0  0  0  0  0  0  0
    9.6594  -15.4181   25.2791 O   0  0  0  0  0  0  0  0  0  0  0  0
   10.6249  -17.2590   26.1032 O   0  0  0  0  0  0  0  0  0  0  0  0
  2  1  1  6
  2  7  1  0
  3  2  1  0
  3  4  1  0
  4  5  1  0
  5  6  2  0
  7  8  2  0
  9  5  1  0
 10  7  1  0
 10 11  1  0
 11 17  1  0
 12 13  1  0
 11 12  1  1
 14 13  1  0
 15 14  1  0
 16 15  1  0
 17 18  2  0
 19 20  1  0
 20 21  2  0
 22 23  1  0
 22 20  1  0
 23 24  1  0
 24 25  1  0
 26 25  1  1
 26 28  1  0
 27 26  1  0
 27 17  1  0
 28 29  2  0
 28 30  1  0
M  END
$$$$
