EKR.pdb
     RDKit          3D

 30 29  0  0  1  0  0  0  0  0999 V2000
   12.9306  -19.0739   18.6743 N   0  0  0  0  0  0  0  0  0  0  0  0
   13.6199  -18.5228   19.8358 C   0  0  1  0  0  0  0  0  0  0  0  0
   14.9533  -18.0249   19.3778 C   0  0  0  0  0  0  0  0  0  0  0  0
   15.2656  -18.3633   17.9390 C   0  0  0  0  0  0  0  0  0  0  0  0
   16.6209  -17.8791   17.5569 C   0  0  0  0  0  0  0  0  0  0  0  0
   17.2063  -18.3964   16.5753 O   0  0  0  0  0  0  0  0  0  0  0  0
   12.7634  -17.4966   20.4760 C   0  0  0  0  0  0  0  0  0  0  0  0
   13.1630  -16.9227   21.5148 O   0  0  0  0  0  0  0  0  0  0  0  0
   17.2869  -16.8680   18.2380 O   0  0  0  0  0  0  0  0  0  0  0  0
   11.4839  -17.1352   19.9379 N   0  0  0  0  0  0  0  0  0  0  0  0
   10.5798  -16.1903   20.4939 C   0  0  1  0  0  0  0  0  0  0  0  0
    9.7174  -15.4288   19.5453 C   0  0  0  0  0  0  0  0  0  0  0  0
    8.8458  -14.3860   20.1305 C   0  0  0  0  0  0  0  0  0  0  0  0
    8.0155  -13.6271   19.1383 C   0  0  0  0  0  0  0  0  0  0  0  0
    7.1609  -12.5389   19.6833 C   0  0  0  0  0  0  0  0  0  0  0  0
    5.7884  -12.8726   19.9293 N   0  0  0  0  0  0  0  0  0  0  0  0
    9.8653  -16.6494   21.7154 C   0  0  0  0  0  0  0  0  0  0  0  0
    9.2466  -17.7291   21.6704 O   0  0  0  0  0  0  0  0  0  0  0  0
   10.0925  -18.5374   29.8928 N   0  0  0  0  0  0  0  0  0  0  0  0
   10.9991  -19.3294   29.1198 C   0  0  0  0  0  0  0  0  0  0  0  0
   11.8712  -20.0599   29.7266 N   0  0  0  0  0  0  0  0  0  0  0  0
   10.9510  -19.3214   27.7000 N   0  0  0  0  0  0  0  0  0  0  0  0
   11.1693  -18.1227   26.9255 C   0  0  0  0  0  0  0  0  0  0  0  0
   10.0491  -17.7761   26.0299 C   0  0  0  0  0  0  0  0  0  0  0  0
   10.1397  -16.6382   25.1146 C   0  0  0  0  0  0  0  0  0  0  0  0
    9.1011  -16.3282   24.1130 C   0  0  2  0  0  0  0  0  0  0  0  0
    9.8785  -15.8927   22.8904 N   0  0  0  0  0  0  0  0  0  0  0  0
    8.1512  -15.2814   24.4513 C   0  0  0  0  0  0  0  0  0  0  0  0
    8.1106  -14.0954   24.1167 O   0  0  0  0  0  0  0  0  0  0  0  0
    7.0690  -15.6667   25.3193 O   0  0  0  0  0  0  0  0  0  0  0  0
  2  1  1  6
  2  7  1  0
  3  2  1  0
  3  4  1  0
  4  5  1  0
  5  6  2  0
  7  8  2  0
  9  5  1  0
 10  7  1  0
 10 11  1  0
 11 17  1  0
 12 13  1  0
 11 12  1  6
 14 13  1  0
 15 14  1  0
 16 15  1  0
 17 18  2  0
 19 20  1  0
 20 21  2  0
 22 23  1  0
 22 20  1  0
 23 24  1  0
 24 25  1  0
 26 25  1  1
 26 28  1  0
 27 26  1  0
 27 17  1  0
 28 29  2  0
 28 30  1  0
M  END
$$$$
