EKR.pdb
     RDKit          3D

 30 29  0  0  1  0  0  0  0  0999 V2000
    8.2856  -12.5348   18.2128 N   0  0  0  0  0  0  0  0  0  0  0  0
    9.0395  -13.7266   18.5860 C   0  0  1  0  0  0  0  0  0  0  0  0
   10.4732  -13.3287   18.7330 C   0  0  0  0  0  0  0  0  0  0  0  0
   11.3778  -14.4637   19.1522 C   0  0  0  0  0  0  0  0  0  0  0  0
   12.7831  -13.9978   19.3120 C   0  0  0  0  0  0  0  0  0  0  0  0
   13.4018  -14.2572   20.3720 O   0  0  0  0  0  0  0  0  0  0  0  0
    8.4381  -14.3305   19.7985 C   0  0  0  0  0  0  0  0  0  0  0  0
    8.2326  -13.6145   20.8051 O   0  0  0  0  0  0  0  0  0  0  0  0
   13.4611  -13.2787   18.3358 O   0  0  0  0  0  0  0  0  0  0  0  0
    8.0784  -15.7179   19.8547 N   0  0  0  0  0  0  0  0  0  0  0  0
    7.5016  -16.3876   20.9673 C   0  0  1  0  0  0  0  0  0  0  0  0
    6.6553  -17.5819   20.6831 C   0  0  0  0  0  0  0  0  0  0  0  0
    6.2059  -18.3709   21.8516 C   0  0  0  0  0  0  0  0  0  0  0  0
    5.2885  -19.5125   21.5275 C   0  0  0  0  0  0  0  0  0  0  0  0
    4.7812  -20.3032   22.6803 C   0  0  0  0  0  0  0  0  0  0  0  0
    3.9247  -21.4086   22.3640 N   0  0  0  0  0  0  0  0  0  0  0  0
    8.4082  -16.5606   22.1342 C   0  0  0  0  0  0  0  0  0  0  0  0
    9.4962  -17.1405   21.9594 O   0  0  0  0  0  0  0  0  0  0  0  0
    9.3571  -16.3701   29.4848 N   0  0  0  0  0  0  0  0  0  0  0  0
    9.8625  -15.0721   29.8110 C   0  0  0  0  0  0  0  0  0  0  0  0
   10.5672  -14.9217   30.8802 N   0  0  0  0  0  0  0  0  0  0  0  0
    9.5995  -13.9529   28.9764 N   0  0  0  0  0  0  0  0  0  0  0  0
    8.7835  -14.0481   27.7893 C   0  0  0  0  0  0  0  0  0  0  0  0
    9.1689  -15.1479   26.8843 C   0  0  0  0  0  0  0  0  0  0  0  0
    8.5279  -15.3101   25.5790 C   0  0  0  0  0  0  0  0  0  0  0  0
    8.9377  -16.3406   24.6053 C   0  0  2  0  0  0  0  0  0  0  0  0
    8.0554  -16.0903   23.4021 N   0  0  0  0  0  0  0  0  0  0  0  0
    8.7818  -17.7280   25.0097 C   0  0  0  0  0  0  0  0  0  0  0  0
    7.7932  -18.4644   24.9878 O   0  0  0  0  0  0  0  0  0  0  0  0
    9.9620  -18.3724   25.5245 O   0  0  0  0  0  0  0  0  0  0  0  0
  2  1  1  1
  2  7  1  0
  3  2  1  0
  3  4  1  0
  4  5  1  0
  5  6  2  0
  7  8  2  0
  9  5  1  0
 10  7  1  0
 10 11  1  0
 11 17  1  0
 12 13  1  0
 11 12  1  6
 14 13  1  0
 15 14  1  0
 16 15  1  0
 17 18  2  0
 19 20  1  0
 20 21  2  0
 22 23  1  0
 22 20  1  0
 23 24  1  0
 24 25  1  0
 26 25  1  1
 26 28  1  0
 27 26  1  0
 27 17  1  0
 28 29  2  0
 28 30  1  0
M  END
$$$$
