EKR.pdb
     RDKit          3D

 30 29  0  0  1  0  0  0  0  0999 V2000
    9.3190  -15.3984   18.5295 N   0  0  0  0  0  0  0  0  0  0  0  0
    8.1266  -15.2717   19.3602 C   0  0  1  0  0  0  0  0  0  0  0  0
    7.2930  -16.4945   19.1466 C   0  0  0  0  0  0  0  0  0  0  0  0
    8.0965  -17.7194   18.7774 C   0  0  0  0  0  0  0  0  0  0  0  0
    7.2232  -18.9208   18.6709 C   0  0  0  0  0  0  0  0  0  0  0  0
    6.0008  -18.8197   18.9345 O   0  0  0  0  0  0  0  0  0  0  0  0
    8.5289  -15.0358   20.7670 C   0  0  0  0  0  0  0  0  0  0  0  0
    9.7000  -15.2986   21.1242 O   0  0  0  0  0  0  0  0  0  0  0  0
    7.6933  -20.1709   18.2889 O   0  0  0  0  0  0  0  0  0  0  0  0
    7.6140  -14.5094   21.7381 N   0  0  0  0  0  0  0  0  0  0  0  0
    7.8775  -14.3274   23.1226 C   0  0  1  0  0  0  0  0  0  0  0  0
    6.9307  -13.4703   23.8921 C   0  0  0  0  0  0  0  0  0  0  0  0
    7.2259  -13.2791   25.3295 C   0  0  0  0  0  0  0  0  0  0  0  0
    6.2402  -12.4230   26.0681 C   0  0  0  0  0  0  0  0  0  0  0  0
    6.5133  -12.1921   27.5116 C   0  0  0  0  0  0  0  0  0  0  0  0
    5.6135  -11.3092   28.1945 N   0  0  0  0  0  0  0  0  0  0  0  0
    8.2967  -15.5568   23.8481 C   0  0  0  0  0  0  0  0  0  0  0  0
    7.4754  -16.4855   23.9657 O   0  0  0  0  0  0  0  0  0  0  0  0
   13.9298  -19.4788   27.2265 N   0  0  0  0  0  0  0  0  0  0  0  0
   14.3465  -20.3110   26.1400 C   0  0  0  0  0  0  0  0  0  0  0  0
   15.2952  -21.1635   26.3284 N   0  0  0  0  0  0  0  0  0  0  0  0
   13.7315  -20.2109   24.8633 N   0  0  0  0  0  0  0  0  0  0  0  0
   13.1980  -18.9685   24.3571 C   0  0  0  0  0  0  0  0  0  0  0  0
   11.9858  -18.5067   25.0603 C   0  0  0  0  0  0  0  0  0  0  0  0
   11.2562  -17.3222   24.6069 C   0  0  0  0  0  0  0  0  0  0  0  0
    9.9773  -16.8895   25.2027 C   0  0  2  0  0  0  0  0  0  0  0  0
    9.5785  -15.6759   24.3921 N   0  0  0  0  0  0  0  0  0  0  0  0
    9.9974  -16.5181   26.6078 C   0  0  0  0  0  0  0  0  0  0  0  0
   10.0132  -15.4083   27.1447 O   0  0  0  0  0  0  0  0  0  0  0  0
    9.9996  -17.6074   27.5493 O   0  0  0  0  0  0  0  0  0  0  0  0
  2  1  1  6
  2  7  1  0
  3  2  1  0
  3  4  1  0
  4  5  1  0
  5  6  2  0
  7  8  2  0
  9  5  1  0
 10  7  1  0
 10 11  1  0
 11 17  1  0
 12 13  1  0
 11 12  1  1
 14 13  1  0
 15 14  1  0
 16 15  1  0
 17 18  2  0
 19 20  1  0
 20 21  2  0
 22 23  1  0
 22 20  1  0
 23 24  1  0
 24 25  1  0
 26 25  1  6
 26 28  1  0
 27 26  1  0
 27 17  1  0
 28 29  2  0
 28 30  1  0
M  END
$$$$
