EKR.pdb
     RDKit          3D

 30 29  0  0  1  0  0  0  0  0999 V2000
   11.6719  -18.3951   17.3605 N   0  0  0  0  0  0  0  0  0  0  0  0
   11.3949  -17.0151   17.7439 C   0  0  1  0  0  0  0  0  0  0  0  0
   10.6687  -16.3662   16.6094 C   0  0  0  0  0  0  0  0  0  0  0  0
    9.9209  -17.3416   15.7308 C   0  0  0  0  0  0  0  0  0  0  0  0
   10.2482  -17.1278   14.2940 C   0  0  0  0  0  0  0  0  0  0  0  0
    9.6758  -17.8238   13.4212 O   0  0  0  0  0  0  0  0  0  0  0  0
   10.6662  -16.9990   19.0344 C   0  0  0  0  0  0  0  0  0  0  0  0
   10.5699  -15.9262   19.6731 O   0  0  0  0  0  0  0  0  0  0  0  0
   11.1684  -16.1837   13.8562 O   0  0  0  0  0  0  0  0  0  0  0  0
   10.0610  -18.1808   19.5770 N   0  0  0  0  0  0  0  0  0  0  0  0
    9.3496  -18.2677   20.8041 C   0  0  1  0  0  0  0  0  0  0  0  0
    8.3629  -19.3766   20.9455 C   0  0  0  0  0  0  0  0  0  0  0  0
    7.2133  -19.3657   20.0139 C   0  0  0  0  0  0  0  0  0  0  0  0
    6.3930  -20.6216   20.0084 C   0  0  0  0  0  0  0  0  0  0  0  0
    5.2245  -20.6463   19.0889 C   0  0  0  0  0  0  0  0  0  0  0  0
    4.5103  -21.8866   19.0034 N   0  0  0  0  0  0  0  0  0  0  0  0
   10.1715  -18.0389   22.0230 C   0  0  0  0  0  0  0  0  0  0  0  0
   11.3231  -18.5113   22.0595 O   0  0  0  0  0  0  0  0  0  0  0  0
    9.6223  -12.9981   29.9627 N   0  0  0  0  0  0  0  0  0  0  0  0
   10.6022  -13.8358   29.3425 C   0  0  0  0  0  0  0  0  0  0  0  0
   11.2823  -14.6541   30.0707 N   0  0  0  0  0  0  0  0  0  0  0  0
   10.8342  -13.7781   27.9420 N   0  0  0  0  0  0  0  0  0  0  0  0
    9.9106  -14.3338   26.9816 C   0  0  0  0  0  0  0  0  0  0  0  0
   10.3416  -15.6259   26.4145 C   0  0  0  0  0  0  0  0  0  0  0  0
    9.9890  -16.0038   25.0456 C   0  0  0  0  0  0  0  0  0  0  0  0
   10.4031  -17.2810   24.4328 C   0  0  2  0  0  0  0  0  0  0  0  0
    9.6714  -17.3153   23.1091 N   0  0  0  0  0  0  0  0  0  0  0  0
   10.0869  -18.4960   25.1651 C   0  0  0  0  0  0  0  0  0  0  0  0
    9.0457  -19.1543   25.2167 O   0  0  0  0  0  0  0  0  0  0  0  0
   11.1477  -19.0421   25.9711 O   0  0  0  0  0  0  0  0  0  0  0  0
  2  1  1  6
  2  7  1  0
  3  2  1  0
  3  4  1  0
  4  5  1  0
  5  6  2  0
  7  8  2  0
  9  5  1  0
 10  7  1  0
 10 11  1  0
 11 17  1  0
 12 13  1  0
 11 12  1  1
 14 13  1  0
 15 14  1  0
 16 15  1  0
 17 18  2  0
 19 20  1  0
 20 21  2  0
 22 23  1  0
 22 20  1  0
 23 24  1  0
 24 25  1  0
 26 25  1  1
 26 28  1  0
 27 26  1  0
 27 17  1  0
 28 29  2  0
 28 30  1  0
M  END
$$$$
