SLR.pdb
     RDKit          3D

 26 25  0  0  1  0  0  0  0  0999 V2000
   25.5649  -17.5327  -15.3951 O   0  0  0  0  0  0  0  0  0  0  0  0
   26.7327  -17.2468  -14.6804 C   0  0  0  0  0  0  0  0  0  0  0  0
   27.6920  -18.3901  -14.9540 C   0  0  2  0  0  0  0  0  0  0  0  0
   27.9528  -18.4613  -16.3780 N   0  0  0  0  0  0  0  0  0  0  0  0
   27.0648  -19.6303  -14.4426 C   0  0  0  0  0  0  0  0  0  0  0  0
   26.6929  -20.5036  -15.2690 O   0  0  0  0  0  0  0  0  0  0  0  0
   26.3798  -20.4159   -8.8217 C   0  0  0  0  0  0  0  0  0  0  0  0
   25.6970  -20.5893  -10.1933 C   0  0  2  0  0  0  0  0  0  0  0  0
   24.4604  -21.4327  -10.0502 C   0  0  0  0  0  0  0  0  0  0  0  0
   26.6785  -21.2231  -11.1368 C   0  0  0  0  0  0  0  0  0  0  0  0
   26.2910  -21.1817  -12.5910 C   0  0  2  0  0  0  0  0  0  0  0  0
   26.8551  -19.8992  -13.0769 N   0  0  0  0  0  0  0  0  0  0  0  0
   24.8430  -21.1126  -12.8401 C   0  0  0  0  0  0  0  0  0  0  0  0
   24.3030  -19.9660  -12.8468 O   0  0  0  0  0  0  0  0  0  0  0  0
   17.2915  -19.7442  -12.6130 N   0  0  0  0  0  0  0  0  0  0  0  0
   17.3537  -20.6390  -11.5185 C   0  0  0  0  0  0  0  0  0  0  0  0
   16.2646  -21.2148  -11.0799 N   0  0  0  0  0  0  0  0  0  0  0  0
   18.6163  -20.9058  -10.8995 N   0  0  0  0  0  0  0  0  0  0  0  0
   19.8058  -20.2147  -11.3598 C   0  0  0  0  0  0  0  0  0  0  0  0
   20.3967  -21.0496  -12.5086 C   0  0  0  0  0  0  0  0  0  0  0  0
   21.8568  -21.3025  -12.2761 C   0  0  0  0  0  0  0  0  0  0  0  0
   22.5476  -22.0462  -13.3710 C   0  0  2  0  0  0  0  0  0  0  0  0
   23.9810  -22.1972  -13.0782 N   0  0  0  0  0  0  0  0  0  0  0  0
   22.3373  -21.5180  -14.7211 C   0  0  0  0  0  0  0  0  0  0  0  0
   21.3499  -22.0420  -15.5834 O   0  0  0  0  0  0  0  0  0  0  0  0
   23.0004  -20.5762  -15.2173 O   0  0  0  0  0  0  0  0  0  0  0  0
  1  2  1  0
  3  2  1  0
  3  5  1  0
  3  4  1  6
  5  6  2  0
  8  7  1  1
  8  9  1  0
 10  8  1  0
 11 10  1  1
 12 11  1  0
 12  5  1  0
 13 11  1  0
 13 14  2  0
 15 16  1  0
 16 17  2  0
 18 16  1  0
 18 19  1  0
 20 19  1  0
 20 21  1  0
 22 21  1  1
 22 23  1  0
 22 24  1  0
 23 13  1  0
 24 26  2  0
 24 25  1  0
M  END
$$$$
