SLR.pdb
     RDKit          3D

 26 25  0  0  1  0  0  0  0  0999 V2000
   26.4063  -18.5894  -18.1305 O   0  0  0  0  0  0  0  0  0  0  0  0
   25.1422  -19.1701  -17.9855 C   0  0  0  0  0  0  0  0  0  0  0  0
   24.2194  -18.0692  -17.4968 C   0  0  2  0  0  0  0  0  0  0  0  0
   24.8464  -17.3822  -16.3850 N   0  0  0  0  0  0  0  0  0  0  0  0
   22.9386  -18.7017  -17.1064 C   0  0  0  0  0  0  0  0  0  0  0  0
   22.3192  -19.3875  -17.9607 O   0  0  0  0  0  0  0  0  0  0  0  0
   20.4780  -21.9076  -14.6990 C   0  0  0  0  0  0  0  0  0  0  0  0
   21.5230  -21.0521  -13.9549 C   0  0  2  0  0  0  0  0  0  0  0  0
   21.5881  -21.4604  -12.5092 C   0  0  0  0  0  0  0  0  0  0  0  0
   21.1400  -19.6066  -14.0927 C   0  0  0  0  0  0  0  0  0  0  0  0
   21.0119  -19.1074  -15.5073 C   0  0  2  0  0  0  0  0  0  0  0  0
   22.3621  -18.5846  -15.8276 N   0  0  0  0  0  0  0  0  0  0  0  0
   20.0844  -17.9790  -15.6799 C   0  0  0  0  0  0  0  0  0  0  0  0
   20.3750  -16.8876  -15.1049 O   0  0  0  0  0  0  0  0  0  0  0  0
   16.4963  -13.4466  -22.0837 N   0  0  0  0  0  0  0  0  0  0  0  0
   16.0474  -12.8034  -20.9058 C   0  0  0  0  0  0  0  0  0  0  0  0
   15.4043  -11.6675  -20.9837 N   0  0  0  0  0  0  0  0  0  0  0  0
   16.3039  -13.4072  -19.6338 N   0  0  0  0  0  0  0  0  0  0  0  0
   17.0814  -14.6296  -19.5592 C   0  0  0  0  0  0  0  0  0  0  0  0
   17.0627  -15.0876  -18.0910 C   0  0  0  0  0  0  0  0  0  0  0  0
   17.9001  -16.3195  -17.9149 C   0  0  0  0  0  0  0  0  0  0  0  0
   17.9878  -16.8243  -16.5126 C   0  0  2  0  0  0  0  0  0  0  0  0
   18.8940  -17.9796  -16.4276 N   0  0  0  0  0  0  0  0  0  0  0  0
   16.7053  -17.1105  -15.8651 C   0  0  0  0  0  0  0  0  0  0  0  0
   15.9334  -16.0979  -15.2552 O   0  0  0  0  0  0  0  0  0  0  0  0
   16.1929  -18.2532  -15.7974 O   0  0  0  0  0  0  0  0  0  0  0  0
  1  2  1  0
  3  2  1  0
  3  5  1  0
  3  4  1  1
  5  6  2  0
  8  7  1  6
  8  9  1  0
 10  8  1  0
 11 10  1  1
 12 11  1  0
 12  5  1  0
 13 11  1  0
 13 14  2  0
 15 16  1  0
 16 17  2  0
 18 16  1  0
 18 19  1  0
 20 19  1  0
 20 21  1  0
 22 21  1  6
 22 23  1  0
 22 24  1  0
 23 13  1  0
 24 26  2  0
 24 25  1  0
M  END
$$$$
