SLR.pdb
     RDKit          3D

 26 25  0  0  1  0  0  0  0  0999 V2000
   28.2834  -21.2793  -16.1293 O   0  0  0  0  0  0  0  0  0  0  0  0
   27.3160  -20.9916  -15.1611 C   0  0  0  0  0  0  0  0  0  0  0  0
   27.1763  -22.2412  -14.3118 C   0  0  2  0  0  0  0  0  0  0  0  0
   27.0423  -23.3937  -15.1805 N   0  0  0  0  0  0  0  0  0  0  0  0
   25.9900  -22.0600  -13.4441 C   0  0  0  0  0  0  0  0  0  0  0  0
   25.0159  -22.8447  -13.5822 O   0  0  0  0  0  0  0  0  0  0  0  0
   24.8604  -21.8363   -8.8007 C   0  0  0  0  0  0  0  0  0  0  0  0
   25.8373  -20.7987   -9.3893 C   0  0  2  0  0  0  0  0  0  0  0  0
   26.3188  -19.8726   -8.3070 C   0  0  0  0  0  0  0  0  0  0  0  0
   25.1292  -20.0408  -10.4752 C   0  0  0  0  0  0  0  0  0  0  0  0
   24.6607  -20.8726  -11.6394 C   0  0  2  0  0  0  0  0  0  0  0  0
   25.8797  -21.0560  -12.4637 N   0  0  0  0  0  0  0  0  0  0  0  0
   23.6739  -20.2138  -12.5087 C   0  0  0  0  0  0  0  0  0  0  0  0
   24.1067  -19.3856  -13.3648 O   0  0  0  0  0  0  0  0  0  0  0  0
   23.6425  -24.6381  -16.1258 N   0  0  0  0  0  0  0  0  0  0  0  0
   22.7602  -24.2265  -17.1526 C   0  0  0  0  0  0  0  0  0  0  0  0
   22.0647  -25.1145  -17.8143 N   0  0  0  0  0  0  0  0  0  0  0  0
   22.6377  -22.8336  -17.4577 N   0  0  0  0  0  0  0  0  0  0  0  0
   23.4034  -21.8597  -16.7029 C   0  0  0  0  0  0  0  0  0  0  0  0
   22.3930  -20.9301  -16.0097 C   0  0  0  0  0  0  0  0  0  0  0  0
   22.0069  -21.4812  -14.6691 C   0  0  0  0  0  0  0  0  0  0  0  0
   21.4585  -20.4761  -13.7110 C   0  0  2  0  0  0  0  0  0  0  0  0
   22.2818  -20.4089  -12.4941 N   0  0  0  0  0  0  0  0  0  0  0  0
   20.0396  -20.6299  -13.3806 C   0  0  0  0  0  0  0  0  0  0  0  0
   19.0185  -20.3014  -14.2985 O   0  0  0  0  0  0  0  0  0  0  0  0
   19.6178  -21.0569  -12.2794 O   0  0  0  0  0  0  0  0  0  0  0  0
  1  2  1  0
  3  2  1  0
  3  5  1  0
  3  4  1  6
  5  6  2  0
  8  7  1  1
  8  9  1  0
 10  8  1  0
 11 10  1  1
 12 11  1  0
 12  5  1  0
 13 11  1  0
 13 14  2  0
 15 16  1  0
 16 17  2  0
 18 16  1  0
 18 19  1  0
 20 19  1  0
 20 21  1  0
 22 21  1  6
 22 23  1  0
 22 24  1  0
 23 13  1  0
 24 26  2  0
 24 25  1  0
M  END
$$$$
