SLR.pdb
     RDKit          3D

 26 25  0  0  1  0  0  0  0  0999 V2000
   25.5556  -22.9322  -14.7902 O   0  0  0  0  0  0  0  0  0  0  0  0
   26.7723  -22.3465  -15.1547 C   0  0  0  0  0  0  0  0  0  0  0  0
   27.1410  -21.3935  -14.0330 C   0  0  2  0  0  0  0  0  0  0  0  0
   27.1716  -22.1227  -12.7807 N   0  0  0  0  0  0  0  0  0  0  0  0
   26.1318  -20.3098  -14.0190 C   0  0  0  0  0  0  0  0  0  0  0  0
   25.4626  -20.1220  -12.9699 O   0  0  0  0  0  0  0  0  0  0  0  0
   25.9350  -15.5417  -14.8644 C   0  0  0  0  0  0  0  0  0  0  0  0
   26.3714  -16.5505  -15.9458 C   0  0  2  0  0  0  0  0  0  0  0  0
   26.7808  -15.8211  -17.1954 C   0  0  0  0  0  0  0  0  0  0  0  0
   25.2270  -17.4850  -16.2145 C   0  0  0  0  0  0  0  0  0  0  0  0
   24.8523  -18.3883  -15.0698 C   0  0  2  0  0  0  0  0  0  0  0  0
   25.8694  -19.4665  -15.1150 N   0  0  0  0  0  0  0  0  0  0  0  0
   23.5467  -19.0509  -15.2109 C   0  0  0  0  0  0  0  0  0  0  0  0
   23.4701  -20.0322  -16.0092 O   0  0  0  0  0  0  0  0  0  0  0  0
   18.4864  -23.6070  -10.3389 N   0  0  0  0  0  0  0  0  0  0  0  0
   19.2062  -24.0133  -11.4876 C   0  0  0  0  0  0  0  0  0  0  0  0
   19.5797  -25.2594  -11.6203 N   0  0  0  0  0  0  0  0  0  0  0  0
   19.5194  -23.0494  -12.4982 N   0  0  0  0  0  0  0  0  0  0  0  0
   19.0863  -21.6738  -12.3421 C   0  0  0  0  0  0  0  0  0  0  0  0
   19.4074  -20.9472  -13.6592 C   0  0  0  0  0  0  0  0  0  0  0  0
   20.6898  -20.1790  -13.5354 C   0  0  0  0  0  0  0  0  0  0  0  0
   21.0799  -19.4077  -14.7528 C   0  0  2  0  0  0  0  0  0  0  0  0
   22.3575  -18.7098  -14.5434 N   0  0  0  0  0  0  0  0  0  0  0  0
   20.0591  -18.4953  -15.2740 C   0  0  0  0  0  0  0  0  0  0  0  0
   18.8872  -18.9666  -15.9045 O   0  0  0  0  0  0  0  0  0  0  0  0
   20.1352  -17.2453  -15.2073 O   0  0  0  0  0  0  0  0  0  0  0  0
  1  2  1  0
  3  2  1  0
  3  5  1  0
  3  4  1  1
  5  6  2  0
  8  7  1  1
  8  9  1  0
 10  8  1  0
 11 10  1  6
 12 11  1  0
 12  5  1  0
 13 11  1  0
 13 14  2  0
 15 16  1  0
 16 17  2  0
 18 16  1  0
 18 19  1  0
 20 19  1  0
 20 21  1  0
 22 21  1  1
 22 23  1  0
 22 24  1  0
 23 13  1  0
 24 26  2  0
 24 25  1  0
M  END
$$$$
