SLR.pdb
     RDKit          3D

 26 25  0  0  1  0  0  0  0  0999 V2000
   16.2344   -9.3615  -18.1894 O   0  0  0  0  0  0  0  0  0  0  0  0
   16.3346   -9.1909  -16.8049 C   0  0  0  0  0  0  0  0  0  0  0  0
   17.7127   -9.6891  -16.4114 C   0  0  2  0  0  0  0  0  0  0  0  0
   17.7664  -11.1269  -16.5873 N   0  0  0  0  0  0  0  0  0  0  0  0
   17.9443   -9.2939  -15.0031 C   0  0  0  0  0  0  0  0  0  0  0  0
   17.5811  -10.0785  -14.0886 O   0  0  0  0  0  0  0  0  0  0  0  0
   22.2608   -5.9442  -12.4493 C   0  0  0  0  0  0  0  0  0  0  0  0
   20.9348   -6.6497  -12.1008 C   0  0  2  0  0  0  0  0  0  0  0  0
   21.1817   -7.7462  -11.1019 C   0  0  0  0  0  0  0  0  0  0  0  0
   20.3386   -7.1947  -13.3668 C   0  0  0  0  0  0  0  0  0  0  0  0
   18.9724   -7.8102  -13.2211 C   0  0  2  0  0  0  0  0  0  0  0  0
   18.5509   -8.0841  -14.6162 N   0  0  0  0  0  0  0  0  0  0  0  0
   17.9520   -6.9159  -12.6532 C   0  0  0  0  0  0  0  0  0  0  0  0
   17.6363   -5.8868  -13.3220 O   0  0  0  0  0  0  0  0  0  0  0  0
   11.8337   -7.9556   -6.3166 N   0  0  0  0  0  0  0  0  0  0  0  0
   12.9538   -7.1379   -6.0351 C   0  0  0  0  0  0  0  0  0  0  0  0
   13.3125   -6.9215   -4.7963 N   0  0  0  0  0  0  0  0  0  0  0  0
   13.6866   -6.5528   -7.1163 N   0  0  0  0  0  0  0  0  0  0  0  0
   13.3262   -6.8677   -8.4858 C   0  0  0  0  0  0  0  0  0  0  0  0
   14.2384   -6.0291   -9.3969 C   0  0  0  0  0  0  0  0  0  0  0  0
   15.3157   -6.8860   -9.9927 C   0  0  0  0  0  0  0  0  0  0  0  0
   16.2083   -6.1875  -10.9646 C   0  0  2  0  0  0  0  0  0  0  0  0
   17.2769   -7.0837  -11.4317 N   0  0  0  0  0  0  0  0  0  0  0  0
   16.7546   -4.9067  -10.5097 C   0  0  0  0  0  0  0  0  0  0  0  0
   18.0414   -4.8037   -9.9381 O   0  0  0  0  0  0  0  0  0  0  0  0
   16.1416   -3.8153  -10.5864 O   0  0  0  0  0  0  0  0  0  0  0  0
  1  2  1  0
  3  2  1  0
  3  5  1  0
  3  4  1  1
  5  6  2  0
  8  7  1  6
  8  9  1  0
 10  8  1  0
 11 10  1  6
 12 11  1  0
 12  5  1  0
 13 11  1  0
 13 14  2  0
 15 16  1  0
 16 17  2  0
 18 16  1  0
 18 19  1  0
 20 19  1  0
 20 21  1  0
 22 21  1  1
 22 23  1  0
 22 24  1  0
 23 13  1  0
 24 26  2  0
 24 25  1  0
M  END
$$$$
