SLR.pdb
     RDKit          3D

 26 25  0  0  1  0  0  0  0  0999 V2000
   27.5091  -23.8890  -17.4415 O   0  0  0  0  0  0  0  0  0  0  0  0
   26.8206  -23.0163  -16.5927 C   0  0  0  0  0  0  0  0  0  0  0  0
   27.5435  -21.6845  -16.6712 C   0  0  2  0  0  0  0  0  0  0  0  0
   28.8525  -21.8178  -16.0630 N   0  0  0  0  0  0  0  0  0  0  0  0
   26.7072  -20.6816  -15.9727 C   0  0  0  0  0  0  0  0  0  0  0  0
   26.5540  -20.7852  -14.7279 O   0  0  0  0  0  0  0  0  0  0  0  0
   26.4118  -16.0837  -14.8552 C   0  0  0  0  0  0  0  0  0  0  0  0
   26.5452  -16.5457  -16.3202 C   0  0  2  0  0  0  0  0  0  0  0  0
   26.6715  -15.3529  -17.2270 C   0  0  0  0  0  0  0  0  0  0  0  0
   25.3386  -17.3678  -16.6717 C   0  0  0  0  0  0  0  0  0  0  0  0
   25.1882  -18.6516  -15.8996 C   0  0  2  0  0  0  0  0  0  0  0  0
   26.0653  -19.6077  -16.6176 N   0  0  0  0  0  0  0  0  0  0  0  0
   23.8374  -19.2330  -15.9297 C   0  0  0  0  0  0  0  0  0  0  0  0
   23.4933  -19.8632  -16.9740 O   0  0  0  0  0  0  0  0  0  0  0  0
   19.3068  -24.6351  -13.4219 N   0  0  0  0  0  0  0  0  0  0  0  0
   18.1710  -23.9035  -13.0012 C   0  0  0  0  0  0  0  0  0  0  0  0
   16.9823  -24.4447  -13.0644 N   0  0  0  0  0  0  0  0  0  0  0  0
   18.3367  -22.5703  -12.5077 N   0  0  0  0  0  0  0  0  0  0  0  0
   19.6622  -21.9841  -12.4444 C   0  0  0  0  0  0  0  0  0  0  0  0
   19.8867  -21.2318  -13.7670 C   0  0  0  0  0  0  0  0  0  0  0  0
   21.2409  -20.5869  -13.7804 C   0  0  0  0  0  0  0  0  0  0  0  0
   21.5443  -19.7884  -15.0049 C   0  0  2  0  0  0  0  0  0  0  0  0
   22.8737  -19.1666  -14.9085 N   0  0  0  0  0  0  0  0  0  0  0  0
   20.5272  -18.8042  -15.3827 C   0  0  0  0  0  0  0  0  0  0  0  0
   20.5474  -17.4815  -14.8896 O   0  0  0  0  0  0  0  0  0  0  0  0
   19.5720  -19.0447  -16.1591 O   0  0  0  0  0  0  0  0  0  0  0  0
  1  2  1  0
  3  2  1  0
  3  5  1  0
  3  4  1  1
  5  6  2  0
  8  7  1  1
  8  9  1  0
 10  8  1  0
 11 10  1  6
 12 11  1  0
 12  5  1  0
 13 11  1  0
 13 14  2  0
 15 16  1  0
 16 17  2  0
 18 16  1  0
 18 19  1  0
 20 19  1  0
 20 21  1  0
 22 21  1  1
 22 23  1  0
 22 24  1  0
 23 13  1  0
 24 26  2  0
 24 25  1  0
M  END
$$$$
