SLR.pdb
     RDKit          3D

 26 25  0  0  1  0  0  0  0  0999 V2000
   21.0675  -18.8012  -18.8504 O   0  0  0  0  0  0  0  0  0  0  0  0
   21.6808  -17.6004  -19.2218 C   0  0  0  0  0  0  0  0  0  0  0  0
   23.1579  -17.9071  -19.3844 C   0  0  2  0  0  0  0  0  0  0  0  0
   23.3342  -18.8187  -20.4975 N   0  0  0  0  0  0  0  0  0  0  0  0
   23.6351  -18.4901  -18.1095 C   0  0  0  0  0  0  0  0  0  0  0  0
   23.8113  -19.7344  -18.0435 O   0  0  0  0  0  0  0  0  0  0  0  0
   27.4678  -17.7541  -15.8589 C   0  0  0  0  0  0  0  0  0  0  0  0
   26.3848  -16.6575  -15.8149 C   0  0  2  0  0  0  0  0  0  0  0  0
   26.9322  -15.4189  -15.1612 C   0  0  0  0  0  0  0  0  0  0  0  0
   25.1996  -17.1889  -15.0612 C   0  0  0  0  0  0  0  0  0  0  0  0
   24.4776  -18.3329  -15.7222 C   0  0  2  0  0  0  0  0  0  0  0  0
   23.9076  -17.7346  -16.9535 N   0  0  0  0  0  0  0  0  0  0  0  0
   23.3376  -18.8638  -14.9593 C   0  0  0  0  0  0  0  0  0  0  0  0
   22.2837  -18.1614  -14.9144 O   0  0  0  0  0  0  0  0  0  0  0  0
   22.2583  -22.1836   -7.8111 N   0  0  0  0  0  0  0  0  0  0  0  0
   22.9974  -21.2028   -8.5142 C   0  0  0  0  0  0  0  0  0  0  0  0
   24.2125  -20.9019   -8.1363 N   0  0  0  0  0  0  0  0  0  0  0  0
   22.4028  -20.5466   -9.6386 N   0  0  0  0  0  0  0  0  0  0  0  0
   21.0977  -20.9671  -10.1121 C   0  0  0  0  0  0  0  0  0  0  0  0
   20.8030  -20.1678  -11.3927 C   0  0  0  0  0  0  0  0  0  0  0  0
   22.0679  -19.9218  -12.1604 C   0  0  0  0  0  0  0  0  0  0  0  0
   22.1122  -20.5477  -13.5152 C   0  0  2  0  0  0  0  0  0  0  0  0
   23.2892  -20.0862  -14.2670 N   0  0  0  0  0  0  0  0  0  0  0  0
   20.8904  -20.4118  -14.3118 C   0  0  0  0  0  0  0  0  0  0  0  0
   20.5424  -19.1993  -14.9458 O   0  0  0  0  0  0  0  0  0  0  0  0
   20.0660  -21.3388  -14.4960 O   0  0  0  0  0  0  0  0  0  0  0  0
  1  2  1  0
  3  2  1  0
  3  5  1  0
  3  4  1  6
  5  6  2  0
  8  7  1  1
  8  9  1  0
 10  8  1  0
 11 10  1  1
 12 11  1  0
 12  5  1  0
 13 11  1  0
 13 14  2  0
 15 16  1  0
 16 17  2  0
 18 16  1  0
 18 19  1  0
 20 19  1  0
 20 21  1  0
 22 21  1  1
 22 23  1  0
 22 24  1  0
 23 13  1  0
 24 26  2  0
 24 25  1  0
M  END
$$$$
