SLR.pdb
     RDKit          3D

 26 25  0  0  1  0  0  0  0  0999 V2000
   28.4654  -19.7496  -13.7739 O   0  0  0  0  0  0  0  0  0  0  0  0
   29.3034  -19.3617  -12.7235 C   0  0  0  0  0  0  0  0  0  0  0  0
   29.6061  -20.6197  -11.9311 C   0  0  2  0  0  0  0  0  0  0  0  0
   30.1292  -21.6316  -12.8274 N   0  0  0  0  0  0  0  0  0  0  0  0
   28.3470  -21.0514  -11.2820 C   0  0  0  0  0  0  0  0  0  0  0  0
   27.9209  -22.2143  -11.5053 O   0  0  0  0  0  0  0  0  0  0  0  0
   26.7628  -21.2851   -6.9063 C   0  0  0  0  0  0  0  0  0  0  0  0
   26.9758  -19.8704   -7.4813 C   0  0  2  0  0  0  0  0  0  0  0  0
   26.6663  -18.8367   -6.4340 C   0  0  0  0  0  0  0  0  0  0  0  0
   26.0898  -19.7064   -8.6826 C   0  0  0  0  0  0  0  0  0  0  0  0
   26.3241  -20.6947   -9.7939 C   0  0  2  0  0  0  0  0  0  0  0  0
   27.5870  -20.2367  -10.4218 N   0  0  0  0  0  0  0  0  0  0  0  0
   25.3081  -20.6768  -10.8575 C   0  0  0  0  0  0  0  0  0  0  0  0
   24.8041  -19.5564  -11.1684 O   0  0  0  0  0  0  0  0  0  0  0  0
   23.5265  -26.6422  -16.7676 N   0  0  0  0  0  0  0  0  0  0  0  0
   24.5557  -25.8536  -16.2006 C   0  0  0  0  0  0  0  0  0  0  0  0
   25.8048  -26.2218  -16.3200 N   0  0  0  0  0  0  0  0  0  0  0  0
   24.2160  -24.6539  -15.4981 N   0  0  0  0  0  0  0  0  0  0  0  0
   22.8226  -24.2901  -15.3235 C   0  0  0  0  0  0  0  0  0  0  0  0
   22.7973  -22.9431  -14.5815 C   0  0  0  0  0  0  0  0  0  0  0  0
   23.7965  -22.9415  -13.4627 C   0  0  0  0  0  0  0  0  0  0  0  0
   23.8378  -21.6838  -12.6592 C   0  0  2  0  0  0  0  0  0  0  0  0
   24.8311  -21.7847  -11.5792 N   0  0  0  0  0  0  0  0  0  0  0  0
   22.5457  -21.2215  -12.1466 C   0  0  0  0  0  0  0  0  0  0  0  0
   21.6327  -20.5092  -12.9542 O   0  0  0  0  0  0  0  0  0  0  0  0
   22.1469  -21.4134  -10.9731 O   0  0  0  0  0  0  0  0  0  0  0  0
  1  2  1  0
  3  2  1  0
  3  5  1  0
  3  4  1  6
  5  6  2  0
  8  7  1  1
  8  9  1  0
 10  8  1  0
 11 10  1  1
 12 11  1  0
 12  5  1  0
 13 11  1  0
 13 14  2  0
 15 16  1  0
 16 17  2  0
 18 16  1  0
 18 19  1  0
 20 19  1  0
 20 21  1  0
 22 21  1  1
 22 23  1  0
 22 24  1  0
 23 13  1  0
 24 26  2  0
 24 25  1  0
M  END
$$$$
