SLR.pdb
     RDKit          3D

 26 25  0  0  1  0  0  0  0  0999 V2000
   30.0459   -6.2165  -20.8320 O   0  0  0  0  0  0  0  0  0  0  0  0
   29.2860   -7.3711  -21.0459 C   0  0  0  0  0  0  0  0  0  0  0  0
   29.9359   -8.4688  -20.2244 C   0  0  2  0  0  0  0  0  0  0  0  0
   30.9123   -9.1601  -21.0428 N   0  0  0  0  0  0  0  0  0  0  0  0
   28.8601   -9.3748  -19.7607 C   0  0  0  0  0  0  0  0  0  0  0  0
   28.5582  -10.3673  -20.4732 O   0  0  0  0  0  0  0  0  0  0  0  0
   26.5192  -10.3926  -14.3198 C   0  0  0  0  0  0  0  0  0  0  0  0
   26.5432  -11.0344  -15.7216 C   0  0  2  0  0  0  0  0  0  0  0  0
   26.9002  -12.4911  -15.6151 C   0  0  0  0  0  0  0  0  0  0  0  0
   27.5385  -10.2933  -16.5674 C   0  0  0  0  0  0  0  0  0  0  0  0
   27.2026  -10.2116  -18.0327 C   0  0  2  0  0  0  0  0  0  0  0  0
   28.1451   -9.1962  -18.5615 N   0  0  0  0  0  0  0  0  0  0  0  0
   25.8519   -9.7092  -18.3272 C   0  0  0  0  0  0  0  0  0  0  0  0
   25.6205   -8.4833  -18.1039 O   0  0  0  0  0  0  0  0  0  0  0  0
   18.3713  -11.1866  -18.5930 N   0  0  0  0  0  0  0  0  0  0  0  0
   18.0405  -10.8022  -19.9141 C   0  0  0  0  0  0  0  0  0  0  0  0
   16.8555  -10.3161  -20.1780 N   0  0  0  0  0  0  0  0  0  0  0  0
   19.0128  -10.9506  -20.9538 N   0  0  0  0  0  0  0  0  0  0  0  0
   20.3125  -11.5190  -20.6502 C   0  0  0  0  0  0  0  0  0  0  0  0
   21.1387  -10.4166  -19.9664 C   0  0  0  0  0  0  0  0  0  0  0  0
   22.5479  -10.8794  -19.7428 C   0  0  0  0  0  0  0  0  0  0  0  0
   23.4287   -9.8963  -19.0452 C   0  0  2  0  0  0  0  0  0  0  0  0
   24.7747  -10.4526  -18.8401 N   0  0  0  0  0  0  0  0  0  0  0  0
   22.8913   -9.3420  -17.8003 C   0  0  0  0  0  0  0  0  0  0  0  0
   22.2294   -8.0956  -17.7615 O   0  0  0  0  0  0  0  0  0  0  0  0
   22.9702   -9.9127  -16.6863 O   0  0  0  0  0  0  0  0  0  0  0  0
  1  2  1  0
  3  2  1  0
  3  5  1  0
  3  4  1  6
  5  6  2  0
  8  7  1  1
  8  9  1  0
 10  8  1  0
 11 10  1  1
 12 11  1  0
 12  5  1  0
 13 11  1  0
 13 14  2  0
 15 16  1  0
 16 17  2  0
 18 16  1  0
 18 19  1  0
 20 19  1  0
 20 21  1  0
 22 21  1  1
 22 23  1  0
 22 24  1  0
 23 13  1  0
 24 26  2  0
 24 25  1  0
M  END
$$$$
