SLR.pdb
     RDKit          3D

 26 25  0  0  1  0  0  0  0  0999 V2000
   25.8545  -21.1840  -17.7798 O   0  0  0  0  0  0  0  0  0  0  0  0
   27.1578  -20.8334  -18.1468 C   0  0  0  0  0  0  0  0  0  0  0  0
   27.8841  -20.4824  -16.8616 C   0  0  2  0  0  0  0  0  0  0  0  0
   28.1207  -21.6948  -16.1033 N   0  0  0  0  0  0  0  0  0  0  0  0
   27.0373  -19.5207  -16.1194 C   0  0  0  0  0  0  0  0  0  0  0  0
   26.6601  -19.8207  -14.9569 O   0  0  0  0  0  0  0  0  0  0  0  0
   25.1795  -13.7619  -17.1529 C   0  0  0  0  0  0  0  0  0  0  0  0
   25.0643  -14.9105  -16.1305 C   0  0  2  0  0  0  0  0  0  0  0  0
   25.3860  -14.4063  -14.7509 C   0  0  0  0  0  0  0  0  0  0  0  0
   26.0049  -16.0075  -16.5392 C   0  0  0  0  0  0  0  0  0  0  0  0
   25.7767  -17.3343  -15.8653 C   0  0  2  0  0  0  0  0  0  0  0  0
   26.6219  -18.2786  -16.6353 N   0  0  0  0  0  0  0  0  0  0  0  0
   24.4005  -17.8446  -15.9616 C   0  0  0  0  0  0  0  0  0  0  0  0
   24.0589  -18.4100  -17.0431 O   0  0  0  0  0  0  0  0  0  0  0  0
   18.5667  -23.3718  -13.3017 N   0  0  0  0  0  0  0  0  0  0  0  0
   19.8897  -23.4866  -13.7903 C   0  0  0  0  0  0  0  0  0  0  0  0
   20.2992  -24.6122  -14.3151 N   0  0  0  0  0  0  0  0  0  0  0  0
   20.7709  -22.3622  -13.7043 N   0  0  0  0  0  0  0  0  0  0  0  0
   20.3064  -21.1259  -13.1042 C   0  0  0  0  0  0  0  0  0  0  0  0
   20.4454  -20.0263  -14.1706 C   0  0  0  0  0  0  0  0  0  0  0  0
   21.8141  -19.4148  -14.1184 C   0  0  0  0  0  0  0  0  0  0  0  0
   22.0603  -18.3390  -15.1240 C   0  0  2  0  0  0  0  0  0  0  0  0
   23.4094  -17.7744  -14.9672 N   0  0  0  0  0  0  0  0  0  0  0  0
   21.0480  -17.2814  -15.1752 C   0  0  0  0  0  0  0  0  0  0  0  0
   19.9509  -17.3392  -16.0618 O   0  0  0  0  0  0  0  0  0  0  0  0
   21.0670  -16.2563  -14.4530 O   0  0  0  0  0  0  0  0  0  0  0  0
  1  2  1  0
  3  2  1  0
  3  5  1  0
  3  4  1  1
  5  6  2  0
  8  7  1  6
  8  9  1  0
 10  8  1  0
 11 10  1  6
 12 11  1  0
 12  5  1  0
 13 11  1  0
 13 14  2  0
 15 16  1  0
 16 17  2  0
 18 16  1  0
 18 19  1  0
 20 19  1  0
 20 21  1  0
 22 21  1  1
 22 23  1  0
 22 24  1  0
 23 13  1  0
 24 26  2  0
 24 25  1  0
M  END
$$$$
