SLR.pdb
     RDKit          3D

 26 25  0  0  1  0  0  0  0  0999 V2000
   25.4530  -16.6213  -15.8312 O   0  0  0  0  0  0  0  0  0  0  0  0
   25.2807  -18.0092  -15.8368 C   0  0  0  0  0  0  0  0  0  0  0  0
   26.6198  -18.6079  -15.4487 C   0  0  2  0  0  0  0  0  0  0  0  0
   27.3277  -19.0069  -16.6489 N   0  0  0  0  0  0  0  0  0  0  0  0
   26.3517  -19.7579  -14.5550 C   0  0  0  0  0  0  0  0  0  0  0  0
   26.5471  -20.9212  -14.9934 O   0  0  0  0  0  0  0  0  0  0  0  0
   24.4297  -21.7304   -9.7990 C   0  0  0  0  0  0  0  0  0  0  0  0
   25.8603  -21.1551   -9.7997 C   0  0  2  0  0  0  0  0  0  0  0  0
   26.1427  -20.4751   -8.4886 C   0  0  0  0  0  0  0  0  0  0  0  0
   25.9863  -20.1938  -10.9465 C   0  0  0  0  0  0  0  0  0  0  0  0
   25.7713  -20.7904  -12.3120 C   0  0  2  0  0  0  0  0  0  0  0  0
   25.8872  -19.6332  -13.2321 N   0  0  0  0  0  0  0  0  0  0  0  0
   24.4315  -21.3561  -12.5323 C   0  0  0  0  0  0  0  0  0  0  0  0
   24.0647  -22.3061  -11.7780 O   0  0  0  0  0  0  0  0  0  0  0  0
   18.6512  -23.5337   -8.1973 N   0  0  0  0  0  0  0  0  0  0  0  0
   17.9297  -23.6323   -9.4106 C   0  0  0  0  0  0  0  0  0  0  0  0
   16.6977  -24.0707   -9.4068 N   0  0  0  0  0  0  0  0  0  0  0  0
   18.5604  -23.2487  -10.6367 N   0  0  0  0  0  0  0  0  0  0  0  0
   19.8860  -22.6598  -10.6126 C   0  0  0  0  0  0  0  0  0  0  0  0
   20.2341  -22.2721  -12.0597 C   0  0  0  0  0  0  0  0  0  0  0  0
   21.6486  -21.7803  -12.1453 C   0  0  0  0  0  0  0  0  0  0  0  0
   22.0959  -21.3894  -13.5151 C   0  0  2  0  0  0  0  0  0  0  0  0
   23.4989  -20.9483  -13.5018 N   0  0  0  0  0  0  0  0  0  0  0  0
   21.2430  -20.4165  -14.2022 C   0  0  0  0  0  0  0  0  0  0  0  0
   19.8823  -20.6761  -14.4744 O   0  0  0  0  0  0  0  0  0  0  0  0
   21.6378  -19.2943  -14.5993 O   0  0  0  0  0  0  0  0  0  0  0  0
  1  2  1  0
  3  2  1  0
  3  5  1  0
  3  4  1  6
  5  6  2  0
  8  7  1  1
  8  9  1  0
 10  8  1  0
 11 10  1  1
 12 11  1  0
 12  5  1  0
 13 11  1  0
 13 14  2  0
 15 16  1  0
 16 17  2  0
 18 16  1  0
 18 19  1  0
 20 19  1  0
 20 21  1  0
 22 21  1  1
 22 23  1  0
 22 24  1  0
 23 13  1  0
 24 26  2  0
 24 25  1  0
M  END
$$$$
