SLR.pdb
     RDKit          3D

 26 25  0  0  1  0  0  0  0  0999 V2000
   16.3990  -23.3132   -8.1137 O   0  0  0  0  0  0  0  0  0  0  0  0
   17.4417  -23.4651   -7.1940 C   0  0  0  0  0  0  0  0  0  0  0  0
   17.8837  -24.9139   -7.2842 C   0  0  2  0  0  0  0  0  0  0  0  0
   17.3432  -25.5011   -8.4941 N   0  0  0  0  0  0  0  0  0  0  0  0
   17.3978  -25.6046   -6.0677 C   0  0  0  0  0  0  0  0  0  0  0  0
   16.2177  -26.0415   -6.0525 O   0  0  0  0  0  0  0  0  0  0  0  0
   19.9366  -27.4188   -0.7473 C   0  0  0  0  0  0  0  0  0  0  0  0
   18.6296  -27.4442   -1.5650 C   0  0  2  0  0  0  0  0  0  0  0  0
   18.1668  -28.8625   -1.7526 C   0  0  0  0  0  0  0  0  0  0  0  0
   18.8822  -26.7776   -2.8867 C   0  0  0  0  0  0  0  0  0  0  0  0
   17.6510  -26.4676   -3.6960 C   0  0  2  0  0  0  0  0  0  0  0  0
   18.1787  -25.8068   -4.9142 N   0  0  0  0  0  0  0  0  0  0  0  0
   16.7318  -25.5032   -3.0727 C   0  0  0  0  0  0  0  0  0  0  0  0
   16.9009  -24.2757   -3.3384 O   0  0  0  0  0  0  0  0  0  0  0  0
   12.7122  -20.3745   -5.9257 N   0  0  0  0  0  0  0  0  0  0  0  0
   12.4432  -21.7597   -6.0318 C   0  0  0  0  0  0  0  0  0  0  0  0
   12.0981  -22.2740   -7.1834 N   0  0  0  0  0  0  0  0  0  0  0  0
   12.5524  -22.5880   -4.8697 N   0  0  0  0  0  0  0  0  0  0  0  0
   12.8770  -21.9926   -3.5874 C   0  0  0  0  0  0  0  0  0  0  0  0
   12.9775  -23.1409   -2.5690 C   0  0  0  0  0  0  0  0  0  0  0  0
   14.1309  -24.0395   -2.9036 C   0  0  0  0  0  0  0  0  0  0  0  0
   14.6877  -24.8037   -1.7481 C   0  0  2  0  0  0  0  0  0  0  0  0
   15.6679  -25.8011   -2.2035 N   0  0  0  0  0  0  0  0  0  0  0  0
   13.6952  -25.4078   -0.8559 C   0  0  0  0  0  0  0  0  0  0  0  0
   13.3549  -26.7758   -0.9335 O   0  0  0  0  0  0  0  0  0  0  0  0
   13.0756  -24.7776    0.0339 O   0  0  0  0  0  0  0  0  0  0  0  0
  1  2  1  0
  3  2  1  0
  3  5  1  0
  3  4  1  6
  5  6  2  0
  8  7  1  1
  8  9  1  0
 10  8  1  0
 11 10  1  1
 12 11  1  0
 12  5  1  0
 13 11  1  0
 13 14  2  0
 15 16  1  0
 16 17  2  0
 18 16  1  0
 18 19  1  0
 20 19  1  0
 20 21  1  0
 22 21  1  6
 22 23  1  0
 22 24  1  0
 23 13  1  0
 24 26  2  0
 24 25  1  0
M  END
$$$$
