SLR.pdb
     RDKit          3D

 26 25  0  0  1  0  0  0  0  0999 V2000
   20.1590  -12.8533  -19.3776 O   0  0  0  0  0  0  0  0  0  0  0  0
   21.2683  -12.7804  -20.2264 C   0  0  0  0  0  0  0  0  0  0  0  0
   22.3453  -13.6445  -19.5975 C   0  0  2  0  0  0  0  0  0  0  0  0
   21.8049  -14.9644  -19.3390 N   0  0  0  0  0  0  0  0  0  0  0  0
   22.7861  -12.9726  -18.3536 C   0  0  0  0  0  0  0  0  0  0  0  0
   22.3537  -13.3993  -17.2515 O   0  0  0  0  0  0  0  0  0  0  0  0
   27.5107   -9.6648  -16.4840 C   0  0  0  0  0  0  0  0  0  0  0  0
   26.0438   -9.9779  -16.1265 C   0  0  2  0  0  0  0  0  0  0  0  0
   25.9728  -10.6455  -14.7810 C   0  0  0  0  0  0  0  0  0  0  0  0
   25.4701  -10.8586  -17.1990 C   0  0  0  0  0  0  0  0  0  0  0  0
   23.9981  -11.1487  -17.0736 C   0  0  2  0  0  0  0  0  0  0  0  0
   23.6672  -11.8752  -18.3232 N   0  0  0  0  0  0  0  0  0  0  0  0
   23.1359   -9.9572  -17.0522 C   0  0  0  0  0  0  0  0  0  0  0  0
   23.0783   -9.2558  -18.1061 O   0  0  0  0  0  0  0  0  0  0  0  0
   15.3298  -10.9556  -15.4399 N   0  0  0  0  0  0  0  0  0  0  0  0
   15.9964  -11.3663  -16.6186 C   0  0  0  0  0  0  0  0  0  0  0  0
   15.4008  -12.1676  -17.4630 N   0  0  0  0  0  0  0  0  0  0  0  0
   17.3239  -10.8972  -16.8752 N   0  0  0  0  0  0  0  0  0  0  0  0
   17.9510   -9.9676  -15.9548 C   0  0  0  0  0  0  0  0  0  0  0  0
   19.3401   -9.6352  -16.5256 C   0  0  0  0  0  0  0  0  0  0  0  0
   20.0780   -8.7095  -15.6044 C   0  0  0  0  0  0  0  0  0  0  0  0
   21.4557   -8.3460  -16.0505 C   0  0  2  0  0  0  0  0  0  0  0  0
   22.3546   -9.5076  -15.9735 N   0  0  0  0  0  0  0  0  0  0  0  0
   22.0440   -7.1785  -15.3895 C   0  0  0  0  0  0  0  0  0  0  0  0
   21.8529   -5.8678  -15.8781 O   0  0  0  0  0  0  0  0  0  0  0  0
   22.7521   -7.2397  -14.3562 O   0  0  0  0  0  0  0  0  0  0  0  0
  1  2  1  0
  3  2  1  0
  3  5  1  0
  3  4  1  1
  5  6  2  0
  8  7  1  6
  8  9  1  0
 10  8  1  0
 11 10  1  6
 12 11  1  0
 12  5  1  0
 13 11  1  0
 13 14  2  0
 15 16  1  0
 16 17  2  0
 18 16  1  0
 18 19  1  0
 20 19  1  0
 20 21  1  0
 22 21  1  1
 22 23  1  0
 22 24  1  0
 23 13  1  0
 24 26  2  0
 24 25  1  0
M  END
$$$$
