SLR.pdb
     RDKit          3D

 26 25  0  0  1  0  0  0  0  0999 V2000
   23.2832  -14.2711  -20.8031 O   0  0  0  0  0  0  0  0  0  0  0  0
   22.7077  -14.0413  -19.5493 C   0  0  0  0  0  0  0  0  0  0  0  0
   23.6538  -14.6440  -18.5276 C   0  0  2  0  0  0  0  0  0  0  0  0
   23.2350  -16.0003  -18.2342 N   0  0  0  0  0  0  0  0  0  0  0  0
   23.6198  -13.7808  -17.3248 C   0  0  0  0  0  0  0  0  0  0  0  0
   22.6528  -13.8946  -16.5275 O   0  0  0  0  0  0  0  0  0  0  0  0
   28.3776  -11.7312  -15.7039 C   0  0  0  0  0  0  0  0  0  0  0  0
   26.9875  -11.6304  -16.3635 C   0  0  2  0  0  0  0  0  0  0  0  0
   26.8096  -10.2730  -16.9854 C   0  0  0  0  0  0  0  0  0  0  0  0
   25.9435  -11.8868  -15.3150 C   0  0  0  0  0  0  0  0  0  0  0  0
   24.5268  -11.9510  -15.8205 C   0  0  2  0  0  0  0  0  0  0  0  0
   24.6097  -12.8304  -17.0116 N   0  0  0  0  0  0  0  0  0  0  0  0
   23.9843  -10.6688  -16.2951 C   0  0  0  0  0  0  0  0  0  0  0  0
   23.9390  -10.4786  -17.5473 O   0  0  0  0  0  0  0  0  0  0  0  0
   16.7893   -9.8517  -19.1360 N   0  0  0  0  0  0  0  0  0  0  0  0
   17.1275   -8.4778  -19.1104 C   0  0  0  0  0  0  0  0  0  0  0  0
   16.3554   -7.6017  -19.6987 N   0  0  0  0  0  0  0  0  0  0  0  0
   18.3187   -8.0596  -18.4362 N   0  0  0  0  0  0  0  0  0  0  0  0
   19.2070   -9.0509  -17.8594 C   0  0  0  0  0  0  0  0  0  0  0  0
   20.3530   -8.2864  -17.1752 C   0  0  0  0  0  0  0  0  0  0  0  0
   21.3876   -9.2426  -16.6603 C   0  0  0  0  0  0  0  0  0  0  0  0
   22.5523   -8.6017  -15.9807 C   0  0  2  0  0  0  0  0  0  0  0  0
   23.5005   -9.6171  -15.4977 N   0  0  0  0  0  0  0  0  0  0  0  0
   22.2161   -7.6472  -14.9215 C   0  0  0  0  0  0  0  0  0  0  0  0
   21.8801   -6.3053  -15.2037 O   0  0  0  0  0  0  0  0  0  0  0  0
   22.1978   -7.9318  -13.7002 O   0  0  0  0  0  0  0  0  0  0  0  0
  1  2  1  0
  3  2  1  0
  3  5  1  0
  3  4  1  1
  5  6  2  0
  8  7  1  1
  8  9  1  0
 10  8  1  0
 11 10  1  6
 12 11  1  0
 12  5  1  0
 13 11  1  0
 13 14  2  0
 15 16  1  0
 16 17  2  0
 18 16  1  0
 18 19  1  0
 20 19  1  0
 20 21  1  0
 22 21  1  1
 22 23  1  0
 22 24  1  0
 23 13  1  0
 24 26  2  0
 24 25  1  0
M  END
$$$$
