MEG.pdb
     RDKit          3D

 22 21  0  0  1  0  0  0  0  0999 V2000
   10.5323  -23.0445   -8.3262 C   0  0  0  0  0  0  0  0  0  0  0  0
   12.1287  -23.3090   -7.4846 S   0  0  0  0  0  0  0  0  0  0  0  0
   12.0163  -22.6511   -5.7985 C   0  0  0  0  0  0  0  0  0  0  0  0
   13.2508  -23.0105   -5.0004 C   0  0  0  0  0  0  0  0  0  0  0  0
   13.2199  -22.4262   -3.6153 C   0  0  2  0  0  0  0  0  0  0  0  0
   13.0870  -21.0026   -3.6828 N   0  0  0  0  0  0  0  0  0  0  0  0
   14.3957  -22.8146   -2.7992 C   0  0  0  0  0  0  0  0  0  0  0  0
   15.3913  -22.0780   -2.6249 O   0  0  0  0  0  0  0  0  0  0  0  0
   14.3945  -24.0816   -2.1856 N   0  0  0  0  0  0  0  0  0  0  0  0
   15.5024  -24.5880   -1.3517 C   0  0  1  0  0  0  0  0  0  0  0  0
   15.0072  -24.8361    0.0345 C   0  0  0  0  0  0  0  0  0  0  0  0
   14.7113  -23.5730    0.7771 C   0  0  0  0  0  0  0  0  0  0  0  0
   15.9214  -23.1390    1.5829 C   0  0  0  0  0  0  0  0  0  0  0  0
   16.9148  -23.9030    1.5957 O   0  0  0  0  0  0  0  0  0  0  0  0
   16.1159  -25.7211   -2.0409 C   0  0  0  0  0  0  0  0  0  0  0  0
   15.3799  -26.6619   -2.4558 O   0  0  0  0  0  0  0  0  0  0  0  0
   15.9368  -21.9528    2.2771 O   0  0  0  0  0  0  0  0  0  0  0  0
   17.4963  -25.8339   -2.2818 N   0  0  0  0  0  0  0  0  0  0  0  0
   18.0715  -27.0078   -2.9682 C   0  0  0  0  0  0  0  0  0  0  0  0
   18.2677  -28.1212   -2.0401 C   0  0  0  0  0  0  0  0  0  0  0  0
   17.9499  -27.9829   -0.8336 O   0  0  0  0  0  0  0  0  0  0  0  0
   18.7955  -29.3394   -2.4362 O   0  0  0  0  0  0  0  0  0  0  0  0
  2  1  1  0
  3  2  1  0
  4  3  1  0
  4  5  1  0
  5  6  1  6
  7  5  1  0
  8  7  2  0
  9  7  1  0
 10  9  1  0
 10 11  1  1
 11 12  1  0
 12 13  1  0
 13 17  1  0
 14 13  2  0
 15 10  1  0
 16 15  2  0
 18 15  1  0
 19 18  1  0
 20 22  1  0
 20 19  1  0
 21 20  2  0
M  END
$$$$
