MEG.pdb
     RDKit          3D

 22 21  0  0  1  0  0  0  0  0999 V2000
   29.2254  -18.7599   -4.1170 C   0  0  0  0  0  0  0  0  0  0  0  0
   28.6507  -19.6129   -5.6233 S   0  0  0  0  0  0  0  0  0  0  0  0
   26.9432  -20.1664   -5.3659 C   0  0  0  0  0  0  0  0  0  0  0  0
   26.4300  -20.9031   -6.5842 C   0  0  0  0  0  0  0  0  0  0  0  0
   26.7159  -20.1583   -7.8587 C   0  0  2  0  0  0  0  0  0  0  0  0
   26.1075  -18.8633   -7.8210 N   0  0  0  0  0  0  0  0  0  0  0  0
   26.3020  -20.9077   -9.0697 C   0  0  0  0  0  0  0  0  0  0  0  0
   26.6850  -22.0695   -9.3296 O   0  0  0  0  0  0  0  0  0  0  0  0
   25.4299  -20.2796   -9.9790 N   0  0  0  0  0  0  0  0  0  0  0  0
   25.0631  -20.8520  -11.2894 C   0  0  1  0  0  0  0  0  0  0  0  0
   23.6223  -20.5760  -11.5659 C   0  0  0  0  0  0  0  0  0  0  0  0
   23.1888  -21.0616  -12.9115 C   0  0  0  0  0  0  0  0  0  0  0  0
   21.7163  -20.7673  -13.1292 C   0  0  0  0  0  0  0  0  0  0  0  0
   21.3985  -19.5966  -13.4439 O   0  0  0  0  0  0  0  0  0  0  0  0
   26.0235  -20.3778  -12.2835 C   0  0  0  0  0  0  0  0  0  0  0  0
   26.2947  -19.1439  -12.3387 O   0  0  0  0  0  0  0  0  0  0  0  0
   20.7585  -21.7429  -12.9884 O   0  0  0  0  0  0  0  0  0  0  0  0
   26.6820  -21.2199  -13.1964 N   0  0  0  0  0  0  0  0  0  0  0  0
   27.7389  -20.7152  -14.0953 C   0  0  0  0  0  0  0  0  0  0  0  0
   27.1796  -20.2577  -15.3671 C   0  0  0  0  0  0  0  0  0  0  0  0
   26.2796  -19.3825  -15.3668 O   0  0  0  0  0  0  0  0  0  0  0  0
   27.6027  -20.7523  -16.5901 O   0  0  0  0  0  0  0  0  0  0  0  0
  2  1  1  0
  3  2  1  0
  4  3  1  0
  4  5  1  0
  5  6  1  1
  7  5  1  0
  8  7  2  0
  9  7  1  0
 10  9  1  0
 10 11  1  6
 11 12  1  0
 12 13  1  0
 13 17  1  0
 14 13  2  0
 15 10  1  0
 16 15  2  0
 18 15  1  0
 19 18  1  0
 20 22  1  0
 20 19  1  0
 21 20  2  0
M  END
$$$$
