MEG.pdb
     RDKit          3D

 22 21  0  0  1  0  0  0  0  0999 V2000
   26.7354  -19.3401   -7.7361 C   0  0  0  0  0  0  0  0  0  0  0  0
   26.7856  -21.1400   -8.0271 S   0  0  0  0  0  0  0  0  0  0  0  0
   26.6215  -21.4491   -9.8063 C   0  0  0  0  0  0  0  0  0  0  0  0
   25.2477  -21.0445  -10.2954 C   0  0  0  0  0  0  0  0  0  0  0  0
   25.0702  -21.3052  -11.7656 C   0  0  2  0  0  0  0  0  0  0  0  0
   26.1345  -20.6993  -12.5065 N   0  0  0  0  0  0  0  0  0  0  0  0
   23.7481  -20.8657  -12.2736 C   0  0  0  0  0  0  0  0  0  0  0  0
   23.4414  -19.6676  -12.4601 O   0  0  0  0  0  0  0  0  0  0  0  0
   22.7826  -21.8485  -12.5629 N   0  0  0  0  0  0  0  0  0  0  0  0
   21.3842  -21.5411  -12.9223 C   0  0  1  0  0  0  0  0  0  0  0  0
   21.1586  -21.8662  -14.3617 C   0  0  0  0  0  0  0  0  0  0  0  0
   19.7467  -21.6312  -14.7928 C   0  0  0  0  0  0  0  0  0  0  0  0
   19.5189  -20.1574  -15.0723 C   0  0  0  0  0  0  0  0  0  0  0  0
   20.4142  -19.5392  -15.6943 O   0  0  0  0  0  0  0  0  0  0  0  0
   20.5061  -22.1983  -11.9567 C   0  0  0  0  0  0  0  0  0  0  0  0
   20.8115  -23.3485  -11.5293 O   0  0  0  0  0  0  0  0  0  0  0  0
   18.3753  -19.5149  -14.6618 O   0  0  0  0  0  0  0  0  0  0  0  0
   19.3241  -21.6229  -11.4586 N   0  0  0  0  0  0  0  0  0  0  0  0
   18.4699  -22.3264  -10.4813 C   0  0  0  0  0  0  0  0  0  0  0  0
   17.6582  -23.3557  -11.1306 C   0  0  0  0  0  0  0  0  0  0  0  0
   17.7429  -23.5166  -12.3727 O   0  0  0  0  0  0  0  0  0  0  0  0
   16.7875  -24.1732  -10.4286 O   0  0  0  0  0  0  0  0  0  0  0  0
  2  1  1  0
  3  2  1  0
  4  3  1  0
  4  5  1  0
  5  6  1  6
  7  5  1  0
  8  7  2  0
  9  7  1  0
 10  9  1  0
 10 11  1  6
 11 12  1  0
 12 13  1  0
 13 17  1  0
 14 13  2  0
 15 10  1  0
 16 15  2  0
 18 15  1  0
 19 18  1  0
 20 22  1  0
 20 19  1  0
 21 20  2  0
M  END
$$$$
