MEG.pdb
     RDKit          3D

 22 21  0  0  1  0  0  0  0  0999 V2000
   30.5093  -20.5159   -4.2875 C   0  0  0  0  0  0  0  0  0  0  0  0
   28.7857  -20.0739   -3.8867 S   0  0  0  0  0  0  0  0  0  0  0  0
   28.0691  -19.1814   -5.2932 C   0  0  0  0  0  0  0  0  0  0  0  0
   27.7271  -20.1373   -6.4155 C   0  0  0  0  0  0  0  0  0  0  0  0
   27.3059  -19.4156   -7.6656 C   0  0  2  0  0  0  0  0  0  0  0  0
   26.2315  -18.5148   -7.3774 N   0  0  0  0  0  0  0  0  0  0  0  0
   26.9480  -20.3375   -8.7707 C   0  0  0  0  0  0  0  0  0  0  0  0
   27.6845  -21.2702   -9.1603 O   0  0  0  0  0  0  0  0  0  0  0  0
   25.7118  -20.1556   -9.4193 N   0  0  0  0  0  0  0  0  0  0  0  0
   25.3624  -20.7877  -10.7068 C   0  0  1  0  0  0  0  0  0  0  0  0
   23.8821  -20.7459  -10.8948 C   0  0  0  0  0  0  0  0  0  0  0  0
   23.4523  -21.2878  -12.2199 C   0  0  0  0  0  0  0  0  0  0  0  0
   21.9430  -21.2123  -12.3563 C   0  0  0  0  0  0  0  0  0  0  0  0
   21.3009  -20.6851  -11.4180 O   0  0  0  0  0  0  0  0  0  0  0  0
   26.1737  -20.1738  -11.7557 C   0  0  0  0  0  0  0  0  0  0  0  0
   26.4712  -18.9480  -11.6665 O   0  0  0  0  0  0  0  0  0  0  0  0
   21.2947  -21.7019  -13.4649 O   0  0  0  0  0  0  0  0  0  0  0  0
   26.6584  -20.8707  -12.8762 N   0  0  0  0  0  0  0  0  0  0  0  0
   27.5238  -20.2207  -13.8804 C   0  0  0  0  0  0  0  0  0  0  0  0
   27.8955  -21.1539  -14.9437 C   0  0  0  0  0  0  0  0  0  0  0  0
   27.4831  -22.3386  -14.8977 O   0  0  0  0  0  0  0  0  0  0  0  0
   28.6932  -20.7859  -16.0150 O   0  0  0  0  0  0  0  0  0  0  0  0
  2  1  1  0
  3  2  1  0
  4  3  1  0
  4  5  1  0
  5  6  1  1
  7  5  1  0
  8  7  2  0
  9  7  1  0
 10  9  1  0
 10 11  1  6
 11 12  1  0
 12 13  1  0
 13 17  1  0
 14 13  2  0
 15 10  1  0
 16 15  2  0
 18 15  1  0
 19 18  1  0
 20 22  1  0
 20 19  1  0
 21 20  2  0
M  END
$$$$
