MEG.pdb
     RDKit          3D

 22 21  0  0  1  0  0  0  0  0999 V2000
   29.1125  -19.1314   -5.0788 C   0  0  0  0  0  0  0  0  0  0  0  0
   28.4868  -19.8533   -6.6325 S   0  0  0  0  0  0  0  0  0  0  0  0
   26.7477  -20.3134   -6.4043 C   0  0  0  0  0  0  0  0  0  0  0  0
   26.2298  -21.0639   -7.6120 C   0  0  0  0  0  0  0  0  0  0  0  0
   26.2877  -20.2323   -8.8634 C   0  0  2  0  0  0  0  0  0  0  0  0
   25.6634  -18.9634   -8.6424 N   0  0  0  0  0  0  0  0  0  0  0  0
   25.7004  -20.9187  -10.0396 C   0  0  0  0  0  0  0  0  0  0  0  0
   25.9960  -22.0855  -10.3792 O   0  0  0  0  0  0  0  0  0  0  0  0
   24.7580  -20.2214  -10.8190 N   0  0  0  0  0  0  0  0  0  0  0  0
   24.2244  -20.7231  -12.1007 C   0  0  1  0  0  0  0  0  0  0  0  0
   22.7586  -20.4490  -12.1696 C   0  0  0  0  0  0  0  0  0  0  0  0
   21.9542  -21.3951  -11.3375 C   0  0  0  0  0  0  0  0  0  0  0  0
   20.4771  -21.0641  -11.4418 C   0  0  0  0  0  0  0  0  0  0  0  0
   19.7107  -21.9578  -11.8713 O   0  0  0  0  0  0  0  0  0  0  0  0
   25.0437  -20.1823  -13.1832 C   0  0  0  0  0  0  0  0  0  0  0  0
   25.6298  -19.0741  -13.0177 O   0  0  0  0  0  0  0  0  0  0  0  0
   19.9881  -19.8314  -11.0808 O   0  0  0  0  0  0  0  0  0  0  0  0
   25.2305  -20.8276  -14.4180 N   0  0  0  0  0  0  0  0  0  0  0  0
   26.1153  -20.2695  -15.4599 C   0  0  0  0  0  0  0  0  0  0  0  0
   27.2562  -21.1489  -15.7136 C   0  0  0  0  0  0  0  0  0  0  0  0
   28.0966  -20.8328  -16.5910 O   0  0  0  0  0  0  0  0  0  0  0  0
   27.4558  -22.3320  -15.0209 O   0  0  0  0  0  0  0  0  0  0  0  0
  2  1  1  0
  3  2  1  0
  4  3  1  0
  4  5  1  0
  5  6  1  1
  7  5  1  0
  8  7  2  0
  9  7  1  0
 10  9  1  0
 10 11  1  6
 11 12  1  0
 12 13  1  0
 13 17  1  0
 14 13  2  0
 15 10  1  0
 16 15  2  0
 18 15  1  0
 19 18  1  0
 20 22  1  0
 20 19  1  0
 21 20  2  0
M  END
$$$$
