MEG.pdb
     RDKit          3D

 22 21  0  0  1  0  0  0  0  0999 V2000
   30.3240  -20.3454  -12.1508 C   0  0  0  0  0  0  0  0  0  0  0  0
   30.0140  -21.3827  -10.6829 S   0  0  0  0  0  0  0  0  0  0  0  0
   28.2673  -21.8695  -10.6698 C   0  0  0  0  0  0  0  0  0  0  0  0
   27.4124  -20.8135  -11.3363 C   0  0  0  0  0  0  0  0  0  0  0  0
   25.9599  -21.2006  -11.3727 C   0  0  2  0  0  0  0  0  0  0  0  0
   25.8202  -22.5526  -11.8215 N   0  0  0  0  0  0  0  0  0  0  0  0
   25.1377  -20.2781  -12.1927 C   0  0  0  0  0  0  0  0  0  0  0  0
   25.0593  -19.0478  -11.9823 O   0  0  0  0  0  0  0  0  0  0  0  0
   24.4036  -20.8135  -13.2681 N   0  0  0  0  0  0  0  0  0  0  0  0
   23.5503  -20.0037  -14.1600 C   0  0  1  0  0  0  0  0  0  0  0  0
   23.8996  -20.2964  -15.5815 C   0  0  0  0  0  0  0  0  0  0  0  0
   25.3041  -19.9142  -15.9219 C   0  0  0  0  0  0  0  0  0  0  0  0
   25.5808  -20.1764  -17.3905 C   0  0  0  0  0  0  0  0  0  0  0  0
   25.7081  -19.1829  -18.1438 O   0  0  0  0  0  0  0  0  0  0  0  0
   22.1562  -20.2076  -13.7725 C   0  0  0  0  0  0  0  0  0  0  0  0
   21.8371  -21.2620  -13.1515 O   0  0  0  0  0  0  0  0  0  0  0  0
   25.6894  -21.4538  -17.8861 O   0  0  0  0  0  0  0  0  0  0  0  0
   21.1277  -19.2891  -14.0457 N   0  0  0  0  0  0  0  0  0  0  0  0
   19.7451  -19.5092  -13.5769 C   0  0  0  0  0  0  0  0  0  0  0  0
   19.0850  -20.5623  -14.3481 C   0  0  0  0  0  0  0  0  0  0  0  0
   19.7124  -21.1377  -15.2707 O   0  0  0  0  0  0  0  0  0  0  0  0
   17.7805  -20.9602  -14.1046 O   0  0  0  0  0  0  0  0  0  0  0  0
  2  1  1  0
  3  2  1  0
  4  3  1  0
  4  5  1  0
  5  6  1  6
  7  5  1  0
  8  7  2  0
  9  7  1  0
 10  9  1  0
 10 11  1  6
 11 12  1  0
 12 13  1  0
 13 17  1  0
 14 13  2  0
 15 10  1  0
 16 15  2  0
 18 15  1  0
 19 18  1  0
 20 22  1  0
 20 19  1  0
 21 20  2  0
M  END
$$$$
