MEG.pdb
     RDKit          3D

 22 21  0  0  1  0  0  0  0  0999 V2000
   27.6145  -13.3674  -14.7278 C   0  0  0  0  0  0  0  0  0  0  0  0
   27.6229  -12.5038  -16.3343 S   0  0  0  0  0  0  0  0  0  0  0  0
   26.1674  -13.0217  -17.2837 C   0  0  0  0  0  0  0  0  0  0  0  0
   25.1668  -11.8912  -17.3886 C   0  0  0  0  0  0  0  0  0  0  0  0
   24.7163  -11.4063  -16.0384 C   0  0  2  0  0  0  0  0  0  0  0  0
   24.1983  -12.4970  -15.2697 N   0  0  0  0  0  0  0  0  0  0  0  0
   23.7344  -10.2981  -16.1219 C   0  0  0  0  0  0  0  0  0  0  0  0
   23.9105   -9.2673  -16.8078 O   0  0  0  0  0  0  0  0  0  0  0  0
   22.5371  -10.4091  -15.3897 N   0  0  0  0  0  0  0  0  0  0  0  0
   21.4992   -9.3599  -15.3546 C   0  0  1  0  0  0  0  0  0  0  0  0
   20.2074   -9.9545  -14.9007 C   0  0  0  0  0  0  0  0  0  0  0  0
   19.6378  -10.9215  -15.8881 C   0  0  0  0  0  0  0  0  0  0  0  0
   18.3330  -11.4971  -15.3702 C   0  0  0  0  0  0  0  0  0  0  0  0
   17.7723  -12.3790  -16.0620 O   0  0  0  0  0  0  0  0  0  0  0  0
   22.0107   -8.2330  -14.5774 C   0  0  0  0  0  0  0  0  0  0  0  0
   22.7543   -8.4593  -13.5801 O   0  0  0  0  0  0  0  0  0  0  0  0
   17.7781  -11.0726  -14.1866 O   0  0  0  0  0  0  0  0  0  0  0  0
   21.7289   -6.8881  -14.8743 N   0  0  0  0  0  0  0  0  0  0  0  0
   22.2707   -5.7829  -14.0589 C   0  0  0  0  0  0  0  0  0  0  0  0
   21.7404   -4.4918  -14.4964 C   0  0  0  0  0  0  0  0  0  0  0  0
   22.0910   -3.4454  -13.8981 O   0  0  0  0  0  0  0  0  0  0  0  0
   20.8562   -4.3678  -15.5557 O   0  0  0  0  0  0  0  0  0  0  0  0
  2  1  1  0
  3  2  1  0
  4  3  1  0
  4  5  1  0
  5  6  1  6
  7  5  1  0
  8  7  2  0
  9  7  1  0
 10  9  1  0
 10 11  1  1
 11 12  1  0
 12 13  1  0
 13 17  1  0
 14 13  2  0
 15 10  1  0
 16 15  2  0
 18 15  1  0
 19 18  1  0
 20 22  1  0
 20 19  1  0
 21 20  2  0
M  END
$$$$
