MEG.pdb
     RDKit          3D

 22 21  0  0  1  0  0  0  0  0999 V2000
   26.1844  -12.8806  -15.0279 C   0  0  0  0  0  0  0  0  0  0  0  0
   27.9159  -12.5271  -15.4793 S   0  0  0  0  0  0  0  0  0  0  0  0
   27.9310  -11.3991  -16.8990 C   0  0  0  0  0  0  0  0  0  0  0  0
   26.8356  -10.3629  -16.7710 C   0  0  0  0  0  0  0  0  0  0  0  0
   25.6261  -10.7126  -17.5931 C   0  0  2  0  0  0  0  0  0  0  0  0
   26.0035  -10.9389  -18.9551 N   0  0  0  0  0  0  0  0  0  0  0  0
   24.5510   -9.6954  -17.4988 C   0  0  0  0  0  0  0  0  0  0  0  0
   24.3675   -8.8008  -18.3533 O   0  0  0  0  0  0  0  0  0  0  0  0
   23.6877   -9.7361  -16.3876 N   0  0  0  0  0  0  0  0  0  0  0  0
   22.4990   -8.8727  -16.2428 C   0  0  1  0  0  0  0  0  0  0  0  0
   21.3118   -9.7143  -15.9104 C   0  0  0  0  0  0  0  0  0  0  0  0
   20.8026  -10.4851  -17.0856 C   0  0  0  0  0  0  0  0  0  0  0  0
   19.5809  -11.2960  -16.6954 C   0  0  0  0  0  0  0  0  0  0  0  0
   18.5304  -11.1172  -17.3550 O   0  0  0  0  0  0  0  0  0  0  0  0
   22.8226   -7.7976  -15.3075 C   0  0  0  0  0  0  0  0  0  0  0  0
   23.3234   -8.0888  -14.1834 O   0  0  0  0  0  0  0  0  0  0  0  0
   19.6156  -12.1961  -15.6573 O   0  0  0  0  0  0  0  0  0  0  0  0
   22.6144   -6.4348  -15.5823 N   0  0  0  0  0  0  0  0  0  0  0  0
   23.0030   -5.3811  -14.6240 C   0  0  0  0  0  0  0  0  0  0  0  0
   21.8361   -4.8435  -13.9248 C   0  0  0  0  0  0  0  0  0  0  0  0
   20.6961   -5.3011  -14.1836 O   0  0  0  0  0  0  0  0  0  0  0  0
   21.9314   -3.8381  -12.9765 O   0  0  0  0  0  0  0  0  0  0  0  0
  2  1  1  0
  3  2  1  0
  4  3  1  0
  4  5  1  0
  5  6  1  6
  7  5  1  0
  8  7  2  0
  9  7  1  0
 10  9  1  0
 10 11  1  1
 11 12  1  0
 12 13  1  0
 13 17  1  0
 14 13  2  0
 15 10  1  0
 16 15  2  0
 18 15  1  0
 19 18  1  0
 20 22  1  0
 20 19  1  0
 21 20  2  0
M  END
$$$$
