MEG.pdb
     RDKit          3D

 22 21  0  0  1  0  0  0  0  0999 V2000
   21.9326  -11.8464  -24.5224 C   0  0  0  0  0  0  0  0  0  0  0  0
   21.0249  -10.5869  -23.5650 S   0  0  0  0  0  0  0  0  0  0  0  0
   21.3646  -10.8364  -21.8014 C   0  0  0  0  0  0  0  0  0  0  0  0
   20.7835   -9.7066  -20.9793 C   0  0  0  0  0  0  0  0  0  0  0  0
   21.0302   -9.8917  -19.5076 C   0  0  2  0  0  0  0  0  0  0  0  0
   20.4465  -11.1195  -19.0597 N   0  0  0  0  0  0  0  0  0  0  0  0
   20.5542   -8.7463  -18.6946 C   0  0  0  0  0  0  0  0  0  0  0  0
   19.3539   -8.5601  -18.3967 O   0  0  0  0  0  0  0  0  0  0  0  0
   21.5031   -7.8154  -18.2311 N   0  0  0  0  0  0  0  0  0  0  0  0
   21.1632   -6.6493  -17.3921 C   0  0  1  0  0  0  0  0  0  0  0  0
   21.7245   -6.8426  -16.0224 C   0  0  0  0  0  0  0  0  0  0  0  0
   21.4517   -5.6846  -15.1173 C   0  0  0  0  0  0  0  0  0  0  0  0
   22.1270   -5.8940  -13.7748 C   0  0  0  0  0  0  0  0  0  0  0  0
   22.9242   -5.0104  -13.3819 O   0  0  0  0  0  0  0  0  0  0  0  0
   21.5693   -5.4381  -18.1017 C   0  0  0  0  0  0  0  0  0  0  0  0
   22.7471   -5.3548  -18.5542 O   0  0  0  0  0  0  0  0  0  0  0  0
   21.8798   -7.0092  -13.0105 O   0  0  0  0  0  0  0  0  0  0  0  0
   20.7190   -4.3407  -18.3229 N   0  0  0  0  0  0  0  0  0  0  0  0
   21.1682   -3.1481  -19.0683 C   0  0  0  0  0  0  0  0  0  0  0  0
   21.9692   -2.2642  -18.2218 C   0  0  0  0  0  0  0  0  0  0  0  0
   22.3856   -1.1747  -18.6862 O   0  0  0  0  0  0  0  0  0  0  0  0
   22.2948   -2.5776  -16.9122 O   0  0  0  0  0  0  0  0  0  0  0  0
  2  1  1  0
  3  2  1  0
  4  3  1  0
  4  5  1  0
  5  6  1  1
  7  5  1  0
  8  7  2  0
  9  7  1  0
 10  9  1  0
 10 11  1  1
 11 12  1  0
 12 13  1  0
 13 17  1  0
 14 13  2  0
 15 10  1  0
 16 15  2  0
 18 15  1  0
 19 18  1  0
 20 22  1  0
 20 19  1  0
 21 20  2  0
M  END
$$$$
