AQV.pdb
     RDKit          3D

 22 21  0  0  1  0  0  0  0  0999 V2000
   18.2368  -14.3974  -17.4828 C   0  0  0  0  0  0  0  0  0  0  0  0
   18.0343  -12.9907  -18.0297 C   0  0  2  0  0  0  0  0  0  0  0  0
   18.1537  -12.9513  -19.4586 N   0  0  0  0  0  0  0  0  0  0  0  0
   19.1248  -12.1546  -17.4622 C   0  0  0  0  0  0  0  0  0  0  0  0
   19.2355  -12.0930  -16.2231 O   0  0  0  0  0  0  0  0  0  0  0  0
   23.8499   -9.1889  -20.6446 N   0  0  0  0  0  0  0  0  0  0  0  0
   24.0219   -8.7522  -19.3244 C   0  0  0  0  0  0  0  0  0  0  0  0
   24.9657   -7.9895  -19.0366 O   0  0  0  0  0  0  0  0  0  0  0  0
   23.0901   -9.1907  -18.2691 C   0  0  0  0  0  0  0  0  0  0  0  0
   22.0353  -10.1442  -18.8243 C   0  0  0  0  0  0  0  0  0  0  0  0
   21.0104  -10.4933  -17.7801 C   0  0  2  0  0  0  0  0  0  0  0  0
   20.0311  -11.4343  -18.2801 N   0  0  0  0  0  0  0  0  0  0  0  0
   20.3971   -9.2987  -17.1944 C   0  0  0  0  0  0  0  0  0  0  0  0
   19.5897   -8.5717  -17.8247 O   0  0  0  0  0  0  0  0  0  0  0  0
   20.6670   -8.8299  -13.0840 C   0  0  0  0  0  0  0  0  0  0  0  0
   19.5225   -8.2125  -13.8892 C   0  0  2  0  0  0  0  0  0  0  0  0
   18.4998   -9.3045  -14.0822 C   0  0  0  0  0  0  0  0  0  0  0  0
   20.1023   -7.7972  -15.2217 C   0  0  2  0  0  0  0  0  0  0  0  0
   20.7141   -8.9285  -15.8599 N   0  0  0  0  0  0  0  0  0  0  0  0
   21.0400   -6.6672  -15.0999 C   0  0  0  0  0  0  0  0  0  0  0  0
   22.2597   -6.8806  -15.3081 O   0  0  0  0  0  0  0  0  0  0  0  0
   20.6418   -5.3875  -14.7684 O   0  0  0  0  0  0  0  0  0  0  0  0
  2  4  1  0
  2  1  1  1
  2  3  1  0
  4 12  1  0
  5  4  2  0
  6  7  1  0
  7  8  2  0
  7  9  1  0
  9 10  1  0
 11 10  1  6
 12 11  1  0
 13 11  1  0
 13 19  1  0
 14 13  2  0
 16 15  1  1
 16 17  1  0
 18 19  1  1
 18 16  1  0
 20 18  1  0
 21 20  2  0
 22 20  1  0
M  END
$$$$
