AQV.pdb
     RDKit          3D

 22 21  0  0  1  0  0  0  0  0999 V2000
   17.3015  -12.9262  -18.9011 C   0  0  0  0  0  0  0  0  0  0  0  0
   17.8845  -11.6307  -19.4493 C   0  0  2  0  0  0  0  0  0  0  0  0
   19.1917  -11.8272  -20.0062 N   0  0  0  0  0  0  0  0  0  0  0  0
   18.0204  -10.7051  -18.2939 C   0  0  0  0  0  0  0  0  0  0  0  0
   16.9895  -10.3811  -17.6745 O   0  0  0  0  0  0  0  0  0  0  0  0
   22.9372   -9.9469  -14.4472 N   0  0  0  0  0  0  0  0  0  0  0  0
   22.0629   -8.9365  -14.0250 C   0  0  0  0  0  0  0  0  0  0  0  0
   22.2934   -8.3111  -12.9710 O   0  0  0  0  0  0  0  0  0  0  0  0
   20.8673   -8.6070  -14.8227 C   0  0  0  0  0  0  0  0  0  0  0  0
   20.6705   -9.6041  -15.9615 C   0  0  0  0  0  0  0  0  0  0  0  0
   19.4533   -9.2673  -16.7785 C   0  0  2  0  0  0  0  0  0  0  0  0
   19.2736  -10.1869  -17.8816 N   0  0  0  0  0  0  0  0  0  0  0  0
   19.4518   -7.8662  -17.2063 C   0  0  0  0  0  0  0  0  0  0  0  0
   20.2195   -7.4281  -18.0987 O   0  0  0  0  0  0  0  0  0  0  0  0
   17.1301   -3.5948  -17.3423 C   0  0  0  0  0  0  0  0  0  0  0  0
   17.1020   -5.1175  -17.2008 C   0  0  2  0  0  0  0  0  0  0  0  0
   16.2562   -5.4171  -15.9882 C   0  0  0  0  0  0  0  0  0  0  0  0
   18.5281   -5.5593  -16.9663 C   0  0  2  0  0  0  0  0  0  0  0  0
   18.5535   -6.9474  -16.6004 N   0  0  0  0  0  0  0  0  0  0  0  0
   19.2207   -4.7208  -15.9720 C   0  0  0  0  0  0  0  0  0  0  0  0
   19.6037   -3.5771  -16.3211 O   0  0  0  0  0  0  0  0  0  0  0  0
   19.4680   -5.1324  -14.6777 O   0  0  0  0  0  0  0  0  0  0  0  0
  2  4  1  0
  2  1  1  1
  2  3  1  0
  4 12  1  0
  5  4  2  0
  6  7  1  0
  7  8  2  0
  7  9  1  0
  9 10  1  0
 11 10  1  6
 12 11  1  0
 13 11  1  0
 13 19  1  0
 14 13  2  0
 16 15  1  1
 16 17  1  0
 18 19  1  1
 18 16  1  0
 20 18  1  0
 21 20  2  0
 22 20  1  0
M  END
$$$$
