AQV.pdb
     RDKit          3D

 22 21  0  0  1  0  0  0  0  0999 V2000
   17.9071  -14.6756  -14.4653 C   0  0  0  0  0  0  0  0  0  0  0  0
   17.6160  -14.3714  -15.9286 C   0  0  2  0  0  0  0  0  0  0  0  0
   17.9970  -15.4569  -16.7855 N   0  0  0  0  0  0  0  0  0  0  0  0
   18.4506  -13.1957  -16.2909 C   0  0  0  0  0  0  0  0  0  0  0  0
   19.6776  -13.3633  -16.4246 O   0  0  0  0  0  0  0  0  0  0  0  0
   16.0882   -8.1862  -19.0177 N   0  0  0  0  0  0  0  0  0  0  0  0
   16.4209   -9.4175  -19.5978 C   0  0  0  0  0  0  0  0  0  0  0  0
   15.9240   -9.7466  -20.6933 O   0  0  0  0  0  0  0  0  0  0  0  0
   17.3588  -10.3301  -18.9181 C   0  0  0  0  0  0  0  0  0  0  0  0
   17.8587   -9.7321  -17.6058 C   0  0  0  0  0  0  0  0  0  0  0  0
   18.6702  -10.7293  -16.8249 C   0  0  2  0  0  0  0  0  0  0  0  0
   17.8976  -11.9053  -16.4863 N   0  0  0  0  0  0  0  0  0  0  0  0
   19.3103  -10.1193  -15.6568 C   0  0  0  0  0  0  0  0  0  0  0  0
   18.7446  -10.0373  -14.5384 O   0  0  0  0  0  0  0  0  0  0  0  0
   23.3401   -9.2943  -15.9407 C   0  0  0  0  0  0  0  0  0  0  0  0
   22.7065   -9.4708  -14.5598 C   0  0  2  0  0  0  0  0  0  0  0  0
   22.7110  -10.9522  -14.2751 C   0  0  0  0  0  0  0  0  0  0  0  0
   21.2871   -8.9623  -14.6639 C   0  0  2  0  0  0  0  0  0  0  0  0
   20.6246   -9.5922  -15.7710 N   0  0  0  0  0  0  0  0  0  0  0  0
   21.2209   -7.4930  -14.7535 C   0  0  0  0  0  0  0  0  0  0  0  0
   21.6138   -6.8183  -13.7701 O   0  0  0  0  0  0  0  0  0  0  0  0
   20.7482   -6.8245  -15.8650 O   0  0  0  0  0  0  0  0  0  0  0  0
  2  4  1  0
  2  1  1  1
  2  3  1  0
  4 12  1  0
  5  4  2  0
  6  7  1  0
  7  8  2  0
  7  9  1  0
  9 10  1  0
 11 10  1  1
 12 11  1  0
 13 11  1  0
 13 19  1  0
 14 13  2  0
 16 15  1  6
 16 17  1  0
 18 19  1  6
 18 16  1  0
 20 18  1  0
 21 20  2  0
 22 20  1  0
M  END
$$$$
