AQV.pdb
     RDKit          3D

 22 21  0  0  1  0  0  0  0  0999 V2000
   28.7871  -17.6139  -17.4774 C   0  0  0  0  0  0  0  0  0  0  0  0
   28.2412  -18.9979  -17.1530 C   0  0  2  0  0  0  0  0  0  0  0  0
   27.6914  -19.6400  -18.3119 N   0  0  0  0  0  0  0  0  0  0  0  0
   27.1355  -18.7995  -16.1793 C   0  0  0  0  0  0  0  0  0  0  0  0
   26.4011  -17.8030  -16.3172 O   0  0  0  0  0  0  0  0  0  0  0  0
   22.5758  -18.4802  -16.1754 N   0  0  0  0  0  0  0  0  0  0  0  0
   22.3461  -19.3324  -15.0871 C   0  0  0  0  0  0  0  0  0  0  0  0
   21.4182  -19.0910  -14.2895 O   0  0  0  0  0  0  0  0  0  0  0  0
   23.1981  -20.5176  -14.8784 C   0  0  0  0  0  0  0  0  0  0  0  0
   24.5696  -20.3328  -15.5223 C   0  0  0  0  0  0  0  0  0  0  0  0
   25.5995  -19.9211  -14.5062 C   0  0  2  0  0  0  0  0  0  0  0  0
   26.8953  -19.7004  -15.1116 N   0  0  0  0  0  0  0  0  0  0  0  0
   25.6559  -20.8518  -13.3762 C   0  0  0  0  0  0  0  0  0  0  0  0
   25.6773  -22.0989  -13.5245 O   0  0  0  0  0  0  0  0  0  0  0  0
   26.3561  -19.3928   -9.4091 C   0  0  0  0  0  0  0  0  0  0  0  0
   26.8025  -20.7523   -9.9495 C   0  0  2  0  0  0  0  0  0  0  0  0
   28.0948  -20.5130  -10.6900 C   0  0  0  0  0  0  0  0  0  0  0  0
   25.7284  -21.2141  -10.9072 C   0  0  2  0  0  0  0  0  0  0  0  0
   25.6886  -20.3451  -12.0494 N   0  0  0  0  0  0  0  0  0  0  0  0
   24.4088  -21.3261  -10.2613 C   0  0  0  0  0  0  0  0  0  0  0  0
   24.3135  -22.0180   -9.2178 O   0  0  0  0  0  0  0  0  0  0  0  0
   23.2746  -20.7077  -10.7481 O   0  0  0  0  0  0  0  0  0  0  0  0
  2  4  1  0
  2  1  1  6
  2  3  1  0
  4 12  1  0
  5  4  2  0
  6  7  1  0
  7  8  2  0
  7  9  1  0
  9 10  1  0
 11 10  1  6
 12 11  1  0
 13 11  1  0
 13 19  1  0
 14 13  2  0
 16 15  1  6
 16 17  1  0
 18 19  1  6
 18 16  1  0
 20 18  1  0
 21 20  2  0
 22 20  1  0
M  END
$$$$
