AQV.pdb
     RDKit          3D

 22 21  0  0  1  0  0  0  0  0999 V2000
   28.9259  -18.5881  -14.4604 C   0  0  0  0  0  0  0  0  0  0  0  0
   27.8902  -19.2145  -15.3843 C   0  0  2  0  0  0  0  0  0  0  0  0
   27.5594  -18.3494  -16.4797 N   0  0  0  0  0  0  0  0  0  0  0  0
   26.6595  -19.4063  -14.5728 C   0  0  0  0  0  0  0  0  0  0  0  0
   25.8671  -18.4507  -14.4698 O   0  0  0  0  0  0  0  0  0  0  0  0
   22.3134  -20.3601  -15.1777 N   0  0  0  0  0  0  0  0  0  0  0  0
   21.8982  -20.9737  -13.9883 C   0  0  0  0  0  0  0  0  0  0  0  0
   20.7270  -20.8274  -13.5857 O   0  0  0  0  0  0  0  0  0  0  0  0
   22.8415  -21.7946  -13.2069 C   0  0  0  0  0  0  0  0  0  0  0  0
   24.2252  -21.8106  -13.8509 C   0  0  0  0  0  0  0  0  0  0  0  0
   25.1672  -20.8736  -13.1457 C   0  0  2  0  0  0  0  0  0  0  0  0
   26.3649  -20.6298  -13.9206 N   0  0  0  0  0  0  0  0  0  0  0  0
   25.4592  -21.3164  -11.7801 C   0  0  0  0  0  0  0  0  0  0  0  0
   26.1249  -22.3518  -11.5300 O   0  0  0  0  0  0  0  0  0  0  0  0
   25.4235  -18.7079   -8.6756 C   0  0  0  0  0  0  0  0  0  0  0  0
   25.9894  -20.1216   -8.5320 C   0  0  2  0  0  0  0  0  0  0  0  0
   27.3692  -20.0920   -9.1409 C   0  0  0  0  0  0  0  0  0  0  0  0
   25.0858  -21.0351   -9.3277 C   0  0  2  0  0  0  0  0  0  0  0  0
   24.9797  -20.5589  -10.6780 N   0  0  0  0  0  0  0  0  0  0  0  0
   23.7618  -21.2010   -8.7027 C   0  0  0  0  0  0  0  0  0  0  0  0
   22.7593  -20.7375   -9.3000 O   0  0  0  0  0  0  0  0  0  0  0  0
   23.5718  -21.8406   -7.4941 O   0  0  0  0  0  0  0  0  0  0  0  0
  2  4  1  0
  2  1  1  1
  2  3  1  0
  4 12  1  0
  5  4  2  0
  6  7  1  0
  7  8  2  0
  7  9  1  0
  9 10  1  0
 11 10  1  6
 12 11  1  0
 13 11  1  0
 13 19  1  0
 14 13  2  0
 16 15  1  6
 16 17  1  0
 18 19  1  6
 18 16  1  0
 20 18  1  0
 21 20  2  0
 22 20  1  0
M  END
$$$$
