AQV.pdb
     RDKit          3D

 22 21  0  0  1  0  0  0  0  0999 V2000
   18.2899  -16.2554  -18.5760 C   0  0  0  0  0  0  0  0  0  0  0  0
   19.2837  -15.3038  -17.9236 C   0  0  2  0  0  0  0  0  0  0  0  0
   19.7473  -15.8001  -16.6601 N   0  0  0  0  0  0  0  0  0  0  0  0
   18.5511  -14.0355  -17.6692 C   0  0  0  0  0  0  0  0  0  0  0  0
   18.1356  -13.3886  -18.6493 O   0  0  0  0  0  0  0  0  0  0  0  0
   14.0237  -12.3481  -13.9387 N   0  0  0  0  0  0  0  0  0  0  0  0
   14.2730  -13.5346  -14.6413 C   0  0  0  0  0  0  0  0  0  0  0  0
   13.3509  -14.3518  -14.8344 O   0  0  0  0  0  0  0  0  0  0  0  0
   15.6242  -13.8238  -15.1559 C   0  0  0  0  0  0  0  0  0  0  0  0
   16.5813  -12.6681  -14.8762 C   0  0  0  0  0  0  0  0  0  0  0  0
   17.4793  -12.4050  -16.0538 C   0  0  2  0  0  0  0  0  0  0  0  0
   18.3145  -13.5466  -16.3600 N   0  0  0  0  0  0  0  0  0  0  0  0
   18.2502  -11.1701  -15.8892 C   0  0  0  0  0  0  0  0  0  0  0  0
   19.2843  -11.1051  -15.1792 O   0  0  0  0  0  0  0  0  0  0  0  0
   17.2777   -7.8527  -18.2945 C   0  0  0  0  0  0  0  0  0  0  0  0
   18.6885   -8.0764  -17.7476 C   0  0  2  0  0  0  0  0  0  0  0  0
   19.3774   -9.0075  -18.7141 C   0  0  0  0  0  0  0  0  0  0  0  0
   18.5325   -8.7428  -16.4002 C   0  0  2  0  0  0  0  0  0  0  0  0
   17.8290   -9.9854  -16.5505 N   0  0  0  0  0  0  0  0  0  0  0  0
   17.8836   -7.8654  -15.4101 C   0  0  0  0  0  0  0  0  0  0  0  0
   16.6757   -8.0699  -15.1346 O   0  0  0  0  0  0  0  0  0  0  0  0
   18.5392   -6.8313  -14.7725 O   0  0  0  0  0  0  0  0  0  0  0  0
  2  4  1  0
  2  1  1  1
  2  3  1  0
  4 12  1  0
  5  4  2  0
  6  7  1  0
  7  8  2  0
  7  9  1  0
  9 10  1  0
 11 10  1  1
 12 11  1  0
 13 11  1  0
 13 19  1  0
 14 13  2  0
 16 15  1  6
 16 17  1  0
 18 19  1  6
 18 16  1  0
 20 18  1  0
 21 20  2  0
 22 20  1  0
M  END
$$$$
