AQV.pdb
     RDKit          3D

 22 21  0  0  1  0  0  0  0  0999 V2000
   17.9815  -13.5410  -19.5309 C   0  0  0  0  0  0  0  0  0  0  0  0
   19.3772  -13.3955  -18.9397 C   0  0  2  0  0  0  0  0  0  0  0  0
   19.8865  -14.6474  -18.4592 N   0  0  0  0  0  0  0  0  0  0  0  0
   19.2501  -12.4823  -17.7735 C   0  0  0  0  0  0  0  0  0  0  0  0
   18.5068  -12.8257  -16.8349 O   0  0  0  0  0  0  0  0  0  0  0  0
   23.5346   -9.7105  -14.5449 N   0  0  0  0  0  0  0  0  0  0  0  0
   22.3947   -9.0834  -14.0244 C   0  0  0  0  0  0  0  0  0  0  0  0
   22.4777   -8.3989  -12.9853 O   0  0  0  0  0  0  0  0  0  0  0  0
   21.0924   -9.2287  -14.7007 C   0  0  0  0  0  0  0  0  0  0  0  0
   21.1741  -10.2324  -15.8477 C   0  0  0  0  0  0  0  0  0  0  0  0
   19.8636  -10.3343  -16.5791 C   0  0  2  0  0  0  0  0  0  0  0  0
   19.9416  -11.2472  -17.6994 N   0  0  0  0  0  0  0  0  0  0  0  0
   19.3451   -9.0179  -16.9591 C   0  0  0  0  0  0  0  0  0  0  0  0
   19.8301   -8.3435  -17.9013 O   0  0  0  0  0  0  0  0  0  0  0  0
   15.7721   -5.7858  -16.9903 C   0  0  0  0  0  0  0  0  0  0  0  0
   16.2674   -7.2259  -16.8471 C   0  0  2  0  0  0  0  0  0  0  0  0
   15.5182   -7.8200  -15.6804 C   0  0  0  0  0  0  0  0  0  0  0  0
   17.7444   -7.1494  -16.5363 C   0  0  2  0  0  0  0  0  0  0  0  0
   18.2492   -8.4618  -16.2464 N   0  0  0  0  0  0  0  0  0  0  0  0
   18.0426   -6.1987  -15.4507 C   0  0  0  0  0  0  0  0  0  0  0  0
   18.1332   -6.6420  -14.2794 O   0  0  0  0  0  0  0  0  0  0  0  0
   18.2265   -4.8466  -15.6599 O   0  0  0  0  0  0  0  0  0  0  0  0
  2  4  1  0
  2  1  1  1
  2  3  1  0
  4 12  1  0
  5  4  2  0
  6  7  1  0
  7  8  2  0
  7  9  1  0
  9 10  1  0
 11 10  1  6
 12 11  1  0
 13 11  1  0
 13 19  1  0
 14 13  2  0
 16 15  1  1
 16 17  1  0
 18 19  1  1
 18 16  1  0
 20 18  1  0
 21 20  2  0
 22 20  1  0
M  END
$$$$
