AQV.pdb
     RDKit          3D

 22 21  0  0  1  0  0  0  0  0999 V2000
   27.6123  -19.1019  -16.6498 C   0  0  0  0  0  0  0  0  0  0  0  0
   28.1531  -20.2452  -15.8017 C   0  0  2  0  0  0  0  0  0  0  0  0
   28.6386  -21.3262  -16.6100 N   0  0  0  0  0  0  0  0  0  0  0  0
   27.0091  -20.7575  -15.0024 C   0  0  0  0  0  0  0  0  0  0  0  0
   26.2507  -21.5939  -15.5286 O   0  0  0  0  0  0  0  0  0  0  0  0
   26.1633  -20.3798   -8.6888 N   0  0  0  0  0  0  0  0  0  0  0  0
   24.9236  -20.8522   -9.1399 C   0  0  0  0  0  0  0  0  0  0  0  0
   24.0294  -21.1416   -8.3202 O   0  0  0  0  0  0  0  0  0  0  0  0
   24.6690  -21.0099  -10.5837 C   0  0  0  0  0  0  0  0  0  0  0  0
   25.8891  -20.6067  -11.4075 C   0  0  0  0  0  0  0  0  0  0  0  0
   25.6241  -20.7474  -12.8814 C   0  0  2  0  0  0  0  0  0  0  0  0
   26.7590  -20.3272  -13.6752 N   0  0  0  0  0  0  0  0  0  0  0  0
   24.3804  -20.0835  -13.2798 C   0  0  0  0  0  0  0  0  0  0  0  0
   24.2480  -18.8344  -13.2810 O   0  0  0  0  0  0  0  0  0  0  0  0
   21.5672  -22.0453  -15.6264 C   0  0  0  0  0  0  0  0  0  0  0  0
   21.6705  -20.5281  -15.4623 C   0  0  2  0  0  0  0  0  0  0  0  0
   22.8092  -20.0807  -16.3447 C   0  0  0  0  0  0  0  0  0  0  0  0
   22.0004  -20.2687  -14.0104 C   0  0  2  0  0  0  0  0  0  0  0  0
   23.2653  -20.8649  -13.6849 N   0  0  0  0  0  0  0  0  0  0  0  0
   20.9337  -20.7228  -13.1010 C   0  0  0  0  0  0  0  0  0  0  0  0
   21.1755  -21.6875  -12.3345 O   0  0  0  0  0  0  0  0  0  0  0  0
   19.6835  -20.1392  -13.0520 O   0  0  0  0  0  0  0  0  0  0  0  0
  2  4  1  0
  2  1  1  6
  2  3  1  0
  4 12  1  0
  5  4  2  0
  6  7  1  0
  7  8  2  0
  7  9  1  0
  9 10  1  0
 11 10  1  1
 12 11  1  0
 13 11  1  0
 13 19  1  0
 14 13  2  0
 16 15  1  1
 16 17  1  0
 18 19  1  1
 18 16  1  0
 20 18  1  0
 21 20  2  0
 22 20  1  0
M  END
$$$$
