AQV.pdb
     RDKit          3D

 22 21  0  0  1  0  0  0  0  0999 V2000
   18.3441  -12.0595  -14.5112 C   0  0  0  0  0  0  0  0  0  0  0  0
   17.1179  -11.5182  -15.2338 C   0  0  2  0  0  0  0  0  0  0  0  0
   16.8110  -12.2810  -16.4092 N   0  0  0  0  0  0  0  0  0  0  0  0
   17.4571  -10.1373  -15.6675 C   0  0  0  0  0  0  0  0  0  0  0  0
   18.2355   -9.9967  -16.6298 O   0  0  0  0  0  0  0  0  0  0  0  0
   13.3671   -7.5235  -15.4014 N   0  0  0  0  0  0  0  0  0  0  0  0
   13.9009   -7.4152  -16.6925 C   0  0  0  0  0  0  0  0  0  0  0  0
   13.1806   -7.6339  -17.6867 O   0  0  0  0  0  0  0  0  0  0  0  0
   15.3148   -7.0428  -16.8833 C   0  0  0  0  0  0  0  0  0  0  0  0
   16.0043   -6.7864  -15.5458 C   0  0  0  0  0  0  0  0  0  0  0  0
   17.2426   -7.6276  -15.3991 C   0  0  2  0  0  0  0  0  0  0  0  0
   16.9271   -8.9899  -15.0259 N   0  0  0  0  0  0  0  0  0  0  0  0
   18.2212   -7.0090  -14.5015 C   0  0  0  0  0  0  0  0  0  0  0  0
   18.1533   -7.1083  -13.2512 O   0  0  0  0  0  0  0  0  0  0  0  0
   22.7321   -5.4258  -13.8856 C   0  0  0  0  0  0  0  0  0  0  0  0
   21.6792   -6.2259  -14.6542 C   0  0  2  0  0  0  0  0  0  0  0  0
   21.9033   -5.9306  -16.1164 C   0  0  0  0  0  0  0  0  0  0  0  0
   20.3302   -5.7041  -14.2157 C   0  0  2  0  0  0  0  0  0  0  0  0
   19.2998   -6.2615  -15.0457 N   0  0  0  0  0  0  0  0  0  0  0  0
   20.2761   -4.2317  -14.1945 C   0  0  0  0  0  0  0  0  0  0  0  0
   19.7403   -3.6417  -15.1648 O   0  0  0  0  0  0  0  0  0  0  0  0
   20.7856   -3.4719  -13.1607 O   0  0  0  0  0  0  0  0  0  0  0  0
  2  4  1  0
  2  1  1  6
  2  3  1  0
  4 12  1  0
  5  4  2  0
  6  7  1  0
  7  8  2  0
  7  9  1  0
  9 10  1  0
 11 10  1  1
 12 11  1  0
 13 11  1  0
 13 19  1  0
 14 13  2  0
 16 15  1  1
 16 17  1  0
 18 19  1  6
 18 16  1  0
 20 18  1  0
 21 20  2  0
 22 20  1  0
M  END
$$$$
