AQV.pdb
     RDKit          3D

 22 21  0  0  1  0  0  0  0  0999 V2000
   18.1932  -11.7229  -18.6665 C   0  0  0  0  0  0  0  0  0  0  0  0
   17.7505  -10.8645  -17.4893 C   0  0  2  0  0  0  0  0  0  0  0  0
   16.5518  -10.1333  -17.7828 N   0  0  0  0  0  0  0  0  0  0  0  0
   18.8359   -9.8764  -17.2538 C   0  0  0  0  0  0  0  0  0  0  0  0
   19.9637  -10.3035  -16.9421 O   0  0  0  0  0  0  0  0  0  0  0  0
   19.0748   -3.8516  -19.2734 N   0  0  0  0  0  0  0  0  0  0  0  0
   20.1999   -3.9410  -18.4430 C   0  0  0  0  0  0  0  0  0  0  0  0
   20.9734   -2.9691  -18.3322 O   0  0  0  0  0  0  0  0  0  0  0  0
   20.4758   -5.1823  -17.6964 C   0  0  0  0  0  0  0  0  0  0  0  0
   19.3688   -6.2118  -17.9072 C   0  0  0  0  0  0  0  0  0  0  0  0
   19.6504   -7.4800  -17.1490 C   0  0  2  0  0  0  0  0  0  0  0  0
   18.6275   -8.4794  -17.3721 N   0  0  0  0  0  0  0  0  0  0  0  0
   19.8894   -7.2254  -15.7262 C   0  0  0  0  0  0  0  0  0  0  0  0
   18.9733   -6.8971  -14.9321 O   0  0  0  0  0  0  0  0  0  0  0  0
   23.2730   -8.7773  -14.0488 C   0  0  0  0  0  0  0  0  0  0  0  0
   22.0606   -8.3887  -13.2011 C   0  0  2  0  0  0  0  0  0  0  0  0
   21.0742   -9.5235  -13.3231 C   0  0  0  0  0  0  0  0  0  0  0  0
   21.4882   -7.1300  -13.8112 C   0  0  2  0  0  0  0  0  0  0  0  0
   21.2038   -7.3490  -15.2014 N   0  0  0  0  0  0  0  0  0  0  0  0
   22.3616   -5.9602  -13.6113 C   0  0  0  0  0  0  0  0  0  0  0  0
   22.9353   -5.4674  -14.6136 O   0  0  0  0  0  0  0  0  0  0  0  0
   22.5786   -5.3816  -12.3768 O   0  0  0  0  0  0  0  0  0  0  0  0
  2  4  1  0
  2  1  1  6
  2  3  1  0
  4 12  1  0
  5  4  2  0
  6  7  1  0
  7  8  2  0
  7  9  1  0
  9 10  1  0
 11 10  1  6
 12 11  1  0
 13 11  1  0
 13 19  1  0
 14 13  2  0
 16 15  1  6
 16 17  1  0
 18 19  1  6
 18 16  1  0
 20 18  1  0
 21 20  2  0
 22 20  1  0
M  END
$$$$
