AQV.pdb
     RDKit          3D

 22 21  0  0  1  0  0  0  0  0999 V2000
   16.6738   -8.6006  -19.3027 C   0  0  0  0  0  0  0  0  0  0  0  0
   18.0651   -9.1527  -19.5828 C   0  0  2  0  0  0  0  0  0  0  0  0
   18.0299  -10.5500  -19.9051 N   0  0  0  0  0  0  0  0  0  0  0  0
   18.8428   -8.9989  -18.3252 C   0  0  0  0  0  0  0  0  0  0  0  0
   18.2174   -8.9369  -17.2498 O   0  0  0  0  0  0  0  0  0  0  0  0
   24.1996  -11.6829  -16.8758 N   0  0  0  0  0  0  0  0  0  0  0  0
   24.0369  -10.8095  -15.7922 C   0  0  0  0  0  0  0  0  0  0  0  0
   24.7661  -10.9192  -14.7865 O   0  0  0  0  0  0  0  0  0  0  0  0
   23.0047   -9.7574  -15.8341 C   0  0  0  0  0  0  0  0  0  0  0  0
   22.1767   -9.8460  -17.1133 C   0  0  0  0  0  0  0  0  0  0  0  0
   21.0614   -8.8366  -17.1134 C   0  0  2  0  0  0  0  0  0  0  0  0
   20.2581   -8.9216  -18.3143 N   0  0  0  0  0  0  0  0  0  0  0  0
   21.5511   -7.4799  -16.8572 C   0  0  0  0  0  0  0  0  0  0  0  0
   22.2728   -6.8534  -17.6723 O   0  0  0  0  0  0  0  0  0  0  0  0
   20.9649   -3.1407  -15.1953 C   0  0  0  0  0  0  0  0  0  0  0  0
   20.5101   -4.5184  -15.6797 C   0  0  2  0  0  0  0  0  0  0  0  0
   19.2777   -4.8650  -14.8818 C   0  0  0  0  0  0  0  0  0  0  0  0
   21.6287   -5.4832  -15.3605 C   0  0  2  0  0  0  0  0  0  0  0  0
   21.2079   -6.8265  -15.6432 N   0  0  0  0  0  0  0  0  0  0  0  0
   22.1141   -5.3440  -13.9763 C   0  0  0  0  0  0  0  0  0  0  0  0
   21.6810   -6.1435  -13.1103 O   0  0  0  0  0  0  0  0  0  0  0  0
   23.0207   -4.3783  -13.5872 O   0  0  0  0  0  0  0  0  0  0  0  0
  2  4  1  0
  2  1  1  1
  2  3  1  0
  4 12  1  0
  5  4  2  0
  6  7  1  0
  7  8  2  0
  7  9  1  0
  9 10  1  0
 11 10  1  6
 12 11  1  0
 13 11  1  0
 13 19  1  0
 14 13  2  0
 16 15  1  1
 16 17  1  0
 18 19  1  1
 18 16  1  0
 20 18  1  0
 21 20  2  0
 22 20  1  0
M  END
$$$$
