AQV.pdb
     RDKit          3D

 22 21  0  0  1  0  0  0  0  0999 V2000
   12.4632  -11.5278  -12.9494 C   0  0  0  0  0  0  0  0  0  0  0  0
   13.8841  -11.9385  -13.3117 C   0  0  2  0  0  0  0  0  0  0  0  0
   14.2012  -13.2499  -12.8247 N   0  0  0  0  0  0  0  0  0  0  0  0
   14.7897  -10.9739  -12.6339 C   0  0  0  0  0  0  0  0  0  0  0  0
   15.1107  -11.1985  -11.4515 O   0  0  0  0  0  0  0  0  0  0  0  0
   19.8629   -8.8496  -13.6380 N   0  0  0  0  0  0  0  0  0  0  0  0
   19.4847   -7.6747  -12.9747 C   0  0  0  0  0  0  0  0  0  0  0  0
   20.3447   -6.9756  -12.4029 O   0  0  0  0  0  0  0  0  0  0  0  0
   18.0704   -7.2583  -12.9486 C   0  0  0  0  0  0  0  0  0  0  0  0
   17.1758   -8.2972  -13.6195 C   0  0  0  0  0  0  0  0  0  0  0  0
   16.1519   -8.8384  -12.6596 C   0  0  2  0  0  0  0  0  0  0  0  0
   15.2924   -9.8200  -13.2858 N   0  0  0  0  0  0  0  0  0  0  0  0
   15.3994   -7.7678  -12.0010 C   0  0  0  0  0  0  0  0  0  0  0  0
   14.5004   -7.1123  -12.5840 O   0  0  0  0  0  0  0  0  0  0  0  0
   15.7018   -7.3048   -7.8125 C   0  0  0  0  0  0  0  0  0  0  0  0
   14.4714   -6.9092   -8.6303 C   0  0  2  0  0  0  0  0  0  0  0  0
   13.6688   -8.1708   -8.8299 C   0  0  0  0  0  0  0  0  0  0  0  0
   14.9780   -6.3957   -9.9584 C   0  0  2  0  0  0  0  0  0  0  0  0
   15.6814   -7.4405  -10.6476 N   0  0  0  0  0  0  0  0  0  0  0  0
   15.8049   -5.1846   -9.8151 C   0  0  0  0  0  0  0  0  0  0  0  0
   17.0314   -5.2674  -10.0710 O   0  0  0  0  0  0  0  0  0  0  0  0
   15.2961   -3.9656   -9.4137 O   0  0  0  0  0  0  0  0  0  0  0  0
  2  4  1  0
  2  1  1  1
  2  3  1  0
  4 12  1  0
  5  4  2  0
  6  7  1  0
  7  8  2  0
  7  9  1  0
  9 10  1  0
 11 10  1  6
 12 11  1  0
 13 11  1  0
 13 19  1  0
 14 13  2  0
 16 15  1  1
 16 17  1  0
 18 19  1  1
 18 16  1  0
 20 18  1  0
 21 20  2  0
 22 20  1  0
M  END
$$$$
