AQV.pdb
     RDKit          3D

 22 21  0  0  1  0  0  0  0  0999 V2000
   17.2847  -13.6756  -18.7570 C   0  0  0  0  0  0  0  0  0  0  0  0
   17.3130  -13.2677  -17.2902 C   0  0  2  0  0  0  0  0  0  0  0  0
   15.9940  -13.0422  -16.7734 N   0  0  0  0  0  0  0  0  0  0  0  0
   18.0506  -11.9787  -17.2232 C   0  0  0  0  0  0  0  0  0  0  0  0
   19.2325  -11.9554  -17.6160 O   0  0  0  0  0  0  0  0  0  0  0  0
   15.4404   -6.2009  -17.0625 N   0  0  0  0  0  0  0  0  0  0  0  0
   16.8129   -5.9201  -17.0307 C   0  0  0  0  0  0  0  0  0  0  0  0
   17.2106   -4.7395  -17.0874 O   0  0  0  0  0  0  0  0  0  0  0  0
   17.7937   -7.0166  -16.9302 C   0  0  0  0  0  0  0  0  0  0  0  0
   17.1002   -8.3753  -16.8758 C   0  0  0  0  0  0  0  0  0  0  0  0
   18.0977   -9.4928  -16.7386 C   0  0  2  0  0  0  0  0  0  0  0  0
   17.4557  -10.7899  -16.7315 N   0  0  0  0  0  0  0  0  0  0  0  0
   18.9851   -9.2963  -15.5897 C   0  0  0  0  0  0  0  0  0  0  0  0
   18.5871   -9.3844  -14.4016 O   0  0  0  0  0  0  0  0  0  0  0  0
   23.0523   -9.3041  -16.2966 C   0  0  0  0  0  0  0  0  0  0  0  0
   22.5001   -9.6417  -14.9108 C   0  0  2  0  0  0  0  0  0  0  0  0
   22.1250  -11.1024  -14.9459 C   0  0  0  0  0  0  0  0  0  0  0  0
   21.2675   -8.7896  -14.7139 C   0  0  2  0  0  0  0  0  0  0  0  0
   20.3563   -8.9928  -15.8047 N   0  0  0  0  0  0  0  0  0  0  0  0
   21.5920   -7.3637  -14.5332 C   0  0  0  0  0  0  0  0  0  0  0  0
   22.1937   -7.0181  -13.4867 O   0  0  0  0  0  0  0  0  0  0  0  0
   21.2665   -6.3918  -15.4580 O   0  0  0  0  0  0  0  0  0  0  0  0
  2  4  1  0
  2  1  1  6
  2  3  1  0
  4 12  1  0
  5  4  2  0
  6  7  1  0
  7  8  2  0
  7  9  1  0
  9 10  1  0
 11 10  1  1
 12 11  1  0
 13 11  1  0
 13 19  1  0
 14 13  2  0
 16 15  1  6
 16 17  1  0
 18 19  1  6
 18 16  1  0
 20 18  1  0
 21 20  2  0
 22 20  1  0
M  END
$$$$
