AQV.pdb
     RDKit          3D

 22 21  0  0  1  0  0  0  0  0999 V2000
   19.2864  -11.2067  -15.3963 C   0  0  0  0  0  0  0  0  0  0  0  0
   17.9407  -10.9149  -14.7461 C   0  0  2  0  0  0  0  0  0  0  0  0
   16.8567  -11.0609  -15.6740 N   0  0  0  0  0  0  0  0  0  0  0  0
   17.9780   -9.4925  -14.3156 C   0  0  0  0  0  0  0  0  0  0  0  0
   17.9719   -8.6106  -15.1952 O   0  0  0  0  0  0  0  0  0  0  0  0
   16.1399   -7.1755   -8.7412 N   0  0  0  0  0  0  0  0  0  0  0  0
   15.3299   -7.1824   -9.8846 C   0  0  0  0  0  0  0  0  0  0  0  0
   14.1001   -7.0038   -9.7802 O   0  0  0  0  0  0  0  0  0  0  0  0
   15.9254   -7.4003  -11.2159 C   0  0  0  0  0  0  0  0  0  0  0  0
   17.4352   -7.6031  -11.1197 C   0  0  0  0  0  0  0  0  0  0  0  0
   18.0554   -7.7457  -12.4826 C   0  0  2  0  0  0  0  0  0  0  0  0
   18.0198   -9.1150  -12.9499 N   0  0  0  0  0  0  0  0  0  0  0  0
   19.4000   -7.1665  -12.5354 C   0  0  0  0  0  0  0  0  0  0  0  0
   20.3993   -7.7221  -12.0155 O   0  0  0  0  0  0  0  0  0  0  0  0
   22.6588   -5.0180  -15.1193 C   0  0  0  0  0  0  0  0  0  0  0  0
   21.3329   -5.7381  -14.8688 C   0  0  2  0  0  0  0  0  0  0  0  0
   20.3417   -5.1582  -15.8471 C   0  0  0  0  0  0  0  0  0  0  0  0
   20.9213   -5.4119  -13.4517 C   0  0  2  0  0  0  0  0  0  0  0  0
   19.6052   -5.9260  -13.1967 N   0  0  0  0  0  0  0  0  0  0  0  0
   21.0100   -3.9708  -13.1574 C   0  0  0  0  0  0  0  0  0  0  0  0
   19.9540   -3.2919  -13.1830 O   0  0  0  0  0  0  0  0  0  0  0  0
   22.1966   -3.3330  -12.8555 O   0  0  0  0  0  0  0  0  0  0  0  0
  2  4  1  0
  2  1  1  6
  2  3  1  0
  4 12  1  0
  5  4  2  0
  6  7  1  0
  7  8  2  0
  7  9  1  0
  9 10  1  0
 11 10  1  1
 12 11  1  0
 13 11  1  0
 13 19  1  0
 14 13  2  0
 16 15  1  6
 16 17  1  0
 18 19  1  6
 18 16  1  0
 20 18  1  0
 21 20  2  0
 22 20  1  0
M  END
$$$$
