GNT.pdb
     RDKit          3D

 20 19  0  0  1  0  0  0  0  0999 V2000
    6.7301  -19.2365   20.4687 N   0  0  0  0  0  0  0  0  0  0  0  0
    6.2442  -17.9699   20.9797 C   0  0  0  0  0  0  0  0  0  0  0  0
    7.3626  -16.9889   21.1208 C   0  0  0  0  0  0  0  0  0  0  0  0
    8.5615  -17.3165   20.9898 O   0  0  0  0  0  0  0  0  0  0  0  0
    6.6670  -12.5936   18.8528 N   0  0  0  0  0  0  0  0  0  0  0  0
    7.6791  -13.3718   19.4980 C   0  0  0  0  0  0  0  0  0  0  0  0
    8.4203  -14.0352   18.7496 O   0  0  0  0  0  0  0  0  0  0  0  0
    7.7825  -13.3442   20.9607 C   0  0  0  0  0  0  0  0  0  0  0  0
    8.1405  -14.6348   21.6180 C   0  0  2  0  0  0  0  0  0  0  0  0
    7.0727  -15.6329   21.4139 N   0  0  0  0  0  0  0  0  0  0  0  0
    8.3772  -14.5019   23.0949 C   0  0  0  0  0  0  0  0  0  0  0  0
    8.7626  -13.4590   23.6633 O   0  0  0  0  0  0  0  0  0  0  0  0
    7.2677  -13.2087   25.3137 C   0  0  0  0  0  0  0  0  0  0  0  0
    7.1427  -14.6113   25.8387 C   0  0  1  0  0  0  0  0  0  0  0  0
    5.8973  -15.1731   25.5712 O   0  0  0  0  0  0  0  0  0  0  0  0
    8.2869  -15.5059   25.3866 C   0  0  2  0  0  0  0  0  0  0  0  0
    8.1508  -15.6501   23.9493 N   0  0  0  0  0  0  0  0  0  0  0  0
    8.0489  -16.8310   26.0125 C   0  0  0  0  0  0  0  0  0  0  0  0
    8.2353  -17.0530   27.3726 O   0  0  0  0  0  0  0  0  0  0  0  0
    7.6673  -17.7788   25.2871 O   0  0  0  0  0  0  0  0  0  0  0  0
  1  2  1  0
  2  3  1  0
  3  4  2  0
  5  6  1  0
  6  8  1  0
  7  6  2  0
  9  8  1  1
 10  9  1  0
 10  3  1  0
 11 12  2  0
 11  9  1  0
 14 13  1  6
 14 16  1  0
 15 14  1  0
 16 17  1  6
 16 18  1  0
 17 11  1  0
 18 19  1  0
 20 18  2  0
M  END
$$$$
