GNT.pdb
     RDKit          3D

 20 19  0  0  1  0  0  0  0  0999 V2000
    7.3527  -12.8021   18.4472 N   0  0  0  0  0  0  0  0  0  0  0  0
    8.7855  -12.6060   18.3472 C   0  0  0  0  0  0  0  0  0  0  0  0
    9.5218  -13.8326   18.7788 C   0  0  0  0  0  0  0  0  0  0  0  0
    8.9346  -14.8576   19.1865 O   0  0  0  0  0  0  0  0  0  0  0  0
   11.8425  -16.7467   16.4768 N   0  0  0  0  0  0  0  0  0  0  0  0
   12.6237  -15.5739   16.7227 C   0  0  0  0  0  0  0  0  0  0  0  0
   13.0290  -14.9646   15.7157 O   0  0  0  0  0  0  0  0  0  0  0  0
   12.8942  -15.1686   18.1060 C   0  0  0  0  0  0  0  0  0  0  0  0
   11.7090  -15.0807   19.0081 C   0  0  2  0  0  0  0  0  0  0  0  0
   10.9382  -13.8530   18.7313 N   0  0  0  0  0  0  0  0  0  0  0  0
   12.0719  -15.0838   20.4652 C   0  0  0  0  0  0  0  0  0  0  0  0
   12.9141  -14.3265   20.9909 O   0  0  0  0  0  0  0  0  0  0  0  0
   10.6728  -16.7405   24.9492 C   0  0  0  0  0  0  0  0  0  0  0  0
   10.5509  -16.7373   23.4514 C   0  0  1  0  0  0  0  0  0  0  0  0
    9.2893  -16.3383   23.0187 O   0  0  0  0  0  0  0  0  0  0  0  0
   11.6656  -15.9506   22.7786 C   0  0  2  0  0  0  0  0  0  0  0  0
   11.4141  -16.0228   21.3514 N   0  0  0  0  0  0  0  0  0  0  0  0
   12.9234  -16.6845   23.0678 C   0  0  0  0  0  0  0  0  0  0  0  0
   13.7944  -16.2935   24.0789 O   0  0  0  0  0  0  0  0  0  0  0  0
   13.2059  -17.6897   22.3751 O   0  0  0  0  0  0  0  0  0  0  0  0
  1  2  1  0
  2  3  1  0
  3  4  2  0
  5  6  1  0
  6  8  1  0
  7  6  2  0
  9  8  1  6
 10  9  1  0
 10  3  1  0
 11 12  2  0
 11  9  1  0
 14 13  1  1
 14 16  1  0
 15 14  1  0
 16 17  1  6
 16 18  1  0
 17 11  1  0
 18 19  1  0
 20 18  2  0
M  END
$$$$
