GNT.pdb
     RDKit          3D

 20 19  0  0  1  0  0  0  0  0999 V2000
    7.7280  -15.6270   18.5277 N   0  0  0  0  0  0  0  0  0  0  0  0
    8.6063  -15.4384   19.6655 C   0  0  0  0  0  0  0  0  0  0  0  0
    7.8687  -15.6500   20.9477 C   0  0  0  0  0  0  0  0  0  0  0  0
    6.6254  -15.5526   21.0292 O   0  0  0  0  0  0  0  0  0  0  0  0
    6.1644  -18.0749   25.4021 N   0  0  0  0  0  0  0  0  0  0  0  0
    7.5551  -17.7556   25.3013 C   0  0  0  0  0  0  0  0  0  0  0  0
    8.1893  -17.7259   26.3720 O   0  0  0  0  0  0  0  0  0  0  0  0
    8.1366  -17.4894   23.9815 C   0  0  0  0  0  0  0  0  0  0  0  0
    7.9181  -16.1196   23.4319 C   0  0  2  0  0  0  0  0  0  0  0  0
    8.5882  -15.9736   22.1251 N   0  0  0  0  0  0  0  0  0  0  0  0
    8.4200  -15.0313   24.3365 C   0  0  0  0  0  0  0  0  0  0  0  0
    9.5919  -14.6005   24.3502 O   0  0  0  0  0  0  0  0  0  0  0  0
    6.3389  -11.5455   25.3332 C   0  0  0  0  0  0  0  0  0  0  0  0
    6.7217  -12.4915   26.4363 C   0  0  1  0  0  0  0  0  0  0  0  0
    5.6578  -13.2880   26.8506 O   0  0  0  0  0  0  0  0  0  0  0  0
    7.9569  -13.3119   26.0966 C   0  0  2  0  0  0  0  0  0  0  0  0
    7.5013  -14.4165   25.2734 N   0  0  0  0  0  0  0  0  0  0  0  0
    8.4545  -13.8632   27.3822 C   0  0  0  0  0  0  0  0  0  0  0  0
    8.4659  -15.2279   27.6490 O   0  0  0  0  0  0  0  0  0  0  0  0
    8.8776  -13.0684   28.2537 O   0  0  0  0  0  0  0  0  0  0  0  0
  1  2  1  0
  2  3  1  0
  3  4  2  0
  5  6  1  0
  6  8  1  0
  7  6  2  0
  9  8  1  1
 10  9  1  0
 10  3  1  0
 11 12  2  0
 11  9  1  0
 14 13  1  6
 14 16  1  0
 15 14  1  0
 16 17  1  6
 16 18  1  0
 17 11  1  0
 18 19  1  0
 20 18  2  0
M  END
$$$$
