GNT.pdb
     RDKit          3D

 20 19  0  0  1  0  0  0  0  0999 V2000
    8.4338  -12.7374   16.7516 N   0  0  0  0  0  0  0  0  0  0  0  0
    7.6509  -13.4163   17.7653 C   0  0  0  0  0  0  0  0  0  0  0  0
    8.4592  -13.6372   19.0025 C   0  0  0  0  0  0  0  0  0  0  0  0
    9.6674  -13.3267   19.0776 O   0  0  0  0  0  0  0  0  0  0  0  0
    9.6799  -14.8069   23.9804 N   0  0  0  0  0  0  0  0  0  0  0  0
    8.2660  -14.9639   23.8309 C   0  0  0  0  0  0  0  0  0  0  0  0
    7.6350  -15.2552   24.8636 O   0  0  0  0  0  0  0  0  0  0  0  0
    7.6590  -14.7780   22.5088 C   0  0  0  0  0  0  0  0  0  0  0  0
    8.5946  -14.4300   21.3999 C   0  0  2  0  0  0  0  0  0  0  0  0
    7.8509  -14.2192   20.1427 N   0  0  0  0  0  0  0  0  0  0  0  0
    9.6377  -15.4815   21.1529 C   0  0  0  0  0  0  0  0  0  0  0  0
    9.3947  -16.6761   20.8828 O   0  0  0  0  0  0  0  0  0  0  0  0
   12.4906  -15.1487   18.6791 C   0  0  0  0  0  0  0  0  0  0  0  0
   13.0661  -15.4628   20.0313 C   0  0  1  0  0  0  0  0  0  0  0  0
   13.6833  -14.3618   20.6184 O   0  0  0  0  0  0  0  0  0  0  0  0
   12.0518  -16.1161   20.9578 C   0  0  2  0  0  0  0  0  0  0  0  0
   11.0375  -15.1140   21.2265 N   0  0  0  0  0  0  0  0  0  0  0  0
   12.7716  -16.4018   22.2246 C   0  0  0  0  0  0  0  0  0  0  0  0
   13.7169  -17.4164   22.3277 O   0  0  0  0  0  0  0  0  0  0  0  0
   12.5156  -15.7027   23.2325 O   0  0  0  0  0  0  0  0  0  0  0  0
  1  2  1  0
  2  3  1  0
  3  4  2  0
  5  6  1  0
  6  8  1  0
  7  6  2  0
  9  8  1  1
 10  9  1  0
 10  3  1  0
 11 12  2  0
 11  9  1  0
 14 13  1  6
 14 16  1  0
 15 14  1  0
 16 17  1  1
 16 18  1  0
 17 11  1  0
 18 19  1  0
 20 18  2  0
M  END
$$$$
