GNT.pdb
     RDKit          3D

 20 19  0  0  1  0  0  0  0  0999 V2000
    8.9810  -18.8881   16.5789 N   0  0  0  0  0  0  0  0  0  0  0  0
    9.4357  -17.5117   16.5784 C   0  0  0  0  0  0  0  0  0  0  0  0
   10.4710  -17.2930   17.6335 C   0  0  0  0  0  0  0  0  0  0  0  0
   10.7351  -18.1527   18.5012 O   0  0  0  0  0  0  0  0  0  0  0  0
   15.2707  -13.6227   18.8795 N   0  0  0  0  0  0  0  0  0  0  0  0
   14.4800  -14.8039   19.0400 C   0  0  0  0  0  0  0  0  0  0  0  0
   14.8192  -15.5691   19.9614 O   0  0  0  0  0  0  0  0  0  0  0  0
   13.3488  -15.0387   18.1366 C   0  0  0  0  0  0  0  0  0  0  0  0
   12.1941  -15.7886   18.7115 C   0  0  2  0  0  0  0  0  0  0  0  0
   11.1902  -16.0721   17.6676 N   0  0  0  0  0  0  0  0  0  0  0  0
   11.5093  -15.0560   19.8291 C   0  0  0  0  0  0  0  0  0  0  0  0
   12.0776  -14.6352   20.8583 O   0  0  0  0  0  0  0  0  0  0  0  0
    8.5981  -12.1620   19.5852 C   0  0  0  0  0  0  0  0  0  0  0  0
    8.2045  -13.4440   20.2633 C   0  0  1  0  0  0  0  0  0  0  0  0
    7.4287  -14.2635   19.4482 O   0  0  0  0  0  0  0  0  0  0  0  0
    9.3980  -14.1812   20.8517 C   0  0  2  0  0  0  0  0  0  0  0  0
   10.0854  -14.8040   19.7359 N   0  0  0  0  0  0  0  0  0  0  0  0
    8.8390  -15.2542   21.7122 C   0  0  0  0  0  0  0  0  0  0  0  0
    9.0278  -16.6032   21.4322 O   0  0  0  0  0  0  0  0  0  0  0  0
    8.1752  -14.9290   22.7240 O   0  0  0  0  0  0  0  0  0  0  0  0
  1  2  1  0
  2  3  1  0
  3  4  2  0
  5  6  1  0
  6  8  1  0
  7  6  2  0
  9  8  1  6
 10  9  1  0
 10  3  1  0
 11 12  2  0
 11  9  1  0
 14 13  1  6
 14 16  1  0
 15 14  1  0
 16 17  1  6
 16 18  1  0
 17 11  1  0
 18 19  1  0
 20 18  2  0
M  END
$$$$
