GNT.pdb
     RDKit          3D

 20 19  0  0  1  0  0  0  0  0999 V2000
    7.5877  -19.0579   18.2386 N   0  0  0  0  0  0  0  0  0  0  0  0
    6.8971  -18.2905   19.2563 C   0  0  0  0  0  0  0  0  0  0  0  0
    7.8090  -17.2777   19.8693 C   0  0  0  0  0  0  0  0  0  0  0  0
    9.0138  -17.5150   20.1019 O   0  0  0  0  0  0  0  0  0  0  0  0
    6.5094  -12.3888   18.8494 N   0  0  0  0  0  0  0  0  0  0  0  0
    7.6311  -13.1123   19.3637 C   0  0  0  0  0  0  0  0  0  0  0  0
    8.5943  -13.2534   18.5880 O   0  0  0  0  0  0  0  0  0  0  0  0
    7.5833  -13.6310   20.7348 C   0  0  0  0  0  0  0  0  0  0  0  0
    8.1247  -15.0067   20.9355 C   0  0  2  0  0  0  0  0  0  0  0  0
    7.3074  -15.9957   20.2062 N   0  0  0  0  0  0  0  0  0  0  0  0
    8.1758  -15.4186   22.3786 C   0  0  0  0  0  0  0  0  0  0  0  0
    7.1749  -15.6312   23.0944 O   0  0  0  0  0  0  0  0  0  0  0  0
    7.6609  -17.7359   24.0798 C   0  0  0  0  0  0  0  0  0  0  0  0
    9.1306  -17.5458   24.3296 C   0  0  1  0  0  0  0  0  0  0  0  0
    9.9216  -18.2748   23.4459 O   0  0  0  0  0  0  0  0  0  0  0  0
    9.5270  -16.0781   24.3805 C   0  0  2  0  0  0  0  0  0  0  0  0
    9.4660  -15.5898   23.0156 N   0  0  0  0  0  0  0  0  0  0  0  0
   10.9437  -16.0467   24.8238 C   0  0  0  0  0  0  0  0  0  0  0  0
   11.3225  -16.3771   26.1203 O   0  0  0  0  0  0  0  0  0  0  0  0
   11.8246  -15.7106   23.9985 O   0  0  0  0  0  0  0  0  0  0  0  0
  1  2  1  0
  2  3  1  0
  3  4  2  0
  5  6  1  0
  6  8  1  0
  7  6  2  0
  9  8  1  1
 10  9  1  0
 10  3  1  0
 11 12  2  0
 11  9  1  0
 14 13  1  6
 14 16  1  0
 15 14  1  0
 16 17  1  6
 16 18  1  0
 17 11  1  0
 18 19  1  0
 20 18  2  0
M  END
$$$$
