GNT.pdb
     RDKit          3D

 20 19  0  0  1  0  0  0  0  0999 V2000
    7.6767  -13.6618   14.2113 N   0  0  0  0  0  0  0  0  0  0  0  0
    8.8823  -14.1725   14.8336 C   0  0  0  0  0  0  0  0  0  0  0  0
    8.5500  -15.0471   15.9988 C   0  0  0  0  0  0  0  0  0  0  0  0
    7.4392  -15.0084   16.5701 O   0  0  0  0  0  0  0  0  0  0  0  0
    8.8458  -20.0722   18.5776 N   0  0  0  0  0  0  0  0  0  0  0  0
    9.7906  -19.0073   18.7173 C   0  0  0  0  0  0  0  0  0  0  0  0
   10.3894  -18.9457   19.8069 O   0  0  0  0  0  0  0  0  0  0  0  0
    9.9936  -18.0768   17.6019 C   0  0  0  0  0  0  0  0  0  0  0  0
    9.2814  -16.7694   17.6996 C   0  0  2  0  0  0  0  0  0  0  0  0
    9.5173  -15.9601   16.4883 N   0  0  0  0  0  0  0  0  0  0  0  0
    9.6973  -15.9558   18.8912 C   0  0  0  0  0  0  0  0  0  0  0  0
   10.7817  -15.3454   18.9933 O   0  0  0  0  0  0  0  0  0  0  0  0
    7.9190  -12.9534   20.5768 C   0  0  0  0  0  0  0  0  0  0  0  0
    7.9891  -14.1531   21.4792 C   0  0  1  0  0  0  0  0  0  0  0  0
    6.7922  -14.8628   21.5188 O   0  0  0  0  0  0  0  0  0  0  0  0
    9.1789  -15.0478   21.1661 C   0  0  2  0  0  0  0  0  0  0  0  0
    8.7960  -15.8527   20.0212 N   0  0  0  0  0  0  0  0  0  0  0  0
    9.3393  -15.9481   22.3358 C   0  0  0  0  0  0  0  0  0  0  0  0
    9.8008  -15.4911   23.5655 O   0  0  0  0  0  0  0  0  0  0  0  0
    9.0481  -17.1599   22.2063 O   0  0  0  0  0  0  0  0  0  0  0  0
  1  2  1  0
  2  3  1  0
  3  4  2  0
  5  6  1  0
  6  8  1  0
  7  6  2  0
  9  8  1  6
 10  9  1  0
 10  3  1  0
 11 12  2  0
 11  9  1  0
 14 13  1  6
 14 16  1  0
 15 14  1  0
 16 17  1  6
 16 18  1  0
 17 11  1  0
 18 19  1  0
 20 18  2  0
M  END
$$$$
