GNT.pdb
     RDKit          3D

 20 19  0  0  1  0  0  0  0  0999 V2000
    6.6290  -19.1309   19.5738 N   0  0  0  0  0  0  0  0  0  0  0  0
    6.0180  -18.0220   20.2797 C   0  0  0  0  0  0  0  0  0  0  0  0
    7.0566  -17.1753   20.9412 C   0  0  0  0  0  0  0  0  0  0  0  0
    8.0908  -17.6589   21.4495 O   0  0  0  0  0  0  0  0  0  0  0  0
    7.2080  -12.2914   19.1164 N   0  0  0  0  0  0  0  0  0  0  0  0
    8.0313  -13.1778   19.8797 C   0  0  0  0  0  0  0  0  0  0  0  0
    9.0254  -13.6438   19.2929 O   0  0  0  0  0  0  0  0  0  0  0  0
    7.6679  -13.4778   21.2686 C   0  0  0  0  0  0  0  0  0  0  0  0
    7.8420  -14.8951   21.7013 C   0  0  2  0  0  0  0  0  0  0  0  0
    6.8797  -15.7705   21.0044 N   0  0  0  0  0  0  0  0  0  0  0  0
    7.6624  -15.0895   23.1794 C   0  0  0  0  0  0  0  0  0  0  0  0
    6.6558  -14.7343   23.8273 O   0  0  0  0  0  0  0  0  0  0  0  0
    6.1815  -16.8875   25.0567 C   0  0  0  0  0  0  0  0  0  0  0  0
    7.6004  -17.2141   25.4289 C   0  0  1  0  0  0  0  0  0  0  0  0
    8.1021  -18.3019   24.7199 O   0  0  0  0  0  0  0  0  0  0  0  0
    8.5166  -16.0024   25.3486 C   0  0  2  0  0  0  0  0  0  0  0  0
    8.7167  -15.7332   23.9369 N   0  0  0  0  0  0  0  0  0  0  0  0
    9.8151  -16.4255   25.9309 C   0  0  0  0  0  0  0  0  0  0  0  0
    9.9775  -16.6549   27.2928 O   0  0  0  0  0  0  0  0  0  0  0  0
   10.7954  -16.5800   25.1658 O   0  0  0  0  0  0  0  0  0  0  0  0
  1  2  1  0
  2  3  1  0
  3  4  2  0
  5  6  1  0
  6  8  1  0
  7  6  2  0
  9  8  1  1
 10  9  1  0
 10  3  1  0
 11 12  2  0
 11  9  1  0
 14 13  1  6
 14 16  1  0
 15 14  1  0
 16 17  1  6
 16 18  1  0
 17 11  1  0
 18 19  1  0
 20 18  2  0
M  END
$$$$
