GNT.pdb
     RDKit          3D

 20 19  0  0  1  0  0  0  0  0999 V2000
    5.4477  -19.6580   20.4569 N   0  0  0  0  0  0  0  0  0  0  0  0
    5.3402  -18.2899   20.9238 C   0  0  0  0  0  0  0  0  0  0  0  0
    6.5103  -17.4791   20.4693 C   0  0  0  0  0  0  0  0  0  0  0  0
    7.5229  -17.9966   19.9510 O   0  0  0  0  0  0  0  0  0  0  0  0
    8.2340  -11.8152   19.2473 N   0  0  0  0  0  0  0  0  0  0  0  0
    8.0456  -13.1551   18.7832 C   0  0  0  0  0  0  0  0  0  0  0  0
    8.7554  -13.5072   17.8231 O   0  0  0  0  0  0  0  0  0  0  0  0
    7.0563  -14.0117   19.4455 C   0  0  0  0  0  0  0  0  0  0  0  0
    7.5929  -15.2176   20.1411 C   0  0  2  0  0  0  0  0  0  0  0  0
    6.4893  -16.0704   20.6236 N   0  0  0  0  0  0  0  0  0  0  0  0
    8.4701  -14.8841   21.3134 C   0  0  0  0  0  0  0  0  0  0  0  0
    9.5405  -14.2450   21.2428 O   0  0  0  0  0  0  0  0  0  0  0  0
    7.2912  -13.3542   24.8165 C   0  0  0  0  0  0  0  0  0  0  0  0
    7.9489  -14.7006   24.9303 C   0  0  1  0  0  0  0  0  0  0  0  0
    7.0307  -15.7298   25.1189 O   0  0  0  0  0  0  0  0  0  0  0  0
    8.9009  -14.9825   23.7777 C   0  0  2  0  0  0  0  0  0  0  0  0
    8.0724  -15.3224   22.6361 N   0  0  0  0  0  0  0  0  0  0  0  0
    9.6762  -16.1876   24.1661 C   0  0  0  0  0  0  0  0  0  0  0  0
   10.6039  -16.1705   25.2019 O   0  0  0  0  0  0  0  0  0  0  0  0
    9.4853  -17.2541   23.5366 O   0  0  0  0  0  0  0  0  0  0  0  0
  1  2  1  0
  2  3  1  0
  3  4  2  0
  5  6  1  0
  6  8  1  0
  7  6  2  0
  9  8  1  1
 10  9  1  0
 10  3  1  0
 11 12  2  0
 11  9  1  0
 14 13  1  6
 14 16  1  0
 15 14  1  0
 16 17  1  6
 16 18  1  0
 17 11  1  0
 18 19  1  0
 20 18  2  0
M  END
$$$$
