GNT.pdb
     RDKit          3D

 20 19  0  0  1  0  0  0  0  0999 V2000
    8.8151  -14.2153   16.8203 N   0  0  0  0  0  0  0  0  0  0  0  0
   10.0262  -13.5709   17.2886 C   0  0  0  0  0  0  0  0  0  0  0  0
   10.9712  -14.5721   17.8694 C   0  0  0  0  0  0  0  0  0  0  0  0
   10.6721  -15.7785   17.9995 O   0  0  0  0  0  0  0  0  0  0  0  0
   15.5776  -14.1007   16.1933 N   0  0  0  0  0  0  0  0  0  0  0  0
   14.8792  -15.0728   16.9767 C   0  0  0  0  0  0  0  0  0  0  0  0
   14.5409  -16.1136   16.3837 O   0  0  0  0  0  0  0  0  0  0  0  0
   14.6099  -14.7954   18.3914 C   0  0  0  0  0  0  0  0  0  0  0  0
   13.2312  -15.1054   18.8703 C   0  0  2  0  0  0  0  0  0  0  0  0
   12.2581  -14.1572   18.2941 N   0  0  0  0  0  0  0  0  0  0  0  0
   13.0986  -15.0575   20.3653 C   0  0  0  0  0  0  0  0  0  0  0  0
   13.6419  -14.2079   21.1016 O   0  0  0  0  0  0  0  0  0  0  0  0
    9.5877  -15.4698   22.2651 C   0  0  0  0  0  0  0  0  0  0  0  0
   10.6365  -16.4548   22.6988 C   0  0  1  0  0  0  0  0  0  0  0  0
   10.4352  -17.7222   22.1591 O   0  0  0  0  0  0  0  0  0  0  0  0
   12.0492  -15.9444   22.4583 C   0  0  2  0  0  0  0  0  0  0  0  0
   12.2878  -16.0568   21.0315 N   0  0  0  0  0  0  0  0  0  0  0  0
   12.9558  -16.8891   23.1582 C   0  0  0  0  0  0  0  0  0  0  0  0
   13.0310  -16.9548   24.5452 O   0  0  0  0  0  0  0  0  0  0  0  0
   13.6759  -17.6513   22.4721 O   0  0  0  0  0  0  0  0  0  0  0  0
  1  2  1  0
  2  3  1  0
  3  4  2  0
  5  6  1  0
  6  8  1  0
  7  6  2  0
  9  8  1  1
 10  9  1  0
 10  3  1  0
 11 12  2  0
 11  9  1  0
 14 13  1  6
 14 16  1  0
 15 14  1  0
 16 17  1  6
 16 18  1  0
 17 11  1  0
 18 19  1  0
 20 18  2  0
M  END
$$$$
