GNT.pdb
     RDKit          3D

 20 19  0  0  1  0  0  0  0  0999 V2000
    6.2795  -18.5045   18.3380 N   0  0  0  0  0  0  0  0  0  0  0  0
    5.7357  -17.3527   19.0301 C   0  0  0  0  0  0  0  0  0  0  0  0
    6.8112  -16.3639   19.3439 C   0  0  0  0  0  0  0  0  0  0  0  0
    7.2930  -15.6013   18.4790 O   0  0  0  0  0  0  0  0  0  0  0  0
    6.7149  -12.8564   18.8721 N   0  0  0  0  0  0  0  0  0  0  0  0
    7.8939  -13.4881   19.3792 C   0  0  0  0  0  0  0  0  0  0  0  0
    8.8289  -13.6328   18.5702 O   0  0  0  0  0  0  0  0  0  0  0  0
    7.9323  -13.9162   20.7814 C   0  0  0  0  0  0  0  0  0  0  0  0
    8.3809  -15.3177   21.0279 C   0  0  2  0  0  0  0  0  0  0  0  0
    7.3161  -16.2730   20.6651 N   0  0  0  0  0  0  0  0  0  0  0  0
    8.7688  -15.5732   22.4558 C   0  0  0  0  0  0  0  0  0  0  0  0
    8.1267  -15.1756   23.4502 O   0  0  0  0  0  0  0  0  0  0  0  0
    9.4332  -19.0365   24.0371 C   0  0  0  0  0  0  0  0  0  0  0  0
   10.6491  -18.1560   24.1051 C   0  0  1  0  0  0  0  0  0  0  0  0
   11.5937  -18.4731   23.1329 O   0  0  0  0  0  0  0  0  0  0  0  0
   10.2967  -16.6762   24.1043 C   0  0  2  0  0  0  0  0  0  0  0  0
    9.9709  -16.3335   22.7325 N   0  0  0  0  0  0  0  0  0  0  0  0
   11.5378  -15.9545   24.4827 C   0  0  0  0  0  0  0  0  0  0  0  0
   12.0077  -15.9230   25.7911 O   0  0  0  0  0  0  0  0  0  0  0  0
   12.1806  -15.3548   23.5898 O   0  0  0  0  0  0  0  0  0  0  0  0
  1  2  1  0
  2  3  1  0
  3  4  2  0
  5  6  1  0
  6  8  1  0
  7  6  2  0
  9  8  1  1
 10  9  1  0
 10  3  1  0
 11 12  2  0
 11  9  1  0
 14 13  1  6
 14 16  1  0
 15 14  1  0
 16 17  1  6
 16 18  1  0
 17 11  1  0
 18 19  1  0
 20 18  2  0
M  END
$$$$
