GNT.pdb
     RDKit          3D

 20 19  0  0  1  0  0  0  0  0999 V2000
   -2.9263  -27.3112   27.9291 N   0  0  0  0  0  0  0  0  0  0  0  0
   -3.0018  -26.3941   26.8090 C   0  0  0  0  0  0  0  0  0  0  0  0
   -3.5072  -25.0582   27.2483 C   0  0  0  0  0  0  0  0  0  0  0  0
   -3.0006  -24.4314   28.2034 O   0  0  0  0  0  0  0  0  0  0  0  0
   -3.1971  -20.6948   25.0245 N   0  0  0  0  0  0  0  0  0  0  0  0
   -4.0918  -21.0664   26.0770 C   0  0  0  0  0  0  0  0  0  0  0  0
   -4.0041  -20.4067   27.1289 O   0  0  0  0  0  0  0  0  0  0  0  0
   -5.0330  -22.1705   25.8625 C   0  0  0  0  0  0  0  0  0  0  0  0
   -5.1521  -23.1572   26.9754 C   0  0  2  0  0  0  0  0  0  0  0  0
   -4.6001  -24.4642   26.5691 N   0  0  0  0  0  0  0  0  0  0  0  0
   -6.5675  -23.3705   27.4291 C   0  0  0  0  0  0  0  0  0  0  0  0
   -7.5225  -23.6507   26.6750 O   0  0  0  0  0  0  0  0  0  0  0  0
   -7.7427  -25.8692   30.0025 C   0  0  0  0  0  0  0  0  0  0  0  0
   -8.1173  -24.4853   30.4529 C   0  0  1  0  0  0  0  0  0  0  0  0
   -7.2863  -24.0086   31.4629 O   0  0  0  0  0  0  0  0  0  0  0  0
   -8.2331  -23.5075   29.2933 C   0  0  2  0  0  0  0  0  0  0  0  0
   -6.8797  -23.2488   28.8389 N   0  0  0  0  0  0  0  0  0  0  0  0
   -8.7812  -22.2512   29.8640 C   0  0  0  0  0  0  0  0  0  0  0  0
   -7.9980  -21.1169   30.0483 O   0  0  0  0  0  0  0  0  0  0  0  0
   -9.9907  -22.2160   30.1894 O   0  0  0  0  0  0  0  0  0  0  0  0
  1  2  1  0
  2  3  1  0
  3  4  2  0
  5  6  1  0
  6  8  1  0
  7  6  2  0
  9  8  1  6
 10  9  1  0
 10  3  1  0
 11 12  2  0
 11  9  1  0
 14 13  1  6
 14 16  1  0
 15 14  1  0
 16 17  1  1
 16 18  1  0
 17 11  1  0
 18 19  1  0
 20 18  2  0
M  END
$$$$
