GNT.pdb
     RDKit          3D

 20 19  0  0  1  0  0  0  0  0999 V2000
    4.0855  -24.2695   20.0465 N   0  0  0  0  0  0  0  0  0  0  0  0
    4.0764  -23.7844   21.4125 C   0  0  0  0  0  0  0  0  0  0  0  0
    4.6124  -22.3915   21.4861 C   0  0  0  0  0  0  0  0  0  0  0  0
    5.6415  -22.0365   20.8722 O   0  0  0  0  0  0  0  0  0  0  0  0
    2.3836  -18.6993   20.2112 N   0  0  0  0  0  0  0  0  0  0  0  0
    2.2001  -19.2325   21.5258 C   0  0  0  0  0  0  0  0  0  0  0  0
    1.1107  -19.7946   21.7418 O   0  0  0  0  0  0  0  0  0  0  0  0
    3.2742  -19.0905   22.5143 C   0  0  0  0  0  0  0  0  0  0  0  0
    4.4235  -20.0318   22.3749 C   0  0  2  0  0  0  0  0  0  0  0  0
    3.9430  -21.4236   22.2759 N   0  0  0  0  0  0  0  0  0  0  0  0
    5.3944  -19.9547   23.5177 C   0  0  0  0  0  0  0  0  0  0  0  0
    5.0739  -19.9357   24.7244 O   0  0  0  0  0  0  0  0  0  0  0  0
    7.8487  -22.3660   24.7210 C   0  0  0  0  0  0  0  0  0  0  0  0
    8.5810  -21.1594   24.2051 C   0  0  1  0  0  0  0  0  0  0  0  0
    9.0747  -21.3442   22.9166 O   0  0  0  0  0  0  0  0  0  0  0  0
    7.7615  -19.8839   24.3302 C   0  0  2  0  0  0  0  0  0  0  0  0
    6.8137  -19.8967   23.2316 N   0  0  0  0  0  0  0  0  0  0  0  0
    8.7083  -18.7605   24.1157 C   0  0  0  0  0  0  0  0  0  0  0  0
    9.6660  -18.4073   25.0600 O   0  0  0  0  0  0  0  0  0  0  0  0
    8.6385  -18.1111   23.0463 O   0  0  0  0  0  0  0  0  0  0  0  0
  1  2  1  0
  2  3  1  0
  3  4  2  0
  5  6  1  0
  6  8  1  0
  7  6  2  0
  9  8  1  1
 10  9  1  0
 10  3  1  0
 11 12  2  0
 11  9  1  0
 14 13  1  6
 14 16  1  0
 15 14  1  0
 16 17  1  6
 16 18  1  0
 17 11  1  0
 18 19  1  0
 20 18  2  0
M  END
$$$$
