GNT.pdb
     RDKit          3D

 20 19  0  0  1  0  0  0  0  0999 V2000
   10.2762  -18.7950   19.5057 N   0  0  0  0  0  0  0  0  0  0  0  0
    9.1121  -18.1539   20.0848 C   0  0  0  0  0  0  0  0  0  0  0  0
    9.4053  -16.7298   20.4295 C   0  0  0  0  0  0  0  0  0  0  0  0
   10.5422  -16.2286   20.2953 O   0  0  0  0  0  0  0  0  0  0  0  0
    8.1251  -12.2469   18.7142 N   0  0  0  0  0  0  0  0  0  0  0  0
    7.6318  -13.4573   19.2955 C   0  0  0  0  0  0  0  0  0  0  0  0
    7.2516  -14.3332   18.4970 O   0  0  0  0  0  0  0  0  0  0  0  0
    7.6033  -13.5927   20.7556 C   0  0  0  0  0  0  0  0  0  0  0  0
    8.6193  -14.5096   21.3499 C   0  0  2  0  0  0  0  0  0  0  0  0
    8.3690  -15.9017   20.9285 N   0  0  0  0  0  0  0  0  0  0  0  0
    8.6428  -14.4747   22.8509 C   0  0  0  0  0  0  0  0  0  0  0  0
    8.8249  -13.4472   23.5366 O   0  0  0  0  0  0  0  0  0  0  0  0
    6.2229  -14.7124   25.4227 C   0  0  0  0  0  0  0  0  0  0  0  0
    7.0892  -15.9357   25.5304 C   0  0  1  0  0  0  0  0  0  0  0  0
    6.5103  -17.0544   24.9377 O   0  0  0  0  0  0  0  0  0  0  0  0
    8.5065  -15.6904   25.0354 C   0  0  2  0  0  0  0  0  0  0  0  0
    8.4428  -15.7074   23.5859 N   0  0  0  0  0  0  0  0  0  0  0  0
    9.3086  -16.8579   25.4803 C   0  0  0  0  0  0  0  0  0  0  0  0
    9.6388  -17.0655   26.8151 O   0  0  0  0  0  0  0  0  0  0  0  0
    9.6993  -17.6817   24.6207 O   0  0  0  0  0  0  0  0  0  0  0  0
  1  2  1  0
  2  3  1  0
  3  4  2  0
  5  6  1  0
  6  8  1  0
  7  6  2  0
  9  8  1  1
 10  9  1  0
 10  3  1  0
 11 12  2  0
 11  9  1  0
 14 13  1  6
 14 16  1  0
 15 14  1  0
 16 17  1  6
 16 18  1  0
 17 11  1  0
 18 19  1  0
 20 18  2  0
M  END
$$$$
