GNT.pdb
     RDKit          3D

 20 19  0  0  1  0  0  0  0  0999 V2000
    7.4924  -19.2303   19.4217 N   0  0  0  0  0  0  0  0  0  0  0  0
    6.7312  -18.1127   19.9441 C   0  0  0  0  0  0  0  0  0  0  0  0
    7.6321  -17.1120   20.5922 C   0  0  0  0  0  0  0  0  0  0  0  0
    8.8047  -17.3847   20.9277 O   0  0  0  0  0  0  0  0  0  0  0  0
    7.0073  -12.4753   18.9377 N   0  0  0  0  0  0  0  0  0  0  0  0
    7.9853  -13.0804   19.7884 C   0  0  0  0  0  0  0  0  0  0  0  0
    9.1064  -13.2734   19.2832 O   0  0  0  0  0  0  0  0  0  0  0  0
    7.6217  -13.4283   21.1660 C   0  0  0  0  0  0  0  0  0  0  0  0
    7.9533  -14.8161   21.6020 C   0  0  2  0  0  0  0  0  0  0  0  0
    7.1571  -15.8006   20.8439 N   0  0  0  0  0  0  0  0  0  0  0  0
    7.7126  -15.0507   23.0655 C   0  0  0  0  0  0  0  0  0  0  0  0
    6.6318  -14.8361   23.6529 O   0  0  0  0  0  0  0  0  0  0  0  0
    6.2940  -16.8423   24.7924 C   0  0  0  0  0  0  0  0  0  0  0  0
    7.6779  -17.0969   25.3200 C   0  0  1  0  0  0  0  0  0  0  0  0
    8.2896  -18.1890   24.7107 O   0  0  0  0  0  0  0  0  0  0  0  0
    8.5525  -15.8528   25.2835 C   0  0  2  0  0  0  0  0  0  0  0  0
    8.7942  -15.5630   23.8825 N   0  0  0  0  0  0  0  0  0  0  0  0
    9.8432  -16.2353   25.9097 C   0  0  0  0  0  0  0  0  0  0  0  0
    9.9848  -16.3847   27.2849 O   0  0  0  0  0  0  0  0  0  0  0  0
   10.8361  -16.4291   25.1703 O   0  0  0  0  0  0  0  0  0  0  0  0
  1  2  1  0
  2  3  1  0
  3  4  2  0
  5  6  1  0
  6  8  1  0
  7  6  2  0
  9  8  1  6
 10  9  1  0
 10  3  1  0
 11 12  2  0
 11  9  1  0
 14 13  1  6
 14 16  1  0
 15 14  1  0
 16 17  1  6
 16 18  1  0
 17 11  1  0
 18 19  1  0
 20 18  2  0
M  END
$$$$
