GNT.pdb
     RDKit          3D

 20 19  0  0  1  0  0  0  0  0999 V2000
    6.1275  -19.6917   24.3174 N   0  0  0  0  0  0  0  0  0  0  0  0
    6.0588  -18.2513   24.1694 C   0  0  0  0  0  0  0  0  0  0  0  0
    7.4272  -17.6625   24.0527 C   0  0  0  0  0  0  0  0  0  0  0  0
    8.4495  -18.2589   24.4541 O   0  0  0  0  0  0  0  0  0  0  0  0
   10.2436  -16.7536   20.3164 N   0  0  0  0  0  0  0  0  0  0  0  0
    9.0200  -16.2042   20.8135 C   0  0  0  0  0  0  0  0  0  0  0  0
    7.9766  -16.6082   20.2679 O   0  0  0  0  0  0  0  0  0  0  0  0
    9.0637  -15.2256   21.9050 C   0  0  0  0  0  0  0  0  0  0  0  0
    8.9244  -15.7748   23.2852 C   0  0  2  0  0  0  0  0  0  0  0  0
    7.5917  -16.3818   23.4683 N   0  0  0  0  0  0  0  0  0  0  0  0
    9.1159  -14.7403   24.3566 C   0  0  0  0  0  0  0  0  0  0  0  0
   10.1383  -14.0366   24.4925 O   0  0  0  0  0  0  0  0  0  0  0  0
    6.9577  -11.6241   25.5716 C   0  0  0  0  0  0  0  0  0  0  0  0
    6.9963  -12.7724   26.5403 C   0  0  1  0  0  0  0  0  0  0  0  0
    5.8509  -13.5613   26.4800 O   0  0  0  0  0  0  0  0  0  0  0  0
    8.2695  -13.5956   26.4162 C   0  0  2  0  0  0  0  0  0  0  0  0
    8.0546  -14.5194   25.3182 N   0  0  0  0  0  0  0  0  0  0  0  0
    8.3789  -14.3810   27.6714 C   0  0  0  0  0  0  0  0  0  0  0  0
    8.2272  -15.7631   27.6969 O   0  0  0  0  0  0  0  0  0  0  0  0
    8.6160  -13.7742   28.7417 O   0  0  0  0  0  0  0  0  0  0  0  0
  1  2  1  0
  2  3  1  0
  3  4  2  0
  5  6  1  0
  6  8  1  0
  7  6  2  0
  9  8  1  6
 10  9  1  0
 10  3  1  0
 11 12  2  0
 11  9  1  0
 14 13  1  6
 14 16  1  0
 15 14  1  0
 16 17  1  6
 16 18  1  0
 17 11  1  0
 18 19  1  0
 20 18  2  0
M  END
$$$$
