GNT.pdb
     RDKit          3D

 20 19  0  0  1  0  0  0  0  0999 V2000
   -3.4535  -24.2712   22.7213 N   0  0  0  0  0  0  0  0  0  0  0  0
   -3.0869  -22.9933   22.1433 C   0  0  0  0  0  0  0  0  0  0  0  0
   -1.6139  -22.9212   21.9024 C   0  0  0  0  0  0  0  0  0  0  0  0
   -0.9218  -23.9367   21.6758 O   0  0  0  0  0  0  0  0  0  0  0  0
    2.7987  -18.8542   21.0224 N   0  0  0  0  0  0  0  0  0  0  0  0
    2.1455  -20.0221   20.5169 C   0  0  0  0  0  0  0  0  0  0  0  0
    2.8318  -20.7609   19.7870 O   0  0  0  0  0  0  0  0  0  0  0  0
    0.7464  -20.2746   20.8770 C   0  0  0  0  0  0  0  0  0  0  0  0
    0.4808  -21.5294   21.6392 C   0  0  2  0  0  0  0  0  0  0  0  0
   -0.9602  -21.6639   21.9281 N   0  0  0  0  0  0  0  0  0  0  0  0
    1.2252  -21.6004   22.9414 C   0  0  0  0  0  0  0  0  0  0  0  0
    1.0802  -20.8004   23.8891 O   0  0  0  0  0  0  0  0  0  0  0  0
    1.5739  -24.6480   25.3757 C   0  0  0  0  0  0  0  0  0  0  0  0
    2.8947  -24.2153   24.8041 C   0  0  1  0  0  0  0  0  0  0  0  0
    3.3288  -25.0449   23.7739 O   0  0  0  0  0  0  0  0  0  0  0  0
    2.9026  -22.7478   24.4036 C   0  0  2  0  0  0  0  0  0  0  0  0
    2.1891  -22.6634   23.1430 N   0  0  0  0  0  0  0  0  0  0  0  0
    4.3234  -22.3927   24.1595 C   0  0  0  0  0  0  0  0  0  0  0  0
    5.2587  -22.3284   25.1865 O   0  0  0  0  0  0  0  0  0  0  0  0
    4.6879  -22.1431   22.9869 O   0  0  0  0  0  0  0  0  0  0  0  0
  1  2  1  0
  2  3  1  0
  3  4  2  0
  5  6  1  0
  6  8  1  0
  7  6  2  0
  9  8  1  1
 10  9  1  0
 10  3  1  0
 11 12  2  0
 11  9  1  0
 14 13  1  6
 14 16  1  0
 15 14  1  0
 16 17  1  6
 16 18  1  0
 17 11  1  0
 18 19  1  0
 20 18  2  0
M  END
$$$$
