DQY.pdb
     RDKit          3D

 30 30  0  0  1  0  0  0  0  0999 V2000
    8.2982  -16.0566   18.0755 N   0  0  0  0  0  0  0  0  0  0  0  0
    8.3927  -14.7750   18.7411 C   0  0  1  0  0  0  0  0  0  0  0  0
    7.6541  -13.7570   17.8921 C   0  0  0  0  0  0  0  0  0  0  0  0
    8.1949  -13.7745   16.5152 C   0  0  0  0  0  0  0  0  0  0  0  0
    8.7987  -14.7963   16.1157 O   0  0  0  0  0  0  0  0  0  0  0  0
    7.7253  -14.8969   20.0620 C   0  0  0  0  0  0  0  0  0  0  0  0
    7.6083  -13.9029   20.7901 O   0  0  0  0  0  0  0  0  0  0  0  0
    8.0546  -12.6970   15.6548 O   0  0  0  0  0  0  0  0  0  0  0  0
    4.1257  -19.8316   20.6373 N   0  0  0  0  0  0  0  0  0  0  0  0
    3.6286  -18.4987   20.7753 C   0  0  0  0  0  0  0  0  0  0  0  0
    2.4124  -18.3594   20.8476 O   0  0  0  0  0  0  0  0  0  0  0  0
    4.5847  -17.4127   20.8187 C   0  0  0  0  0  0  0  0  0  0  0  0
    5.6016  -17.3700   21.8849 C   0  0  0  0  0  0  0  0  0  0  0  0
    6.6451  -16.3209   21.8506 C   0  0  2  0  0  0  0  0  0  0  0  0
    7.2065  -16.1433   20.5258 N   0  0  0  0  0  0  0  0  0  0  0  0
    7.6190  -16.3709   22.9395 C   0  0  0  0  0  0  0  0  0  0  0  0
    8.6652  -17.0846   22.9202 O   0  0  0  0  0  0  0  0  0  0  0  0
   11.5105  -15.2611   30.8132 O   0  0  0  0  0  0  0  0  0  0  0  0
   10.6643  -15.1165   29.7142 C   0  0  0  0  0  0  0  0  0  0  0  0
   11.0120  -14.2552   28.6854 C   0  0  0  0  0  0  0  0  0  0  0  0
   10.1737  -14.1059   27.5870 C   0  0  0  0  0  0  0  0  0  0  0  0
    8.9940  -14.7936   27.4844 C   0  0  0  0  0  0  0  0  0  0  0  0
    8.0571  -14.6803   26.3368 C   0  0  0  0  0  0  0  0  0  0  0  0
    8.3685  -15.7045   25.2479 C   0  0  2  0  0  0  0  0  0  0  0  0
    7.4585  -15.5854   24.1429 N   0  0  0  0  0  0  0  0  0  0  0  0
    8.2191  -17.0431   25.8492 C   0  0  0  0  0  0  0  0  0  0  0  0
    7.0705  -17.5175   26.0035 O   0  0  0  0  0  0  0  0  0  0  0  0
    8.6784  -15.6461   28.5319 C   0  0  0  0  0  0  0  0  0  0  0  0
    9.4807  -15.8213   29.6353 C   0  0  0  0  0  0  0  0  0  0  0  0
    9.2839  -17.8340   26.2659 O   0  0  0  0  0  0  0  0  0  0  0  0
  2  1  1  6
  2  6  1  0
  3  2  1  0
  4  3  1  0
  4  5  2  0
  6 15  1  0
  6  7  2  0
  8  4  1  0
 10  9  1  0
 11 10  2  0
 12 10  1  0
 13 12  1  0
 14 13  1  6
 15 14  1  0
 16 14  1  0
 16 17  2  0
 18 19  1  0
 19 29  2  0
 20 19  1  0
 20 21  2  0
 21 22  1  0
 22 28  2  0
 22 23  1  0
 24 23  1  1
 24 25  1  0
 25 16  1  0
 26 24  1  0
 27 26  2  0
 29 28  1  0
 30 26  1  0
M  END
$$$$
