DQY.pdb
     RDKit          3D

 30 30  0  0  1  0  0  0  0  0999 V2000
    9.9418  -17.5956   20.3377 N   0  0  0  0  0  0  0  0  0  0  0  0
   10.9020  -17.0941   21.2973 C   0  0  1  0  0  0  0  0  0  0  0  0
   11.1594  -15.6339   20.9746 C   0  0  0  0  0  0  0  0  0  0  0  0
   12.0590  -15.5363   19.8042 C   0  0  0  0  0  0  0  0  0  0  0  0
   12.6378  -16.5701   19.3987 O   0  0  0  0  0  0  0  0  0  0  0  0
   10.2961  -17.2040   22.6486 C   0  0  0  0  0  0  0  0  0  0  0  0
    9.0763  -17.0535   22.7938 O   0  0  0  0  0  0  0  0  0  0  0  0
   12.2810  -14.3384   19.1434 O   0  0  0  0  0  0  0  0  0  0  0  0
   10.5503  -21.9244   26.2230 N   0  0  0  0  0  0  0  0  0  0  0  0
   10.0332  -21.5711   24.9383 C   0  0  0  0  0  0  0  0  0  0  0  0
    9.6161  -22.4830   24.2324 O   0  0  0  0  0  0  0  0  0  0  0  0
   10.0377  -20.1741   24.5592 C   0  0  0  0  0  0  0  0  0  0  0  0
   10.5709  -19.1615   25.4883 C   0  0  0  0  0  0  0  0  0  0  0  0
   10.5162  -17.7312   25.1119 C   0  0  2  0  0  0  0  0  0  0  0  0
   11.0883  -17.4822   23.8032 N   0  0  0  0  0  0  0  0  0  0  0  0
   10.9189  -16.7927   26.1577 C   0  0  0  0  0  0  0  0  0  0  0  0
   12.1110  -16.4045   26.3386 O   0  0  0  0  0  0  0  0  0  0  0  0
    6.4936  -11.9831   24.2731 O   0  0  0  0  0  0  0  0  0  0  0  0
    7.1626  -12.5900   25.3355 C   0  0  0  0  0  0  0  0  0  0  0  0
    8.3883  -12.0941   25.7514 C   0  0  0  0  0  0  0  0  0  0  0  0
    9.0609  -12.6937   26.8095 C   0  0  0  0  0  0  0  0  0  0  0  0
    8.5445  -13.7779   27.4676 C   0  0  0  0  0  0  0  0  0  0  0  0
    9.2118  -14.4611   28.6058 C   0  0  0  0  0  0  0  0  0  0  0  0
   10.3693  -15.3408   28.1387 C   0  0  2  0  0  0  0  0  0  0  0  0
    9.9622  -16.2208   27.0788 N   0  0  0  0  0  0  0  0  0  0  0  0
   10.7992  -16.1500   29.2946 C   0  0  0  0  0  0  0  0  0  0  0  0
   11.2478  -15.5717   30.3107 O   0  0  0  0  0  0  0  0  0  0  0  0
    7.3168  -14.2469   27.0246 C   0  0  0  0  0  0  0  0  0  0  0  0
    6.6203  -13.6818   25.9819 C   0  0  0  0  0  0  0  0  0  0  0  0
   10.7407  -17.5384   29.3395 O   0  0  0  0  0  0  0  0  0  0  0  0
  2  1  1  6
  2  6  1  0
  3  2  1  0
  4  3  1  0
  4  5  2  0
  6 15  1  0
  6  7  2  0
  8  4  1  0
 10  9  1  0
 11 10  2  0
 12 10  1  0
 13 12  1  0
 14 13  1  1
 15 14  1  0
 16 14  1  0
 16 17  2  0
 18 19  1  0
 19 29  2  0
 20 19  1  0
 20 21  2  0
 21 22  1  0
 22 28  2  0
 22 23  1  0
 24 23  1  1
 24 25  1  0
 25 16  1  0
 26 24  1  0
 27 26  2  0
 29 28  1  0
 30 26  1  0
M  END
$$$$
