DQY.pdb
     RDKit          3D

 30 30  0  0  1  0  0  0  0  0999 V2000
    8.7126  -18.1942   19.4649 N   0  0  0  0  0  0  0  0  0  0  0  0
    7.4897  -17.4207   19.4420 C   0  0  1  0  0  0  0  0  0  0  0  0
    6.4793  -18.1772   18.5999 C   0  0  0  0  0  0  0  0  0  0  0  0
    7.0047  -18.3443   17.2270 C   0  0  0  0  0  0  0  0  0  0  0  0
    8.1472  -17.9068   16.9595 O   0  0  0  0  0  0  0  0  0  0  0  0
    6.9917  -17.3138   20.8370 C   0  0  0  0  0  0  0  0  0  0  0  0
    5.7747  -17.2699   21.0578 O   0  0  0  0  0  0  0  0  0  0  0  0
    6.2733  -18.9690   16.2291 O   0  0  0  0  0  0  0  0  0  0  0  0
    4.9463  -21.4456   23.7048 N   0  0  0  0  0  0  0  0  0  0  0  0
    6.1481  -21.1841   24.4328 C   0  0  0  0  0  0  0  0  0  0  0  0
    6.6857  -22.1367   24.9870 O   0  0  0  0  0  0  0  0  0  0  0  0
    6.6448  -19.8248   24.4680 C   0  0  0  0  0  0  0  0  0  0  0  0
    6.9578  -19.1232   23.2100 C   0  0  0  0  0  0  0  0  0  0  0  0
    7.5431  -17.7648   23.2632 C   0  0  2  0  0  0  0  0  0  0  0  0
    7.8859  -17.2591   21.9483 N   0  0  0  0  0  0  0  0  0  0  0  0
    8.5587  -17.5606   24.2945 C   0  0  0  0  0  0  0  0  0  0  0  0
    8.8271  -18.4051   25.1995 O   0  0  0  0  0  0  0  0  0  0  0  0
    5.7460  -10.3152   27.7157 O   0  0  0  0  0  0  0  0  0  0  0  0
    6.1903  -11.3936   26.9513 C   0  0  0  0  0  0  0  0  0  0  0  0
    5.4762  -12.5816   26.9550 C   0  0  0  0  0  0  0  0  0  0  0  0
    5.9128  -13.6605   26.1957 C   0  0  0  0  0  0  0  0  0  0  0  0
    7.0456  -13.5888   25.4295 C   0  0  0  0  0  0  0  0  0  0  0  0
    7.5627  -14.7040   24.5949 C   0  0  0  0  0  0  0  0  0  0  0  0
    8.9194  -15.2002   25.0898 C   0  0  2  0  0  0  0  0  0  0  0  0
    9.3539  -16.3544   24.3535 N   0  0  0  0  0  0  0  0  0  0  0  0
    8.7603  -15.5693   26.5090 C   0  0  0  0  0  0  0  0  0  0  0  0
    9.1676  -14.7816   27.3933 O   0  0  0  0  0  0  0  0  0  0  0  0
    7.7346  -12.3854   25.4501 C   0  0  0  0  0  0  0  0  0  0  0  0
    7.3354  -11.2953   26.1878 C   0  0  0  0  0  0  0  0  0  0  0  0
    8.1778  -16.7536   26.9462 O   0  0  0  0  0  0  0  0  0  0  0  0
  2  1  1  1
  2  6  1  0
  3  2  1  0
  4  3  1  0
  4  5  2  0
  6 15  1  0
  6  7  2  0
  8  4  1  0
 10  9  1  0
 11 10  2  0
 12 10  1  0
 13 12  1  0
 14 13  1  6
 15 14  1  0
 16 14  1  0
 16 17  2  0
 18 19  1  0
 19 29  2  0
 20 19  1  0
 20 21  2  0
 21 22  1  0
 22 28  2  0
 22 23  1  0
 24 23  1  6
 24 25  1  0
 25 16  1  0
 26 24  1  0
 27 26  2  0
 29 28  1  0
 30 26  1  0
M  END
$$$$
