DQY.pdb
     RDKit          3D

 30 30  0  0  1  0  0  0  0  0999 V2000
    9.4275  -18.0588   19.8405 N   0  0  0  0  0  0  0  0  0  0  0  0
    9.6372  -16.9053   20.6890 C   0  0  1  0  0  0  0  0  0  0  0  0
    8.7426  -15.7893   20.1824 C   0  0  0  0  0  0  0  0  0  0  0  0
    9.2664  -15.2799   18.8960 C   0  0  0  0  0  0  0  0  0  0  0  0
   10.3160  -15.7795   18.4302 O   0  0  0  0  0  0  0  0  0  0  0  0
    9.2345  -17.2757   22.0696 C   0  0  0  0  0  0  0  0  0  0  0  0
    8.3290  -18.1000   22.2498 O   0  0  0  0  0  0  0  0  0  0  0  0
    8.6329  -14.2686   18.1911 O   0  0  0  0  0  0  0  0  0  0  0  0
   10.2035  -21.5082   24.8278 N   0  0  0  0  0  0  0  0  0  0  0  0
   11.2612  -20.7327   24.2599 C   0  0  0  0  0  0  0  0  0  0  0  0
   12.2744  -21.3329   23.9182 O   0  0  0  0  0  0  0  0  0  0  0  0
   11.0681  -19.3040   24.1288 C   0  0  0  0  0  0  0  0  0  0  0  0
    9.8319  -18.6794   24.6332 C   0  0  0  0  0  0  0  0  0  0  0  0
    9.6789  -17.2092   24.5579 C   0  0  2  0  0  0  0  0  0  0  0  0
    9.8683  -16.7023   23.2129 N   0  0  0  0  0  0  0  0  0  0  0  0
   10.3569  -16.4546   25.6103 C   0  0  0  0  0  0  0  0  0  0  0  0
   11.5665  -16.0841   25.5476 O   0  0  0  0  0  0  0  0  0  0  0  0
    5.8256  -11.9278   24.7736 O   0  0  0  0  0  0  0  0  0  0  0  0
    6.6905  -12.5178   25.6947 C   0  0  0  0  0  0  0  0  0  0  0  0
    6.2602  -13.5967   26.4509 C   0  0  0  0  0  0  0  0  0  0  0  0
    7.1165  -14.1899   27.3708 C   0  0  0  0  0  0  0  0  0  0  0  0
    8.3949  -13.7364   27.5592 C   0  0  0  0  0  0  0  0  0  0  0  0
    9.3585  -14.3278   28.5232 C   0  0  0  0  0  0  0  0  0  0  0  0
   10.3343  -15.2807   27.8365 C   0  0  2  0  0  0  0  0  0  0  0  0
    9.6780  -16.0612   26.8249 N   0  0  0  0  0  0  0  0  0  0  0  0
   10.8641  -16.1873   28.8724 C   0  0  0  0  0  0  0  0  0  0  0  0
   10.6415  -17.4160   28.7791 O   0  0  0  0  0  0  0  0  0  0  0  0
    8.7912  -12.6556   26.7857 C   0  0  0  0  0  0  0  0  0  0  0  0
    7.9742  -12.0414   25.8654 C   0  0  0  0  0  0  0  0  0  0  0  0
   11.6095  -15.7679   29.9685 O   0  0  0  0  0  0  0  0  0  0  0  0
  2  1  1  6
  2  6  1  0
  3  2  1  0
  4  3  1  0
  4  5  2  0
  6 15  1  0
  6  7  2  0
  8  4  1  0
 10  9  1  0
 11 10  2  0
 12 10  1  0
 13 12  1  0
 14 13  1  6
 15 14  1  0
 16 14  1  0
 16 17  2  0
 18 19  1  0
 19 29  2  0
 20 19  1  0
 20 21  2  0
 21 22  1  0
 22 28  2  0
 22 23  1  0
 24 23  1  1
 24 25  1  0
 25 16  1  0
 26 24  1  0
 27 26  2  0
 29 28  1  0
 30 26  1  0
M  END
$$$$
