DQY.pdb
     RDKit          3D

 30 30  0  0  1  0  0  0  0  0999 V2000
   11.4721  -15.2046   18.1344 N   0  0  0  0  0  0  0  0  0  0  0  0
   12.1059  -15.5627   19.3852 C   0  0  1  0  0  0  0  0  0  0  0  0
   12.9652  -14.3905   19.8210 C   0  0  0  0  0  0  0  0  0  0  0  0
   14.2487  -14.4168   19.0857 C   0  0  0  0  0  0  0  0  0  0  0  0
   14.5320  -15.4255   18.3998 O   0  0  0  0  0  0  0  0  0  0  0  0
   11.0360  -15.7935   20.3888 C   0  0  0  0  0  0  0  0  0  0  0  0
    9.9912  -15.1317   20.3426 O   0  0  0  0  0  0  0  0  0  0  0  0
   15.1461  -13.3615   19.1319 O   0  0  0  0  0  0  0  0  0  0  0  0
    9.9987  -21.6304   20.9416 N   0  0  0  0  0  0  0  0  0  0  0  0
    9.3952  -20.6930   20.0473 C   0  0  0  0  0  0  0  0  0  0  0  0
    8.9109  -21.1383   19.0125 O   0  0  0  0  0  0  0  0  0  0  0  0
    9.3973  -19.2938   20.4187 C   0  0  0  0  0  0  0  0  0  0  0  0
    9.9865  -18.8746   21.7032 C   0  0  0  0  0  0  0  0  0  0  0  0
   10.0457  -17.4342   22.0385 C   0  0  2  0  0  0  0  0  0  0  0  0
   11.1766  -16.7694   21.4211 N   0  0  0  0  0  0  0  0  0  0  0  0
    9.8233  -17.1094   23.4462 C   0  0  0  0  0  0  0  0  0  0  0  0
    9.0886  -17.7903   24.2215 O   0  0  0  0  0  0  0  0  0  0  0  0
    5.4205  -11.1431   27.6484 O   0  0  0  0  0  0  0  0  0  0  0  0
    6.1801  -11.9591   26.8107 C   0  0  0  0  0  0  0  0  0  0  0  0
    7.4837  -11.6046   26.5004 C   0  0  0  0  0  0  0  0  0  0  0  0
    8.2468  -12.4127   25.6662 C   0  0  0  0  0  0  0  0  0  0  0  0
    7.7457  -13.5690   25.1302 C   0  0  0  0  0  0  0  0  0  0  0  0
    8.5100  -14.4760   24.2355 C   0  0  0  0  0  0  0  0  0  0  0  0
    9.7131  -15.0916   24.9464 C   0  0  2  0  0  0  0  0  0  0  0  0
   10.4461  -15.9645   24.0723 N   0  0  0  0  0  0  0  0  0  0  0  0
    9.1962  -15.8761   26.0835 C   0  0  0  0  0  0  0  0  0  0  0  0
    8.5603  -16.9310   25.8577 O   0  0  0  0  0  0  0  0  0  0  0  0
    6.4384  -13.8921   25.4620 C   0  0  0  0  0  0  0  0  0  0  0  0
    5.6511  -13.1193   26.2835 C   0  0  0  0  0  0  0  0  0  0  0  0
    9.3678  -15.5223   27.4171 O   0  0  0  0  0  0  0  0  0  0  0  0
  2  1  1  6
  2  6  1  0
  3  2  1  0
  4  3  1  0
  4  5  2  0
  6 15  1  0
  6  7  2  0
  8  4  1  0
 10  9  1  0
 11 10  2  0
 12 10  1  0
 13 12  1  0
 14 13  1  1
 15 14  1  0
 16 14  1  0
 16 17  2  0
 18 19  1  0
 19 29  2  0
 20 19  1  0
 20 21  2  0
 21 22  1  0
 22 28  2  0
 22 23  1  0
 24 23  1  6
 24 25  1  0
 25 16  1  0
 26 24  1  0
 27 26  2  0
 29 28  1  0
 30 26  1  0
M  END
$$$$
