DQY.pdb
     RDKit          3D

 30 30  0  0  1  0  0  0  0  0999 V2000
    9.7435  -17.6217   18.8650 N   0  0  0  0  0  0  0  0  0  0  0  0
    8.5292  -16.8366   18.8068 C   0  0  1  0  0  0  0  0  0  0  0  0
    7.5802  -17.5227   17.8419 C   0  0  0  0  0  0  0  0  0  0  0  0
    8.1080  -17.4107   16.4643 C   0  0  0  0  0  0  0  0  0  0  0  0
    9.1337  -18.0592   16.1553 O   0  0  0  0  0  0  0  0  0  0  0  0
    7.9301  -16.8220   20.1655 C   0  0  0  0  0  0  0  0  0  0  0  0
    6.7008  -16.7688   20.2991 O   0  0  0  0  0  0  0  0  0  0  0  0
    7.5036  -16.6118   15.5064 O   0  0  0  0  0  0  0  0  0  0  0  0
    6.0015  -20.9486   22.4965 N   0  0  0  0  0  0  0  0  0  0  0  0
    6.0540  -20.2542   23.7446 C   0  0  0  0  0  0  0  0  0  0  0  0
    5.5260  -20.7961   24.7096 O   0  0  0  0  0  0  0  0  0  0  0  0
    6.7193  -18.9692   23.7854 C   0  0  0  0  0  0  0  0  0  0  0  0
    7.2650  -18.3837   22.5476 C   0  0  0  0  0  0  0  0  0  0  0  0
    8.2260  -17.2617   22.6380 C   0  0  2  0  0  0  0  0  0  0  0  0
    8.7395  -16.8682   21.3405 N   0  0  0  0  0  0  0  0  0  0  0  0
    9.2278  -17.3792   23.6960 C   0  0  0  0  0  0  0  0  0  0  0  0
    9.7961  -18.4655   24.0142 O   0  0  0  0  0  0  0  0  0  0  0  0
    5.9947  -10.4619   26.4202 O   0  0  0  0  0  0  0  0  0  0  0  0
    6.4035  -11.7875   26.2772 C   0  0  0  0  0  0  0  0  0  0  0  0
    6.8273  -12.5014   27.3871 C   0  0  0  0  0  0  0  0  0  0  0  0
    7.2362  -13.8228   27.2523 C   0  0  0  0  0  0  0  0  0  0  0  0
    7.2345  -14.4556   26.0378 C   0  0  0  0  0  0  0  0  0  0  0  0
    7.6562  -15.8647   25.8284 C   0  0  0  0  0  0  0  0  0  0  0  0
    9.1767  -16.0033   25.8028 C   0  0  2  0  0  0  0  0  0  0  0  0
    9.6578  -16.2356   24.4695 N   0  0  0  0  0  0  0  0  0  0  0  0
    9.5258  -17.1616   26.6466 C   0  0  0  0  0  0  0  0  0  0  0  0
    9.8682  -16.9687   27.8356 O   0  0  0  0  0  0  0  0  0  0  0  0
    6.8043  -13.7109   24.9498 C   0  0  0  0  0  0  0  0  0  0  0  0
    6.3923  -12.4019   25.0418 C   0  0  0  0  0  0  0  0  0  0  0  0
    9.5011  -18.4810   26.2088 O   0  0  0  0  0  0  0  0  0  0  0  0
  2  1  1  1
  2  6  1  0
  3  2  1  0
  4  3  1  0
  4  5  2  0
  6 15  1  0
  6  7  2  0
  8  4  1  0
 10  9  1  0
 11 10  2  0
 12 10  1  0
 13 12  1  0
 14 13  1  6
 15 14  1  0
 16 14  1  0
 16 17  2  0
 18 19  1  0
 19 29  2  0
 20 19  1  0
 20 21  2  0
 21 22  1  0
 22 28  2  0
 22 23  1  0
 24 23  1  6
 24 25  1  0
 25 16  1  0
 26 24  1  0
 27 26  2  0
 29 28  1  0
 30 26  1  0
M  END
$$$$
