DQY.pdb
     RDKit          3D

 30 30  0  0  1  0  0  0  0  0999 V2000
    8.9016  -18.2634   19.9369 N   0  0  0  0  0  0  0  0  0  0  0  0
   10.2163  -17.6589   19.9108 C   0  0  1  0  0  0  0  0  0  0  0  0
   10.5839  -17.4131   18.4592 C   0  0  0  0  0  0  0  0  0  0  0  0
   10.9287  -18.6976   17.8112 C   0  0  0  0  0  0  0  0  0  0  0  0
   10.6603  -18.8541   16.5981 O   0  0  0  0  0  0  0  0  0  0  0  0
   10.1358  -16.3614   20.6285 C   0  0  0  0  0  0  0  0  0  0  0  0
   11.1686  -15.7250   20.8739 O   0  0  0  0  0  0  0  0  0  0  0  0
   11.5385  -19.7319   18.5037 O   0  0  0  0  0  0  0  0  0  0  0  0
    8.9537  -12.2565   19.1759 N   0  0  0  0  0  0  0  0  0  0  0  0
    8.1015  -13.3680   18.8909 C   0  0  0  0  0  0  0  0  0  0  0  0
    8.2346  -13.9100   17.7990 O   0  0  0  0  0  0  0  0  0  0  0  0
    7.1466  -13.7747   19.8999 C   0  0  0  0  0  0  0  0  0  0  0  0
    7.5434  -13.8032   21.3193 C   0  0  0  0  0  0  0  0  0  0  0  0
    8.7682  -14.5334   21.7157 C   0  0  2  0  0  0  0  0  0  0  0  0
    8.8859  -15.8165   21.0509 N   0  0  0  0  0  0  0  0  0  0  0  0
    9.0539  -14.5449   23.1492 C   0  0  0  0  0  0  0  0  0  0  0  0
    9.0052  -13.5173   23.8881 O   0  0  0  0  0  0  0  0  0  0  0  0
    5.4937  -11.2014   26.9058 O   0  0  0  0  0  0  0  0  0  0  0  0
    6.1821  -12.3939   26.6854 C   0  0  0  0  0  0  0  0  0  0  0  0
    5.5180  -13.4827   26.1427 C   0  0  0  0  0  0  0  0  0  0  0  0
    6.1974  -14.6745   25.9202 C   0  0  0  0  0  0  0  0  0  0  0  0
    7.5255  -14.8124   26.2243 C   0  0  0  0  0  0  0  0  0  0  0  0
    8.3080  -16.0568   26.0083 C   0  0  0  0  0  0  0  0  0  0  0  0
    9.6149  -15.7828   25.2674 C   0  0  2  0  0  0  0  0  0  0  0  0
    9.4145  -15.7599   23.8453 N   0  0  0  0  0  0  0  0  0  0  0  0
   10.5463  -16.8765   25.6023 C   0  0  0  0  0  0  0  0  0  0  0  0
   10.8467  -17.0759   26.8016 O   0  0  0  0  0  0  0  0  0  0  0  0
    8.1576  -13.7029   26.7656 C   0  0  0  0  0  0  0  0  0  0  0  0
    7.5206  -12.5067   27.0009 C   0  0  0  0  0  0  0  0  0  0  0  0
   11.1273  -17.7210   24.6631 O   0  0  0  0  0  0  0  0  0  0  0  0
  2  1  1  6
  2  6  1  0
  3  2  1  0
  4  3  1  0
  4  5  2  0
  6 15  1  0
  6  7  2  0
  8  4  1  0
 10  9  1  0
 11 10  2  0
 12 10  1  0
 13 12  1  0
 14 13  1  1
 15 14  1  0
 16 14  1  0
 16 17  2  0
 18 19  1  0
 19 29  2  0
 20 19  1  0
 20 21  2  0
 21 22  1  0
 22 28  2  0
 22 23  1  0
 24 23  1  1
 24 25  1  0
 25 16  1  0
 26 24  1  0
 27 26  2  0
 29 28  1  0
 30 26  1  0
M  END
$$$$
