DQY.pdb
     RDKit          3D

 30 30  0  0  1  0  0  0  0  0999 V2000
    9.8402  -17.8821   18.3549 N   0  0  0  0  0  0  0  0  0  0  0  0
    9.1730  -16.6017   18.4538 C   0  0  1  0  0  0  0  0  0  0  0  0
    8.2233  -16.4826   17.2764 C   0  0  0  0  0  0  0  0  0  0  0  0
    9.0004  -16.3559   16.0240 C   0  0  0  0  0  0  0  0  0  0  0  0
   10.0838  -16.9752   15.9194 O   0  0  0  0  0  0  0  0  0  0  0  0
    8.3973  -16.5885   19.7201 C   0  0  0  0  0  0  0  0  0  0  0  0
    7.7767  -15.5713   20.0548 O   0  0  0  0  0  0  0  0  0  0  0  0
    8.5677  -15.5744   14.9642 O   0  0  0  0  0  0  0  0  0  0  0  0
    4.4632  -19.7621   20.2402 N   0  0  0  0  0  0  0  0  0  0  0  0
    5.6922  -20.4910   20.2715 C   0  0  0  0  0  0  0  0  0  0  0  0
    5.7747  -21.4808   19.5524 O   0  0  0  0  0  0  0  0  0  0  0  0
    6.7467  -20.0174   21.1429 C   0  0  0  0  0  0  0  0  0  0  0  0
    6.5729  -18.7596   21.8917 C   0  0  0  0  0  0  0  0  0  0  0  0
    7.6382  -17.7333   21.8431 C   0  0  2  0  0  0  0  0  0  0  0  0
    8.3439  -17.7292   20.5766 N   0  0  0  0  0  0  0  0  0  0  0  0
    8.4869  -17.6551   23.0305 C   0  0  0  0  0  0  0  0  0  0  0  0
    8.1621  -18.1189   24.1636 O   0  0  0  0  0  0  0  0  0  0  0  0
   10.8125  -13.9689   30.0150 O   0  0  0  0  0  0  0  0  0  0  0  0
   10.4719  -14.2881   28.7009 C   0  0  0  0  0  0  0  0  0  0  0  0
    9.5143  -13.5385   28.0358 C   0  0  0  0  0  0  0  0  0  0  0  0
    9.1696  -13.8506   26.7262 C   0  0  0  0  0  0  0  0  0  0  0  0
    9.7547  -14.8929   26.0577 C   0  0  0  0  0  0  0  0  0  0  0  0
    9.4325  -15.2752   24.6586 C   0  0  0  0  0  0  0  0  0  0  0  0
   10.3496  -16.3846   24.1489 C   0  0  2  0  0  0  0  0  0  0  0  0
    9.7924  -17.0344   22.9954 N   0  0  0  0  0  0  0  0  0  0  0  0
   10.4879  -17.3728   25.2352 C   0  0  0  0  0  0  0  0  0  0  0  0
   11.6133  -17.5565   25.7528 O   0  0  0  0  0  0  0  0  0  0  0  0
   10.7081  -15.6207   26.7540 C   0  0  0  0  0  0  0  0  0  0  0  0
   11.0766  -15.3437   28.0499 C   0  0  0  0  0  0  0  0  0  0  0  0
    9.4368  -18.1315   25.7378 O   0  0  0  0  0  0  0  0  0  0  0  0
  2  1  1  6
  2  6  1  0
  3  2  1  0
  4  3  1  0
  4  5  2  0
  6 15  1  0
  6  7  2  0
  8  4  1  0
 10  9  1  0
 11 10  2  0
 12 10  1  0
 13 12  1  0
 14 13  1  1
 15 14  1  0
 16 14  1  0
 16 17  2  0
 18 19  1  0
 19 29  2  0
 20 19  1  0
 20 21  2  0
 21 22  1  0
 22 28  2  0
 22 23  1  0
 24 23  1  1
 24 25  1  0
 25 16  1  0
 26 24  1  0
 27 26  2  0
 29 28  1  0
 30 26  1  0
M  END
$$$$
