DQY.pdb
     RDKit          3D

 30 30  0  0  1  0  0  0  0  0999 V2000
    9.7710  -18.8319   19.6634 N   0  0  0  0  0  0  0  0  0  0  0  0
   11.1046  -18.3366   19.3977 C   0  0  1  0  0  0  0  0  0  0  0  0
   11.2958  -18.3064   17.8927 C   0  0  0  0  0  0  0  0  0  0  0  0
   11.2080  -19.6817   17.3545 C   0  0  0  0  0  0  0  0  0  0  0  0
   11.7102  -20.6216   18.0123 O   0  0  0  0  0  0  0  0  0  0  0  0
   11.1940  -16.9558   19.9368 C   0  0  0  0  0  0  0  0  0  0  0  0
   12.2466  -16.3146   19.8242 O   0  0  0  0  0  0  0  0  0  0  0  0
   10.5882  -19.9621   16.1469 O   0  0  0  0  0  0  0  0  0  0  0  0
    7.1679  -12.5040   19.0997 N   0  0  0  0  0  0  0  0  0  0  0  0
    6.8613  -13.8831   19.3156 C   0  0  0  0  0  0  0  0  0  0  0  0
    5.7627  -14.2780   18.9402 O   0  0  0  0  0  0  0  0  0  0  0  0
    7.8580  -14.7133   19.9583 C   0  0  0  0  0  0  0  0  0  0  0  0
    9.1073  -14.1103   20.4567 C   0  0  0  0  0  0  0  0  0  0  0  0
   10.1274  -14.9749   21.0911 C   0  0  2  0  0  0  0  0  0  0  0  0
   10.0873  -16.3351   20.5907 N   0  0  0  0  0  0  0  0  0  0  0  0
   10.2412  -14.8471   22.5427 C   0  0  0  0  0  0  0  0  0  0  0  0
    9.7820  -13.8697   23.2047 O   0  0  0  0  0  0  0  0  0  0  0  0
   10.7275  -14.8909   31.0950 O   0  0  0  0  0  0  0  0  0  0  0  0
   10.5033  -15.0456   29.7274 C   0  0  0  0  0  0  0  0  0  0  0  0
   10.2994  -13.9289   28.9319 C   0  0  0  0  0  0  0  0  0  0  0  0
   10.0754  -14.0752   27.5682 C   0  0  0  0  0  0  0  0  0  0  0  0
   10.0488  -15.3079   26.9722 C   0  0  0  0  0  0  0  0  0  0  0  0
    9.8174  -15.5306   25.5215 C   0  0  0  0  0  0  0  0  0  0  0  0
   11.1298  -15.6618   24.7520 C   0  0  2  0  0  0  0  0  0  0  0  0
   10.8953  -15.8543   23.3480 N   0  0  0  0  0  0  0  0  0  0  0  0
   11.8351  -16.8421   25.2861 C   0  0  0  0  0  0  0  0  0  0  0  0
   11.4013  -17.9854   25.0165 O   0  0  0  0  0  0  0  0  0  0  0  0
   10.2566  -16.4022   27.7984 C   0  0  0  0  0  0  0  0  0  0  0  0
   10.4814  -16.2992   29.1515 C   0  0  0  0  0  0  0  0  0  0  0  0
   12.9717  -16.7763   26.0841 O   0  0  0  0  0  0  0  0  0  0  0  0
  2  1  1  6
  2  6  1  0
  3  2  1  0
  4  3  1  0
  4  5  2  0
  6 15  1  0
  6  7  2  0
  8  4  1  0
 10  9  1  0
 11 10  2  0
 12 10  1  0
 13 12  1  0
 14 13  1  1
 15 14  1  0
 16 14  1  0
 16 17  2  0
 18 19  1  0
 19 29  2  0
 20 19  1  0
 20 21  2  0
 21 22  1  0
 22 28  2  0
 22 23  1  0
 24 23  1  1
 24 25  1  0
 25 16  1  0
 26 24  1  0
 27 26  2  0
 29 28  1  0
 30 26  1  0
M  END
$$$$
