DQY.pdb
     RDKit          3D

 30 30  0  0  1  0  0  0  0  0999 V2000
    9.8612  -17.1303   19.4142 N   0  0  0  0  0  0  0  0  0  0  0  0
   10.5862  -18.3263   19.7862 C   0  0  1  0  0  0  0  0  0  0  0  0
   10.8423  -19.1245   18.5214 C   0  0  0  0  0  0  0  0  0  0  0  0
    9.5659  -19.6770   18.0172 C   0  0  0  0  0  0  0  0  0  0  0  0
    8.5027  -19.0617   18.2607 O   0  0  0  0  0  0  0  0  0  0  0  0
   11.8817  -17.9081   20.3796 C   0  0  0  0  0  0  0  0  0  0  0  0
   12.6786  -18.7617   20.7896 O   0  0  0  0  0  0  0  0  0  0  0  0
    9.5099  -20.8525   17.2851 O   0  0  0  0  0  0  0  0  0  0  0  0
   16.5217  -14.2030   18.0117 N   0  0  0  0  0  0  0  0  0  0  0  0
   15.1033  -14.2139   18.1867 C   0  0  0  0  0  0  0  0  0  0  0  0
   14.4660  -13.3139   17.6504 O   0  0  0  0  0  0  0  0  0  0  0  0
   14.5196  -15.2756   18.9790 C   0  0  0  0  0  0  0  0  0  0  0  0
   14.1544  -15.0283   20.3855 C   0  0  0  0  0  0  0  0  0  0  0  0
   13.4557  -16.0854   21.1503 C   0  0  2  0  0  0  0  0  0  0  0  0
   12.2424  -16.5317   20.4939 N   0  0  0  0  0  0  0  0  0  0  0  0
   13.3350  -15.8429   22.5867 C   0  0  0  0  0  0  0  0  0  0  0  0
   14.3021  -15.5008   23.3297 O   0  0  0  0  0  0  0  0  0  0  0  0
    9.9916  -14.7025   30.7033 O   0  0  0  0  0  0  0  0  0  0  0  0
   10.1143  -14.9364   29.3341 C   0  0  0  0  0  0  0  0  0  0  0  0
   10.2171  -13.8666   28.4587 C   0  0  0  0  0  0  0  0  0  0  0  0
   10.3398  -14.0920   27.0929 C   0  0  0  0  0  0  0  0  0  0  0  0
   10.3630  -15.3585   26.5725 C   0  0  0  0  0  0  0  0  0  0  0  0
   10.4945  -15.6654   25.1247 C   0  0  0  0  0  0  0  0  0  0  0  0
   11.9567  -15.7293   24.6895 C   0  0  2  0  0  0  0  0  0  0  0  0
   12.0718  -15.9722   23.2785 N   0  0  0  0  0  0  0  0  0  0  0  0
   12.5834  -16.8466   25.4206 C   0  0  0  0  0  0  0  0  0  0  0  0
   13.2393  -16.6040   26.4594 O   0  0  0  0  0  0  0  0  0  0  0  0
   10.2579  -16.4042   27.4774 C   0  0  0  0  0  0  0  0  0  0  0  0
   10.1351  -16.2227   28.8353 C   0  0  0  0  0  0  0  0  0  0  0  0
   12.4966  -18.1788   25.0324 O   0  0  0  0  0  0  0  0  0  0  0  0
  2  1  1  6
  2  6  1  0
  3  2  1  0
  4  3  1  0
  4  5  2  0
  6 15  1  0
  6  7  2  0
  8  4  1  0
 10  9  1  0
 11 10  2  0
 12 10  1  0
 13 12  1  0
 14 13  1  6
 15 14  1  0
 16 14  1  0
 16 17  2  0
 18 19  1  0
 19 29  2  0
 20 19  1  0
 20 21  2  0
 21 22  1  0
 22 28  2  0
 22 23  1  0
 24 23  1  1
 24 25  1  0
 25 16  1  0
 26 24  1  0
 27 26  2  0
 29 28  1  0
 30 26  1  0
M  END
$$$$
