DQY.pdb
     RDKit          3D

 30 30  0  0  1  0  0  0  0  0999 V2000
    7.8493  -21.0026   21.8081 N   0  0  0  0  0  0  0  0  0  0  0  0
    7.2009  -19.8372   22.3700 C   0  0  1  0  0  0  0  0  0  0  0  0
    7.0221  -20.0790   23.8573 C   0  0  0  0  0  0  0  0  0  0  0  0
    5.8624  -20.9707   24.0782 C   0  0  0  0  0  0  0  0  0  0  0  0
    5.3395  -21.5381   23.0920 O   0  0  0  0  0  0  0  0  0  0  0  0
    8.0972  -18.6717   22.1614 C   0  0  0  0  0  0  0  0  0  0  0  0
    9.3118  -18.8463   22.0001 O   0  0  0  0  0  0  0  0  0  0  0  0
    5.3373  -21.1973   25.3407 O   0  0  0  0  0  0  0  0  0  0  0  0
    6.7222  -13.0043   19.6394 N   0  0  0  0  0  0  0  0  0  0  0  0
    8.0371  -12.8099   20.1648 C   0  0  0  0  0  0  0  0  0  0  0  0
    8.6086  -11.7655   19.8711 O   0  0  0  0  0  0  0  0  0  0  0  0
    8.6013  -13.8496   20.9991 C   0  0  0  0  0  0  0  0  0  0  0  0
    7.8224  -15.0682   21.2837 C   0  0  0  0  0  0  0  0  0  0  0  0
    8.4523  -16.1708   22.0440 C   0  0  2  0  0  0  0  0  0  0  0  0
    7.5945  -17.3357   22.1405 N   0  0  0  0  0  0  0  0  0  0  0  0
    9.1118  -15.7769   23.2875 C   0  0  0  0  0  0  0  0  0  0  0  0
    9.9709  -14.8497   23.3693 O   0  0  0  0  0  0  0  0  0  0  0  0
    5.7496  -10.8390   26.1836 O   0  0  0  0  0  0  0  0  0  0  0  0
    6.4224  -12.0485   26.3542 C   0  0  0  0  0  0  0  0  0  0  0  0
    7.7661  -12.0476   26.6945 C   0  0  0  0  0  0  0  0  0  0  0  0
    8.4432  -13.2490   26.8662 C   0  0  0  0  0  0  0  0  0  0  0  0
    7.8166  -14.4564   26.7078 C   0  0  0  0  0  0  0  0  0  0  0  0
    8.4828  -15.7732   26.8796 C   0  0  0  0  0  0  0  0  0  0  0  0
    9.4848  -16.0514   25.7614 C   0  0  2  0  0  0  0  0  0  0  0  0
    8.8195  -16.4277   24.5452 N   0  0  0  0  0  0  0  0  0  0  0  0
   10.3387  -17.1691   26.2058 C   0  0  0  0  0  0  0  0  0  0  0  0
   10.3906  -18.2101   25.5118 O   0  0  0  0  0  0  0  0  0  0  0  0
    6.4727  -14.4191   26.3673 C   0  0  0  0  0  0  0  0  0  0  0  0
    5.7676  -13.2517   26.1885 C   0  0  0  0  0  0  0  0  0  0  0  0
   11.1073  -17.1504   27.3642 O   0  0  0  0  0  0  0  0  0  0  0  0
  2  1  1  6
  2  6  1  0
  3  2  1  0
  4  3  1  0
  4  5  2  0
  6 15  1  0
  6  7  2  0
  8  4  1  0
 10  9  1  0
 11 10  2  0
 12 10  1  0
 13 12  1  0
 14 13  1  1
 15 14  1  0
 16 14  1  0
 16 17  2  0
 18 19  1  0
 19 29  2  0
 20 19  1  0
 20 21  2  0
 21 22  1  0
 22 28  2  0
 22 23  1  0
 24 23  1  1
 24 25  1  0
 25 16  1  0
 26 24  1  0
 27 26  2  0
 29 28  1  0
 30 26  1  0
M  END
$$$$
