DQY.pdb
     RDKit          3D

 30 30  0  0  1  0  0  0  0  0999 V2000
    8.6864  -13.1199   17.4577 N   0  0  0  0  0  0  0  0  0  0  0  0
    8.2384  -14.4878   17.6082 C   0  0  1  0  0  0  0  0  0  0  0  0
    8.3271  -15.1561   16.2489 C   0  0  0  0  0  0  0  0  0  0  0  0
    7.3607  -14.5257   15.3229 C   0  0  0  0  0  0  0  0  0  0  0  0
    6.2501  -15.0752   15.1418 O   0  0  0  0  0  0  0  0  0  0  0  0
    9.1580  -15.1671   18.5558 C   0  0  0  0  0  0  0  0  0  0  0  0
    9.0294  -16.3769   18.7829 O   0  0  0  0  0  0  0  0  0  0  0  0
    7.6456  -13.3476   14.6505 O   0  0  0  0  0  0  0  0  0  0  0  0
   15.6381  -15.8595   19.6637 N   0  0  0  0  0  0  0  0  0  0  0  0
   14.9316  -15.0480   20.6044 C   0  0  0  0  0  0  0  0  0  0  0  0
   15.5623  -14.1530   21.1567 O   0  0  0  0  0  0  0  0  0  0  0  0
   13.5327  -15.3350   20.8412 C   0  0  0  0  0  0  0  0  0  0  0  0
   12.5075  -14.8051   19.9240 C   0  0  0  0  0  0  0  0  0  0  0  0
   11.0787  -15.0770   20.1981 C   0  0  2  0  0  0  0  0  0  0  0  0
   10.2018  -14.4581   19.2234 N   0  0  0  0  0  0  0  0  0  0  0  0
   10.6685  -14.9236   21.5927 C   0  0  0  0  0  0  0  0  0  0  0  0
   11.1362  -14.0437   22.3746 O   0  0  0  0  0  0  0  0  0  0  0  0
    6.3797  -10.9648   26.9086 O   0  0  0  0  0  0  0  0  0  0  0  0
    6.7186  -12.0605   26.1153 C   0  0  0  0  0  0  0  0  0  0  0  0
    7.3196  -11.8592   24.8827 C   0  0  0  0  0  0  0  0  0  0  0  0
    7.6602  -12.9462   24.0866 C   0  0  0  0  0  0  0  0  0  0  0  0
    7.4179  -14.2336   24.4858 C   0  0  0  0  0  0  0  0  0  0  0  0
    7.7600  -15.4363   23.6835 C   0  0  0  0  0  0  0  0  0  0  0  0
    9.2704  -15.6268   23.5637 C   0  0  2  0  0  0  0  0  0  0  0  0
    9.6706  -15.7808   22.1928 N   0  0  0  0  0  0  0  0  0  0  0  0
    9.6177  -16.8539   24.3049 C   0  0  0  0  0  0  0  0  0  0  0  0
    9.4678  -16.8785   25.5479 O   0  0  0  0  0  0  0  0  0  0  0  0
    6.8155  -14.3972   25.7242 C   0  0  0  0  0  0  0  0  0  0  0  0
    6.4634  -13.3480   26.5410 C   0  0  0  0  0  0  0  0  0  0  0  0
   10.1097  -18.0107   23.7110 O   0  0  0  0  0  0  0  0  0  0  0  0
  2  1  1  6
  2  6  1  0
  3  2  1  0
  4  3  1  0
  4  5  2  0
  6 15  1  0
  6  7  2  0
  8  4  1  0
 10  9  1  0
 11 10  2  0
 12 10  1  0
 13 12  1  0
 14 13  1  1
 15 14  1  0
 16 14  1  0
 16 17  2  0
 18 19  1  0
 19 29  2  0
 20 19  1  0
 20 21  2  0
 21 22  1  0
 22 28  2  0
 22 23  1  0
 24 23  1  6
 24 25  1  0
 25 16  1  0
 26 24  1  0
 27 26  2  0
 29 28  1  0
 30 26  1  0
M  END
$$$$
