DQY.pdb
     RDKit          3D

 30 30  0  0  1  0  0  0  0  0999 V2000
   13.5324  -15.9812   17.2309 N   0  0  0  0  0  0  0  0  0  0  0  0
   13.9765  -16.5963   18.4633 C   0  0  1  0  0  0  0  0  0  0  0  0
   15.1064  -15.7511   19.0214 C   0  0  0  0  0  0  0  0  0  0  0  0
   16.2767  -15.8310   18.1199 C   0  0  0  0  0  0  0  0  0  0  0  0
   16.5667  -16.9336   17.6019 O   0  0  0  0  0  0  0  0  0  0  0  0
   12.8355  -16.5888   19.4136 C   0  0  0  0  0  0  0  0  0  0  0  0
   12.1295  -15.5783   19.5247 O   0  0  0  0  0  0  0  0  0  0  0  0
   17.0611  -14.7254   17.8311 O   0  0  0  0  0  0  0  0  0  0  0  0
    9.0287  -21.3457   20.9346 N   0  0  0  0  0  0  0  0  0  0  0  0
    8.6853  -20.3699   21.9208 C   0  0  0  0  0  0  0  0  0  0  0  0
    7.7027  -20.5996   22.6176 O   0  0  0  0  0  0  0  0  0  0  0  0
    9.5116  -19.1862   22.0292 C   0  0  0  0  0  0  0  0  0  0  0  0
   10.6690  -19.0125   21.1330 C   0  0  0  0  0  0  0  0  0  0  0  0
   11.4318  -17.7447   21.1708 C   0  0  2  0  0  0  0  0  0  0  0  0
   12.5222  -17.7275   20.2154 N   0  0  0  0  0  0  0  0  0  0  0  0
   11.7651  -17.2541   22.5068 C   0  0  0  0  0  0  0  0  0  0  0  0
   12.9124  -17.3594   23.0329 O   0  0  0  0  0  0  0  0  0  0  0  0
   10.9300  -14.3370   30.8187 O   0  0  0  0  0  0  0  0  0  0  0  0
   10.6686  -14.6453   29.4841 C   0  0  0  0  0  0  0  0  0  0  0  0
   10.8774  -13.6894   28.5023 C   0  0  0  0  0  0  0  0  0  0  0  0
   10.6191  -13.9894   27.1702 C   0  0  0  0  0  0  0  0  0  0  0  0
   10.1567  -15.2202   26.7870 C   0  0  0  0  0  0  0  0  0  0  0  0
    9.8645  -15.6034   25.3816 C   0  0  0  0  0  0  0  0  0  0  0  0
   11.0820  -16.2214   24.6979 C   0  0  2  0  0  0  0  0  0  0  0  0
   10.7879  -16.5913   23.3415 N   0  0  0  0  0  0  0  0  0  0  0  0
   11.4433  -17.4331   25.4574 C   0  0  0  0  0  0  0  0  0  0  0  0
   10.7538  -18.4690   25.3169 O   0  0  0  0  0  0  0  0  0  0  0  0
    9.9593  -16.1514   27.7956 C   0  0  0  0  0  0  0  0  0  0  0  0
   10.2030  -15.8935   29.1245 C   0  0  0  0  0  0  0  0  0  0  0  0
   12.5175  -17.5110   26.3367 O   0  0  0  0  0  0  0  0  0  0  0  0
  2  1  1  6
  2  6  1  0
  3  2  1  0
  4  3  1  0
  4  5  2  0
  6 15  1  0
  6  7  2  0
  8  4  1  0
 10  9  1  0
 11 10  2  0
 12 10  1  0
 13 12  1  0
 14 13  1  1
 15 14  1  0
 16 14  1  0
 16 17  2  0
 18 19  1  0
 19 29  2  0
 20 19  1  0
 20 21  2  0
 21 22  1  0
 22 28  2  0
 22 23  1  0
 24 23  1  1
 24 25  1  0
 25 16  1  0
 26 24  1  0
 27 26  2  0
 29 28  1  0
 30 26  1  0
M  END
$$$$
