EGI.pdb
     RDKit          3D

 22 21  0  0  1  0  0  0  0  0999 V2000
    7.5111  -15.5810   21.8004 N   0  0  0  0  0  0  0  0  0  0  0  0
    7.9923  -16.8467   21.2044 C   0  0  1  0  0  0  0  0  0  0  0  0
    8.6611  -16.4846   19.9055 C   0  0  0  0  0  0  0  0  0  0  0  0
    7.7322  -15.9575   18.8825 C   0  0  0  0  0  0  0  0  0  0  0  0
    8.3964  -15.7143   17.5994 C   0  0  0  0  0  0  0  0  0  0  0  0
    9.6190  -15.9121   17.4690 O   0  0  0  0  0  0  0  0  0  0  0  0
    8.9783  -17.4346   22.1529 C   0  0  0  0  0  0  0  0  0  0  0  0
    9.4393  -18.6067   21.9266 O   0  0  0  0  0  0  0  0  0  0  0  0
    7.7094  -15.2554   16.4704 O   0  0  0  0  0  0  0  0  0  0  0  0
    9.4126  -16.7316   23.2829 N   0  0  0  0  0  0  0  0  0  0  0  0
   10.5430  -17.2773   24.0200 C   0  0  0  0  0  0  0  0  0  0  0  0
   10.6507  -16.5893   25.3286 C   0  0  0  0  0  0  0  0  0  0  0  0
   11.6322  -16.7030   26.1091 O   0  0  0  0  0  0  0  0  0  0  0  0
    6.8942  -12.6003   25.5960 C   0  0  0  0  0  0  0  0  0  0  0  0
    8.1444  -13.3991   25.6045 C   0  0  0  0  0  0  0  0  0  0  0  0
    8.6067  -13.9387   26.9049 C   0  0  2  0  0  0  0  0  0  0  0  0
    8.6268  -12.9577   28.0387 C   0  0  0  0  0  0  0  0  0  0  0  0
    9.8047  -14.8308   26.9241 C   0  0  2  0  0  0  0  0  0  0  0  0
    9.5989  -15.7391   25.7638 N   0  0  0  0  0  0  0  0  0  0  0  0
    9.9093  -15.6416   28.1441 C   0  0  0  0  0  0  0  0  0  0  0  0
   10.6505  -15.3578   29.2611 O   0  0  0  0  0  0  0  0  0  0  0  0
    9.2500  -16.7461   28.2012 O   0  0  0  0  0  0  0  0  0  0  0  0
  2  1  1  1
  2  3  1  0
  3  4  1  0
  4  5  1  0
  5  9  1  0
  6  5  2  0
  7  2  1  0
  7  8  2  0
 10  7  1  0
 11 10  1  0
 11 12  1  0
 12 13  2  0
 12 19  1  0
 15 14  1  0
 16 15  1  0
 16 17  1  1
 18 16  1  0
 18 20  1  0
 18 19  1  6
 20 21  1  0
 22 20  2  0
M  END
$$$$
