EGI.pdb
     RDKit          3D

 22 21  0  0  1  0  0  0  0  0999 V2000
    8.5958  -12.9617   18.9623 N   0  0  0  0  0  0  0  0  0  0  0  0
    7.4928  -13.8309   18.4971 C   0  0  1  0  0  0  0  0  0  0  0  0
    8.0580  -14.6958   17.4026 C   0  0  0  0  0  0  0  0  0  0  0  0
    8.7147  -13.9335   16.3186 C   0  0  0  0  0  0  0  0  0  0  0  0
    9.2791  -14.8069   15.2864 C   0  0  0  0  0  0  0  0  0  0  0  0
    8.6150  -15.1098   14.2774 O   0  0  0  0  0  0  0  0  0  0  0  0
    7.0698  -14.6655   19.6557 C   0  0  0  0  0  0  0  0  0  0  0  0
    6.1088  -15.4975   19.5073 O   0  0  0  0  0  0  0  0  0  0  0  0
   10.5698  -15.3395   15.3733 O   0  0  0  0  0  0  0  0  0  0  0  0
    7.7023  -14.5608   20.9001 N   0  0  0  0  0  0  0  0  0  0  0  0
    7.2927  -15.4912   21.9420 C   0  0  0  0  0  0  0  0  0  0  0  0
    8.0476  -15.1973   23.1834 C   0  0  0  0  0  0  0  0  0  0  0  0
    9.3020  -15.2510   23.2783 O   0  0  0  0  0  0  0  0  0  0  0  0
    5.5837  -12.1950   27.4448 C   0  0  0  0  0  0  0  0  0  0  0  0
    6.0238  -13.1868   26.4328 C   0  0  0  0  0  0  0  0  0  0  0  0
    7.4428  -13.1516   26.0074 C   0  0  2  0  0  0  0  0  0  0  0  0
    7.8177  -12.0111   25.1090 C   0  0  0  0  0  0  0  0  0  0  0  0
    8.0944  -14.4271   25.5831 C   0  0  2  0  0  0  0  0  0  0  0  0
    7.3450  -14.8281   24.3619 N   0  0  0  0  0  0  0  0  0  0  0  0
    7.9806  -15.5002   26.5792 C   0  0  0  0  0  0  0  0  0  0  0  0
    7.1875  -16.6150   26.5026 O   0  0  0  0  0  0  0  0  0  0  0  0
    8.6846  -15.4125   27.6537 O   0  0  0  0  0  0  0  0  0  0  0  0
  2  1  1  1
  2  3  1  0
  3  4  1  0
  4  5  1  0
  5  9  1  0
  6  5  2  0
  7  2  1  0
  7  8  2  0
 10  7  1  0
 11 10  1  0
 11 12  1  0
 12 13  2  0
 12 19  1  0
 15 14  1  0
 16 15  1  0
 16 17  1  6
 18 16  1  0
 18 20  1  0
 18 19  1  6
 20 21  1  0
 22 20  2  0
M  END
$$$$
