EGI.pdb
     RDKit          3D

 22 21  0  0  1  0  0  0  0  0999 V2000
    8.0753  -18.0563   19.4436 N   0  0  0  0  0  0  0  0  0  0  0  0
    8.3149  -19.0101   20.5487 C   0  0  1  0  0  0  0  0  0  0  0  0
    9.8051  -19.2022   20.6369 C   0  0  0  0  0  0  0  0  0  0  0  0
   10.5692  -17.9364   20.6680 C   0  0  0  0  0  0  0  0  0  0  0  0
   12.0154  -18.1603   20.7398 C   0  0  0  0  0  0  0  0  0  0  0  0
   12.5488  -19.0817   20.0936 O   0  0  0  0  0  0  0  0  0  0  0  0
    7.7952  -18.3817   21.7948 C   0  0  0  0  0  0  0  0  0  0  0  0
    7.8539  -19.0343   22.8940 O   0  0  0  0  0  0  0  0  0  0  0  0
   12.8625  -17.3683   21.5222 O   0  0  0  0  0  0  0  0  0  0  0  0
    7.2476  -17.0934   21.7889 N   0  0  0  0  0  0  0  0  0  0  0  0
    6.6167  -16.6261   23.0147 C   0  0  0  0  0  0  0  0  0  0  0  0
    7.6332  -15.9608   23.8641 C   0  0  0  0  0  0  0  0  0  0  0  0
    8.8479  -15.8439   23.5538 O   0  0  0  0  0  0  0  0  0  0  0  0
    5.8766  -11.4901   25.9049 C   0  0  0  0  0  0  0  0  0  0  0  0
    6.6959  -12.6179   25.3970 C   0  0  0  0  0  0  0  0  0  0  0  0
    7.4248  -13.4404   26.3910 C   0  0  2  0  0  0  0  0  0  0  0  0
    8.1532  -12.6721   27.4528 C   0  0  0  0  0  0  0  0  0  0  0  0
    8.2224  -14.6072   25.9072 C   0  0  2  0  0  0  0  0  0  0  0  0
    7.2498  -15.4076   25.1154 N   0  0  0  0  0  0  0  0  0  0  0  0
    8.7486  -15.4449   26.9926 C   0  0  0  0  0  0  0  0  0  0  0  0
   10.0198  -15.4284   27.5040 O   0  0  0  0  0  0  0  0  0  0  0  0
    7.9581  -16.3006   27.5412 O   0  0  0  0  0  0  0  0  0  0  0  0
  2  1  1  6
  2  3  1  0
  3  4  1  0
  4  5  1  0
  5  9  1  0
  6  5  2  0
  7  2  1  0
  7  8  2  0
 10  7  1  0
 11 10  1  0
 11 12  1  0
 12 13  2  0
 12 19  1  0
 15 14  1  0
 16 15  1  0
 16 17  1  6
 18 16  1  0
 18 20  1  0
 18 19  1  6
 20 21  1  0
 22 20  2  0
M  END
$$$$
