EGI.pdb
     RDKit          3D

 22 21  0  0  1  0  0  0  0  0999 V2000
    7.9804  -19.1533   20.7985 N   0  0  0  0  0  0  0  0  0  0  0  0
    9.2931  -18.4747   20.7286 C   0  0  1  0  0  0  0  0  0  0  0  0
    9.7414  -18.5501   19.2938 C   0  0  0  0  0  0  0  0  0  0  0  0
    8.8270  -19.3194   18.4224 C   0  0  0  0  0  0  0  0  0  0  0  0
    9.3512  -19.4734   17.0629 C   0  0  0  0  0  0  0  0  0  0  0  0
    9.3332  -20.5824   16.4966 O   0  0  0  0  0  0  0  0  0  0  0  0
    9.0800  -17.0580   21.1350 C   0  0  0  0  0  0  0  0  0  0  0  0
   10.0881  -16.2740   21.2163 O   0  0  0  0  0  0  0  0  0  0  0  0
    9.8907  -18.4055   16.3380 O   0  0  0  0  0  0  0  0  0  0  0  0
    7.8019  -16.5667   21.4263 N   0  0  0  0  0  0  0  0  0  0  0  0
    7.6998  -15.1866   21.8779 C   0  0  0  0  0  0  0  0  0  0  0  0
    8.3324  -15.0615   23.2127 C   0  0  0  0  0  0  0  0  0  0  0  0
    9.5683  -15.1775   23.4237 O   0  0  0  0  0  0  0  0  0  0  0  0
    5.6420  -11.9014   27.0763 C   0  0  0  0  0  0  0  0  0  0  0  0
    6.1277  -13.0152   26.2248 C   0  0  0  0  0  0  0  0  0  0  0  0
    7.5893  -13.1289   26.0092 C   0  0  2  0  0  0  0  0  0  0  0  0
    8.2083  -12.0290   25.1995 C   0  0  0  0  0  0  0  0  0  0  0  0
    8.1586  -14.4638   25.6553 C   0  0  2  0  0  0  0  0  0  0  0  0
    7.5245  -14.7939   24.3504 N   0  0  0  0  0  0  0  0  0  0  0  0
    7.8223  -15.5168   26.6221 C   0  0  0  0  0  0  0  0  0  0  0  0
    6.8477  -16.4716   26.4950 O   0  0  0  0  0  0  0  0  0  0  0  0
    8.4929  -15.5741   27.7199 O   0  0  0  0  0  0  0  0  0  0  0  0
  2  1  1  6
  2  3  1  0
  3  4  1  0
  4  5  1  0
  5  9  1  0
  6  5  2  0
  7  2  1  0
  7  8  2  0
 10  7  1  0
 11 10  1  0
 11 12  1  0
 12 13  2  0
 12 19  1  0
 15 14  1  0
 16 15  1  0
 16 17  1  6
 18 16  1  0
 18 20  1  0
 18 19  1  6
 20 21  1  0
 22 20  2  0
M  END
$$$$
