EGI.pdb
     RDKit          3D

 22 21  0  0  1  0  0  0  0  0999 V2000
    9.7271  -18.8086   20.1746 N   0  0  0  0  0  0  0  0  0  0  0  0
    8.9367  -17.7172   19.5643 C   0  0  1  0  0  0  0  0  0  0  0  0
    8.1030  -18.3436   18.4790 C   0  0  0  0  0  0  0  0  0  0  0  0
    8.8989  -18.9554   17.3929 C   0  0  0  0  0  0  0  0  0  0  0  0
    8.8595  -18.1647   16.1601 C   0  0  0  0  0  0  0  0  0  0  0  0
    7.7756  -17.9128   15.6009 O   0  0  0  0  0  0  0  0  0  0  0  0
    8.0651  -17.1529   20.6318 C   0  0  0  0  0  0  0  0  0  0  0  0
    7.4371  -17.9506   21.4109 O   0  0  0  0  0  0  0  0  0  0  0  0
   10.0134  -17.6576   15.5531 O   0  0  0  0  0  0  0  0  0  0  0  0
    7.9214  -15.7709   20.8020 N   0  0  0  0  0  0  0  0  0  0  0  0
    7.0598  -15.3133   21.8823 C   0  0  0  0  0  0  0  0  0  0  0  0
    7.8759  -15.1016   23.1016 C   0  0  0  0  0  0  0  0  0  0  0  0
    9.1024  -15.3726   23.1879 O   0  0  0  0  0  0  0  0  0  0  0  0
    5.9205  -11.0781   26.0864 C   0  0  0  0  0  0  0  0  0  0  0  0
    6.7038  -12.1118   25.3658 C   0  0  0  0  0  0  0  0  0  0  0  0
    7.3333  -13.1838   26.1722 C   0  0  2  0  0  0  0  0  0  0  0  0
    8.0384  -12.7260   27.4138 C   0  0  0  0  0  0  0  0  0  0  0  0
    8.0970  -14.2558   25.4658 C   0  0  2  0  0  0  0  0  0  0  0  0
    7.2699  -14.5600   24.2670 N   0  0  0  0  0  0  0  0  0  0  0  0
    8.2483  -15.4832   26.2576 C   0  0  0  0  0  0  0  0  0  0  0  0
    9.3527  -15.8747   26.9681 O   0  0  0  0  0  0  0  0  0  0  0  0
    7.2573  -16.3039   26.3065 O   0  0  0  0  0  0  0  0  0  0  0  0
  2  1  1  1
  2  3  1  0
  3  4  1  0
  4  5  1  0
  5  9  1  0
  6  5  2  0
  7  2  1  0
  7  8  2  0
 10  7  1  0
 11 10  1  0
 11 12  1  0
 12 13  2  0
 12 19  1  0
 15 14  1  0
 16 15  1  0
 16 17  1  1
 18 16  1  0
 18 20  1  0
 18 19  1  6
 20 21  1  0
 22 20  2  0
M  END
$$$$
