EGI.pdb
     RDKit          3D

 22 21  0  0  1  0  0  0  0  0999 V2000
-895079.7500137569.9062-118633.2969 N   0  0  0  0  0  0  0  0  0  0  0  0
-895080.9375137568.9062-118633.8828 C   0  0  1  0  0  0  0  0  0  0  0  0
-895081.0000137567.9688-118632.9609 C   0  0  0  0  0  0  0  0  0  0  0  0
-895080.0625137567.8750-118631.9531 C   0  0  0  0  0  0  0  0  0  0  0  0
-895079.0000137566.8750-118632.1641 C   0  0  0  0  0  0  0  0  0  0  0  0
-895078.8125137566.0312-118631.3906 O   0  0  0  0  0  0  0  0  0  0  0  0
-895082.0625137569.8750-118633.9844 C   0  0  0  0  0  0  0  0  0  0  0  0
-895082.1875137571.0000-118633.3125 O   0  0  0  0  0  0  0  0  0  0  0  0
-895078.0000137566.8750-118633.2812 O   0  0  0  0  0  0  0  0  0  0  0  0
-895083.1875137569.6562-118634.5859 N   0  0  0  0  0  0  0  0  0  0  0  0
-895084.3750137570.1250-118634.0781 C   0  0  0  0  0  0  0  0  0  0  0  0
-895085.0000137571.2656-118634.9609 C   0  0  0  0  0  0  0  0  0  0  0  0
-895085.0625137571.1719-118636.1953 O   0  0  0  0  0  0  0  0  0  0  0  0
-895087.5625137569.7188-118631.4375 C   0  0  0  0  0  0  0  0  0  0  0  0
-895087.0625137570.3906-118632.5547 C   0  0  0  0  0  0  0  0  0  0  0  0
-895086.0625137571.1875-118632.4297 C   0  0  2  0  0  0  0  0  0  0  0  0
-895085.6250137571.5000-118630.8125 C   0  0  0  0  0  0  0  0  0  0  0  0
-895085.9375137572.5938-118632.9141 C   0  0  2  0  0  0  0  0  0  0  0  0
-895085.3750137572.3750-118634.4375 N   0  0  0  0  0  0  0  0  0  0  0  0
-895085.0625137573.8125-118632.3672 C   0  0  0  0  0  0  0  0  0  0  0  0
-895085.5000137574.7812-118631.6562 O   0  0  0  0  0  0  0  0  0  0  0  0
-895083.9375137573.6250-118632.3516 O   0  0  0  0  0  0  0  0  0  0  0  0
  2  1  1  1
  2  3  1  0
  3  4  1  0
  4  5  1  0
  5  9  1  0
  6  5  2  0
  7  2  1  0
  7  8  2  0
 10  7  1  0
 11 10  1  0
 11 12  1  0
 12 13  2  0
 12 19  1  0
 15 14  1  0
 16 15  1  0
 16 17  1  1
 18 16  1  0
 18 20  1  0
 18 19  1  6
 20 21  1  0
 22 20  2  0
M  END
$$$$
