EGI.pdb
     RDKit          3D

 22 21  0  0  1  0  0  0  0  0999 V2000
    7.7502  -18.7868   21.9542 N   0  0  0  0  0  0  0  0  0  0  0  0
    9.1866  -18.7436   21.6028 C   0  0  1  0  0  0  0  0  0  0  0  0
    9.3172  -19.3781   20.2443 C   0  0  0  0  0  0  0  0  0  0  0  0
    8.4340  -18.7811   19.2192 C   0  0  0  0  0  0  0  0  0  0  0  0
    8.5396  -19.4636   17.9270 C   0  0  0  0  0  0  0  0  0  0  0  0
    7.6625  -20.2677   17.5593 O   0  0  0  0  0  0  0  0  0  0  0  0
    9.5851  -17.3096   21.5495 C   0  0  0  0  0  0  0  0  0  0  0  0
   10.7817  -17.0069   21.2118 O   0  0  0  0  0  0  0  0  0  0  0  0
    9.6097  -19.2555   17.0503 O   0  0  0  0  0  0  0  0  0  0  0  0
    8.6786  -16.2884   21.8577 N   0  0  0  0  0  0  0  0  0  0  0  0
    9.1267  -14.9154   21.6760 C   0  0  0  0  0  0  0  0  0  0  0  0
    8.9040  -14.1589   22.9312 C   0  0  0  0  0  0  0  0  0  0  0  0
    9.0615  -12.9149   23.0450 O   0  0  0  0  0  0  0  0  0  0  0  0
    6.5729  -11.6146   27.1834 C   0  0  0  0  0  0  0  0  0  0  0  0
    7.7618  -12.4417   26.8615 C   0  0  0  0  0  0  0  0  0  0  0  0
    7.6247  -13.4545   25.7885 C   0  0  2  0  0  0  0  0  0  0  0  0
    6.3597  -14.2587   25.8199 C   0  0  0  0  0  0  0  0  0  0  0  0
    8.8086  -14.2988   25.4461 C   0  0  2  0  0  0  0  0  0  0  0  0
    8.4856  -14.8475   24.1014 N   0  0  0  0  0  0  0  0  0  0  0  0
    9.0154  -15.4179   26.3743 C   0  0  0  0  0  0  0  0  0  0  0  0
    9.7262  -15.3965   27.5456 O   0  0  0  0  0  0  0  0  0  0  0  0
    8.4900  -16.5569   26.0836 O   0  0  0  0  0  0  0  0  0  0  0  0
  2  1  1  6
  2  3  1  0
  3  4  1  0
  4  5  1  0
  5  9  1  0
  6  5  2  0
  7  2  1  0
  7  8  2  0
 10  7  1  0
 11 10  1  0
 11 12  1  0
 12 13  2  0
 12 19  1  0
 15 14  1  0
 16 15  1  0
 16 17  1  1
 18 16  1  0
 18 20  1  0
 18 19  1  6
 20 21  1  0
 22 20  2  0
M  END
$$$$
