EGI.pdb
     RDKit          3D

 22 21  0  0  1  0  0  0  0  0999 V2000
    7.9964  -18.4063   18.1679 N   0  0  0  0  0  0  0  0  0  0  0  0
    8.3037  -18.6800   19.5888 C   0  0  1  0  0  0  0  0  0  0  0  0
    9.7923  -18.5227   19.7460 C   0  0  0  0  0  0  0  0  0  0  0  0
   10.5184  -18.4023   18.4632 C   0  0  0  0  0  0  0  0  0  0  0  0
   11.9588  -18.2136   18.6540 C   0  0  0  0  0  0  0  0  0  0  0  0
   12.7146  -18.0587   17.6764 O   0  0  0  0  0  0  0  0  0  0  0  0
    7.5826  -17.6608   20.4007 C   0  0  0  0  0  0  0  0  0  0  0  0
    6.3714  -17.3716   20.1061 O   0  0  0  0  0  0  0  0  0  0  0  0
   12.5553  -18.1969   19.9193 O   0  0  0  0  0  0  0  0  0  0  0  0
    8.2005  -17.0162   21.4789 N   0  0  0  0  0  0  0  0  0  0  0  0
    7.3443  -16.3002   22.4133 C   0  0  0  0  0  0  0  0  0  0  0  0
    8.1706  -15.7673   23.5227 C   0  0  0  0  0  0  0  0  0  0  0  0
    9.3797  -16.0643   23.7103 O   0  0  0  0  0  0  0  0  0  0  0  0
    5.9316  -11.3030   25.9210 C   0  0  0  0  0  0  0  0  0  0  0  0
    6.8485  -12.2788   25.2820 C   0  0  0  0  0  0  0  0  0  0  0  0
    7.5448  -13.2464   26.1622 C   0  0  2  0  0  0  0  0  0  0  0  0
    8.1580  -12.6647   27.4007 C   0  0  0  0  0  0  0  0  0  0  0  0
    8.4305  -14.2739   25.5367 C   0  0  2  0  0  0  0  0  0  0  0  0
    7.5959  -14.8609   24.4538 N   0  0  0  0  0  0  0  0  0  0  0  0
    8.8248  -15.3451   26.4606 C   0  0  0  0  0  0  0  0  0  0  0  0
   10.0394  -15.4962   27.0768 O   0  0  0  0  0  0  0  0  0  0  0  0
    7.9618  -16.2593   26.7391 O   0  0  0  0  0  0  0  0  0  0  0  0
  2  1  1  6
  2  3  1  0
  3  4  1  0
  4  5  1  0
  5  9  1  0
  6  5  2  0
  7  2  1  0
  7  8  2  0
 10  7  1  0
 11 10  1  0
 11 12  1  0
 12 13  2  0
 12 19  1  0
 15 14  1  0
 16 15  1  0
 16 17  1  1
 18 16  1  0
 18 20  1  0
 18 19  1  6
 20 21  1  0
 22 20  2  0
M  END
$$$$
