EGI.pdb
     RDKit          3D

 22 21  0  0  1  0  0  0  0  0999 V2000
    9.9876  -17.9518   19.4404 N   0  0  0  0  0  0  0  0  0  0  0  0
    9.8333  -18.6242   20.7490 C   0  0  1  0  0  0  0  0  0  0  0  0
   11.1843  -18.5927   21.4117 C   0  0  0  0  0  0  0  0  0  0  0  0
   12.2923  -18.2538   20.4925 C   0  0  0  0  0  0  0  0  0  0  0  0
   13.5996  -18.3087   21.1518 C   0  0  0  0  0  0  0  0  0  0  0  0
   14.3677  -17.3289   21.1229 O   0  0  0  0  0  0  0  0  0  0  0  0
    8.8468  -17.8350   21.5374 C   0  0  0  0  0  0  0  0  0  0  0  0
    8.4414  -18.2891   22.6631 O   0  0  0  0  0  0  0  0  0  0  0  0
   14.0506  -19.4416   21.8375 O   0  0  0  0  0  0  0  0  0  0  0  0
    8.3571  -16.6079   21.0747 N   0  0  0  0  0  0  0  0  0  0  0  0
    7.4290  -15.8880   21.9344 C   0  0  0  0  0  0  0  0  0  0  0  0
    8.1934  -15.1471   22.9660 C   0  0  0  0  0  0  0  0  0  0  0  0
    9.4087  -14.8356   22.8586 O   0  0  0  0  0  0  0  0  0  0  0  0
    6.6461  -10.7365   26.7838 C   0  0  0  0  0  0  0  0  0  0  0  0
    7.6628  -11.7600   26.4373 C   0  0  0  0  0  0  0  0  0  0  0  0
    7.2414  -12.8788   25.5617 C   0  0  2  0  0  0  0  0  0  0  0  0
    5.9380  -13.5251   25.9249 C   0  0  0  0  0  0  0  0  0  0  0  0
    8.2627  -13.8876   25.1483 C   0  0  2  0  0  0  0  0  0  0  0  0
    7.5472  -14.7460   24.1661 N   0  0  0  0  0  0  0  0  0  0  0  0
    8.7327  -14.7299   26.2556 C   0  0  0  0  0  0  0  0  0  0  0  0
    8.3603  -16.0208   26.5246 O   0  0  0  0  0  0  0  0  0  0  0  0
    9.5830  -14.2306   27.0838 O   0  0  0  0  0  0  0  0  0  0  0  0
  2  1  1  6
  2  3  1  0
  3  4  1  0
  4  5  1  0
  5  9  1  0
  6  5  2  0
  7  2  1  0
  7  8  2  0
 10  7  1  0
 11 10  1  0
 11 12  1  0
 12 13  2  0
 12 19  1  0
 15 14  1  0
 16 15  1  0
 16 17  1  1
 18 16  1  0
 18 20  1  0
 18 19  1  6
 20 21  1  0
 22 20  2  0
M  END
$$$$
