EGI.pdb
     RDKit          3D

 22 21  0  0  1  0  0  0  0  0999 V2000
    6.4091  -19.7719   20.8231 N   0  0  0  0  0  0  0  0  0  0  0  0
    6.5702  -20.5735   22.0560 C   0  0  1  0  0  0  0  0  0  0  0  0
    8.0053  -21.0260   22.0914 C   0  0  0  0  0  0  0  0  0  0  0  0
    8.9551  -20.0432   21.5264 C   0  0  0  0  0  0  0  0  0  0  0  0
   10.3459  -20.4938   21.6225 C   0  0  0  0  0  0  0  0  0  0  0  0
   10.6749  -21.3698   22.4442 O   0  0  0  0  0  0  0  0  0  0  0  0
    6.2776  -19.6759   23.2077 C   0  0  0  0  0  0  0  0  0  0  0  0
    6.2740  -20.1613   24.3917 O   0  0  0  0  0  0  0  0  0  0  0  0
   11.3631  -19.9765   20.8133 O   0  0  0  0  0  0  0  0  0  0  0  0
    6.0097  -18.3144   23.0221 N   0  0  0  0  0  0  0  0  0  0  0  0
    5.7524  -17.5127   24.2095 C   0  0  0  0  0  0  0  0  0  0  0  0
    6.9381  -16.6706   24.4966 C   0  0  0  0  0  0  0  0  0  0  0  0
    8.0103  -16.7101   23.8377 O   0  0  0  0  0  0  0  0  0  0  0  0
    5.6746  -11.7452   26.2950 C   0  0  0  0  0  0  0  0  0  0  0  0
    6.3344  -12.9053   25.6468 C   0  0  0  0  0  0  0  0  0  0  0  0
    7.3964  -13.6054   26.4070 C   0  0  2  0  0  0  0  0  0  0  0  0
    8.4069  -12.7170   27.0687 C   0  0  0  0  0  0  0  0  0  0  0  0
    8.0341  -14.8119   25.7995 C   0  0  2  0  0  0  0  0  0  0  0  0
    6.8995  -15.7481   25.5765 N   0  0  0  0  0  0  0  0  0  0  0  0
    9.0137  -15.4605   26.6807 C   0  0  0  0  0  0  0  0  0  0  0  0
   10.3774  -15.3379   26.6284 O   0  0  0  0  0  0  0  0  0  0  0  0
    8.5778  -16.2383   27.6098 O   0  0  0  0  0  0  0  0  0  0  0  0
  2  1  1  6
  2  3  1  0
  3  4  1  0
  4  5  1  0
  5  9  1  0
  6  5  2  0
  7  2  1  0
  7  8  2  0
 10  7  1  0
 11 10  1  0
 11 12  1  0
 12 13  2  0
 12 19  1  0
 15 14  1  0
 16 15  1  0
 16 17  1  6
 18 16  1  0
 18 20  1  0
 18 19  1  1
 20 21  1  0
 22 20  2  0
M  END
$$$$
