EGI.pdb
     RDKit          3D

 22 21  0  0  1  0  0  0  0  0999 V2000
    9.0246  -18.0136   19.6797 N   0  0  0  0  0  0  0  0  0  0  0  0
    7.8701  -17.1233   19.4283 C   0  0  1  0  0  0  0  0  0  0  0  0
    6.8479  -17.9419   18.6865 C   0  0  0  0  0  0  0  0  0  0  0  0
    6.5220  -19.2268   19.3425 C   0  0  0  0  0  0  0  0  0  0  0  0
    5.4969  -19.9794   18.6150 C   0  0  0  0  0  0  0  0  0  0  0  0
    5.0410  -19.5538   17.5370 O   0  0  0  0  0  0  0  0  0  0  0  0
    7.3395  -16.7033   20.7549 C   0  0  0  0  0  0  0  0  0  0  0  0
    6.4814  -15.7556   20.8118 O   0  0  0  0  0  0  0  0  0  0  0  0
    4.9820  -21.1942   19.0799 O   0  0  0  0  0  0  0  0  0  0  0  0
    7.7569  -17.3245   21.9378 N   0  0  0  0  0  0  0  0  0  0  0  0
    7.1290  -16.8960   23.1792 C   0  0  0  0  0  0  0  0  0  0  0  0
    7.9766  -15.8654   23.8248 C   0  0  0  0  0  0  0  0  0  0  0  0
    9.1430  -15.5730   23.4513 O   0  0  0  0  0  0  0  0  0  0  0  0
    6.0393  -11.6649   27.3330 C   0  0  0  0  0  0  0  0  0  0  0  0
    6.2615  -12.8743   26.5027 C   0  0  0  0  0  0  0  0  0  0  0  0
    7.4437  -12.8872   25.6094 C   0  0  2  0  0  0  0  0  0  0  0  0
    7.2133  -12.3502   24.2285 C   0  0  0  0  0  0  0  0  0  0  0  0
    8.3147  -14.1007   25.5927 C   0  0  2  0  0  0  0  0  0  0  0  0
    7.4749  -15.1405   24.9391 N   0  0  0  0  0  0  0  0  0  0  0  0
    8.6872  -14.5703   26.9333 C   0  0  0  0  0  0  0  0  0  0  0  0
    8.2206  -15.6880   27.5742 O   0  0  0  0  0  0  0  0  0  0  0  0
    9.5378  -13.8779   27.6079 O   0  0  0  0  0  0  0  0  0  0  0  0
  2  1  1  1
  2  3  1  0
  3  4  1  0
  4  5  1  0
  5  9  1  0
  6  5  2  0
  7  2  1  0
  7  8  2  0
 10  7  1  0
 11 10  1  0
 11 12  1  0
 12 13  2  0
 12 19  1  0
 15 14  1  0
 16 15  1  0
 16 17  1  6
 18 16  1  0
 18 20  1  0
 18 19  1  1
 20 21  1  0
 22 20  2  0
M  END
$$$$
