EGI.pdb
     RDKit          3D

 22 21  0  0  1  0  0  0  0  0999 V2000
    8.8981  -18.5328   19.7551 N   0  0  0  0  0  0  0  0  0  0  0  0
    8.5109  -17.1568   19.3742 C   0  0  1  0  0  0  0  0  0  0  0  0
    7.5370  -17.2831   18.2336 C   0  0  0  0  0  0  0  0  0  0  0  0
    8.1798  -17.5267   16.9241 C   0  0  0  0  0  0  0  0  0  0  0  0
    7.3672  -18.3818   16.0551 C   0  0  0  0  0  0  0  0  0  0  0  0
    6.2609  -18.8076   16.4369 O   0  0  0  0  0  0  0  0  0  0  0  0
    7.8507  -16.5402   20.5582 C   0  0  0  0  0  0  0  0  0  0  0  0
    7.4353  -15.3322   20.4820 O   0  0  0  0  0  0  0  0  0  0  0  0
    7.7789  -18.7611   14.7731 O   0  0  0  0  0  0  0  0  0  0  0  0
    7.6731  -17.2543   21.7490 N   0  0  0  0  0  0  0  0  0  0  0  0
    6.9358  -16.6007   22.8204 C   0  0  0  0  0  0  0  0  0  0  0  0
    7.8895  -15.8980   23.7116 C   0  0  0  0  0  0  0  0  0  0  0  0
    9.1355  -15.8699   23.5329 O   0  0  0  0  0  0  0  0  0  0  0  0
    5.5594  -11.7754   26.3541 C   0  0  0  0  0  0  0  0  0  0  0  0
    6.5379  -12.6151   25.6201 C   0  0  0  0  0  0  0  0  0  0  0  0
    7.4627  -13.4518   26.4204 C   0  0  2  0  0  0  0  0  0  0  0  0
    8.1999  -12.7341   27.5112 C   0  0  0  0  0  0  0  0  0  0  0  0
    8.3413  -14.4283   25.7090 C   0  0  2  0  0  0  0  0  0  0  0  0
    7.4035  -15.2007   24.8501 N   0  0  0  0  0  0  0  0  0  0  0  0
    9.0291  -15.3602   26.6119 C   0  0  0  0  0  0  0  0  0  0  0  0
   10.3229  -15.2745   27.0550 O   0  0  0  0  0  0  0  0  0  0  0  0
    8.3763  -16.3806   27.0485 O   0  0  0  0  0  0  0  0  0  0  0  0
  2  1  1  1
  2  3  1  0
  3  4  1  0
  4  5  1  0
  5  9  1  0
  6  5  2  0
  7  2  1  0
  7  8  2  0
 10  7  1  0
 11 10  1  0
 11 12  1  0
 12 13  2  0
 12 19  1  0
 15 14  1  0
 16 15  1  0
 16 17  1  6
 18 16  1  0
 18 20  1  0
 18 19  1  6
 20 21  1  0
 22 20  2  0
M  END
$$$$
