EGI.pdb
     RDKit          3D

 22 21  0  0  1  0  0  0  0  0999 V2000
   10.5653  -19.0598   19.9905 N   0  0  0  0  0  0  0  0  0  0  0  0
    9.8891  -17.8000   19.6106 C   0  0  1  0  0  0  0  0  0  0  0  0
    9.1650  -18.0719   18.3195 C   0  0  0  0  0  0  0  0  0  0  0  0
    9.4772  -19.3901   17.7261 C   0  0  0  0  0  0  0  0  0  0  0  0
   10.1249  -19.2725   16.4172 C   0  0  0  0  0  0  0  0  0  0  0  0
   10.4071  -18.1550   15.9458 O   0  0  0  0  0  0  0  0  0  0  0  0
    8.9203  -17.4750   20.6939 C   0  0  0  0  0  0  0  0  0  0  0  0
    8.5155  -18.4088   21.4696 O   0  0  0  0  0  0  0  0  0  0  0  0
   10.4567  -20.3861   15.6381 O   0  0  0  0  0  0  0  0  0  0  0  0
    8.4466  -16.1713   20.8823 N   0  0  0  0  0  0  0  0  0  0  0  0
    7.5054  -15.9494   21.9704 C   0  0  0  0  0  0  0  0  0  0  0  0
    8.1973  -15.2506   23.0797 C   0  0  0  0  0  0  0  0  0  0  0  0
    9.4224  -14.9600   23.0781 O   0  0  0  0  0  0  0  0  0  0  0  0
    6.5827  -10.9057   26.9356 C   0  0  0  0  0  0  0  0  0  0  0  0
    7.5669  -11.9696   26.6181 C   0  0  0  0  0  0  0  0  0  0  0  0
    7.1620  -13.0130   25.6468 C   0  0  2  0  0  0  0  0  0  0  0  0
    5.7676  -13.5392   25.8108 C   0  0  0  0  0  0  0  0  0  0  0  0
    8.1303  -14.1036   25.3232 C   0  0  2  0  0  0  0  0  0  0  0  0
    7.4639  -14.8687   24.2351 N   0  0  0  0  0  0  0  0  0  0  0  0
    8.3851  -15.0111   26.4493 C   0  0  0  0  0  0  0  0  0  0  0  0
    7.8186  -16.2406   26.6613 O   0  0  0  0  0  0  0  0  0  0  0  0
    9.2217  -14.6398   27.3550 O   0  0  0  0  0  0  0  0  0  0  0  0
  2  1  1  1
  2  3  1  0
  3  4  1  0
  4  5  1  0
  5  9  1  0
  6  5  2  0
  7  2  1  0
  7  8  2  0
 10  7  1  0
 11 10  1  0
 11 12  1  0
 12 13  2  0
 12 19  1  0
 15 14  1  0
 16 15  1  0
 16 17  1  1
 18 16  1  0
 18 20  1  0
 18 19  1  6
 20 21  1  0
 22 20  2  0
M  END
$$$$
