EGI.pdb
     RDKit          3D

 22 21  0  0  1  0  0  0  0  0999 V2000
    9.1688  -17.7246   19.3442 N   0  0  0  0  0  0  0  0  0  0  0  0
    9.0699  -18.5907   20.5395 C   0  0  1  0  0  0  0  0  0  0  0  0
   10.4758  -18.8107   21.0299 C   0  0  0  0  0  0  0  0  0  0  0  0
   11.4561  -17.8474   20.4837 C   0  0  0  0  0  0  0  0  0  0  0  0
   12.8143  -18.0967   20.9733 C   0  0  0  0  0  0  0  0  0  0  0  0
   13.8018  -17.8805   20.2460 O   0  0  0  0  0  0  0  0  0  0  0  0
    8.2725  -17.8505   21.5563 C   0  0  0  0  0  0  0  0  0  0  0  0
    7.8608  -18.4697   22.5978 O   0  0  0  0  0  0  0  0  0  0  0  0
   13.0743  -18.5820   22.2594 O   0  0  0  0  0  0  0  0  0  0  0  0
    7.9671  -16.4936   21.3979 N   0  0  0  0  0  0  0  0  0  0  0  0
    7.1403  -15.8675   22.4193 C   0  0  0  0  0  0  0  0  0  0  0  0
    8.0120  -15.3267   23.4894 C   0  0  0  0  0  0  0  0  0  0  0  0
    9.2641  -15.4561   23.5150 O   0  0  0  0  0  0  0  0  0  0  0  0
    5.8928  -11.1492   26.7433 C   0  0  0  0  0  0  0  0  0  0  0  0
    6.3776  -12.5104   26.4063 C   0  0  0  0  0  0  0  0  0  0  0  0
    7.7264  -12.6305   25.8047 C   0  0  2  0  0  0  0  0  0  0  0  0
    7.9865  -11.7431   24.6245 C   0  0  0  0  0  0  0  0  0  0  0  0
    8.3037  -13.9943   25.6091 C   0  0  2  0  0  0  0  0  0  0  0  0
    7.4334  -14.6108   24.5718 N   0  0  0  0  0  0  0  0  0  0  0  0
    8.2575  -14.8267   26.8181 C   0  0  0  0  0  0  0  0  0  0  0  0
    9.1245  -14.7885   27.8786 O   0  0  0  0  0  0  0  0  0  0  0  0
    7.3166  -15.6995   26.9225 O   0  0  0  0  0  0  0  0  0  0  0  0
  2  1  1  6
  2  3  1  0
  3  4  1  0
  4  5  1  0
  5  9  1  0
  6  5  2  0
  7  2  1  0
  7  8  2  0
 10  7  1  0
 11 10  1  0
 11 12  1  0
 12 13  2  0
 12 19  1  0
 15 14  1  0
 16 15  1  0
 16 17  1  6
 18 16  1  0
 18 20  1  0
 18 19  1  6
 20 21  1  0
 22 20  2  0
M  END
$$$$
