EGI.pdb
     RDKit          3D

 22 21  0  0  1  0  0  0  0  0999 V2000
    8.7750  -19.8302   22.2229 N   0  0  0  0  0  0  0  0  0  0  0  0
    7.4828  -19.2179   21.8434 C   0  0  1  0  0  0  0  0  0  0  0  0
    6.6038  -19.2751   23.0638 C   0  0  0  0  0  0  0  0  0  0  0  0
    5.2226  -18.8023   22.8272 C   0  0  0  0  0  0  0  0  0  0  0  0
    4.2839  -19.9074   22.6168 C   0  0  0  0  0  0  0  0  0  0  0  0
    4.3238  -20.9215   23.3386 O   0  0  0  0  0  0  0  0  0  0  0  0
    7.7584  -17.8043   21.4645 C   0  0  0  0  0  0  0  0  0  0  0  0
    7.8750  -17.5016   20.2266 O   0  0  0  0  0  0  0  0  0  0  0  0
    3.3090  -19.8872   21.6137 O   0  0  0  0  0  0  0  0  0  0  0  0
    7.8893  -16.8016   22.4325 N   0  0  0  0  0  0  0  0  0  0  0  0
    8.1725  -15.4518   21.9671 C   0  0  0  0  0  0  0  0  0  0  0  0
    8.3039  -14.5497   23.1361 C   0  0  0  0  0  0  0  0  0  0  0  0
    8.6833  -13.3511   23.0658 O   0  0  0  0  0  0  0  0  0  0  0  0
    5.4097  -12.3497   26.1807 C   0  0  0  0  0  0  0  0  0  0  0  0
    6.5032  -13.0670   25.4800 C   0  0  0  0  0  0  0  0  0  0  0  0
    7.5661  -13.6804   26.3106 C   0  0  2  0  0  0  0  0  0  0  0  0
    8.1011  -12.8163   27.4130 C   0  0  0  0  0  0  0  0  0  0  0  0
    8.6538  -14.4455   25.6301 C   0  0  2  0  0  0  0  0  0  0  0  0
    7.9906  -15.0330   24.4349 N   0  0  0  0  0  0  0  0  0  0  0  0
    9.2009  -15.5352   26.4485 C   0  0  0  0  0  0  0  0  0  0  0  0
   10.2928  -15.4773   27.2744 O   0  0  0  0  0  0  0  0  0  0  0  0
    8.6186  -16.6828   26.4048 O   0  0  0  0  0  0  0  0  0  0  0  0
  2  1  1  1
  2  3  1  0
  3  4  1  0
  4  5  1  0
  5  9  1  0
  6  5  2  0
  7  2  1  0
  7  8  2  0
 10  7  1  0
 11 10  1  0
 11 12  1  0
 12 13  2  0
 12 19  1  0
 15 14  1  0
 16 15  1  0
 16 17  1  6
 18 16  1  0
 18 20  1  0
 18 19  1  6
 20 21  1  0
 22 20  2  0
M  END
$$$$
