CFD.pdb
     RDKit          3D

 26 26  0  0  1  0  0  0  0  0999 V2000
    7.8211  -12.7060   19.6568 N   0  0  0  0  0  0  0  0  0  0  0  0
    7.6313  -14.0252   20.2190 C   0  0  1  0  0  0  0  0  0  0  0  0
    8.1495  -15.1094   19.3266 C   0  0  0  0  0  0  0  0  0  0  0  0
    6.9804  -15.5481   18.0151 S   0  0  0  0  0  0  0  0  0  0  0  0
    8.3271  -14.1398   21.5457 C   0  0  0  0  0  0  0  0  0  0  0  0
    9.4867  -13.6597   21.6936 O   0  0  0  0  0  0  0  0  0  0  0  0
    7.7133  -14.7818   22.6532 N   0  0  0  0  0  0  0  0  0  0  0  0
    8.4281  -14.8509   23.9234 C   0  0  1  0  0  0  0  0  0  0  0  0
    7.4863  -15.0082   25.0675 C   0  0  0  0  0  0  0  0  0  0  0  0
    7.1058  -13.7345   25.6900 C   0  0  0  0  0  0  0  0  0  0  0  0
    8.0718  -12.8665   26.2121 C   0  0  0  0  0  0  0  0  0  0  0  0
    7.7498  -11.6621   26.7833 C   0  0  0  0  0  0  0  0  0  0  0  0
    6.4442  -11.2570   26.8651 C   0  0  0  0  0  0  0  0  0  0  0  0
    5.4763  -12.0824   26.3636 C   0  0  0  0  0  0  0  0  0  0  0  0
    5.8075  -13.2898   25.7908 C   0  0  0  0  0  0  0  0  0  0  0  0
    9.4545  -15.9095   23.9032 C   0  0  0  0  0  0  0  0  0  0  0  0
    9.1637  -17.0230   23.4336 O   0  0  0  0  0  0  0  0  0  0  0  0
   10.7725  -15.7236   24.3959 N   0  0  0  0  0  0  0  0  0  0  0  0
   11.7791  -16.7843   24.2754 C   0  0  1  0  0  0  0  0  0  0  0  0
   13.1311  -16.1584   23.9837 C   0  0  0  0  0  0  0  0  0  0  0  0
   14.1949  -17.1395   23.7878 C   0  0  0  0  0  0  0  0  0  0  0  0
   13.9322  -18.2722   23.3120 O   0  0  0  0  0  0  0  0  0  0  0  0
   11.7807  -17.6411   25.4692 C   0  0  0  0  0  0  0  0  0  0  0  0
   12.2316  -18.9518   25.4366 O   0  0  0  0  0  0  0  0  0  0  0  0
   15.5034  -16.8326   24.1242 O   0  0  0  0  0  0  0  0  0  0  0  0
   11.3639  -17.1971   26.5821 O   0  0  0  0  0  0  0  0  0  0  0  0
  2  1  1  6
  3  2  1  0
  3  4  1  0
  5  7  1  0
  5  2  1  0
  6  5  2  0
  8  7  1  0
  9 10  1  0
  8  9  1  1
 10 11  2  0
 10 15  1  0
 11 12  1  0
 12 13  2  0
 14 13  1  0
 15 14  2  0
 16 17  2  0
 16  8  1  0
 18 16  1  0
 19 20  1  1
 19 18  1  0
 20 21  1  0
 21 25  1  0
 21 22  2  0
 23 19  1  0
 24 23  1  0
 26 23  2  0
M  END
$$$$
