CFD.pdb
     RDKit          3D

 26 26  0  0  1  0  0  0  0  0999 V2000
   10.4180  -16.1254   19.3348 N   0  0  0  0  0  0  0  0  0  0  0  0
    9.8569  -16.8613   20.4466 C   0  0  1  0  0  0  0  0  0  0  0  0
   10.6335  -18.1007   20.7649 C   0  0  0  0  0  0  0  0  0  0  0  0
    9.9161  -19.0365   22.1393 S   0  0  0  0  0  0  0  0  0  0  0  0
    9.8165  -16.0056   21.6808 C   0  0  0  0  0  0  0  0  0  0  0  0
   10.8586  -15.4027   22.0650 O   0  0  0  0  0  0  0  0  0  0  0  0
    8.6267  -15.8531   22.4402 N   0  0  0  0  0  0  0  0  0  0  0  0
    8.6383  -14.9928   23.6187 C   0  0  1  0  0  0  0  0  0  0  0  0
    7.2819  -14.4455   23.9037 C   0  0  0  0  0  0  0  0  0  0  0  0
    7.2375  -13.5839   25.0912 C   0  0  0  0  0  0  0  0  0  0  0  0
    6.3889  -13.8747   26.1656 C   0  0  0  0  0  0  0  0  0  0  0  0
    6.3376  -13.0998   27.2958 C   0  0  0  0  0  0  0  0  0  0  0  0
    7.1313  -11.9903   27.4162 C   0  0  0  0  0  0  0  0  0  0  0  0
    7.9721  -11.6791   26.3838 C   0  0  0  0  0  0  0  0  0  0  0  0
    8.0186  -12.4625   25.2525 C   0  0  0  0  0  0  0  0  0  0  0  0
    9.2086  -15.6911   24.7856 C   0  0  0  0  0  0  0  0  0  0  0  0
    8.7139  -16.7744   25.1416 O   0  0  0  0  0  0  0  0  0  0  0  0
   10.3055  -15.1879   25.5328 N   0  0  0  0  0  0  0  0  0  0  0  0
   10.9017  -15.9736   26.6191 C   0  0  1  0  0  0  0  0  0  0  0  0
   12.3911  -15.6870   26.6831 C   0  0  0  0  0  0  0  0  0  0  0  0
   13.1387  -16.2461   25.5601 C   0  0  0  0  0  0  0  0  0  0  0  0
   12.5578  -16.9606   24.7054 O   0  0  0  0  0  0  0  0  0  0  0  0
   10.2062  -15.7215   27.8888 C   0  0  0  0  0  0  0  0  0  0  0  0
   10.2321  -16.6283   28.9374 O   0  0  0  0  0  0  0  0  0  0  0  0
   14.4946  -15.9956   25.4254 O   0  0  0  0  0  0  0  0  0  0  0  0
    9.5530  -14.6483   28.0641 O   0  0  0  0  0  0  0  0  0  0  0  0
  2  1  1  6
  3  2  1  0
  3  4  1  0
  5  7  1  0
  5  2  1  0
  6  5  2  0
  8  7  1  0
  9 10  1  0
  8  9  1  1
 10 11  2  0
 10 15  1  0
 11 12  1  0
 12 13  2  0
 14 13  1  0
 15 14  2  0
 16 17  2  0
 16  8  1  0
 18 16  1  0
 19 20  1  1
 19 18  1  0
 20 21  1  0
 21 25  1  0
 21 22  2  0
 23 19  1  0
 24 23  1  0
 26 23  2  0
M  END
$$$$
