CFD.pdb
     RDKit          3D

 26 26  0  0  1  0  0  0  0  0999 V2000
    8.8217  -15.3347   19.4413 N   0  0  0  0  0  0  0  0  0  0  0  0
    7.9790  -15.8436   20.5011 C   0  0  1  0  0  0  0  0  0  0  0  0
    7.8388  -17.3332   20.4579 C   0  0  0  0  0  0  0  0  0  0  0  0
    9.4111  -18.1875   20.7362 S   0  0  0  0  0  0  0  0  0  0  0  0
    8.5334  -15.4655   21.8454 C   0  0  0  0  0  0  0  0  0  0  0  0
    9.7554  -15.1652   21.9622 O   0  0  0  0  0  0  0  0  0  0  0  0
    7.7148  -15.4367   23.0049 N   0  0  0  0  0  0  0  0  0  0  0  0
    8.3147  -15.1059   24.2932 C   0  0  1  0  0  0  0  0  0  0  0  0
    7.2855  -14.6486   25.2690 C   0  0  0  0  0  0  0  0  0  0  0  0
    7.8557  -14.1093   26.5095 C   0  0  0  0  0  0  0  0  0  0  0  0
    8.1485  -14.9436   27.5945 C   0  0  0  0  0  0  0  0  0  0  0  0
    8.6980  -14.4730   28.7596 C   0  0  0  0  0  0  0  0  0  0  0  0
    8.9858  -13.1422   28.9062 C   0  0  0  0  0  0  0  0  0  0  0  0
    8.7119  -12.3007   27.8639 C   0  0  0  0  0  0  0  0  0  0  0  0
    8.1609  -12.7807   26.6969 C   0  0  0  0  0  0  0  0  0  0  0  0
    9.1116  -16.2305   24.8172 C   0  0  0  0  0  0  0  0  0  0  0  0
    8.6307  -17.3762   24.7877 O   0  0  0  0  0  0  0  0  0  0  0  0
   10.4141  -16.0740   25.3592 N   0  0  0  0  0  0  0  0  0  0  0  0
   11.2480  -17.2415   25.6669 C   0  0  1  0  0  0  0  0  0  0  0  0
   12.6941  -16.9242   25.3312 C   0  0  0  0  0  0  0  0  0  0  0  0
   12.8983  -16.5563   23.9328 C   0  0  0  0  0  0  0  0  0  0  0  0
   13.6684  -15.6102   23.6326 O   0  0  0  0  0  0  0  0  0  0  0  0
   11.0549  -17.6690   27.0595 C   0  0  0  0  0  0  0  0  0  0  0  0
   11.3271  -16.8341   28.1325 O   0  0  0  0  0  0  0  0  0  0  0  0
   12.2456  -17.2453   22.9234 O   0  0  0  0  0  0  0  0  0  0  0  0
   10.6251  -18.8330   27.3229 O   0  0  0  0  0  0  0  0  0  0  0  0
  2  1  1  6
  3  2  1  0
  3  4  1  0
  5  7  1  0
  5  2  1  0
  6  5  2  0
  8  7  1  0
  9 10  1  0
  8  9  1  1
 10 11  2  0
 10 15  1  0
 11 12  1  0
 12 13  2  0
 14 13  1  0
 15 14  2  0
 16 17  2  0
 16  8  1  0
 18 16  1  0
 19 20  1  1
 19 18  1  0
 20 21  1  0
 21 25  1  0
 21 22  2  0
 23 19  1  0
 24 23  1  0
 26 23  2  0
M  END
$$$$
