CFD.pdb
     RDKit          3D

 26 26  0  0  1  0  0  0  0  0999 V2000
    8.3923  -14.6468   19.8582 N   0  0  0  0  0  0  0  0  0  0  0  0
    7.5790  -15.0716   20.9764 C   0  0  1  0  0  0  0  0  0  0  0  0
    7.1075  -16.4856   20.8388 C   0  0  0  0  0  0  0  0  0  0  0  0
    8.4574  -17.6848   20.9767 S   0  0  0  0  0  0  0  0  0  0  0  0
    8.3476  -14.9586   22.2624 C   0  0  0  0  0  0  0  0  0  0  0  0
    9.5320  -14.5178   22.2530 O   0  0  0  0  0  0  0  0  0  0  0  0
    7.7761  -15.3392   23.5050 N   0  0  0  0  0  0  0  0  0  0  0  0
    8.4898  -15.0355   24.7409 C   0  0  1  0  0  0  0  0  0  0  0  0
    7.5476  -14.8623   25.8824 C   0  0  0  0  0  0  0  0  0  0  0  0
    7.1233  -13.4716   26.0834 C   0  0  0  0  0  0  0  0  0  0  0  0
    5.7874  -13.1542   26.3554 C   0  0  0  0  0  0  0  0  0  0  0  0
    5.3631  -11.8672   26.5657 C   0  0  0  0  0  0  0  0  0  0  0  0
    6.2497  -10.8246   26.5160 C   0  0  0  0  0  0  0  0  0  0  0  0
    7.5626  -11.1016   26.2528 C   0  0  0  0  0  0  0  0  0  0  0  0
    7.9812  -12.3965   26.0436 C   0  0  0  0  0  0  0  0  0  0  0  0
    9.5223  -16.0490   25.0258 C   0  0  0  0  0  0  0  0  0  0  0  0
   10.1223  -16.0098   26.1137 O   0  0  0  0  0  0  0  0  0  0  0  0
    9.8718  -17.0798   24.1149 N   0  0  0  0  0  0  0  0  0  0  0  0
   10.9084  -18.0627   24.4500 C   0  0  1  0  0  0  0  0  0  0  0  0
   10.2736  -19.4366   24.5692 C   0  0  0  0  0  0  0  0  0  0  0  0
   10.5898  -20.1154   25.8230 C   0  0  0  0  0  0  0  0  0  0  0  0
   11.3536  -19.5744   26.6610 O   0  0  0  0  0  0  0  0  0  0  0  0
   12.0090  -18.0135   23.4775 C   0  0  0  0  0  0  0  0  0  0  0  0
   13.3392  -17.9955   23.8684 O   0  0  0  0  0  0  0  0  0  0  0  0
   10.0521  -21.3615   26.1013 O   0  0  0  0  0  0  0  0  0  0  0  0
   11.7684  -17.9872   22.2323 O   0  0  0  0  0  0  0  0  0  0  0  0
  2  1  1  6
  3  2  1  0
  3  4  1  0
  5  7  1  0
  5  2  1  0
  6  5  2  0
  8  7  1  0
  9 10  1  0
  8  9  1  1
 10 11  2  0
 10 15  1  0
 11 12  1  0
 12 13  2  0
 14 13  1  0
 15 14  2  0
 16 17  2  0
 16  8  1  0
 18 16  1  0
 19 20  1  6
 19 18  1  0
 20 21  1  0
 21 25  1  0
 21 22  2  0
 23 19  1  0
 24 23  1  0
 26 23  2  0
M  END
$$$$
