CFD.pdb
     RDKit          3D

 26 26  0  0  1  0  0  0  0  0999 V2000
    9.9884  -16.3072   18.9330 N   0  0  0  0  0  0  0  0  0  0  0  0
    8.8553  -16.6059   19.7811 C   0  0  1  0  0  0  0  0  0  0  0  0
    8.6812  -18.0749   20.0102 C   0  0  0  0  0  0  0  0  0  0  0  0
   10.0801  -18.8109   20.8937 S   0  0  0  0  0  0  0  0  0  0  0  0
    9.0058  -15.9392   21.1190 C   0  0  0  0  0  0  0  0  0  0  0  0
   10.1558  -15.6393   21.5488 O   0  0  0  0  0  0  0  0  0  0  0  0
    7.8795  -15.6332   21.9272 N   0  0  0  0  0  0  0  0  0  0  0  0
    8.0796  -14.9442   23.1978 C   0  0  1  0  0  0  0  0  0  0  0  0
    6.8407  -14.2399   23.6335 C   0  0  0  0  0  0  0  0  0  0  0  0
    6.9972  -13.5111   24.8980 C   0  0  0  0  0  0  0  0  0  0  0  0
    7.4622  -12.1911   24.9202 C   0  0  0  0  0  0  0  0  0  0  0  0
    7.6021  -11.4778   26.0831 C   0  0  0  0  0  0  0  0  0  0  0  0
    7.2854  -12.0434   27.2894 C   0  0  0  0  0  0  0  0  0  0  0  0
    6.8278  -13.3318   27.3016 C   0  0  0  0  0  0  0  0  0  0  0  0
    6.6892  -14.0413   26.1298 C   0  0  0  0  0  0  0  0  0  0  0  0
    8.5843  -15.8653   24.2327 C   0  0  0  0  0  0  0  0  0  0  0  0
    8.0255  -16.9649   24.3863 O   0  0  0  0  0  0  0  0  0  0  0  0
    9.6876  -15.5614   25.0725 N   0  0  0  0  0  0  0  0  0  0  0  0
   10.2790  -16.5858   25.9406 C   0  0  1  0  0  0  0  0  0  0  0  0
   11.7597  -16.7095   25.6293 C   0  0  0  0  0  0  0  0  0  0  0  0
   12.3507  -17.9572   26.1052 C   0  0  0  0  0  0  0  0  0  0  0  0
   11.6349  -18.8234   26.6671 O   0  0  0  0  0  0  0  0  0  0  0  0
   10.0047  -16.2943   27.3545 C   0  0  0  0  0  0  0  0  0  0  0  0
    9.9374  -17.2924   28.3145 O   0  0  0  0  0  0  0  0  0  0  0  0
   13.7053  -18.1988   25.9430 O   0  0  0  0  0  0  0  0  0  0  0  0
    9.8202  -15.1008   27.7427 O   0  0  0  0  0  0  0  0  0  0  0  0
  2  1  1  6
  3  2  1  0
  3  4  1  0
  5  7  1  0
  5  2  1  0
  6  5  2  0
  8  7  1  0
  9 10  1  0
  8  9  1  1
 10 11  2  0
 10 15  1  0
 11 12  1  0
 12 13  2  0
 14 13  1  0
 15 14  2  0
 16 17  2  0
 16  8  1  0
 18 16  1  0
 19 20  1  1
 19 18  1  0
 20 21  1  0
 21 25  1  0
 21 22  2  0
 23 19  1  0
 24 23  1  0
 26 23  2  0
M  END
$$$$
