CFD.pdb
     RDKit          3D

 26 26  0  0  1  0  0  0  0  0999 V2000
    6.2818  -16.0918   19.4153 N   0  0  0  0  0  0  0  0  0  0  0  0
    6.4447  -16.9352   20.5791 C   0  0  1  0  0  0  0  0  0  0  0  0
    7.2380  -18.1704   20.2864 C   0  0  0  0  0  0  0  0  0  0  0  0
    7.5226  -19.1796   21.7628 S   0  0  0  0  0  0  0  0  0  0  0  0
    7.1369  -16.1862   21.6824 C   0  0  0  0  0  0  0  0  0  0  0  0
    8.1580  -15.4870   21.4263 O   0  0  0  0  0  0  0  0  0  0  0  0
    6.6730  -16.2424   23.0229 N   0  0  0  0  0  0  0  0  0  0  0  0
    7.3471  -15.4482   24.0446 C   0  0  1  0  0  0  0  0  0  0  0  0
    6.4061  -15.0481   25.1286 C   0  0  0  0  0  0  0  0  0  0  0  0
    6.9776  -14.0766   26.0690 C   0  0  0  0  0  0  0  0  0  0  0  0
    6.7240  -12.7063   25.9378 C   0  0  0  0  0  0  0  0  0  0  0  0
    7.2283  -11.7760   26.8101 C   0  0  0  0  0  0  0  0  0  0  0  0
    8.0145  -12.1624   27.8626 C   0  0  0  0  0  0  0  0  0  0  0  0
    8.2806  -13.4945   28.0187 C   0  0  0  0  0  0  0  0  0  0  0  0
    7.7700  -14.4228   27.1393 C   0  0  0  0  0  0  0  0  0  0  0  0
    8.5319  -16.1496   24.5727 C   0  0  0  0  0  0  0  0  0  0  0  0
    8.4195  -17.3317   24.9398 O   0  0  0  0  0  0  0  0  0  0  0  0
    9.8094  -15.5411   24.6849 N   0  0  0  0  0  0  0  0  0  0  0  0
   10.9911  -16.3307   25.0494 C   0  0  1  0  0  0  0  0  0  0  0  0
   12.2408  -15.5949   24.6003 C   0  0  0  0  0  0  0  0  0  0  0  0
   13.4729  -16.3386   24.8480 C   0  0  0  0  0  0  0  0  0  0  0  0
   14.5893  -15.7791   24.7094 O   0  0  0  0  0  0  0  0  0  0  0  0
   10.9865  -16.6460   26.4847 C   0  0  0  0  0  0  0  0  0  0  0  0
   11.0738  -15.6614   27.4571 O   0  0  0  0  0  0  0  0  0  0  0  0
   13.4245  -17.6673   25.2374 O   0  0  0  0  0  0  0  0  0  0  0  0
   10.8996  -17.8480   26.8805 O   0  0  0  0  0  0  0  0  0  0  0  0
  2  1  1  6
  3  2  1  0
  3  4  1  0
  5  7  1  0
  5  2  1  0
  6  5  2  0
  8  7  1  0
  9 10  1  0
  8  9  1  1
 10 11  2  0
 10 15  1  0
 11 12  1  0
 12 13  2  0
 14 13  1  0
 15 14  2  0
 16 17  2  0
 16  8  1  0
 18 16  1  0
 19 20  1  1
 19 18  1  0
 20 21  1  0
 21 25  1  0
 21 22  2  0
 23 19  1  0
 24 23  1  0
 26 23  2  0
M  END
$$$$
