CFD.pdb
     RDKit          3D

 26 26  0  0  1  0  0  0  0  0999 V2000
    8.4235  -18.2349   17.5837 N   0  0  0  0  0  0  0  0  0  0  0  0
    8.5579  -18.6087   18.9746 C   0  0  1  0  0  0  0  0  0  0  0  0
    9.1056  -19.9911   19.1471 C   0  0  0  0  0  0  0  0  0  0  0  0
    9.2149  -20.4832   20.8864 S   0  0  0  0  0  0  0  0  0  0  0  0
    9.4672  -17.6530   19.6937 C   0  0  0  0  0  0  0  0  0  0  0  0
   10.5239  -17.2448   19.1334 O   0  0  0  0  0  0  0  0  0  0  0  0
    9.1720  -17.1895   21.0027 N   0  0  0  0  0  0  0  0  0  0  0  0
   10.0868  -16.2564   21.6519 C   0  0  1  0  0  0  0  0  0  0  0  0
    9.3463  -15.1596   22.3372 C   0  0  0  0  0  0  0  0  0  0  0  0
    8.5901  -14.3018   21.4169 C   0  0  0  0  0  0  0  0  0  0  0  0
    7.2022  -14.4266   21.2861 C   0  0  0  0  0  0  0  0  0  0  0  0
    6.4654  -13.6285   20.4488 C   0  0  0  0  0  0  0  0  0  0  0  0
    7.0741  -12.6607   19.6950 C   0  0  0  0  0  0  0  0  0  0  0  0
    8.4293  -12.5130   19.8004 C   0  0  0  0  0  0  0  0  0  0  0  0
    9.1622  -13.3176   20.6439 C   0  0  0  0  0  0  0  0  0  0  0  0
   11.0066  -16.9575   22.5667 C   0  0  0  0  0  0  0  0  0  0  0  0
   10.5555  -17.8406   23.3162 O   0  0  0  0  0  0  0  0  0  0  0  0
   12.3960  -16.6760   22.6382 N   0  0  0  0  0  0  0  0  0  0  0  0
   13.2796  -17.4571   23.5112 C   0  0  1  0  0  0  0  0  0  0  0  0
   14.6219  -17.6412   22.8264 C   0  0  0  0  0  0  0  0  0  0  0  0
   15.2428  -16.3840   22.4183 C   0  0  0  0  0  0  0  0  0  0  0  0
   15.0891  -15.3474   23.1112 O   0  0  0  0  0  0  0  0  0  0  0  0
   13.3847  -16.8359   24.8387 C   0  0  0  0  0  0  0  0  0  0  0  0
   12.7212  -15.6613   25.1588 O   0  0  0  0  0  0  0  0  0  0  0  0
   16.0065  -16.3206   21.2641 O   0  0  0  0  0  0  0  0  0  0  0  0
   14.0964  -17.3671   25.7446 O   0  0  0  0  0  0  0  0  0  0  0  0
  2  1  1  6
  3  2  1  0
  3  4  1  0
  5  7  1  0
  5  2  1  0
  6  5  2  0
  8  7  1  0
  9 10  1  0
  8  9  1  1
 10 11  2  0
 10 15  1  0
 11 12  1  0
 12 13  2  0
 14 13  1  0
 15 14  2  0
 16 17  2  0
 16  8  1  0
 18 16  1  0
 19 20  1  6
 19 18  1  0
 20 21  1  0
 21 25  1  0
 21 22  2  0
 23 19  1  0
 24 23  1  0
 26 23  2  0
M  END
$$$$
