CFD.pdb
     RDKit          3D

 26 26  0  0  1  0  0  0  0  0999 V2000
    8.6446  -15.3019   19.4186 N   0  0  0  0  0  0  0  0  0  0  0  0
    8.0353  -15.9093   20.5815 C   0  0  1  0  0  0  0  0  0  0  0  0
    8.0260  -17.4044   20.5098 C   0  0  0  0  0  0  0  0  0  0  0  0
    6.5310  -18.0529   19.7201 S   0  0  0  0  0  0  0  0  0  0  0  0
    8.7642  -15.5061   21.8318 C   0  0  0  0  0  0  0  0  0  0  0  0
   10.0138  -15.3199   21.8015 O   0  0  0  0  0  0  0  0  0  0  0  0
    8.0823  -15.3274   23.0641 N   0  0  0  0  0  0  0  0  0  0  0  0
    8.8559  -15.1838   24.2929 C   0  0  1  0  0  0  0  0  0  0  0  0
    7.9926  -14.7574   25.4303 C   0  0  0  0  0  0  0  0  0  0  0  0
    8.7390  -14.5141   26.6706 C   0  0  0  0  0  0  0  0  0  0  0  0
    8.9755  -15.5449   27.5875 C   0  0  0  0  0  0  0  0  0  0  0  0
    9.6843  -15.3536   28.7458 C   0  0  0  0  0  0  0  0  0  0  0  0
   10.1967  -14.1214   29.0534 C   0  0  0  0  0  0  0  0  0  0  0  0
    9.9832  -13.0931   28.1777 C   0  0  0  0  0  0  0  0  0  0  0  0
    9.2713  -13.2932   27.0163 C   0  0  0  0  0  0  0  0  0  0  0  0
    9.6060  -16.4156   24.6003 C   0  0  0  0  0  0  0  0  0  0  0  0
    9.0587  -17.5167   24.4181 O   0  0  0  0  0  0  0  0  0  0  0  0
   10.9353  -16.4124   25.0979 N   0  0  0  0  0  0  0  0  0  0  0  0
   11.6966  -17.6604   25.2228 C   0  0  1  0  0  0  0  0  0  0  0  0
   12.9548  -17.5640   24.3787 C   0  0  0  0  0  0  0  0  0  0  0  0
   13.8478  -18.7089   24.5349 C   0  0  0  0  0  0  0  0  0  0  0  0
   13.4730  -19.8567   24.1877 O   0  0  0  0  0  0  0  0  0  0  0  0
   11.9658  -17.9693   26.6340 C   0  0  0  0  0  0  0  0  0  0  0  0
   11.5939  -17.1148   27.6606 O   0  0  0  0  0  0  0  0  0  0  0  0
   15.1160  -18.5423   25.0673 O   0  0  0  0  0  0  0  0  0  0  0  0
   12.5546  -19.0453   26.9576 O   0  0  0  0  0  0  0  0  0  0  0  0
  2  1  1  6
  3  2  1  0
  3  4  1  0
  5  7  1  0
  5  2  1  0
  6  5  2  0
  8  7  1  0
  9 10  1  0
  8  9  1  1
 10 11  2  0
 10 15  1  0
 11 12  1  0
 12 13  2  0
 14 13  1  0
 15 14  2  0
 16 17  2  0
 16  8  1  0
 18 16  1  0
 19 20  1  6
 19 18  1  0
 20 21  1  0
 21 25  1  0
 21 22  2  0
 23 19  1  0
 24 23  1  0
 26 23  2  0
M  END
$$$$
