CFD.pdb
     RDKit          3D

 26 26  0  0  1  0  0  0  0  0999 V2000
    8.2306  -17.2905   19.2148 N   0  0  0  0  0  0  0  0  0  0  0  0
    7.7377  -17.8003   20.4755 C   0  0  1  0  0  0  0  0  0  0  0  0
    8.2502  -19.1736   20.7791 C   0  0  0  0  0  0  0  0  0  0  0  0
    9.9583  -19.1606   21.3805 S   0  0  0  0  0  0  0  0  0  0  0  0
    8.1359  -16.8929   21.6049 C   0  0  0  0  0  0  0  0  0  0  0  0
    9.2065  -16.2255   21.5306 O   0  0  0  0  0  0  0  0  0  0  0  0
    7.3354  -16.7622   22.7701 N   0  0  0  0  0  0  0  0  0  0  0  0
    7.6906  -15.7612   23.7705 C   0  0  1  0  0  0  0  0  0  0  0  0
    6.4833  -15.2530   24.4812 C   0  0  0  0  0  0  0  0  0  0  0  0
    6.7785  -14.1839   25.4427 C   0  0  0  0  0  0  0  0  0  0  0  0
    6.9604  -14.4626   26.8022 C   0  0  0  0  0  0  0  0  0  0  0  0
    7.2548  -13.4889   27.7219 C   0  0  0  0  0  0  0  0  0  0  0  0
    7.3841  -12.1816   27.3349 C   0  0  0  0  0  0  0  0  0  0  0  0
    7.2128  -11.8765   26.0131 C   0  0  0  0  0  0  0  0  0  0  0  0
    6.9181  -12.8598   25.0955 C   0  0  0  0  0  0  0  0  0  0  0  0
    8.7064  -16.2770   24.7067 C   0  0  0  0  0  0  0  0  0  0  0  0
    8.5507  -17.4052   25.2046 O   0  0  0  0  0  0  0  0  0  0  0  0
    9.8669  -15.5468   25.0740 N   0  0  0  0  0  0  0  0  0  0  0  0
   10.9346  -16.1739   25.8611 C   0  0  1  0  0  0  0  0  0  0  0  0
   12.2466  -15.4655   25.5759 C   0  0  0  0  0  0  0  0  0  0  0  0
   13.0702  -16.1472   24.5812 C   0  0  0  0  0  0  0  0  0  0  0  0
   12.5570  -16.9907   23.8043 O   0  0  0  0  0  0  0  0  0  0  0  0
   10.5857  -16.1988   27.2883 C   0  0  0  0  0  0  0  0  0  0  0  0
   11.2273  -17.0335   28.1906 O   0  0  0  0  0  0  0  0  0  0  0  0
   14.4246  -15.8721   24.4837 O   0  0  0  0  0  0  0  0  0  0  0  0
    9.6735  -15.4433   27.7424 O   0  0  0  0  0  0  0  0  0  0  0  0
  2  1  1  6
  3  2  1  0
  3  4  1  0
  5  7  1  0
  5  2  1  0
  6  5  2  0
  8  7  1  0
  9 10  1  0
  8  9  1  1
 10 11  2  0
 10 15  1  0
 11 12  1  0
 12 13  2  0
 14 13  1  0
 15 14  2  0
 16 17  2  0
 16  8  1  0
 18 16  1  0
 19 20  1  1
 19 18  1  0
 20 21  1  0
 21 25  1  0
 21 22  2  0
 23 19  1  0
 24 23  1  0
 26 23  2  0
M  END
$$$$
