CFD.pdb
     RDKit          3D

 26 26  0  0  1  0  0  0  0  0999 V2000
    8.2933  -13.0323   18.6480 N   0  0  0  0  0  0  0  0  0  0  0  0
    7.6276  -14.0799   19.3908 C   0  0  1  0  0  0  0  0  0  0  0  0
    7.8791  -15.4393   18.8168 C   0  0  0  0  0  0  0  0  0  0  0  0
    8.6327  -15.3703   17.1716 S   0  0  0  0  0  0  0  0  0  0  0  0
    8.0843  -14.0855   20.8221 C   0  0  0  0  0  0  0  0  0  0  0  0
    9.1850  -13.5494   21.1353 O   0  0  0  0  0  0  0  0  0  0  0  0
    7.3066  -14.6849   21.8475 N   0  0  0  0  0  0  0  0  0  0  0  0
    7.6827  -14.4765   23.2418 C   0  0  1  0  0  0  0  0  0  0  0  0
    6.4962  -14.1423   24.0792 C   0  0  0  0  0  0  0  0  0  0  0  0
    6.8442  -13.5302   25.3671 C   0  0  0  0  0  0  0  0  0  0  0  0
    6.4321  -12.2313   25.6864 C   0  0  0  0  0  0  0  0  0  0  0  0
    6.7256  -11.6386   26.8877 C   0  0  0  0  0  0  0  0  0  0  0  0
    7.4476  -12.3104   27.8379 C   0  0  0  0  0  0  0  0  0  0  0  0
    7.8648  -13.5819   27.5567 C   0  0  0  0  0  0  0  0  0  0  0  0
    7.5654  -14.1706   26.3486 C   0  0  0  0  0  0  0  0  0  0  0  0
    8.4265  -15.6331   23.7742 C   0  0  0  0  0  0  0  0  0  0  0  0
    7.9034  -16.7598   23.7286 O   0  0  0  0  0  0  0  0  0  0  0  0
    9.7232  -15.5288   24.3420 N   0  0  0  0  0  0  0  0  0  0  0  0
   10.4563  -16.7247   24.7722 C   0  0  1  0  0  0  0  0  0  0  0  0
   11.9317  -16.5433   24.4641 C   0  0  0  0  0  0  0  0  0  0  0  0
   12.2300  -16.5385   23.0345 C   0  0  0  0  0  0  0  0  0  0  0  0
   13.1449  -15.8068   22.5807 O   0  0  0  0  0  0  0  0  0  0  0  0
   10.1901  -17.0200   26.1869 C   0  0  0  0  0  0  0  0  0  0  0  0
    9.3822  -16.2105   26.9706 O   0  0  0  0  0  0  0  0  0  0  0  0
   11.5080  -17.3392   22.1643 O   0  0  0  0  0  0  0  0  0  0  0  0
   10.6996  -18.0421   26.7391 O   0  0  0  0  0  0  0  0  0  0  0  0
  2  1  1  6
  3  2  1  0
  3  4  1  0
  5  7  1  0
  5  2  1  0
  6  5  2  0
  8  7  1  0
  9 10  1  0
  8  9  1  1
 10 11  2  0
 10 15  1  0
 11 12  1  0
 12 13  2  0
 14 13  1  0
 15 14  2  0
 16 17  2  0
 16  8  1  0
 18 16  1  0
 19 20  1  1
 19 18  1  0
 20 21  1  0
 21 25  1  0
 21 22  2  0
 23 19  1  0
 24 23  1  0
 26 23  2  0
M  END
$$$$
