CFD.pdb
     RDKit          3D

 26 26  0  0  1  0  0  0  0  0999 V2000
    9.4624  -15.4535   18.4578 N   0  0  0  0  0  0  0  0  0  0  0  0
    8.2359  -15.4992   19.2232 C   0  0  1  0  0  0  0  0  0  0  0  0
    7.6149  -16.8612   19.2315 C   0  0  0  0  0  0  0  0  0  0  0  0
    8.6605  -18.0967   20.0435 S   0  0  0  0  0  0  0  0  0  0  0  0
    8.4857  -15.0912   20.6474 C   0  0  0  0  0  0  0  0  0  0  0  0
    9.6424  -15.2066   21.1433 O   0  0  0  0  0  0  0  0  0  0  0  0
    7.4465  -14.5743   21.4651 N   0  0  0  0  0  0  0  0  0  0  0  0
    7.7202  -14.2867   22.8692 C   0  0  1  0  0  0  0  0  0  0  0  0
    6.6460  -13.4464   23.4697 C   0  0  0  0  0  0  0  0  0  0  0  0
    6.8950  -13.0955   24.8731 C   0  0  0  0  0  0  0  0  0  0  0  0
    7.8715  -12.1554   25.2222 C   0  0  0  0  0  0  0  0  0  0  0  0
    8.1154  -11.7932   26.5222 C   0  0  0  0  0  0  0  0  0  0  0  0
    7.3974  -12.3500   27.5468 C   0  0  0  0  0  0  0  0  0  0  0  0
    6.4355  -13.2717   27.2387 C   0  0  0  0  0  0  0  0  0  0  0  0
    6.1958  -13.6297   25.9310 C   0  0  0  0  0  0  0  0  0  0  0  0
    7.9453  -15.5263   23.6355 C   0  0  0  0  0  0  0  0  0  0  0  0
    7.4911  -16.5973   23.1976 O   0  0  0  0  0  0  0  0  0  0  0  0
    8.6618  -15.5636   24.8602 N   0  0  0  0  0  0  0  0  0  0  0  0
    9.3958  -16.7669   25.2679 C   0  0  1  0  0  0  0  0  0  0  0  0
   10.4013  -17.1276   24.1891 C   0  0  0  0  0  0  0  0  0  0  0  0
   11.2867  -18.2264   24.5648 C   0  0  0  0  0  0  0  0  0  0  0  0
   12.5105  -18.1778   24.2850 O   0  0  0  0  0  0  0  0  0  0  0  0
   10.0052  -16.5835   26.5924 C   0  0  0  0  0  0  0  0  0  0  0  0
    9.8896  -15.3969   27.3002 O   0  0  0  0  0  0  0  0  0  0  0  0
   10.7876  -19.3331   25.2325 O   0  0  0  0  0  0  0  0  0  0  0  0
   10.6638  -17.5223   27.1347 O   0  0  0  0  0  0  0  0  0  0  0  0
  2  1  1  6
  3  2  1  0
  3  4  1  0
  5  7  1  0
  5  2  1  0
  6  5  2  0
  8  7  1  0
  9 10  1  0
  8  9  1  1
 10 11  2  0
 10 15  1  0
 11 12  1  0
 12 13  2  0
 14 13  1  0
 15 14  2  0
 16 17  2  0
 16  8  1  0
 18 16  1  0
 19 20  1  6
 19 18  1  0
 20 21  1  0
 21 25  1  0
 21 22  2  0
 23 19  1  0
 24 23  1  0
 26 23  2  0
M  END
$$$$
