GHY.pdb
     RDKit          3D

 27 28  0  0  1  0  0  0  0  0999 V2000
    8.0189  -18.3828   17.0199 N   0  0  0  0  0  0  0  0  0  0  0  0
    8.1777  -18.7964   18.3782 C   0  0  0  0  0  0  0  0  0  0  0  0
    7.2683  -18.0887   19.3137 C   0  0  0  0  0  0  0  0  0  0  0  0
    6.7272  -16.9761   18.9958 O   0  0  0  0  0  0  0  0  0  0  0  0
    7.0042  -18.6571   20.5639 N   0  0  0  0  0  0  0  0  0  0  0  0
    6.1914  -17.9374   21.6142 C   0  0  1  0  0  0  0  0  0  0  0  0
    5.1520  -18.9108   22.0614 C   0  0  0  0  0  0  0  0  0  0  0  0
    3.8934  -18.9949   21.3400 C   0  0  0  0  0  0  0  0  0  0  0  0
    3.5838  -18.1609   20.2635 C   0  0  0  0  0  0  0  0  0  0  0  0
    2.3681  -18.4790   19.8155 N   0  0  0  0  0  0  0  0  0  0  0  0
    1.8784  -19.4954   20.5694 C   0  0  0  0  0  0  0  0  0  0  0  0
    2.8230  -19.7707   21.4670 N   0  0  0  0  0  0  0  0  0  0  0  0
    7.1770  -17.5713   22.6567 C   0  0  0  0  0  0  0  0  0  0  0  0
    8.2015  -18.3237   22.8285 O   0  0  0  0  0  0  0  0  0  0  0  0
   10.3814  -13.9130   29.8953 O   0  0  0  0  0  0  0  0  0  0  0  0
    9.7388  -14.1485   28.7018 C   0  0  0  0  0  0  0  0  0  0  0  0
    8.4277  -13.7740   28.5809 C   0  0  0  0  0  0  0  0  0  0  0  0
    7.7371  -13.9894   27.4003 C   0  0  0  0  0  0  0  0  0  0  0  0
    8.4068  -14.5895   26.3555 C   0  0  0  0  0  0  0  0  0  0  0  0
    7.6846  -14.8374   25.1011 C   0  0  0  0  0  0  0  0  0  0  0  0
    7.9670  -16.2426   24.6319 C   0  0  2  0  0  0  0  0  0  0  0  0
    7.0836  -16.4516   23.4772 N   0  0  0  0  0  0  0  0  0  0  0  0
    7.6513  -17.2771   25.6293 C   0  0  0  0  0  0  0  0  0  0  0  0
    6.4643  -17.6102   25.8504 O   0  0  0  0  0  0  0  0  0  0  0  0
    9.7205  -14.9604   26.4890 C   0  0  0  0  0  0  0  0  0  0  0  0
   10.4160  -14.7456   27.6719 C   0  0  0  0  0  0  0  0  0  0  0  0
    8.6497  -17.9114   26.3487 O   0  0  0  0  0  0  0  0  0  0  0  0
  1  2  1  0
  2  3  1  0
  3  5  1  0
  4  3  2  0
  5  6  1  0
  6 13  1  0
  6  7  1  1
  7  8  1  0
  8 12  1  0
  9  8  2  0
  9 10  1  0
 10 11  1  0
 12 11  2  0
 13 14  2  0
 15 16  1  0
 16 17  2  0
 17 18  1  0
 19 18  2  0
 19 20  1  0
 21 20  1  1
 22 21  1  0
 22 13  1  0
 23 21  1  0
 24 23  2  0
 25 19  1  0
 26 16  1  0
 26 25  2  0
 27 23  1  0
M  END
$$$$
