GHY.pdb
     RDKit          3D

 27 28  0  0  1  0  0  0  0  0999 V2000
    7.5623  -12.4386   18.3398 N   0  0  0  0  0  0  0  0  0  0  0  0
    8.6377  -12.9302   19.1418 C   0  0  0  0  0  0  0  0  0  0  0  0
    8.3076  -14.1916   19.8507 C   0  0  0  0  0  0  0  0  0  0  0  0
    7.1053  -14.6178   19.9179 O   0  0  0  0  0  0  0  0  0  0  0  0
    9.3374  -14.9209   20.4535 N   0  0  0  0  0  0  0  0  0  0  0  0
    9.0803  -16.2252   21.1708 C   0  0  1  0  0  0  0  0  0  0  0  0
   10.0186  -17.2147   20.5639 C   0  0  0  0  0  0  0  0  0  0  0  0
    9.7236  -17.7696   19.2537 C   0  0  0  0  0  0  0  0  0  0  0  0
    8.6121  -18.5794   19.0103 C   0  0  0  0  0  0  0  0  0  0  0  0
    8.6148  -18.9287   17.7227 N   0  0  0  0  0  0  0  0  0  0  0  0
    9.6955  -18.3698   17.1221 C   0  0  0  0  0  0  0  0  0  0  0  0
   10.3285  -17.6868   18.0743 N   0  0  0  0  0  0  0  0  0  0  0  0
    9.3468  -15.9217   22.5953 C   0  0  0  0  0  0  0  0  0  0  0  0
   10.4010  -15.2564   22.8975 O   0  0  0  0  0  0  0  0  0  0  0  0
    6.4424  -10.3654   26.6864 O   0  0  0  0  0  0  0  0  0  0  0  0
    6.6614  -11.7022   26.4452 C   0  0  0  0  0  0  0  0  0  0  0  0
    7.9349  -12.1140   26.1585 C   0  0  0  0  0  0  0  0  0  0  0  0
    8.2067  -13.4485   25.9084 C   0  0  0  0  0  0  0  0  0  0  0  0
    7.1609  -14.3451   25.9567 C   0  0  0  0  0  0  0  0  0  0  0  0
    7.4301  -15.7621   25.6805 C   0  0  0  0  0  0  0  0  0  0  0  0
    8.7892  -15.8964   25.0405 C   0  0  2  0  0  0  0  0  0  0  0  0
    8.5271  -16.3016   23.6532 N   0  0  0  0  0  0  0  0  0  0  0  0
    9.6364  -16.9300   25.6557 C   0  0  0  0  0  0  0  0  0  0  0  0
    9.6248  -18.1058   25.2241 O   0  0  0  0  0  0  0  0  0  0  0  0
    5.8891  -13.9201   26.2449 C   0  0  0  0  0  0  0  0  0  0  0  0
    5.6133  -12.5823   26.4963 C   0  0  0  0  0  0  0  0  0  0  0  0
   10.4685  -16.6370   26.7226 O   0  0  0  0  0  0  0  0  0  0  0  0
  1  2  1  0
  2  3  1  0
  3  5  1  0
  4  3  2  0
  5  6  1  0
  6 13  1  0
  6  7  1  6
  7  8  1  0
  8 12  1  0
  9  8  2  0
  9 10  1  0
 10 11  1  0
 12 11  2  0
 13 14  2  0
 15 16  1  0
 16 17  2  0
 17 18  1  0
 19 18  2  0
 19 20  1  0
 21 20  1  1
 22 21  1  0
 22 13  1  0
 23 21  1  0
 24 23  2  0
 25 19  1  0
 26 16  1  0
 26 25  2  0
 27 23  1  0
M  END
$$$$
