GHY.pdb
     RDKit          3D

 27 28  0  0  1  0  0  0  0  0999 V2000
   12.4911  -26.1775   21.1069 N   0  0  0  0  0  0  0  0  0  0  0  0
   13.0958  -25.6446   22.2865 C   0  0  0  0  0  0  0  0  0  0  0  0
   12.5070  -24.3497   22.7101 C   0  0  0  0  0  0  0  0  0  0  0  0
   13.1418  -23.2521   22.5556 O   0  0  0  0  0  0  0  0  0  0  0  0
   11.2336  -24.3398   23.2882 N   0  0  0  0  0  0  0  0  0  0  0  0
   10.5556  -23.0570   23.7082 C   0  0  1  0  0  0  0  0  0  0  0  0
    9.1329  -23.1890   23.2767 C   0  0  0  0  0  0  0  0  0  0  0  0
    8.7694  -22.8751   21.9053 C   0  0  0  0  0  0  0  0  0  0  0  0
    9.3399  -21.8149   21.1975 C   0  0  0  0  0  0  0  0  0  0  0  0
    8.8062  -21.7841   19.9751 N   0  0  0  0  0  0  0  0  0  0  0  0
    7.9054  -22.7932   19.8677 C   0  0  0  0  0  0  0  0  0  0  0  0
    7.9168  -23.4179   21.0438 N   0  0  0  0  0  0  0  0  0  0  0  0
   10.7485  -23.0009   25.1752 C   0  0  0  0  0  0  0  0  0  0  0  0
   10.1276  -23.8477   25.9118 O   0  0  0  0  0  0  0  0  0  0  0  0
   17.2335  -20.3041   24.8289 O   0  0  0  0  0  0  0  0  0  0  0  0
   16.2118  -20.9382   25.4976 C   0  0  0  0  0  0  0  0  0  0  0  0
   15.6159  -22.0190   24.9058 C   0  0  0  0  0  0  0  0  0  0  0  0
   14.5836  -22.6911   25.5382 C   0  0  0  0  0  0  0  0  0  0  0  0
   14.1764  -22.2407   26.7758 C   0  0  0  0  0  0  0  0  0  0  0  0
   13.0737  -22.9343   27.4538 C   0  0  0  0  0  0  0  0  0  0  0  0
   11.8034  -22.1398   27.2814 C   0  0  2  0  0  0  0  0  0  0  0  0
   11.5698  -22.0902   25.8322 N   0  0  0  0  0  0  0  0  0  0  0  0
   11.8985  -20.7540   27.7666 C   0  0  0  0  0  0  0  0  0  0  0  0
   11.8277  -19.7914   26.9683 O   0  0  0  0  0  0  0  0  0  0  0  0
   14.7815  -21.1565   27.3583 C   0  0  0  0  0  0  0  0  0  0  0  0
   15.8172  -20.4803   26.7266 C   0  0  0  0  0  0  0  0  0  0  0  0
   12.0668  -20.4726   29.1116 O   0  0  0  0  0  0  0  0  0  0  0  0
  1  2  1  0
  2  3  1  0
  3  5  1  0
  4  3  2  0
  5  6  1  0
  6 13  1  0
  6  7  1  1
  7  8  1  0
  8 12  1  0
  9  8  2  0
  9 10  1  0
 10 11  1  0
 12 11  2  0
 13 14  2  0
 15 16  1  0
 16 17  2  0
 17 18  1  0
 19 18  2  0
 19 20  1  0
 21 20  1  6
 22 21  1  0
 22 13  1  0
 23 21  1  0
 24 23  2  0
 25 19  1  0
 26 16  1  0
 26 25  2  0
 27 23  1  0
M  END
$$$$
