GHY.pdb
     RDKit          3D

 27 28  0  0  1  0  0  0  0  0999 V2000
    7.2630  -12.4993   19.0689 N   0  0  0  0  0  0  0  0  0  0  0  0
    8.3968  -13.0224   19.7631 C   0  0  0  0  0  0  0  0  0  0  0  0
    8.0833  -14.2313   20.5650 C   0  0  0  0  0  0  0  0  0  0  0  0
    6.8854  -14.6615   20.6729 O   0  0  0  0  0  0  0  0  0  0  0  0
    9.1240  -14.9059   21.2112 N   0  0  0  0  0  0  0  0  0  0  0  0
    8.9095  -16.2300   21.9060 C   0  0  1  0  0  0  0  0  0  0  0  0
    9.7740  -17.2112   21.1867 C   0  0  0  0  0  0  0  0  0  0  0  0
    9.3254  -17.7668   19.9212 C   0  0  0  0  0  0  0  0  0  0  0  0
    7.9928  -18.1050   19.6759 C   0  0  0  0  0  0  0  0  0  0  0  0
    7.8979  -18.5855   18.4349 N   0  0  0  0  0  0  0  0  0  0  0  0
    9.1299  -18.5695   17.8664 C   0  0  0  0  0  0  0  0  0  0  0  0
    9.9507  -18.0729   18.7902 N   0  0  0  0  0  0  0  0  0  0  0  0
    9.3054  -15.9782   23.3103 C   0  0  0  0  0  0  0  0  0  0  0  0
   10.3736  -15.3060   23.5390 O   0  0  0  0  0  0  0  0  0  0  0  0
    6.1477  -10.6294   26.1640 O   0  0  0  0  0  0  0  0  0  0  0  0
    6.5762  -11.9320   26.2765 C   0  0  0  0  0  0  0  0  0  0  0  0
    5.7099  -12.9360   25.9373 C   0  0  0  0  0  0  0  0  0  0  0  0
    6.0936  -14.2630   26.0331 C   0  0  0  0  0  0  0  0  0  0  0  0
    7.3684  -14.5407   26.4782 C   0  0  0  0  0  0  0  0  0  0  0  0
    7.7862  -15.9434   26.5984 C   0  0  0  0  0  0  0  0  0  0  0  0
    9.0465  -16.1590   25.7985 C   0  0  2  0  0  0  0  0  0  0  0  0
    8.5954  -16.4148   24.4242 N   0  0  0  0  0  0  0  0  0  0  0  0
    9.8352  -17.3222   26.2339 C   0  0  0  0  0  0  0  0  0  0  0  0
    9.8549  -18.3723   25.5515 O   0  0  0  0  0  0  0  0  0  0  0  0
    8.2271  -13.5258   26.8152 C   0  0  0  0  0  0  0  0  0  0  0  0
    7.8453  -12.1938   26.7202 C   0  0  0  0  0  0  0  0  0  0  0  0
   10.5765  -17.2920   27.4027 O   0  0  0  0  0  0  0  0  0  0  0  0
  1  2  1  0
  2  3  1  0
  3  5  1  0
  4  3  2  0
  5  6  1  0
  6 13  1  0
  6  7  1  6
  7  8  1  0
  8 12  1  0
  9  8  2  0
  9 10  1  0
 10 11  1  0
 12 11  2  0
 13 14  2  0
 15 16  1  0
 16 17  2  0
 17 18  1  0
 19 18  2  0
 19 20  1  0
 21 20  1  1
 22 21  1  0
 22 13  1  0
 23 21  1  0
 24 23  2  0
 25 19  1  0
 26 16  1  0
 26 25  2  0
 27 23  1  0
M  END
$$$$
