GHY.pdb
     RDKit          3D

 27 28  0  0  1  0  0  0  0  0999 V2000
    6.4491  -18.1227   19.0058 N   0  0  0  0  0  0  0  0  0  0  0  0
    7.3371  -18.6156   20.0107 C   0  0  0  0  0  0  0  0  0  0  0  0
    8.2937  -17.5906   20.4977 C   0  0  0  0  0  0  0  0  0  0  0  0
    9.5533  -17.8029   20.4865 O   0  0  0  0  0  0  0  0  0  0  0  0
    7.7990  -16.3731   20.9758 N   0  0  0  0  0  0  0  0  0  0  0  0
    8.7133  -15.2762   21.4684 C   0  0  1  0  0  0  0  0  0  0  0  0
    8.2569  -14.0297   20.7860 C   0  0  0  0  0  0  0  0  0  0  0  0
    8.4050  -13.9077   19.3456 C   0  0  0  0  0  0  0  0  0  0  0  0
    7.4128  -13.3611   18.5289 C   0  0  0  0  0  0  0  0  0  0  0  0
    7.8409  -13.3861   17.2655 N   0  0  0  0  0  0  0  0  0  0  0  0
    9.0824  -13.9329   17.2372 C   0  0  0  0  0  0  0  0  0  0  0  0
    9.3786  -14.2292   18.5014 N   0  0  0  0  0  0  0  0  0  0  0  0
    8.5282  -15.2735   22.9375 C   0  0  0  0  0  0  0  0  0  0  0  0
    7.3416  -15.3920   23.4100 O   0  0  0  0  0  0  0  0  0  0  0  0
    5.7103  -10.7529   27.3493 O   0  0  0  0  0  0  0  0  0  0  0  0
    6.2175  -11.9448   26.8855 C   0  0  0  0  0  0  0  0  0  0  0  0
    7.5759  -12.1118   26.8630 C   0  0  0  0  0  0  0  0  0  0  0  0
    8.1353  -13.2929   26.4052 C   0  0  0  0  0  0  0  0  0  0  0  0
    7.2866  -14.2903   25.9751 C   0  0  0  0  0  0  0  0  0  0  0  0
    7.8645  -15.5439   25.4739 C   0  0  0  0  0  0  0  0  0  0  0  0
    9.3534  -15.3743   25.3038 C   0  0  2  0  0  0  0  0  0  0  0  0
    9.5579  -15.1569   23.8657 N   0  0  0  0  0  0  0  0  0  0  0  0
   10.1349  -16.5588   25.6925 C   0  0  0  0  0  0  0  0  0  0  0  0
   10.4130  -17.4446   24.8518 O   0  0  0  0  0  0  0  0  0  0  0  0
    5.9272  -14.1108   26.0024 C   0  0  0  0  0  0  0  0  0  0  0  0
    5.3631  -12.9274   26.4610 C   0  0  0  0  0  0  0  0  0  0  0  0
   10.5853  -16.7293   26.9904 O   0  0  0  0  0  0  0  0  0  0  0  0
  1  2  1  0
  2  3  1  0
  3  5  1  0
  4  3  2  0
  5  6  1  0
  6 13  1  0
  6  7  1  6
  7  8  1  0
  8 12  1  0
  9  8  2  0
  9 10  1  0
 10 11  1  0
 12 11  2  0
 13 14  2  0
 15 16  1  0
 16 17  2  0
 17 18  1  0
 19 18  2  0
 19 20  1  0
 21 20  1  6
 22 21  1  0
 22 13  1  0
 23 21  1  0
 24 23  2  0
 25 19  1  0
 26 16  1  0
 26 25  2  0
 27 23  1  0
M  END
$$$$
