GHY.pdb
     RDKit          3D

 27 28  0  0  1  0  0  0  0  0999 V2000
    5.3531  -19.1439   20.8088 N   0  0  0  0  0  0  0  0  0  0  0  0
    5.3981  -17.7723   21.2061 C   0  0  0  0  0  0  0  0  0  0  0  0
    6.6791  -17.1066   20.8616 C   0  0  0  0  0  0  0  0  0  0  0  0
    7.5942  -17.7247   20.2196 O   0  0  0  0  0  0  0  0  0  0  0  0
    6.8800  -15.7785   21.2505 N   0  0  0  0  0  0  0  0  0  0  0  0
    8.1801  -15.0557   20.9874 C   0  0  1  0  0  0  0  0  0  0  0  0
    7.8166  -13.8366   20.2067 C   0  0  0  0  0  0  0  0  0  0  0  0
    7.9550  -13.8460   18.7603 C   0  0  0  0  0  0  0  0  0  0  0  0
    8.5268  -14.9131   18.0641 C   0  0  0  0  0  0  0  0  0  0  0  0
    8.5113  -14.6274   16.7610 N   0  0  0  0  0  0  0  0  0  0  0  0
    7.9462  -13.4057   16.5898 C   0  0  0  0  0  0  0  0  0  0  0  0
    7.6295  -12.9768   17.8103 N   0  0  0  0  0  0  0  0  0  0  0  0
    8.7281  -14.7797   22.3350 C   0  0  0  0  0  0  0  0  0  0  0  0
    8.2742  -13.7758   22.9918 O   0  0  0  0  0  0  0  0  0  0  0  0
   10.2345  -15.0271   30.5886 O   0  0  0  0  0  0  0  0  0  0  0  0
    9.9208  -15.1820   29.2579 C   0  0  0  0  0  0  0  0  0  0  0  0
    9.4429  -14.0997   28.5694 C   0  0  0  0  0  0  0  0  0  0  0  0
    9.1129  -14.2045   27.2287 C   0  0  0  0  0  0  0  0  0  0  0  0
    9.2795  -15.4259   26.6117 C   0  0  0  0  0  0  0  0  0  0  0  0
    8.9212  -15.5571   25.1936 C   0  0  0  0  0  0  0  0  0  0  0  0
   10.1390  -15.2912   24.3445 C   0  0  2  0  0  0  0  0  0  0  0  0
    9.7104  -15.5398   22.9618 N   0  0  0  0  0  0  0  0  0  0  0  0
   11.2700  -16.1879   24.6299 C   0  0  0  0  0  0  0  0  0  0  0  0
   11.2714  -17.3680   24.2101 O   0  0  0  0  0  0  0  0  0  0  0  0
    9.7590  -16.5029   27.3125 C   0  0  0  0  0  0  0  0  0  0  0  0
   10.0910  -16.4010   28.6573 C   0  0  0  0  0  0  0  0  0  0  0  0
   12.3613  -15.7578   25.3652 O   0  0  0  0  0  0  0  0  0  0  0  0
  1  2  1  0
  2  3  1  0
  3  5  1  0
  4  3  2  0
  5  6  1  0
  6 13  1  0
  6  7  1  1
  7  8  1  0
  8 12  1  0
  9  8  2  0
  9 10  1  0
 10 11  1  0
 12 11  2  0
 13 14  2  0
 15 16  1  0
 16 17  2  0
 17 18  1  0
 19 18  2  0
 19 20  1  0
 21 20  1  1
 22 21  1  0
 22 13  1  0
 23 21  1  0
 24 23  2  0
 25 19  1  0
 26 16  1  0
 26 25  2  0
 27 23  1  0
M  END
$$$$
