GHY.pdb
     RDKit          3D

 27 28  0  0  1  0  0  0  0  0999 V2000
    8.6076  -24.1365   13.6572 N   0  0  0  0  0  0  0  0  0  0  0  0
    9.5377  -23.4324   14.4821 C   0  0  0  0  0  0  0  0  0  0  0  0
   10.6002  -24.3056   15.0401 C   0  0  0  0  0  0  0  0  0  0  0  0
   10.3633  -25.5230   15.3458 O   0  0  0  0  0  0  0  0  0  0  0  0
   11.8811  -23.7783   15.2317 N   0  0  0  0  0  0  0  0  0  0  0  0
   13.0109  -24.6063   15.7972 C   0  0  1  0  0  0  0  0  0  0  0  0
   14.1308  -24.4891   14.8175 C   0  0  0  0  0  0  0  0  0  0  0  0
   14.0782  -25.2446   13.5774 C   0  0  0  0  0  0  0  0  0  0  0  0
   14.8745  -26.3678   13.3440 C   0  0  0  0  0  0  0  0  0  0  0  0
   14.5993  -26.8382   12.1263 N   0  0  0  0  0  0  0  0  0  0  0  0
   13.6473  -26.0535   11.5612 C   0  0  0  0  0  0  0  0  0  0  0  0
   13.3665  -25.1151   12.4636 N   0  0  0  0  0  0  0  0  0  0  0  0
   13.2871  -23.9996   17.1194 C   0  0  0  0  0  0  0  0  0  0  0  0
   13.2535  -22.7223   17.2311 O   0  0  0  0  0  0  0  0  0  0  0  0
   13.2731  -30.1972   20.7705 O   0  0  0  0  0  0  0  0  0  0  0  0
   13.0988  -28.8365   20.6656 C   0  0  0  0  0  0  0  0  0  0  0  0
   13.7229  -28.0261   21.5753 C   0  0  0  0  0  0  0  0  0  0  0  0
   13.5790  -26.6504   21.5120 C   0  0  0  0  0  0  0  0  0  0  0  0
   12.7919  -26.1245   20.5100 C   0  0  0  0  0  0  0  0  0  0  0  0
   12.6180  -24.6681   20.4374 C   0  0  0  0  0  0  0  0  0  0  0  0
   13.7158  -24.0761   19.5894 C   0  0  2  0  0  0  0  0  0  0  0  0
   13.5798  -24.7170   18.2748 N   0  0  0  0  0  0  0  0  0  0  0  0
   15.0707  -24.3605   20.0875 C   0  0  0  0  0  0  0  0  0  0  0  0
   15.4269  -23.9761   21.2251 O   0  0  0  0  0  0  0  0  0  0  0  0
   12.1717  -26.9470   19.6045 C   0  0  0  0  0  0  0  0  0  0  0  0
   12.3141  -28.3272   19.6653 C   0  0  0  0  0  0  0  0  0  0  0  0
   15.9874  -25.0585   19.3200 O   0  0  0  0  0  0  0  0  0  0  0  0
  1  2  1  0
  2  3  1  0
  3  5  1  0
  4  3  2  0
  5  6  1  0
  6 13  1  0
  6  7  1  6
  7  8  1  0
  8 12  1  0
  9  8  2  0
  9 10  1  0
 10 11  1  0
 12 11  2  0
 13 14  2  0
 15 16  1  0
 16 17  2  0
 17 18  1  0
 19 18  2  0
 19 20  1  0
 21 20  1  1
 22 21  1  0
 22 13  1  0
 23 21  1  0
 24 23  2  0
 25 19  1  0
 26 16  1  0
 26 25  2  0
 27 23  1  0
M  END
$$$$
