GHY.pdb
     RDKit          3D

 27 28  0  0  1  0  0  0  0  0999 V2000
   14.5161  -13.9380   18.1443 N   0  0  0  0  0  0  0  0  0  0  0  0
   14.3081  -15.0158   19.0588 C   0  0  0  0  0  0  0  0  0  0  0  0
   12.9879  -14.9610   19.7346 C   0  0  0  0  0  0  0  0  0  0  0  0
   12.3186  -13.8746   19.7922 O   0  0  0  0  0  0  0  0  0  0  0  0
   12.4743  -16.1244   20.3164 N   0  0  0  0  0  0  0  0  0  0  0  0
   11.1244  -16.1515   20.9937 C   0  0  1  0  0  0  0  0  0  0  0  0
   10.4488  -17.3892   20.5042 C   0  0  0  0  0  0  0  0  0  0  0  0
    9.9464  -17.4385   19.1416 C   0  0  0  0  0  0  0  0  0  0  0  0
    9.4097  -16.3233   18.4947 C   0  0  0  0  0  0  0  0  0  0  0  0
    9.0391  -16.6831   17.2647 N   0  0  0  0  0  0  0  0  0  0  0  0
    9.3193  -17.9997   17.0931 C   0  0  0  0  0  0  0  0  0  0  0  0
    9.8598  -18.4091   18.2393 N   0  0  0  0  0  0  0  0  0  0  0  0
   11.4377  -16.1558   22.4409 C   0  0  0  0  0  0  0  0  0  0  0  0
   12.5159  -16.7267   22.8369 O   0  0  0  0  0  0  0  0  0  0  0  0
   10.3908  -15.4951   31.0796 O   0  0  0  0  0  0  0  0  0  0  0  0
   10.2576  -15.3682   29.7161 C   0  0  0  0  0  0  0  0  0  0  0  0
   10.7569  -14.2454   29.1129 C   0  0  0  0  0  0  0  0  0  0  0  0
   10.6478  -14.0709   27.7436 C   0  0  0  0  0  0  0  0  0  0  0  0
   10.0242  -15.0575   27.0101 C   0  0  0  0  0  0  0  0  0  0  0  0
    9.8884  -14.8813   25.5585 C   0  0  0  0  0  0  0  0  0  0  0  0
   10.9558  -15.6827   24.8564 C   0  0  2  0  0  0  0  0  0  0  0  0
   10.6450  -15.5738   23.4250 N   0  0  0  0  0  0  0  0  0  0  0  0
   10.9533  -17.1117   25.2068 C   0  0  0  0  0  0  0  0  0  0  0  0
   11.8006  -17.5753   26.0043 O   0  0  0  0  0  0  0  0  0  0  0  0
    9.5280  -16.1779   27.6262 C   0  0  0  0  0  0  0  0  0  0  0  0
    9.6359  -16.3559   28.9994 C   0  0  0  0  0  0  0  0  0  0  0  0
   10.0199  -17.9823   24.6708 O   0  0  0  0  0  0  0  0  0  0  0  0
  1  2  1  0
  2  3  1  0
  3  5  1  0
  4  3  2  0
  5  6  1  0
  6 13  1  0
  6  7  1  6
  7  8  1  0
  8 12  1  0
  9  8  2  0
  9 10  1  0
 10 11  1  0
 12 11  2  0
 13 14  2  0
 15 16  1  0
 16 17  2  0
 17 18  1  0
 19 18  2  0
 19 20  1  0
 21 20  1  1
 22 21  1  0
 22 13  1  0
 23 21  1  0
 24 23  2  0
 25 19  1  0
 26 16  1  0
 26 25  2  0
 27 23  1  0
M  END
$$$$
