GHY.pdb
     RDKit          3D

 27 28  0  0  1  0  0  0  0  0999 V2000
   11.8878  -17.7129   18.0619 N   0  0  0  0  0  0  0  0  0  0  0  0
   11.0804  -17.9877   19.2081 C   0  0  0  0  0  0  0  0  0  0  0  0
   10.7750  -16.7771   20.0106 C   0  0  0  0  0  0  0  0  0  0  0  0
   11.6866  -15.9333   20.3083 O   0  0  0  0  0  0  0  0  0  0  0  0
    9.4629  -16.5637   20.4447 N   0  0  0  0  0  0  0  0  0  0  0  0
    9.0741  -15.3446   21.2476 C   0  0  1  0  0  0  0  0  0  0  0  0
    7.7057  -14.9714   20.7829 C   0  0  0  0  0  0  0  0  0  0  0  0
    7.5282  -14.4224   19.4493 C   0  0  0  0  0  0  0  0  0  0  0  0
    7.8538  -13.1031   19.1271 C   0  0  0  0  0  0  0  0  0  0  0  0
    7.5804  -12.9009   17.8371 N   0  0  0  0  0  0  0  0  0  0  0  0
    7.0866  -14.0502   17.3113 C   0  0  0  0  0  0  0  0  0  0  0  0
    7.0734  -14.9312   18.3100 N   0  0  0  0  0  0  0  0  0  0  0  0
    9.1415  -15.7940   22.6568 C   0  0  0  0  0  0  0  0  0  0  0  0
    8.8782  -17.0200   22.9266 O   0  0  0  0  0  0  0  0  0  0  0  0
   10.5709  -15.9240   31.2528 O   0  0  0  0  0  0  0  0  0  0  0  0
   10.4953  -15.5669   29.9263 C   0  0  0  0  0  0  0  0  0  0  0  0
   10.0502  -14.3111   29.6125 C   0  0  0  0  0  0  0  0  0  0  0  0
    9.9562  -13.9040   28.2923 C   0  0  0  0  0  0  0  0  0  0  0  0
   10.3226  -14.7975   27.3087 C   0  0  0  0  0  0  0  0  0  0  0  0
   10.2158  -14.3859   25.9031 C   0  0  0  0  0  0  0  0  0  0  0  0
    9.5420  -15.4794   25.1127 C   0  0  2  0  0  0  0  0  0  0  0  0
    9.4803  -14.9798   23.7328 N   0  0  0  0  0  0  0  0  0  0  0  0
    8.1655  -15.7648   25.5467 C   0  0  0  0  0  0  0  0  0  0  0  0
    7.9312  -16.6840   26.3646 O   0  0  0  0  0  0  0  0  0  0  0  0
   10.7669  -16.0531   27.6360 C   0  0  0  0  0  0  0  0  0  0  0  0
   10.8625  -16.4644   28.9591 C   0  0  0  0  0  0  0  0  0  0  0  0
    7.0936  -15.0303   25.0690 O   0  0  0  0  0  0  0  0  0  0  0  0
  1  2  1  0
  2  3  1  0
  3  5  1  0
  4  3  2  0
  5  6  1  0
  6 13  1  0
  6  7  1  6
  7  8  1  0
  8 12  1  0
  9  8  2  0
  9 10  1  0
 10 11  1  0
 12 11  2  0
 13 14  2  0
 15 16  1  0
 16 17  2  0
 17 18  1  0
 19 18  2  0
 19 20  1  0
 21 20  1  1
 22 21  1  0
 22 13  1  0
 23 21  1  0
 24 23  2  0
 25 19  1  0
 26 16  1  0
 26 25  2  0
 27 23  1  0
M  END
$$$$
