GHY.pdb
     RDKit          3D

 27 28  0  0  1  0  0  0  0  0999 V2000
    8.6027  -19.3566   21.3758 N   0  0  0  0  0  0  0  0  0  0  0  0
    9.2485  -18.6278   20.3303 C   0  0  0  0  0  0  0  0  0  0  0  0
    9.6863  -17.2726   20.7480 C   0  0  0  0  0  0  0  0  0  0  0  0
   10.8813  -16.8708   20.5426 O   0  0  0  0  0  0  0  0  0  0  0  0
    8.7678  -16.4264   21.3773 N   0  0  0  0  0  0  0  0  0  0  0  0
    9.1077  -14.9975   21.7299 C   0  0  1  0  0  0  0  0  0  0  0  0
    8.0054  -14.1658   21.1635 C   0  0  0  0  0  0  0  0  0  0  0  0
    7.8528  -14.0664   19.7218 C   0  0  0  0  0  0  0  0  0  0  0  0
    8.2011  -12.9204   19.0036 C   0  0  0  0  0  0  0  0  0  0  0  0
    7.9471  -13.1351   17.7116 N   0  0  0  0  0  0  0  0  0  0  0  0
    7.4439  -14.3872   17.5690 C   0  0  0  0  0  0  0  0  0  0  0  0
    7.4055  -14.9059   18.7950 N   0  0  0  0  0  0  0  0  0  0  0  0
    9.1831  -14.9903   23.2087 C   0  0  0  0  0  0  0  0  0  0  0  0
    9.1263  -13.8662   23.8238 O   0  0  0  0  0  0  0  0  0  0  0  0
    6.5946  -10.7683   27.5226 O   0  0  0  0  0  0  0  0  0  0  0  0
    6.7882  -12.0308   27.0110 C   0  0  0  0  0  0  0  0  0  0  0  0
    7.9492  -12.6882   27.3166 C   0  0  0  0  0  0  0  0  0  0  0  0
    8.1911  -13.9604   26.8264 C   0  0  0  0  0  0  0  0  0  0  0  0
    7.2317  -14.5417   26.0252 C   0  0  0  0  0  0  0  0  0  0  0  0
    7.4789  -15.8852   25.4861 C   0  0  0  0  0  0  0  0  0  0  0  0
    8.9653  -16.1346   25.4298 C   0  0  2  0  0  0  0  0  0  0  0  0
    9.3067  -16.1269   24.0013 N   0  0  0  0  0  0  0  0  0  0  0  0
    9.3705  -17.4379   25.9793 C   0  0  0  0  0  0  0  0  0  0  0  0
    9.6280  -18.3995   25.2192 O   0  0  0  0  0  0  0  0  0  0  0  0
    6.0724  -13.8726   25.7261 C   0  0  0  0  0  0  0  0  0  0  0  0
    5.8269  -12.5965   26.2163 C   0  0  0  0  0  0  0  0  0  0  0  0
    9.4807  -17.6402   27.3444 O   0  0  0  0  0  0  0  0  0  0  0  0
  1  2  1  0
  2  3  1  0
  3  5  1  0
  4  3  2  0
  5  6  1  0
  6 13  1  0
  6  7  1  1
  7  8  1  0
  8 12  1  0
  9  8  2  0
  9 10  1  0
 10 11  1  0
 12 11  2  0
 13 14  2  0
 15 16  1  0
 16 17  2  0
 17 18  1  0
 19 18  2  0
 19 20  1  0
 21 20  1  6
 22 21  1  0
 22 13  1  0
 23 21  1  0
 24 23  2  0
 25 19  1  0
 26 16  1  0
 26 25  2  0
 27 23  1  0
M  END
$$$$
