GHY.pdb
     RDKit          3D

 27 28  0  0  1  0  0  0  0  0999 V2000
   12.3163  -16.8218   18.3889 N   0  0  0  0  0  0  0  0  0  0  0  0
   11.4982  -17.5008   19.3433 C   0  0  0  0  0  0  0  0  0  0  0  0
   10.9245  -16.5950   20.3695 C   0  0  0  0  0  0  0  0  0  0  0  0
   11.6707  -15.8259   21.0647 O   0  0  0  0  0  0  0  0  0  0  0  0
    9.5409  -16.5895   20.5728 N   0  0  0  0  0  0  0  0  0  0  0  0
    8.8692  -15.5832   21.4773 C   0  0  1  0  0  0  0  0  0  0  0  0
    7.5741  -15.2443   20.8172 C   0  0  0  0  0  0  0  0  0  0  0  0
    7.5802  -14.4893   19.5757 C   0  0  0  0  0  0  0  0  0  0  0  0
    7.9155  -13.1349   19.5180 C   0  0  0  0  0  0  0  0  0  0  0  0
    7.8292  -12.7294   18.2500 N   0  0  0  0  0  0  0  0  0  0  0  0
    7.4476  -13.7807   17.4816 C   0  0  0  0  0  0  0  0  0  0  0  0
    7.3106  -14.8101   18.3154 N   0  0  0  0  0  0  0  0  0  0  0  0
    8.7312  -16.2861   22.7731 C   0  0  0  0  0  0  0  0  0  0  0  0
    8.6420  -17.5656   22.7744 O   0  0  0  0  0  0  0  0  0  0  0  0
    5.3905  -11.1902   26.4722 O   0  0  0  0  0  0  0  0  0  0  0  0
    6.3015  -12.2204   26.4303 C   0  0  0  0  0  0  0  0  0  0  0  0
    5.8890  -13.4723   26.7996 C   0  0  0  0  0  0  0  0  0  0  0  0
    6.7678  -14.5420   26.7746 C   0  0  0  0  0  0  0  0  0  0  0  0
    8.0643  -14.3089   26.3686 C   0  0  0  0  0  0  0  0  0  0  0  0
    9.0124  -15.4303   26.3496 C   0  0  0  0  0  0  0  0  0  0  0  0
    8.6074  -16.4082   25.2752 C   0  0  2  0  0  0  0  0  0  0  0  0
    8.6962  -15.6594   24.0147 N   0  0  0  0  0  0  0  0  0  0  0  0
    7.2265  -16.8984   25.4076 C   0  0  0  0  0  0  0  0  0  0  0  0
    6.3159  -16.4486   24.6746 O   0  0  0  0  0  0  0  0  0  0  0  0
    8.4656  -13.0500   26.0012 C   0  0  0  0  0  0  0  0  0  0  0  0
    7.5865  -11.9750   26.0251 C   0  0  0  0  0  0  0  0  0  0  0  0
    6.8930  -17.8667   26.3392 O   0  0  0  0  0  0  0  0  0  0  0  0
  1  2  1  0
  2  3  1  0
  3  5  1  0
  4  3  2  0
  5  6  1  0
  6 13  1  0
  6  7  1  6
  7  8  1  0
  8 12  1  0
  9  8  2  0
  9 10  1  0
 10 11  1  0
 12 11  2  0
 13 14  2  0
 15 16  1  0
 16 17  2  0
 17 18  1  0
 19 18  2  0
 19 20  1  0
 21 20  1  1
 22 21  1  0
 22 13  1  0
 23 21  1  0
 24 23  2  0
 25 19  1  0
 26 16  1  0
 26 25  2  0
 27 23  1  0
M  END
$$$$
