GHY.pdb
     RDKit          3D

 27 28  0  0  1  0  0  0  0  0999 V2000
    5.8364  -18.9718   19.9455 N   0  0  0  0  0  0  0  0  0  0  0  0
    5.8997  -17.8243   20.7943 C   0  0  0  0  0  0  0  0  0  0  0  0
    7.2851  -17.3439   21.0237 C   0  0  0  0  0  0  0  0  0  0  0  0
    8.2929  -18.0019   20.5961 O   0  0  0  0  0  0  0  0  0  0  0  0
    7.4821  -16.1482   21.7217 N   0  0  0  0  0  0  0  0  0  0  0  0
    8.8464  -15.5127   21.8510 C   0  0  1  0  0  0  0  0  0  0  0  0
    8.7100  -14.1386   21.2845 C   0  0  0  0  0  0  0  0  0  0  0  0
    8.4612  -13.9726   19.8625 C   0  0  0  0  0  0  0  0  0  0  0  0
    7.4696  -13.1249   19.3640 C   0  0  0  0  0  0  0  0  0  0  0  0
    7.4871  -13.1879   18.0315 N   0  0  0  0  0  0  0  0  0  0  0  0
    8.4612  -14.0518   17.6492 C   0  0  0  0  0  0  0  0  0  0  0  0
    9.0163  -14.4960   18.7754 N   0  0  0  0  0  0  0  0  0  0  0  0
    9.1353  -15.5512   23.3027 C   0  0  0  0  0  0  0  0  0  0  0  0
   10.2093  -14.9973   23.7328 O   0  0  0  0  0  0  0  0  0  0  0  0
    6.5264  -10.2729   26.4441 O   0  0  0  0  0  0  0  0  0  0  0  0
    6.7487  -11.6306   26.4259 C   0  0  0  0  0  0  0  0  0  0  0  0
    5.6693  -12.4680   26.3401 C   0  0  0  0  0  0  0  0  0  0  0  0
    5.8406  -13.8418   26.3183 C   0  0  0  0  0  0  0  0  0  0  0  0
    7.1249  -14.3380   26.3853 C   0  0  0  0  0  0  0  0  0  0  0  0
    7.3228  -15.7931   26.3771 C   0  0  0  0  0  0  0  0  0  0  0  0
    8.6278  -16.1155   25.6932 C   0  0  2  0  0  0  0  0  0  0  0  0
    8.3172  -16.1459   24.2579 N   0  0  0  0  0  0  0  0  0  0  0  0
    9.1820  -17.4286   26.0585 C   0  0  0  0  0  0  0  0  0  0  0  0
    9.5362  -17.6673   27.2359 O   0  0  0  0  0  0  0  0  0  0  0  0
    8.1983  -13.4886   26.4712 C   0  0  0  0  0  0  0  0  0  0  0  0
    8.0299  -12.1102   26.4932 C   0  0  0  0  0  0  0  0  0  0  0  0
    9.3268  -18.4349   25.1189 O   0  0  0  0  0  0  0  0  0  0  0  0
  1  2  1  0
  2  3  1  0
  3  5  1  0
  4  3  2  0
  5  6  1  0
  6 13  1  0
  6  7  1  1
  7  8  1  0
  8 12  1  0
  9  8  2  0
  9 10  1  0
 10 11  1  0
 12 11  2  0
 13 14  2  0
 15 16  1  0
 16 17  2  0
 17 18  1  0
 19 18  2  0
 19 20  1  0
 21 20  1  1
 22 21  1  0
 22 13  1  0
 23 21  1  0
 24 23  2  0
 25 19  1  0
 26 16  1  0
 26 25  2  0
 27 23  1  0
M  END
$$$$
