GHY.pdb
     RDKit          3D

 27 28  0  0  1  0  0  0  0  0999 V2000
    8.6135  -15.9444   15.2793 N   0  0  0  0  0  0  0  0  0  0  0  0
    9.8313  -16.1839   15.9871 C   0  0  0  0  0  0  0  0  0  0  0  0
    9.6157  -16.7110   17.3576 C   0  0  0  0  0  0  0  0  0  0  0  0
    8.5612  -16.4236   18.0188 O   0  0  0  0  0  0  0  0  0  0  0  0
   10.5894  -17.5367   17.9283 N   0  0  0  0  0  0  0  0  0  0  0  0
   10.4022  -18.1752   19.2845 C   0  0  1  0  0  0  0  0  0  0  0  0
   11.3134  -19.3572   19.3065 C   0  0  0  0  0  0  0  0  0  0  0  0
   11.2659  -20.2760   20.4313 C   0  0  0  0  0  0  0  0  0  0  0  0
   10.1117  -20.4798   21.1906 C   0  0  0  0  0  0  0  0  0  0  0  0
   10.3822  -21.3738   22.1432 N   0  0  0  0  0  0  0  0  0  0  0  0
   11.6786  -21.7569   22.0254 C   0  0  0  0  0  0  0  0  0  0  0  0
   12.1667  -21.0759   20.9902 N   0  0  0  0  0  0  0  0  0  0  0  0
   10.7589  -17.1083   20.2471 C   0  0  0  0  0  0  0  0  0  0  0  0
   11.8525  -16.4609   20.0732 O   0  0  0  0  0  0  0  0  0  0  0  0
    7.3291  -12.9600   17.4554 O   0  0  0  0  0  0  0  0  0  0  0  0
    7.7334  -13.4354   18.6816 C   0  0  0  0  0  0  0  0  0  0  0  0
    8.9314  -13.0062   19.1858 C   0  0  0  0  0  0  0  0  0  0  0  0
    9.3823  -13.4553   20.4155 C   0  0  0  0  0  0  0  0  0  0  0  0
    8.5918  -14.3434   21.1130 C   0  0  0  0  0  0  0  0  0  0  0  0
    9.0621  -14.8398   22.4126 C   0  0  0  0  0  0  0  0  0  0  0  0
   10.3417  -15.6140   22.2178 C   0  0  2  0  0  0  0  0  0  0  0  0
    9.9858  -16.7391   21.3432 N   0  0  0  0  0  0  0  0  0  0  0  0
   10.8940  -16.1724   23.4620 C   0  0  0  0  0  0  0  0  0  0  0  0
   11.4244  -15.4262   24.3168 O   0  0  0  0  0  0  0  0  0  0  0  0
    7.3934  -14.7661   20.5971 C   0  0  0  0  0  0  0  0  0  0  0  0
    6.9383  -14.3174   19.3640 C   0  0  0  0  0  0  0  0  0  0  0  0
   10.8436  -17.5305   23.7256 O   0  0  0  0  0  0  0  0  0  0  0  0
  1  2  1  0
  2  3  1  0
  3  5  1  0
  4  3  2  0
  5  6  1  0
  6 13  1  0
  6  7  1  6
  7  8  1  0
  8 12  1  0
  9  8  2  0
  9 10  1  0
 10 11  1  0
 12 11  2  0
 13 14  2  0
 15 16  1  0
 16 17  2  0
 17 18  1  0
 19 18  2  0
 19 20  1  0
 21 20  1  1
 22 21  1  0
 22 13  1  0
 23 21  1  0
 24 23  2  0
 25 19  1  0
 26 16  1  0
 26 25  2  0
 27 23  1  0
M  END
$$$$
