GHY.pdb
     RDKit          3D

 27 28  0  0  1  0  0  0  0  0999 V2000
    8.6553  -12.0144   18.3985 N   0  0  0  0  0  0  0  0  0  0  0  0
    8.7485  -13.4238   18.6132 C   0  0  0  0  0  0  0  0  0  0  0  0
    8.0500  -13.8742   19.8428 C   0  0  0  0  0  0  0  0  0  0  0  0
    7.5965  -13.0342   20.6916 O   0  0  0  0  0  0  0  0  0  0  0  0
    7.8895  -15.2449   20.0689 N   0  0  0  0  0  0  0  0  0  0  0  0
    7.1220  -15.7754   21.2569 C   0  0  1  0  0  0  0  0  0  0  0  0
    6.6053  -17.1130   20.8426 C   0  0  0  0  0  0  0  0  0  0  0  0
    6.0766  -18.0184   21.8486 C   0  0  0  0  0  0  0  0  0  0  0  0
    6.6832  -18.2002   23.0934 C   0  0  0  0  0  0  0  0  0  0  0  0
    5.9683  -19.0860   23.7892 N   0  0  0  0  0  0  0  0  0  0  0  0
    4.9147  -19.4853   23.0330 C   0  0  0  0  0  0  0  0  0  0  0  0
    5.0199  -18.8221   21.8829 N   0  0  0  0  0  0  0  0  0  0  0  0
    8.1180  -15.8153   22.3518 C   0  0  0  0  0  0  0  0  0  0  0  0
    9.3109  -16.2048   22.0866 O   0  0  0  0  0  0  0  0  0  0  0  0
   10.6574  -15.7163   30.6890 O   0  0  0  0  0  0  0  0  0  0  0  0
   10.1026  -15.3859   29.4741 C   0  0  0  0  0  0  0  0  0  0  0  0
   10.5928  -15.9883   28.3469 C   0  0  0  0  0  0  0  0  0  0  0  0
   10.0680  -15.6896   27.1008 C   0  0  0  0  0  0  0  0  0  0  0  0
    9.0419  -14.7718   27.0305 C   0  0  0  0  0  0  0  0  0  0  0  0
    8.4835  -14.4340   25.7149 C   0  0  0  0  0  0  0  0  0  0  0  0
    8.8945  -15.4842   24.7136 C   0  0  2  0  0  0  0  0  0  0  0  0
    7.8615  -15.4512   23.6698 N   0  0  0  0  0  0  0  0  0  0  0  0
    8.9306  -16.8483   25.2638 C   0  0  0  0  0  0  0  0  0  0  0  0
   10.0055  -17.3434   25.6741 O   0  0  0  0  0  0  0  0  0  0  0  0
    8.5594  -14.1750   28.1671 C   0  0  0  0  0  0  0  0  0  0  0  0
    9.0836  -14.4725   29.4184 C   0  0  0  0  0  0  0  0  0  0  0  0
    7.7852  -17.6215   25.3459 O   0  0  0  0  0  0  0  0  0  0  0  0
  1  2  1  0
  2  3  1  0
  3  5  1  0
  4  3  2  0
  5  6  1  0
  6 13  1  0
  6  7  1  6
  7  8  1  0
  8 12  1  0
  9  8  2  0
  9 10  1  0
 10 11  1  0
 12 11  2  0
 13 14  2  0
 15 16  1  0
 16 17  2  0
 17 18  1  0
 19 18  2  0
 19 20  1  0
 21 20  1  1
 22 21  1  0
 22 13  1  0
 23 21  1  0
 24 23  2  0
 25 19  1  0
 26 16  1  0
 26 25  2  0
 27 23  1  0
M  END
$$$$
