GHY.pdb
     RDKit          3D

 27 28  0  0  1  0  0  0  0  0999 V2000
    8.9050  -18.9240   18.5427 N   0  0  0  0  0  0  0  0  0  0  0  0
    8.4662  -18.4659   19.8229 C   0  0  0  0  0  0  0  0  0  0  0  0
    9.0523  -17.1576   20.2069 C   0  0  0  0  0  0  0  0  0  0  0  0
   10.2812  -16.8914   19.9816 O   0  0  0  0  0  0  0  0  0  0  0  0
    8.2378  -16.2044   20.8262 N   0  0  0  0  0  0  0  0  0  0  0  0
    8.7440  -14.8246   21.1749 C   0  0  1  0  0  0  0  0  0  0  0  0
    7.8099  -13.8689   20.5102 C   0  0  0  0  0  0  0  0  0  0  0  0
    7.7853  -13.7847   19.0598 C   0  0  0  0  0  0  0  0  0  0  0  0
    8.7866  -13.1471   18.3241 C   0  0  0  0  0  0  0  0  0  0  0  0
    8.4840  -13.2369   17.0278 N   0  0  0  0  0  0  0  0  0  0  0  0
    7.3152  -13.9143   16.8995 C   0  0  0  0  0  0  0  0  0  0  0  0
    6.9347  -14.2216   18.1382 N   0  0  0  0  0  0  0  0  0  0  0  0
    8.7128  -14.7832   22.6547 C   0  0  0  0  0  0  0  0  0  0  0  0
    8.0795  -13.8287   23.2318 O   0  0  0  0  0  0  0  0  0  0  0  0
    6.0952  -10.6395   26.9465 O   0  0  0  0  0  0  0  0  0  0  0  0
    6.4791  -11.8959   26.5376 C   0  0  0  0  0  0  0  0  0  0  0  0
    7.1686  -12.0174   25.3613 C   0  0  0  0  0  0  0  0  0  0  0  0
    7.5771  -13.2599   24.9068 C   0  0  0  0  0  0  0  0  0  0  0  0
    7.2697  -14.3652   25.6711 C   0  0  0  0  0  0  0  0  0  0  0  0
    7.6840  -15.6916   25.1961 C   0  0  0  0  0  0  0  0  0  0  0  0
    9.1715  -15.6905   24.9475 C   0  0  2  0  0  0  0  0  0  0  0  0
    9.3213  -15.7176   23.4865 N   0  0  0  0  0  0  0  0  0  0  0  0
    9.8657  -16.8689   25.4899 C   0  0  0  0  0  0  0  0  0  0  0  0
    9.9969  -17.0201   26.7263 O   0  0  0  0  0  0  0  0  0  0  0  0
    6.5782  -14.2303   26.8478 C   0  0  0  0  0  0  0  0  0  0  0  0
    6.1671  -12.9854   27.3065 C   0  0  0  0  0  0  0  0  0  0  0  0
   10.3909  -17.8415   24.6563 O   0  0  0  0  0  0  0  0  0  0  0  0
  1  2  1  0
  2  3  1  0
  3  5  1  0
  4  3  2  0
  5  6  1  0
  6 13  1  0
  6  7  1  6
  7  8  1  0
  8 12  1  0
  9  8  2  0
  9 10  1  0
 10 11  1  0
 12 11  2  0
 13 14  2  0
 15 16  1  0
 16 17  2  0
 17 18  1  0
 19 18  2  0
 19 20  1  0
 21 20  1  6
 22 21  1  0
 22 13  1  0
 23 21  1  0
 24 23  2  0
 25 19  1  0
 26 16  1  0
 26 25  2  0
 27 23  1  0
M  END
$$$$
