QGY.pdb
     RDKit          3D

 26 26  0  0  1  0  0  0  0  0999 V2000
    8.5007  -12.4559   18.1359 N   0  0  0  0  0  0  0  0  0  0  0  0
    8.8768  -13.5305   18.9925 C   0  0  0  0  0  0  0  0  0  0  0  0
   10.0763  -13.6629   19.2962 O   0  0  0  0  0  0  0  0  0  0  0  0
    7.8665  -14.4616   19.5069 C   0  0  0  0  0  0  0  0  0  0  0  0
    7.8443  -15.7315   18.7345 C   0  0  0  0  0  0  0  0  0  0  0  0
    6.8554  -16.7631   19.2203 C   0  0  2  0  0  0  0  0  0  0  0  0
    5.6415  -16.1307   19.7240 N   0  0  0  0  0  0  0  0  0  0  0  0
    7.5295  -17.4524   20.3694 C   0  0  0  0  0  0  0  0  0  0  0  0
    8.5584  -18.1354   20.1635 O   0  0  0  0  0  0  0  0  0  0  0  0
    7.0036  -17.3305   21.6815 N   0  0  0  0  0  0  0  0  0  0  0  0
    7.5797  -18.0506   22.7998 C   0  0  0  0  0  0  0  0  0  0  0  0
    8.7328  -17.2978   23.3166 C   0  0  0  0  0  0  0  0  0  0  0  0
    9.8130  -17.2170   22.6409 O   0  0  0  0  0  0  0  0  0  0  0  0
    5.2562  -12.3671   27.5671 O   0  0  0  0  0  0  0  0  0  0  0  0
    6.3593  -12.8972   26.9054 C   0  0  0  0  0  0  0  0  0  0  0  0
    6.2486  -13.5402   25.6852 C   0  0  0  0  0  0  0  0  0  0  0  0
    7.3401  -14.0649   25.0298 C   0  0  0  0  0  0  0  0  0  0  0  0
    8.6129  -13.9586   25.5928 C   0  0  0  0  0  0  0  0  0  0  0  0
    9.7826  -14.5229   24.8948 C   0  0  0  0  0  0  0  0  0  0  0  0
    9.9506  -16.0102   25.1148 C   0  0  2  0  0  0  0  0  0  0  0  0
    8.7384  -16.6242   24.5637 N   0  0  0  0  0  0  0  0  0  0  0  0
   10.1252  -16.3768   26.5295 C   0  0  0  0  0  0  0  0  0  0  0  0
   11.1362  -15.9531   27.1468 O   0  0  0  0  0  0  0  0  0  0  0  0
    8.7109  -13.3208   26.8001 C   0  0  0  0  0  0  0  0  0  0  0  0
    7.6172  -12.8006   27.4463 C   0  0  0  0  0  0  0  0  0  0  0  0
    9.2326  -17.1694   27.2307 O   0  0  0  0  0  0  0  0  0  0  0  0
  2  1  1  0
  2  3  2  0
  4  2  1  0
  5  4  1  0
  6  5  1  0
  6  7  1  1
  8 10  1  0
  8  6  1  0
  9  8  2  0
 11 12  1  0
 11 10  1  0
 12 21  1  0
 13 12  2  0
 15 25  2  0
 15 14  1  0
 16 15  1  0
 17 18  1  0
 17 16  2  0
 18 24  2  0
 19 18  1  0
 20 19  1  1
 20 22  1  0
 21 20  1  0
 22 23  2  0
 22 26  1  0
 24 25  1  0
M  END
$$$$
