QGY.pdb
     RDKit          3D

 26 26  0  0  1  0  0  0  0  0999 V2000
    7.6548  -12.2430   17.1157 N   0  0  0  0  0  0  0  0  0  0  0  0
    7.8506  -13.6384   16.9052 C   0  0  0  0  0  0  0  0  0  0  0  0
    7.2073  -14.2042   16.0027 O   0  0  0  0  0  0  0  0  0  0  0  0
    8.7948  -14.3920   17.7376 C   0  0  0  0  0  0  0  0  0  0  0  0
    8.1857  -14.7976   19.0316 C   0  0  0  0  0  0  0  0  0  0  0  0
    8.9944  -14.4549   20.2591 C   0  0  2  0  0  0  0  0  0  0  0  0
   10.4229  -14.6041   20.0054 N   0  0  0  0  0  0  0  0  0  0  0  0
    8.5994  -15.4674   21.2929 C   0  0  0  0  0  0  0  0  0  0  0  0
    7.4308  -15.4693   21.7419 O   0  0  0  0  0  0  0  0  0  0  0  0
    9.5454  -16.4170   21.7584 N   0  0  0  0  0  0  0  0  0  0  0  0
    9.2418  -17.3157   22.8545 C   0  0  0  0  0  0  0  0  0  0  0  0
    9.6796  -16.7021   24.1176 C   0  0  0  0  0  0  0  0  0  0  0  0
   10.7822  -16.0618   24.1823 O   0  0  0  0  0  0  0  0  0  0  0  0
    6.1345  -10.9399   25.0958 O   0  0  0  0  0  0  0  0  0  0  0  0
    6.6462  -12.1145   25.6383 C   0  0  0  0  0  0  0  0  0  0  0  0
    6.0797  -13.3514   25.3863 C   0  0  0  0  0  0  0  0  0  0  0  0
    6.5858  -14.5142   25.9230 C   0  0  0  0  0  0  0  0  0  0  0  0
    7.7074  -14.4725   26.7526 C   0  0  0  0  0  0  0  0  0  0  0  0
    8.2491  -15.7157   27.3314 C   0  0  0  0  0  0  0  0  0  0  0  0
    9.4579  -16.2436   26.5905 C   0  0  2  0  0  0  0  0  0  0  0  0
    8.9386  -16.7695   25.3240 N   0  0  0  0  0  0  0  0  0  0  0  0
   10.1880  -17.2864   27.3291 C   0  0  0  0  0  0  0  0  0  0  0  0
   10.7452  -16.9843   28.4159 O   0  0  0  0  0  0  0  0  0  0  0  0
    8.2598  -13.2437   26.9953 C   0  0  0  0  0  0  0  0  0  0  0  0
    7.7486  -12.0896   26.4560 C   0  0  0  0  0  0  0  0  0  0  0  0
   10.2996  -18.5962   26.8949 O   0  0  0  0  0  0  0  0  0  0  0  0
  2  1  1  0
  2  3  2  0
  4  2  1  0
  5  4  1  0
  6  5  1  0
  6  7  1  6
  8 10  1  0
  8  6  1  0
  9  8  2  0
 11 12  1  0
 11 10  1  0
 12 21  1  0
 13 12  2  0
 15 25  2  0
 15 14  1  0
 16 15  1  0
 17 18  1  0
 17 16  2  0
 18 24  2  0
 19 18  1  0
 20 19  1  1
 20 22  1  0
 21 20  1  0
 22 23  2  0
 22 26  1  0
 24 25  1  0
M  END
$$$$
