QGY.pdb
     RDKit          3D

 26 26  0  0  1  0  0  0  0  0999 V2000
    8.7727  -12.6687   17.5147 N   0  0  0  0  0  0  0  0  0  0  0  0
    7.8582  -13.7528   17.3797 C   0  0  0  0  0  0  0  0  0  0  0  0
    7.6399  -14.2147   16.2450 O   0  0  0  0  0  0  0  0  0  0  0  0
    7.1885  -14.3135   18.5584 C   0  0  0  0  0  0  0  0  0  0  0  0
    7.5012  -13.5403   19.7890 C   0  0  0  0  0  0  0  0  0  0  0  0
    8.7757  -13.9383   20.4927 C   0  0  2  0  0  0  0  0  0  0  0  0
    9.6258  -14.7445   19.6238 N   0  0  0  0  0  0  0  0  0  0  0  0
    8.3445  -14.7969   21.6446 C   0  0  0  0  0  0  0  0  0  0  0  0
    7.6201  -14.3096   22.5420 O   0  0  0  0  0  0  0  0  0  0  0  0
    8.7555  -16.1530   21.7159 N   0  0  0  0  0  0  0  0  0  0  0  0
   10.0430  -16.5277   22.2665 C   0  0  0  0  0  0  0  0  0  0  0  0
    9.9815  -16.4511   23.7340 C   0  0  0  0  0  0  0  0  0  0  0  0
   11.0315  -16.2054   24.4175 O   0  0  0  0  0  0  0  0  0  0  0  0
    6.6721  -10.5638   26.3726 O   0  0  0  0  0  0  0  0  0  0  0  0
    6.8526  -11.9434   26.3691 C   0  0  0  0  0  0  0  0  0  0  0  0
    7.9220  -12.5489   27.0048 C   0  0  0  0  0  0  0  0  0  0  0  0
    8.1011  -13.9143   27.0016 C   0  0  0  0  0  0  0  0  0  0  0  0
    7.1880  -14.7388   26.3425 C   0  0  0  0  0  0  0  0  0  0  0  0
    7.3795  -16.2007   26.3345 C   0  0  0  0  0  0  0  0  0  0  0  0
    8.7817  -16.6184   25.9492 C   0  0  2  0  0  0  0  0  0  0  0  0
    8.7927  -16.6374   24.4830 N   0  0  0  0  0  0  0  0  0  0  0  0
    9.1720  -17.9296   26.4918 C   0  0  0  0  0  0  0  0  0  0  0  0
    9.6299  -17.9912   27.6620 O   0  0  0  0  0  0  0  0  0  0  0  0
    6.1340  -14.1293   25.7168 C   0  0  0  0  0  0  0  0  0  0  0  0
    5.9633  -12.7673   25.7252 C   0  0  0  0  0  0  0  0  0  0  0  0
    9.0638  -19.1141   25.7835 O   0  0  0  0  0  0  0  0  0  0  0  0
  2  1  1  0
  2  3  2  0
  4  2  1  0
  5  4  1  0
  6  5  1  0
  6  7  1  6
  8 10  1  0
  8  6  1  0
  9  8  2  0
 11 12  1  0
 11 10  1  0
 12 21  1  0
 13 12  2  0
 15 25  2  0
 15 14  1  0
 16 15  1  0
 17 18  1  0
 17 16  2  0
 18 24  2  0
 19 18  1  0
 20 19  1  6
 20 22  1  0
 21 20  1  0
 22 23  2  0
 22 26  1  0
 24 25  1  0
M  END
$$$$
