QGY.pdb
     RDKit          3D

 26 26  0  0  1  0  0  0  0  0999 V2000
    9.1318  -12.3872   19.0475 N   0  0  0  0  0  0  0  0  0  0  0  0
    8.2882  -13.5333   18.9787 C   0  0  0  0  0  0  0  0  0  0  0  0
    7.6416  -13.7394   17.9356 O   0  0  0  0  0  0  0  0  0  0  0  0
    8.1865  -14.4527   20.1174 C   0  0  0  0  0  0  0  0  0  0  0  0
    7.6288  -15.7700   19.7131 C   0  0  0  0  0  0  0  0  0  0  0  0
    7.5634  -16.8052   20.8096 C   0  0  2  0  0  0  0  0  0  0  0  0
    7.0015  -16.2410   22.0316 N   0  0  0  0  0  0  0  0  0  0  0  0
    8.9881  -17.1838   21.0867 C   0  0  0  0  0  0  0  0  0  0  0  0
    9.6895  -17.6665   20.1689 O   0  0  0  0  0  0  0  0  0  0  0  0
    9.5366  -16.9957   22.3817 N   0  0  0  0  0  0  0  0  0  0  0  0
   10.9050  -17.3637   22.6869 C   0  0  0  0  0  0  0  0  0  0  0  0
   11.2026  -17.0033   24.0815 C   0  0  0  0  0  0  0  0  0  0  0  0
   12.3089  -17.3440   24.6199 O   0  0  0  0  0  0  0  0  0  0  0  0
    5.0683  -12.6909   25.9025 O   0  0  0  0  0  0  0  0  0  0  0  0
    6.4057  -13.0697   25.9617 C   0  0  0  0  0  0  0  0  0  0  0  0
    7.0955  -13.1563   27.1581 C   0  0  0  0  0  0  0  0  0  0  0  0
    8.4192  -13.5313   27.2172 C   0  0  0  0  0  0  0  0  0  0  0  0
    9.1127  -13.8399   26.0459 C   0  0  0  0  0  0  0  0  0  0  0  0
   10.5310  -14.2380   26.1062 C   0  0  0  0  0  0  0  0  0  0  0  0
   10.7285  -15.7342   26.2121 C   0  0  2  0  0  0  0  0  0  0  0  0
   10.3159  -16.2738   24.9125 N   0  0  0  0  0  0  0  0  0  0  0  0
    9.9567  -16.3510   27.3029 C   0  0  0  0  0  0  0  0  0  0  0  0
    8.9299  -17.0199   27.0181 O   0  0  0  0  0  0  0  0  0  0  0  0
    8.4207  -13.7508   24.8680 C   0  0  0  0  0  0  0  0  0  0  0  0
    7.1011  -13.3762   24.8186 C   0  0  0  0  0  0  0  0  0  0  0  0
   10.2969  -16.2385   28.6401 O   0  0  0  0  0  0  0  0  0  0  0  0
  2  1  1  0
  2  3  2  0
  4  2  1  0
  5  4  1  0
  6  5  1  0
  6  7  1  1
  8 10  1  0
  8  6  1  0
  9  8  2  0
 11 12  1  0
 11 10  1  0
 12 21  1  0
 13 12  2  0
 15 25  2  0
 15 14  1  0
 16 15  1  0
 17 18  1  0
 17 16  2  0
 18 24  2  0
 19 18  1  0
 20 19  1  6
 20 22  1  0
 21 20  1  0
 22 23  2  0
 22 26  1  0
 24 25  1  0
M  END
$$$$
