QGY.pdb
     RDKit          3D

 26 26  0  0  1  0  0  0  0  0999 V2000
    7.1461  -17.2746   16.5147 N   0  0  0  0  0  0  0  0  0  0  0  0
    6.8357  -18.5928   16.9573 C   0  0  0  0  0  0  0  0  0  0  0  0
    5.8906  -19.1983   16.4198 O   0  0  0  0  0  0  0  0  0  0  0  0
    7.6182  -19.2231   18.0263 C   0  0  0  0  0  0  0  0  0  0  0  0
    8.6155  -18.2849   18.6050 C   0  0  0  0  0  0  0  0  0  0  0  0
    8.6680  -18.2512   20.1130 C   0  0  2  0  0  0  0  0  0  0  0  0
    7.6358  -19.1025   20.6937 N   0  0  0  0  0  0  0  0  0  0  0  0
    8.3646  -16.8317   20.4915 C   0  0  0  0  0  0  0  0  0  0  0  0
    9.0930  -15.9082   20.0628 O   0  0  0  0  0  0  0  0  0  0  0  0
    7.2585  -16.5386   21.3303 N   0  0  0  0  0  0  0  0  0  0  0  0
    6.8922  -15.1739   21.6537 C   0  0  0  0  0  0  0  0  0  0  0  0
    7.7773  -14.6752   22.7173 C   0  0  0  0  0  0  0  0  0  0  0  0
    7.5050  -13.5923   23.3363 O   0  0  0  0  0  0  0  0  0  0  0  0
   10.2865  -14.3919   30.7808 O   0  0  0  0  0  0  0  0  0  0  0  0
    9.8532  -14.5999   29.4751 C   0  0  0  0  0  0  0  0  0  0  0  0
    9.4426  -13.5600   28.6598 C   0  0  0  0  0  0  0  0  0  0  0  0
    9.0137  -13.7653   27.3674 C   0  0  0  0  0  0  0  0  0  0  0  0
    8.9820  -15.0559   26.8367 C   0  0  0  0  0  0  0  0  0  0  0  0
    8.5197  -15.2787   25.4545 C   0  0  0  0  0  0  0  0  0  0  0  0
    9.6016  -15.0616   24.4194 C   0  0  2  0  0  0  0  0  0  0  0  0
    8.9637  -15.3335   23.1274 N   0  0  0  0  0  0  0  0  0  0  0  0
   10.7785  -15.9239   24.6129 C   0  0  0  0  0  0  0  0  0  0  0  0
   11.8863  -15.3897   24.8777 O   0  0  0  0  0  0  0  0  0  0  0  0
    9.3903  -16.0770   27.6519 C   0  0  0  0  0  0  0  0  0  0  0  0
    9.8164  -15.8631   28.9392 C   0  0  0  0  0  0  0  0  0  0  0  0
   10.7394  -17.3046   24.5203 O   0  0  0  0  0  0  0  0  0  0  0  0
  2  1  1  0
  2  3  2  0
  4  2  1  0
  5  4  1  0
  6  5  1  0
  6  7  1  1
  8 10  1  0
  8  6  1  0
  9  8  2  0
 11 12  1  0
 11 10  1  0
 12 21  1  0
 13 12  2  0
 15 25  2  0
 15 14  1  0
 16 15  1  0
 17 18  1  0
 17 16  2  0
 18 24  2  0
 19 18  1  0
 20 19  1  1
 20 22  1  0
 21 20  1  0
 22 23  2  0
 22 26  1  0
 24 25  1  0
M  END
$$$$
