QGY.pdb
     RDKit          3D

 26 26  0  0  1  0  0  0  0  0999 V2000
    7.7319  -13.0435   15.7153 N   0  0  0  0  0  0  0  0  0  0  0  0
    7.8301  -14.3286   16.3227 C   0  0  0  0  0  0  0  0  0  0  0  0
    7.1745  -15.2704   15.8412 O   0  0  0  0  0  0  0  0  0  0  0  0
    8.6898  -14.5355   17.4933 C   0  0  0  0  0  0  0  0  0  0  0  0
    8.2407  -13.7257   18.6561 C   0  0  0  0  0  0  0  0  0  0  0  0
    9.2266  -13.6333   19.7953 C   0  0  2  0  0  0  0  0  0  0  0  0
   10.5643  -14.0245   19.3652 N   0  0  0  0  0  0  0  0  0  0  0  0
    8.7568  -14.6311   20.8120 C   0  0  0  0  0  0  0  0  0  0  0  0
    7.6586  -14.4574   21.3874 O   0  0  0  0  0  0  0  0  0  0  0  0
    9.5530  -15.7646   21.1190 N   0  0  0  0  0  0  0  0  0  0  0  0
    9.1149  -16.7634   22.0738 C   0  0  0  0  0  0  0  0  0  0  0  0
    9.5333  -16.3572   23.4241 C   0  0  0  0  0  0  0  0  0  0  0  0
   10.6475  -15.7617   23.6086 O   0  0  0  0  0  0  0  0  0  0  0  0
    6.0101  -10.7358   25.7551 O   0  0  0  0  0  0  0  0  0  0  0  0
    6.4996  -12.0155   25.9972 C   0  0  0  0  0  0  0  0  0  0  0  0
    5.7097  -13.1440   25.8675 C   0  0  0  0  0  0  0  0  0  0  0  0
    6.1936  -14.4108   26.1071 C   0  0  0  0  0  0  0  0  0  0  0  0
    7.5222  -14.5912   26.4950 C   0  0  0  0  0  0  0  0  0  0  0  0
    8.0417  -15.9462   26.7556 C   0  0  0  0  0  0  0  0  0  0  0  0
    9.2655  -16.2861   25.9336 C   0  0  2  0  0  0  0  0  0  0  0  0
    8.7604  -16.5858   24.5900 N   0  0  0  0  0  0  0  0  0  0  0  0
   10.0332  -17.4221   26.4687 C   0  0  0  0  0  0  0  0  0  0  0  0
    9.9720  -18.5301   25.8759 O   0  0  0  0  0  0  0  0  0  0  0  0
    8.2947  -13.4680   26.6204 C   0  0  0  0  0  0  0  0  0  0  0  0
    7.8037  -12.2089   26.3795 C   0  0  0  0  0  0  0  0  0  0  0  0
   10.8289  -17.3438   27.5989 O   0  0  0  0  0  0  0  0  0  0  0  0
  2  1  1  0
  2  3  2  0
  4  2  1  0
  5  4  1  0
  6  5  1  0
  6  7  1  6
  8 10  1  0
  8  6  1  0
  9  8  2  0
 11 12  1  0
 11 10  1  0
 12 21  1  0
 13 12  2  0
 15 25  2  0
 15 14  1  0
 16 15  1  0
 17 18  1  0
 17 16  2  0
 18 24  2  0
 19 18  1  0
 20 19  1  1
 20 22  1  0
 21 20  1  0
 22 23  2  0
 22 26  1  0
 24 25  1  0
M  END
$$$$
