QGY.pdb
     RDKit          3D

 26 26  0  0  1  0  0  0  0  0999 V2000
    7.8165  -14.0442   18.7102 N   0  0  0  0  0  0  0  0  0  0  0  0
    7.9936  -13.0288   19.6939 C   0  0  0  0  0  0  0  0  0  0  0  0
    8.2550  -11.8712   19.3196 O   0  0  0  0  0  0  0  0  0  0  0  0
    7.8684  -13.3445   21.1211 C   0  0  0  0  0  0  0  0  0  0  0  0
    7.5505  -14.7798   21.3415 C   0  0  0  0  0  0  0  0  0  0  0  0
    7.3190  -15.1742   22.7799 C   0  0  2  0  0  0  0  0  0  0  0  0
    8.1329  -14.3684   23.6830 N   0  0  0  0  0  0  0  0  0  0  0  0
    7.7828  -16.5969   22.8835 C   0  0  0  0  0  0  0  0  0  0  0  0
    7.4213  -17.4296   22.0214 O   0  0  0  0  0  0  0  0  0  0  0  0
    8.6262  -16.9956   23.9525 N   0  0  0  0  0  0  0  0  0  0  0  0
   10.0613  -16.7982   23.9009 C   0  0  0  0  0  0  0  0  0  0  0  0
   10.5429  -16.4035   25.2335 C   0  0  0  0  0  0  0  0  0  0  0  0
   11.7518  -16.0303   25.4044 O   0  0  0  0  0  0  0  0  0  0  0  0
    6.5210  -11.4416   24.6753 O   0  0  0  0  0  0  0  0  0  0  0  0
    7.1103  -12.3506   25.5484 C   0  0  0  0  0  0  0  0  0  0  0  0
    6.4009  -13.3942   26.1160 C   0  0  0  0  0  0  0  0  0  0  0  0
    6.9837  -14.2941   26.9802 C   0  0  0  0  0  0  0  0  0  0  0  0
    8.3340  -14.1728   27.3119 C   0  0  0  0  0  0  0  0  0  0  0  0
    8.9594  -15.1329   28.2398 C   0  0  0  0  0  0  0  0  0  0  0  0
   10.1795  -15.8156   27.6618 C   0  0  2  0  0  0  0  0  0  0  0  0
    9.7321  -16.4053   26.3960 N   0  0  0  0  0  0  0  0  0  0  0  0
   10.7481  -16.8456   28.5461 C   0  0  0  0  0  0  0  0  0  0  0  0
   10.7318  -18.0460   28.1698 O   0  0  0  0  0  0  0  0  0  0  0  0
    9.0262  -13.1368   26.7448 C   0  0  0  0  0  0  0  0  0  0  0  0
    8.4370  -12.2443   25.8842 C   0  0  0  0  0  0  0  0  0  0  0  0
   11.3071  -16.5696   29.7822 O   0  0  0  0  0  0  0  0  0  0  0  0
  2  1  1  0
  2  3  2  0
  4  2  1  0
  5  4  1  0
  6  5  1  0
  6  7  1  1
  8 10  1  0
  8  6  1  0
  9  8  2  0
 11 12  1  0
 11 10  1  0
 12 21  1  0
 13 12  2  0
 15 25  2  0
 15 14  1  0
 16 15  1  0
 17 18  1  0
 17 16  2  0
 18 24  2  0
 19 18  1  0
 20 19  1  1
 20 22  1  0
 21 20  1  0
 22 23  2  0
 22 26  1  0
 24 25  1  0
M  END
$$$$
