QGY.pdb
     RDKit          3D

 26 26  0  0  1  0  0  0  0  0999 V2000
    7.4183  -15.1559   17.4960 N   0  0  0  0  0  0  0  0  0  0  0  0
    7.5943  -13.7734   17.1998 C   0  0  0  0  0  0  0  0  0  0  0  0
    7.7190  -13.4266   16.0112 O   0  0  0  0  0  0  0  0  0  0  0  0
    7.6261  -12.7788   18.2777 C   0  0  0  0  0  0  0  0  0  0  0  0
    7.3836  -13.3994   19.6066 C   0  0  0  0  0  0  0  0  0  0  0  0
    8.5984  -13.5129   20.4952 C   0  0  2  0  0  0  0  0  0  0  0  0
    9.7314  -14.0727   19.7671 N   0  0  0  0  0  0  0  0  0  0  0  0
    8.2154  -14.4833   21.5730 C   0  0  0  0  0  0  0  0  0  0  0  0
    7.2653  -14.2109   22.3414 O   0  0  0  0  0  0  0  0  0  0  0  0
    8.9263  -15.7023   21.7200 N   0  0  0  0  0  0  0  0  0  0  0  0
    8.5536  -16.6821   22.7212 C   0  0  0  0  0  0  0  0  0  0  0  0
    9.1555  -16.3084   24.0102 C   0  0  0  0  0  0  0  0  0  0  0  0
   10.1601  -15.5220   24.0558 O   0  0  0  0  0  0  0  0  0  0  0  0
    6.2568  -10.8959   25.9734 O   0  0  0  0  0  0  0  0  0  0  0  0
    6.7691  -12.1355   26.3433 C   0  0  0  0  0  0  0  0  0  0  0  0
    7.9498  -12.2635   27.0532 C   0  0  0  0  0  0  0  0  0  0  0  0
    8.4573  -13.4901   27.4195 C   0  0  0  0  0  0  0  0  0  0  0  0
    7.7779  -14.6600   27.0761 C   0  0  0  0  0  0  0  0  0  0  0  0
    8.3210  -15.9747   27.4640 C   0  0  0  0  0  0  0  0  0  0  0  0
    9.3861  -16.4847   26.5182 C   0  0  2  0  0  0  0  0  0  0  0  0
    8.6853  -16.7749   25.2634 N   0  0  0  0  0  0  0  0  0  0  0  0
   10.0859  -17.6806   27.0146 C   0  0  0  0  0  0  0  0  0  0  0  0
    9.8559  -18.7901   26.4678 O   0  0  0  0  0  0  0  0  0  0  0  0
    6.6110  -14.5218   26.3737 C   0  0  0  0  0  0  0  0  0  0  0  0
    6.1125  -13.2948   26.0127 C   0  0  0  0  0  0  0  0  0  0  0  0
   10.9935  -17.6579   28.0597 O   0  0  0  0  0  0  0  0  0  0  0  0
  2  1  1  0
  2  3  2  0
  4  2  1  0
  5  4  1  0
  6  5  1  0
  6  7  1  6
  8 10  1  0
  8  6  1  0
  9  8  2  0
 11 12  1  0
 11 10  1  0
 12 21  1  0
 13 12  2  0
 15 25  2  0
 15 14  1  0
 16 15  1  0
 17 18  1  0
 17 16  2  0
 18 24  2  0
 19 18  1  0
 20 19  1  1
 20 22  1  0
 21 20  1  0
 22 23  2  0
 22 26  1  0
 24 25  1  0
M  END
$$$$
