QGY.pdb
     RDKit          3D

 26 26  0  0  1  0  0  0  0  0999 V2000
    9.4303  -13.9932   16.1429 N   0  0  0  0  0  0  0  0  0  0  0  0
    8.0308  -14.2542   16.0857 C   0  0  0  0  0  0  0  0  0  0  0  0
    7.5677  -14.8207   15.0791 O   0  0  0  0  0  0  0  0  0  0  0  0
    7.1540  -13.8624   17.1948 C   0  0  0  0  0  0  0  0  0  0  0  0
    7.9288  -13.5450   18.4232 C   0  0  0  0  0  0  0  0  0  0  0  0
    8.8636  -14.6326   18.8935 C   0  0  2  0  0  0  0  0  0  0  0  0
    8.7243  -15.8339   18.0780 N   0  0  0  0  0  0  0  0  0  0  0  0
    8.4203  -14.9651   20.2873 C   0  0  0  0  0  0  0  0  0  0  0  0
    8.4025  -14.0687   21.1611 O   0  0  0  0  0  0  0  0  0  0  0  0
    8.0236  -16.2880   20.6126 N   0  0  0  0  0  0  0  0  0  0  0  0
    7.6334  -16.6535   21.9600 C   0  0  0  0  0  0  0  0  0  0  0  0
    8.7588  -16.4033   22.8734 C   0  0  0  0  0  0  0  0  0  0  0  0
    9.9618  -16.5977   22.4926 O   0  0  0  0  0  0  0  0  0  0  0  0
    5.2472  -11.6260   27.0857 O   0  0  0  0  0  0  0  0  0  0  0  0
    6.3894  -12.2747   26.6269 C   0  0  0  0  0  0  0  0  0  0  0  0
    6.4943  -12.7579   25.3346 C   0  0  0  0  0  0  0  0  0  0  0  0
    7.6245  -13.4000   24.8801 C   0  0  0  0  0  0  0  0  0  0  0  0
    8.7159  -13.5831   25.7306 C   0  0  0  0  0  0  0  0  0  0  0  0
    9.9257  -14.2736   25.2474 C   0  0  0  0  0  0  0  0  0  0  0  0
    9.7460  -15.7694   25.1091 C   0  0  2  0  0  0  0  0  0  0  0  0
    8.6047  -15.9419   24.2047 N   0  0  0  0  0  0  0  0  0  0  0  0
    9.5047  -16.4512   26.3909 C   0  0  0  0  0  0  0  0  0  0  0  0
   10.4069  -16.4342   27.2676 O   0  0  0  0  0  0  0  0  0  0  0  0
    8.6013  -13.1013   27.0069 C   0  0  0  0  0  0  0  0  0  0  0  0
    7.4706  -12.4624   27.4515 C   0  0  0  0  0  0  0  0  0  0  0  0
    8.3300  -17.1180   26.6941 O   0  0  0  0  0  0  0  0  0  0  0  0
  2  1  1  0
  2  3  2  0
  4  2  1  0
  5  4  1  0
  6  5  1  0
  6  7  1  6
  8 10  1  0
  8  6  1  0
  9  8  2  0
 11 12  1  0
 11 10  1  0
 12 21  1  0
 13 12  2  0
 15 25  2  0
 15 14  1  0
 16 15  1  0
 17 18  1  0
 17 16  2  0
 18 24  2  0
 19 18  1  0
 20 19  1  1
 20 22  1  0
 21 20  1  0
 22 23  2  0
 22 26  1  0
 24 25  1  0
M  END
$$$$
