QGY.pdb
     RDKit          3D

 26 26  0  0  1  0  0  0  0  0999 V2000
    7.9369  -12.1708   19.1586 N   0  0  0  0  0  0  0  0  0  0  0  0
    7.8923  -13.4022   18.4433 C   0  0  0  0  0  0  0  0  0  0  0  0
    7.5642  -13.3861   17.2430 O   0  0  0  0  0  0  0  0  0  0  0  0
    8.2288  -14.6643   19.1112 C   0  0  0  0  0  0  0  0  0  0  0  0
    9.4261  -15.3049   18.5064 C   0  0  0  0  0  0  0  0  0  0  0  0
    9.3321  -16.8000   18.3220 C   0  0  2  0  0  0  0  0  0  0  0  0
    7.9436  -17.2459   18.3459 N   0  0  0  0  0  0  0  0  0  0  0  0
   10.0296  -17.3935   19.5100 C   0  0  0  0  0  0  0  0  0  0  0  0
   11.2661  -17.2459   19.6388 O   0  0  0  0  0  0  0  0  0  0  0  0
    9.2914  -18.1177   20.4815 N   0  0  0  0  0  0  0  0  0  0  0  0
    9.9431  -18.7616   21.6048 C   0  0  0  0  0  0  0  0  0  0  0  0
   10.3556  -17.7370   22.5762 C   0  0  0  0  0  0  0  0  0  0  0  0
   11.2904  -16.9137   22.2963 O   0  0  0  0  0  0  0  0  0  0  0  0
   10.7877  -13.6167   30.5080 O   0  0  0  0  0  0  0  0  0  0  0  0
   10.3930  -14.2852   29.3533 C   0  0  0  0  0  0  0  0  0  0  0  0
    9.9341  -13.6148   28.2333 C   0  0  0  0  0  0  0  0  0  0  0  0
    9.5435  -14.2760   27.0903 C   0  0  0  0  0  0  0  0  0  0  0  0
    9.6022  -15.6693   27.0324 C   0  0  0  0  0  0  0  0  0  0  0  0
    9.1810  -16.3797   25.8110 C   0  0  0  0  0  0  0  0  0  0  0  0
   10.3264  -16.6835   24.8704 C   0  0  2  0  0  0  0  0  0  0  0  0
    9.7691  -17.5855   23.8576 N   0  0  0  0  0  0  0  0  0  0  0  0
   11.4847  -17.2992   25.5380 C   0  0  0  0  0  0  0  0  0  0  0  0
   11.4595  -18.5327   25.7838 O   0  0  0  0  0  0  0  0  0  0  0  0
   10.0576  -16.3224   28.1460 C   0  0  0  0  0  0  0  0  0  0  0  0
   10.4450  -15.6550   29.2813 C   0  0  0  0  0  0  0  0  0  0  0  0
   12.6144  -16.5939   25.9159 O   0  0  0  0  0  0  0  0  0  0  0  0
  2  1  1  0
  2  3  2  0
  4  2  1  0
  5  4  1  0
  6  5  1  0
  6  7  1  1
  8 10  1  0
  8  6  1  0
  9  8  2  0
 11 12  1  0
 11 10  1  0
 12 21  1  0
 13 12  2  0
 15 25  2  0
 15 14  1  0
 16 15  1  0
 17 18  1  0
 17 16  2  0
 18 24  2  0
 19 18  1  0
 20 19  1  1
 20 22  1  0
 21 20  1  0
 22 23  2  0
 22 26  1  0
 24 25  1  0
M  END
$$$$
