QGY.pdb
     RDKit          3D

 26 26  0  0  1  0  0  0  0  0999 V2000
    9.6788  -20.4001   16.0134 N   0  0  0  0  0  0  0  0  0  0  0  0
    9.7337  -20.6534   17.4145 C   0  0  0  0  0  0  0  0  0  0  0  0
    9.6252  -21.8262   17.8159 O   0  0  0  0  0  0  0  0  0  0  0  0
    9.9164  -19.5502   18.3642 C   0  0  0  0  0  0  0  0  0  0  0  0
    8.6829  -18.7320   18.5013 C   0  0  0  0  0  0  0  0  0  0  0  0
    8.9030  -17.2397   18.5536 C   0  0  2  0  0  0  0  0  0  0  0  0
   10.3160  -16.9230   18.7285 N   0  0  0  0  0  0  0  0  0  0  0  0
    8.1686  -16.7702   19.7743 C   0  0  0  0  0  0  0  0  0  0  0  0
    7.0793  -17.3039   20.0842 O   0  0  0  0  0  0  0  0  0  0  0  0
    8.7060  -15.7275   20.5724 N   0  0  0  0  0  0  0  0  0  0  0  0
    7.9779  -15.1846   21.7022 C   0  0  0  0  0  0  0  0  0  0  0  0
    8.7586  -15.4024   22.9297 C   0  0  0  0  0  0  0  0  0  0  0  0
   10.0235  -15.2297   22.9357 O   0  0  0  0  0  0  0  0  0  0  0  0
    6.0379  -10.1866   26.5086 O   0  0  0  0  0  0  0  0  0  0  0  0
    6.4982  -11.4996   26.5031 C   0  0  0  0  0  0  0  0  0  0  0  0
    5.7356  -12.5464   26.0162 C   0  0  0  0  0  0  0  0  0  0  0  0
    6.1907  -13.8461   26.0104 C   0  0  0  0  0  0  0  0  0  0  0  0
    7.4604  -14.1458   26.5065 C   0  0  0  0  0  0  0  0  0  0  0  0
    7.9485  -15.5370   26.5049 C   0  0  0  0  0  0  0  0  0  0  0  0
    8.9573  -15.8159   25.4124 C   0  0  2  0  0  0  0  0  0  0  0  0
    8.1897  -15.8076   24.1630 N   0  0  0  0  0  0  0  0  0  0  0  0
    9.6656  -17.0948   25.5821 C   0  0  0  0  0  0  0  0  0  0  0  0
    9.3439  -18.0690   24.8538 O   0  0  0  0  0  0  0  0  0  0  0  0
    8.2062  -13.1027   26.9859 C   0  0  0  0  0  0  0  0  0  0  0  0
    7.7444  -11.8100   26.9876 C   0  0  0  0  0  0  0  0  0  0  0  0
   10.6774  -17.2928   26.5060 O   0  0  0  0  0  0  0  0  0  0  0  0
  2  1  1  0
  2  3  2  0
  4  2  1  0
  5  4  1  0
  6  5  1  0
  6  7  1  1
  8 10  1  0
  8  6  1  0
  9  8  2  0
 11 12  1  0
 11 10  1  0
 12 21  1  0
 13 12  2  0
 15 25  2  0
 15 14  1  0
 16 15  1  0
 17 18  1  0
 17 16  2  0
 18 24  2  0
 19 18  1  0
 20 19  1  1
 20 22  1  0
 21 20  1  0
 22 23  2  0
 22 26  1  0
 24 25  1  0
M  END
$$$$
