QGY.pdb
     RDKit          3D

 26 26  0  0  1  0  0  0  0  0999 V2000
    9.8275  -13.1644   18.1323 N   0  0  0  0  0  0  0  0  0  0  0  0
    8.4442  -13.0905   17.7991 C   0  0  0  0  0  0  0  0  0  0  0  0
    8.0960  -12.3761   16.8416 O   0  0  0  0  0  0  0  0  0  0  0  0
    7.4508  -13.8448   18.5714 C   0  0  0  0  0  0  0  0  0  0  0  0
    8.0846  -14.6406   19.6552 C   0  0  0  0  0  0  0  0  0  0  0  0
    7.4680  -15.9957   19.9036 C   0  0  2  0  0  0  0  0  0  0  0  0
    6.2964  -15.8895   20.7659 N   0  0  0  0  0  0  0  0  0  0  0  0
    8.5136  -16.7818   20.6376 C   0  0  0  0  0  0  0  0  0  0  0  0
    9.3020  -17.5125   19.9959 O   0  0  0  0  0  0  0  0  0  0  0  0
    8.6077  -16.6970   22.0508 N   0  0  0  0  0  0  0  0  0  0  0  0
    7.8921  -17.6145   22.9152 C   0  0  0  0  0  0  0  0  0  0  0  0
    8.3168  -17.3978   24.3067 C   0  0  0  0  0  0  0  0  0  0  0  0
    7.8291  -18.1023   25.2532 O   0  0  0  0  0  0  0  0  0  0  0  0
    6.2907  -10.8210   25.4384 O   0  0  0  0  0  0  0  0  0  0  0  0
    6.8156  -12.0645   25.7763 C   0  0  0  0  0  0  0  0  0  0  0  0
    7.9407  -12.5824   25.1593 C   0  0  0  0  0  0  0  0  0  0  0  0
    8.4606  -13.8131   25.4934 C   0  0  0  0  0  0  0  0  0  0  0  0
    7.8519  -14.5850   26.4842 C   0  0  0  0  0  0  0  0  0  0  0  0
    8.4045  -15.9045   26.8410 C   0  0  0  0  0  0  0  0  0  0  0  0
    9.6758  -16.2428   26.0937 C   0  0  2  0  0  0  0  0  0  0  0  0
    9.2691  -16.4231   24.6965 N   0  0  0  0  0  0  0  0  0  0  0  0
   10.3502  -17.4484   26.6014 C   0  0  0  0  0  0  0  0  0  0  0  0
   10.2024  -18.5337   25.9825 O   0  0  0  0  0  0  0  0  0  0  0  0
    6.7396  -14.0631   27.0879 C   0  0  0  0  0  0  0  0  0  0  0  0
    6.2282  -12.8352   26.7485 C   0  0  0  0  0  0  0  0  0  0  0  0
   11.1479  -17.4602   27.7329 O   0  0  0  0  0  0  0  0  0  0  0  0
  2  1  1  0
  2  3  2  0
  4  2  1  0
  5  4  1  0
  6  5  1  0
  6  7  1  1
  8 10  1  0
  8  6  1  0
  9  8  2  0
 11 12  1  0
 11 10  1  0
 12 21  1  0
 13 12  2  0
 15 25  2  0
 15 14  1  0
 16 15  1  0
 17 18  1  0
 17 16  2  0
 18 24  2  0
 19 18  1  0
 20 19  1  1
 20 22  1  0
 21 20  1  0
 22 23  2  0
 22 26  1  0
 24 25  1  0
M  END
$$$$
