QGY.pdb
     RDKit          3D

 26 26  0  0  1  0  0  0  0  0999 V2000
    7.2790  -16.1034   16.0053 N   0  0  0  0  0  0  0  0  0  0  0  0
    7.4502  -14.7260   15.6839 C   0  0  0  0  0  0  0  0  0  0  0  0
    7.0081  -14.3043   14.5998 O   0  0  0  0  0  0  0  0  0  0  0  0
    8.1343  -13.8230   16.6162 C   0  0  0  0  0  0  0  0  0  0  0  0
    8.4762  -14.5050   17.8920 C   0  0  0  0  0  0  0  0  0  0  0  0
    8.0194  -13.7956   19.1435 C   0  0  2  0  0  0  0  0  0  0  0  0
    8.7140  -12.5239   19.3097 N   0  0  0  0  0  0  0  0  0  0  0  0
    8.4169  -14.6923   20.2784 C   0  0  0  0  0  0  0  0  0  0  0  0
    9.6299  -14.8554   20.5421 O   0  0  0  0  0  0  0  0  0  0  0  0
    7.4235  -15.3511   21.0479 N   0  0  0  0  0  0  0  0  0  0  0  0
    7.7475  -16.4776   21.9007 C   0  0  0  0  0  0  0  0  0  0  0  0
    8.4459  -15.9903   23.1000 C   0  0  0  0  0  0  0  0  0  0  0  0
    9.3839  -15.1297   23.0024 O   0  0  0  0  0  0  0  0  0  0  0  0
    6.0575  -10.4348   25.9084 O   0  0  0  0  0  0  0  0  0  0  0  0
    6.5649  -11.7163   26.0979 C   0  0  0  0  0  0  0  0  0  0  0  0
    7.8502  -11.9399   26.5590 C   0  0  0  0  0  0  0  0  0  0  0  0
    8.3529  -13.2082   26.7468 C   0  0  0  0  0  0  0  0  0  0  0  0
    7.5606  -14.3236   26.4705 C   0  0  0  0  0  0  0  0  0  0  0  0
    8.0978  -15.6824   26.6673 C   0  0  0  0  0  0  0  0  0  0  0  0
    9.0211  -16.1278   25.5546 C   0  0  2  0  0  0  0  0  0  0  0  0
    8.1447  -16.4215   24.4162 N   0  0  0  0  0  0  0  0  0  0  0  0
    9.8352  -17.3030   25.9043 C   0  0  0  0  0  0  0  0  0  0  0  0
   10.6571  -17.2126   26.8524 O   0  0  0  0  0  0  0  0  0  0  0  0
    6.2909  -14.0908   26.0148 C   0  0  0  0  0  0  0  0  0  0  0  0
    5.7980  -12.8230   25.8306 C   0  0  0  0  0  0  0  0  0  0  0  0
    9.7495  -18.5172   25.2448 O   0  0  0  0  0  0  0  0  0  0  0  0
  2  1  1  0
  2  3  2  0
  4  2  1  0
  5  4  1  0
  6  5  1  0
  6  7  1  1
  8 10  1  0
  8  6  1  0
  9  8  2  0
 11 12  1  0
 11 10  1  0
 12 21  1  0
 13 12  2  0
 15 25  2  0
 15 14  1  0
 16 15  1  0
 17 18  1  0
 17 16  2  0
 18 24  2  0
 19 18  1  0
 20 19  1  1
 20 22  1  0
 21 20  1  0
 22 23  2  0
 22 26  1  0
 24 25  1  0
M  END
$$$$
