QGY.pdb
     RDKit          3D

 26 26  0  0  1  0  0  0  0  0999 V2000
    8.9750  -13.0125   17.9798 N   0  0  0  0  0  0  0  0  0  0  0  0
    8.7775  -13.7406   16.7712 C   0  0  0  0  0  0  0  0  0  0  0  0
    8.6191  -13.1094   15.7105 O   0  0  0  0  0  0  0  0  0  0  0  0
    8.7631  -15.2076   16.7793 C   0  0  0  0  0  0  0  0  0  0  0  0
    8.9797  -15.7527   18.1452 C   0  0  0  0  0  0  0  0  0  0  0  0
    8.1715  -16.9817   18.4834 C   0  0  2  0  0  0  0  0  0  0  0  0
    6.7941  -16.8477   18.0228 N   0  0  0  0  0  0  0  0  0  0  0  0
    8.1544  -17.0486   19.9818 C   0  0  0  0  0  0  0  0  0  0  0  0
    9.2119  -17.3030   20.6016 O   0  0  0  0  0  0  0  0  0  0  0  0
    6.9464  -16.8247   20.6914 N   0  0  0  0  0  0  0  0  0  0  0  0
    6.8591  -17.0282   22.1240 C   0  0  0  0  0  0  0  0  0  0  0  0
    7.9977  -16.3639   22.7765 C   0  0  0  0  0  0  0  0  0  0  0  0
    8.9372  -15.8502   22.0812 O   0  0  0  0  0  0  0  0  0  0  0  0
    4.7437  -11.1223   25.8957 O   0  0  0  0  0  0  0  0  0  0  0  0
    5.7277  -12.1039   25.9600 C   0  0  0  0  0  0  0  0  0  0  0  0
    5.4283  -13.4339   26.1963 C   0  0  0  0  0  0  0  0  0  0  0  0
    6.4018  -14.4058   26.2599 C   0  0  0  0  0  0  0  0  0  0  0  0
    7.7439  -14.0654   26.0836 C   0  0  0  0  0  0  0  0  0  0  0  0
    8.7884  -15.1035   26.1549 C   0  0  0  0  0  0  0  0  0  0  0  0
    9.2781  -15.5539   24.7961 C   0  0  2  0  0  0  0  0  0  0  0  0
    8.1395  -16.2441   24.1817 N   0  0  0  0  0  0  0  0  0  0  0  0
   10.4525  -16.4386   24.8607 C   0  0  0  0  0  0  0  0  0  0  0  0
   10.2925  -17.6746   24.6891 O   0  0  0  0  0  0  0  0  0  0  0  0
    8.0287  -12.7468   25.8506 C   0  0  0  0  0  0  0  0  0  0  0  0
    7.0517  -11.7846   25.7887 C   0  0  0  0  0  0  0  0  0  0  0  0
   11.7388  -15.9869   25.1016 O   0  0  0  0  0  0  0  0  0  0  0  0
  2  1  1  0
  2  3  2  0
  4  2  1  0
  5  4  1  0
  6  5  1  0
  6  7  1  1
  8 10  1  0
  8  6  1  0
  9  8  2  0
 11 12  1  0
 11 10  1  0
 12 21  1  0
 13 12  2  0
 15 25  2  0
 15 14  1  0
 16 15  1  0
 17 18  1  0
 17 16  2  0
 18 24  2  0
 19 18  1  0
 20 19  1  1
 20 22  1  0
 21 20  1  0
 22 23  2  0
 22 26  1  0
 24 25  1  0
M  END
$$$$
