QGY.pdb
     RDKit          3D

 26 26  0  0  1  0  0  0  0  0999 V2000
    1.4611  -19.0554   20.8434 N   0  0  0  0  0  0  0  0  0  0  0  0
    1.8684  -19.5090   22.1311 C   0  0  0  0  0  0  0  0  0  0  0  0
    1.0950  -20.2336   22.7833 O   0  0  0  0  0  0  0  0  0  0  0  0
    3.1765  -19.1286   22.6755 C   0  0  0  0  0  0  0  0  0  0  0  0
    3.8412  -18.0949   21.8392 C   0  0  0  0  0  0  0  0  0  0  0  0
    5.1159  -18.5366   21.1622 C   0  0  2  0  0  0  0  0  0  0  0  0
    5.8964  -19.4103   22.0310 N   0  0  0  0  0  0  0  0  0  0  0  0
    5.9051  -17.2808   20.9386 C   0  0  0  0  0  0  0  0  0  0  0  0
    5.3049  -16.1984   20.7501 O   0  0  0  0  0  0  0  0  0  0  0  0
    7.3234  -17.3204   20.9407 N   0  0  0  0  0  0  0  0  0  0  0  0
    8.1155  -16.1534   20.6063 C   0  0  0  0  0  0  0  0  0  0  0  0
    8.6942  -15.5935   21.8373 C   0  0  0  0  0  0  0  0  0  0  0  0
    9.4911  -14.5973   21.7872 O   0  0  0  0  0  0  0  0  0  0  0  0
   10.3925  -14.6027   30.5456 O   0  0  0  0  0  0  0  0  0  0  0  0
    9.8387  -14.8736   29.2983 C   0  0  0  0  0  0  0  0  0  0  0  0
    9.7787  -16.1554   28.7807 C   0  0  0  0  0  0  0  0  0  0  0  0
    9.2306  -16.4242   27.5463 C   0  0  0  0  0  0  0  0  0  0  0  0
    8.7107  -15.3872   26.7701 C   0  0  0  0  0  0  0  0  0  0  0  0
    8.1267  -15.6719   25.4466 C   0  0  0  0  0  0  0  0  0  0  0  0
    9.1381  -15.6199   24.3226 C   0  0  2  0  0  0  0  0  0  0  0  0
    8.4236  -16.0970   23.1343 N   0  0  0  0  0  0  0  0  0  0  0  0
   10.3363  -16.4363   24.5748 C   0  0  0  0  0  0  0  0  0  0  0  0
   11.3831  -15.8697   24.9821 O   0  0  0  0  0  0  0  0  0  0  0  0
    8.7753  -14.1232   27.2917 C   0  0  0  0  0  0  0  0  0  0  0  0
    9.3235  -13.8645   28.5234 C   0  0  0  0  0  0  0  0  0  0  0  0
   10.3814  -17.8075   24.3890 O   0  0  0  0  0  0  0  0  0  0  0  0
  2  1  1  0
  2  3  2  0
  4  2  1  0
  5  4  1  0
  6  5  1  0
  6  7  1  1
  8 10  1  0
  8  6  1  0
  9  8  2  0
 11 12  1  0
 11 10  1  0
 12 21  1  0
 13 12  2  0
 15 25  2  0
 15 14  1  0
 16 15  1  0
 17 18  1  0
 17 16  2  0
 18 24  2  0
 19 18  1  0
 20 19  1  1
 20 22  1  0
 21 20  1  0
 22 23  2  0
 22 26  1  0
 24 25  1  0
M  END
$$$$
