QGY.pdb
     RDKit          3D

 26 26  0  0  1  0  0  0  0  0999 V2000
   12.4831  -19.1513   21.1682 N   0  0  0  0  0  0  0  0  0  0  0  0
   12.7532  -18.8264   19.8075 C   0  0  0  0  0  0  0  0  0  0  0  0
   13.8715  -18.3675   19.5118 O   0  0  0  0  0  0  0  0  0  0  0  0
   11.7307  -19.0312   18.7757 C   0  0  0  0  0  0  0  0  0  0  0  0
   10.4902  -19.6248   19.3402 C   0  0  0  0  0  0  0  0  0  0  0  0
    9.2019  -19.0059   18.8550 C   0  0  2  0  0  0  0  0  0  0  0  0
    9.4626  -17.8774   17.9685 N   0  0  0  0  0  0  0  0  0  0  0  0
    8.5228  -18.4813   20.0852 C   0  0  0  0  0  0  0  0  0  0  0  0
    8.1269  -19.2821   20.9623 O   0  0  0  0  0  0  0  0  0  0  0  0
    8.3308  -17.0855   20.2530 N   0  0  0  0  0  0  0  0  0  0  0  0
    7.7316  -16.5412   21.4554 C   0  0  0  0  0  0  0  0  0  0  0  0
    8.7891  -16.2653   22.4398 C   0  0  0  0  0  0  0  0  0  0  0  0
    9.9950  -16.6199   22.2161 O   0  0  0  0  0  0  0  0  0  0  0  0
    4.9667  -11.7223   27.1852 O   0  0  0  0  0  0  0  0  0  0  0  0
    6.1098  -12.2226   26.5697 C   0  0  0  0  0  0  0  0  0  0  0  0
    6.1865  -12.4153   25.2017 C   0  0  0  0  0  0  0  0  0  0  0  0
    7.3177  -12.9103   24.5921 C   0  0  0  0  0  0  0  0  0  0  0  0
    8.4392  -13.2369   25.3561 C   0  0  0  0  0  0  0  0  0  0  0  0
    9.6502  -13.7705   24.7061 C   0  0  0  0  0  0  0  0  0  0  0  0
    9.6551  -15.2795   24.5968 C   0  0  2  0  0  0  0  0  0  0  0  0
    8.5633  -15.6060   23.6740 N   0  0  0  0  0  0  0  0  0  0  0  0
    9.4693  -15.9607   25.8881 C   0  0  0  0  0  0  0  0  0  0  0  0
   10.4040  -15.9335   26.7297 O   0  0  0  0  0  0  0  0  0  0  0  0
    8.3523  -13.0424   26.7084 C   0  0  0  0  0  0  0  0  0  0  0  0
    7.2205  -12.5483   27.3077 C   0  0  0  0  0  0  0  0  0  0  0  0
    8.3132  -16.6377   26.2371 O   0  0  0  0  0  0  0  0  0  0  0  0
  2  1  1  0
  2  3  2  0
  4  2  1  0
  5  4  1  0
  6  5  1  0
  6  7  1  6
  8 10  1  0
  8  6  1  0
  9  8  2  0
 11 12  1  0
 11 10  1  0
 12 21  1  0
 13 12  2  0
 15 25  2  0
 15 14  1  0
 16 15  1  0
 17 18  1  0
 17 16  2  0
 18 24  2  0
 19 18  1  0
 20 19  1  1
 20 22  1  0
 21 20  1  0
 22 23  2  0
 22 26  1  0
 24 25  1  0
M  END
$$$$
