QGY.pdb
     RDKit          3D

 26 26  0  0  1  0  0  0  0  0999 V2000
    8.0945  -12.5321   18.3280 N   0  0  0  0  0  0  0  0  0  0  0  0
    7.7635  -13.9147   18.2339 C   0  0  0  0  0  0  0  0  0  0  0  0
    7.3046  -14.3492   17.1618 O   0  0  0  0  0  0  0  0  0  0  0  0
    7.9621  -14.8079   19.3806 C   0  0  0  0  0  0  0  0  0  0  0  0
    8.7831  -15.9933   19.0193 C   0  0  0  0  0  0  0  0  0  0  0  0
    8.9509  -17.0180   20.1147 C   0  0  2  0  0  0  0  0  0  0  0  0
    7.7659  -17.0789   20.9630 N   0  0  0  0  0  0  0  0  0  0  0  0
   10.0943  -16.5250   20.9511 C   0  0  0  0  0  0  0  0  0  0  0  0
   11.1715  -16.2051   20.3991 O   0  0  0  0  0  0  0  0  0  0  0  0
    9.9549  -16.4221   22.3593 N   0  0  0  0  0  0  0  0  0  0  0  0
   11.0086  -15.8703   23.1878 C   0  0  0  0  0  0  0  0  0  0  0  0
   10.6286  -16.0003   24.6028 C   0  0  0  0  0  0  0  0  0  0  0  0
   11.4025  -15.5775   25.5260 O   0  0  0  0  0  0  0  0  0  0  0  0
    6.9054  -10.7283   26.4069 O   0  0  0  0  0  0  0  0  0  0  0  0
    7.0908  -12.1059   26.4668 C   0  0  0  0  0  0  0  0  0  0  0  0
    7.4816  -12.7477   27.6286 C   0  0  0  0  0  0  0  0  0  0  0  0
    7.6652  -14.1112   27.6883 C   0  0  0  0  0  0  0  0  0  0  0  0
    7.4569  -14.8963   26.5533 C   0  0  0  0  0  0  0  0  0  0  0  0
    7.6563  -16.3559   26.6138 C   0  0  0  0  0  0  0  0  0  0  0  0
    9.1039  -16.7688   26.4627 C   0  0  2  0  0  0  0  0  0  0  0  0
    9.4143  -16.5852   25.0414 N   0  0  0  0  0  0  0  0  0  0  0  0
    9.3636  -18.1563   26.8793 C   0  0  0  0  0  0  0  0  0  0  0  0
    9.5402  -19.0334   25.9949 O   0  0  0  0  0  0  0  0  0  0  0  0
    7.0705  -14.2511   25.4094 C   0  0  0  0  0  0  0  0  0  0  0  0
    6.8899  -12.8913   25.3590 C   0  0  0  0  0  0  0  0  0  0  0  0
    9.4264  -18.5593   28.2022 O   0  0  0  0  0  0  0  0  0  0  0  0
  2  1  1  0
  2  3  2  0
  4  2  1  0
  5  4  1  0
  6  5  1  0
  6  7  1  1
  8 10  1  0
  8  6  1  0
  9  8  2  0
 11 12  1  0
 11 10  1  0
 12 21  1  0
 13 12  2  0
 15 25  2  0
 15 14  1  0
 16 15  1  0
 17 18  1  0
 17 16  2  0
 18 24  2  0
 19 18  1  0
 20 19  1  6
 20 22  1  0
 21 20  1  0
 22 23  2  0
 22 26  1  0
 24 25  1  0
M  END
$$$$
