AVC.pdb
     RDKit          3D

 19 18  0  0  1  0  0  0  0  0999 V2000
   16.9755  -15.3545  -15.5886 C   0  0  0  0  0  0  0  0  0  0  0  0
   16.5690  -14.0294  -16.1852 C   0  0  2  0  0  0  0  0  0  0  0  0
   16.6360  -13.9971  -17.6055 N   0  0  0  0  0  0  0  0  0  0  0  0
   17.3420  -12.9005  -15.6222 C   0  0  0  0  0  0  0  0  0  0  0  0
   17.5000  -12.7307  -14.3842 O   0  0  0  0  0  0  0  0  0  0  0  0
   20.8103  -12.1548  -16.4946 C   0  0  0  0  0  0  0  0  0  0  0  0
   20.0214  -10.9239  -16.8939 C   0  0  2  0  0  0  0  0  0  0  0  0
   20.8992   -9.7328  -16.7459 C   0  0  0  0  0  0  0  0  0  0  0  0
   18.7460  -10.8758  -16.1290 C   0  0  2  0  0  0  0  0  0  0  0  0
   17.9201  -11.9833  -16.5397 N   0  0  0  0  0  0  0  0  0  0  0  0
   17.9830   -9.6474  -16.2174 C   0  0  0  0  0  0  0  0  0  0  0  0
   17.4323   -9.1975  -17.2574 O   0  0  0  0  0  0  0  0  0  0  0  0
   17.8133   -8.8451  -15.0544 N   0  0  0  0  0  0  0  0  0  0  0  0
   17.0579   -7.6066  -15.0817 C   0  0  1  0  0  0  0  0  0  0  0  0
   16.1202   -7.4875  -13.9073 C   0  0  0  0  0  0  0  0  0  0  0  0
   14.9333   -8.8294  -13.8160 S   0  0  0  0  0  0  0  0  0  0  0  0
   17.9845   -6.4629  -15.0937 C   0  0  0  0  0  0  0  0  0  0  0  0
   19.2126   -6.6249  -14.8534 O   0  0  0  0  0  0  0  0  0  0  0  0
   17.5666   -5.1748  -15.3637 O   0  0  0  0  0  0  0  0  0  0  0  0
  2  1  1  1
  2  3  1  0
  4  2  1  0
  5  4  2  0
  7  6  1  1
  7  9  1  0
  8  7  1  0
  9 10  1  6
 10  4  1  0
 11  9  1  0
 11 12  2  0
 13 14  1  0
 13 11  1  0
 14 15  1  1
 16 15  1  0
 17 14  1  0
 18 17  2  0
 19 17  1  0
M  END
$$$$
