AVC.pdb
     RDKit          3D

 19 18  0  0  1  0  0  0  0  0999 V2000
   18.1056  -12.4812  -18.6371 C   0  0  0  0  0  0  0  0  0  0  0  0
   19.1035  -13.1918  -17.7560 C   0  0  2  0  0  0  0  0  0  0  0  0
   18.6592  -14.4631  -17.2986 N   0  0  0  0  0  0  0  0  0  0  0  0
   19.5228  -12.3641  -16.6035 C   0  0  0  0  0  0  0  0  0  0  0  0
   18.9074  -12.3614  -15.5045 O   0  0  0  0  0  0  0  0  0  0  0  0
   22.8322  -12.1943  -14.9799 C   0  0  0  0  0  0  0  0  0  0  0  0
   22.5851  -10.8154  -15.5587 C   0  0  2  0  0  0  0  0  0  0  0  0
   23.2475   -9.8116  -14.6841 C   0  0  0  0  0  0  0  0  0  0  0  0
   21.1260  -10.6143  -15.7697 C   0  0  2  0  0  0  0  0  0  0  0  0
   20.6722  -11.5466  -16.7706 N   0  0  0  0  0  0  0  0  0  0  0  0
   20.7014   -9.2767  -16.1297 C   0  0  0  0  0  0  0  0  0  0  0  0
   20.9118   -8.7116  -17.2359 O   0  0  0  0  0  0  0  0  0  0  0  0
   19.9808   -8.4942  -15.1845 N   0  0  0  0  0  0  0  0  0  0  0  0
   19.5201   -7.1533  -15.4924 C   0  0  1  0  0  0  0  0  0  0  0  0
   18.2691   -6.7940  -14.7318 C   0  0  0  0  0  0  0  0  0  0  0  0
   16.9643   -8.0124  -14.9082 S   0  0  0  0  0  0  0  0  0  0  0  0
   20.5831   -6.1828  -15.1843 C   0  0  0  0  0  0  0  0  0  0  0  0
   21.5999   -6.5282  -14.5217 O   0  0  0  0  0  0  0  0  0  0  0  0
   20.5253   -4.8662  -15.5967 O   0  0  0  0  0  0  0  0  0  0  0  0
  2  1  1  1
  2  3  1  0
  4  2  1  0
  5  4  2  0
  7  6  1  1
  7  9  1  0
  8  7  1  0
  9 10  1  6
 10  4  1  0
 11  9  1  0
 11 12  2  0
 13 14  1  0
 13 11  1  0
 14 15  1  1
 16 15  1  0
 17 14  1  0
 18 17  2  0
 19 17  1  0
M  END
$$$$
