AVC.pdb
     RDKit          3D

 19 18  0  0  1  0  0  0  0  0999 V2000
   17.1032  -15.8711  -17.3668 C   0  0  0  0  0  0  0  0  0  0  0  0
   17.7856  -14.9961  -16.3443 C   0  0  2  0  0  0  0  0  0  0  0  0
   17.0520  -14.8517  -15.1344 N   0  0  0  0  0  0  0  0  0  0  0  0
   18.1251  -13.6616  -16.8856 C   0  0  0  0  0  0  0  0  0  0  0  0
   18.9192  -13.4972  -17.8494 O   0  0  0  0  0  0  0  0  0  0  0  0
   15.3388  -10.7230  -16.2597 C   0  0  0  0  0  0  0  0  0  0  0  0
   16.4167  -10.7039  -17.3250 C   0  0  2  0  0  0  0  0  0  0  0  0
   15.9247  -11.4604  -18.5069 C   0  0  0  0  0  0  0  0  0  0  0  0
   17.7006  -11.1861  -16.7479 C   0  0  2  0  0  0  0  0  0  0  0  0
   17.5153  -12.5343  -16.2735 N   0  0  0  0  0  0  0  0  0  0  0  0
   18.2804  -10.3799  -15.6930 C   0  0  0  0  0  0  0  0  0  0  0  0
   17.9561  -10.4182  -14.4761 O   0  0  0  0  0  0  0  0  0  0  0  0
   19.3092   -9.4492  -16.0100 N   0  0  0  0  0  0  0  0  0  0  0  0
   19.9346   -8.6231  -14.9943 C   0  0  1  0  0  0  0  0  0  0  0  0
   21.4327   -8.5662  -15.1518 C   0  0  0  0  0  0  0  0  0  0  0  0
   22.2239   -7.4773  -13.9660 S   0  0  0  0  0  0  0  0  0  0  0  0
   19.3782   -7.2616  -15.0534 C   0  0  0  0  0  0  0  0  0  0  0  0
   19.0194   -6.6649  -14.0011 O   0  0  0  0  0  0  0  0  0  0  0  0
   19.2221   -6.5770  -16.2425 O   0  0  0  0  0  0  0  0  0  0  0  0
  2  1  1  6
  2  3  1  0
  4  2  1  0
  5  4  2  0
  7  6  1  1
  7  9  1  0
  8  7  1  0
  9 10  1  1
 10  4  1  0
 11  9  1  0
 11 12  2  0
 13 14  1  0
 13 11  1  0
 14 15  1  6
 16 15  1  0
 17 14  1  0
 18 17  2  0
 19 17  1  0
M  END
$$$$
