AVC.pdb
     RDKit          3D

 19 18  0  0  1  0  0  0  0  0999 V2000
   13.5809  -13.1275  -10.6831 C   0  0  0  0  0  0  0  0  0  0  0  0
   13.3223  -12.1193   -9.5906 C   0  0  2  0  0  0  0  0  0  0  0  0
   12.1313  -12.3671   -8.8539 N   0  0  0  0  0  0  0  0  0  0  0  0
   13.3156  -10.7302  -10.0998 C   0  0  0  0  0  0  0  0  0  0  0  0
   12.2648  -10.1442  -10.4724 O   0  0  0  0  0  0  0  0  0  0  0  0
   15.2971   -8.1685   -8.1402 C   0  0  0  0  0  0  0  0  0  0  0  0
   14.3173   -7.8639   -9.2558 C   0  0  2  0  0  0  0  0  0  0  0  0
   12.9380   -8.0795   -8.7437 C   0  0  0  0  0  0  0  0  0  0  0  0
   14.6780   -8.6479  -10.4679 C   0  0  2  0  0  0  0  0  0  0  0  0
   14.5617  -10.0512  -10.1606 N   0  0  0  0  0  0  0  0  0  0  0  0
   15.9814   -8.3875  -11.0442 C   0  0  0  0  0  0  0  0  0  0  0  0
   17.0878   -8.7115  -10.5358 O   0  0  0  0  0  0  0  0  0  0  0  0
   16.0709   -7.7096  -12.2921 N   0  0  0  0  0  0  0  0  0  0  0  0
   17.3460   -7.4546  -12.9358 C   0  0  1  0  0  0  0  0  0  0  0  0
   17.4030   -8.0265  -14.3294 C   0  0  0  0  0  0  0  0  0  0  0  0
   17.2598   -9.8143  -14.3625 S   0  0  0  0  0  0  0  0  0  0  0  0
   17.5934   -6.0044  -12.9849 C   0  0  0  0  0  0  0  0  0  0  0  0
   16.6442   -5.1832  -12.8556 O   0  0  0  0  0  0  0  0  0  0  0  0
   18.8550   -5.4748  -13.1718 O   0  0  0  0  0  0  0  0  0  0  0  0
  2  1  1  6
  2  3  1  0
  4  2  1  0
  5  4  2  0
  7  6  1  1
  7  9  1  0
  8  7  1  0
  9 10  1  1
 10  4  1  0
 11  9  1  0
 11 12  2  0
 13 14  1  0
 13 11  1  0
 14 15  1  6
 16 15  1  0
 17 14  1  0
 18 17  2  0
 19 17  1  0
M  END
$$$$
