AVC.pdb
     RDKit          3D

 19 18  0  0  1  0  0  0  0  0999 V2000
   27.8015  -10.6167  -16.0232 C   0  0  0  0  0  0  0  0  0  0  0  0
   27.0476  -11.9234  -15.9891 C   0  0  2  0  0  0  0  0  0  0  0  0
   27.7000  -12.9783  -16.6849 N   0  0  0  0  0  0  0  0  0  0  0  0
   25.6595  -11.7828  -16.4814 C   0  0  0  0  0  0  0  0  0  0  0  0
   25.1677  -12.5359  -17.3631 O   0  0  0  0  0  0  0  0  0  0  0  0
   23.0455  -12.9459  -16.8153 C   0  0  0  0  0  0  0  0  0  0  0  0
   22.7836  -11.8816  -15.7684 C   0  0  2  0  0  0  0  0  0  0  0  0
   21.3157  -11.7852  -15.5512 C   0  0  0  0  0  0  0  0  0  0  0  0
   23.4550  -10.6138  -16.1634 C   0  0  2  0  0  0  0  0  0  0  0  0
   24.8692  -10.7455  -15.9186 N   0  0  0  0  0  0  0  0  0  0  0  0
   22.9689   -9.4008  -15.5380 C   0  0  0  0  0  0  0  0  0  0  0  0
   23.0443   -9.1255  -14.3109 O   0  0  0  0  0  0  0  0  0  0  0  0
   22.3444   -8.4038  -16.3385 N   0  0  0  0  0  0  0  0  0  0  0  0
   21.9256   -7.1291  -15.7863 C   0  0  1  0  0  0  0  0  0  0  0  0
   21.8494   -6.0520  -16.8382 C   0  0  0  0  0  0  0  0  0  0  0  0
   23.3787   -5.8547  -17.7549 S   0  0  0  0  0  0  0  0  0  0  0  0
   20.6138   -7.2797  -15.1356 C   0  0  0  0  0  0  0  0  0  0  0  0
   19.7774   -8.1248  -15.5578 O   0  0  0  0  0  0  0  0  0  0  0  0
   20.2355   -6.5176  -14.0479 O   0  0  0  0  0  0  0  0  0  0  0  0
  2  1  1  6
  2  3  1  0
  4  2  1  0
  5  4  2  0
  7  6  1  6
  7  9  1  0
  8  7  1  0
  9 10  1  1
 10  4  1  0
 11  9  1  0
 11 12  2  0
 13 14  1  0
 13 11  1  0
 14 15  1  6
 16 15  1  0
 17 14  1  0
 18 17  2  0
 19 17  1  0
M  END
$$$$
