AVC.pdb
     RDKit          3D

 19 18  0  0  1  0  0  0  0  0999 V2000
   23.5871  -21.2965  -18.3376 C   0  0  0  0  0  0  0  0  0  0  0  0
   25.0919  -21.3289  -18.2293 C   0  0  2  0  0  0  0  0  0  0  0  0
   25.7091  -22.2563  -19.1135 N   0  0  0  0  0  0  0  0  0  0  0  0
   25.5489  -21.5780  -16.8444 C   0  0  0  0  0  0  0  0  0  0  0  0
   25.7118  -22.7361  -16.3766 O   0  0  0  0  0  0  0  0  0  0  0  0
   28.6078  -20.2447  -15.4413 C   0  0  0  0  0  0  0  0  0  0  0  0
   27.5133  -19.7022  -14.5440 C   0  0  2  0  0  0  0  0  0  0  0  0
   28.0546  -19.5743  -13.1650 C   0  0  0  0  0  0  0  0  0  0  0  0
   26.2938  -20.5446  -14.6754 C   0  0  2  0  0  0  0  0  0  0  0  0
   25.8081  -20.4446  -16.0286 N   0  0  0  0  0  0  0  0  0  0  0  0
   25.2114  -20.2664  -13.7534 C   0  0  0  0  0  0  0  0  0  0  0  0
   24.5061  -19.2226  -13.7416 O   0  0  0  0  0  0  0  0  0  0  0  0
   24.8788  -21.2258  -12.7565 N   0  0  0  0  0  0  0  0  0  0  0  0
   23.8515  -20.9739  -11.7633 C   0  0  1  0  0  0  0  0  0  0  0  0
   22.7467  -21.9982  -11.8166 C   0  0  0  0  0  0  0  0  0  0  0  0
   21.1096  -21.2735  -11.7035 S   0  0  0  0  0  0  0  0  0  0  0  0
   24.4543  -20.9649  -10.4204 C   0  0  0  0  0  0  0  0  0  0  0  0
   25.4070  -21.7417  -10.1356 O   0  0  0  0  0  0  0  0  0  0  0  0
   24.0171  -20.1209   -9.4187 O   0  0  0  0  0  0  0  0  0  0  0  0
  2  1  1  1
  2  3  1  0
  4  2  1  0
  5  4  2  0
  7  6  1  6
  7  9  1  0
  8  7  1  0
  9 10  1  6
 10  4  1  0
 11  9  1  0
 11 12  2  0
 13 14  1  0
 13 11  1  0
 14 15  1  1
 16 15  1  0
 17 14  1  0
 18 17  2  0
 19 17  1  0
M  END
$$$$
