AVC.pdb
     RDKit          3D

 19 18  0  0  1  0  0  0  0  0999 V2000
   23.6865  -11.8627  -14.4344 C   0  0  0  0  0  0  0  0  0  0  0  0
   22.7680  -12.0866  -15.6105 C   0  0  2  0  0  0  0  0  0  0  0  0
   23.3801  -12.7815  -16.6900 N   0  0  0  0  0  0  0  0  0  0  0  0
   22.1696  -10.8260  -16.1024 C   0  0  0  0  0  0  0  0  0  0  0  0
   22.6756  -10.1481  -17.0356 O   0  0  0  0  0  0  0  0  0  0  0  0
   18.8467  -10.5782  -17.4581 C   0  0  0  0  0  0  0  0  0  0  0  0
   18.8374   -9.6686  -16.2458 C   0  0  2  0  0  0  0  0  0  0  0  0
   17.8680   -8.5677  -16.4899 C   0  0  0  0  0  0  0  0  0  0  0  0
   20.2265   -9.2378  -15.9314 C   0  0  2  0  0  0  0  0  0  0  0  0
   20.9730  -10.3841  -15.4777 N   0  0  0  0  0  0  0  0  0  0  0  0
   20.3700   -8.1600  -14.9740 C   0  0  0  0  0  0  0  0  0  0  0  0
   20.2321   -8.2625  -13.7259 O   0  0  0  0  0  0  0  0  0  0  0  0
   20.6943   -6.8537  -15.4359 N   0  0  0  0  0  0  0  0  0  0  0  0
   20.8873   -5.7438  -14.5215 C   0  0  1  0  0  0  0  0  0  0  0  0
   22.3264   -5.2983  -14.4651 C   0  0  0  0  0  0  0  0  0  0  0  0
   22.5877   -3.9006  -13.3713 S   0  0  0  0  0  0  0  0  0  0  0  0
   20.0349   -4.6147  -14.9281 C   0  0  0  0  0  0  0  0  0  0  0  0
   19.8504   -4.3523  -16.1485 O   0  0  0  0  0  0  0  0  0  0  0  0
   19.4030   -3.7972  -14.0121 O   0  0  0  0  0  0  0  0  0  0  0  0
  2  1  1  1
  2  3  1  0
  4  2  1  0
  5  4  2  0
  7  6  1  6
  7  9  1  0
  8  7  1  0
  9 10  1  1
 10  4  1  0
 11  9  1  0
 11 12  2  0
 13 14  1  0
 13 11  1  0
 14 15  1  6
 16 15  1  0
 17 14  1  0
 18 17  2  0
 19 17  1  0
M  END
$$$$
