AVC.pdb
     RDKit          3D

 19 18  0  0  1  0  0  0  0  0999 V2000
   14.4381  -10.2941  -10.1323 C   0  0  0  0  0  0  0  0  0  0  0  0
   13.6986  -10.0979  -11.4329 C   0  0  2  0  0  0  0  0  0  0  0  0
   12.7370  -11.1105  -11.7024 N   0  0  0  0  0  0  0  0  0  0  0  0
   14.6171   -9.9611  -12.5848 C   0  0  0  0  0  0  0  0  0  0  0  0
   15.0152  -10.9457  -13.2619 O   0  0  0  0  0  0  0  0  0  0  0  0
   14.1167   -8.4566  -15.7702 C   0  0  0  0  0  0  0  0  0  0  0  0
   15.0929   -7.5606  -15.0344 C   0  0  2  0  0  0  0  0  0  0  0  0
   15.8924   -6.8098  -16.0385 C   0  0  0  0  0  0  0  0  0  0  0  0
   15.8816   -8.3679  -14.0648 C   0  0  2  0  0  0  0  0  0  0  0  0
   15.0534   -8.6516  -12.9199 N   0  0  0  0  0  0  0  0  0  0  0  0
   17.1389   -7.8013  -13.6210 C   0  0  0  0  0  0  0  0  0  0  0  0
   17.2692   -6.8508  -12.8044 O   0  0  0  0  0  0  0  0  0  0  0  0
   18.3602   -8.3313  -14.1234 N   0  0  0  0  0  0  0  0  0  0  0  0
   19.6493   -7.8068  -13.7130 C   0  0  1  0  0  0  0  0  0  0  0  0
   20.6880   -8.8915  -13.5817 C   0  0  0  0  0  0  0  0  0  0  0  0
   22.3191   -8.2592  -13.1847 S   0  0  0  0  0  0  0  0  0  0  0  0
   20.1051   -6.7996  -14.6849 C   0  0  0  0  0  0  0  0  0  0  0  0
   19.9561   -6.9850  -15.9241 O   0  0  0  0  0  0  0  0  0  0  0  0
   20.7092   -5.6193  -14.2992 O   0  0  0  0  0  0  0  0  0  0  0  0
  2  1  1  1
  2  3  1  0
  4  2  1  0
  5  4  2  0
  7  6  1  6
  7  9  1  0
  8  7  1  0
  9 10  1  1
 10  4  1  0
 11  9  1  0
 11 12  2  0
 13 14  1  0
 13 11  1  0
 14 15  1  6
 16 15  1  0
 17 14  1  0
 18 17  2  0
 19 17  1  0
M  END
$$$$
