AVC.pdb
     RDKit          3D

 19 18  0  0  1  0  0  0  0  0999 V2000
   15.7867   -9.1837  -10.5621 C   0  0  0  0  0  0  0  0  0  0  0  0
   15.4371   -9.9799  -11.7953 C   0  0  2  0  0  0  0  0  0  0  0  0
   15.0059  -11.3062  -11.5165 N   0  0  0  0  0  0  0  0  0  0  0  0
   16.5446  -10.0097  -12.7758 C   0  0  0  0  0  0  0  0  0  0  0  0
   17.4056  -10.9285  -12.8063 O   0  0  0  0  0  0  0  0  0  0  0  0
   16.4626  -10.4007  -16.2425 C   0  0  0  0  0  0  0  0  0  0  0  0
   16.9833   -8.9886  -16.0629 C   0  0  2  0  0  0  0  0  0  0  0  0
   17.8444   -8.6521  -17.2276 C   0  0  0  0  0  0  0  0  0  0  0  0
   17.6329   -8.8596  -14.7304 C   0  0  2  0  0  0  0  0  0  0  0  0
   16.6166   -8.9440  -13.7120 N   0  0  0  0  0  0  0  0  0  0  0  0
   18.4354   -7.6732  -14.5127 C   0  0  0  0  0  0  0  0  0  0  0  0
   17.9913   -6.5062  -14.3447 O   0  0  0  0  0  0  0  0  0  0  0  0
   19.8535   -7.7856  -14.4774 N   0  0  0  0  0  0  0  0  0  0  0  0
   20.7102   -6.6258  -14.3158 C   0  0  1  0  0  0  0  0  0  0  0  0
   21.9918   -6.9622  -13.5969 C   0  0  0  0  0  0  0  0  0  0  0  0
   22.1249   -6.1746  -11.9907 S   0  0  0  0  0  0  0  0  0  0  0  0
   21.0186   -6.0517  -15.6357 C   0  0  0  0  0  0  0  0  0  0  0  0
   21.1342   -6.7926  -16.6505 O   0  0  0  0  0  0  0  0  0  0  0  0
   21.1948   -4.6960  -15.8301 O   0  0  0  0  0  0  0  0  0  0  0  0
  2  1  1  1
  2  3  1  0
  4  2  1  0
  5  4  2  0
  7  6  1  6
  7  9  1  0
  8  7  1  0
  9 10  1  1
 10  4  1  0
 11  9  1  0
 11 12  2  0
 13 14  1  0
 13 11  1  0
 14 15  1  6
 16 15  1  0
 17 14  1  0
 18 17  2  0
 19 17  1  0
M  END
$$$$
