AVC.pdb
     RDKit          3D

 19 18  0  0  1  0  0  0  0  0999 V2000
   26.8295  -11.4755  -15.4297 C   0  0  0  0  0  0  0  0  0  0  0  0
   25.6440  -12.2970  -15.8732 C   0  0  2  0  0  0  0  0  0  0  0  0
   25.9681  -13.2993  -16.8287 N   0  0  0  0  0  0  0  0  0  0  0  0
   24.5395  -11.4562  -16.3852 C   0  0  0  0  0  0  0  0  0  0  0  0
   24.5165  -10.9988  -17.5586 O   0  0  0  0  0  0  0  0  0  0  0  0
   21.1840  -12.2337  -16.9716 C   0  0  0  0  0  0  0  0  0  0  0  0
   21.1182  -11.2251  -15.8421 C   0  0  2  0  0  0  0  0  0  0  0  0
   19.8228  -10.5005  -15.9322 C   0  0  0  0  0  0  0  0  0  0  0  0
   22.3329  -10.3661  -15.8656 C   0  0  2  0  0  0  0  0  0  0  0  0
   23.4716  -11.1678  -15.4943 N   0  0  0  0  0  0  0  0  0  0  0  0
   22.2978   -9.1712  -15.0471 C   0  0  0  0  0  0  0  0  0  0  0  0
   22.3362   -9.1414  -13.7882 O   0  0  0  0  0  0  0  0  0  0  0  0
   22.2128   -7.8968  -15.6744 N   0  0  0  0  0  0  0  0  0  0  0  0
   22.2331   -6.6637  -14.9100 C   0  0  1  0  0  0  0  0  0  0  0  0
   23.0887   -5.6065  -15.5604 C   0  0  0  0  0  0  0  0  0  0  0  0
   23.1788   -4.0897  -14.6068 S   0  0  0  0  0  0  0  0  0  0  0  0
   20.8596   -6.1594  -14.7492 C   0  0  0  0  0  0  0  0  0  0  0  0
   20.0232   -6.2542  -15.6892 O   0  0  0  0  0  0  0  0  0  0  0  0
   20.4210   -5.5664  -13.5818 O   0  0  0  0  0  0  0  0  0  0  0  0
  2  1  1  6
  2  3  1  0
  4  2  1  0
  5  4  2  0
  7  6  1  6
  7  9  1  0
  8  7  1  0
  9 10  1  1
 10  4  1  0
 11  9  1  0
 11 12  2  0
 13 14  1  0
 13 11  1  0
 14 15  1  6
 16 15  1  0
 17 14  1  0
 18 17  2  0
 19 17  1  0
M  END
$$$$
