AVC.pdb
     RDKit          3D

 19 18  0  0  1  0  0  0  0  0999 V2000
   25.3928  -24.2107  -17.7930 C   0  0  0  0  0  0  0  0  0  0  0  0
   26.7997  -23.8799  -17.3592 C   0  0  2  0  0  0  0  0  0  0  0  0
   27.6686  -25.0055  -17.3294 N   0  0  0  0  0  0  0  0  0  0  0  0
   26.8350  -23.1861  -16.0529 C   0  0  0  0  0  0  0  0  0  0  0  0
   27.0309  -23.7888  -14.9643 O   0  0  0  0  0  0  0  0  0  0  0  0
   26.0400  -18.9846  -16.1343 C   0  0  0  0  0  0  0  0  0  0  0  0
   27.1212  -19.5894  -15.2610 C   0  0  2  0  0  0  0  0  0  0  0  0
   28.4220  -19.4712  -15.9716 C   0  0  0  0  0  0  0  0  0  0  0  0
   26.7326  -20.9705  -14.8664 C   0  0  2  0  0  0  0  0  0  0  0  0
   26.6366  -21.7798  -16.0551 N   0  0  0  0  0  0  0  0  0  0  0  0
   25.5154  -21.1053  -14.0923 C   0  0  0  0  0  0  0  0  0  0  0  0
   24.3672  -21.3271  -14.5611 O   0  0  0  0  0  0  0  0  0  0  0  0
   25.5713  -20.9843  -12.6756 N   0  0  0  0  0  0  0  0  0  0  0  0
   24.3759  -21.0335  -11.8547 C   0  0  1  0  0  0  0  0  0  0  0  0
   24.6812  -20.8216  -10.3937 C   0  0  0  0  0  0  0  0  0  0  0  0
   23.2184  -20.8636   -9.3562 S   0  0  0  0  0  0  0  0  0  0  0  0
   23.4190  -20.0136  -12.3138 C   0  0  0  0  0  0  0  0  0  0  0  0
   23.8115  -18.8573  -12.6320 O   0  0  0  0  0  0  0  0  0  0  0  0
   22.0649  -20.2633  -12.4190 O   0  0  0  0  0  0  0  0  0  0  0  0
  2  1  1  1
  2  3  1  0
  4  2  1  0
  5  4  2  0
  7  6  1  6
  7  9  1  0
  8  7  1  0
  9 10  1  6
 10  4  1  0
 11  9  1  0
 11 12  2  0
 13 14  1  0
 13 11  1  0
 14 15  1  1
 16 15  1  0
 17 14  1  0
 18 17  2  0
 19 17  1  0
M  END
$$$$
