AVC.pdb
     RDKit          3D

 19 18  0  0  1  0  0  0  0  0999 V2000
   15.4973  -10.2555  -14.1626 C   0  0  0  0  0  0  0  0  0  0  0  0
   16.1741  -10.7767  -15.4065 C   0  0  2  0  0  0  0  0  0  0  0  0
   16.1257  -12.1924  -15.5334 N   0  0  0  0  0  0  0  0  0  0  0  0
   17.5742  -10.3119  -15.5195 C   0  0  0  0  0  0  0  0  0  0  0  0
   18.5574  -11.0103  -15.1560 O   0  0  0  0  0  0  0  0  0  0  0  0
   18.1206   -7.3046  -18.2500 C   0  0  0  0  0  0  0  0  0  0  0  0
   19.2233   -8.2415  -17.7990 C   0  0  2  0  0  0  0  0  0  0  0  0
   19.1903   -9.4557  -18.6568 C   0  0  0  0  0  0  0  0  0  0  0  0
   19.1035   -8.4896  -16.3368 C   0  0  2  0  0  0  0  0  0  0  0  0
   17.7907   -9.0185  -16.0650 N   0  0  0  0  0  0  0  0  0  0  0  0
   19.3581   -7.3610  -15.4648 C   0  0  0  0  0  0  0  0  0  0  0  0
   18.5047   -6.5115  -15.0941 O   0  0  0  0  0  0  0  0  0  0  0  0
   20.6710   -7.1522  -14.9574 N   0  0  0  0  0  0  0  0  0  0  0  0
   21.0190   -5.9663  -14.1973 C   0  0  1  0  0  0  0  0  0  0  0  0
   22.2540   -6.1722  -13.3575 C   0  0  0  0  0  0  0  0  0  0  0  0
   22.7603   -4.6937  -12.4769 S   0  0  0  0  0  0  0  0  0  0  0  0
   21.2272   -4.8346  -15.1152 C   0  0  0  0  0  0  0  0  0  0  0  0
   20.8051   -3.6816  -14.8241 O   0  0  0  0  0  0  0  0  0  0  0  0
   21.8838   -4.9719  -16.3222 O   0  0  0  0  0  0  0  0  0  0  0  0
  2  1  1  1
  2  3  1  0
  4  2  1  0
  5  4  2  0
  7  6  1  6
  7  9  1  0
  8  7  1  0
  9 10  1  6
 10  4  1  0
 11  9  1  0
 11 12  2  0
 13 14  1  0
 13 11  1  0
 14 15  1  6
 16 15  1  0
 17 14  1  0
 18 17  2  0
 19 17  1  0
M  END
$$$$
