AVC.pdb
     RDKit          3D

 19 18  0  0  1  0  0  0  0  0999 V2000
   18.6215  -14.1390  -17.9215 C   0  0  0  0  0  0  0  0  0  0  0  0
   19.6517  -14.6656  -16.9527 C   0  0  2  0  0  0  0  0  0  0  0  0
   19.2132  -15.7967  -16.2104 N   0  0  0  0  0  0  0  0  0  0  0  0
   20.1383  -13.6183  -16.0278 C   0  0  0  0  0  0  0  0  0  0  0  0
   19.5327  -13.3078  -14.9679 O   0  0  0  0  0  0  0  0  0  0  0  0
   23.5497  -13.4116  -14.5855 C   0  0  0  0  0  0  0  0  0  0  0  0
   23.3586  -12.1462  -15.3976 C   0  0  2  0  0  0  0  0  0  0  0  0
   24.1265  -11.0499  -14.7498 C   0  0  0  0  0  0  0  0  0  0  0  0
   21.9057  -11.8844  -15.5835 C   0  0  2  0  0  0  0  0  0  0  0  0
   21.3427  -12.9499  -16.3741 N   0  0  0  0  0  0  0  0  0  0  0  0
   21.5465  -10.6088  -16.1690 C   0  0  0  0  0  0  0  0  0  0  0  0
   21.7649  -10.2591  -17.3595 O   0  0  0  0  0  0  0  0  0  0  0  0
   20.8881   -9.6334  -15.3691 N   0  0  0  0  0  0  0  0  0  0  0  0
   20.4468   -8.3643  -15.9169 C   0  0  1  0  0  0  0  0  0  0  0  0
   18.9831   -8.1127  -15.6588 C   0  0  0  0  0  0  0  0  0  0  0  0
   17.9330   -9.4693  -16.1831 S   0  0  0  0  0  0  0  0  0  0  0  0
   21.2467   -7.2720  -15.3392 C   0  0  0  0  0  0  0  0  0  0  0  0
   22.0102   -7.4812  -14.3566 O   0  0  0  0  0  0  0  0  0  0  0  0
   21.2048   -5.9830  -15.8329 O   0  0  0  0  0  0  0  0  0  0  0  0
  2  1  1  1
  2  3  1  0
  4  2  1  0
  5  4  2  0
  7  6  1  1
  7  9  1  0
  8  7  1  0
  9 10  1  6
 10  4  1  0
 11  9  1  0
 11 12  2  0
 13 14  1  0
 13 11  1  0
 14 15  1  1
 16 15  1  0
 17 14  1  0
 18 17  2  0
 19 17  1  0
M  END
$$$$
