AVC.pdb
     RDKit          3D

 19 18  0  0  1  0  0  0  0  0999 V2000
   15.7244  -14.5441  -16.5378 C   0  0  0  0  0  0  0  0  0  0  0  0
   17.1900  -14.9032  -16.5215 C   0  0  2  0  0  0  0  0  0  0  0  0
   17.4814  -16.0833  -15.7832 N   0  0  0  0  0  0  0  0  0  0  0  0
   18.0348  -13.7891  -16.0377 C   0  0  0  0  0  0  0  0  0  0  0  0
   18.2818  -13.5991  -14.8174 O   0  0  0  0  0  0  0  0  0  0  0  0
   21.4701  -12.9360  -17.1510 C   0  0  0  0  0  0  0  0  0  0  0  0
   20.5953  -11.7545  -17.5198 C   0  0  2  0  0  0  0  0  0  0  0  0
   21.4184  -10.5182  -17.4488 C   0  0  0  0  0  0  0  0  0  0  0  0
   19.3701  -11.7550  -16.6753 C   0  0  2  0  0  0  0  0  0  0  0  0
   18.5781  -12.9108  -17.0128 N   0  0  0  0  0  0  0  0  0  0  0  0
   18.5408  -10.5686  -16.7357 C   0  0  0  0  0  0  0  0  0  0  0  0
   17.8479  -10.2057  -17.7234 O   0  0  0  0  0  0  0  0  0  0  0  0
   18.4706   -9.7069  -15.6055 N   0  0  0  0  0  0  0  0  0  0  0  0
   17.7610   -8.4420  -15.6493 C   0  0  1  0  0  0  0  0  0  0  0  0
   17.0003   -8.1733  -14.3758 C   0  0  0  0  0  0  0  0  0  0  0  0
   16.4224   -6.4801  -14.2457 S   0  0  0  0  0  0  0  0  0  0  0  0
   18.7151   -7.3487  -15.8964 C   0  0  0  0  0  0  0  0  0  0  0  0
   18.4527   -6.4398  -16.7315 O   0  0  0  0  0  0  0  0  0  0  0  0
   19.9264   -7.2609  -15.2393 O   0  0  0  0  0  0  0  0  0  0  0  0
  2  1  1  1
  2  3  1  0
  4  2  1  0
  5  4  2  0
  7  6  1  1
  7  9  1  0
  8  7  1  0
  9 10  1  6
 10  4  1  0
 11  9  1  0
 11 12  2  0
 13 14  1  0
 13 11  1  0
 14 15  1  1
 16 15  1  0
 17 14  1  0
 18 17  2  0
 19 17  1  0
M  END
$$$$
