VLS.pdb
     RDKit          3D

 22 21  0  0  1  0  0  0  0  0999 V2000
    9.5905  -18.5014   21.6084 C   0  0  0  0  0  0  0  0  0  0  0  0
    8.3168  -17.8262   21.2620 C   0  0  2  0  0  0  0  0  0  0  0  0
    7.7865  -18.3572   19.9359 C   0  0  0  0  0  0  0  0  0  0  0  0
    8.3782  -16.3244   21.1506 C   0  0  2  0  0  0  0  0  0  0  0  0
    9.3685  -15.9495   20.1243 N   0  0  0  0  0  0  0  0  0  0  0  0
    8.7393  -15.6313   22.3989 C   0  0  0  0  0  0  0  0  0  0  0  0
    9.9674  -15.4687   22.6474 O   0  0  0  0  0  0  0  0  0  0  0  0
    8.1358  -12.8690   27.0946 C   0  0  0  0  0  0  0  0  0  0  0  0
    7.3254  -12.4778   25.8416 C   0  0  2  0  0  0  0  0  0  0  0  0
    6.1600  -11.6922   26.3606 C   0  0  0  0  0  0  0  0  0  0  0  0
    6.9933  -13.7362   25.1277 C   0  0  0  0  0  0  0  0  0  0  0  0
    8.1162  -14.5077   24.5435 C   0  0  2  0  0  0  0  0  0  0  0  0
    7.7617  -15.1517   23.3080 N   0  0  0  0  0  0  0  0  0  0  0  0
    8.5247  -15.5180   25.5780 C   0  0  0  0  0  0  0  0  0  0  0  0
    7.7125  -16.3063   26.1069 O   0  0  0  0  0  0  0  0  0  0  0  0
   11.8496  -17.2798   25.1576 O   0  0  0  0  0  0  0  0  0  0  0  0
   11.7617  -17.0190   26.5040 C   0  0  0  0  0  0  0  0  0  0  0  0
   10.3474  -16.6324   26.9074 C   0  0  2  0  0  0  0  0  0  0  0  0
    9.8839  -15.5992   25.9874 N   0  0  0  0  0  0  0  0  0  0  0  0
   10.3979  -16.1276   28.2993 C   0  0  0  0  0  0  0  0  0  0  0  0
   10.0564  -14.9351   28.5039 O   0  0  0  0  0  0  0  0  0  0  0  0
   10.7964  -16.8908   29.3715 O   0  0  0  0  0  0  0  0  0  0  0  0
  2  4  1  0
  2  1  1  6
  2  3  1  0
  4  6  1  0
  4  5  1  6
  6 13  1  0
  6  7  2  0
  9  8  1  1
  9 10  1  0
 12 11  1  1
 11  9  1  0
 12 14  1  0
 13 12  1  0
 14 15  2  0
 16 17  1  0
 18 17  1  6
 18 20  1  0
 19 14  1  0
 19 18  1  0
 20 22  1  0
 21 20  2  0
M  END
$$$$
