VLS.pdb
     RDKit          3D

 22 21  0  0  1  0  0  0  0  0999 V2000
    7.3439  -20.0198   23.4679 C   0  0  0  0  0  0  0  0  0  0  0  0
    6.0886  -19.3570   23.8959 C   0  0  2  0  0  0  0  0  0  0  0  0
    4.8881  -20.2162   23.5185 C   0  0  0  0  0  0  0  0  0  0  0  0
    5.8479  -17.9795   23.3335 C   0  0  2  0  0  0  0  0  0  0  0  0
    5.7419  -18.0616   21.8651 N   0  0  0  0  0  0  0  0  0  0  0  0
    6.8947  -16.9948   23.6548 C   0  0  0  0  0  0  0  0  0  0  0  0
    7.8624  -16.8812   22.8505 O   0  0  0  0  0  0  0  0  0  0  0  0
    7.3330  -12.3724   24.7574 C   0  0  0  0  0  0  0  0  0  0  0  0
    6.5817  -13.2787   25.7544 C   0  0  2  0  0  0  0  0  0  0  0  0
    6.0720  -12.3523   26.8159 C   0  0  0  0  0  0  0  0  0  0  0  0
    7.5408  -14.3177   26.2061 C   0  0  0  0  0  0  0  0  0  0  0  0
    7.9409  -15.3526   25.2231 C   0  0  2  0  0  0  0  0  0  0  0  0
    6.8421  -16.1876   24.8202 N   0  0  0  0  0  0  0  0  0  0  0  0
    9.0229  -16.1661   25.8751 C   0  0  0  0  0  0  0  0  0  0  0  0
    8.8282  -16.8407   26.9085 O   0  0  0  0  0  0  0  0  0  0  0  0
   12.9712  -15.8287   24.5536 O   0  0  0  0  0  0  0  0  0  0  0  0
   12.4980  -17.0967   24.7920 C   0  0  0  0  0  0  0  0  0  0  0  0
   11.3628  -17.0887   25.8039 C   0  0  2  0  0  0  0  0  0  0  0  0
   10.3284  -16.1848   25.3121 N   0  0  0  0  0  0  0  0  0  0  0  0
   11.9146  -16.6198   27.0963 C   0  0  0  0  0  0  0  0  0  0  0  0
   11.3899  -15.6073   27.6256 O   0  0  0  0  0  0  0  0  0  0  0  0
   12.9637  -17.2305   27.7422 O   0  0  0  0  0  0  0  0  0  0  0  0
  2  4  1  0
  2  1  1  6
  2  3  1  0
  4  6  1  0
  4  5  1  6
  6 13  1  0
  6  7  2  0
  9  8  1  6
  9 10  1  0
 12 11  1  1
 11  9  1  0
 12 14  1  0
 13 12  1  0
 14 15  2  0
 16 17  1  0
 18 17  1  6
 18 20  1  0
 19 14  1  0
 19 18  1  0
 20 22  1  0
 21 20  2  0
M  END
$$$$
