VLS.pdb
     RDKit          3D

 22 21  0  0  1  0  0  0  0  0999 V2000
    8.5763  -17.6453   20.7827 C   0  0  0  0  0  0  0  0  0  0  0  0
    7.3708  -16.7823   20.7834 C   0  0  2  0  0  0  0  0  0  0  0  0
    6.6552  -16.8814   19.4418 C   0  0  0  0  0  0  0  0  0  0  0  0
    7.6100  -15.3194   21.0563 C   0  0  2  0  0  0  0  0  0  0  0  0
    8.4542  -14.7535   19.9879 N   0  0  0  0  0  0  0  0  0  0  0  0
    8.2640  -15.0351   22.3448 C   0  0  0  0  0  0  0  0  0  0  0  0
    9.5266  -14.9955   22.3676 O   0  0  0  0  0  0  0  0  0  0  0  0
    8.0169  -11.7765   25.8493 C   0  0  0  0  0  0  0  0  0  0  0  0
    6.7835  -12.6851   25.6682 C   0  0  2  0  0  0  0  0  0  0  0  0
    5.7885  -12.1975   26.6767 C   0  0  0  0  0  0  0  0  0  0  0  0
    7.2459  -14.0855   25.8377 C   0  0  0  0  0  0  0  0  0  0  0  0
    8.1643  -14.6314   24.8101 C   0  0  2  0  0  0  0  0  0  0  0  0
    7.5253  -14.8085   23.5345 N   0  0  0  0  0  0  0  0  0  0  0  0
    8.6722  -15.9412   25.3430 C   0  0  0  0  0  0  0  0  0  0  0  0
    7.9231  -16.9189   25.5526 O   0  0  0  0  0  0  0  0  0  0  0  0
   12.6960  -18.5704   26.0041 O   0  0  0  0  0  0  0  0  0  0  0  0
   12.0583  -17.4387   25.5555 C   0  0  0  0  0  0  0  0  0  0  0  0
   10.6150  -17.3845   26.0313 C   0  0  2  0  0  0  0  0  0  0  0  0
   10.0564  -16.0985   25.6276 N   0  0  0  0  0  0  0  0  0  0  0  0
   10.6211  -17.5274   27.5058 C   0  0  0  0  0  0  0  0  0  0  0  0
   10.2389  -16.5459   28.1922 O   0  0  0  0  0  0  0  0  0  0  0  0
   11.0205  -18.6703   28.1579 O   0  0  0  0  0  0  0  0  0  0  0  0
  2  4  1  0
  2  1  1  6
  2  3  1  0
  4  6  1  0
  4  5  1  6
  6 13  1  0
  6  7  2  0
  9  8  1  1
  9 10  1  0
 12 11  1  1
 11  9  1  0
 12 14  1  0
 13 12  1  0
 14 15  2  0
 16 17  1  0
 18 17  1  1
 18 20  1  0
 19 14  1  0
 19 18  1  0
 20 22  1  0
 21 20  2  0
M  END
$$$$
