VLS.pdb
     RDKit          3D

 22 21  0  0  1  0  0  0  0  0999 V2000
    9.7310  -18.3261   21.7470 C   0  0  0  0  0  0  0  0  0  0  0  0
    8.4972  -17.6239   21.3195 C   0  0  2  0  0  0  0  0  0  0  0  0
    8.0455  -18.1405   19.9590 C   0  0  0  0  0  0  0  0  0  0  0  0
    8.5963  -16.1234   21.2184 C   0  0  2  0  0  0  0  0  0  0  0  0
    9.6298  -15.7665   20.2290 N   0  0  0  0  0  0  0  0  0  0  0  0
    8.9295  -15.4446   22.4821 C   0  0  0  0  0  0  0  0  0  0  0  0
   10.1503  -15.3421   22.7908 O   0  0  0  0  0  0  0  0  0  0  0  0
    6.0026  -12.3368   26.9723 C   0  0  0  0  0  0  0  0  0  0  0  0
    7.3208  -13.0355   26.5800 C   0  0  2  0  0  0  0  0  0  0  0  0
    8.3686  -11.9681   26.6662 C   0  0  0  0  0  0  0  0  0  0  0  0
    7.1134  -13.6340   25.2375 C   0  0  0  0  0  0  0  0  0  0  0  0
    8.2475  -14.3760   24.6370 C   0  0  2  0  0  0  0  0  0  0  0  0
    7.9333  -14.9136   23.3412 N   0  0  0  0  0  0  0  0  0  0  0  0
    8.6003  -15.4721   25.6023 C   0  0  0  0  0  0  0  0  0  0  0  0
    7.7580  -16.2899   26.0298 O   0  0  0  0  0  0  0  0  0  0  0  0
   11.6134  -17.5340   25.2364 O   0  0  0  0  0  0  0  0  0  0  0  0
   11.6326  -17.2398   26.5787 C   0  0  0  0  0  0  0  0  0  0  0  0
   10.3194  -16.6231   27.0346 C   0  0  2  0  0  0  0  0  0  0  0  0
    9.9394  -15.6042   26.0618 N   0  0  0  0  0  0  0  0  0  0  0  0
   10.5413  -16.0297   28.3737 C   0  0  0  0  0  0  0  0  0  0  0  0
   10.3952  -14.7871   28.4966 O   0  0  0  0  0  0  0  0  0  0  0  0
   10.8964  -16.7629   29.4815 O   0  0  0  0  0  0  0  0  0  0  0  0
  2  4  1  0
  2  1  1  6
  2  3  1  0
  4  6  1  0
  4  5  1  6
  6 13  1  0
  6  7  2  0
  9  8  1  6
  9 10  1  0
 12 11  1  1
 11  9  1  0
 12 14  1  0
 13 12  1  0
 14 15  2  0
 16 17  1  0
 18 17  1  6
 18 20  1  0
 19 14  1  0
 19 18  1  0
 20 22  1  0
 21 20  2  0
M  END
$$$$
