VLS.pdb
     RDKit          3D

 22 21  0  0  1  0  0  0  0  0999 V2000
    6.2824  -21.1551   23.7766 C   0  0  0  0  0  0  0  0  0  0  0  0
    7.0290  -19.9165   24.1034 C   0  0  2  0  0  0  0  0  0  0  0  0
    7.1816  -19.7803   25.6134 C   0  0  0  0  0  0  0  0  0  0  0  0
    6.4249  -18.6320   23.5967 C   0  0  2  0  0  0  0  0  0  0  0  0
    6.3499  -18.6733   22.1246 N   0  0  0  0  0  0  0  0  0  0  0  0
    7.1637  -17.4158   23.9758 C   0  0  0  0  0  0  0  0  0  0  0  0
    8.2837  -17.2128   23.4274 O   0  0  0  0  0  0  0  0  0  0  0  0
    6.1471  -12.1861   27.1030 C   0  0  0  0  0  0  0  0  0  0  0  0
    7.2247  -13.0425   26.4065 C   0  0  2  0  0  0  0  0  0  0  0  0
    7.8109  -12.1516   25.3543 C   0  0  0  0  0  0  0  0  0  0  0  0
    6.5531  -14.2718   25.9151 C   0  0  0  0  0  0  0  0  0  0  0  0
    7.4105  -15.3370   25.3426 C   0  0  2  0  0  0  0  0  0  0  0  0
    6.6575  -16.4867   24.9207 N   0  0  0  0  0  0  0  0  0  0  0  0
    8.4029  -15.7062   26.4086 C   0  0  0  0  0  0  0  0  0  0  0  0
    8.0661  -16.2432   27.4853 O   0  0  0  0  0  0  0  0  0  0  0  0
   12.0230  -16.3961   25.1088 O   0  0  0  0  0  0  0  0  0  0  0  0
   12.1395  -15.9278   26.3956 C   0  0  0  0  0  0  0  0  0  0  0  0
   10.8035  -15.9506   27.1218 C   0  0  2  0  0  0  0  0  0  0  0  0
    9.7857  -15.4443   26.2071 N   0  0  0  0  0  0  0  0  0  0  0  0
   10.9266  -15.0864   28.3187 C   0  0  0  0  0  0  0  0  0  0  0  0
   10.2280  -14.0420   28.3629 O   0  0  0  0  0  0  0  0  0  0  0  0
   11.7596  -15.3656   29.3765 O   0  0  0  0  0  0  0  0  0  0  0  0
  2  4  1  0
  2  1  1  1
  2  3  1  0
  4  6  1  0
  4  5  1  6
  6 13  1  0
  6  7  2  0
  9  8  1  6
  9 10  1  0
 12 11  1  1
 11  9  1  0
 12 14  1  0
 13 12  1  0
 14 15  2  0
 16 17  1  0
 18 17  1  6
 18 20  1  0
 19 14  1  0
 19 18  1  0
 20 22  1  0
 21 20  2  0
M  END
$$$$
