VLS.pdb
     RDKit          3D

 22 21  0  0  1  0  0  0  0  0999 V2000
    8.3997  -17.9086   20.8841 C   0  0  0  0  0  0  0  0  0  0  0  0
    7.3233  -16.9173   20.6462 C   0  0  2  0  0  0  0  0  0  0  0  0
    6.6812  -17.1581   19.2854 C   0  0  0  0  0  0  0  0  0  0  0  0
    7.7404  -15.4698   20.6946 C   0  0  2  0  0  0  0  0  0  0  0  0
    8.7934  -15.2297   19.6906 N   0  0  0  0  0  0  0  0  0  0  0  0
    8.2535  -15.0230   22.0007 C   0  0  0  0  0  0  0  0  0  0  0  0
    9.4978  -15.1051   22.2032 O   0  0  0  0  0  0  0  0  0  0  0  0
    6.0627  -12.3340   27.1380 C   0  0  0  0  0  0  0  0  0  0  0  0
    7.2979  -12.9896   26.4866 C   0  0  2  0  0  0  0  0  0  0  0  0
    8.3725  -11.9477   26.5521 C   0  0  0  0  0  0  0  0  0  0  0  0
    6.8944  -13.4207   25.1246 C   0  0  0  0  0  0  0  0  0  0  0  0
    7.8876  -14.1758   24.3242 C   0  0  2  0  0  0  0  0  0  0  0  0
    7.4017  -14.5127   23.0138 N   0  0  0  0  0  0  0  0  0  0  0  0
    8.2175  -15.4136   25.1095 C   0  0  0  0  0  0  0  0  0  0  0  0
    7.3550  -16.2605   25.4254 O   0  0  0  0  0  0  0  0  0  0  0  0
   11.0130  -17.5818   24.1944 O   0  0  0  0  0  0  0  0  0  0  0  0
   11.1907  -17.4249   25.5480 C   0  0  0  0  0  0  0  0  0  0  0  0
    9.9394  -16.8770   26.2163 C   0  0  2  0  0  0  0  0  0  0  0  0
    9.5575  -15.6526   25.5206 N   0  0  0  0  0  0  0  0  0  0  0  0
   10.2680  -16.6072   27.6355 C   0  0  0  0  0  0  0  0  0  0  0  0
   10.2230  -15.4150   28.0319 O   0  0  0  0  0  0  0  0  0  0  0  0
   10.6172  -17.5867   28.5351 O   0  0  0  0  0  0  0  0  0  0  0  0
  2  4  1  0
  2  1  1  6
  2  3  1  0
  4  6  1  0
  4  5  1  6
  6 13  1  0
  6  7  2  0
  9  8  1  6
  9 10  1  0
 12 11  1  1
 11  9  1  0
 12 14  1  0
 13 12  1  0
 14 15  2  0
 16 17  1  0
 18 17  1  6
 18 20  1  0
 19 14  1  0
 19 18  1  0
 20 22  1  0
 21 20  2  0
M  END
$$$$
