VLS.pdb
     RDKit          3D

 22 21  0  0  1  0  0  0  0  0999 V2000
   10.5049  -20.2361   19.1174 C   0  0  0  0  0  0  0  0  0  0  0  0
    9.4752  -19.6119   18.2524 C   0  0  2  0  0  0  0  0  0  0  0  0
    9.3165  -20.4128   16.9659 C   0  0  0  0  0  0  0  0  0  0  0  0
    9.7276  -18.1788   17.8595 C   0  0  2  0  0  0  0  0  0  0  0  0
   10.8796  -18.1184   16.9411 N   0  0  0  0  0  0  0  0  0  0  0  0
   10.0034  -17.2733   18.9877 C   0  0  0  0  0  0  0  0  0  0  0  0
   11.1942  -17.1963   19.4027 O   0  0  0  0  0  0  0  0  0  0  0  0
    8.6967  -12.7572   19.7947 C   0  0  0  0  0  0  0  0  0  0  0  0
    7.6252  -13.8515   19.9792 C   0  0  2  0  0  0  0  0  0  0  0  0
    6.3565  -13.1098   20.2709 C   0  0  0  0  0  0  0  0  0  0  0  0
    8.1083  -14.7573   21.0515 C   0  0  0  0  0  0  0  0  0  0  0  0
    9.2488  -15.6485   20.7315 C   0  0  2  0  0  0  0  0  0  0  0  0
    8.9855  -16.5016   19.6047 N   0  0  0  0  0  0  0  0  0  0  0  0
    9.5182  -16.4589   21.9677 C   0  0  0  0  0  0  0  0  0  0  0  0
    8.9188  -17.5264   22.2170 O   0  0  0  0  0  0  0  0  0  0  0  0
   13.0495  -18.1182   24.4059 O   0  0  0  0  0  0  0  0  0  0  0  0
   12.4763  -17.2265   23.5312 C   0  0  0  0  0  0  0  0  0  0  0  0
   11.0415  -16.9060   23.9199 C   0  0  2  0  0  0  0  0  0  0  0  0
   10.4894  -16.0139   22.9059 N   0  0  0  0  0  0  0  0  0  0  0  0
   11.0699  -16.2539   25.2498 C   0  0  0  0  0  0  0  0  0  0  0  0
   10.7124  -15.0507   25.3213 O   0  0  0  0  0  0  0  0  0  0  0  0
   11.4645  -16.8923   26.4020 O   0  0  0  0  0  0  0  0  0  0  0  0
  2  4  1  0
  2  1  1  6
  2  3  1  0
  4  6  1  0
  4  5  1  6
  6 13  1  0
  6  7  2  0
  9  8  1  1
  9 10  1  0
 12 11  1  1
 11  9  1  0
 12 14  1  0
 13 12  1  0
 14 15  2  0
 16 17  1  0
 18 17  1  6
 18 20  1  0
 19 14  1  0
 19 18  1  0
 20 22  1  0
 21 20  2  0
M  END
$$$$
