VLS.pdb
     RDKit          3D

 22 21  0  0  1  0  0  0  0  0999 V2000
    8.0662  -18.0248   21.0244 C   0  0  0  0  0  0  0  0  0  0  0  0
    7.3407  -16.8067   20.5909 C   0  0  2  0  0  0  0  0  0  0  0  0
    6.9533  -16.9231   19.1218 C   0  0  0  0  0  0  0  0  0  0  0  0
    8.0831  -15.5055   20.7565 C   0  0  2  0  0  0  0  0  0  0  0  0
    9.3415  -15.5586   19.9897 N   0  0  0  0  0  0  0  0  0  0  0  0
    8.4188  -15.1642   22.1492 C   0  0  0  0  0  0  0  0  0  0  0  0
    9.5849  -15.4311   22.5556 O   0  0  0  0  0  0  0  0  0  0  0  0
    5.8168  -12.1265   26.8817 C   0  0  0  0  0  0  0  0  0  0  0  0
    7.0555  -12.9214   26.4196 C   0  0  2  0  0  0  0  0  0  0  0  0
    8.2023  -11.9661   26.5485 C   0  0  0  0  0  0  0  0  0  0  0  0
    6.7709  -13.4119   25.0477 C   0  0  0  0  0  0  0  0  0  0  0  0
    7.8033  -14.2508   24.3936 C   0  0  2  0  0  0  0  0  0  0  0  0
    7.4840  -14.5550   23.0253 N   0  0  0  0  0  0  0  0  0  0  0  0
    7.9149  -15.5064   25.2112 C   0  0  0  0  0  0  0  0  0  0  0  0
    6.9261  -16.2156   25.4947 O   0  0  0  0  0  0  0  0  0  0  0  0
   11.3834  -17.4601   25.1411 O   0  0  0  0  0  0  0  0  0  0  0  0
   10.2267  -18.0925   25.5293 C   0  0  0  0  0  0  0  0  0  0  0  0
    9.3606  -17.1913   26.3956 C   0  0  2  0  0  0  0  0  0  0  0  0
    9.1857  -15.9248   25.6926 N   0  0  0  0  0  0  0  0  0  0  0  0
   10.0626  -16.9963   27.6855 C   0  0  0  0  0  0  0  0  0  0  0  0
   10.3928  -15.8254   28.0028 O   0  0  0  0  0  0  0  0  0  0  0  0
   10.3696  -18.0227   28.5475 O   0  0  0  0  0  0  0  0  0  0  0  0
  2  4  1  0
  2  1  1  6
  2  3  1  0
  4  6  1  0
  4  5  1  6
  6 13  1  0
  6  7  2  0
  9  8  1  6
  9 10  1  0
 12 11  1  1
 11  9  1  0
 12 14  1  0
 13 12  1  0
 14 15  2  0
 16 17  1  0
 18 17  1  6
 18 20  1  0
 19 14  1  0
 19 18  1  0
 20 22  1  0
 21 20  2  0
M  END
$$$$
