VLS.pdb
     RDKit          3D

 22 21  0  0  1  0  0  0  0  0999 V2000
    7.2730  -15.4528   18.6850 C   0  0  0  0  0  0  0  0  0  0  0  0
    7.8061  -15.3615   20.0654 C   0  0  2  0  0  0  0  0  0  0  0  0
    7.2512  -16.4967   20.9171 C   0  0  0  0  0  0  0  0  0  0  0  0
    7.5223  -14.0739   20.7957 C   0  0  2  0  0  0  0  0  0  0  0  0
    8.0303  -12.9390   20.0030 N   0  0  0  0  0  0  0  0  0  0  0  0
    8.1186  -13.9871   22.1394 C   0  0  0  0  0  0  0  0  0  0  0  0
    9.3701  -13.8326   22.2188 O   0  0  0  0  0  0  0  0  0  0  0  0
    8.0954  -11.5871   26.1716 C   0  0  0  0  0  0  0  0  0  0  0  0
    6.7673  -12.2725   25.7890 C   0  0  2  0  0  0  0  0  0  0  0  0
    5.7905  -11.8450   26.8416 C   0  0  0  0  0  0  0  0  0  0  0  0
    7.0373  -13.7299   25.7081 C   0  0  0  0  0  0  0  0  0  0  0  0
    7.9313  -14.2005   24.6234 C   0  0  2  0  0  0  0  0  0  0  0  0
    7.3375  -14.0697   23.3207 N   0  0  0  0  0  0  0  0  0  0  0  0
    8.2515  -15.6369   24.9261 C   0  0  0  0  0  0  0  0  0  0  0  0
    7.3698  -16.5161   25.0296 O   0  0  0  0  0  0  0  0  0  0  0  0
   10.9844  -17.4284   23.1972 O   0  0  0  0  0  0  0  0  0  0  0  0
   11.1826  -17.7595   24.5162 C   0  0  0  0  0  0  0  0  0  0  0  0
    9.9661  -17.4255   25.3654 C   0  0  2  0  0  0  0  0  0  0  0  0
    9.6043  -16.0360   25.1059 N   0  0  0  0  0  0  0  0  0  0  0  0
   10.3387  -17.6265   26.7850 C   0  0  0  0  0  0  0  0  0  0  0  0
   10.7164  -18.7732   27.1360 O   0  0  0  0  0  0  0  0  0  0  0  0
   10.2930  -16.6306   27.7321 O   0  0  0  0  0  0  0  0  0  0  0  0
  2  4  1  0
  2  1  1  6
  2  3  1  0
  4  6  1  0
  4  5  1  6
  6 13  1  0
  6  7  2  0
  9  8  1  1
  9 10  1  0
 12 11  1  1
 11  9  1  0
 12 14  1  0
 13 12  1  0
 14 15  2  0
 16 17  1  0
 18 17  1  6
 18 20  1  0
 19 14  1  0
 19 18  1  0
 20 22  1  0
 21 20  2  0
M  END
$$$$
