VLS.pdb
     RDKit          3D

 22 21  0  0  1  0  0  0  0  0999 V2000
    7.7095  -12.0797   20.9154 C   0  0  0  0  0  0  0  0  0  0  0  0
    8.3031  -13.2651   20.2514 C   0  0  2  0  0  0  0  0  0  0  0  0
    7.7428  -13.4109   18.8419 C   0  0  0  0  0  0  0  0  0  0  0  0
    8.0980  -14.5830   20.9533 C   0  0  2  0  0  0  0  0  0  0  0  0
    6.6736  -14.9582   20.8844 N   0  0  0  0  0  0  0  0  0  0  0  0
    8.4975  -14.5913   22.3708 C   0  0  0  0  0  0  0  0  0  0  0  0
    9.7256  -14.4592   22.6366 O   0  0  0  0  0  0  0  0  0  0  0  0
    8.0150  -12.0953   26.1851 C   0  0  0  0  0  0  0  0  0  0  0  0
    6.7004  -12.7360   25.6943 C   0  0  2  0  0  0  0  0  0  0  0  0
    5.6439  -12.2171   26.6213 C   0  0  0  0  0  0  0  0  0  0  0  0
    6.9039  -14.2064   25.7009 C   0  0  0  0  0  0  0  0  0  0  0  0
    7.9486  -14.7560   24.8043 C   0  0  2  0  0  0  0  0  0  0  0  0
    7.5560  -14.7396   23.4214 N   0  0  0  0  0  0  0  0  0  0  0  0
    8.2168  -16.1592   25.2700 C   0  0  0  0  0  0  0  0  0  0  0  0
    7.3066  -16.9981   25.4392 O   0  0  0  0  0  0  0  0  0  0  0  0
   11.6012  -17.8655   24.3466 O   0  0  0  0  0  0  0  0  0  0  0  0
   10.5928  -18.6406   24.8672 C   0  0  0  0  0  0  0  0  0  0  0  0
    9.8598  -17.9236   25.9902 C   0  0  2  0  0  0  0  0  0  0  0  0
    9.5513  -16.5722   25.5350 N   0  0  0  0  0  0  0  0  0  0  0  0
   10.7552  -17.9008   27.1702 C   0  0  0  0  0  0  0  0  0  0  0  0
   11.1620  -16.7828   27.5767 O   0  0  0  0  0  0  0  0  0  0  0  0
   11.1616  -19.0314   27.8390 O   0  0  0  0  0  0  0  0  0  0  0  0
  2  4  1  0
  2  1  1  1
  2  3  1  0
  4  6  1  0
  4  5  1  1
  6 13  1  0
  6  7  2  0
  9  8  1  1
  9 10  1  0
 12 11  1  1
 11  9  1  0
 12 14  1  0
 13 12  1  0
 14 15  2  0
 16 17  1  0
 18 17  1  6
 18 20  1  0
 19 14  1  0
 19 18  1  0
 20 22  1  0
 21 20  2  0
M  END
$$$$
