VLS.pdb
     RDKit          3D

 22 21  0  0  1  0  0  0  0  0999 V2000
    8.3727  -17.3419   20.8027 C   0  0  0  0  0  0  0  0  0  0  0  0
    7.1666  -16.4797   20.8050 C   0  0  2  0  0  0  0  0  0  0  0  0
    6.4553  -16.5709   19.4605 C   0  0  0  0  0  0  0  0  0  0  0  0
    7.4038  -15.0184   21.0878 C   0  0  2  0  0  0  0  0  0  0  0  0
    8.2272  -14.4385   20.0107 N   0  0  0  0  0  0  0  0  0  0  0  0
    8.0783  -14.7434   22.3677 C   0  0  0  0  0  0  0  0  0  0  0  0
    9.3382  -14.6492   22.3604 O   0  0  0  0  0  0  0  0  0  0  0  0
    7.9244  -11.6880   25.9750 C   0  0  0  0  0  0  0  0  0  0  0  0
    6.6777  -12.5834   25.8205 C   0  0  2  0  0  0  0  0  0  0  0  0
    5.7309  -12.1208   26.8855 C   0  0  0  0  0  0  0  0  0  0  0  0
    7.1369  -13.9910   25.9275 C   0  0  0  0  0  0  0  0  0  0  0  0
    8.0229  -14.5045   24.8557 C   0  0  2  0  0  0  0  0  0  0  0  0
    7.3619  -14.5840   23.5816 N   0  0  0  0  0  0  0  0  0  0  0  0
    8.4933  -15.8598   25.3025 C   0  0  0  0  0  0  0  0  0  0  0  0
    7.7058  -16.7958   25.5567 O   0  0  0  0  0  0  0  0  0  0  0  0
   11.6748  -17.4967   23.8514 O   0  0  0  0  0  0  0  0  0  0  0  0
   11.7459  -17.6254   25.2178 C   0  0  0  0  0  0  0  0  0  0  0  0
   10.3888  -17.4140   25.8706 C   0  0  2  0  0  0  0  0  0  0  0  0
    9.8850  -16.1112   25.4490 N   0  0  0  0  0  0  0  0  0  0  0  0
   10.5821  -17.4648   27.3385 C   0  0  0  0  0  0  0  0  0  0  0  0
   11.0376  -18.5268   27.8341 O   0  0  0  0  0  0  0  0  0  0  0  0
   10.2912  -16.4178   28.1810 O   0  0  0  0  0  0  0  0  0  0  0  0
  2  4  1  0
  2  1  1  6
  2  3  1  0
  4  6  1  0
  4  5  1  6
  6 13  1  0
  6  7  2  0
  9  8  1  1
  9 10  1  0
 12 11  1  1
 11  9  1  0
 12 14  1  0
 13 12  1  0
 14 15  2  0
 16 17  1  0
 18 17  1  6
 18 20  1  0
 19 14  1  0
 19 18  1  0
 20 22  1  0
 21 20  2  0
M  END
$$$$
