VLS.pdb
     RDKit          3D

 22 21  0  0  1  0  0  0  0  0999 V2000
    7.8527  -12.2593   20.6824 C   0  0  0  0  0  0  0  0  0  0  0  0
    8.4380  -13.4668   20.0517 C   0  0  2  0  0  0  0  0  0  0  0  0
    7.8459  -13.6710   18.6626 C   0  0  0  0  0  0  0  0  0  0  0  0
    8.2577  -14.7571   20.8095 C   0  0  2  0  0  0  0  0  0  0  0  0
    6.8474  -15.1800   20.7279 N   0  0  0  0  0  0  0  0  0  0  0  0
    8.6253  -14.6879   22.2338 C   0  0  0  0  0  0  0  0  0  0  0  0
    9.8423  -14.5046   22.5191 O   0  0  0  0  0  0  0  0  0  0  0  0
    8.0164  -12.0453   26.0430 C   0  0  0  0  0  0  0  0  0  0  0  0
    6.7412  -12.6824   25.4534 C   0  0  2  0  0  0  0  0  0  0  0  0
    5.6170  -12.1477   26.2870 C   0  0  0  0  0  0  0  0  0  0  0  0
    6.9330  -14.1539   25.4900 C   0  0  0  0  0  0  0  0  0  0  0  0
    8.0214  -14.7225   24.6597 C   0  0  2  0  0  0  0  0  0  0  0  0
    7.6653  -14.8181   23.2701 N   0  0  0  0  0  0  0  0  0  0  0  0
    8.3306  -16.0779   25.2296 C   0  0  0  0  0  0  0  0  0  0  0  0
    7.4405  -16.8647   25.6165 O   0  0  0  0  0  0  0  0  0  0  0  0
   12.1690  -17.5115   24.8139 O   0  0  0  0  0  0  0  0  0  0  0  0
   11.1246  -18.3945   24.9480 C   0  0  0  0  0  0  0  0  0  0  0  0
   10.0282  -17.8323   25.8392 C   0  0  2  0  0  0  0  0  0  0  0  0
    9.6821  -16.5045   25.3432 N   0  0  0  0  0  0  0  0  0  0  0  0
   10.5595  -17.7672   27.2205 C   0  0  0  0  0  0  0  0  0  0  0  0
   10.6350  -16.6377   27.7677 O   0  0  0  0  0  0  0  0  0  0  0  0
   10.9715  -18.8705   27.9302 O   0  0  0  0  0  0  0  0  0  0  0  0
  2  4  1  0
  2  1  1  1
  2  3  1  0
  4  6  1  0
  4  5  1  1
  6 13  1  0
  6  7  2  0
  9  8  1  1
  9 10  1  0
 12 11  1  1
 11  9  1  0
 12 14  1  0
 13 12  1  0
 14 15  2  0
 16 17  1  0
 18 17  1  6
 18 20  1  0
 19 14  1  0
 19 18  1  0
 20 22  1  0
 21 20  2  0
M  END
$$$$
