VLS.pdb
     RDKit          3D

 22 21  0  0  1  0  0  0  0  0999 V2000
    7.2543  -16.8364   19.2194 C   0  0  0  0  0  0  0  0  0  0  0  0
    7.8087  -16.5473   20.5637 C   0  0  2  0  0  0  0  0  0  0  0  0
    7.1775  -17.4694   21.5997 C   0  0  0  0  0  0  0  0  0  0  0  0
    7.6339  -15.1338   21.0567 C   0  0  2  0  0  0  0  0  0  0  0  0
    8.2628  -14.2012   20.1032 N   0  0  0  0  0  0  0  0  0  0  0  0
    8.2089  -14.8731   22.3871 C   0  0  0  0  0  0  0  0  0  0  0  0
    9.4678  -14.8764   22.4949 O   0  0  0  0  0  0  0  0  0  0  0  0
    7.9915  -11.7054   25.8253 C   0  0  0  0  0  0  0  0  0  0  0  0
    6.6852  -12.5022   25.6292 C   0  0  2  0  0  0  0  0  0  0  0  0
    5.7185  -11.9139   26.6110 C   0  0  0  0  0  0  0  0  0  0  0  0
    7.0165  -13.9360   25.8245 C   0  0  0  0  0  0  0  0  0  0  0  0
    7.9459  -14.5614   24.8537 C   0  0  2  0  0  0  0  0  0  0  0  0
    7.4000  -14.6225   23.5252 N   0  0  0  0  0  0  0  0  0  0  0  0
    8.2460  -15.9383   25.3752 C   0  0  0  0  0  0  0  0  0  0  0  0
    7.3549  -16.7899   25.5797 O   0  0  0  0  0  0  0  0  0  0  0  0
   12.0422  -17.2521   25.0609 O   0  0  0  0  0  0  0  0  0  0  0  0
   11.0483  -18.1839   25.2414 C   0  0  0  0  0  0  0  0  0  0  0  0
    9.9331  -17.6477   26.1253 C   0  0  2  0  0  0  0  0  0  0  0  0
    9.5896  -16.3102   25.6543 N   0  0  0  0  0  0  0  0  0  0  0  0
   10.4390  -17.6126   27.5173 C   0  0  0  0  0  0  0  0  0  0  0  0
   10.4746  -16.4996   28.1009 O   0  0  0  0  0  0  0  0  0  0  0  0
   10.8686  -18.7268   28.1991 O   0  0  0  0  0  0  0  0  0  0  0  0
  2  4  1  0
  2  1  1  6
  2  3  1  0
  4  6  1  0
  4  5  1  6
  6 13  1  0
  6  7  2  0
  9  8  1  1
  9 10  1  0
 12 11  1  1
 11  9  1  0
 12 14  1  0
 13 12  1  0
 14 15  2  0
 16 17  1  0
 18 17  1  6
 18 20  1  0
 19 14  1  0
 19 18  1  0
 20 22  1  0
 21 20  2  0
M  END
$$$$
