AIE.pdb
     RDKit          3D

 23 22  0  0  1  0  0  0  0  0999 V2000
    7.0906  -15.2143   20.0919 C   0  0  0  0  0  0  0  0  0  0  0  0
    7.3391  -13.8005   20.5396 C   0  0  2  0  0  0  0  0  0  0  0  0
    8.0757  -13.0591   19.5357 N   0  0  0  0  0  0  0  0  0  0  0  0
    7.9976  -13.7156   21.8555 C   0  0  0  0  0  0  0  0  0  0  0  0
    9.2450  -13.6547   21.8941 O   0  0  0  0  0  0  0  0  0  0  0  0
    5.5390  -11.4931   26.2950 C   0  0  0  0  0  0  0  0  0  0  0  0
    6.5997  -11.8227   25.2590 C   0  0  0  0  0  0  0  0  0  0  0  0
    7.0131  -13.2545   25.4823 C   0  0  2  0  0  0  0  0  0  0  0  0
    7.7017  -13.3401   26.8274 C   0  0  0  0  0  0  0  0  0  0  0  0
    7.9121  -13.7656   24.3727 C   0  0  2  0  0  0  0  0  0  0  0  0
    7.2861  -13.6992   23.0870 N   0  0  0  0  0  0  0  0  0  0  0  0
    8.2987  -15.1624   24.7414 C   0  0  0  0  0  0  0  0  0  0  0  0
    7.4025  -16.0414   24.8224 O   0  0  0  0  0  0  0  0  0  0  0  0
    9.6316  -15.5403   25.0041 N   0  0  0  0  0  0  0  0  0  0  0  0
   10.0301  -16.9357   25.2594 C   0  0  1  0  0  0  0  0  0  0  0  0
   11.2897  -17.2712   24.5393 C   0  0  0  0  0  0  0  0  0  0  0  0
   11.7119  -18.6739   24.8263 C   0  0  0  0  0  0  0  0  0  0  0  0
   13.0087  -18.9795   24.1183 C   0  0  0  0  0  0  0  0  0  0  0  0
   13.8855  -18.1027   24.0676 O   0  0  0  0  0  0  0  0  0  0  0  0
   10.0924  -17.0832   26.7333 C   0  0  0  0  0  0  0  0  0  0  0  0
    9.9624  -18.2950   27.4073 O   0  0  0  0  0  0  0  0  0  0  0  0
   13.1879  -20.2120   23.5504 O   0  0  0  0  0  0  0  0  0  0  0  0
   10.2735  -16.0752   27.4982 O   0  0  0  0  0  0  0  0  0  0  0  0
  2  1  1  6
  2  3  1  0
  4  5  2  0
  4  2  1  0
  6  7  1  0
  7  8  1  0
  8  9  1  1
  8 10  1  0
 10 11  1  6
 11  4  1  0
 12 14  1  0
 12 10  1  0
 13 12  2  0
 15 14  1  0
 15 20  1  0
 15 16  1  6
 16 17  1  0
 18 17  1  0
 18 22  1  0
 19 18  2  0
 20 21  1  0
 23 20  2  0
M  END
$$$$
