AIE.pdb
     RDKit          3D

 23 22  0  0  1  0  0  0  0  0999 V2000
    9.2305  -18.3668   28.5359 C   0  0  0  0  0  0  0  0  0  0  0  0
    7.7915  -18.1296   28.1700 C   0  0  2  0  0  0  0  0  0  0  0  0
    7.0318  -19.3626   28.2216 N   0  0  0  0  0  0  0  0  0  0  0  0
    7.6267  -17.4556   26.8695 C   0  0  0  0  0  0  0  0  0  0  0  0
    7.3908  -18.1557   25.8619 O   0  0  0  0  0  0  0  0  0  0  0  0
    7.6326  -11.7347   26.4995 C   0  0  0  0  0  0  0  0  0  0  0  0
    8.1134  -13.1752   26.5304 C   0  0  0  0  0  0  0  0  0  0  0  0
    7.2981  -13.9404   25.5202 C   0  0  2  0  0  0  0  0  0  0  0  0
    5.8398  -13.8240   25.9083 C   0  0  0  0  0  0  0  0  0  0  0  0
    7.7264  -15.3925   25.4274 C   0  0  2  0  0  0  0  0  0  0  0  0
    7.7222  -16.0465   26.7008 N   0  0  0  0  0  0  0  0  0  0  0  0
    9.0801  -15.4020   24.7918 C   0  0  0  0  0  0  0  0  0  0  0  0
   10.0754  -15.0437   25.4726 O   0  0  0  0  0  0  0  0  0  0  0  0
    9.2917  -15.7972   23.4549 N   0  0  0  0  0  0  0  0  0  0  0  0
   10.6343  -15.9046   22.8573 C   0  0  1  0  0  0  0  0  0  0  0  0
   11.1687  -17.2881   22.9910 C   0  0  0  0  0  0  0  0  0  0  0  0
   11.8078  -17.4875   24.3252 C   0  0  0  0  0  0  0  0  0  0  0  0
   12.3773  -18.8812   24.4235 C   0  0  0  0  0  0  0  0  0  0  0  0
   13.2226  -19.2440   23.5904 O   0  0  0  0  0  0  0  0  0  0  0  0
   10.5056  -15.4143   21.4641 C   0  0  0  0  0  0  0  0  0  0  0  0
   11.5822  -15.0726   20.6493 O   0  0  0  0  0  0  0  0  0  0  0  0
   11.9503  -19.7105   25.4254 O   0  0  0  0  0  0  0  0  0  0  0  0
    9.3628  -15.2698   20.9100 O   0  0  0  0  0  0  0  0  0  0  0  0
  2  1  1  6
  2  3  1  0
  4  5  2  0
  4  2  1  0
  6  7  1  0
  7  8  1  0
  8  9  1  1
  8 10  1  0
 10 11  1  1
 11  4  1  0
 12 14  1  0
 12 10  1  0
 13 12  2  0
 15 14  1  0
 15 20  1  0
 15 16  1  6
 16 17  1  0
 18 17  1  0
 18 22  1  0
 19 18  2  0
 20 21  1  0
 23 20  2  0
M  END
$$$$
