AIE.pdb
     RDKit          3D

 23 22  0  0  1  0  0  0  0  0999 V2000
    8.2705  -19.5488   18.3784 C   0  0  0  0  0  0  0  0  0  0  0  0
    8.6627  -18.2229   17.7874 C   0  0  2  0  0  0  0  0  0  0  0  0
    9.5901  -18.3977   16.6876 N   0  0  0  0  0  0  0  0  0  0  0  0
    9.1915  -17.2760   18.7856 C   0  0  0  0  0  0  0  0  0  0  0  0
   10.4287  -17.2122   18.9487 O   0  0  0  0  0  0  0  0  0  0  0  0
    6.7965  -12.3900   20.1892 C   0  0  0  0  0  0  0  0  0  0  0  0
    7.8755  -13.3968   19.8294 C   0  0  0  0  0  0  0  0  0  0  0  0
    7.9015  -14.4340   20.9222 C   0  0  2  0  0  0  0  0  0  0  0  0
    8.2782  -13.7441   22.2157 C   0  0  0  0  0  0  0  0  0  0  0  0
    8.8587  -15.5675   20.6067 C   0  0  2  0  0  0  0  0  0  0  0  0
    8.3655  -16.4288   19.5750 N   0  0  0  0  0  0  0  0  0  0  0  0
    9.0957  -16.2999   21.8889 C   0  0  0  0  0  0  0  0  0  0  0  0
    8.1868  -17.0407   22.3444 O   0  0  0  0  0  0  0  0  0  0  0  0
   10.3003  -16.1962   22.6145 N   0  0  0  0  0  0  0  0  0  0  0  0
   10.7071  -17.1821   23.6312 C   0  0  1  0  0  0  0  0  0  0  0  0
   12.1240  -17.5964   23.4358 C   0  0  0  0  0  0  0  0  0  0  0  0
   12.5414  -18.5810   24.4773 C   0  0  0  0  0  0  0  0  0  0  0  0
   13.9857  -18.9676   24.2752 C   0  0  0  0  0  0  0  0  0  0  0  0
   14.5185  -18.7441   23.1768 O   0  0  0  0  0  0  0  0  0  0  0  0
   10.4102  -16.5646   24.9459 C   0  0  0  0  0  0  0  0  0  0  0  0
   10.3113  -17.2723   26.1413 O   0  0  0  0  0  0  0  0  0  0  0  0
   14.6728  -19.5536   25.3039 O   0  0  0  0  0  0  0  0  0  0  0  0
   10.2198  -15.3062   25.0649 O   0  0  0  0  0  0  0  0  0  0  0  0
  2  1  1  1
  2  3  1  0
  4  5  2  0
  4  2  1  0
  6  7  1  0
  7  8  1  0
  8  9  1  1
  8 10  1  0
 10 11  1  6
 11  4  1  0
 12 14  1  0
 12 10  1  0
 13 12  2  0
 15 14  1  0
 15 20  1  0
 15 16  1  1
 16 17  1  0
 18 17  1  0
 18 22  1  0
 19 18  2  0
 20 21  1  0
 23 20  2  0
M  END
$$$$
