AIE.pdb
     RDKit          3D

 23 22  0  0  1  0  0  0  0  0999 V2000
    6.5322  -16.3721   21.0196 C   0  0  0  0  0  0  0  0  0  0  0  0
    6.8285  -14.9045   21.1590 C   0  0  2  0  0  0  0  0  0  0  0  0
    7.3530  -14.3601   19.9226 N   0  0  0  0  0  0  0  0  0  0  0  0
    7.7148  -14.5965   22.2957 C   0  0  0  0  0  0  0  0  0  0  0  0
    8.9449  -14.5238   22.0888 O   0  0  0  0  0  0  0  0  0  0  0  0
    5.9431  -11.7111   26.6866 C   0  0  0  0  0  0  0  0  0  0  0  0
    6.7960  -12.1852   25.5226 C   0  0  0  0  0  0  0  0  0  0  0  0
    7.3815  -13.5182   25.9111 C   0  0  2  0  0  0  0  0  0  0  0  0
    8.3197  -13.2968   27.0781 C   0  0  0  0  0  0  0  0  0  0  0  0
    8.0971  -14.1839   24.7512 C   0  0  2  0  0  0  0  0  0  0  0  0
    7.2424  -14.3770   23.6193 N   0  0  0  0  0  0  0  0  0  0  0  0
    8.6487  -15.4738   25.2694 C   0  0  0  0  0  0  0  0  0  0  0  0
    7.8508  -16.3861   25.6060 O   0  0  0  0  0  0  0  0  0  0  0  0
   10.0321  -15.7143   25.3982 N   0  0  0  0  0  0  0  0  0  0  0  0
   10.5809  -17.0203   25.8037 C   0  0  1  0  0  0  0  0  0  0  0  0
   11.9654  -17.2012   25.2862 C   0  0  0  0  0  0  0  0  0  0  0  0
   11.9835  -17.1913   23.7935 C   0  0  0  0  0  0  0  0  0  0  0  0
   13.4033  -17.2862   23.2922 C   0  0  0  0  0  0  0  0  0  0  0  0
   13.6004  -17.5143   22.0882 O   0  0  0  0  0  0  0  0  0  0  0  0
   10.4502  -17.0819   27.2792 C   0  0  0  0  0  0  0  0  0  0  0  0
   10.0561  -16.0112   28.0779 O   0  0  0  0  0  0  0  0  0  0  0  0
   14.4376  -17.1192   24.1730 O   0  0  0  0  0  0  0  0  0  0  0  0
   10.7006  -18.1547   27.9276 O   0  0  0  0  0  0  0  0  0  0  0  0
  2  1  1  6
  2  3  1  0
  4  5  2  0
  4  2  1  0
  6  7  1  0
  7  8  1  0
  8  9  1  1
  8 10  1  0
 10 11  1  6
 11  4  1  0
 12 14  1  0
 12 10  1  0
 13 12  2  0
 15 14  1  0
 15 20  1  0
 15 16  1  1
 16 17  1  0
 18 17  1  0
 18 22  1  0
 19 18  2  0
 20 21  1  0
 23 20  2  0
M  END
$$$$
