AIE.pdb
     RDKit          3D

 23 22  0  0  1  0  0  0  0  0999 V2000
    6.1811  -16.0686   20.6639 C   0  0  0  0  0  0  0  0  0  0  0  0
    6.9092  -14.7530   20.6542 C   0  0  2  0  0  0  0  0  0  0  0  0
    7.7281  -14.6206   19.4659 N   0  0  0  0  0  0  0  0  0  0  0  0
    7.6999  -14.5180   21.8757 C   0  0  0  0  0  0  0  0  0  0  0  0
    8.9211  -14.7816   21.8543 O   0  0  0  0  0  0  0  0  0  0  0  0
    7.2049  -11.7248   27.4005 C   0  0  0  0  0  0  0  0  0  0  0  0
    7.9844  -12.6919   26.5264 C   0  0  0  0  0  0  0  0  0  0  0  0
    7.1655  -12.9314   25.2843 C   0  0  2  0  0  0  0  0  0  0  0  0
    5.8478  -13.5479   25.7021 C   0  0  0  0  0  0  0  0  0  0  0  0
    7.8917  -13.8137   24.2868 C   0  0  2  0  0  0  0  0  0  0  0  0
    7.1446  -14.0057   23.0809 N   0  0  0  0  0  0  0  0  0  0  0  0
    8.1799  -15.1047   24.9845 C   0  0  0  0  0  0  0  0  0  0  0  0
    7.2681  -15.9669   25.0717 O   0  0  0  0  0  0  0  0  0  0  0  0
    9.4362  -15.4003   25.5525 N   0  0  0  0  0  0  0  0  0  0  0  0
    9.8931  -16.7779   25.8066 C   0  0  1  0  0  0  0  0  0  0  0  0
   11.0854  -17.1061   24.9770 C   0  0  0  0  0  0  0  0  0  0  0  0
   11.6369  -18.4449   25.3401 C   0  0  0  0  0  0  0  0  0  0  0  0
   12.8588  -18.7448   24.5074 C   0  0  0  0  0  0  0  0  0  0  0  0
   13.2349  -17.9084   23.6712 O   0  0  0  0  0  0  0  0  0  0  0  0
   10.1011  -16.8795   27.2709 C   0  0  0  0  0  0  0  0  0  0  0  0
   10.2200  -18.0807   27.9656 O   0  0  0  0  0  0  0  0  0  0  0  0
   13.5221  -19.9278   24.6924 O   0  0  0  0  0  0  0  0  0  0  0  0
   10.1851  -15.8381   28.0073 O   0  0  0  0  0  0  0  0  0  0  0  0
  2  1  1  1
  2  3  1  0
  4  5  2  0
  4  2  1  0
  6  7  1  0
  7  8  1  0
  8  9  1  1
  8 10  1  0
 10 11  1  6
 11  4  1  0
 12 14  1  0
 12 10  1  0
 13 12  2  0
 15 14  1  0
 15 20  1  0
 15 16  1  6
 16 17  1  0
 18 17  1  0
 18 22  1  0
 19 18  2  0
 20 21  1  0
 23 20  2  0
M  END
$$$$
