AIE.pdb
     RDKit          3D

 23 22  0  0  1  0  0  0  0  0999 V2000
    6.0885  -16.1555   21.0208 C   0  0  0  0  0  0  0  0  0  0  0  0
    6.6728  -14.7773   21.1624 C   0  0  2  0  0  0  0  0  0  0  0  0
    7.3761  -14.3844   19.9577 N   0  0  0  0  0  0  0  0  0  0  0  0
    7.5298  -14.6294   22.3524 C   0  0  0  0  0  0  0  0  0  0  0  0
    8.7485  -14.8825   22.2436 O   0  0  0  0  0  0  0  0  0  0  0  0
    5.8807  -11.3798   26.5856 C   0  0  0  0  0  0  0  0  0  0  0  0
    6.7445  -11.9559   25.4770 C   0  0  0  0  0  0  0  0  0  0  0  0
    7.1625  -13.3379   25.9085 C   0  0  2  0  0  0  0  0  0  0  0  0
    8.0621  -13.2003   27.1179 C   0  0  0  0  0  0  0  0  0  0  0  0
    7.8564  -14.0955   24.7926 C   0  0  2  0  0  0  0  0  0  0  0  0
    7.0413  -14.2127   23.6216 N   0  0  0  0  0  0  0  0  0  0  0  0
    8.2382  -15.4294   25.3510 C   0  0  0  0  0  0  0  0  0  0  0  0
    7.3298  -16.2368   25.6751 O   0  0  0  0  0  0  0  0  0  0  0  0
    9.5797  -15.8244   25.5315 N   0  0  0  0  0  0  0  0  0  0  0  0
    9.9658  -17.2032   25.8797 C   0  0  1  0  0  0  0  0  0  0  0  0
   10.9506  -17.7443   24.9025 C   0  0  0  0  0  0  0  0  0  0  0  0
   12.1469  -16.8570   24.8025 C   0  0  0  0  0  0  0  0  0  0  0  0
   13.1850  -17.4864   23.9066 C   0  0  0  0  0  0  0  0  0  0  0  0
   12.9392  -18.5844   23.3829 O   0  0  0  0  0  0  0  0  0  0  0  0
   10.4373  -17.1567   27.2844 C   0  0  0  0  0  0  0  0  0  0  0  0
   10.5247  -15.9934   28.0452 O   0  0  0  0  0  0  0  0  0  0  0  0
   14.3695  -16.8346   23.6926 O   0  0  0  0  0  0  0  0  0  0  0  0
   10.8047  -18.2145   27.9008 O   0  0  0  0  0  0  0  0  0  0  0  0
  2  1  1  6
  2  3  1  0
  4  5  2  0
  4  2  1  0
  6  7  1  0
  7  8  1  0
  8  9  1  1
  8 10  1  0
 10 11  1  6
 11  4  1  0
 12 14  1  0
 12 10  1  0
 13 12  2  0
 15 14  1  0
 15 20  1  0
 15 16  1  6
 16 17  1  0
 18 17  1  0
 18 22  1  0
 19 18  2  0
 20 21  1  0
 23 20  2  0
M  END
$$$$
