AIE.pdb
     RDKit          3D

 23 22  0  0  1  0  0  0  0  0999 V2000
    7.8324  -13.7407   20.0586 C   0  0  0  0  0  0  0  0  0  0  0  0
    7.5646  -14.8490   21.0388 C   0  0  2  0  0  0  0  0  0  0  0  0
    6.1413  -15.0718   21.1958 N   0  0  0  0  0  0  0  0  0  0  0  0
    8.2190  -14.6413   22.3431 C   0  0  0  0  0  0  0  0  0  0  0  0
    9.4655  -14.7052   22.4006 O   0  0  0  0  0  0  0  0  0  0  0  0
    5.5701  -11.6520   26.0836 C   0  0  0  0  0  0  0  0  0  0  0  0
    6.7208  -12.1161   25.2075 C   0  0  0  0  0  0  0  0  0  0  0  0
    7.2252  -13.4144   25.7826 C   0  0  2  0  0  0  0  0  0  0  0  0
    7.9482  -13.1056   27.0761 C   0  0  0  0  0  0  0  0  0  0  0  0
    8.1282  -14.1523   24.8127 C   0  0  2  0  0  0  0  0  0  0  0  0
    7.5044  -14.3712   23.5429 N   0  0  0  0  0  0  0  0  0  0  0  0
    8.5190  -15.4332   25.4785 C   0  0  0  0  0  0  0  0  0  0  0  0
    7.6437  -16.3186   25.6575 O   0  0  0  0  0  0  0  0  0  0  0  0
    9.8335  -15.6941   25.9172 N   0  0  0  0  0  0  0  0  0  0  0  0
   10.2970  -17.0414   26.2928 C   0  0  1  0  0  0  0  0  0  0  0  0
   11.4197  -17.4822   25.4194 C   0  0  0  0  0  0  0  0  0  0  0  0
   11.9305  -18.8202   25.8403 C   0  0  0  0  0  0  0  0  0  0  0  0
   13.0870  -19.2322   24.9634 C   0  0  0  0  0  0  0  0  0  0  0  0
   14.0600  -18.4693   24.8561 O   0  0  0  0  0  0  0  0  0  0  0  0
   10.6154  -16.9790   27.7394 C   0  0  0  0  0  0  0  0  0  0  0  0
   10.6118  -15.8088   28.4945 O   0  0  0  0  0  0  0  0  0  0  0  0
   13.0371  -20.4334   24.3089 O   0  0  0  0  0  0  0  0  0  0  0  0
   10.9234  -18.0284   28.4012 O   0  0  0  0  0  0  0  0  0  0  0  0
  2  1  1  6
  2  3  1  0
  4  5  2  0
  4  2  1  0
  6  7  1  0
  7  8  1  0
  8  9  1  1
  8 10  1  0
 10 11  1  6
 11  4  1  0
 12 14  1  0
 12 10  1  0
 13 12  2  0
 15 14  1  0
 15 20  1  0
 15 16  1  6
 16 17  1  0
 18 17  1  0
 18 22  1  0
 19 18  2  0
 20 21  1  0
 23 20  2  0
M  END
$$$$
