AIE.pdb
     RDKit          3D

 23 22  0  0  1  0  0  0  0  0999 V2000
    6.2553  -16.4200   21.0591 C   0  0  0  0  0  0  0  0  0  0  0  0
    6.6782  -14.9779   21.1090 C   0  0  2  0  0  0  0  0  0  0  0  0
    7.2176  -14.5498   19.8339 N   0  0  0  0  0  0  0  0  0  0  0  0
    7.6142  -14.6851   22.2094 C   0  0  0  0  0  0  0  0  0  0  0  0
    8.8403  -14.7084   21.9701 O   0  0  0  0  0  0  0  0  0  0  0  0
    5.9820  -11.6484   26.5198 C   0  0  0  0  0  0  0  0  0  0  0  0
    6.9293  -12.1001   25.4218 C   0  0  0  0  0  0  0  0  0  0  0  0
    7.4293  -13.4708   25.7986 C   0  0  2  0  0  0  0  0  0  0  0  0
    8.3883  -13.3181   26.9597 C   0  0  0  0  0  0  0  0  0  0  0  0
    8.0916  -14.1749   24.6297 C   0  0  2  0  0  0  0  0  0  0  0  0
    7.1940  -14.3767   23.5329 N   0  0  0  0  0  0  0  0  0  0  0  0
    8.6380  -15.4632   25.1571 C   0  0  0  0  0  0  0  0  0  0  0  0
    7.8386  -16.3881   25.4537 O   0  0  0  0  0  0  0  0  0  0  0  0
   10.0181  -15.6887   25.3379 N   0  0  0  0  0  0  0  0  0  0  0  0
   10.5927  -17.0362   25.4963 C   0  0  1  0  0  0  0  0  0  0  0  0
   11.8658  -17.1664   24.7348 C   0  0  0  0  0  0  0  0  0  0  0  0
   12.4652  -18.5205   24.9232 C   0  0  0  0  0  0  0  0  0  0  0  0
   13.7581  -18.6263   24.1528 C   0  0  0  0  0  0  0  0  0  0  0  0
   14.1388  -17.6530   23.4833 O   0  0  0  0  0  0  0  0  0  0  0  0
   10.7096  -17.2652   26.9564 C   0  0  0  0  0  0  0  0  0  0  0  0
   10.5240  -16.2799   27.9230 O   0  0  0  0  0  0  0  0  0  0  0  0
   14.4788  -19.7885   24.2096 O   0  0  0  0  0  0  0  0  0  0  0  0
   10.9980  -18.4166   27.4308 O   0  0  0  0  0  0  0  0  0  0  0  0
  2  1  1  6
  2  3  1  0
  4  5  2  0
  4  2  1  0
  6  7  1  0
  7  8  1  0
  8  9  1  1
  8 10  1  0
 10 11  1  6
 11  4  1  0
 12 14  1  0
 12 10  1  0
 13 12  2  0
 15 14  1  0
 15 20  1  0
 15 16  1  6
 16 17  1  0
 18 17  1  0
 18 22  1  0
 19 18  2  0
 20 21  1  0
 23 20  2  0
M  END
$$$$
