AIE.pdb
     RDKit          3D

 23 22  0  0  1  0  0  0  0  0999 V2000
    6.3453  -18.0150   23.0063 C   0  0  0  0  0  0  0  0  0  0  0  0
    6.3160  -16.5663   22.6046 C   0  0  2  0  0  0  0  0  0  0  0  0
    6.5530  -16.4160   21.1828 N   0  0  0  0  0  0  0  0  0  0  0  0
    7.2382  -15.7271   23.3907 C   0  0  0  0  0  0  0  0  0  0  0  0
    8.4170  -15.6059   22.9947 O   0  0  0  0  0  0  0  0  0  0  0  0
    5.4594  -11.5567   26.6688 C   0  0  0  0  0  0  0  0  0  0  0  0
    6.2479  -12.3328   25.6281 C   0  0  0  0  0  0  0  0  0  0  0  0
    7.0522  -13.3745   26.3619 C   0  0  2  0  0  0  0  0  0  0  0  0
    8.0361  -12.6595   27.2629 C   0  0  0  0  0  0  0  0  0  0  0  0
    7.7650  -14.3162   25.4100 C   0  0  2  0  0  0  0  0  0  0  0  0
    6.8558  -15.0460   24.5795 N   0  0  0  0  0  0  0  0  0  0  0  0
    8.6110  -15.2185   26.2508 C   0  0  0  0  0  0  0  0  0  0  0  0
    8.0483  -16.0568   27.0011 O   0  0  0  0  0  0  0  0  0  0  0  0
   10.0202  -15.1710   26.2396 N   0  0  0  0  0  0  0  0  0  0  0  0
   10.8570  -16.1290   26.9835 C   0  0  1  0  0  0  0  0  0  0  0  0
   12.2261  -16.2047   26.4027 C   0  0  0  0  0  0  0  0  0  0  0  0
   12.1789  -16.6543   24.9800 C   0  0  0  0  0  0  0  0  0  0  0  0
   13.5688  -16.6627   24.3932 C   0  0  0  0  0  0  0  0  0  0  0  0
   14.5214  -16.3013   25.1019 O   0  0  0  0  0  0  0  0  0  0  0  0
   10.8011  -15.7084   28.4040 C   0  0  0  0  0  0  0  0  0  0  0  0
   10.3970  -14.4469   28.8341 O   0  0  0  0  0  0  0  0  0  0  0  0
   13.7469  -17.0672   23.0977 O   0  0  0  0  0  0  0  0  0  0  0  0
   11.1321  -16.5028   29.3492 O   0  0  0  0  0  0  0  0  0  0  0  0
  2  1  1  1
  2  3  1  0
  4  5  2  0
  4  2  1  0
  6  7  1  0
  7  8  1  0
  8  9  1  6
  8 10  1  0
 10 11  1  1
 11  4  1  0
 12 14  1  0
 12 10  1  0
 13 12  2  0
 15 14  1  0
 15 20  1  0
 15 16  1  6
 16 17  1  0
 18 17  1  0
 18 22  1  0
 19 18  2  0
 20 21  1  0
 23 20  2  0
M  END
$$$$
