AIE.pdb
     RDKit          3D

 23 22  0  0  1  0  0  0  0  0999 V2000
    6.3824  -18.2088   22.8781 C   0  0  0  0  0  0  0  0  0  0  0  0
    6.3785  -16.7411   22.5512 C   0  0  2  0  0  0  0  0  0  0  0  0
    6.5961  -16.5232   21.1351 N   0  0  0  0  0  0  0  0  0  0  0  0
    7.3314  -15.9630   23.3631 C   0  0  0  0  0  0  0  0  0  0  0  0
    8.5058  -15.8457   22.9531 O   0  0  0  0  0  0  0  0  0  0  0  0
    5.7263  -11.9092   26.7998 C   0  0  0  0  0  0  0  0  0  0  0  0
    6.5612  -12.6279   25.7542 C   0  0  0  0  0  0  0  0  0  0  0  0
    7.2684  -13.7626   26.4493 C   0  0  2  0  0  0  0  0  0  0  0  0
    8.2836  -13.1695   27.4026 C   0  0  0  0  0  0  0  0  0  0  0  0
    7.9285  -14.7087   25.4646 C   0  0  2  0  0  0  0  0  0  0  0  0
    6.9834  -15.3370   24.5920 N   0  0  0  0  0  0  0  0  0  0  0  0
    8.6985  -15.7032   26.2737 C   0  0  0  0  0  0  0  0  0  0  0  0
    8.0749  -16.4659   27.0558 O   0  0  0  0  0  0  0  0  0  0  0  0
   10.1013  -15.8247   26.1983 N   0  0  0  0  0  0  0  0  0  0  0  0
   10.8524  -16.8653   26.9223 C   0  0  1  0  0  0  0  0  0  0  0  0
   12.1721  -17.1156   26.2794 C   0  0  0  0  0  0  0  0  0  0  0  0
   12.0009  -17.7256   24.9277 C   0  0  0  0  0  0  0  0  0  0  0  0
   13.3422  -17.8747   24.2532 C   0  0  0  0  0  0  0  0  0  0  0  0
   14.2582  -18.4517   24.8603 O   0  0  0  0  0  0  0  0  0  0  0  0
   10.9177  -16.4191   28.3345 C   0  0  0  0  0  0  0  0  0  0  0  0
   10.7360  -15.1026   28.7512 O   0  0  0  0  0  0  0  0  0  0  0  0
   13.5177  -17.3723   22.9921 O   0  0  0  0  0  0  0  0  0  0  0  0
   11.1534  -17.2413   29.2845 O   0  0  0  0  0  0  0  0  0  0  0  0
  2  1  1  6
  2  3  1  0
  4  5  2  0
  4  2  1  0
  6  7  1  0
  7  8  1  0
  8  9  1  1
  8 10  1  0
 10 11  1  1
 11  4  1  0
 12 14  1  0
 12 10  1  0
 13 12  2  0
 15 14  1  0
 15 20  1  0
 15 16  1  6
 16 17  1  0
 18 17  1  0
 18 22  1  0
 19 18  2  0
 20 21  1  0
 23 20  2  0
M  END
$$$$
