ACS.pdb
     RDKit          3D

 18 17  0  0  1  0  0  0  0  0999 V2000
    6.4354  -15.8010   20.9630 C   0  0  0  0  0  0  0  0  0  0  0  0
    6.9588  -14.3696   21.1203 C   0  0  2  0  0  0  0  0  0  0  0  0
    7.8764  -14.0961   20.0407 N   0  0  0  0  0  0  0  0  0  0  0  0
    7.6920  -14.3103   22.4015 C   0  0  0  0  0  0  0  0  0  0  0  0
    8.8996  -14.6410   22.4196 O   0  0  0  0  0  0  0  0  0  0  0  0
    7.0804  -13.8946   23.6051 N   0  0  0  0  0  0  0  0  0  0  0  0
    7.8232  -13.8354   24.8412 C   0  0  1  0  0  0  0  0  0  0  0  0
    7.0797  -13.0657   25.9120 C   0  0  0  0  0  0  0  0  0  0  0  0
    7.9980  -13.0304   27.4622 S   0  0  0  0  0  0  0  0  0  0  0  0
    8.1588  -15.2095   25.2804 C   0  0  0  0  0  0  0  0  0  0  0  0
    7.2720  -16.0975   25.2450 O   0  0  0  0  0  0  0  0  0  0  0  0
   11.2590  -18.7335   25.7131 O   0  0  0  0  0  0  0  0  0  0  0  0
   10.8447  -17.5030   25.2648 C   0  0  0  0  0  0  0  0  0  0  0  0
    9.8279  -16.8471   26.1737 C   0  0  2  0  0  0  0  0  0  0  0  0
    9.4658  -15.5309   25.7385 N   0  0  0  0  0  0  0  0  0  0  0  0
   10.2232  -16.9066   27.5914 C   0  0  0  0  0  0  0  0  0  0  0  0
   10.3022  -15.8563   28.2525 O   0  0  0  0  0  0  0  0  0  0  0  0
   10.5026  -18.1165   28.1785 O   0  0  0  0  0  0  0  0  0  0  0  0
  2  1  1  6
  2  4  1  0
  2  3  1  0
  4  5  2  0
  6  7  1  0
  6  4  1  0
  7  8  1  1
  8  9  1  0
 10  7  1  0
 11 10  2  0
 13 12  1  0
 14 13  1  6
 14 15  1  0
 15 10  1  0
 16 18  1  0
 16 14  1  0
 17 16  2  0
M  END
$$$$
