ACS.pdb
     RDKit          3D

 18 17  0  0  1  0  0  0  0  0999 V2000
   11.0810  -20.2239   20.5092 C   0  0  0  0  0  0  0  0  0  0  0  0
   10.2639  -18.9278   20.5029 C   0  0  2  0  0  0  0  0  0  0  0  0
    9.8606  -18.6470   19.1461 N   0  0  0  0  0  0  0  0  0  0  0  0
   11.1544  -17.8471   20.9736 C   0  0  0  0  0  0  0  0  0  0  0  0
   11.8871  -17.2657   20.1410 O   0  0  0  0  0  0  0  0  0  0  0  0
   11.2090  -17.4467   22.3271 N   0  0  0  0  0  0  0  0  0  0  0  0
   12.0944  -16.3929   22.7615 C   0  0  1  0  0  0  0  0  0  0  0  0
   11.5639  -15.6763   23.9849 C   0  0  0  0  0  0  0  0  0  0  0  0
   11.4561  -16.7799   25.4056 S   0  0  0  0  0  0  0  0  0  0  0  0
   13.4477  -16.9497   22.9903 C   0  0  0  0  0  0  0  0  0  0  0  0
   13.5636  -18.1404   23.3708 O   0  0  0  0  0  0  0  0  0  0  0  0
   16.9835  -15.3274   21.2000 O   0  0  0  0  0  0  0  0  0  0  0  0
   16.7029  -16.6130   21.5939 C   0  0  0  0  0  0  0  0  0  0  0  0
   15.9349  -16.6851   22.8959 C   0  0  2  0  0  0  0  0  0  0  0  0
   14.6085  -16.1549   22.7849 N   0  0  0  0  0  0  0  0  0  0  0  0
   16.6957  -16.1263   24.0266 C   0  0  0  0  0  0  0  0  0  0  0  0
   16.2121  -15.1941   24.6925 O   0  0  0  0  0  0  0  0  0  0  0  0
   17.9326  -16.6334   24.3425 O   0  0  0  0  0  0  0  0  0  0  0  0
  2  1  1  6
  2  4  1  0
  2  3  1  0
  4  5  2  0
  6  7  1  0
  6  4  1  0
  7  8  1  1
  8  9  1  0
 10  7  1  0
 11 10  2  0
 13 12  1  0
 14 13  1  6
 14 15  1  0
 15 10  1  0
 16 18  1  0
 16 14  1  0
 17 16  2  0
M  END
$$$$
