ACS.pdb
     RDKit          3D

 18 17  0  0  1  0  0  0  0  0999 V2000
   -3.2757  -25.3577   24.4229 C   0  0  0  0  0  0  0  0  0  0  0  0
   -4.5267  -25.7475   25.2169 C   0  0  2  0  0  0  0  0  0  0  0  0
   -5.4968  -26.2988   24.3019 N   0  0  0  0  0  0  0  0  0  0  0  0
   -5.0728  -24.5089   25.8086 C   0  0  0  0  0  0  0  0  0  0  0  0
   -4.3831  -23.8890   26.6501 O   0  0  0  0  0  0  0  0  0  0  0  0
   -6.3433  -23.9995   25.4596 N   0  0  0  0  0  0  0  0  0  0  0  0
   -6.8831  -22.8265   26.1045 C   0  0  1  0  0  0  0  0  0  0  0  0
   -7.6855  -21.9724   25.1462 C   0  0  0  0  0  0  0  0  0  0  0  0
   -8.6220  -20.7014   26.0152 S   0  0  0  0  0  0  0  0  0  0  0  0
   -7.6824  -23.2359   27.2823 C   0  0  0  0  0  0  0  0  0  0  0  0
   -8.6451  -24.0261   27.1243 O   0  0  0  0  0  0  0  0  0  0  0  0
   -6.2844  -23.5332   31.2514 O   0  0  0  0  0  0  0  0  0  0  0  0
   -7.3749  -24.0923   30.6311 C   0  0  0  0  0  0  0  0  0  0  0  0
   -8.1215  -23.1199   29.7439 C   0  0  2  0  0  0  0  0  0  0  0  0
   -7.3727  -22.7465   28.5808 N   0  0  0  0  0  0  0  0  0  0  0  0
   -8.6491  -21.9679   30.4949 C   0  0  0  0  0  0  0  0  0  0  0  0
   -9.4112  -22.1590   31.4588 O   0  0  0  0  0  0  0  0  0  0  0  0
   -8.3001  -20.6901   30.1314 O   0  0  0  0  0  0  0  0  0  0  0  0
  2  1  1  6
  2  4  1  0
  2  3  1  0
  4  5  2  0
  6  7  1  0
  6  4  1  0
  7  8  1  6
  8  9  1  0
 10  7  1  0
 11 10  2  0
 13 12  1  0
 14 13  1  1
 14 15  1  0
 15 10  1  0
 16 18  1  0
 16 14  1  0
 17 16  2  0
M  END
$$$$
