ACS.pdb
     RDKit          3D

 18 17  0  0  1  0  0  0  0  0999 V2000
   13.4451  -20.1120   17.4175 C   0  0  0  0  0  0  0  0  0  0  0  0
   11.9898  -19.7145   17.6850 C   0  0  2  0  0  0  0  0  0  0  0  0
   11.4013  -19.2689   16.4451 N   0  0  0  0  0  0  0  0  0  0  0  0
   12.0127  -18.5869   18.6392 C   0  0  0  0  0  0  0  0  0  0  0  0
   12.1792  -17.4274   18.1967 O   0  0  0  0  0  0  0  0  0  0  0  0
   11.8538  -18.7696   20.0309 N   0  0  0  0  0  0  0  0  0  0  0  0
   11.8465  -17.6468   20.9379 C   0  0  1  0  0  0  0  0  0  0  0  0
   10.7655  -17.7759   21.9897 C   0  0  0  0  0  0  0  0  0  0  0  0
    9.1270  -17.8861   21.2473 S   0  0  0  0  0  0  0  0  0  0  0  0
   13.1901  -17.4929   21.5419 C   0  0  0  0  0  0  0  0  0  0  0  0
   13.7849  -18.5084   21.9791 O   0  0  0  0  0  0  0  0  0  0  0  0
   15.9354  -14.6331   20.4494 O   0  0  0  0  0  0  0  0  0  0  0  0
   15.7491  -14.7264   21.8070 C   0  0  0  0  0  0  0  0  0  0  0  0
   15.0944  -16.0227   22.2328 C   0  0  2  0  0  0  0  0  0  0  0  0
   13.8085  -16.2158   21.6311 N   0  0  0  0  0  0  0  0  0  0  0  0
   15.0873  -16.1924   23.6959 C   0  0  0  0  0  0  0  0  0  0  0  0
   14.0087  -16.3674   24.2895 O   0  0  0  0  0  0  0  0  0  0  0  0
   16.2665  -16.1573   24.3994 O   0  0  0  0  0  0  0  0  0  0  0  0
  2  1  1  6
  2  4  1  0
  2  3  1  0
  4  5  2  0
  6  7  1  0
  6  4  1  0
  7  8  1  1
  8  9  1  0
 10  7  1  0
 11 10  2  0
 13 12  1  0
 14 13  1  1
 14 15  1  0
 15 10  1  0
 16 18  1  0
 16 14  1  0
 17 16  2  0
M  END
$$$$
