ACS.pdb
     RDKit          3D

 18 17  0  0  1  0  0  0  0  0999 V2000
    7.6432  -12.5619   19.2529 C   0  0  0  0  0  0  0  0  0  0  0  0
    8.5917  -13.7652   19.2453 C   0  0  2  0  0  0  0  0  0  0  0  0
    7.8582  -14.9239   18.7961 N   0  0  0  0  0  0  0  0  0  0  0  0
    9.0313  -13.9843   20.6385 C   0  0  0  0  0  0  0  0  0  0  0  0
    9.6487  -13.0670   21.2261 O   0  0  0  0  0  0  0  0  0  0  0  0
    8.7805  -15.1899   21.3308 N   0  0  0  0  0  0  0  0  0  0  0  0
    9.1888  -15.3641   22.7041 C   0  0  1  0  0  0  0  0  0  0  0  0
    8.0605  -15.8853   23.5683 C   0  0  0  0  0  0  0  0  0  0  0  0
    8.5811  -16.1008   25.2802 S   0  0  0  0  0  0  0  0  0  0  0  0
   10.3778  -16.2458   22.7563 C   0  0  0  0  0  0  0  0  0  0  0  0
   10.3486  -17.3493   22.1584 O   0  0  0  0  0  0  0  0  0  0  0  0
   14.2139  -14.9550   22.9407 O   0  0  0  0  0  0  0  0  0  0  0  0
   13.9624  -15.9348   23.8700 C   0  0  0  0  0  0  0  0  0  0  0  0
   12.6907  -16.7075   23.5946 C   0  0  2  0  0  0  0  0  0  0  0  0
   11.5437  -15.8578   23.4716 N   0  0  0  0  0  0  0  0  0  0  0  0
   12.4959  -17.8205   24.5395 C   0  0  0  0  0  0  0  0  0  0  0  0
   11.4716  -17.8573   25.2437 O   0  0  0  0  0  0  0  0  0  0  0  0
   13.4414  -18.8116   24.6411 O   0  0  0  0  0  0  0  0  0  0  0  0
  2  1  1  1
  2  4  1  0
  2  3  1  0
  4  5  2  0
  6  7  1  0
  6  4  1  0
  7  8  1  1
  8  9  1  0
 10  7  1  0
 11 10  2  0
 13 12  1  0
 14 13  1  1
 14 15  1  0
 15 10  1  0
 16 18  1  0
 16 14  1  0
 17 16  2  0
M  END
$$$$
