ACS.pdb
     RDKit          3D

 18 17  0  0  1  0  0  0  0  0999 V2000
   -2.4590  -27.6094   29.0108 C   0  0  0  0  0  0  0  0  0  0  0  0
   -2.8336  -28.0174   30.4393 C   0  0  2  0  0  0  0  0  0  0  0  0
   -2.9549  -29.4545   30.4884 N   0  0  0  0  0  0  0  0  0  0  0  0
   -4.1486  -27.4132   30.7362 C   0  0  0  0  0  0  0  0  0  0  0  0
   -5.1508  -27.8097   30.0988 O   0  0  0  0  0  0  0  0  0  0  0  0
   -4.3157  -26.4056   31.7120 N   0  0  0  0  0  0  0  0  0  0  0  0
   -5.6186  -25.8618   32.0119 C   0  0  1  0  0  0  0  0  0  0  0  0
   -5.9432  -25.9511   33.4878 C   0  0  0  0  0  0  0  0  0  0  0  0
   -5.8352  -27.6464   34.0895 S   0  0  0  0  0  0  0  0  0  0  0  0
   -5.6985  -24.4700   31.5115 C   0  0  0  0  0  0  0  0  0  0  0  0
   -4.6412  -23.8712   31.1959 O   0  0  0  0  0  0  0  0  0  0  0  0
   -6.7075  -21.5950   28.4681 O   0  0  0  0  0  0  0  0  0  0  0  0
   -6.5385  -22.7300   29.2230 C   0  0  0  0  0  0  0  0  0  0  0  0
   -7.1184  -22.6133   30.6158 C   0  0  2  0  0  0  0  0  0  0  0  0
   -6.9516  -23.8101   31.3857 N   0  0  0  0  0  0  0  0  0  0  0  0
   -8.5035  -22.1124   30.6057 C   0  0  0  0  0  0  0  0  0  0  0  0
   -9.4495  -22.9193   30.6274 O   0  0  0  0  0  0  0  0  0  0  0  0
   -8.7473  -20.7610   30.5724 O   0  0  0  0  0  0  0  0  0  0  0  0
  2  1  1  6
  2  4  1  0
  2  3  1  0
  4  5  2  0
  6  7  1  0
  6  4  1  0
  7  8  1  1
  8  9  1  0
 10  7  1  0
 11 10  2  0
 13 12  1  0
 14 13  1  6
 14 15  1  0
 15 10  1  0
 16 18  1  0
 16 14  1  0
 17 16  2  0
M  END
$$$$
