ACS.pdb
     RDKit          3D

 18 17  0  0  1  0  0  0  0  0999 V2000
    6.8756  -14.7252   20.1860 C   0  0  0  0  0  0  0  0  0  0  0  0
    7.2160  -13.3877   20.8514 C   0  0  2  0  0  0  0  0  0  0  0  0
    8.1683  -12.6916   20.0202 N   0  0  0  0  0  0  0  0  0  0  0  0
    7.8460  -13.6940   22.1521 C   0  0  0  0  0  0  0  0  0  0  0  0
    9.0898  -13.8310   22.2008 O   0  0  0  0  0  0  0  0  0  0  0  0
    7.0968  -13.8378   23.3410 N   0  0  0  0  0  0  0  0  0  0  0  0
    7.7378  -14.1403   24.5983 C   0  0  1  0  0  0  0  0  0  0  0  0
    6.8200  -13.8906   25.7760 C   0  0  0  0  0  0  0  0  0  0  0  0
    6.6114  -12.1288   26.0927 S   0  0  0  0  0  0  0  0  0  0  0  0
    8.2382  -15.5341   24.5732 C   0  0  0  0  0  0  0  0  0  0  0  0
    7.4576  -16.4591   24.2395 O   0  0  0  0  0  0  0  0  0  0  0  0
   11.3379  -16.4349   23.0289 O   0  0  0  0  0  0  0  0  0  0  0  0
   11.2647  -17.3782   24.0246 C   0  0  0  0  0  0  0  0  0  0  0  0
   10.0910  -17.1727   24.9576 C   0  0  2  0  0  0  0  0  0  0  0  0
    9.5841  -15.8331   24.9207 N   0  0  0  0  0  0  0  0  0  0  0  0
   10.3680  -17.6562   26.3210 C   0  0  0  0  0  0  0  0  0  0  0  0
   10.8920  -18.7723   26.4832 O   0  0  0  0  0  0  0  0  0  0  0  0
   10.0485  -16.8775   27.4065 O   0  0  0  0  0  0  0  0  0  0  0  0
  2  1  1  6
  2  4  1  0
  2  3  1  0
  4  5  2  0
  6  7  1  0
  6  4  1  0
  7  8  1  1
  8  9  1  0
 10  7  1  0
 11 10  2  0
 13 12  1  0
 14 13  1  6
 14 15  1  0
 15 10  1  0
 16 18  1  0
 16 14  1  0
 17 16  2  0
M  END
$$$$
