ACS.pdb
     RDKit          3D

 18 17  0  0  1  0  0  0  0  0999 V2000
    6.9438  -19.7754   21.7217 C   0  0  0  0  0  0  0  0  0  0  0  0
    7.0070  -18.5117   20.8577 C   0  0  2  0  0  0  0  0  0  0  0  0
    7.2015  -18.9057   19.4832 N   0  0  0  0  0  0  0  0  0  0  0  0
    8.1800  -17.7336   21.3058 C   0  0  0  0  0  0  0  0  0  0  0  0
    9.3034  -18.0080   20.8254 O   0  0  0  0  0  0  0  0  0  0  0  0
    8.0801  -16.6925   22.2553 N   0  0  0  0  0  0  0  0  0  0  0  0
    9.2334  -15.9129   22.6364 C   0  0  1  0  0  0  0  0  0  0  0  0
    8.8417  -14.6056   23.2914 C   0  0  0  0  0  0  0  0  0  0  0  0
    7.5907  -14.8505   24.5653 S   0  0  0  0  0  0  0  0  0  0  0  0
   10.1118  -16.7267   23.5083 C   0  0  0  0  0  0  0  0  0  0  0  0
    9.6391  -17.7402   24.0787 O   0  0  0  0  0  0  0  0  0  0  0  0
   11.6342  -19.5243   23.5760 O   0  0  0  0  0  0  0  0  0  0  0  0
   12.5182  -18.5383   23.2112 C   0  0  0  0  0  0  0  0  0  0  0  0
   12.4657  -17.3248   24.1138 C   0  0  2  0  0  0  0  0  0  0  0  0
   11.4751  -16.3741   23.7043 N   0  0  0  0  0  0  0  0  0  0  0  0
   13.7954  -16.7287   24.3286 C   0  0  0  0  0  0  0  0  0  0  0  0
   14.0270  -15.5778   23.9184 O   0  0  0  0  0  0  0  0  0  0  0  0
   14.7732  -17.4414   24.9788 O   0  0  0  0  0  0  0  0  0  0  0  0
  2  1  1  1
  2  4  1  0
  2  3  1  0
  4  5  2  0
  6  7  1  0
  6  4  1  0
  7  8  1  1
  8  9  1  0
 10  7  1  0
 11 10  2  0
 13 12  1  0
 14 13  1  6
 14 15  1  0
 15 10  1  0
 16 18  1  0
 16 14  1  0
 17 16  2  0
M  END
$$$$
