ACS.pdb
     RDKit          3D

 18 17  0  0  1  0  0  0  0  0999 V2000
    7.6157  -12.8966   19.4960 C   0  0  0  0  0  0  0  0  0  0  0  0
    8.4884  -13.3892   18.3370 C   0  0  2  0  0  0  0  0  0  0  0  0
    7.6582  -14.1377   17.4243 N   0  0  0  0  0  0  0  0  0  0  0  0
    9.5081  -14.2915   18.9101 C   0  0  0  0  0  0  0  0  0  0  0  0
    9.2743  -15.5213   18.9411 O   0  0  0  0  0  0  0  0  0  0  0  0
   10.7357  -13.8174   19.4235 N   0  0  0  0  0  0  0  0  0  0  0  0
   11.7066  -14.7191   19.9958 C   0  0  1  0  0  0  0  0  0  0  0  0
   13.1089  -14.1517   19.9385 C   0  0  0  0  0  0  0  0  0  0  0  0
   14.1574  -15.0866   18.8096 S   0  0  0  0  0  0  0  0  0  0  0  0
   11.3049  -15.0617   21.3797 C   0  0  0  0  0  0  0  0  0  0  0  0
   10.3874  -14.4057   21.9311 O   0  0  0  0  0  0  0  0  0  0  0  0
    9.4486  -17.5409   24.3714 O   0  0  0  0  0  0  0  0  0  0  0  0
    9.9460  -16.9693   23.2257 C   0  0  0  0  0  0  0  0  0  0  0  0
   11.4234  -16.6526   23.3085 C   0  0  2  0  0  0  0  0  0  0  0  0
   11.9433  -16.1184   22.0849 N   0  0  0  0  0  0  0  0  0  0  0  0
   12.2096  -17.7815   23.8348 C   0  0  0  0  0  0  0  0  0  0  0  0
   11.9331  -18.2565   24.9503 O   0  0  0  0  0  0  0  0  0  0  0  0
   13.2423  -18.3057   23.0962 O   0  0  0  0  0  0  0  0  0  0  0  0
  2  1  1  1
  2  4  1  0
  2  3  1  0
  4  5  2  0
  6  7  1  0
  6  4  1  0
  7  8  1  1
  8  9  1  0
 10  7  1  0
 11 10  2  0
 13 12  1  0
 14 13  1  6
 14 15  1  0
 15 10  1  0
 16 18  1  0
 16 14  1  0
 17 16  2  0
M  END
$$$$
