ACS.pdb
     RDKit          3D

 18 17  0  0  1  0  0  0  0  0999 V2000
    6.6141  -19.1367   18.3592 C   0  0  0  0  0  0  0  0  0  0  0  0
    7.0250  -17.9372   17.4992 C   0  0  2  0  0  0  0  0  0  0  0  0
    7.8675  -18.4093   16.4270 N   0  0  0  0  0  0  0  0  0  0  0  0
    7.8077  -17.0283   18.3615 C   0  0  0  0  0  0  0  0  0  0  0  0
    9.0195  -17.2776   18.5552 O   0  0  0  0  0  0  0  0  0  0  0  0
    7.2391  -15.8898   18.9746 N   0  0  0  0  0  0  0  0  0  0  0  0
    8.0423  -14.9793   19.7550 C   0  0  1  0  0  0  0  0  0  0  0  0
    7.3430  -13.6553   19.9770 C   0  0  0  0  0  0  0  0  0  0  0  0
    8.2884  -12.5809   21.0723 S   0  0  0  0  0  0  0  0  0  0  0  0
    8.4192  -15.6265   21.0329 C   0  0  0  0  0  0  0  0  0  0  0  0
    7.5823  -16.3547   21.6207 O   0  0  0  0  0  0  0  0  0  0  0  0
   10.6701  -18.4723   23.4159 O   0  0  0  0  0  0  0  0  0  0  0  0
   10.1183  -17.7077   22.4171 C   0  0  0  0  0  0  0  0  0  0  0  0
   10.2005  -16.2211   22.6879 C   0  0  2  0  0  0  0  0  0  0  0  0
    9.7101  -15.4328   21.5965 N   0  0  0  0  0  0  0  0  0  0  0  0
   11.5361  -15.8095   23.1532 C   0  0  0  0  0  0  0  0  0  0  0  0
   12.1668  -14.9427   22.5229 O   0  0  0  0  0  0  0  0  0  0  0  0
   12.0805  -16.3810   24.2773 O   0  0  0  0  0  0  0  0  0  0  0  0
  2  1  1  1
  2  4  1  0
  2  3  1  0
  4  5  2  0
  6  7  1  0
  6  4  1  0
  7  8  1  1
  8  9  1  0
 10  7  1  0
 11 10  2  0
 13 12  1  0
 14 13  1  6
 14 15  1  0
 15 10  1  0
 16 18  1  0
 16 14  1  0
 17 16  2  0
M  END
$$$$
