ACS.pdb
     RDKit          3D

 18 17  0  0  1  0  0  0  0  0999 V2000
    6.6392  -15.7660   21.3531 C   0  0  0  0  0  0  0  0  0  0  0  0
    7.1009  -14.3620   21.7567 C   0  0  2  0  0  0  0  0  0  0  0  0
    7.7998  -13.7711   20.6410 N   0  0  0  0  0  0  0  0  0  0  0  0
    8.0412  -14.5183   22.8853 C   0  0  0  0  0  0  0  0  0  0  0  0
    9.2518  -14.7196   22.6365 O   0  0  0  0  0  0  0  0  0  0  0  0
    7.6243  -14.4489   24.2332 N   0  0  0  0  0  0  0  0  0  0  0  0
    8.5695  -14.5717   25.3170 C   0  0  1  0  0  0  0  0  0  0  0  0
    8.0515  -13.9446   26.5937 C   0  0  0  0  0  0  0  0  0  0  0  0
    7.8343  -12.1642   26.4178 S   0  0  0  0  0  0  0  0  0  0  0  0
    8.9208  -15.9983   25.5048 C   0  0  0  0  0  0  0  0  0  0  0  0
    8.0174  -16.8667   25.4273 O   0  0  0  0  0  0  0  0  0  0  0  0
   11.7434  -17.7085   23.8183 O   0  0  0  0  0  0  0  0  0  0  0  0
   11.8244  -18.1630   25.1119 C   0  0  0  0  0  0  0  0  0  0  0  0
   10.6391  -17.7600   25.9622 C   0  0  2  0  0  0  0  0  0  0  0  0
   10.2612  -16.3914   25.7700 N   0  0  0  0  0  0  0  0  0  0  0  0
   10.8158  -18.1250   27.3782 C   0  0  0  0  0  0  0  0  0  0  0  0
   10.7271  -17.2477   28.2551 O   0  0  0  0  0  0  0  0  0  0  0  0
   11.0770  -19.4277   27.7266 O   0  0  0  0  0  0  0  0  0  0  0  0
  2  1  1  6
  2  4  1  0
  2  3  1  0
  4  5  2  0
  6  7  1  0
  6  4  1  0
  7  8  1  1
  8  9  1  0
 10  7  1  0
 11 10  2  0
 13 12  1  0
 14 13  1  6
 14 15  1  0
 15 10  1  0
 16 18  1  0
 16 14  1  0
 17 16  2  0
M  END
$$$$
