ACS.pdb
     RDKit          3D

 18 17  0  0  1  0  0  0  0  0999 V2000
    6.6686  -14.6290   20.4572 C   0  0  0  0  0  0  0  0  0  0  0  0
    7.2871  -13.2869   20.8617 C   0  0  2  0  0  0  0  0  0  0  0  0
    8.3547  -12.9784   19.9413 N   0  0  0  0  0  0  0  0  0  0  0  0
    7.8531  -13.4565   22.2157 C   0  0  0  0  0  0  0  0  0  0  0  0
    9.0371  -13.8484   22.3282 O   0  0  0  0  0  0  0  0  0  0  0  0
    7.1077  -13.1928   23.3863 N   0  0  0  0  0  0  0  0  0  0  0  0
    7.6802  -13.3827   24.6976 C   0  0  1  0  0  0  0  0  0  0  0  0
    6.8959  -12.6548   25.7684 C   0  0  0  0  0  0  0  0  0  0  0  0
    7.5431  -12.9995   27.4147 S   0  0  0  0  0  0  0  0  0  0  0  0
    7.7901  -14.8322   24.9818 C   0  0  0  0  0  0  0  0  0  0  0  0
    6.7781  -15.5619   24.8425 O   0  0  0  0  0  0  0  0  0  0  0  0
   11.1101  -17.2408   24.3837 O   0  0  0  0  0  0  0  0  0  0  0  0
    9.8004  -17.5864   24.6117 C   0  0  0  0  0  0  0  0  0  0  0  0
    9.1581  -16.7913   25.7276 C   0  0  2  0  0  0  0  0  0  0  0  0
    9.0215  -15.4013   25.4077 N   0  0  0  0  0  0  0  0  0  0  0  0
    9.8033  -17.0314   27.0297 C   0  0  0  0  0  0  0  0  0  0  0  0
    9.9057  -18.1935   27.4603 O   0  0  0  0  0  0  0  0  0  0  0  0
   10.2888  -15.9764   27.7631 O   0  0  0  0  0  0  0  0  0  0  0  0
  2  1  1  6
  2  4  1  0
  2  3  1  0
  4  5  2  0
  6  7  1  0
  6  4  1  0
  7  8  1  1
  8  9  1  0
 10  7  1  0
 11 10  2  0
 13 12  1  0
 14 13  1  6
 14 15  1  0
 15 10  1  0
 16 18  1  0
 16 14  1  0
 17 16  2  0
M  END
$$$$
