SIP.pdb
     RDKit          3D

 22 22  0  0  1  0  0  0  0  0999 V2000
    5.6616  -17.2443   20.3261 O   0  0  0  0  0  0  0  0  0  0  0  0
    6.7131  -16.8938   21.1675 C   0  0  0  0  0  0  0  0  0  0  0  0
    6.8017  -15.3957   21.1749 C   0  0  2  0  0  0  0  0  0  0  0  0
    7.3172  -14.9556   19.8833 N   0  0  0  0  0  0  0  0  0  0  0  0
    7.6164  -14.8304   22.2639 C   0  0  0  0  0  0  0  0  0  0  0  0
    8.8600  -14.7674   22.1201 O   0  0  0  0  0  0  0  0  0  0  0  0
    5.7898  -11.4940   26.3315 C   0  0  0  0  0  0  0  0  0  0  0  0
    6.6374  -12.1211   25.2188 C   0  0  0  0  0  0  0  0  0  0  0  0
    7.1218  -13.4227   25.7499 C   0  0  2  0  0  0  0  0  0  0  0  0
    8.1196  -13.1715   26.8369 C   0  0  0  0  0  0  0  0  0  0  0  0
    7.7836  -14.3163   24.7182 C   0  0  2  0  0  0  0  0  0  0  0  0
    7.0826  -14.3417   23.4837 N   0  0  0  0  0  0  0  0  0  0  0  0
    8.2170  -15.5848   25.2984 C   0  0  0  0  0  0  0  0  0  0  0  0
    7.2579  -16.3474   25.6866 O   0  0  0  0  0  0  0  0  0  0  0  0
    9.5190  -16.0488   25.4728 N   0  0  0  0  0  0  0  0  0  0  0  0
   10.7126  -15.2035   25.3009 C   0  0  0  0  0  0  0  0  0  0  0  0
   11.8670  -16.1365   25.1309 C   0  0  0  0  0  0  0  0  0  0  0  0
   11.2256  -17.5028   24.9100 C   0  0  0  0  0  0  0  0  0  0  0  0
   10.0179  -17.3396   25.8514 C   0  0  1  0  0  0  0  0  0  0  0  0
   10.4678  -17.3644   27.2528 C   0  0  0  0  0  0  0  0  0  0  0  0
   10.8230  -18.5109   27.9222 O   0  0  0  0  0  0  0  0  0  0  0  0
   10.5334  -16.2756   27.8807 O   0  0  0  0  0  0  0  0  0  0  0  0
  2  3  1  0
  2  1  1  0
  3  4  1  6
  5  3  1  0
  6  5  2  0
  8  9  1  0
  8  7  1  0
  9 11  1  0
  9 10  1  1
 11 13  1  0
 11 12  1  6
 12  5  1  0
 13 15  1  0
 14 13  2  0
 15 19  1  0
 15 16  1  0
 16 17  1  0
 18 17  1  0
 19 20  1  1
 19 18  1  0
 20 22  2  0
 20 21  1  0
M  END
$$$$
