SIP.pdb
     RDKit          3D

 22 22  0  0  1  0  0  0  0  0999 V2000
    6.6982  -18.0508   21.0466 O   0  0  0  0  0  0  0  0  0  0  0  0
    5.9210  -17.2719   21.8985 C   0  0  0  0  0  0  0  0  0  0  0  0
    6.2448  -15.8347   21.6129 C   0  0  2  0  0  0  0  0  0  0  0  0
    6.6981  -15.7276   20.2306 N   0  0  0  0  0  0  0  0  0  0  0  0
    7.2381  -15.2333   22.5189 C   0  0  0  0  0  0  0  0  0  0  0  0
    8.4407  -15.2052   22.1665 O   0  0  0  0  0  0  0  0  0  0  0  0
    6.0542  -11.7440   26.7156 C   0  0  0  0  0  0  0  0  0  0  0  0
    6.6945  -12.3997   25.4867 C   0  0  0  0  0  0  0  0  0  0  0  0
    7.3292  -13.6547   25.9696 C   0  0  2  0  0  0  0  0  0  0  0  0
    8.4965  -13.3134   26.8419 C   0  0  0  0  0  0  0  0  0  0  0  0
    7.8317  -14.5697   24.8690 C   0  0  2  0  0  0  0  0  0  0  0  0
    6.9231  -14.6720   23.7828 N   0  0  0  0  0  0  0  0  0  0  0  0
    8.4130  -15.7966   25.4077 C   0  0  0  0  0  0  0  0  0  0  0  0
    7.5632  -16.5949   25.9486 O   0  0  0  0  0  0  0  0  0  0  0  0
    9.7499  -16.1885   25.4005 N   0  0  0  0  0  0  0  0  0  0  0  0
   10.8628  -15.2743   25.0932 C   0  0  0  0  0  0  0  0  0  0  0  0
   12.0339  -16.1377   24.7534 C   0  0  0  0  0  0  0  0  0  0  0  0
   11.4442  -17.5348   24.5879 C   0  0  0  0  0  0  0  0  0  0  0  0
   10.3636  -17.4544   25.6821 C   0  0  1  0  0  0  0  0  0  0  0  0
   10.9946  -17.4743   27.0120 C   0  0  0  0  0  0  0  0  0  0  0  0
   11.0012  -16.4023   27.8720 O   0  0  0  0  0  0  0  0  0  0  0  0
   11.5630  -18.5317   27.3900 O   0  0  0  0  0  0  0  0  0  0  0  0
  2  3  1  0
  2  1  1  0
  3  4  1  6
  5  3  1  0
  6  5  2  0
  8  9  1  0
  8  7  1  0
  9 11  1  0
  9 10  1  1
 11 13  1  0
 11 12  1  6
 12  5  1  0
 13 15  1  0
 14 13  2  0
 15 19  1  0
 15 16  1  0
 16 17  1  0
 18 17  1  0
 19 20  1  1
 19 18  1  0
 20 22  2  0
 20 21  1  0
M  END
$$$$
