SIP.pdb
     RDKit          3D

 22 22  0  0  1  0  0  0  0  0999 V2000
    7.1267  -17.4110   20.8440 O   0  0  0  0  0  0  0  0  0  0  0  0
    6.0693  -16.5382   21.0820 C   0  0  0  0  0  0  0  0  0  0  0  0
    6.6287  -15.1457   21.0841 C   0  0  2  0  0  0  0  0  0  0  0  0
    7.3581  -14.9375   19.8382 N   0  0  0  0  0  0  0  0  0  0  0  0
    7.4918  -14.8283   22.2345 C   0  0  0  0  0  0  0  0  0  0  0  0
    8.7352  -14.9123   22.1004 O   0  0  0  0  0  0  0  0  0  0  0  0
    6.0564  -11.4169   26.3328 C   0  0  0  0  0  0  0  0  0  0  0  0
    6.8123  -12.1191   25.1990 C   0  0  0  0  0  0  0  0  0  0  0  0
    7.2257  -13.4435   25.7340 C   0  0  2  0  0  0  0  0  0  0  0  0
    8.2812  -13.2468   26.7768 C   0  0  0  0  0  0  0  0  0  0  0  0
    7.7818  -14.3968   24.6933 C   0  0  2  0  0  0  0  0  0  0  0  0
    7.0058  -14.4250   23.5045 N   0  0  0  0  0  0  0  0  0  0  0  0
    8.1922  -15.6669   25.2865 C   0  0  0  0  0  0  0  0  0  0  0  0
    7.2189  -16.4158   25.6660 O   0  0  0  0  0  0  0  0  0  0  0  0
    9.4860  -16.1452   25.4813 N   0  0  0  0  0  0  0  0  0  0  0  0
   10.6915  -15.3134   25.3272 C   0  0  0  0  0  0  0  0  0  0  0  0
   11.8379  -16.2594   25.1756 C   0  0  0  0  0  0  0  0  0  0  0  0
   11.1848  -17.6187   24.9458 C   0  0  0  0  0  0  0  0  0  0  0  0
    9.9647  -17.4412   25.8684 C   0  0  1  0  0  0  0  0  0  0  0  0
   10.3927  -17.4697   27.2767 C   0  0  0  0  0  0  0  0  0  0  0  0
   10.8086  -18.6067   27.9271 O   0  0  0  0  0  0  0  0  0  0  0  0
   10.3796  -16.3935   27.9291 O   0  0  0  0  0  0  0  0  0  0  0  0
  2  3  1  0
  2  1  1  0
  3  4  1  6
  5  3  1  0
  6  5  2  0
  8  9  1  0
  8  7  1  0
  9 11  1  0
  9 10  1  1
 11 13  1  0
 11 12  1  6
 12  5  1  0
 13 15  1  0
 14 13  2  0
 15 19  1  0
 15 16  1  0
 16 17  1  0
 18 17  1  0
 19 20  1  1
 19 18  1  0
 20 22  2  0
 20 21  1  0
M  END
$$$$
