SIP.pdb
     RDKit          3D

 22 22  0  0  1  0  0  0  0  0999 V2000
    5.9913  -16.9310   19.8355 O   0  0  0  0  0  0  0  0  0  0  0  0
    6.8477  -16.6841   20.9042 C   0  0  0  0  0  0  0  0  0  0  0  0
    7.0070  -15.1963   21.0173 C   0  0  2  0  0  0  0  0  0  0  0  0
    7.6173  -14.7008   19.7887 N   0  0  0  0  0  0  0  0  0  0  0  0
    7.7827  -14.7449   22.1851 C   0  0  0  0  0  0  0  0  0  0  0  0
    9.0326  -14.7002   22.1016 O   0  0  0  0  0  0  0  0  0  0  0  0
    5.9263  -11.6524   26.4873 C   0  0  0  0  0  0  0  0  0  0  0  0
    6.6721  -12.2616   25.2945 C   0  0  0  0  0  0  0  0  0  0  0  0
    7.1551  -13.5942   25.7440 C   0  0  2  0  0  0  0  0  0  0  0  0
    8.1097  -13.4148   26.8827 C   0  0  0  0  0  0  0  0  0  0  0  0
    7.8656  -14.4000   24.6731 C   0  0  2  0  0  0  0  0  0  0  0  0
    7.2040  -14.3483   23.4178 N   0  0  0  0  0  0  0  0  0  0  0  0
    8.3049  -15.6995   25.1750 C   0  0  0  0  0  0  0  0  0  0  0  0
    7.3494  -16.5142   25.4495 O   0  0  0  0  0  0  0  0  0  0  0  0
    9.6089  -16.1433   25.3834 N   0  0  0  0  0  0  0  0  0  0  0  0
   10.7834  -15.2551   25.3566 C   0  0  0  0  0  0  0  0  0  0  0  0
   11.9739  -16.1388   25.1724 C   0  0  0  0  0  0  0  0  0  0  0  0
   11.3886  -17.4959   24.7948 C   0  0  0  0  0  0  0  0  0  0  0  0
   10.1259  -17.4495   25.6750 C   0  0  1  0  0  0  0  0  0  0  0  0
   10.4976  -17.5883   27.0926 C   0  0  0  0  0  0  0  0  0  0  0  0
   10.8480  -18.7811   27.6784 O   0  0  0  0  0  0  0  0  0  0  0  0
   10.4965  -16.5586   27.8163 O   0  0  0  0  0  0  0  0  0  0  0  0
  2  3  1  0
  2  1  1  0
  3  4  1  6
  5  3  1  0
  6  5  2  0
  8  9  1  0
  8  7  1  0
  9 11  1  0
  9 10  1  1
 11 13  1  0
 11 12  1  6
 12  5  1  0
 13 15  1  0
 14 13  2  0
 15 19  1  0
 15 16  1  0
 16 17  1  0
 18 17  1  0
 19 20  1  1
 19 18  1  0
 20 22  2  0
 20 21  1  0
M  END
$$$$
