SIP.pdb
     RDKit          3D

 22 22  0  0  1  0  0  0  0  0999 V2000
    8.1100  -19.4314   24.6647 O   0  0  0  0  0  0  0  0  0  0  0  0
    7.4452  -19.2777   25.8775 C   0  0  0  0  0  0  0  0  0  0  0  0
    6.0924  -18.7014   25.5777 C   0  0  2  0  0  0  0  0  0  0  0  0
    5.3420  -19.6686   24.7848 N   0  0  0  0  0  0  0  0  0  0  0  0
    6.1142  -17.3963   24.8955 C   0  0  0  0  0  0  0  0  0  0  0  0
    5.7673  -17.3358   23.6925 O   0  0  0  0  0  0  0  0  0  0  0  0
    6.5511  -12.3941   27.5234 C   0  0  0  0  0  0  0  0  0  0  0  0
    6.0513  -13.4100   26.4900 C   0  0  0  0  0  0  0  0  0  0  0  0
    7.2525  -13.8643   25.7403 C   0  0  2  0  0  0  0  0  0  0  0  0
    7.7625  -12.7382   24.8965 C   0  0  0  0  0  0  0  0  0  0  0  0
    7.0121  -15.0500   24.8254 C   0  0  2  0  0  0  0  0  0  0  0  0
    6.5047  -16.1821   25.5161 N   0  0  0  0  0  0  0  0  0  0  0  0
    8.1157  -15.2438   23.8884 C   0  0  0  0  0  0  0  0  0  0  0  0
    9.0267  -16.0521   24.2994 O   0  0  0  0  0  0  0  0  0  0  0  0
    8.2867  -14.6665   22.6321 N   0  0  0  0  0  0  0  0  0  0  0  0
    7.6623  -13.3945   22.2307 C   0  0  0  0  0  0  0  0  0  0  0  0
    7.7112  -13.3554   20.7379 C   0  0  0  0  0  0  0  0  0  0  0  0
    8.1009  -14.7728   20.3304 C   0  0  0  0  0  0  0  0  0  0  0  0
    9.0558  -15.0881   21.4967 C   0  0  1  0  0  0  0  0  0  0  0  0
   10.2960  -14.3079   21.3539 C   0  0  0  0  0  0  0  0  0  0  0  0
   11.2951  -14.6156   20.4618 O   0  0  0  0  0  0  0  0  0  0  0  0
   10.4574  -13.2989   22.0887 O   0  0  0  0  0  0  0  0  0  0  0  0
  2  3  1  0
  2  1  1  0
  3  4  1  6
  5  3  1  0
  6  5  2  0
  8  9  1  0
  8  7  1  0
  9 11  1  0
  9 10  1  6
 11 13  1  0
 11 12  1  1
 12  5  1  0
 13 15  1  0
 14 13  2  0
 15 19  1  0
 15 16  1  0
 16 17  1  0
 18 17  1  0
 19 20  1  6
 19 18  1  0
 20 22  2  0
 20 21  1  0
M  END
$$$$
