SIP.pdb
     RDKit          3D

 22 22  0  0  1  0  0  0  0  0999 V2000
    7.6497  -19.9946   27.4673 O   0  0  0  0  0  0  0  0  0  0  0  0
    7.6674  -19.2734   26.2773 C   0  0  0  0  0  0  0  0  0  0  0  0
    6.2643  -18.8124   26.0111 C   0  0  2  0  0  0  0  0  0  0  0  0
    5.5563  -19.8700   25.2986 N   0  0  0  0  0  0  0  0  0  0  0  0
    6.1610  -17.5450   25.2680 C   0  0  0  0  0  0  0  0  0  0  0  0
    5.7445  -17.5681   24.0859 O   0  0  0  0  0  0  0  0  0  0  0  0
    6.3168  -12.1667   27.2534 C   0  0  0  0  0  0  0  0  0  0  0  0
    5.9352  -13.2989   26.2930 C   0  0  0  0  0  0  0  0  0  0  0  0
    7.2118  -13.9384   25.8777 C   0  0  2  0  0  0  0  0  0  0  0  0
    8.0063  -12.9687   25.0601 C   0  0  0  0  0  0  0  0  0  0  0  0
    7.0442  -15.2018   25.0550 C   0  0  2  0  0  0  0  0  0  0  0  0
    6.5034  -16.2784   25.8065 N   0  0  0  0  0  0  0  0  0  0  0  0
    8.2093  -15.4579   24.2121 C   0  0  0  0  0  0  0  0  0  0  0  0
    9.1236  -16.1685   24.7700 O   0  0  0  0  0  0  0  0  0  0  0  0
    8.4344  -15.0302   22.9055 N   0  0  0  0  0  0  0  0  0  0  0  0
    7.8731  -13.7874   22.3494 C   0  0  0  0  0  0  0  0  0  0  0  0
    7.9596  -13.9156   20.8634 C   0  0  0  0  0  0  0  0  0  0  0  0
    8.2999  -15.3834   20.6249 C   0  0  0  0  0  0  0  0  0  0  0  0
    9.2125  -15.6042   21.8455 C   0  0  1  0  0  0  0  0  0  0  0  0
   10.4871  -14.8930   21.6536 C   0  0  0  0  0  0  0  0  0  0  0  0
   10.9470  -13.9070   22.4932 O   0  0  0  0  0  0  0  0  0  0  0  0
   11.2024  -15.2009   20.6649 O   0  0  0  0  0  0  0  0  0  0  0  0
  2  3  1  0
  2  1  1  0
  3  4  1  6
  5  3  1  0
  6  5  2  0
  8  9  1  0
  8  7  1  0
  9 11  1  0
  9 10  1  6
 11 13  1  0
 11 12  1  1
 12  5  1  0
 13 15  1  0
 14 13  2  0
 15 19  1  0
 15 16  1  0
 16 17  1  0
 18 17  1  0
 19 20  1  6
 19 18  1  0
 20 22  2  0
 20 21  1  0
M  END
$$$$
