SIP.pdb
     RDKit          3D

 22 22  0  0  1  0  0  0  0  0999 V2000
    6.6039  -17.6516   22.0699 O   0  0  0  0  0  0  0  0  0  0  0  0
    7.1729  -17.0213   20.9674 C   0  0  0  0  0  0  0  0  0  0  0  0
    7.1789  -15.5469   21.2470 C   0  0  2  0  0  0  0  0  0  0  0  0
    7.7332  -14.8576   20.0872 N   0  0  0  0  0  0  0  0  0  0  0  0
    7.9062  -15.1521   22.4653 C   0  0  0  0  0  0  0  0  0  0  0  0
    9.1584  -15.1045   22.4347 O   0  0  0  0  0  0  0  0  0  0  0  0
    5.9888  -11.5804   26.1526 C   0  0  0  0  0  0  0  0  0  0  0  0
    6.7800  -12.3841   25.1143 C   0  0  0  0  0  0  0  0  0  0  0  0
    7.2669  -13.6017   25.8153 C   0  0  2  0  0  0  0  0  0  0  0  0
    8.2372  -13.2019   26.8824 C   0  0  0  0  0  0  0  0  0  0  0  0
    7.9614  -14.6088   24.9184 C   0  0  2  0  0  0  0  0  0  0  0  0
    7.2777  -14.8139   23.6910 N   0  0  0  0  0  0  0  0  0  0  0  0
    8.4141  -15.7788   25.6665 C   0  0  0  0  0  0  0  0  0  0  0  0
    7.4698  -16.5582   26.0576 O   0  0  0  0  0  0  0  0  0  0  0  0
    9.7203  -16.1355   25.9945 N   0  0  0  0  0  0  0  0  0  0  0  0
   10.8593  -15.2047   25.9220 C   0  0  0  0  0  0  0  0  0  0  0  0
   12.0916  -16.0493   25.9079 C   0  0  0  0  0  0  0  0  0  0  0  0
   11.5816  -17.4666   25.6667 C   0  0  0  0  0  0  0  0  0  0  0  0
   10.2698  -17.3734   26.4679 C   0  0  1  0  0  0  0  0  0  0  0  0
   10.5651  -17.3268   27.9094 C   0  0  0  0  0  0  0  0  0  0  0  0
   10.9805  -18.4136   28.6408 O   0  0  0  0  0  0  0  0  0  0  0  0
   10.4314  -16.2308   28.5135 O   0  0  0  0  0  0  0  0  0  0  0  0
  2  3  1  0
  2  1  1  0
  3  4  1  6
  5  3  1  0
  6  5  2  0
  8  9  1  0
  8  7  1  0
  9 11  1  0
  9 10  1  1
 11 13  1  0
 11 12  1  6
 12  5  1  0
 13 15  1  0
 14 13  2  0
 15 19  1  0
 15 16  1  0
 16 17  1  0
 18 17  1  0
 19 20  1  1
 19 18  1  0
 20 22  2  0
 20 21  1  0
M  END
$$$$
