SIP.pdb
     RDKit          3D

 22 22  0  0  1  0  0  0  0  0999 V2000
    8.7926  -19.0320   26.2448 O   0  0  0  0  0  0  0  0  0  0  0  0
    7.9909  -18.6756   27.3249 C   0  0  0  0  0  0  0  0  0  0  0  0
    6.6053  -18.4427   26.7978 C   0  0  2  0  0  0  0  0  0  0  0  0
    6.1256  -19.6802   26.1928 N   0  0  0  0  0  0  0  0  0  0  0  0
    6.4881  -17.3319   25.8379 C   0  0  0  0  0  0  0  0  0  0  0  0
    6.1984  -17.5893   24.6458 O   0  0  0  0  0  0  0  0  0  0  0  0
    6.3629  -11.8128   27.2607 C   0  0  0  0  0  0  0  0  0  0  0  0
    5.9884  -13.0271   26.4033 C   0  0  0  0  0  0  0  0  0  0  0  0
    7.2706  -13.6073   25.9232 C   0  0  2  0  0  0  0  0  0  0  0  0
    7.8841  -12.6839   24.9176 C   0  0  0  0  0  0  0  0  0  0  0  0
    7.1396  -14.9713   25.2728 C   0  0  2  0  0  0  0  0  0  0  0  0
    6.6811  -15.9676   26.1745 N   0  0  0  0  0  0  0  0  0  0  0  0
    8.2864  -15.2780   24.4217 C   0  0  0  0  0  0  0  0  0  0  0  0
    9.2577  -15.8619   25.0281 O   0  0  0  0  0  0  0  0  0  0  0  0
    8.4410  -15.0162   23.0621 N   0  0  0  0  0  0  0  0  0  0  0  0
    7.8417  -13.8534   22.3854 C   0  0  0  0  0  0  0  0  0  0  0  0
    7.8535  -14.1658   20.9245 C   0  0  0  0  0  0  0  0  0  0  0  0
    8.1934  -15.6512   20.8533 C   0  0  0  0  0  0  0  0  0  0  0  0
    9.1688  -15.7163   22.0431 C   0  0  1  0  0  0  0  0  0  0  0  0
   10.4260  -15.0321   21.6987 C   0  0  0  0  0  0  0  0  0  0  0  0
   10.8921  -13.9148   22.3491 O   0  0  0  0  0  0  0  0  0  0  0  0
   11.1195  -15.4919   20.7543 O   0  0  0  0  0  0  0  0  0  0  0  0
  2  3  1  0
  2  1  1  0
  3  4  1  6
  5  3  1  0
  6  5  2  0
  8  9  1  0
  8  7  1  0
  9 11  1  0
  9 10  1  6
 11 13  1  0
 11 12  1  1
 12  5  1  0
 13 15  1  0
 14 13  2  0
 15 19  1  0
 15 16  1  0
 16 17  1  0
 18 17  1  0
 19 20  1  6
 19 18  1  0
 20 22  2  0
 20 21  1  0
M  END
$$$$
