SIP.pdb
     RDKit          3D

 22 22  0  0  1  0  0  0  0  0999 V2000
    8.1286  -20.1284   27.0897 O   0  0  0  0  0  0  0  0  0  0  0  0
    8.0524  -19.0377   26.2289 C   0  0  0  0  0  0  0  0  0  0  0  0
    6.6084  -18.6403   26.1348 C   0  0  2  0  0  0  0  0  0  0  0  0
    5.8560  -19.7571   25.5744 N   0  0  0  0  0  0  0  0  0  0  0  0
    6.3538  -17.4170   25.3551 C   0  0  0  0  0  0  0  0  0  0  0  0
    5.8887  -17.5233   24.1959 O   0  0  0  0  0  0  0  0  0  0  0  0
    6.5276  -12.0772   27.3603 C   0  0  0  0  0  0  0  0  0  0  0  0
    6.0919  -13.1615   26.3682 C   0  0  0  0  0  0  0  0  0  0  0  0
    7.3427  -13.7743   25.8477 C   0  0  2  0  0  0  0  0  0  0  0  0
    8.0401  -12.7929   24.9586 C   0  0  0  0  0  0  0  0  0  0  0  0
    7.1350  -15.0478   25.0503 C   0  0  2  0  0  0  0  0  0  0  0  0
    6.6002  -16.1046   25.8333 N   0  0  0  0  0  0  0  0  0  0  0  0
    8.2728  -15.3338   24.1800 C   0  0  0  0  0  0  0  0  0  0  0  0
    9.2000  -16.0339   24.7297 O   0  0  0  0  0  0  0  0  0  0  0  0
    8.4602  -14.9436   22.8559 N   0  0  0  0  0  0  0  0  0  0  0  0
    7.8570  -13.7334   22.2723 C   0  0  0  0  0  0  0  0  0  0  0  0
    7.9161  -13.9079   20.7897 C   0  0  0  0  0  0  0  0  0  0  0  0
    8.2877  -15.3740   20.5912 C   0  0  0  0  0  0  0  0  0  0  0  0
    9.2304  -15.5329   21.7985 C   0  0  1  0  0  0  0  0  0  0  0  0
   10.4827  -14.7978   21.5567 C   0  0  0  0  0  0  0  0  0  0  0  0
   11.4478  -15.2027   20.6659 O   0  0  0  0  0  0  0  0  0  0  0  0
   10.6882  -13.7357   22.1999 O   0  0  0  0  0  0  0  0  0  0  0  0
  2  3  1  0
  2  1  1  0
  3  4  1  6
  5  3  1  0
  6  5  2  0
  8  9  1  0
  8  7  1  0
  9 11  1  0
  9 10  1  6
 11 13  1  0
 11 12  1  1
 12  5  1  0
 13 15  1  0
 14 13  2  0
 15 19  1  0
 15 16  1  0
 16 17  1  0
 18 17  1  0
 19 20  1  6
 19 18  1  0
 20 22  2  0
 20 21  1  0
M  END
$$$$
