SIP.pdb
     RDKit          3D

 22 22  0  0  1  0  0  0  0  0999 V2000
    7.8290  -17.6688   21.6777 O   0  0  0  0  0  0  0  0  0  0  0  0
    6.8057  -16.7547   21.4461 C   0  0  0  0  0  0  0  0  0  0  0  0
    7.4198  -15.3855   21.4402 C   0  0  2  0  0  0  0  0  0  0  0  0
    8.3064  -15.2802   20.2869 N   0  0  0  0  0  0  0  0  0  0  0  0
    8.1461  -15.0289   22.6708 C   0  0  0  0  0  0  0  0  0  0  0  0
    9.3905  -15.1755   22.7038 O   0  0  0  0  0  0  0  0  0  0  0  0
    5.8951  -11.6837   26.5006 C   0  0  0  0  0  0  0  0  0  0  0  0
    6.8641  -12.2767   25.4714 C   0  0  0  0  0  0  0  0  0  0  0  0
    7.3920  -13.5301   26.0728 C   0  0  2  0  0  0  0  0  0  0  0  0
    8.3158  -13.1861   27.1990 C   0  0  0  0  0  0  0  0  0  0  0  0
    8.1557  -14.4177   25.1085 C   0  0  2  0  0  0  0  0  0  0  0  0
    7.5254  -14.5202   23.8403 N   0  0  0  0  0  0  0  0  0  0  0  0
    8.6238  -15.6416   25.7537 C   0  0  0  0  0  0  0  0  0  0  0  0
    7.7120  -16.5289   25.9361 O   0  0  0  0  0  0  0  0  0  0  0  0
    9.9139  -15.9472   26.1816 N   0  0  0  0  0  0  0  0  0  0  0  0
   10.9931  -14.9504   26.2850 C   0  0  0  0  0  0  0  0  0  0  0  0
   12.2727  -15.7203   26.3323 C   0  0  0  0  0  0  0  0  0  0  0  0
   11.8786  -17.1421   25.9449 C   0  0  0  0  0  0  0  0  0  0  0  0
   10.4948  -17.1840   26.6193 C   0  0  1  0  0  0  0  0  0  0  0  0
   10.6513  -17.2290   28.0824 C   0  0  0  0  0  0  0  0  0  0  0  0
   11.0141  -18.3570   28.7787 O   0  0  0  0  0  0  0  0  0  0  0  0
   10.4423  -16.1766   28.7403 O   0  0  0  0  0  0  0  0  0  0  0  0
  2  3  1  0
  2  1  1  0
  3  4  1  6
  5  3  1  0
  6  5  2  0
  8  9  1  0
  8  7  1  0
  9 11  1  0
  9 10  1  1
 11 13  1  0
 11 12  1  6
 12  5  1  0
 13 15  1  0
 14 13  2  0
 15 19  1  0
 15 16  1  0
 16 17  1  0
 18 17  1  0
 19 20  1  1
 19 18  1  0
 20 22  2  0
 20 21  1  0
M  END
$$$$
