SIP.pdb
     RDKit          3D

 22 22  0  0  1  0  0  0  0  0999 V2000
    7.7818  -20.4238   26.4104 O   0  0  0  0  0  0  0  0  0  0  0  0
    7.7566  -19.0630   26.1209 C   0  0  0  0  0  0  0  0  0  0  0  0
    6.3182  -18.6632   25.9682 C   0  0  2  0  0  0  0  0  0  0  0  0
    5.5977  -19.7595   25.3306 N   0  0  0  0  0  0  0  0  0  0  0  0
    6.1005  -17.4128   25.2212 C   0  0  0  0  0  0  0  0  0  0  0  0
    5.7131  -17.4779   24.0308 O   0  0  0  0  0  0  0  0  0  0  0  0
    6.3655  -12.1450   27.4842 C   0  0  0  0  0  0  0  0  0  0  0  0
    5.9499  -13.2327   26.4872 C   0  0  0  0  0  0  0  0  0  0  0  0
    7.2101  -13.8612   26.0097 C   0  0  2  0  0  0  0  0  0  0  0  0
    8.0004  -12.8544   25.2338 C   0  0  0  0  0  0  0  0  0  0  0  0
    7.0109  -15.0726   25.1187 C   0  0  2  0  0  0  0  0  0  0  0  0
    6.2995  -16.1179   25.7647 N   0  0  0  0  0  0  0  0  0  0  0  0
    8.2268  -15.4097   24.3829 C   0  0  0  0  0  0  0  0  0  0  0  0
    9.0492  -16.1573   25.0286 O   0  0  0  0  0  0  0  0  0  0  0  0
    8.5853  -15.0225   23.0936 N   0  0  0  0  0  0  0  0  0  0  0  0
    8.1530  -13.7577   22.4753 C   0  0  0  0  0  0  0  0  0  0  0  0
    8.3524  -13.9200   21.0036 C   0  0  0  0  0  0  0  0  0  0  0  0
    8.6154  -15.4107   20.8150 C   0  0  0  0  0  0  0  0  0  0  0  0
    9.4088  -15.6651   22.1101 C   0  0  1  0  0  0  0  0  0  0  0  0
   10.7382  -15.0398   22.0145 C   0  0  0  0  0  0  0  0  0  0  0  0
   11.1635  -14.0181   22.8293 O   0  0  0  0  0  0  0  0  0  0  0  0
   11.5369  -15.4606   21.1376 O   0  0  0  0  0  0  0  0  0  0  0  0
  2  3  1  0
  2  1  1  0
  3  4  1  6
  5  3  1  0
  6  5  2  0
  8  9  1  0
  8  7  1  0
  9 11  1  0
  9 10  1  6
 11 13  1  0
 11 12  1  1
 12  5  1  0
 13 15  1  0
 14 13  2  0
 15 19  1  0
 15 16  1  0
 16 17  1  0
 18 17  1  0
 19 20  1  6
 19 18  1  0
 20 22  2  0
 20 21  1  0
M  END
$$$$
