SIP.pdb
     RDKit          3D

 22 22  0  0  1  0  0  0  0  0999 V2000
    8.0823  -19.4010   25.7693 O   0  0  0  0  0  0  0  0  0  0  0  0
    7.0372  -19.2251   26.6711 C   0  0  0  0  0  0  0  0  0  0  0  0
    5.8726  -18.6690   25.9054 C   0  0  2  0  0  0  0  0  0  0  0  0
    5.3812  -19.6987   24.9967 N   0  0  0  0  0  0  0  0  0  0  0  0
    6.1576  -17.4310   25.1602 C   0  0  0  0  0  0  0  0  0  0  0  0
    6.2222  -17.4782   23.9093 O   0  0  0  0  0  0  0  0  0  0  0  0
    6.1787  -12.1489   27.4226 C   0  0  0  0  0  0  0  0  0  0  0  0
    5.8832  -13.2853   26.4372 C   0  0  0  0  0  0  0  0  0  0  0  0
    7.1977  -13.8907   26.0958 C   0  0  2  0  0  0  0  0  0  0  0  0
    8.0454  -12.8707   25.4020 C   0  0  0  0  0  0  0  0  0  0  0  0
    7.1150  -15.1076   25.1940 C   0  0  2  0  0  0  0  0  0  0  0  0
    6.3651  -16.1671   25.7695 N   0  0  0  0  0  0  0  0  0  0  0  0
    8.4055  -15.4194   24.5851 C   0  0  0  0  0  0  0  0  0  0  0  0
    9.1859  -16.1244   25.3240 O   0  0  0  0  0  0  0  0  0  0  0  0
    8.8727  -15.0486   23.3260 N   0  0  0  0  0  0  0  0  0  0  0  0
    8.5055  -13.7861   22.6626 C   0  0  0  0  0  0  0  0  0  0  0  0
    8.8237  -13.9651   21.2138 C   0  0  0  0  0  0  0  0  0  0  0  0
    9.0863  -15.4600   21.0614 C   0  0  0  0  0  0  0  0  0  0  0  0
    9.7679  -15.7087   22.4197 C   0  0  1  0  0  0  0  0  0  0  0  0
   11.1068  -15.0967   22.4282 C   0  0  0  0  0  0  0  0  0  0  0  0
   11.4634  -14.0476   23.2411 O   0  0  0  0  0  0  0  0  0  0  0  0
   11.9808  -15.5562   21.6478 O   0  0  0  0  0  0  0  0  0  0  0  0
  2  3  1  0
  2  1  1  0
  3  4  1  6
  5  3  1  0
  6  5  2  0
  8  9  1  0
  8  7  1  0
  9 11  1  0
  9 10  1  6
 11 13  1  0
 11 12  1  1
 12  5  1  0
 13 15  1  0
 14 13  2  0
 15 19  1  0
 15 16  1  0
 16 17  1  0
 18 17  1  0
 19 20  1  6
 19 18  1  0
 20 22  2  0
 20 21  1  0
M  END
$$$$
