VCP.pdb
     RDKit          3D

 21 21  0  0  1  0  0  0  0  0999 V2000
    8.5522  -13.2394   18.2129 C   0  0  0  0  0  0  0  0  0  0  0  0
    7.7458  -13.6186   19.4331 C   0  0  2  0  0  0  0  0  0  0  0  0
    7.8388  -12.5259   20.4435 C   0  0  0  0  0  0  0  0  0  0  0  0
    8.2025  -14.9649   19.9855 C   0  0  2  0  0  0  0  0  0  0  0  0
    7.8916  -15.9569   18.9948 N   0  0  0  0  0  0  0  0  0  0  0  0
    7.4520  -15.1683   21.2519 C   0  0  0  0  0  0  0  0  0  0  0  0
    6.2717  -15.5777   21.1490 O   0  0  0  0  0  0  0  0  0  0  0  0
    7.9763  -14.9340   22.5256 N   0  0  0  0  0  0  0  0  0  0  0  0
    7.3761  -15.3439   23.7812 C   0  0  1  0  0  0  0  0  0  0  0  0
    7.1383  -16.8321   23.8254 C   0  0  0  0  0  0  0  0  0  0  0  0
    6.6617  -17.2647   25.5441 S   0  0  0  0  0  0  0  0  0  0  0  0
    8.2501  -14.8686   24.8794 C   0  0  0  0  0  0  0  0  0  0  0  0
    9.4504  -15.2423   24.8890 O   0  0  0  0  0  0  0  0  0  0  0  0
    7.8172  -14.0142   25.9265 N   0  0  0  0  0  0  0  0  0  0  0  0
    6.4815  -13.5273   26.1984 C   0  0  0  0  0  0  0  0  0  0  0  0
    6.6972  -12.1860   26.8632 C   0  0  0  0  0  0  0  0  0  0  0  0
    8.0789  -12.2024   27.4401 C   0  0  0  0  0  0  0  0  0  0  0  0
    8.6814  -13.4569   26.9411 C   0  0  1  0  0  0  0  0  0  0  0  0
    8.8885  -14.4057   28.0679 C   0  0  0  0  0  0  0  0  0  0  0  0
    8.1578  -15.4205   28.1496 O   0  0  0  0  0  0  0  0  0  0  0  0
    9.8635  -14.2004   29.0271 O   0  0  0  0  0  0  0  0  0  0  0  0
  2  1  1  6
  3  2  1  0
  4  2  1  0
  4  5  1  6
  6  4  1  0
  7  6  2  0
  8  6  1  0
  9 12  1  0
  9  8  1  0
 10 11  1  0
  9 10  1  6
 12 14  1  0
 13 12  2  0
 14 18  1  0
 14 15  1  0
 15 16  1  0
 17 16  1  0
 18 17  1  0
 19 21  1  0
 18 19  1  1
 20 19  2  0
M  END
$$$$
