VCP.pdb
     RDKit          3D

 21 21  0  0  1  0  0  0  0  0999 V2000
    6.9525  -19.8130   21.3567 C   0  0  0  0  0  0  0  0  0  0  0  0
    7.0159  -20.0293   22.8507 C   0  0  2  0  0  0  0  0  0  0  0  0
    6.9509  -21.4907   23.1396 C   0  0  0  0  0  0  0  0  0  0  0  0
    5.9152  -19.2450   23.5574 C   0  0  2  0  0  0  0  0  0  0  0  0
    4.6598  -19.7416   23.0677 N   0  0  0  0  0  0  0  0  0  0  0  0
    6.1379  -17.8169   23.2120 C   0  0  0  0  0  0  0  0  0  0  0  0
    5.4878  -17.3631   22.2411 O   0  0  0  0  0  0  0  0  0  0  0  0
    7.0131  -16.9678   23.8941 N   0  0  0  0  0  0  0  0  0  0  0  0
    7.2598  -15.5725   23.5829 C   0  0  1  0  0  0  0  0  0  0  0  0
    7.7817  -14.8185   24.7796 C   0  0  0  0  0  0  0  0  0  0  0  0
    6.3364  -14.3373   25.8030 S   0  0  0  0  0  0  0  0  0  0  0  0
    8.1822  -15.5214   22.4242 C   0  0  0  0  0  0  0  0  0  0  0  0
    8.8208  -16.5623   22.1255 O   0  0  0  0  0  0  0  0  0  0  0  0
    8.3923  -14.3672   21.6258 N   0  0  0  0  0  0  0  0  0  0  0  0
    7.9512  -13.0103   21.8695 C   0  0  0  0  0  0  0  0  0  0  0  0
    7.7742  -12.4177   20.4892 C   0  0  0  0  0  0  0  0  0  0  0  0
    8.6230  -13.2247   19.5562 C   0  0  0  0  0  0  0  0  0  0  0  0
    9.1118  -14.3558   20.3732 C   0  0  1  0  0  0  0  0  0  0  0  0
   10.5793  -14.2350   20.5837 C   0  0  0  0  0  0  0  0  0  0  0  0
   11.0052  -13.8968   21.7127 O   0  0  0  0  0  0  0  0  0  0  0  0
   11.4867  -14.4852   19.5703 O   0  0  0  0  0  0  0  0  0  0  0  0
  2  1  1  6
  3  2  1  0
  4  2  1  0
  4  5  1  6
  6  4  1  0
  7  6  2  0
  8  6  1  0
  9 12  1  0
  9  8  1  0
 10 11  1  0
  9 10  1  1
 12 14  1  0
 13 12  2  0
 14 18  1  0
 14 15  1  0
 15 16  1  0
 17 16  1  0
 18 17  1  0
 19 21  1  0
 18 19  1  1
 20 19  2  0
M  END
$$$$
