VCP.pdb
     RDKit          3D

 21 21  0  0  1  0  0  0  0  0999 V2000
    6.9052  -22.3842   23.8010 C   0  0  0  0  0  0  0  0  0  0  0  0
    6.9230  -20.8922   23.5628 C   0  0  2  0  0  0  0  0  0  0  0  0
    8.2625  -20.3509   23.9317 C   0  0  0  0  0  0  0  0  0  0  0  0
    5.7888  -20.2104   24.3210 C   0  0  2  0  0  0  0  0  0  0  0  0
    4.5568  -20.7391   23.8061 N   0  0  0  0  0  0  0  0  0  0  0  0
    5.9365  -18.7542   24.0644 C   0  0  0  0  0  0  0  0  0  0  0  0
    5.6851  -18.3577   22.9020 O   0  0  0  0  0  0  0  0  0  0  0  0
    6.3316  -17.8201   25.0253 N   0  0  0  0  0  0  0  0  0  0  0  0
    6.5876  -16.4120   24.7880 C   0  0  1  0  0  0  0  0  0  0  0  0
    6.5645  -15.6178   26.0693 C   0  0  0  0  0  0  0  0  0  0  0  0
    7.1082  -13.9107   25.6713 S   0  0  0  0  0  0  0  0  0  0  0  0
    7.8765  -16.2998   24.0654 C   0  0  0  0  0  0  0  0  0  0  0  0
    8.7886  -17.1188   24.3445 O   0  0  0  0  0  0  0  0  0  0  0  0
    8.1490  -15.3225   23.0732 N   0  0  0  0  0  0  0  0  0  0  0  0
    7.3642  -14.1608   22.7130 C   0  0  0  0  0  0  0  0  0  0  0  0
    7.6635  -13.9437   21.2464 C   0  0  0  0  0  0  0  0  0  0  0  0
    8.9794  -14.6017   20.9678 C   0  0  0  0  0  0  0  0  0  0  0  0
    9.3091  -15.3283   22.2124 C   0  0  1  0  0  0  0  0  0  0  0  0
   10.4856  -14.7010   22.8718 C   0  0  0  0  0  0  0  0  0  0  0  0
   10.3420  -14.1793   24.0021 O   0  0  0  0  0  0  0  0  0  0  0  0
   11.7326  -14.6770   22.2740 O   0  0  0  0  0  0  0  0  0  0  0  0
  2  1  1  1
  3  2  1  0
  4  2  1  0
  4  5  1  6
  6  4  1  0
  7  6  2  0
  8  6  1  0
  9 12  1  0
  9  8  1  0
 10 11  1  0
  9 10  1  1
 12 14  1  0
 13 12  2  0
 14 18  1  0
 14 15  1  0
 15 16  1  0
 17 16  1  0
 18 17  1  0
 19 21  1  0
 18 19  1  1
 20 19  2  0
M  END
$$$$
