VCP.pdb
     RDKit          3D

 21 21  0  0  1  0  0  0  0  0999 V2000
    8.4663  -13.0871   18.6057 C   0  0  0  0  0  0  0  0  0  0  0  0
    7.7819  -13.4571   19.9010 C   0  0  2  0  0  0  0  0  0  0  0  0
    8.2363  -12.5328   20.9793 C   0  0  0  0  0  0  0  0  0  0  0  0
    8.0310  -14.9220   20.2445 C   0  0  2  0  0  0  0  0  0  0  0  0
    7.3772  -15.7104   19.2378 N   0  0  0  0  0  0  0  0  0  0  0  0
    7.4551  -15.1332   21.5980 C   0  0  0  0  0  0  0  0  0  0  0  0
    6.2046  -15.1331   21.6856 O   0  0  0  0  0  0  0  0  0  0  0  0
    8.2126  -15.3280   22.7558 N   0  0  0  0  0  0  0  0  0  0  0  0
    7.6887  -15.6351   24.0734 C   0  0  1  0  0  0  0  0  0  0  0  0
    7.1199  -17.0300   24.1355 C   0  0  0  0  0  0  0  0  0  0  0  0
    6.7125  -17.3830   25.8898 S   0  0  0  0  0  0  0  0  0  0  0  0
    8.7743  -15.4126   25.0573 C   0  0  0  0  0  0  0  0  0  0  0  0
    9.8933  -15.9424   24.8389 O   0  0  0  0  0  0  0  0  0  0  0  0
    8.6314  -14.6359   26.2363 N   0  0  0  0  0  0  0  0  0  0  0  0
    7.4305  -14.0419   26.7841 C   0  0  0  0  0  0  0  0  0  0  0  0
    7.9186  -12.8115   27.5160 C   0  0  0  0  0  0  0  0  0  0  0  0
    9.3643  -13.0378   27.8334 C   0  0  0  0  0  0  0  0  0  0  0  0
    9.7150  -14.2877   27.1258 C   0  0  1  0  0  0  0  0  0  0  0  0
    9.9881  -15.3699   28.1090 C   0  0  0  0  0  0  0  0  0  0  0  0
    9.2133  -16.3536   28.1604 O   0  0  0  0  0  0  0  0  0  0  0  0
   11.0716  -15.3222   28.9673 O   0  0  0  0  0  0  0  0  0  0  0  0
  2  1  1  6
  3  2  1  0
  4  2  1  0
  4  5  1  6
  6  4  1  0
  7  6  2  0
  8  6  1  0
  9 12  1  0
  9  8  1  0
 10 11  1  0
  9 10  1  6
 12 14  1  0
 13 12  2  0
 14 18  1  0
 14 15  1  0
 15 16  1  0
 17 16  1  0
 18 17  1  0
 19 21  1  0
 18 19  1  1
 20 19  2  0
M  END
$$$$
