VCP.pdb
     RDKit          3D

 21 21  0  0  1  0  0  0  0  0999 V2000
    5.9275  -21.8412   21.5928 C   0  0  0  0  0  0  0  0  0  0  0  0
    6.1066  -20.3412   21.6208 C   0  0  2  0  0  0  0  0  0  0  0  0
    7.5612  -20.0181   21.5628 C   0  0  0  0  0  0  0  0  0  0  0  0
    5.4230  -19.7380   22.8434 C   0  0  2  0  0  0  0  0  0  0  0  0
    4.0191  -20.0159   22.7241 N   0  0  0  0  0  0  0  0  0  0  0  0
    5.7216  -18.2827   22.8084 C   0  0  0  0  0  0  0  0  0  0  0  0
    5.1573  -17.6122   21.9121 O   0  0  0  0  0  0  0  0  0  0  0  0
    6.5784  -17.6318   23.6997 N   0  0  0  0  0  0  0  0  0  0  0  0
    6.9364  -16.2264   23.6626 C   0  0  1  0  0  0  0  0  0  0  0  0
    7.3356  -15.7170   25.0243 C   0  0  0  0  0  0  0  0  0  0  0  0
    8.0040  -14.0218   24.8060 S   0  0  0  0  0  0  0  0  0  0  0  0
    8.0042  -16.0559   22.6493 C   0  0  0  0  0  0  0  0  0  0  0  0
    8.8452  -16.9799   22.5097 O   0  0  0  0  0  0  0  0  0  0  0  0
    8.1393  -14.9109   21.8220 N   0  0  0  0  0  0  0  0  0  0  0  0
    7.3622  -13.6899   21.8392 C   0  0  0  0  0  0  0  0  0  0  0  0
    7.3974  -13.2005   20.4085 C   0  0  0  0  0  0  0  0  0  0  0  0
    8.6042  -13.8130   19.7677 C   0  0  0  0  0  0  0  0  0  0  0  0
    9.1195  -14.7696   20.7703 C   0  0  1  0  0  0  0  0  0  0  0  0
   10.4278  -14.2982   21.2983 C   0  0  0  0  0  0  0  0  0  0  0  0
   11.4031  -14.2124   20.5163 O   0  0  0  0  0  0  0  0  0  0  0  0
   10.5986  -13.9520   22.6264 O   0  0  0  0  0  0  0  0  0  0  0  0
  2  1  1  1
  3  2  1  0
  4  2  1  0
  4  5  1  6
  6  4  1  0
  7  6  2  0
  8  6  1  0
  9 12  1  0
  9  8  1  0
 10 11  1  0
  9 10  1  1
 12 14  1  0
 13 12  2  0
 14 18  1  0
 14 15  1  0
 15 16  1  0
 17 16  1  0
 18 17  1  0
 19 21  1  0
 18 19  1  1
 20 19  2  0
M  END
$$$$
