VCP.pdb
     RDKit          3D

 21 21  0  0  1  0  0  0  0  0999 V2000
   10.7408  -16.8525   21.7632 C   0  0  0  0  0  0  0  0  0  0  0  0
    9.2608  -17.0220   21.5109 C   0  0  2  0  0  0  0  0  0  0  0  0
    9.0615  -17.9065   20.3270 C   0  0  0  0  0  0  0  0  0  0  0  0
    8.5817  -15.6662   21.3475 C   0  0  2  0  0  0  0  0  0  0  0  0
    9.2786  -14.9661   20.3051 N   0  0  0  0  0  0  0  0  0  0  0  0
    8.6927  -14.9867   22.6643 C   0  0  0  0  0  0  0  0  0  0  0  0
    9.7426  -14.3354   22.8766 O   0  0  0  0  0  0  0  0  0  0  0  0
    7.7133  -15.0312   23.6598 N   0  0  0  0  0  0  0  0  0  0  0  0
    7.7678  -14.3468   24.9379 C   0  0  1  0  0  0  0  0  0  0  0  0
    6.3955  -14.1806   25.5398 C   0  0  0  0  0  0  0  0  0  0  0  0
    6.6160  -13.5894   27.2632 S   0  0  0  0  0  0  0  0  0  0  0  0
    8.6939  -15.0987   25.8170 C   0  0  0  0  0  0  0  0  0  0  0  0
    8.9644  -16.2892   25.5171 O   0  0  0  0  0  0  0  0  0  0  0  0
    9.2986  -14.5586   26.9817 N   0  0  0  0  0  0  0  0  0  0  0  0
    8.9879  -13.3224   27.6678 C   0  0  0  0  0  0  0  0  0  0  0  0
   10.2985  -12.8982   28.2922 C   0  0  0  0  0  0  0  0  0  0  0  0
   11.1397  -14.1304   28.4200 C   0  0  0  0  0  0  0  0  0  0  0  0
   10.3811  -15.1809   27.7081 C   0  0  1  0  0  0  0  0  0  0  0  0
    9.8821  -16.1935   28.6767 C   0  0  0  0  0  0  0  0  0  0  0  0
    8.6458  -16.3367   28.8230 O   0  0  0  0  0  0  0  0  0  0  0  0
   10.7426  -16.9812   29.4197 O   0  0  0  0  0  0  0  0  0  0  0  0
  2  1  1  6
  3  2  1  0
  4  2  1  0
  4  5  1  6
  6  4  1  0
  7  6  2  0
  8  6  1  0
  9 12  1  0
  9  8  1  0
 10 11  1  0
  9 10  1  1
 12 14  1  0
 13 12  2  0
 14 18  1  0
 14 15  1  0
 15 16  1  0
 17 16  1  0
 18 17  1  0
 19 21  1  0
 18 19  1  1
 20 19  2  0
M  END
$$$$
