VCP.pdb
     RDKit          3D

 21 21  0  0  1  0  0  0  0  0999 V2000
   10.2197  -18.0300   20.3854 C   0  0  0  0  0  0  0  0  0  0  0  0
   10.1653  -17.0825   21.5612 C   0  0  2  0  0  0  0  0  0  0  0  0
    9.9793  -17.8658   22.8163 C   0  0  0  0  0  0  0  0  0  0  0  0
    9.0759  -16.0343   21.3604 C   0  0  2  0  0  0  0  0  0  0  0  0
    9.4178  -15.2881   20.1819 N   0  0  0  0  0  0  0  0  0  0  0  0
    9.0776  -15.1957   22.5872 C   0  0  0  0  0  0  0  0  0  0  0  0
   10.0815  -14.4681   22.7722 O   0  0  0  0  0  0  0  0  0  0  0  0
    8.0447  -15.1724   23.5279 N   0  0  0  0  0  0  0  0  0  0  0  0
    8.0608  -14.4593   24.7912 C   0  0  1  0  0  0  0  0  0  0  0  0
    6.6674  -14.1258   25.2605 C   0  0  0  0  0  0  0  0  0  0  0  0
    6.7970  -13.5141   26.9860 S   0  0  0  0  0  0  0  0  0  0  0  0
    8.8149  -15.2807   25.7672 C   0  0  0  0  0  0  0  0  0  0  0  0
    8.9325  -16.5122   25.5436 O   0  0  0  0  0  0  0  0  0  0  0  0
    9.4161  -14.7640   26.9442 N   0  0  0  0  0  0  0  0  0  0  0  0
    9.1644  -13.5009   27.6049 C   0  0  0  0  0  0  0  0  0  0  0  0
   10.4794  -13.1528   28.2662 C   0  0  0  0  0  0  0  0  0  0  0  0
   11.2349  -14.4344   28.4360 C   0  0  0  0  0  0  0  0  0  0  0  0
   10.4329  -15.4441   27.7127 C   0  0  1  0  0  0  0  0  0  0  0  0
    9.8393  -16.4088   28.6769 C   0  0  0  0  0  0  0  0  0  0  0  0
    8.5925  -16.4683   28.7870 O   0  0  0  0  0  0  0  0  0  0  0  0
   10.6233  -17.2417   29.4545 O   0  0  0  0  0  0  0  0  0  0  0  0
  2  1  1  6
  3  2  1  0
  4  2  1  0
  4  5  1  6
  6  4  1  0
  7  6  2  0
  8  6  1  0
  9 12  1  0
  9  8  1  0
 10 11  1  0
  9 10  1  1
 12 14  1  0
 13 12  2  0
 14 18  1  0
 14 15  1  0
 15 16  1  0
 17 16  1  0
 18 17  1  0
 19 21  1  0
 18 19  1  1
 20 19  2  0
M  END
$$$$
