VCP.pdb
     RDKit          3D

 21 21  0  0  1  0  0  0  0  0999 V2000
    6.6863  -20.2030   21.4466 C   0  0  0  0  0  0  0  0  0  0  0  0
    6.6928  -20.6533   22.8889 C   0  0  2  0  0  0  0  0  0  0  0  0
    6.5825  -22.1395   22.9410 C   0  0  0  0  0  0  0  0  0  0  0  0
    5.5876  -19.9581   23.6771 C   0  0  2  0  0  0  0  0  0  0  0  0
    4.3359  -20.3763   23.1108 N   0  0  0  0  0  0  0  0  0  0  0  0
    5.8247  -18.4992   23.5229 C   0  0  0  0  0  0  0  0  0  0  0  0
    5.3175  -17.9481   22.5177 O   0  0  0  0  0  0  0  0  0  0  0  0
    6.5660  -17.7219   24.4165 N   0  0  0  0  0  0  0  0  0  0  0  0
    6.9253  -16.3279   24.2359 C   0  0  1  0  0  0  0  0  0  0  0  0
    7.3751  -15.6965   25.5289 C   0  0  0  0  0  0  0  0  0  0  0  0
    7.9912  -14.0128   25.1367 S   0  0  0  0  0  0  0  0  0  0  0  0
    7.9556  -16.2581   23.1731 C   0  0  0  0  0  0  0  0  0  0  0  0
    8.7447  -17.2283   23.0444 O   0  0  0  0  0  0  0  0  0  0  0  0
    8.1097  -15.1610   22.2864 N   0  0  0  0  0  0  0  0  0  0  0  0
    7.4125  -13.8924   22.2925 C   0  0  0  0  0  0  0  0  0  0  0  0
    7.3888  -13.4683   20.8409 C   0  0  0  0  0  0  0  0  0  0  0  0
    8.5128  -14.1848   20.1588 C   0  0  0  0  0  0  0  0  0  0  0  0
    9.0292  -15.1288   21.1727 C   0  0  1  0  0  0  0  0  0  0  0  0
   10.3947  -14.7211   21.5992 C   0  0  0  0  0  0  0  0  0  0  0  0
   10.5684  -14.3130   22.7712 O   0  0  0  0  0  0  0  0  0  0  0  0
   11.4772  -14.7797   20.7405 O   0  0  0  0  0  0  0  0  0  0  0  0
  2  1  1  6
  3  2  1  0
  4  2  1  0
  4  5  1  6
  6  4  1  0
  7  6  2  0
  8  6  1  0
  9 12  1  0
  9  8  1  0
 10 11  1  0
  9 10  1  1
 12 14  1  0
 13 12  2  0
 14 18  1  0
 14 15  1  0
 15 16  1  0
 17 16  1  0
 18 17  1  0
 19 21  1  0
 18 19  1  1
 20 19  2  0
M  END
$$$$
