VCP.pdb
     RDKit          3D

 21 21  0  0  1  0  0  0  0  0999 V2000
    8.2834  -19.4046   22.6959 C   0  0  0  0  0  0  0  0  0  0  0  0
    8.2490  -19.2259   24.1959 C   0  0  2  0  0  0  0  0  0  0  0  0
    8.5559  -20.5283   24.8539 C   0  0  0  0  0  0  0  0  0  0  0  0
    6.9093  -18.6485   24.6407 C   0  0  2  0  0  0  0  0  0  0  0  0
    5.8919  -19.5776   24.2354 N   0  0  0  0  0  0  0  0  0  0  0  0
    6.7815  -17.3315   23.9644 C   0  0  0  0  0  0  0  0  0  0  0  0
    6.1115  -17.3035   22.9053 O   0  0  0  0  0  0  0  0  0  0  0  0
    7.3541  -16.1459   24.4322 N   0  0  0  0  0  0  0  0  0  0  0  0
    7.3372  -14.8659   23.7495 C   0  0  1  0  0  0  0  0  0  0  0  0
    7.6659  -13.7308   24.6856 C   0  0  0  0  0  0  0  0  0  0  0  0
    6.2715  -13.5678   25.8676 S   0  0  0  0  0  0  0  0  0  0  0  0
    8.2688  -14.9514   22.6002 C   0  0  0  0  0  0  0  0  0  0  0  0
    9.0860  -15.9062   22.5662 O   0  0  0  0  0  0  0  0  0  0  0  0
    8.2981  -14.0202   21.5298 N   0  0  0  0  0  0  0  0  0  0  0  0
    7.5733  -12.7741   21.3994 C   0  0  0  0  0  0  0  0  0  0  0  0
    7.3820  -12.6035   19.9087 C   0  0  0  0  0  0  0  0  0  0  0  0
    8.4439  -13.4178   19.2368 C   0  0  0  0  0  0  0  0  0  0  0  0
    9.0908  -14.1718   20.3318 C   0  0  1  0  0  0  0  0  0  0  0  0
   10.4834  -13.6879   20.5296 C   0  0  0  0  0  0  0  0  0  0  0  0
   10.7399  -12.9632   21.5193 O   0  0  0  0  0  0  0  0  0  0  0  0
   11.5027  -14.0147   19.6537 O   0  0  0  0  0  0  0  0  0  0  0  0
  2  1  1  6
  3  2  1  0
  4  2  1  0
  4  5  1  6
  6  4  1  0
  7  6  2  0
  8  6  1  0
  9 12  1  0
  9  8  1  0
 10 11  1  0
  9 10  1  1
 12 14  1  0
 13 12  2  0
 14 18  1  0
 14 15  1  0
 15 16  1  0
 17 16  1  0
 18 17  1  0
 19 21  1  0
 18 19  1  1
 20 19  2  0
M  END
$$$$
