VCP.pdb
     RDKit          3D

 21 21  0  0  1  0  0  0  0  0999 V2000
    8.7891  -13.1469   16.8860 C   0  0  0  0  0  0  0  0  0  0  0  0
    8.0539  -13.5787   18.1334 C   0  0  2  0  0  0  0  0  0  0  0  0
    8.3351  -12.6093   19.2310 C   0  0  0  0  0  0  0  0  0  0  0  0
    8.4228  -15.0099   18.5099 C   0  0  2  0  0  0  0  0  0  0  0  0
    8.0351  -15.8503   17.4118 N   0  0  0  0  0  0  0  0  0  0  0  0
    7.6728  -15.3163   19.7556 C   0  0  0  0  0  0  0  0  0  0  0  0
    6.4295  -15.4372   19.6505 O   0  0  0  0  0  0  0  0  0  0  0  0
    8.2623  -15.4742   21.0125 N   0  0  0  0  0  0  0  0  0  0  0  0
    7.5609  -15.7482   22.2526 C   0  0  1  0  0  0  0  0  0  0  0  0
    7.2504  -17.2157   22.4046 C   0  0  0  0  0  0  0  0  0  0  0  0
    8.8259  -18.1368   22.2110 S   0  0  0  0  0  0  0  0  0  0  0  0
    8.3813  -15.2159   23.3659 C   0  0  0  0  0  0  0  0  0  0  0  0
    9.6266  -15.1469   23.2075 O   0  0  0  0  0  0  0  0  0  0  0  0
    7.8492  -14.7765   24.6059 N   0  0  0  0  0  0  0  0  0  0  0  0
    6.4664  -14.7453   25.0327 C   0  0  0  0  0  0  0  0  0  0  0  0
    6.3975  -13.5872   26.0032 C   0  0  0  0  0  0  0  0  0  0  0  0
    7.7872  -13.3628   26.5136 C   0  0  0  0  0  0  0  0  0  0  0  0
    8.6375  -14.2570   25.6993 C   0  0  1  0  0  0  0  0  0  0  0  0
    9.1871  -15.3485   26.5473 C   0  0  0  0  0  0  0  0  0  0  0  0
    8.7285  -16.5075   26.4184 O   0  0  0  0  0  0  0  0  0  0  0  0
   10.1891  -15.1213   27.4733 O   0  0  0  0  0  0  0  0  0  0  0  0
  2  1  1  6
  3  2  1  0
  4  2  1  0
  4  5  1  6
  6  4  1  0
  7  6  2  0
  8  6  1  0
  9 12  1  0
  9  8  1  0
 10 11  1  0
  9 10  1  1
 12 14  1  0
 13 12  2  0
 14 18  1  0
 14 15  1  0
 15 16  1  0
 17 16  1  0
 18 17  1  0
 19 21  1  0
 18 19  1  1
 20 19  2  0
M  END
$$$$
