VCP.pdb
     RDKit          3D

 21 21  0  0  1  0  0  0  0  0999 V2000
    9.0357  -18.1447   22.6620 C   0  0  0  0  0  0  0  0  0  0  0  0
    9.7006  -17.2654   21.6286 C   0  0  2  0  0  0  0  0  0  0  0  0
   11.1273  -17.0540   22.0069 C   0  0  0  0  0  0  0  0  0  0  0  0
    8.9396  -15.9539   21.4649 C   0  0  2  0  0  0  0  0  0  0  0  0
    9.6158  -15.1954   20.4502 N   0  0  0  0  0  0  0  0  0  0  0  0
    8.9730  -15.2878   22.7928 C   0  0  0  0  0  0  0  0  0  0  0  0
   10.0834  -14.8512   23.1774 O   0  0  0  0  0  0  0  0  0  0  0  0
    7.8597  -15.1234   23.6209 N   0  0  0  0  0  0  0  0  0  0  0  0
    7.8452  -14.4412   24.9012 C   0  0  1  0  0  0  0  0  0  0  0  0
    6.4391  -14.2073   25.3921 C   0  0  0  0  0  0  0  0  0  0  0  0
    6.5520  -13.5698   27.1093 S   0  0  0  0  0  0  0  0  0  0  0  0
    8.6603  -15.2366   25.8494 C   0  0  0  0  0  0  0  0  0  0  0  0
    8.8261  -16.4598   25.6108 O   0  0  0  0  0  0  0  0  0  0  0  0
    9.2690  -14.7039   27.0153 N   0  0  0  0  0  0  0  0  0  0  0  0
    9.0583  -13.4111   27.6314 C   0  0  0  0  0  0  0  0  0  0  0  0
   10.3789  -13.0902   28.2953 C   0  0  0  0  0  0  0  0  0  0  0  0
   11.0843  -14.3926   28.5152 C   0  0  0  0  0  0  0  0  0  0  0  0
   10.2521  -15.3953   27.8167 C   0  0  1  0  0  0  0  0  0  0  0  0
    9.6136  -16.3049   28.8054 C   0  0  0  0  0  0  0  0  0  0  0  0
    8.3654  -16.3011   28.9168 O   0  0  0  0  0  0  0  0  0  0  0  0
   10.3571  -17.1542   29.6046 O   0  0  0  0  0  0  0  0  0  0  0  0
  2  1  1  1
  3  2  1  0
  4  2  1  0
  4  5  1  6
  6  4  1  0
  7  6  2  0
  8  6  1  0
  9 12  1  0
  9  8  1  0
 10 11  1  0
  9 10  1  1
 12 14  1  0
 13 12  2  0
 14 18  1  0
 14 15  1  0
 15 16  1  0
 17 16  1  0
 18 17  1  0
 19 21  1  0
 18 19  1  1
 20 19  2  0
M  END
$$$$
