VCP.pdb
     RDKit          3D

 21 21  0  0  1  0  0  0  0  0999 V2000
   10.1975  -17.6460   20.1272 C   0  0  0  0  0  0  0  0  0  0  0  0
   10.1080  -16.7405   21.3335 C   0  0  2  0  0  0  0  0  0  0  0  0
   10.1274  -17.5690   22.5732 C   0  0  0  0  0  0  0  0  0  0  0  0
    8.8752  -15.8467   21.2480 C   0  0  2  0  0  0  0  0  0  0  0  0
    9.0302  -15.0213   20.0830 N   0  0  0  0  0  0  0  0  0  0  0  0
    8.8481  -15.0578   22.5070 C   0  0  0  0  0  0  0  0  0  0  0  0
    9.7144  -14.1599   22.6291 O   0  0  0  0  0  0  0  0  0  0  0  0
    7.9307  -15.2555   23.5420 N   0  0  0  0  0  0  0  0  0  0  0  0
    7.9065  -14.5422   24.8051 C   0  0  1  0  0  0  0  0  0  0  0  0
    6.4977  -14.3290   25.2977 C   0  0  0  0  0  0  0  0  0  0  0  0
    6.6019  -13.7460   27.0348 S   0  0  0  0  0  0  0  0  0  0  0  0
    8.7445  -15.2948   25.7681 C   0  0  0  0  0  0  0  0  0  0  0  0
    8.9343  -16.5202   25.5613 O   0  0  0  0  0  0  0  0  0  0  0  0
    9.3499  -14.7183   26.9148 N   0  0  0  0  0  0  0  0  0  0  0  0
    9.1002  -13.4230   27.5107 C   0  0  0  0  0  0  0  0  0  0  0  0
   10.4175  -13.0411   28.1484 C   0  0  0  0  0  0  0  0  0  0  0  0
   11.1741  -14.3122   28.3809 C   0  0  0  0  0  0  0  0  0  0  0  0
   10.3698  -15.3578   27.7134 C   0  0  1  0  0  0  0  0  0  0  0  0
    9.7802  -16.2719   28.7280 C   0  0  0  0  0  0  0  0  0  0  0  0
    8.5348  -16.3087   28.8617 O   0  0  0  0  0  0  0  0  0  0  0  0
   10.5662  -17.0819   29.5273 O   0  0  0  0  0  0  0  0  0  0  0  0
  2  1  1  6
  3  2  1  0
  4  2  1  0
  4  5  1  6
  6  4  1  0
  7  6  2  0
  8  6  1  0
  9 12  1  0
  9  8  1  0
 10 11  1  0
  9 10  1  1
 12 14  1  0
 13 12  2  0
 14 18  1  0
 14 15  1  0
 15 16  1  0
 17 16  1  0
 18 17  1  0
 19 21  1  0
 18 19  1  1
 20 19  2  0
M  END
$$$$
