FHM.pdb
     RDKit          3D

 30 31  0  0  1  0  0  0  0  0999 V2000
   26.2482  -18.4009   -7.8988 N   0  0  0  0  0  0  0  0  0  0  0  0
   26.8372  -19.6486   -8.3738 C   0  0  1  0  0  0  0  0  0  0  0  0
   26.7477  -20.7437   -7.3988 C   0  0  0  0  0  0  0  0  0  0  0  0
   27.4289  -20.4425   -6.1259 C   0  0  0  0  0  0  0  0  0  0  0  0
   26.7764  -19.9121   -5.0340 C   0  0  0  0  0  0  0  0  0  0  0  0
   27.4009  -19.6099   -3.8434 C   0  0  0  0  0  0  0  0  0  0  0  0
   28.7578  -19.8437   -3.7110 C   0  0  0  0  0  0  0  0  0  0  0  0
   29.4445  -20.3727   -4.7763 C   0  0  0  0  0  0  0  0  0  0  0  0
   28.7945  -20.6665   -5.9610 C   0  0  0  0  0  0  0  0  0  0  0  0
   26.4246  -19.9885   -9.7240 C   0  0  0  0  0  0  0  0  0  0  0  0
   25.2099  -19.8508  -10.0981 O   0  0  0  0  0  0  0  0  0  0  0  0
   27.3269  -20.4803  -10.6928 N   0  0  0  0  0  0  0  0  0  0  0  0
   26.9641  -20.5648  -12.1077 C   0  0  1  0  0  0  0  0  0  0  0  0
   28.1399  -20.8300  -12.9796 C   0  0  0  0  0  0  0  0  0  0  0  0
   27.7488  -20.7063  -14.4152 C   0  0  0  0  0  0  0  0  0  0  0  0
   26.4676  -20.5077  -14.9347 C   0  0  0  0  0  0  0  0  0  0  0  0
   26.5404  -20.4519  -16.2762 N   0  0  0  0  0  0  0  0  0  0  0  0
   27.8248  -20.6079  -16.6382 C   0  0  0  0  0  0  0  0  0  0  0  0
   28.5497  -20.7614  -15.4945 N   0  0  0  0  0  0  0  0  0  0  0  0
   25.7530  -21.3315  -12.3849 C   0  0  0  0  0  0  0  0  0  0  0  0
   25.4664  -22.3356  -11.6926 O   0  0  0  0  0  0  0  0  0  0  0  0
   21.4927  -20.6756   -9.0889 C   0  0  0  0  0  0  0  0  0  0  0  0
   20.5295  -20.1889  -10.5366 S   0  0  0  0  0  0  0  0  0  0  0  0
   21.3260  -20.8556  -12.0077 C   0  0  0  0  0  0  0  0  0  0  0  0
   22.8032  -20.5684  -12.0823 C   0  0  0  0  0  0  0  0  0  0  0  0
   23.4271  -21.1282  -13.3433 C   0  0  2  0  0  0  0  0  0  0  0  0
   24.8398  -21.0017  -13.4288 N   0  0  0  0  0  0  0  0  0  0  0  0
   22.6813  -20.6481  -14.5038 C   0  0  0  0  0  0  0  0  0  0  0  0
   23.0427  -19.6029  -15.0910 O   0  0  0  0  0  0  0  0  0  0  0  0
   21.5701  -21.3184  -14.9856 O   0  0  0  0  0  0  0  0  0  0  0  0
  2  1  1  1
  2  3  1  0
  3  4  1  0
  4  5  2  0
  5  6  1  0
  7  6  2  0
  8  7  1  0
  9  4  1  0
  9  8  2  0
 10 11  2  0
 10  2  1  0
 12 10  1  0
 13 12  1  0
 14 15  1  0
 13 14  1  6
 15 19  1  0
 15 16  2  0
 16 17  1  0
 18 17  1  0
 19 18  2  0
 20 21  2  0
 20 13  1  0
 23 22  1  0
 24 23  1  0
 24 25  1  0
 26 25  1  1
 26 27  1  0
 27 20  1  0
 28 26  1  0
 29 28  2  0
 30 28  1  0
M  END
$$$$
