FHM.pdb
     RDKit          3D

 30 31  0  0  1  0  0  0  0  0999 V2000
   21.7165  -13.3887  -21.4734 N   0  0  0  0  0  0  0  0  0  0  0  0
   21.3869  -13.2414  -20.0595 C   0  0  1  0  0  0  0  0  0  0  0  0
   20.3043  -12.2804  -19.8104 C   0  0  0  0  0  0  0  0  0  0  0  0
   20.5771  -10.9434  -20.3700 C   0  0  0  0  0  0  0  0  0  0  0  0
   19.9802  -10.4767  -21.5211 C   0  0  0  0  0  0  0  0  0  0  0  0
   20.2361   -9.2371  -22.0658 C   0  0  0  0  0  0  0  0  0  0  0  0
   21.1378   -8.3947  -21.4406 C   0  0  0  0  0  0  0  0  0  0  0  0
   21.7535   -8.8224  -20.2899 C   0  0  0  0  0  0  0  0  0  0  0  0
   21.4799  -10.0717  -19.7639 C   0  0  0  0  0  0  0  0  0  0  0  0
   21.2507  -14.5159  -19.3769 C   0  0  0  0  0  0  0  0  0  0  0  0
   20.4814  -15.4301  -19.8316 O   0  0  0  0  0  0  0  0  0  0  0  0
   21.9522  -14.8204  -18.1895 N   0  0  0  0  0  0  0  0  0  0  0  0
   21.8648  -16.1393  -17.5622 C   0  0  1  0  0  0  0  0  0  0  0  0
   23.0642  -16.4574  -16.7417 C   0  0  0  0  0  0  0  0  0  0  0  0
   23.0118  -17.8801  -16.2918 C   0  0  0  0  0  0  0  0  0  0  0  0
   22.0018  -18.8136  -16.5352 C   0  0  0  0  0  0  0  0  0  0  0  0
   22.3338  -19.9819  -15.9580 N   0  0  0  0  0  0  0  0  0  0  0  0
   23.5232  -19.8324  -15.3513 C   0  0  0  0  0  0  0  0  0  0  0  0
   23.9245  -18.5474  -15.5631 N   0  0  0  0  0  0  0  0  0  0  0  0
   20.5648  -16.4545  -16.9774 C   0  0  0  0  0  0  0  0  0  0  0  0
   20.0288  -15.6678  -16.1629 O   0  0  0  0  0  0  0  0  0  0  0  0
   15.6928  -18.9512  -20.3909 C   0  0  0  0  0  0  0  0  0  0  0  0
   15.1012  -19.3768  -18.7388 S   0  0  0  0  0  0  0  0  0  0  0  0
   16.1789  -18.5984  -17.5241 C   0  0  0  0  0  0  0  0  0  0  0  0
   17.6304  -18.5723  -17.9272 C   0  0  0  0  0  0  0  0  0  0  0  0
   18.4969  -17.8986  -16.8842 C   0  0  2  0  0  0  0  0  0  0  0  0
   19.8364  -17.6414  -17.2827 N   0  0  0  0  0  0  0  0  0  0  0  0
   18.3426  -18.5926  -15.6084 C   0  0  0  0  0  0  0  0  0  0  0  0
   17.3249  -18.3929  -14.9067 O   0  0  0  0  0  0  0  0  0  0  0  0
   19.2974  -19.4781  -15.1389 O   0  0  0  0  0  0  0  0  0  0  0  0
  2  1  1  6
  2  3  1  0
  3  4  1  0
  4  5  2  0
  5  6  1  0
  7  6  2  0
  8  7  1  0
  9  4  1  0
  9  8  2  0
 10 11  2  0
 10  2  1  0
 12 10  1  0
 13 12  1  0
 14 15  1  0
 13 14  1  1
 15 19  1  0
 15 16  2  0
 16 17  1  0
 18 17  1  0
 19 18  2  0
 20 21  2  0
 20 13  1  0
 23 22  1  0
 24 23  1  0
 24 25  1  0
 26 25  1  6
 26 27  1  0
 27 20  1  0
 28 26  1  0
 29 28  2  0
 30 28  1  0
M  END
$$$$
