FHM.pdb
     RDKit          3D

 30 31  0  0  1  0  0  0  0  0999 V2000
   22.2446  -17.1565  -20.4128 N   0  0  0  0  0  0  0  0  0  0  0  0
   21.0190  -16.3927  -20.2033 C   0  0  1  0  0  0  0  0  0  0  0  0
   20.0513  -16.5311  -21.2997 C   0  0  0  0  0  0  0  0  0  0  0  0
   20.5763  -16.0663  -22.5971 C   0  0  0  0  0  0  0  0  0  0  0  0
   20.7176  -14.7326  -22.9141 C   0  0  0  0  0  0  0  0  0  0  0  0
   21.1910  -14.2816  -24.1270 C   0  0  0  0  0  0  0  0  0  0  0  0
   21.5526  -15.1989  -25.0973 C   0  0  0  0  0  0  0  0  0  0  0  0
   21.4277  -16.5382  -24.8201 C   0  0  0  0  0  0  0  0  0  0  0  0
   20.9490  -16.9651  -23.5949 C   0  0  0  0  0  0  0  0  0  0  0  0
   20.4700  -16.5629  -18.8697 C   0  0  0  0  0  0  0  0  0  0  0  0
   20.6063  -17.6639  -18.2345 O   0  0  0  0  0  0  0  0  0  0  0  0
   19.7663  -15.5368  -18.2013 N   0  0  0  0  0  0  0  0  0  0  0  0
   19.1737  -15.7463  -16.8801 C   0  0  1  0  0  0  0  0  0  0  0  0
   19.3138  -14.5547  -16.0005 C   0  0  0  0  0  0  0  0  0  0  0  0
   20.7586  -14.2381  -15.7968 C   0  0  0  0  0  0  0  0  0  0  0  0
   21.8619  -14.9569  -16.2625 C   0  0  0  0  0  0  0  0  0  0  0  0
   22.9887  -14.3408  -15.8640 N   0  0  0  0  0  0  0  0  0  0  0  0
   22.6486  -13.2498  -15.1576 C   0  0  0  0  0  0  0  0  0  0  0  0
   21.2872  -13.1995  -15.1250 N   0  0  0  0  0  0  0  0  0  0  0  0
   17.8721  -16.4073  -16.8903 C   0  0  0  0  0  0  0  0  0  0  0  0
   17.1628  -16.3943  -17.9230 O   0  0  0  0  0  0  0  0  0  0  0  0
   14.7807  -19.7382  -19.8489 C   0  0  0  0  0  0  0  0  0  0  0  0
   14.3721  -20.5942  -18.3123 S   0  0  0  0  0  0  0  0  0  0  0  0
   14.6128  -19.4553  -16.9383 C   0  0  0  0  0  0  0  0  0  0  0  0
   15.9922  -18.8515  -16.8835 C   0  0  0  0  0  0  0  0  0  0  0  0
   16.1243  -17.8391  -15.7654 C   0  0  2  0  0  0  0  0  0  0  0  0
   17.3338  -17.0933  -15.7624 N   0  0  0  0  0  0  0  0  0  0  0  0
   15.7734  -18.4733  -14.4974 C   0  0  0  0  0  0  0  0  0  0  0  0
   16.5557  -19.2985  -13.9730 O   0  0  0  0  0  0  0  0  0  0  0  0
   14.5865  -18.1902  -13.8435 O   0  0  0  0  0  0  0  0  0  0  0  0
  2  1  1  6
  2  3  1  0
  3  4  1  0
  4  5  2  0
  5  6  1  0
  7  6  2  0
  8  7  1  0
  9  4  1  0
  9  8  2  0
 10 11  2  0
 10  2  1  0
 12 10  1  0
 13 12  1  0
 14 15  1  0
 13 14  1  6
 15 19  1  0
 15 16  2  0
 16 17  1  0
 18 17  1  0
 19 18  2  0
 20 21  2  0
 20 13  1  0
 23 22  1  0
 24 23  1  0
 24 25  1  0
 26 25  1  6
 26 27  1  0
 27 20  1  0
 28 26  1  0
 29 28  2  0
 30 28  1  0
M  END
$$$$
