FHM.pdb
     RDKit          3D

 30 31  0  0  1  0  0  0  0  0999 V2000
   16.8675  -26.6185    8.8042 N   0  0  0  0  0  0  0  0  0  0  0  0
   18.2508  -26.7088    8.3484 C   0  0  1  0  0  0  0  0  0  0  0  0
   18.9449  -25.4142    8.3322 C   0  0  0  0  0  0  0  0  0  0  0  0
   18.3130  -24.4299    7.4340 C   0  0  0  0  0  0  0  0  0  0  0  0
   18.4695  -24.4558    6.0651 C   0  0  0  0  0  0  0  0  0  0  0  0
   17.8995  -23.5346    5.2134 C   0  0  0  0  0  0  0  0  0  0  0  0
   17.1213  -22.5178    5.7369 C   0  0  0  0  0  0  0  0  0  0  0  0
   16.9398  -22.4576    7.0970 C   0  0  0  0  0  0  0  0  0  0  0  0
   17.5236  -23.3942    7.9304 C   0  0  0  0  0  0  0  0  0  0  0  0
   18.9820  -27.7938    8.9783 C   0  0  0  0  0  0  0  0  0  0  0  0
   18.6938  -28.1862   10.1604 O   0  0  0  0  0  0  0  0  0  0  0  0
   20.0373  -28.4745    8.3319 N   0  0  0  0  0  0  0  0  0  0  0  0
   20.7358  -29.5910    8.9692 C   0  0  1  0  0  0  0  0  0  0  0  0
   20.5882  -30.8607    8.2082 C   0  0  0  0  0  0  0  0  0  0  0  0
   19.1564  -31.2836    8.1942 C   0  0  0  0  0  0  0  0  0  0  0  0
   18.3892  -31.7283    9.2732 C   0  0  0  0  0  0  0  0  0  0  0  0
   17.1472  -32.0119    8.8430 N   0  0  0  0  0  0  0  0  0  0  0  0
   17.0885  -31.7650    7.5237 C   0  0  0  0  0  0  0  0  0  0  0  0
   18.3193  -31.3216    7.1419 N   0  0  0  0  0  0  0  0  0  0  0  0
   22.0708  -29.2739    9.4678 C   0  0  0  0  0  0  0  0  0  0  0  0
   22.9011  -28.6931    8.7309 O   0  0  0  0  0  0  0  0  0  0  0  0
   26.9799  -27.6303   15.3869 C   0  0  0  0  0  0  0  0  0  0  0  0
   25.3148  -28.2204   15.0132 S   0  0  0  0  0  0  0  0  0  0  0  0
   25.1880  -28.4979   13.2384 C   0  0  0  0  0  0  0  0  0  0  0  0
   23.8247  -28.9573   12.7906 C   0  0  0  0  0  0  0  0  0  0  0  0
   23.7933  -29.2842   11.3125 C   0  0  2  0  0  0  0  0  0  0  0  0
   22.5096  -29.5917   10.7865 N   0  0  0  0  0  0  0  0  0  0  0  0
   24.8449  -30.2519   11.0108 C   0  0  0  0  0  0  0  0  0  0  0  0
   24.5920  -31.4781   11.0337 O   0  0  0  0  0  0  0  0  0  0  0  0
   26.1331  -29.8554   10.6955 O   0  0  0  0  0  0  0  0  0  0  0  0
  2  1  1  1
  2  3  1  0
  3  4  1  0
  4  5  2  0
  5  6  1  0
  7  6  2  0
  8  7  1  0
  9  4  1  0
  9  8  2  0
 10 11  2  0
 10  2  1  0
 12 10  1  0
 13 12  1  0
 14 15  1  0
 13 14  1  6
 15 19  1  0
 15 16  2  0
 16 17  1  0
 18 17  1  0
 19 18  2  0
 20 21  2  0
 20 13  1  0
 23 22  1  0
 24 23  1  0
 24 25  1  0
 26 25  1  1
 26 27  1  0
 27 20  1  0
 28 26  1  0
 29 28  2  0
 30 28  1  0
M  END
$$$$
