FHM.pdb
     RDKit          3D

 30 31  0  0  1  0  0  0  0  0999 V2000
   30.9852  -19.2576   10.5762 N   0  0  0  0  0  0  0  0  0  0  0  0
   31.2783  -20.3323    9.6335 C   0  0  1  0  0  0  0  0  0  0  0  0
   32.4412  -20.0572    8.7792 C   0  0  0  0  0  0  0  0  0  0  0  0
   32.0743  -19.7412    7.3862 C   0  0  0  0  0  0  0  0  0  0  0  0
   31.7412  -18.4708    6.9687 C   0  0  0  0  0  0  0  0  0  0  0  0
   31.3805  -18.1618    5.6752 C   0  0  0  0  0  0  0  0  0  0  0  0
   31.3442  -19.1649    4.7233 C   0  0  0  0  0  0  0  0  0  0  0  0
   31.6704  -20.4450    5.0991 C   0  0  0  0  0  0  0  0  0  0  0  0
   32.0283  -20.7292    6.4043 C   0  0  0  0  0  0  0  0  0  0  0  0
   31.2641  -21.6453   10.2535 C   0  0  0  0  0  0  0  0  0  0  0  0
   31.9904  -21.9022   11.2738 O   0  0  0  0  0  0  0  0  0  0  0  0
   30.4563  -22.7015    9.7774 N   0  0  0  0  0  0  0  0  0  0  0  0
   30.6442  -24.0786   10.2343 C   0  0  1  0  0  0  0  0  0  0  0  0
   29.6557  -25.0148    9.6347 C   0  0  0  0  0  0  0  0  0  0  0  0
   29.8243  -26.3781   10.2196 C   0  0  0  0  0  0  0  0  0  0  0  0
   30.7563  -26.7847   11.1771 C   0  0  0  0  0  0  0  0  0  0  0  0
   30.5793  -28.0922   11.4363 N   0  0  0  0  0  0  0  0  0  0  0  0
   29.5651  -28.5415   10.6781 C   0  0  0  0  0  0  0  0  0  0  0  0
   29.1145  -27.4866    9.9424 N   0  0  0  0  0  0  0  0  0  0  0  0
   32.0332  -24.5261   10.2759 C   0  0  0  0  0  0  0  0  0  0  0  0
   32.8187  -24.2423    9.3419 O   0  0  0  0  0  0  0  0  0  0  0  0
   36.5112  -21.8566   11.4373 C   0  0  0  0  0  0  0  0  0  0  0  0
   37.4596  -23.3763   11.6647 S   0  0  0  0  0  0  0  0  0  0  0  0
   36.3134  -24.7630   11.7426 C   0  0  0  0  0  0  0  0  0  0  0  0
   34.8809  -24.3839   11.4700 C   0  0  0  0  0  0  0  0  0  0  0  0
   33.9570  -25.5824   11.5223 C   0  0  2  0  0  0  0  0  0  0  0  0
   32.5769  -25.2923   11.3482 N   0  0  0  0  0  0  0  0  0  0  0  0
   34.2865  -26.3939   12.6911 C   0  0  0  0  0  0  0  0  0  0  0  0
   33.4269  -26.5877   13.5807 O   0  0  0  0  0  0  0  0  0  0  0  0
   35.5365  -26.9660   12.8535 O   0  0  0  0  0  0  0  0  0  0  0  0
  2  1  1  1
  2  3  1  0
  3  4  1  0
  4  5  2  0
  5  6  1  0
  7  6  2  0
  8  7  1  0
  9  4  1  0
  9  8  2  0
 10 11  2  0
 10  2  1  0
 12 10  1  0
 13 12  1  0
 14 15  1  0
 13 14  1  6
 15 19  1  0
 15 16  2  0
 16 17  1  0
 18 17  1  0
 19 18  2  0
 20 21  2  0
 20 13  1  0
 23 22  1  0
 24 23  1  0
 24 25  1  0
 26 25  1  1
 26 27  1  0
 27 20  1  0
 28 26  1  0
 29 28  2  0
 30 28  1  0
M  END
$$$$
