FHM.pdb
     RDKit          3D

 30 31  0  0  1  0  0  0  0  0999 V2000
   25.0555  -16.8242  -16.6585 N   0  0  0  0  0  0  0  0  0  0  0  0
   26.0209  -17.6012  -15.8881 C   0  0  1  0  0  0  0  0  0  0  0  0
   26.9075  -16.7731  -15.0598 C   0  0  0  0  0  0  0  0  0  0  0  0
   27.7197  -15.8277  -15.8481 C   0  0  0  0  0  0  0  0  0  0  0  0
   28.7069  -16.2336  -16.7198 C   0  0  0  0  0  0  0  0  0  0  0  0
   29.4854  -15.3631  -17.4513 C   0  0  0  0  0  0  0  0  0  0  0  0
   29.2837  -14.0008  -17.3221 C   0  0  0  0  0  0  0  0  0  0  0  0
   28.3083  -13.5553  -16.4639 C   0  0  0  0  0  0  0  0  0  0  0  0
   27.5409  -14.4498  -15.7403 C   0  0  0  0  0  0  0  0  0  0  0  0
   25.4179  -18.7329  -15.2066 C   0  0  0  0  0  0  0  0  0  0  0  0
   24.3928  -18.5835  -14.4575 O   0  0  0  0  0  0  0  0  0  0  0  0
   25.9167  -20.0484  -15.3311 N   0  0  0  0  0  0  0  0  0  0  0  0
   25.2963  -21.1746  -14.6331 C   0  0  1  0  0  0  0  0  0  0  0  0
   25.4074  -22.4461  -15.3975 C   0  0  0  0  0  0  0  0  0  0  0  0
   24.6324  -23.5227  -14.7123 C   0  0  0  0  0  0  0  0  0  0  0  0
   25.1334  -24.6686  -14.0905 C   0  0  0  0  0  0  0  0  0  0  0  0
   24.1085  -25.3840  -13.5946 N   0  0  0  0  0  0  0  0  0  0  0  0
   22.9647  -24.7378  -13.8759 C   0  0  0  0  0  0  0  0  0  0  0  0
   23.2989  -23.6055  -14.5566 N   0  0  0  0  0  0  0  0  0  0  0  0
   25.5796  -21.2399  -13.2025 C   0  0  0  0  0  0  0  0  0  0  0  0
   26.7621  -21.2969  -12.7926 O   0  0  0  0  0  0  0  0  0  0  0  0
   28.2452  -19.7634   -7.1571 C   0  0  0  0  0  0  0  0  0  0  0  0
   26.8506  -19.0193   -8.0300 S   0  0  0  0  0  0  0  0  0  0  0  0
   25.8562  -20.3354   -8.7524 C   0  0  0  0  0  0  0  0  0  0  0  0
   25.7147  -20.2388  -10.2494 C   0  0  0  0  0  0  0  0  0  0  0  0
   24.7995  -21.3104  -10.8032 C   0  0  2  0  0  0  0  0  0  0  0  0
   24.5632  -21.2423  -12.2027 N   0  0  0  0  0  0  0  0  0  0  0  0
   23.6052  -21.4027   -9.9675 C   0  0  0  0  0  0  0  0  0  0  0  0
   22.5351  -20.8731  -10.3448 O   0  0  0  0  0  0  0  0  0  0  0  0
   23.6140  -22.0658   -8.7524 O   0  0  0  0  0  0  0  0  0  0  0  0
  2  1  1  1
  2  3  1  0
  3  4  1  0
  4  5  2  0
  5  6  1  0
  7  6  2  0
  8  7  1  0
  9  4  1  0
  9  8  2  0
 10 11  2  0
 10  2  1  0
 12 10  1  0
 13 12  1  0
 14 15  1  0
 13 14  1  6
 15 19  1  0
 15 16  2  0
 16 17  1  0
 18 17  1  0
 19 18  2  0
 20 21  2  0
 20 13  1  0
 23 22  1  0
 24 23  1  0
 24 25  1  0
 26 25  1  1
 26 27  1  0
 27 20  1  0
 28 26  1  0
 29 28  2  0
 30 28  1  0
M  END
$$$$
