FHM.pdb
     RDKit          3D

 30 31  0  0  1  0  0  0  0  0999 V2000
   20.5174   -9.1829  -17.7000 N   0  0  0  0  0  0  0  0  0  0  0  0
   21.1653   -7.8912  -17.9030 C   0  0  1  0  0  0  0  0  0  0  0  0
   21.1523   -7.4462  -19.3029 C   0  0  0  0  0  0  0  0  0  0  0  0
   21.7456   -8.4294  -20.2282 C   0  0  0  0  0  0  0  0  0  0  0  0
   23.0684   -8.8113  -20.1687 C   0  0  0  0  0  0  0  0  0  0  0  0
   23.6422   -9.7160  -21.0354 C   0  0  0  0  0  0  0  0  0  0  0  0
   22.8680  -10.2879  -22.0289 C   0  0  0  0  0  0  0  0  0  0  0  0
   21.5441   -9.9344  -22.1213 C   0  0  0  0  0  0  0  0  0  0  0  0
   20.9924   -9.0232  -21.2394 C   0  0  0  0  0  0  0  0  0  0  0  0
   20.7486   -6.8933  -16.9338 C   0  0  0  0  0  0  0  0  0  0  0  0
   19.5230   -6.5452  -16.8290 O   0  0  0  0  0  0  0  0  0  0  0  0
   21.6573   -6.2591  -16.0581 N   0  0  0  0  0  0  0  0  0  0  0  0
   21.2129   -5.2759  -15.0699 C   0  0  1  0  0  0  0  0  0  0  0  0
   21.7032   -5.5873  -13.7003 C   0  0  0  0  0  0  0  0  0  0  0  0
   20.9863   -6.7807  -13.1608 C   0  0  0  0  0  0  0  0  0  0  0  0
   19.9971   -7.5376  -13.7928 C   0  0  0  0  0  0  0  0  0  0  0  0
   19.6075   -8.5274  -12.9702 N   0  0  0  0  0  0  0  0  0  0  0  0
   20.3121   -8.4337  -11.8302 C   0  0  0  0  0  0  0  0  0  0  0  0
   21.1484   -7.3655  -11.9604 N   0  0  0  0  0  0  0  0  0  0  0  0
   21.3095   -3.8851  -15.5031 C   0  0  0  0  0  0  0  0  0  0  0  0
   22.4062   -3.4151  -15.8854 O   0  0  0  0  0  0  0  0  0  0  0  0
   17.9888    2.4338  -18.7676 C   0  0  0  0  0  0  0  0  0  0  0  0
   17.5958    0.8818  -17.9323 S   0  0  0  0  0  0  0  0  0  0  0  0
   19.0982    0.2405  -17.1743 C   0  0  0  0  0  0  0  0  0  0  0  0
   18.9427   -1.1392  -16.5889 C   0  0  0  0  0  0  0  0  0  0  0  0
   20.2382   -1.6540  -15.9980 C   0  0  2  0  0  0  0  0  0  0  0  0
   20.1981   -2.9923  -15.5221 N   0  0  0  0  0  0  0  0  0  0  0  0
   20.7643   -0.6678  -15.0579 C   0  0  0  0  0  0  0  0  0  0  0  0
   21.6319    0.1535  -15.4330 O   0  0  0  0  0  0  0  0  0  0  0  0
   20.3311   -0.6077  -13.7445 O   0  0  0  0  0  0  0  0  0  0  0  0
  2  1  1  6
  2  3  1  0
  3  4  1  0
  4  5  2  0
  5  6  1  0
  7  6  2  0
  8  7  1  0
  9  4  1  0
  9  8  2  0
 10 11  2  0
 10  2  1  0
 12 10  1  0
 13 12  1  0
 14 15  1  0
 13 14  1  1
 15 19  1  0
 15 16  2  0
 16 17  1  0
 18 17  1  0
 19 18  2  0
 20 21  2  0
 20 13  1  0
 23 22  1  0
 24 23  1  0
 24 25  1  0
 26 25  1  1
 26 27  1  0
 27 20  1  0
 28 26  1  0
 29 28  2  0
 30 28  1  0
M  END
$$$$
