FHM.pdb
     RDKit          3D

 30 31  0  0  1  0  0  0  0  0999 V2000
   28.4772  -20.2258   -9.1886 N   0  0  0  0  0  0  0  0  0  0  0  0
   27.1241  -20.7435   -9.0146 C   0  0  1  0  0  0  0  0  0  0  0  0
   26.4399  -20.2012   -7.8332 C   0  0  0  0  0  0  0  0  0  0  0  0
   27.3217  -20.0834   -6.6570 C   0  0  0  0  0  0  0  0  0  0  0  0
   27.9250  -18.9005   -6.2881 C   0  0  0  0  0  0  0  0  0  0  0  0
   28.7640  -18.7770   -5.2020 C   0  0  0  0  0  0  0  0  0  0  0  0
   29.0309  -19.8876   -4.4216 C   0  0  0  0  0  0  0  0  0  0  0  0
   28.4481  -21.0856   -4.7554 C   0  0  0  0  0  0  0  0  0  0  0  0
   27.6102  -21.1833   -5.8512 C   0  0  0  0  0  0  0  0  0  0  0  0
   26.3491  -20.7193  -10.2425 C   0  0  0  0  0  0  0  0  0  0  0  0
   26.0067  -19.6140  -10.7860 O   0  0  0  0  0  0  0  0  0  0  0  0
   25.9363  -21.8971  -10.9035 N   0  0  0  0  0  0  0  0  0  0  0  0
   25.3404  -21.8599  -12.2392 C   0  0  1  0  0  0  0  0  0  0  0  0
   26.0730  -22.7156  -13.2109 C   0  0  0  0  0  0  0  0  0  0  0  0
   25.4994  -22.5409  -14.5782 C   0  0  0  0  0  0  0  0  0  0  0  0
   24.3649  -21.8105  -14.9389 C   0  0  0  0  0  0  0  0  0  0  0  0
   24.1851  -21.9045  -16.2682 N   0  0  0  0  0  0  0  0  0  0  0  0
   25.1651  -22.6706  -16.7757 C   0  0  0  0  0  0  0  0  0  0  0  0
   25.9586  -23.0510  -15.7351 N   0  0  0  0  0  0  0  0  0  0  0  0
   23.8827  -21.9377  -12.2621 C   0  0  0  0  0  0  0  0  0  0  0  0
   23.2810  -22.7674  -11.5416 O   0  0  0  0  0  0  0  0  0  0  0  0
   19.5514  -22.8982   -8.3108 C   0  0  0  0  0  0  0  0  0  0  0  0
   20.1980  -21.3792   -9.0424 S   0  0  0  0  0  0  0  0  0  0  0  0
   20.6714  -21.7180  -10.7465 C   0  0  0  0  0  0  0  0  0  0  0  0
   21.2810  -20.5360  -11.4547 C   0  0  0  0  0  0  0  0  0  0  0  0
   21.6797  -20.8704  -12.8766 C   0  0  2  0  0  0  0  0  0  0  0  0
   23.0671  -21.1012  -13.0791 N   0  0  0  0  0  0  0  0  0  0  0  0
   21.0621  -19.9110  -13.7884 C   0  0  0  0  0  0  0  0  0  0  0  0
   21.6432  -18.8331  -14.0500 O   0  0  0  0  0  0  0  0  0  0  0  0
   19.8362  -20.1545  -14.3835 O   0  0  0  0  0  0  0  0  0  0  0  0
  2  1  1  6
  2  3  1  0
  3  4  1  0
  4  5  2  0
  5  6  1  0
  7  6  2  0
  8  7  1  0
  9  4  1  0
  9  8  2  0
 10 11  2  0
 10  2  1  0
 12 10  1  0
 13 12  1  0
 14 15  1  0
 13 14  1  6
 15 19  1  0
 15 16  2  0
 16 17  1  0
 18 17  1  0
 19 18  2  0
 20 21  2  0
 20 13  1  0
 23 22  1  0
 24 23  1  0
 24 25  1  0
 26 25  1  1
 26 27  1  0
 27 20  1  0
 28 26  1  0
 29 28  2  0
 30 28  1  0
M  END
$$$$
