FHM.pdb
     RDKit          3D

 30 31  0  0  1  0  0  0  0  0999 V2000
   19.8351   -9.3884  -17.5323 N   0  0  0  0  0  0  0  0  0  0  0  0
   20.8834   -8.5376  -16.9787 C   0  0  1  0  0  0  0  0  0  0  0  0
   21.6171   -7.7776  -17.9994 C   0  0  0  0  0  0  0  0  0  0  0  0
   22.1330   -8.6238  -19.0915 C   0  0  0  0  0  0  0  0  0  0  0  0
   21.5161   -8.7204  -20.3201 C   0  0  0  0  0  0  0  0  0  0  0  0
   21.9759   -9.5184  -21.3451 C   0  0  0  0  0  0  0  0  0  0  0  0
   23.1192  -10.2737  -21.1559 C   0  0  0  0  0  0  0  0  0  0  0  0
   23.7643  -10.2045  -19.9454 C   0  0  0  0  0  0  0  0  0  0  0  0
   23.2819   -9.3963  -18.9322 C   0  0  0  0  0  0  0  0  0  0  0  0
   20.4351   -7.7628  -15.8352 C   0  0  0  0  0  0  0  0  0  0  0  0
   19.2248   -7.3619  -15.7422 O   0  0  0  0  0  0  0  0  0  0  0  0
   21.2945   -7.4139  -14.7701 N   0  0  0  0  0  0  0  0  0  0  0  0
   20.8057   -6.6981  -13.5914 C   0  0  1  0  0  0  0  0  0  0  0  0
   20.9695   -7.4868  -12.3407 C   0  0  0  0  0  0  0  0  0  0  0  0
   20.4763   -6.6989  -11.1723 C   0  0  0  0  0  0  0  0  0  0  0  0
   21.1195   -5.6410  -10.5260 C   0  0  0  0  0  0  0  0  0  0  0  0
   20.3428   -5.2024   -9.5198 N   0  0  0  0  0  0  0  0  0  0  0  0
   19.2214   -5.9419   -9.4962 C   0  0  0  0  0  0  0  0  0  0  0  0
   19.3161   -6.8493  -10.5085 N   0  0  0  0  0  0  0  0  0  0  0  0
   21.1775   -5.2875  -13.5333 C   0  0  0  0  0  0  0  0  0  0  0  0
   22.3394   -4.9257  -13.8312 O   0  0  0  0  0  0  0  0  0  0  0  0
   20.0276    0.1627  -18.1895 C   0  0  0  0  0  0  0  0  0  0  0  0
   19.9208   -1.5544  -17.6410 S   0  0  0  0  0  0  0  0  0  0  0  0
   20.0930   -1.5972  -15.8489 C   0  0  0  0  0  0  0  0  0  0  0  0
   20.1026   -2.9891  -15.2720 C   0  0  0  0  0  0  0  0  0  0  0  0
   20.1894   -2.9762  -13.7604 C   0  0  2  0  0  0  0  0  0  0  0  0
   20.2735   -4.2551  -13.1469 N   0  0  0  0  0  0  0  0  0  0  0  0
   19.1594   -2.0890  -13.2264 C   0  0  0  0  0  0  0  0  0  0  0  0
   18.0678   -2.5616  -12.8355 O   0  0  0  0  0  0  0  0  0  0  0  0
   19.3499   -0.7208  -13.1358 O   0  0  0  0  0  0  0  0  0  0  0  0
  2  1  1  6
  2  3  1  0
  3  4  1  0
  4  5  2  0
  5  6  1  0
  7  6  2  0
  8  7  1  0
  9  4  1  0
  9  8  2  0
 10 11  2  0
 10  2  1  0
 12 10  1  0
 13 12  1  0
 14 15  1  0
 13 14  1  1
 15 19  1  0
 15 16  2  0
 16 17  1  0
 18 17  1  0
 19 18  2  0
 20 21  2  0
 20 13  1  0
 23 22  1  0
 24 23  1  0
 24 25  1  0
 26 25  1  6
 26 27  1  0
 27 20  1  0
 28 26  1  0
 29 28  2  0
 30 28  1  0
M  END
$$$$
