FHM.pdb
     RDKit          3D

 30 31  0  0  1  0  0  0  0  0999 V2000
   28.5632  -20.8366   -8.7595 N   0  0  0  0  0  0  0  0  0  0  0  0
   27.1104  -20.7065   -8.7152 C   0  0  1  0  0  0  0  0  0  0  0  0
   26.6469  -19.6564   -7.7986 C   0  0  0  0  0  0  0  0  0  0  0  0
   27.4053  -19.6155   -6.5345 C   0  0  0  0  0  0  0  0  0  0  0  0
   27.1760  -20.4899   -5.4943 C   0  0  0  0  0  0  0  0  0  0  0  0
   27.8643  -20.4549   -4.3010 C   0  0  0  0  0  0  0  0  0  0  0  0
   28.8460  -19.4988   -4.1123 C   0  0  0  0  0  0  0  0  0  0  0  0
   29.1057  -18.6090   -5.1257 C   0  0  0  0  0  0  0  0  0  0  0  0
   28.4001  -18.6647   -6.3137 C   0  0  0  0  0  0  0  0  0  0  0  0
   26.5061  -20.6849  -10.0355 C   0  0  0  0  0  0  0  0  0  0  0  0
   26.7793  -19.7576  -10.8721 O   0  0  0  0  0  0  0  0  0  0  0  0
   25.5968  -21.6739  -10.4710 N   0  0  0  0  0  0  0  0  0  0  0  0
   25.1837  -21.7749  -11.8709 C   0  0  1  0  0  0  0  0  0  0  0  0
   25.6091  -23.0557  -12.4966 C   0  0  0  0  0  0  0  0  0  0  0  0
   25.2699  -23.0507  -13.9506 C   0  0  0  0  0  0  0  0  0  0  0  0
   24.5684  -22.0718  -14.6581 C   0  0  0  0  0  0  0  0  0  0  0  0
   24.4735  -22.4432  -15.9469 N   0  0  0  0  0  0  0  0  0  0  0  0
   25.0901  -23.6278  -16.0935 C   0  0  0  0  0  0  0  0  0  0  0  0
   25.5708  -23.9857  -14.8696 N   0  0  0  0  0  0  0  0  0  0  0  0
   23.8189  -21.3321  -12.1404 C   0  0  0  0  0  0  0  0  0  0  0  0
   22.9119  -21.5260  -11.2981 O   0  0  0  0  0  0  0  0  0  0  0  0
   19.9476  -16.0131  -12.2018 C   0  0  0  0  0  0  0  0  0  0  0  0
   20.1800  -16.5817  -13.8999 S   0  0  0  0  0  0  0  0  0  0  0  0
   20.4728  -18.3584  -13.8762 C   0  0  0  0  0  0  0  0  0  0  0  0
   21.9159  -18.7340  -13.6600 C   0  0  0  0  0  0  0  0  0  0  0  0
   22.1155  -20.2348  -13.6452 C   0  0  2  0  0  0  0  0  0  0  0  0
   23.4343  -20.6683  -13.3420 N   0  0  0  0  0  0  0  0  0  0  0  0
   21.5256  -20.8111  -14.8506 C   0  0  0  0  0  0  0  0  0  0  0  0
   22.1755  -20.8234  -15.9208 O   0  0  0  0  0  0  0  0  0  0  0  0
   20.2517  -21.3530  -14.8526 O   0  0  0  0  0  0  0  0  0  0  0  0
  2  1  1  6
  2  3  1  0
  3  4  1  0
  4  5  2  0
  5  6  1  0
  7  6  2  0
  8  7  1  0
  9  4  1  0
  9  8  2  0
 10 11  2  0
 10  2  1  0
 12 10  1  0
 13 12  1  0
 14 15  1  0
 13 14  1  1
 15 19  1  0
 15 16  2  0
 16 17  1  0
 18 17  1  0
 19 18  2  0
 20 21  2  0
 20 13  1  0
 23 22  1  0
 24 23  1  0
 24 25  1  0
 26 25  1  6
 26 27  1  0
 27 20  1  0
 28 26  1  0
 29 28  2  0
 30 28  1  0
M  END
$$$$
