FTA.pdb
     RDKit          3D

 24 24  0  0  1  0  0  0  0  0999 V2000
   25.0965  -22.4314  -13.7600 N   0  0  0  0  0  0  0  0  0  0  0  0
   24.1858  -21.3287  -13.7230 C   0  0  1  0  0  0  0  0  0  0  0  0
   24.9455  -20.1576  -13.1140 C   0  0  0  0  0  0  0  0  0  0  0  0
   25.1756  -20.3874  -11.6712 C   0  0  0  0  0  0  0  0  0  0  0  0
   24.0638  -20.2778  -10.8348 C   0  0  0  0  0  0  0  0  0  0  0  0
   24.2366  -20.4842   -9.4828 C   0  0  0  0  0  0  0  0  0  0  0  0
   25.4649  -20.7931   -8.9374 C   0  0  0  0  0  0  0  0  0  0  0  0
   26.5650  -20.9031   -9.7528 C   0  0  0  0  0  0  0  0  0  0  0  0
   26.3987  -20.6963  -11.1174 C   0  0  0  0  0  0  0  0  0  0  0  0
   23.7631  -20.9468  -15.0796 C   0  0  0  0  0  0  0  0  0  0  0  0
   24.3260  -21.5349  -16.0610 O   0  0  0  0  0  0  0  0  0  0  0  0
   22.4136  -22.2953  -16.8690 C   0  0  0  0  0  0  0  0  0  0  0  0
   21.5138  -21.1082  -16.9814 C   0  0  1  0  0  0  0  0  0  0  0  0
   20.4662  -21.2413  -16.0267 O   0  0  0  0  0  0  0  0  0  0  0  0
   22.2738  -19.8067  -16.6744 C   0  0  2  0  0  0  0  0  0  0  0  0
   22.7645  -19.9618  -15.2985 N   0  0  0  0  0  0  0  0  0  0  0  0
   21.3817  -18.6471  -16.7568 C   0  0  0  0  0  0  0  0  0  0  0  0
   20.5774  -18.3402  -15.8187 O   0  0  0  0  0  0  0  0  0  0  0  0
   20.7690  -15.7022  -19.0557 C   0  0  0  0  0  0  0  0  0  0  0  0
   20.4316  -16.6381  -17.9171 C   0  0  2  0  0  0  0  0  0  0  0  0
   21.3335  -17.7690  -17.8663 N   0  0  0  0  0  0  0  0  0  0  0  0
   19.0207  -17.0625  -17.9505 C   0  0  0  0  0  0  0  0  0  0  0  0
   18.7076  -18.1842  -18.4100 O   0  0  0  0  0  0  0  0  0  0  0  0
   17.9840  -16.2682  -17.4881 O   0  0  0  0  0  0  0  0  0  0  0  0
  2  1  1  6
  2 10  1  0
  3  2  1  0
  4  3  1  0
  5  4  2  0
  6  5  1  0
  7  6  2  0
  7  8  1  0
  8  9  2  0
  9  4  1  0
 10 11  2  0
 10 16  1  0
 13 14  1  0
 13 12  1  1
 15 13  1  0
 15 16  1  1
 17 21  1  0
 17 15  1  0
 18 17  2  0
 20 19  1  6
 20 22  1  0
 20 21  1  0
 22 24  1  0
 23 22  2  0
M  END
$$$$
