FTA.pdb
     RDKit          3D

 24 24  0  0  1  0  0  0  0  0999 V2000
   24.8442  -19.3981   -9.7392 N   0  0  0  0  0  0  0  0  0  0  0  0
   25.9329  -20.0436  -10.4060 C   0  0  1  0  0  0  0  0  0  0  0  0
   26.4469  -21.1194   -9.4583 C   0  0  0  0  0  0  0  0  0  0  0  0
   27.0565  -20.5021   -8.2606 C   0  0  0  0  0  0  0  0  0  0  0  0
   26.1912  -20.1757   -7.2154 C   0  0  0  0  0  0  0  0  0  0  0  0
   26.7203  -19.5979   -6.0812 C   0  0  0  0  0  0  0  0  0  0  0  0
   28.0677  -19.3353   -5.9501 C   0  0  0  0  0  0  0  0  0  0  0  0
   28.9272  -19.6531   -6.9736 C   0  0  0  0  0  0  0  0  0  0  0  0
   28.4011  -20.2361   -8.1207 C   0  0  0  0  0  0  0  0  0  0  0  0
   25.4808  -20.6989  -11.6434 C   0  0  0  0  0  0  0  0  0  0  0  0
   24.2253  -20.7479  -11.8608 O   0  0  0  0  0  0  0  0  0  0  0  0
   24.9888  -18.9304  -13.4998 C   0  0  0  0  0  0  0  0  0  0  0  0
   26.0667  -19.6167  -14.2735 C   0  0  1  0  0  0  0  0  0  0  0  0
   27.3244  -19.0905  -13.8637 O   0  0  0  0  0  0  0  0  0  0  0  0
   26.0710  -21.1293  -13.9945 C   0  0  2  0  0  0  0  0  0  0  0  0
   26.4009  -21.2577  -12.5688 N   0  0  0  0  0  0  0  0  0  0  0  0
   27.0866  -21.8085  -14.8034 C   0  0  0  0  0  0  0  0  0  0  0  0
   28.3327  -21.6896  -14.5701 O   0  0  0  0  0  0  0  0  0  0  0  0
   27.2266  -24.3823  -17.5774 C   0  0  0  0  0  0  0  0  0  0  0  0
   27.8123  -23.3436  -16.6478 C   0  0  2  0  0  0  0  0  0  0  0  0
   26.7844  -22.6518  -15.8998 N   0  0  0  0  0  0  0  0  0  0  0  0
   28.7002  -22.4053  -17.3572 C   0  0  0  0  0  0  0  0  0  0  0  0
   28.2708  -21.2930  -17.7389 O   0  0  0  0  0  0  0  0  0  0  0  0
   30.0270  -22.6894  -17.6369 O   0  0  0  0  0  0  0  0  0  0  0  0
  2  1  1  1
  2 10  1  0
  3  2  1  0
  4  3  1  0
  5  4  2  0
  6  5  1  0
  7  6  2  0
  7  8  1  0
  8  9  2  0
  9  4  1  0
 10 11  2  0
 10 16  1  0
 13 14  1  0
 13 12  1  1
 15 13  1  0
 15 16  1  1
 17 21  1  0
 17 15  1  0
 18 17  2  0
 20 19  1  6
 20 22  1  0
 20 21  1  0
 22 24  1  0
 23 22  2  0
M  END
$$$$
