FTA.pdb
     RDKit          3D

 24 24  0  0  1  0  0  0  0  0999 V2000
   24.4227  -12.6498  -19.0619 N   0  0  0  0  0  0  0  0  0  0  0  0
   24.4535  -11.9116  -17.8368 C   0  0  1  0  0  0  0  0  0  0  0  0
   25.9157  -11.8207  -17.4204 C   0  0  0  0  0  0  0  0  0  0  0  0
   26.4395  -13.1621  -17.0835 C   0  0  0  0  0  0  0  0  0  0  0  0
   27.3795  -13.7054  -17.9604 C   0  0  0  0  0  0  0  0  0  0  0  0
   27.8919  -14.9545  -17.6819 C   0  0  0  0  0  0  0  0  0  0  0  0
   27.5064  -15.6765  -16.5720 C   0  0  0  0  0  0  0  0  0  0  0  0
   26.5817  -15.1498  -15.7031 C   0  0  0  0  0  0  0  0  0  0  0  0
   26.0604  -13.8907  -15.9773 C   0  0  0  0  0  0  0  0  0  0  0  0
   23.9450  -10.5446  -18.0307 C   0  0  0  0  0  0  0  0  0  0  0  0
   24.3176   -9.9189  -19.0774 O   0  0  0  0  0  0  0  0  0  0  0  0
   20.6075   -9.7971  -18.6823 C   0  0  0  0  0  0  0  0  0  0  0  0
   20.9586   -8.9070  -17.5351 C   0  0  1  0  0  0  0  0  0  0  0  0
   20.5764   -9.5537  -16.3258 O   0  0  0  0  0  0  0  0  0  0  0  0
   22.4739   -8.6495  -17.4778 C   0  0  2  0  0  0  0  0  0  0  0  0
   23.0695   -9.9360  -17.0934 N   0  0  0  0  0  0  0  0  0  0  0  0
   22.7949   -7.6324  -16.4730 C   0  0  0  0  0  0  0  0  0  0  0  0
   23.2232   -7.9346  -15.3127 O   0  0  0  0  0  0  0  0  0  0  0  0
   23.0433   -3.8658  -16.2182 C   0  0  0  0  0  0  0  0  0  0  0  0
   22.9329   -5.2657  -15.6577 C   0  0  2  0  0  0  0  0  0  0  0  0
   22.6669   -6.2399  -16.6945 N   0  0  0  0  0  0  0  0  0  0  0  0
   21.9492   -5.3465  -14.5634 C   0  0  0  0  0  0  0  0  0  0  0  0
   20.8165   -5.8402  -14.7652 O   0  0  0  0  0  0  0  0  0  0  0  0
   22.2107   -4.8937  -13.2804 O   0  0  0  0  0  0  0  0  0  0  0  0
  2  1  1  6
  2 10  1  0
  3  2  1  0
  4  3  1  0
  5  4  2  0
  6  5  1  0
  7  6  2  0
  7  8  1  0
  8  9  2  0
  9  4  1  0
 10 11  2  0
 10 16  1  0
 13 14  1  0
 13 12  1  6
 15 13  1  0
 15 16  1  1
 17 21  1  0
 17 15  1  0
 18 17  2  0
 20 19  1  6
 20 22  1  0
 20 21  1  0
 22 24  1  0
 23 22  2  0
M  END
$$$$
