FTA.pdb
     RDKit          3D

 24 24  0  0  1  0  0  0  0  0999 V2000
   23.9828  -21.3682  -14.6073 N   0  0  0  0  0  0  0  0  0  0  0  0
   24.9106  -22.4203  -14.3261 C   0  0  1  0  0  0  0  0  0  0  0  0
   24.4210  -23.1040  -13.0563 C   0  0  0  0  0  0  0  0  0  0  0  0
   24.5381  -22.1886  -11.9006 C   0  0  0  0  0  0  0  0  0  0  0  0
   23.3787  -21.5128  -11.5174 C   0  0  0  0  0  0  0  0  0  0  0  0
   23.4462  -20.6496  -10.4447 C   0  0  0  0  0  0  0  0  0  0  0  0
   24.6154  -20.4361   -9.7453 C   0  0  0  0  0  0  0  0  0  0  0  0
   25.7617  -21.0968  -10.1152 C   0  0  0  0  0  0  0  0  0  0  0  0
   25.7015  -21.9690  -11.1960 C   0  0  0  0  0  0  0  0  0  0  0  0
   24.9237  -23.4166  -15.4088 C   0  0  0  0  0  0  0  0  0  0  0  0
   23.9583  -23.3963  -16.2415 O   0  0  0  0  0  0  0  0  0  0  0  0
   25.1089  -23.2160  -17.9480 C   0  0  0  0  0  0  0  0  0  0  0  0
   26.1641  -24.2729  -17.9113 C   0  0  1  0  0  0  0  0  0  0  0  0
   27.4306  -23.6437  -17.7480 O   0  0  0  0  0  0  0  0  0  0  0  0
   25.9508  -25.2268  -16.7237 C   0  0  2  0  0  0  0  0  0  0  0  0
   25.9693  -24.3688  -15.5315 N   0  0  0  0  0  0  0  0  0  0  0  0
   27.0313  -26.2135  -16.6436 C   0  0  0  0  0  0  0  0  0  0  0  0
   27.9619  -26.1336  -15.7784 O   0  0  0  0  0  0  0  0  0  0  0  0
   28.7335  -28.3157  -15.9223 C   0  0  0  0  0  0  0  0  0  0  0  0
   28.1448  -28.3571  -17.3143 C   0  0  2  0  0  0  0  0  0  0  0  0
   27.1387  -27.3338  -17.5026 N   0  0  0  0  0  0  0  0  0  0  0  0
   27.6362  -29.6966  -17.6594 C   0  0  0  0  0  0  0  0  0  0  0  0
   28.3872  -30.6960  -17.5916 O   0  0  0  0  0  0  0  0  0  0  0  0
   26.3323  -29.9249  -18.0683 O   0  0  0  0  0  0  0  0  0  0  0  0
  2  1  1  6
  2 10  1  0
  3  2  1  0
  4  3  1  0
  5  4  2  0
  6  5  1  0
  7  6  2  0
  7  8  1  0
  8  9  2  0
  9  4  1  0
 10 11  2  0
 10 16  1  0
 13 14  1  0
 13 12  1  1
 15 13  1  0
 15 16  1  1
 17 21  1  0
 17 15  1  0
 18 17  2  0
 20 19  1  1
 20 22  1  0
 20 21  1  0
 22 24  1  0
 23 22  2  0
M  END
$$$$
