FTA.pdb
     RDKit          3D

 24 24  0  0  1  0  0  0  0  0999 V2000
   19.5223   -9.1873  -13.8975 N   0  0  0  0  0  0  0  0  0  0  0  0
   19.1196   -8.0770  -14.7048 C   0  0  1  0  0  0  0  0  0  0  0  0
   17.6026   -8.1492  -14.8181 C   0  0  0  0  0  0  0  0  0  0  0  0
   17.2025   -9.3080  -15.6454 C   0  0  0  0  0  0  0  0  0  0  0  0
   17.3873   -9.1870  -17.0234 C   0  0  0  0  0  0  0  0  0  0  0  0
   17.0263  -10.2453  -17.8296 C   0  0  0  0  0  0  0  0  0  0  0  0
   16.4926  -11.4098  -17.3189 C   0  0  0  0  0  0  0  0  0  0  0  0
   16.3071  -11.5382  -15.9637 C   0  0  0  0  0  0  0  0  0  0  0  0
   16.6687  -10.4751  -15.1442 C   0  0  0  0  0  0  0  0  0  0  0  0
   19.4723   -6.8011  -14.0623 C   0  0  0  0  0  0  0  0  0  0  0  0
   19.4738   -6.7624  -12.7877 O   0  0  0  0  0  0  0  0  0  0  0  0
   22.2883   -5.4327  -13.2318 C   0  0  0  0  0  0  0  0  0  0  0  0
   21.6933   -4.3778  -14.1063 C   0  0  1  0  0  0  0  0  0  0  0  0
   22.1165   -4.6076  -15.4460 O   0  0  0  0  0  0  0  0  0  0  0  0
   20.1566   -4.4363  -14.0768 C   0  0  2  0  0  0  0  0  0  0  0  0
   19.8023   -5.6499  -14.8246 N   0  0  0  0  0  0  0  0  0  0  0  0
   19.5749   -3.2611  -14.7309 C   0  0  0  0  0  0  0  0  0  0  0  0
   19.4780   -3.1661  -15.9969 O   0  0  0  0  0  0  0  0  0  0  0  0
   17.6620   -0.1569  -13.7260 C   0  0  0  0  0  0  0  0  0  0  0  0
   18.3983   -1.0475  -14.7011 C   0  0  2  0  0  0  0  0  0  0  0  0
   19.0688   -2.1402  -14.0293 N   0  0  0  0  0  0  0  0  0  0  0  0
   19.3203   -0.2830  -15.5598 C   0  0  0  0  0  0  0  0  0  0  0  0
   20.5518   -0.2949  -15.3350 O   0  0  0  0  0  0  0  0  0  0  0  0
   18.8920    0.4744  -16.6379 O   0  0  0  0  0  0  0  0  0  0  0  0
  2  1  1  1
  2 10  1  0
  3  2  1  0
  4  3  1  0
  5  4  2  0
  6  5  1  0
  7  6  2  0
  7  8  1  0
  8  9  2  0
  9  4  1  0
 10 11  2  0
 10 16  1  0
 13 14  1  0
 13 12  1  1
 15 13  1  0
 15 16  1  6
 17 21  1  0
 17 15  1  0
 18 17  2  0
 20 19  1  1
 20 22  1  0
 20 21  1  0
 22 24  1  0
 23 22  2  0
M  END
$$$$
