FTA.pdb
     RDKit          3D

 24 24  0  0  1  0  0  0  0  0999 V2000
   21.5510  -13.5160  -18.3311 N   0  0  0  0  0  0  0  0  0  0  0  0
   21.0671  -12.7801  -17.2038 C   0  0  1  0  0  0  0  0  0  0  0  0
   21.7837  -13.3371  -15.9807 C   0  0  0  0  0  0  0  0  0  0  0  0
   21.4158  -14.7538  -15.7691 C   0  0  0  0  0  0  0  0  0  0  0  0
   20.1206  -15.0028  -15.3128 C   0  0  0  0  0  0  0  0  0  0  0  0
   19.7387  -16.3106  -15.1024 C   0  0  0  0  0  0  0  0  0  0  0  0
   20.5915  -17.3706  -15.3276 C   0  0  0  0  0  0  0  0  0  0  0  0
   21.8683  -17.1354  -15.7768 C   0  0  0  0  0  0  0  0  0  0  0  0
   22.2607  -15.8192  -15.9913 C   0  0  0  0  0  0  0  0  0  0  0  0
   21.4016  -11.3521  -17.3218 C   0  0  0  0  0  0  0  0  0  0  0  0
   22.5817  -11.0514  -17.7000 O   0  0  0  0  0  0  0  0  0  0  0  0
   20.0273   -8.9627  -19.6036 C   0  0  0  0  0  0  0  0  0  0  0  0
   19.8507   -8.3700  -18.2438 C   0  0  1  0  0  0  0  0  0  0  0  0
   18.5473   -8.6958  -17.7729 O   0  0  0  0  0  0  0  0  0  0  0  0
   20.8730   -8.9487  -17.2508 C   0  0  2  0  0  0  0  0  0  0  0  0
   20.4518  -10.3384  -17.0294 N   0  0  0  0  0  0  0  0  0  0  0  0
   20.8470   -8.2130  -15.9838 C   0  0  0  0  0  0  0  0  0  0  0  0
   20.1402   -8.5891  -14.9937 O   0  0  0  0  0  0  0  0  0  0  0  0
   22.5242   -5.1875  -14.4281 C   0  0  0  0  0  0  0  0  0  0  0  0
   21.5217   -6.3178  -14.4877 C   0  0  2  0  0  0  0  0  0  0  0  0
   21.5968   -7.0366  -15.7417 N   0  0  0  0  0  0  0  0  0  0  0  0
   20.1517   -5.8568  -14.2007 C   0  0  0  0  0  0  0  0  0  0  0  0
   19.3893   -5.5172  -15.1339 O   0  0  0  0  0  0  0  0  0  0  0  0
   19.6384   -5.7736  -12.9165 O   0  0  0  0  0  0  0  0  0  0  0  0
  2  1  1  6
  2 10  1  0
  3  2  1  0
  4  3  1  0
  5  4  2  0
  6  5  1  0
  7  6  2  0
  7  8  1  0
  8  9  2  0
  9  4  1  0
 10 11  2  0
 10 16  1  0
 13 14  1  0
 13 12  1  6
 15 13  1  0
 15 16  1  1
 17 21  1  0
 17 15  1  0
 18 17  2  0
 20 19  1  6
 20 22  1  0
 20 21  1  0
 22 24  1  0
 23 22  2  0
M  END
$$$$
