FTA.pdb
     RDKit          3D

 24 24  0  0  1  0  0  0  0  0999 V2000
   13.0543  -21.6419    1.6707 N   0  0  0  0  0  0  0  0  0  0  0  0
   14.2774  -22.3419    1.9170 C   0  0  1  0  0  0  0  0  0  0  0  0
   14.7526  -21.9140    3.2993 C   0  0  0  0  0  0  0  0  0  0  0  0
   15.4355  -20.6041    3.2265 C   0  0  0  0  0  0  0  0  0  0  0  0
   16.7935  -20.5875    3.5478 C   0  0  0  0  0  0  0  0  0  0  0  0
   17.4664  -19.3856    3.4926 C   0  0  0  0  0  0  0  0  0  0  0  0
   16.8426  -18.2097    3.1325 C   0  0  0  0  0  0  0  0  0  0  0  0
   15.5061  -18.2162    2.8145 C   0  0  0  0  0  0  0  0  0  0  0  0
   14.8207  -19.4245    2.8679 C   0  0  0  0  0  0  0  0  0  0  0  0
   14.0590  -23.7968    1.9361 C   0  0  0  0  0  0  0  0  0  0  0  0
   12.8742  -24.2131    2.1576 O   0  0  0  0  0  0  0  0  0  0  0  0
   15.0459  -26.0597   -0.9051 C   0  0  0  0  0  0  0  0  0  0  0  0
   15.5674  -26.6364    0.3704 C   0  0  1  0  0  0  0  0  0  0  0  0
   16.9181  -26.2192    0.5378 O   0  0  0  0  0  0  0  0  0  0  0  0
   14.7604  -26.1293    1.5777 C   0  0  2  0  0  0  0  0  0  0  0  0
   15.1214  -24.7120    1.7153 N   0  0  0  0  0  0  0  0  0  0  0  0
   15.1271  -26.8567    2.7958 C   0  0  0  0  0  0  0  0  0  0  0  0
   16.0293  -26.4391    3.5914 O   0  0  0  0  0  0  0  0  0  0  0  0
   13.9680  -29.8798    4.7576 C   0  0  0  0  0  0  0  0  0  0  0  0
   14.9469  -28.7909    4.3806 C   0  0  2  0  0  0  0  0  0  0  0  0
   14.5199  -28.0700    3.2004 N   0  0  0  0  0  0  0  0  0  0  0  0
   16.3203  -29.3067    4.2414 C   0  0  0  0  0  0  0  0  0  0  0  0
   16.9197  -29.7869    5.2302 O   0  0  0  0  0  0  0  0  0  0  0  0
   17.0124  -29.2920    3.0413 O   0  0  0  0  0  0  0  0  0  0  0  0
  2  1  1  1
  2 10  1  0
  3  2  1  0
  4  3  1  0
  5  4  2  0
  6  5  1  0
  7  6  2  0
  7  8  1  0
  8  9  2  0
  9  4  1  0
 10 11  2  0
 10 16  1  0
 13 14  1  0
 13 12  1  6
 15 13  1  0
 15 16  1  1
 17 21  1  0
 17 15  1  0
 18 17  2  0
 20 19  1  6
 20 22  1  0
 20 21  1  0
 22 24  1  0
 23 22  2  0
M  END
$$$$
