FTA.pdb
     RDKit          3D

 24 24  0  0  1  0  0  0  0  0999 V2000
   20.6179  -12.8415  -15.8292 N   0  0  0  0  0  0  0  0  0  0  0  0
   21.0589  -11.5436  -16.2385 C   0  0  1  0  0  0  0  0  0  0  0  0
   21.7796  -11.7282  -17.5674 C   0  0  0  0  0  0  0  0  0  0  0  0
   23.1316  -12.2857  -17.3470 C   0  0  0  0  0  0  0  0  0  0  0  0
   23.2775  -13.6623  -17.5243 C   0  0  0  0  0  0  0  0  0  0  0  0
   24.5222  -14.2212  -17.3278 C   0  0  0  0  0  0  0  0  0  0  0  0
   25.6178  -13.4667  -16.9643 C   0  0  0  0  0  0  0  0  0  0  0  0
   25.4838  -12.1109  -16.7874 C   0  0  0  0  0  0  0  0  0  0  0  0
   24.2316  -11.5400  -16.9838 C   0  0  0  0  0  0  0  0  0  0  0  0
   19.9168  -10.6418  -16.4563 C   0  0  0  0  0  0  0  0  0  0  0  0
   18.7947  -11.1708  -16.7512 O   0  0  0  0  0  0  0  0  0  0  0  0
   17.5545  -10.1118  -15.1544 C   0  0  0  0  0  0  0  0  0  0  0  0
   18.0054   -8.6896  -15.2292 C   0  0  1  0  0  0  0  0  0  0  0  0
   18.8405   -8.4191  -14.1085 O   0  0  0  0  0  0  0  0  0  0  0  0
   18.8257   -8.4355  -16.5053 C   0  0  2  0  0  0  0  0  0  0  0  0
   20.0486   -9.2329  -16.3430 N   0  0  0  0  0  0  0  0  0  0  0  0
   19.1699   -7.0169  -16.6330 C   0  0  0  0  0  0  0  0  0  0  0  0
   20.1499   -6.4963  -16.0087 O   0  0  0  0  0  0  0  0  0  0  0  0
   18.0439   -3.9905  -18.6171 C   0  0  0  0  0  0  0  0  0  0  0  0
   18.7977   -4.6999  -17.5150 C   0  0  2  0  0  0  0  0  0  0  0  0
   18.4610   -6.1061  -17.4530 N   0  0  0  0  0  0  0  0  0  0  0  0
   18.6234   -4.0360  -16.2108 C   0  0  0  0  0  0  0  0  0  0  0  0
   17.7604   -4.4460  -15.4018 O   0  0  0  0  0  0  0  0  0  0  0  0
   19.3830   -2.9481  -15.8119 O   0  0  0  0  0  0  0  0  0  0  0  0
  2  1  1  6
  2 10  1  0
  3  2  1  0
  4  3  1  0
  5  4  2  0
  6  5  1  0
  7  6  2  0
  7  8  1  0
  8  9  2  0
  9  4  1  0
 10 11  2  0
 10 16  1  0
 13 14  1  0
 13 12  1  1
 15 13  1  0
 15 16  1  1
 17 21  1  0
 17 15  1  0
 18 17  2  0
 20 19  1  6
 20 22  1  0
 20 21  1  0
 22 24  1  0
 23 22  2  0
M  END
$$$$
