FTA.pdb
     RDKit          3D

 24 24  0  0  1  0  0  0  0  0999 V2000
   29.0893  -21.0169  -15.1828 N   0  0  0  0  0  0  0  0  0  0  0  0
   28.0182  -21.0129  -14.2344 C   0  0  1  0  0  0  0  0  0  0  0  0
   28.4430  -20.0867  -13.1025 C   0  0  0  0  0  0  0  0  0  0  0  0
   29.4201  -20.7635  -12.2225 C   0  0  0  0  0  0  0  0  0  0  0  0
   29.4384  -22.1584  -12.2635 C   0  0  0  0  0  0  0  0  0  0  0  0
   30.3347  -22.8272  -11.4575 C   0  0  0  0  0  0  0  0  0  0  0  0
   31.2061  -22.1643  -10.6192 C   0  0  0  0  0  0  0  0  0  0  0  0
   31.1955  -20.7913  -10.5720 C   0  0  0  0  0  0  0  0  0  0  0  0
   30.2944  -20.1098  -11.3819 C   0  0  0  0  0  0  0  0  0  0  0  0
   26.7860  -20.4740  -14.8312 C   0  0  0  0  0  0  0  0  0  0  0  0
   26.8908  -19.4394  -15.5691 O   0  0  0  0  0  0  0  0  0  0  0  0
   24.8775  -21.5372  -17.3968 C   0  0  0  0  0  0  0  0  0  0  0  0
   23.8728  -21.4124  -16.2984 C   0  0  1  0  0  0  0  0  0  0  0  0
   23.7041  -22.6889  -15.6910 O   0  0  0  0  0  0  0  0  0  0  0  0
   24.3547  -20.4313  -15.2162 C   0  0  2  0  0  0  0  0  0  0  0  0
   25.5219  -21.0778  -14.6016 N   0  0  0  0  0  0  0  0  0  0  0  0
   23.3161  -20.2146  -14.2055 C   0  0  0  0  0  0  0  0  0  0  0  0
   23.2535  -20.9037  -13.1366 O   0  0  0  0  0  0  0  0  0  0  0  0
   20.4728  -17.8303  -13.4854 C   0  0  0  0  0  0  0  0  0  0  0  0
   21.1983  -19.1531  -13.3851 C   0  0  2  0  0  0  0  0  0  0  0  0
   22.3035  -19.2314  -14.3164 N   0  0  0  0  0  0  0  0  0  0  0  0
   20.2811  -20.2981  -13.5247 C   0  0  0  0  0  0  0  0  0  0  0  0
   20.2442  -20.9538  -14.5906 O   0  0  0  0  0  0  0  0  0  0  0  0
   19.4275  -20.7072  -12.5129 O   0  0  0  0  0  0  0  0  0  0  0  0
  2  1  1  6
  2 10  1  0
  3  2  1  0
  4  3  1  0
  5  4  2  0
  6  5  1  0
  7  6  2  0
  7  8  1  0
  8  9  2  0
  9  4  1  0
 10 11  2  0
 10 16  1  0
 13 14  1  0
 13 12  1  6
 15 13  1  0
 15 16  1  1
 17 21  1  0
 17 15  1  0
 18 17  2  0
 20 19  1  6
 20 22  1  0
 20 21  1  0
 22 24  1  0
 23 22  2  0
M  END
$$$$
