FTA.pdb
     RDKit          3D

 24 24  0  0  1  0  0  0  0  0999 V2000
   19.3084   -8.3014  -17.4902 N   0  0  0  0  0  0  0  0  0  0  0  0
   20.0195   -7.0666  -17.6175 C   0  0  1  0  0  0  0  0  0  0  0  0
   19.4248   -6.3442  -18.8191 C   0  0  0  0  0  0  0  0  0  0  0  0
   19.8060   -7.0299  -20.0728 C   0  0  0  0  0  0  0  0  0  0  0  0
   21.0718   -6.7409  -20.5845 C   0  0  0  0  0  0  0  0  0  0  0  0
   21.4648   -7.3594  -21.7522 C   0  0  0  0  0  0  0  0  0  0  0  0
   20.6510   -8.2474  -22.4235 C   0  0  0  0  0  0  0  0  0  0  0  0
   19.4033   -8.5381  -21.9275 C   0  0  0  0  0  0  0  0  0  0  0  0
   18.9999   -7.9183  -20.7504 C   0  0  0  0  0  0  0  0  0  0  0  0
   19.8253   -6.2202  -16.4298 C   0  0  0  0  0  0  0  0  0  0  0  0
   18.7111   -6.3105  -15.8163 O   0  0  0  0  0  0  0  0  0  0  0  0
   21.6905   -6.1189  -13.3012 C   0  0  0  0  0  0  0  0  0  0  0  0
   21.6807   -4.7199  -13.8249 C   0  0  1  0  0  0  0  0  0  0  0  0
   22.8962   -4.4911  -14.5298 O   0  0  0  0  0  0  0  0  0  0  0  0
   20.5152   -4.5040  -14.8051 C   0  0  2  0  0  0  0  0  0  0  0  0
   20.8359   -5.3333  -15.9744 N   0  0  0  0  0  0  0  0  0  0  0  0
   20.4198   -3.0971  -15.2039 C   0  0  0  0  0  0  0  0  0  0  0  0
   21.1078   -2.6134  -16.1597 O   0  0  0  0  0  0  0  0  0  0  0  0
   18.1697   -0.1435  -14.6040 C   0  0  0  0  0  0  0  0  0  0  0  0
   19.4769   -0.7818  -15.0162 C   0  0  2  0  0  0  0  0  0  0  0  0
   19.5639   -2.1586  -14.5785 N   0  0  0  0  0  0  0  0  0  0  0  0
   20.6404    0.0084  -14.5761 C   0  0  0  0  0  0  0  0  0  0  0  0
   20.8141    1.1721  -15.0038 O   0  0  0  0  0  0  0  0  0  0  0  0
   21.5864   -0.4752  -13.6868 O   0  0  0  0  0  0  0  0  0  0  0  0
  2  1  1  1
  2 10  1  0
  3  2  1  0
  4  3  1  0
  5  4  2  0
  6  5  1  0
  7  6  2  0
  7  8  1  0
  8  9  2  0
  9  4  1  0
 10 11  2  0
 10 16  1  0
 13 14  1  0
 13 12  1  6
 15 13  1  0
 15 16  1  6
 17 21  1  0
 17 15  1  0
 18 17  2  0
 20 19  1  1
 20 22  1  0
 20 21  1  0
 22 24  1  0
 23 22  2  0
M  END
$$$$
