FTA.pdb
     RDKit          3D

 24 24  0  0  1  0  0  0  0  0999 V2000
   24.8222  -18.9392  -15.5450 N   0  0  0  0  0  0  0  0  0  0  0  0
   25.8604  -18.9617  -14.5609 C   0  0  1  0  0  0  0  0  0  0  0  0
   26.4359  -17.5527  -14.5036 C   0  0  0  0  0  0  0  0  0  0  0  0
   27.3336  -17.3158  -15.6548 C   0  0  0  0  0  0  0  0  0  0  0  0
   26.9263  -16.3520  -16.5782 C   0  0  0  0  0  0  0  0  0  0  0  0
   27.7352  -16.1019  -17.6661 C   0  0  0  0  0  0  0  0  0  0  0  0
   28.9246  -16.7703  -17.8668 C   0  0  0  0  0  0  0  0  0  0  0  0
   29.3337  -17.7208  -16.9632 C   0  0  0  0  0  0  0  0  0  0  0  0
   28.5233  -17.9785  -15.8636 C   0  0  0  0  0  0  0  0  0  0  0  0
   25.3219  -19.2927  -13.2322 C   0  0  0  0  0  0  0  0  0  0  0  0
   24.0540  -19.3253  -13.1004 O   0  0  0  0  0  0  0  0  0  0  0  0
   23.9597  -21.2817  -12.3347 C   0  0  0  0  0  0  0  0  0  0  0  0
   24.9113  -21.3639  -11.1861 C   0  0  1  0  0  0  0  0  0  0  0  0
   25.9670  -22.2530  -11.5346 O   0  0  0  0  0  0  0  0  0  0  0  0
   25.5295  -19.9891  -10.8800 C   0  0  2  0  0  0  0  0  0  0  0  0
   26.1743  -19.5689  -12.1312 N   0  0  0  0  0  0  0  0  0  0  0  0
   26.5299  -20.0901   -9.8141 C   0  0  0  0  0  0  0  0  0  0  0  0
   27.6272  -20.7171   -9.9689 O   0  0  0  0  0  0  0  0  0  0  0  0
   27.5337  -18.3277   -6.7228 C   0  0  0  0  0  0  0  0  0  0  0  0
   27.3949  -19.6109   -7.5104 C   0  0  2  0  0  0  0  0  0  0  0  0
   26.3769  -19.5055   -8.5337 N   0  0  0  0  0  0  0  0  0  0  0  0
   27.1740  -20.7754   -6.6346 C   0  0  0  0  0  0  0  0  0  0  0  0
   26.1138  -21.4365   -6.7153 O   0  0  0  0  0  0  0  0  0  0  0  0
   28.1003  -21.1976   -5.6948 O   0  0  0  0  0  0  0  0  0  0  0  0
  2  1  1  6
  2 10  1  0
  3  2  1  0
  4  3  1  0
  5  4  2  0
  6  5  1  0
  7  6  2  0
  7  8  1  0
  8  9  2  0
  9  4  1  0
 10 11  2  0
 10 16  1  0
 13 14  1  0
 13 12  1  6
 15 13  1  0
 15 16  1  6
 17 21  1  0
 17 15  1  0
 18 17  2  0
 20 19  1  1
 20 22  1  0
 20 21  1  0
 22 24  1  0
 23 22  2  0
M  END
$$$$
