FTA.pdb
     RDKit          3D

 24 24  0  0  1  0  0  0  0  0999 V2000
   28.4977  -21.2227   -9.2846 N   0  0  0  0  0  0  0  0  0  0  0  0
   27.1267  -20.8203   -9.2132 C   0  0  1  0  0  0  0  0  0  0  0  0
   27.0942  -19.5277   -8.4083 C   0  0  0  0  0  0  0  0  0  0  0  0
   27.6266  -19.7550   -7.0474 C   0  0  0  0  0  0  0  0  0  0  0  0
   26.8163  -20.4780   -6.1709 C   0  0  0  0  0  0  0  0  0  0  0  0
   27.2764  -20.7109   -4.8924 C   0  0  0  0  0  0  0  0  0  0  0  0
   28.5030  -20.2544   -4.4581 C   0  0  0  0  0  0  0  0  0  0  0  0
   29.3076  -19.5418   -5.3137 C   0  0  0  0  0  0  0  0  0  0  0  0
   28.8505  -19.3030   -6.6046 C   0  0  0  0  0  0  0  0  0  0  0  0
   26.5875  -20.5409  -10.5534 C   0  0  0  0  0  0  0  0  0  0  0  0
   27.4223  -20.3126  -11.4899 O   0  0  0  0  0  0  0  0  0  0  0  0
   26.6336  -21.8261  -12.9319 C   0  0  0  0  0  0  0  0  0  0  0  0
   25.1523  -21.6328  -12.9228 C   0  0  1  0  0  0  0  0  0  0  0  0
   24.5577  -22.7186  -12.2198 O   0  0  0  0  0  0  0  0  0  0  0  0
   24.7685  -20.3310  -12.1990 C   0  0  2  0  0  0  0  0  0  0  0  0
   25.1906  -20.5255  -10.8055 N   0  0  0  0  0  0  0  0  0  0  0  0
   23.3212  -20.1082  -12.2541 C   0  0  0  0  0  0  0  0  0  0  0  0
   22.5539  -20.3792  -11.2749 O   0  0  0  0  0  0  0  0  0  0  0  0
   20.7953  -18.5296  -14.5948 C   0  0  0  0  0  0  0  0  0  0  0  0
   21.2239  -19.3261  -13.3832 C   0  0  2  0  0  0  0  0  0  0  0  0
   22.6499  -19.5741  -13.3804 N   0  0  0  0  0  0  0  0  0  0  0  0
   20.4501  -20.5721  -13.2393 C   0  0  0  0  0  0  0  0  0  0  0  0
   20.8663  -21.6382  -13.7469 O   0  0  0  0  0  0  0  0  0  0  0  0
   19.2485  -20.6375  -12.5527 O   0  0  0  0  0  0  0  0  0  0  0  0
  2  1  1  6
  2 10  1  0
  3  2  1  0
  4  3  1  0
  5  4  2  0
  6  5  1  0
  7  6  2  0
  7  8  1  0
  8  9  2  0
  9  4  1  0
 10 11  2  0
 10 16  1  0
 13 14  1  0
 13 12  1  1
 15 13  1  0
 15 16  1  1
 17 21  1  0
 17 15  1  0
 18 17  2  0
 20 19  1  6
 20 22  1  0
 20 21  1  0
 22 24  1  0
 23 22  2  0
M  END
$$$$
