CPA.pdb
     RDKit          3D

 19 19  0  0  1  0  0  0  0  0999 V2000
   16.7717  -12.5937  -12.3496 N   0  0  0  0  0  0  0  0  0  0  0  0
   16.0705  -11.3734  -12.6562 C   0  0  1  0  0  0  0  0  0  0  0  0
   14.5698  -11.6157  -12.4296 C   0  0  0  0  0  0  0  0  0  0  0  0
   13.9300  -12.6762  -13.7466 S   0  0  0  0  0  0  0  0  0  0  0  0
   16.5220  -10.2018  -11.8711 C   0  0  0  0  0  0  0  0  0  0  0  0
   16.8631  -10.4119  -10.6674 O   0  0  0  0  0  0  0  0  0  0  0  0
   16.6034   -8.8720  -12.3542 N   0  0  0  0  0  0  0  0  0  0  0  0
   16.2879   -8.4811  -13.7266 C   0  0  0  0  0  0  0  0  0  0  0  0
   16.9241   -7.1531  -13.9655 C   0  0  0  0  0  0  0  0  0  0  0  0
   17.3291   -6.6281  -12.6285 C   0  0  0  0  0  0  0  0  0  0  0  0
   17.0024   -7.7021  -11.5969 C   0  0  1  0  0  0  0  0  0  0  0  0
   15.8847   -7.2674  -10.7363 C   0  0  0  0  0  0  0  0  0  0  0  0
   14.7212   -7.2882  -11.1930 O   0  0  0  0  0  0  0  0  0  0  0  0
   15.1291   -6.7795   -7.1466 C   0  0  0  0  0  0  0  0  0  0  0  0
   14.8807   -6.4617   -8.6049 C   0  0  2  0  0  0  0  0  0  0  0  0
   16.0524   -6.8207   -9.4024 N   0  0  0  0  0  0  0  0  0  0  0  0
   14.6372   -4.9778   -8.7071 C   0  0  0  0  0  0  0  0  0  0  0  0
   15.5005   -4.2138   -9.2059 O   0  0  0  0  0  0  0  0  0  0  0  0
   13.4603   -4.3928   -8.2598 O   0  0  0  0  0  0  0  0  0  0  0  0
  2  1  1  1
  3  4  1  0
  3  2  1  0
  5  2  1  0
  5  6  2  0
  7  5  1  0
  8  7  1  0
  9 10  1  0
  9  8  1  0
 10 11  1  0
 11  7  1  0
 11 12  1  1
 13 12  2  0
 15 14  1  1
 15 16  1  0
 15 17  1  0
 16 12  1  0
 17 18  2  0
 17 19  1  0
M  END
$$$$
