CPA.pdb
     RDKit          3D

 19 19  0  0  1  0  0  0  0  0999 V2000
   20.0053  -12.7078  -18.1094 N   0  0  0  0  0  0  0  0  0  0  0  0
   21.2006  -11.9719  -17.7858 C   0  0  1  0  0  0  0  0  0  0  0  0
   21.6195  -11.1719  -19.0294 C   0  0  0  0  0  0  0  0  0  0  0  0
   22.4023  -12.2844  -20.2202 S   0  0  0  0  0  0  0  0  0  0  0  0
   21.0586  -11.0677  -16.6218 C   0  0  0  0  0  0  0  0  0  0  0  0
   19.9315  -10.5080  -16.4614 O   0  0  0  0  0  0  0  0  0  0  0  0
   22.0754  -10.7793  -15.6776 N   0  0  0  0  0  0  0  0  0  0  0  0
   23.4382  -11.3003  -15.7606 C   0  0  0  0  0  0  0  0  0  0  0  0
   24.0431  -11.1749  -14.4027 C   0  0  0  0  0  0  0  0  0  0  0  0
   23.1432  -10.2807  -13.6165 C   0  0  0  0  0  0  0  0  0  0  0  0
   21.9469   -9.9441  -14.4997 C   0  0  1  0  0  0  0  0  0  0  0  0
   21.9828   -8.5230  -14.8969 C   0  0  0  0  0  0  0  0  0  0  0  0
   22.7583   -8.1656  -15.8100 O   0  0  0  0  0  0  0  0  0  0  0  0
   19.8495   -5.5412  -14.7969 C   0  0  0  0  0  0  0  0  0  0  0  0
   21.2347   -6.1501  -14.7982 C   0  0  2  0  0  0  0  0  0  0  0  0
   21.1790   -7.5225  -14.2970 N   0  0  0  0  0  0  0  0  0  0  0  0
   22.0945   -5.3148  -13.8846 C   0  0  0  0  0  0  0  0  0  0  0  0
   22.4662   -4.1630  -14.2209 O   0  0  0  0  0  0  0  0  0  0  0  0
   22.5111   -5.7744  -12.6425 O   0  0  0  0  0  0  0  0  0  0  0  0
  2  1  1  6
  3  4  1  0
  3  2  1  0
  5  2  1  0
  5  6  2  0
  7  5  1  0
  8  7  1  0
  9 10  1  0
  9  8  1  0
 10 11  1  0
 11  7  1  0
 11 12  1  6
 13 12  2  0
 15 14  1  1
 15 16  1  0
 15 17  1  0
 16 12  1  0
 17 18  2  0
 17 19  1  0
M  END
$$$$
