CPA.pdb
     RDKit          3D

 19 19  0  0  1  0  0  0  0  0999 V2000
   17.2735  -11.5048  -10.1834 N   0  0  0  0  0  0  0  0  0  0  0  0
   17.1652  -10.4200  -11.1249 C   0  0  1  0  0  0  0  0  0  0  0  0
   15.6774  -10.2225  -11.4560 C   0  0  0  0  0  0  0  0  0  0  0  0
   15.1352  -11.5338  -12.5763 S   0  0  0  0  0  0  0  0  0  0  0  0
   17.7558   -9.1469  -10.6525 C   0  0  0  0  0  0  0  0  0  0  0  0
   17.5012   -8.8019   -9.4586 O   0  0  0  0  0  0  0  0  0  0  0  0
   18.5784   -8.2879  -11.4231 N   0  0  0  0  0  0  0  0  0  0  0  0
   18.9785   -8.5610  -12.8019 C   0  0  0  0  0  0  0  0  0  0  0  0
   20.1711   -7.7132  -13.0925 C   0  0  0  0  0  0  0  0  0  0  0  0
   20.2591   -6.7100  -11.9910 C   0  0  0  0  0  0  0  0  0  0  0  0
   19.1509   -7.0274  -10.9932 C   0  0  1  0  0  0  0  0  0  0  0  0
   18.1129   -5.9785  -11.0246 C   0  0  0  0  0  0  0  0  0  0  0  0
   17.3002   -5.9547  -11.9742 O   0  0  0  0  0  0  0  0  0  0  0  0
   16.5062   -3.5888   -8.6727 C   0  0  0  0  0  0  0  0  0  0  0  0
   16.8425   -4.0615  -10.0701 C   0  0  2  0  0  0  0  0  0  0  0  0
   17.9789   -4.9805  -10.0281 N   0  0  0  0  0  0  0  0  0  0  0  0
   17.2082   -2.8449  -10.8811 C   0  0  0  0  0  0  0  0  0  0  0  0
   18.3939   -2.6412  -11.2424 O   0  0  0  0  0  0  0  0  0  0  0  0
   16.2621   -1.9030  -11.2623 O   0  0  0  0  0  0  0  0  0  0  0  0
  2  1  1  1
  3  4  1  0
  3  2  1  0
  5  2  1  0
  5  6  2  0
  7  5  1  0
  8  7  1  0
  9 10  1  0
  9  8  1  0
 10 11  1  0
 11  7  1  0
 11 12  1  6
 13 12  2  0
 15 14  1  1
 15 16  1  0
 15 17  1  0
 16 12  1  0
 17 18  2  0
 17 19  1  0
M  END
$$$$
