CPA.pdb
     RDKit          3D

 19 19  0  0  1  0  0  0  0  0999 V2000
   23.5523  -11.8122  -17.8923 N   0  0  0  0  0  0  0  0  0  0  0  0
   23.0857  -11.3296  -16.6178 C   0  0  1  0  0  0  0  0  0  0  0  0
   24.2897  -11.2572  -15.6653 C   0  0  0  0  0  0  0  0  0  0  0  0
   24.9307  -12.9241  -15.3843 S   0  0  0  0  0  0  0  0  0  0  0  0
   22.4049  -10.0161  -16.6799 C   0  0  0  0  0  0  0  0  0  0  0  0
   22.9564   -9.1142  -17.3812 O   0  0  0  0  0  0  0  0  0  0  0  0
   21.1932   -9.6877  -16.0224 N   0  0  0  0  0  0  0  0  0  0  0  0
   20.4097  -10.6356  -15.2330 C   0  0  0  0  0  0  0  0  0  0  0  0
   19.0318  -10.0771  -15.1111 C   0  0  0  0  0  0  0  0  0  0  0  0
   19.1092   -8.6528  -15.5502 C   0  0  0  0  0  0  0  0  0  0  0  0
   20.5372   -8.3949  -16.0179 C   0  0  1  0  0  0  0  0  0  0  0  0
   21.2323   -7.4928  -15.0789 C   0  0  0  0  0  0  0  0  0  0  0  0
   21.7715   -7.9742  -14.0589 O   0  0  0  0  0  0  0  0  0  0  0  0
   23.3025   -4.6921  -14.9764 C   0  0  0  0  0  0  0  0  0  0  0  0
   22.0795   -5.2818  -14.3085 C   0  0  2  0  0  0  0  0  0  0  0  0
   21.3276   -6.0917  -15.2657 N   0  0  0  0  0  0  0  0  0  0  0  0
   21.2244   -4.1325  -13.8399 C   0  0  0  0  0  0  0  0  0  0  0  0
   20.1669   -3.8251  -14.4441 O   0  0  0  0  0  0  0  0  0  0  0  0
   21.5620   -3.3686  -12.7307 O   0  0  0  0  0  0  0  0  0  0  0  0
  2  1  1  6
  3  4  1  0
  3  2  1  0
  5  2  1  0
  5  6  2  0
  7  5  1  0
  8  7  1  0
  9 10  1  0
  9  8  1  0
 10 11  1  0
 11  7  1  0
 11 12  1  1
 13 12  2  0
 15 14  1  6
 15 16  1  0
 15 17  1  0
 16 12  1  0
 17 18  2  0
 17 19  1  0
M  END
$$$$
