CPA.pdb
     RDKit          3D

 19 19  0  0  1  0  0  0  0  0999 V2000
   18.4249  -11.1691  -16.7881 N   0  0  0  0  0  0  0  0  0  0  0  0
   19.3682  -10.1041  -17.0137 C   0  0  1  0  0  0  0  0  0  0  0  0
   19.2991   -9.7122  -18.4982 C   0  0  0  0  0  0  0  0  0  0  0  0
   20.2469  -10.9021  -19.4752 S   0  0  0  0  0  0  0  0  0  0  0  0
   19.1518   -8.9127  -16.1612 C   0  0  0  0  0  0  0  0  0  0  0  0
   17.9519   -8.6273  -15.8643 O   0  0  0  0  0  0  0  0  0  0  0  0
   20.1722   -8.0707  -15.6531 N   0  0  0  0  0  0  0  0  0  0  0  0
   21.5921   -8.2330  -15.9585 C   0  0  0  0  0  0  0  0  0  0  0  0
   22.3568   -7.4959  -14.9110 C   0  0  0  0  0  0  0  0  0  0  0  0
   21.3722   -6.6362  -14.1906 C   0  0  0  0  0  0  0  0  0  0  0  0
   19.9936   -6.9366  -14.7681 C   0  0  1  0  0  0  0  0  0  0  0  0
   19.4955   -5.7819  -15.5410 C   0  0  0  0  0  0  0  0  0  0  0  0
   19.8602   -5.6415  -16.7285 O   0  0  0  0  0  0  0  0  0  0  0  0
   16.6745   -3.4492  -15.5887 C   0  0  0  0  0  0  0  0  0  0  0  0
   18.1373   -3.7203  -15.8647 C   0  0  2  0  0  0  0  0  0  0  0  0
   18.6150   -4.8068  -15.0110 N   0  0  0  0  0  0  0  0  0  0  0  0
   18.8970   -2.4582  -15.5462 C   0  0  0  0  0  0  0  0  0  0  0  0
   19.5371   -2.3426  -14.4716 O   0  0  0  0  0  0  0  0  0  0  0  0
   18.9244   -1.3764  -16.4160 O   0  0  0  0  0  0  0  0  0  0  0  0
  2  1  1  6
  3  4  1  0
  3  2  1  0
  5  2  1  0
  5  6  2  0
  7  5  1  0
  8  7  1  0
  9 10  1  0
  9  8  1  0
 10 11  1  0
 11  7  1  0
 11 12  1  6
 13 12  2  0
 15 14  1  1
 15 16  1  0
 15 17  1  0
 16 12  1  0
 17 18  2  0
 17 19  1  0
M  END
$$$$
