CPA.pdb
     RDKit          3D

 19 19  0  0  1  0  0  0  0  0999 V2000
   16.8839  -11.3185  -14.5952 N   0  0  0  0  0  0  0  0  0  0  0  0
   17.6639  -10.5912  -15.5635 C   0  0  1  0  0  0  0  0  0  0  0  0
   16.7620   -9.5179  -16.1934 C   0  0  0  0  0  0  0  0  0  0  0  0
   15.5640  -10.3122  -17.2900 S   0  0  0  0  0  0  0  0  0  0  0  0
   18.8880   -9.9682  -15.0105 C   0  0  0  0  0  0  0  0  0  0  0  0
   18.8548   -9.6154  -13.7923 O   0  0  0  0  0  0  0  0  0  0  0  0
   20.0872   -9.7357  -15.7290 N   0  0  0  0  0  0  0  0  0  0  0  0
   20.3091  -10.1654  -17.1080 C   0  0  0  0  0  0  0  0  0  0  0  0
   21.7829  -10.1666  -17.3392 C   0  0  0  0  0  0  0  0  0  0  0  0
   22.3936   -9.4233  -16.1981 C   0  0  0  0  0  0  0  0  0  0  0  0
   21.2684   -9.0535  -15.2382 C   0  0  1  0  0  0  0  0  0  0  0  0
   21.0371   -7.5958  -15.2521 C   0  0  0  0  0  0  0  0  0  0  0  0
   20.3126   -7.1030  -16.1438 O   0  0  0  0  0  0  0  0  0  0  0  0
   20.9998   -4.7766  -12.9350 C   0  0  0  0  0  0  0  0  0  0  0  0
   21.2396   -5.2883  -14.3387 C   0  0  2  0  0  0  0  0  0  0  0  0
   21.5948   -6.7060  -14.3011 N   0  0  0  0  0  0  0  0  0  0  0  0
   22.3849   -4.4971  -14.9167 C   0  0  0  0  0  0  0  0  0  0  0  0
   23.5601   -4.9391  -14.8789 O   0  0  0  0  0  0  0  0  0  0  0  0
   22.1963   -3.2568  -15.5114 O   0  0  0  0  0  0  0  0  0  0  0  0
  2  1  1  1
  3  4  1  0
  3  2  1  0
  5  2  1  0
  5  6  2  0
  7  5  1  0
  8  7  1  0
  9 10  1  0
  9  8  1  0
 10 11  1  0
 11  7  1  0
 11 12  1  6
 13 12  2  0
 15 14  1  1
 15 16  1  0
 15 17  1  0
 16 12  1  0
 17 18  2  0
 17 19  1  0
M  END
$$$$
