CPA.pdb
     RDKit          3D

 19 19  0  0  1  0  0  0  0  0999 V2000
   17.6000  -12.4753  -15.5222 N   0  0  0  0  0  0  0  0  0  0  0  0
   18.3536  -11.5336  -16.3098 C   0  0  1  0  0  0  0  0  0  0  0  0
   17.3630  -10.7217  -17.1593 C   0  0  0  0  0  0  0  0  0  0  0  0
   18.2822   -9.6402  -18.2791 S   0  0  0  0  0  0  0  0  0  0  0  0
   19.2069  -10.6232  -15.5124 C   0  0  0  0  0  0  0  0  0  0  0  0
   18.6826  -10.0945  -14.4853 O   0  0  0  0  0  0  0  0  0  0  0  0
   20.5551  -10.2973  -15.8030 N   0  0  0  0  0  0  0  0  0  0  0  0
   21.2716  -10.7667  -16.9871 C   0  0  0  0  0  0  0  0  0  0  0  0
   22.7298  -10.6194  -16.7090 C   0  0  0  0  0  0  0  0  0  0  0  0
   22.8471   -9.7599  -15.4945 C   0  0  0  0  0  0  0  0  0  0  0  0
   21.4340   -9.4681  -15.0021 C   0  0  1  0  0  0  0  0  0  0  0  0
   21.0978   -8.0464  -15.2131 C   0  0  0  0  0  0  0  0  0  0  0  0
   20.7698   -7.6617  -16.3564 O   0  0  0  0  0  0  0  0  0  0  0  0
   19.5892   -5.2290  -13.7598 C   0  0  0  0  0  0  0  0  0  0  0  0
   20.8332   -5.6768  -14.4955 C   0  0  2  0  0  0  0  0  0  0  0  0
   21.1243   -7.0750  -14.1823 N   0  0  0  0  0  0  0  0  0  0  0  0
   21.9715   -4.8078  -14.0256 C   0  0  0  0  0  0  0  0  0  0  0  0
   22.8087   -5.2339  -13.1917 O   0  0  0  0  0  0  0  0  0  0  0  0
   22.1457   -3.5101  -14.4874 O   0  0  0  0  0  0  0  0  0  0  0  0
  2  1  1  1
  3  4  1  0
  3  2  1  0
  5  2  1  0
  5  6  2  0
  7  5  1  0
  8  7  1  0
  9 10  1  0
  9  8  1  0
 10 11  1  0
 11  7  1  0
 11 12  1  6
 13 12  2  0
 15 14  1  1
 15 16  1  0
 15 17  1  0
 16 12  1  0
 17 18  2  0
 17 19  1  0
M  END
$$$$
