CPA.pdb
     RDKit          3D

 19 19  0  0  1  0  0  0  0  0999 V2000
   20.0004  -32.6868   -3.6668 N   0  0  0  0  0  0  0  0  0  0  0  0
   19.0275  -31.7092   -3.2513 C   0  0  1  0  0  0  0  0  0  0  0  0
   17.7380  -32.4525   -2.8681 C   0  0  0  0  0  0  0  0  0  0  0  0
   16.5120  -32.2375   -4.1792 S   0  0  0  0  0  0  0  0  0  0  0  0
   19.4730  -30.8499   -2.1306 C   0  0  0  0  0  0  0  0  0  0  0  0
   20.1095  -31.4146   -1.1897 O   0  0  0  0  0  0  0  0  0  0  0  0
   19.2466  -29.4549   -2.0257 N   0  0  0  0  0  0  0  0  0  0  0  0
   18.4887  -28.6750   -3.0020 C   0  0  0  0  0  0  0  0  0  0  0  0
   18.8610  -27.2434   -2.8094 C   0  0  0  0  0  0  0  0  0  0  0  0
   19.5841  -27.1628   -1.5063 C   0  0  0  0  0  0  0  0  0  0  0  0
   19.7130  -28.5826   -0.9659 C   0  0  1  0  0  0  0  0  0  0  0  0
   18.8627  -28.7592    0.2276 C   0  0  0  0  0  0  0  0  0  0  0  0
   17.6537  -29.0398    0.0776 O   0  0  0  0  0  0  0  0  0  0  0  0
   19.2314  -28.9567    3.9680 C   0  0  0  0  0  0  0  0  0  0  0  0
   18.4427  -28.8918    2.6783 C   0  0  2  0  0  0  0  0  0  0  0  0
   19.3404  -28.6280    1.5549 N   0  0  0  0  0  0  0  0  0  0  0  0
   17.4556  -27.7605    2.8107 C   0  0  0  0  0  0  0  0  0  0  0  0
   17.6883  -26.6364    2.3009 O   0  0  0  0  0  0  0  0  0  0  0  0
   16.2563  -27.9067    3.4948 O   0  0  0  0  0  0  0  0  0  0  0  0
  2  1  1  1
  3  4  1  0
  3  2  1  0
  5  2  1  0
  5  6  2  0
  7  5  1  0
  8  7  1  0
  9 10  1  0
  9  8  1  0
 10 11  1  0
 11  7  1  0
 11 12  1  1
 13 12  2  0
 15 14  1  1
 15 16  1  0
 15 17  1  0
 16 12  1  0
 17 18  2  0
 17 19  1  0
M  END
$$$$
