CPA.pdb
     RDKit          3D

 19 19  0  0  1  0  0  0  0  0999 V2000
   24.1209  -15.3189  -17.3099 N   0  0  0  0  0  0  0  0  0  0  0  0
   24.5382  -13.9850  -17.6587 C   0  0  1  0  0  0  0  0  0  0  0  0
   23.9423  -13.6430  -19.0335 C   0  0  0  0  0  0  0  0  0  0  0  0
   24.5016  -14.8606  -20.2471 S   0  0  0  0  0  0  0  0  0  0  0  0
   24.1584  -12.9529  -16.6672 C   0  0  0  0  0  0  0  0  0  0  0  0
   23.0752  -13.1350  -16.0324 O   0  0  0  0  0  0  0  0  0  0  0  0
   24.9041  -11.7844  -16.3720 N   0  0  0  0  0  0  0  0  0  0  0  0
   26.1678  -11.4372  -17.0187 C   0  0  0  0  0  0  0  0  0  0  0  0
   26.8522  -10.4402  -16.1454 C   0  0  0  0  0  0  0  0  0  0  0  0
   25.8350   -9.9666  -15.1613 C   0  0  0  0  0  0  0  0  0  0  0  0
   24.5567  -10.7605  -15.4065 C   0  0  1  0  0  0  0  0  0  0  0  0
   23.5077   -9.8878  -15.9694 C   0  0  0  0  0  0  0  0  0  0  0  0
   23.5367   -9.6094  -17.1878 O   0  0  0  0  0  0  0  0  0  0  0  0
   20.0877   -8.7536  -15.1026 C   0  0  0  0  0  0  0  0  0  0  0  0
   21.3847   -8.5911  -15.8647 C   0  0  2  0  0  0  0  0  0  0  0  0
   22.4526   -9.3372  -15.2010 N   0  0  0  0  0  0  0  0  0  0  0  0
   21.7235   -7.1224  -15.8686 C   0  0  0  0  0  0  0  0  0  0  0  0
   22.7070   -6.6842  -15.2217 O   0  0  0  0  0  0  0  0  0  0  0  0
   20.9726   -6.1959  -16.5794 O   0  0  0  0  0  0  0  0  0  0  0  0
  2  1  1  1
  3  4  1  0
  3  2  1  0
  5  2  1  0
  5  6  2  0
  7  5  1  0
  8  7  1  0
  9 10  1  0
  9  8  1  0
 10 11  1  0
 11  7  1  0
 11 12  1  6
 13 12  2  0
 15 14  1  1
 15 16  1  0
 15 17  1  0
 16 12  1  0
 17 18  2  0
 17 19  1  0
M  END
$$$$
