CPA.pdb
     RDKit          3D

 19 19  0  0  1  0  0  0  0  0999 V2000
   18.1490  -11.0308  -15.0067 N   0  0  0  0  0  0  0  0  0  0  0  0
   18.3154   -9.6230  -14.7514 C   0  0  1  0  0  0  0  0  0  0  0  0
   17.1654   -8.8736  -15.4428 C   0  0  0  0  0  0  0  0  0  0  0  0
   17.5278   -8.7195  -17.2073 S   0  0  0  0  0  0  0  0  0  0  0  0
   18.3631   -9.2695  -13.3143 C   0  0  0  0  0  0  0  0  0  0  0  0
   17.7383  -10.0293  -12.5133 O   0  0  0  0  0  0  0  0  0  0  0  0
   19.0473   -8.1566  -12.7649 N   0  0  0  0  0  0  0  0  0  0  0  0
   19.8573   -7.2274  -13.5499 C   0  0  0  0  0  0  0  0  0  0  0  0
   20.7580   -6.5135  -12.5989 C   0  0  0  0  0  0  0  0  0  0  0  0
   20.2384   -6.7940  -11.2282 C   0  0  0  0  0  0  0  0  0  0  0  0
   19.0650   -7.7568  -11.3716 C   0  0  1  0  0  0  0  0  0  0  0  0
   17.7975   -7.0784  -11.0375 C   0  0  0  0  0  0  0  0  0  0  0  0
   17.2342   -6.3784  -11.9067 O   0  0  0  0  0  0  0  0  0  0  0  0
   15.2102   -7.1228   -8.3215 C   0  0  0  0  0  0  0  0  0  0  0  0
   15.8636   -6.5506   -9.5605 C   0  0  2  0  0  0  0  0  0  0  0  0
   17.1696   -7.1733   -9.7711 N   0  0  0  0  0  0  0  0  0  0  0  0
   16.0415   -5.0713   -9.3333 C   0  0  0  0  0  0  0  0  0  0  0  0
   17.1776   -4.5832   -9.1123 O   0  0  0  0  0  0  0  0  0  0  0  0
   14.9699   -4.1890   -9.3576 O   0  0  0  0  0  0  0  0  0  0  0  0
  2  1  1  1
  3  4  1  0
  3  2  1  0
  5  2  1  0
  5  6  2  0
  7  5  1  0
  8  7  1  0
  9 10  1  0
  9  8  1  0
 10 11  1  0
 11  7  1  0
 11 12  1  6
 13 12  2  0
 15 14  1  1
 15 16  1  0
 15 17  1  0
 16 12  1  0
 17 18  2  0
 17 19  1  0
M  END
$$$$
