VIM.pdb
     RDKit          3D

 24 23  0  0  1  0  0  0  0  0999 V2000
    9.0257  -17.7618   20.7017 C   0  0  0  0  0  0  0  0  0  0  0  0
    7.6941  -17.0729   20.4917 C   0  0  2  0  0  0  0  0  0  0  0  0
    7.1153  -17.4322   19.1468 C   0  0  0  0  0  0  0  0  0  0  0  0
    7.9327  -15.5812   20.6342 C   0  0  2  0  0  0  0  0  0  0  0  0
    8.7350  -15.1000   19.5310 N   0  0  0  0  0  0  0  0  0  0  0  0
    8.5051  -15.2291   21.9483 C   0  0  0  0  0  0  0  0  0  0  0  0
    9.7548  -15.1315   22.0309 O   0  0  0  0  0  0  0  0  0  0  0  0
    5.7385  -12.3024   25.8810 C   0  0  0  0  0  0  0  0  0  0  0  0
    6.8343  -12.7255   24.9265 C   0  0  0  0  0  0  0  0  0  0  0  0
    7.3327  -14.0780   25.3560 C   0  0  2  0  0  0  0  0  0  0  0  0
    7.9094  -13.9549   26.7495 C   0  0  0  0  0  0  0  0  0  0  0  0
    8.3630  -14.6388   24.3964 C   0  0  2  0  0  0  0  0  0  0  0  0
    7.7427  -14.9930   23.1240 N   0  0  0  0  0  0  0  0  0  0  0  0
    9.0446  -15.8244   24.9437 C   0  0  0  0  0  0  0  0  0  0  0  0
    8.6296  -16.9668   24.6646 O   0  0  0  0  0  0  0  0  0  0  0  0
   11.2027  -13.3369   28.9212 C   0  0  0  0  0  0  0  0  0  0  0  0
   10.3871  -14.9391   28.8984 S   0  0  0  0  0  0  0  0  0  0  0  0
   11.5487  -16.3056   28.5977 C   0  0  0  0  0  0  0  0  0  0  0  0
   12.0054  -16.3283   27.1767 C   0  0  0  0  0  0  0  0  0  0  0  0
   10.9980  -16.8196   26.1892 C   0  0  2  0  0  0  0  0  0  0  0  0
   10.1674  -15.6787   25.7842 N   0  0  0  0  0  0  0  0  0  0  0  0
   10.1215  -17.8670   26.7143 C   0  0  0  0  0  0  0  0  0  0  0  0
    8.8497  -17.5534   27.1782 O   0  0  0  0  0  0  0  0  0  0  0  0
   10.5271  -19.0580   26.7437 O   0  0  0  0  0  0  0  0  0  0  0  0
  2  1  1  6
  3  2  1  0
  4  2  1  0
  4  6  1  0
  4  5  1  6
  6  7  2  0
  8  9  1  0
 10  9  1  0
 10 12  1  0
 10 11  1  1
 12 13  1  6
 13  6  1  0
 14 12  1  0
 14 15  2  0
 16 17  1  0
 17 18  1  0
 18 19  1  0
 20 19  1  1
 20 21  1  0
 20 22  1  0
 21 14  1  0
 22 24  2  0
 22 23  1  0
M  END
$$$$
