VIM.pdb
     RDKit          3D

 24 23  0  0  1  0  0  0  0  0999 V2000
    7.4949  -19.7130   25.0068 C   0  0  0  0  0  0  0  0  0  0  0  0
    6.0909  -19.4121   24.5275 C   0  0  2  0  0  0  0  0  0  0  0  0
    5.1653  -20.5614   24.8364 C   0  0  0  0  0  0  0  0  0  0  0  0
    6.1756  -19.1270   23.0395 C   0  0  2  0  0  0  0  0  0  0  0  0
    6.3704  -20.3602   22.3090 N   0  0  0  0  0  0  0  0  0  0  0  0
    7.1983  -18.1113   22.7217 C   0  0  0  0  0  0  0  0  0  0  0  0
    8.3752  -18.5095   22.5357 O   0  0  0  0  0  0  0  0  0  0  0  0
    6.0850  -13.5706   19.8738 C   0  0  0  0  0  0  0  0  0  0  0  0
    6.6970  -14.8477   20.4082 C   0  0  0  0  0  0  0  0  0  0  0  0
    7.4463  -14.5156   21.6693 C   0  0  2  0  0  0  0  0  0  0  0  0
    8.5547  -13.5447   21.3255 C   0  0  0  0  0  0  0  0  0  0  0  0
    8.0059  -15.7520   22.3440 C   0  0  2  0  0  0  0  0  0  0  0  0
    6.9450  -16.7175   22.6115 N   0  0  0  0  0  0  0  0  0  0  0  0
    8.6928  -15.4326   23.6073 C   0  0  0  0  0  0  0  0  0  0  0  0
    8.0762  -14.8532   24.5235 O   0  0  0  0  0  0  0  0  0  0  0  0
   10.4662  -13.4939   28.9259 C   0  0  0  0  0  0  0  0  0  0  0  0
    9.8144  -15.1484   28.6600 S   0  0  0  0  0  0  0  0  0  0  0  0
   10.8043  -16.1017   27.4691 C   0  0  0  0  0  0  0  0  0  0  0  0
   10.1171  -16.2019   26.1477 C   0  0  0  0  0  0  0  0  0  0  0  0
   10.7762  -15.4664   25.0270 C   0  0  2  0  0  0  0  0  0  0  0  0
   10.0477  -15.7775   23.7909 N   0  0  0  0  0  0  0  0  0  0  0  0
   12.1830  -15.8214   24.8371 C   0  0  0  0  0  0  0  0  0  0  0  0
   13.1454  -15.3937   25.7437 O   0  0  0  0  0  0  0  0  0  0  0  0
   12.5181  -16.5190   23.8446 O   0  0  0  0  0  0  0  0  0  0  0  0
  2  1  1  6
  3  2  1  0
  4  2  1  0
  4  6  1  0
  4  5  1  6
  6  7  2  0
  8  9  1  0
 10  9  1  0
 10 12  1  0
 10 11  1  6
 12 13  1  1
 13  6  1  0
 14 12  1  0
 14 15  2  0
 16 17  1  0
 17 18  1  0
 18 19  1  0
 20 19  1  1
 20 21  1  0
 20 22  1  0
 21 14  1  0
 22 24  2  0
 22 23  1  0
M  END
$$$$
