VIM.pdb
     RDKit          3D

 24 23  0  0  1  0  0  0  0  0999 V2000
    6.9729  -16.9693   19.6018 C   0  0  0  0  0  0  0  0  0  0  0  0
    7.7396  -16.7722   20.8921 C   0  0  2  0  0  0  0  0  0  0  0  0
    7.1605  -17.6265   21.9911 C   0  0  0  0  0  0  0  0  0  0  0  0
    7.6851  -15.2929   21.2256 C   0  0  2  0  0  0  0  0  0  0  0  0
    8.2440  -14.5190   20.1388 N   0  0  0  0  0  0  0  0  0  0  0  0
    8.3181  -14.9883   22.5237 C   0  0  0  0  0  0  0  0  0  0  0  0
    9.5731  -15.0076   22.5774 O   0  0  0  0  0  0  0  0  0  0  0  0
    6.0832  -11.5583   26.1499 C   0  0  0  0  0  0  0  0  0  0  0  0
    7.0975  -12.2536   25.2673 C   0  0  0  0  0  0  0  0  0  0  0  0
    7.4336  -13.5786   25.8947 C   0  0  2  0  0  0  0  0  0  0  0  0
    8.1417  -13.3208   27.2068 C   0  0  0  0  0  0  0  0  0  0  0  0
    8.2854  -14.4418   24.9857 C   0  0  2  0  0  0  0  0  0  0  0  0
    7.6085  -14.6750   23.7142 N   0  0  0  0  0  0  0  0  0  0  0  0
    8.6130  -15.7402   25.5995 C   0  0  0  0  0  0  0  0  0  0  0  0
    7.7159  -16.5864   25.7851 O   0  0  0  0  0  0  0  0  0  0  0  0
   13.8619  -19.3956   24.0322 C   0  0  0  0  0  0  0  0  0  0  0  0
   13.8689  -19.3067   25.8280 S   0  0  0  0  0  0  0  0  0  0  0  0
   12.2142  -18.9942   26.5143 C   0  0  0  0  0  0  0  0  0  0  0  0
   11.6295  -17.7327   25.9711 C   0  0  0  0  0  0  0  0  0  0  0  0
   10.3170  -17.3308   26.5604 C   0  0  2  0  0  0  0  0  0  0  0  0
    9.9378  -16.0363   25.9808 N   0  0  0  0  0  0  0  0  0  0  0  0
   10.3427  -17.1960   28.0172 C   0  0  0  0  0  0  0  0  0  0  0  0
   10.3615  -18.3243   28.8282 O   0  0  0  0  0  0  0  0  0  0  0  0
   10.3480  -16.0484   28.5339 O   0  0  0  0  0  0  0  0  0  0  0  0
  2  1  1  6
  3  2  1  0
  4  2  1  0
  4  6  1  0
  4  5  1  6
  6  7  2  0
  8  9  1  0
 10  9  1  0
 10 12  1  0
 10 11  1  1
 12 13  1  6
 13  6  1  0
 14 12  1  0
 14 15  2  0
 16 17  1  0
 17 18  1  0
 18 19  1  0
 20 19  1  6
 20 21  1  0
 20 22  1  0
 21 14  1  0
 22 24  2  0
 22 23  1  0
M  END
$$$$
