VIM.pdb
     RDKit          3D

 24 23  0  0  1  0  0  0  0  0999 V2000
    8.8496  -17.9847   21.9887 C   0  0  0  0  0  0  0  0  0  0  0  0
    7.5614  -17.2207   21.7684 C   0  0  2  0  0  0  0  0  0  0  0  0
    6.9181  -17.6264   20.4667 C   0  0  0  0  0  0  0  0  0  0  0  0
    7.9039  -15.7429   21.8036 C   0  0  2  0  0  0  0  0  0  0  0  0
    8.7544  -15.4045   20.6835 N   0  0  0  0  0  0  0  0  0  0  0  0
    8.4811  -15.3330   23.0988 C   0  0  0  0  0  0  0  0  0  0  0  0
    9.7332  -15.3240   23.2006 O   0  0  0  0  0  0  0  0  0  0  0  0
    5.8308  -11.7788   26.1832 C   0  0  0  0  0  0  0  0  0  0  0  0
    6.9994  -12.4278   25.4731 C   0  0  0  0  0  0  0  0  0  0  0  0
    7.4264  -13.6270   26.2742 C   0  0  2  0  0  0  0  0  0  0  0  0
    8.1029  -13.1420   27.5377 C   0  0  0  0  0  0  0  0  0  0  0  0
    8.3465  -14.5404   25.4894 C   0  0  2  0  0  0  0  0  0  0  0  0
    7.7208  -14.9485   24.2360 N   0  0  0  0  0  0  0  0  0  0  0  0
    8.7185  -15.7437   26.2533 C   0  0  0  0  0  0  0  0  0  0  0  0
    7.8515  -16.5928   26.5408 O   0  0  0  0  0  0  0  0  0  0  0  0
   13.0836  -18.9668   22.9450 C   0  0  0  0  0  0  0  0  0  0  0  0
   13.1751  -18.5981   24.7024 S   0  0  0  0  0  0  0  0  0  0  0  0
   11.6281  -17.8905   25.3451 C   0  0  0  0  0  0  0  0  0  0  0  0
   11.6993  -17.6778   26.8209 C   0  0  0  0  0  0  0  0  0  0  0  0
   10.4638  -17.1176   27.4464 C   0  0  2  0  0  0  0  0  0  0  0  0
   10.0522  -15.9452   26.6644 N   0  0  0  0  0  0  0  0  0  0  0  0
   10.6442  -16.7054   28.8387 C   0  0  0  0  0  0  0  0  0  0  0  0
   10.6514  -15.3579   29.1785 O   0  0  0  0  0  0  0  0  0  0  0  0
   10.7932  -17.5809   29.7304 O   0  0  0  0  0  0  0  0  0  0  0  0
  2  1  1  6
  3  2  1  0
  4  2  1  0
  4  6  1  0
  4  5  1  6
  6  7  2  0
  8  9  1  0
 10  9  1  0
 10 12  1  0
 10 11  1  1
 12 13  1  6
 13  6  1  0
 14 12  1  0
 14 15  2  0
 16 17  1  0
 17 18  1  0
 18 19  1  0
 20 19  1  6
 20 21  1  0
 20 22  1  0
 21 14  1  0
 22 24  2  0
 22 23  1  0
M  END
$$$$
