VIM.pdb
     RDKit          3D

 24 23  0  0  1  0  0  0  0  0999 V2000
    8.3522  -13.0606   18.6445 C   0  0  0  0  0  0  0  0  0  0  0  0
    7.7362  -13.4217   19.9793 C   0  0  2  0  0  0  0  0  0  0  0  0
    8.4465  -12.7105   21.1030 C   0  0  0  0  0  0  0  0  0  0  0  0
    7.8128  -14.9310   20.1158 C   0  0  2  0  0  0  0  0  0  0  0  0
    7.2197  -15.5640   18.9582 N   0  0  0  0  0  0  0  0  0  0  0  0
    7.2295  -15.4084   21.3849 C   0  0  0  0  0  0  0  0  0  0  0  0
    5.9984  -15.2317   21.5619 O   0  0  0  0  0  0  0  0  0  0  0  0
    6.4462  -20.1717   22.6201 C   0  0  0  0  0  0  0  0  0  0  0  0
    6.3608  -18.6612   22.5728 C   0  0  0  0  0  0  0  0  0  0  0  0
    7.3237  -18.1060   23.5861 C   0  0  2  0  0  0  0  0  0  0  0  0
    6.9641  -18.6661   24.9449 C   0  0  0  0  0  0  0  0  0  0  0  0
    7.3165  -16.5907   23.6111 C   0  0  2  0  0  0  0  0  0  0  0  0
    7.9619  -16.0528   22.4180 N   0  0  0  0  0  0  0  0  0  0  0  0
    7.9904  -16.0516   24.8048 C   0  0  0  0  0  0  0  0  0  0  0  0
    7.4778  -16.2019   25.9317 O   0  0  0  0  0  0  0  0  0  0  0  0
    6.3780  -11.3606   26.3869 C   0  0  0  0  0  0  0  0  0  0  0  0
    7.4888  -11.8217   27.7235 S   0  0  0  0  0  0  0  0  0  0  0  0
    8.3170  -13.4121   27.4208 C   0  0  0  0  0  0  0  0  0  0  0  0
    8.9809  -13.4337   26.0840 C   0  0  0  0  0  0  0  0  0  0  0  0
    9.8213  -14.6372   25.8070 C   0  0  2  0  0  0  0  0  0  0  0  0
    9.2155  -15.3639   24.6844 N   0  0  0  0  0  0  0  0  0  0  0  0
    9.9328  -15.5514   26.9441 C   0  0  0  0  0  0  0  0  0  0  0  0
   10.7393  -15.2301   28.0291 O   0  0  0  0  0  0  0  0  0  0  0  0
    9.2918  -16.6344   26.9343 O   0  0  0  0  0  0  0  0  0  0  0  0
  2  1  1  6
  3  2  1  0
  4  2  1  0
  4  6  1  0
  4  5  1  6
  6  7  2  0
  8  9  1  0
 10  9  1  0
 10 12  1  0
 10 11  1  1
 12 13  1  6
 13  6  1  0
 14 12  1  0
 14 15  2  0
 16 17  1  0
 17 18  1  0
 18 19  1  0
 20 19  1  1
 20 21  1  0
 20 22  1  0
 21 14  1  0
 22 24  2  0
 22 23  1  0
M  END
$$$$
