VIM.pdb
     RDKit          3D

 24 23  0  0  1  0  0  0  0  0999 V2000
    7.3132  -13.9669   20.3885 C   0  0  0  0  0  0  0  0  0  0  0  0
    8.2404  -15.0088   19.7999 C   0  0  2  0  0  0  0  0  0  0  0  0
    7.6736  -15.5614   18.5168 C   0  0  0  0  0  0  0  0  0  0  0  0
    8.4335  -16.0844   20.8526 C   0  0  2  0  0  0  0  0  0  0  0  0
    7.2161  -16.8500   21.0080 N   0  0  0  0  0  0  0  0  0  0  0  0
    8.9252  -15.5343   22.1309 C   0  0  0  0  0  0  0  0  0  0  0  0
   10.0009  -14.8858   22.1096 O   0  0  0  0  0  0  0  0  0  0  0  0
    6.0569  -12.7693   25.6299 C   0  0  0  0  0  0  0  0  0  0  0  0
    7.1635  -13.3215   24.7571 C   0  0  0  0  0  0  0  0  0  0  0  0
    7.7725  -14.5012   25.4639 C   0  0  2  0  0  0  0  0  0  0  0  0
    8.3487  -14.0254   26.7796 C   0  0  0  0  0  0  0  0  0  0  0  0
    8.8367  -15.1821   24.6268 C   0  0  2  0  0  0  0  0  0  0  0  0
    8.2678  -15.6866   23.3814 N   0  0  0  0  0  0  0  0  0  0  0  0
    9.4806  -16.2953   25.3452 C   0  0  0  0  0  0  0  0  0  0  0  0
    9.4125  -17.4541   24.8895 O   0  0  0  0  0  0  0  0  0  0  0  0
    9.5279  -14.0195   29.5798 C   0  0  0  0  0  0  0  0  0  0  0  0
   11.3238  -14.0634   29.6542 S   0  0  0  0  0  0  0  0  0  0  0  0
   12.0468  -15.1199   28.3627 C   0  0  0  0  0  0  0  0  0  0  0  0
   11.5434  -16.5218   28.4620 C   0  0  0  0  0  0  0  0  0  0  0  0
   10.9940  -17.0948   27.1966 C   0  0  2  0  0  0  0  0  0  0  0  0
   10.1765  -16.0614   26.5491 N   0  0  0  0  0  0  0  0  0  0  0  0
   10.1633  -18.2820   27.4003 C   0  0  0  0  0  0  0  0  0  0  0  0
   10.7497  -19.5292   27.5785 O   0  0  0  0  0  0  0  0  0  0  0  0
    8.9100  -18.1673   27.4134 O   0  0  0  0  0  0  0  0  0  0  0  0
  2  1  1  1
  3  2  1  0
  4  2  1  0
  4  6  1  0
  4  5  1  1
  6  7  2  0
  8  9  1  0
 10  9  1  0
 10 12  1  0
 10 11  1  1
 12 13  1  6
 13  6  1  0
 14 12  1  0
 14 15  2  0
 16 17  1  0
 17 18  1  0
 18 19  1  0
 20 19  1  1
 20 21  1  0
 20 22  1  0
 21 14  1  0
 22 24  2  0
 22 23  1  0
M  END
$$$$
