VIM.pdb
     RDKit          3D

 24 23  0  0  1  0  0  0  0  0999 V2000
    8.2977  -19.4916   24.7197 C   0  0  0  0  0  0  0  0  0  0  0  0
    7.2948  -19.1346   25.7961 C   0  0  2  0  0  0  0  0  0  0  0  0
    6.7057  -20.3799   26.4086 C   0  0  0  0  0  0  0  0  0  0  0  0
    6.2383  -18.2562   25.1523 C   0  0  2  0  0  0  0  0  0  0  0  0
    5.4982  -19.0130   24.1664 N   0  0  0  0  0  0  0  0  0  0  0  0
    6.8062  -17.0099   24.6020 C   0  0  0  0  0  0  0  0  0  0  0  0
    7.0391  -16.9721   23.3682 O   0  0  0  0  0  0  0  0  0  0  0  0
    5.1623  -12.3255   26.6176 C   0  0  0  0  0  0  0  0  0  0  0  0
    5.5754  -13.2795   25.5174 C   0  0  0  0  0  0  0  0  0  0  0  0
    7.0732  -13.4122   25.5509 C   0  0  2  0  0  0  0  0  0  0  0  0
    7.6789  -12.1322   25.0179 C   0  0  0  0  0  0  0  0  0  0  0  0
    7.5590  -14.6076   24.7560 C   0  0  2  0  0  0  0  0  0  0  0  0
    7.1068  -15.8521   25.3691 N   0  0  0  0  0  0  0  0  0  0  0  0
    9.0271  -14.6371   24.6385 C   0  0  0  0  0  0  0  0  0  0  0  0
    9.6631  -13.5736   24.4986 O   0  0  0  0  0  0  0  0  0  0  0  0
   10.4992  -13.3906   28.9768 C   0  0  0  0  0  0  0  0  0  0  0  0
   11.0752  -15.0167   29.4835 S   0  0  0  0  0  0  0  0  0  0  0  0
   11.3617  -16.1237   28.0695 C   0  0  0  0  0  0  0  0  0  0  0  0
   10.3483  -15.9070   26.9951 C   0  0  0  0  0  0  0  0  0  0  0  0
   10.8462  -16.0947   25.5993 C   0  0  2  0  0  0  0  0  0  0  0  0
    9.7230  -15.8627   24.6829 N   0  0  0  0  0  0  0  0  0  0  0  0
   11.3857  -17.4302   25.3417 C   0  0  0  0  0  0  0  0  0  0  0  0
   12.6119  -17.8089   25.8747 O   0  0  0  0  0  0  0  0  0  0  0  0
   10.7307  -18.2374   24.6322 O   0  0  0  0  0  0  0  0  0  0  0  0
  2  1  1  6
  3  2  1  0
  4  2  1  0
  4  6  1  0
  4  5  1  6
  6  7  2  0
  8  9  1  0
 10  9  1  0
 10 12  1  0
 10 11  1  6
 12 13  1  1
 13  6  1  0
 14 12  1  0
 14 15  2  0
 16 17  1  0
 17 18  1  0
 18 19  1  0
 20 19  1  1
 20 21  1  0
 20 22  1  0
 21 14  1  0
 22 24  2  0
 22 23  1  0
M  END
$$$$
