VIM.pdb
     RDKit          3D

 24 23  0  0  1  0  0  0  0  0999 V2000
    8.3495  -17.8650   22.2470 C   0  0  0  0  0  0  0  0  0  0  0  0
    6.9965  -17.2129   22.0580 C   0  0  2  0  0  0  0  0  0  0  0  0
    6.2757  -17.8148   20.8785 C   0  0  0  0  0  0  0  0  0  0  0  0
    7.2353  -15.7243   21.8864 C   0  0  2  0  0  0  0  0  0  0  0  0
    7.9338  -15.4744   20.6446 N   0  0  0  0  0  0  0  0  0  0  0  0
    7.9184  -15.1292   23.0516 C   0  0  0  0  0  0  0  0  0  0  0  0
    9.1743  -15.1023   23.0382 O   0  0  0  0  0  0  0  0  0  0  0  0
    5.5444  -11.4015   26.2780 C   0  0  0  0  0  0  0  0  0  0  0  0
    6.6330  -12.0722   25.4679 C   0  0  0  0  0  0  0  0  0  0  0  0
    7.1240  -13.2653   26.2410 C   0  0  2  0  0  0  0  0  0  0  0  0
    7.9033  -12.7707   27.4399 C   0  0  0  0  0  0  0  0  0  0  0  0
    7.9751  -14.1867   25.3904 C   0  0  2  0  0  0  0  0  0  0  0  0
    7.2559  -14.5854   24.1850 N   0  0  0  0  0  0  0  0  0  0  0  0
    8.3886  -15.3954   26.1237 C   0  0  0  0  0  0  0  0  0  0  0  0
    7.5654  -16.3075   26.3374 O   0  0  0  0  0  0  0  0  0  0  0  0
   13.8940  -18.0564   24.7431 C   0  0  0  0  0  0  0  0  0  0  0  0
   13.0176  -19.3307   25.6602 S   0  0  0  0  0  0  0  0  0  0  0  0
   11.8348  -18.6375   26.8549 C   0  0  0  0  0  0  0  0  0  0  0  0
   11.2094  -17.3850   26.3366 C   0  0  0  0  0  0  0  0  0  0  0  0
   10.1956  -16.7571   27.2363 C   0  0  2  0  0  0  0  0  0  0  0  0
    9.7129  -15.5312   26.5885 N   0  0  0  0  0  0  0  0  0  0  0  0
   10.7177  -16.4077   28.5577 C   0  0  0  0  0  0  0  0  0  0  0  0
   10.8712  -15.0760   28.9243 O   0  0  0  0  0  0  0  0  0  0  0  0
   11.0281  -17.3229   29.3639 O   0  0  0  0  0  0  0  0  0  0  0  0
  2  1  1  6
  3  2  1  0
  4  2  1  0
  4  6  1  0
  4  5  1  6
  6  7  2  0
  8  9  1  0
 10  9  1  0
 10 12  1  0
 10 11  1  1
 12 13  1  6
 13  6  1  0
 14 12  1  0
 14 15  2  0
 16 17  1  0
 17 18  1  0
 18 19  1  0
 20 19  1  6
 20 21  1  0
 20 22  1  0
 21 14  1  0
 22 24  2  0
 22 23  1  0
M  END
$$$$
