VIM.pdb
     RDKit          3D

 24 23  0  0  1  0  0  0  0  0999 V2000
   11.3797  -16.1694   18.4083 C   0  0  0  0  0  0  0  0  0  0  0  0
   12.6916  -16.6131   19.0197 C   0  0  2  0  0  0  0  0  0  0  0  0
   13.4535  -17.4946   18.0628 C   0  0  0  0  0  0  0  0  0  0  0  0
   12.3637  -17.3250   20.3190 C   0  0  2  0  0  0  0  0  0  0  0  0
   11.8235  -18.6380   20.0421 N   0  0  0  0  0  0  0  0  0  0  0  0
   11.4842  -16.5216   21.1906 C   0  0  0  0  0  0  0  0  0  0  0  0
   11.8296  -15.3384   21.4333 O   0  0  0  0  0  0  0  0  0  0  0  0
    6.3511  -15.4396   20.8096 C   0  0  0  0  0  0  0  0  0  0  0  0
    7.8370  -15.4298   21.0979 C   0  0  0  0  0  0  0  0  0  0  0  0
    8.0662  -16.1493   22.3986 C   0  0  2  0  0  0  0  0  0  0  0  0
    7.2780  -15.4441   23.4807 C   0  0  0  0  0  0  0  0  0  0  0  0
    9.5357  -16.2175   22.7629 C   0  0  2  0  0  0  0  0  0  0  0  0
   10.2764  -16.9922   21.7728 N   0  0  0  0  0  0  0  0  0  0  0  0
    9.7511  -16.8103   24.0941 C   0  0  0  0  0  0  0  0  0  0  0  0
    9.9341  -18.0386   24.2077 O   0  0  0  0  0  0  0  0  0  0  0  0
   10.0588  -12.4384   28.4827 C   0  0  0  0  0  0  0  0  0  0  0  0
   11.0565  -13.6587   29.3478 S   0  0  0  0  0  0  0  0  0  0  0  0
   11.0939  -15.2608   28.4882 C   0  0  0  0  0  0  0  0  0  0  0  0
    9.9328  -15.4079   27.5615 C   0  0  0  0  0  0  0  0  0  0  0  0
   10.0335  -16.5332   26.5842 C   0  0  2  0  0  0  0  0  0  0  0  0
    9.7522  -15.9977   25.2465 N   0  0  0  0  0  0  0  0  0  0  0  0
    9.1004  -17.6285   26.8500 C   0  0  0  0  0  0  0  0  0  0  0  0
    9.5392  -18.7919   27.4706 O   0  0  0  0  0  0  0  0  0  0  0  0
    7.8937  -17.5111   26.5124 O   0  0  0  0  0  0  0  0  0  0  0  0
  2  1  1  6
  3  2  1  0
  4  2  1  0
  4  6  1  0
  4  5  1  6
  6  7  2  0
  8  9  1  0
 10  9  1  0
 10 12  1  0
 10 11  1  1
 12 13  1  6
 13  6  1  0
 14 12  1  0
 14 15  2  0
 16 17  1  0
 17 18  1  0
 18 19  1  0
 20 19  1  1
 20 21  1  0
 20 22  1  0
 21 14  1  0
 22 24  2  0
 22 23  1  0
M  END
$$$$
