VIM.pdb
     RDKit          3D

 24 23  0  0  1  0  0  0  0  0999 V2000
    6.0361  -15.6033   20.6598 C   0  0  0  0  0  0  0  0  0  0  0  0
    7.0278  -16.6759   20.2627 C   0  0  2  0  0  0  0  0  0  0  0  0
    6.3283  -17.8164   19.5677 C   0  0  0  0  0  0  0  0  0  0  0  0
    7.7369  -17.1226   21.5277 C   0  0  2  0  0  0  0  0  0  0  0  0
    6.8341  -17.8905   22.3570 N   0  0  0  0  0  0  0  0  0  0  0  0
    8.3521  -15.9937   22.2527 C   0  0  0  0  0  0  0  0  0  0  0  0
    9.1641  -15.2713   21.6226 O   0  0  0  0  0  0  0  0  0  0  0  0
    5.6767  -13.0823   26.0125 C   0  0  0  0  0  0  0  0  0  0  0  0
    6.5697  -13.4257   24.8396 C   0  0  0  0  0  0  0  0  0  0  0  0
    7.8537  -13.9933   25.3793 C   0  0  2  0  0  0  0  0  0  0  0  0
    8.5705  -12.9064   26.1502 C   0  0  0  0  0  0  0  0  0  0  0  0
    8.7402  -14.5465   24.2816 C   0  0  2  0  0  0  0  0  0  0  0  0
    8.0903  -15.6676   23.6107 N   0  0  0  0  0  0  0  0  0  0  0  0
   10.0489  -14.9878   24.7938 C   0  0  0  0  0  0  0  0  0  0  0  0
   10.9784  -14.1662   24.9205 O   0  0  0  0  0  0  0  0  0  0  0  0
   12.0317  -14.0478   29.6484 C   0  0  0  0  0  0  0  0  0  0  0  0
   10.4162  -14.8173   29.8247 S   0  0  0  0  0  0  0  0  0  0  0  0
   10.2909  -16.3859   28.9135 C   0  0  0  0  0  0  0  0  0  0  0  0
    9.8658  -16.1614   27.5002 C   0  0  0  0  0  0  0  0  0  0  0  0
   10.7728  -16.7352   26.4611 C   0  0  2  0  0  0  0  0  0  0  0  0
   10.2611  -16.3372   25.1439 N   0  0  0  0  0  0  0  0  0  0  0  0
   10.8637  -18.1950   26.5007 C   0  0  0  0  0  0  0  0  0  0  0  0
   11.5565  -18.8296   27.5246 O   0  0  0  0  0  0  0  0  0  0  0  0
   10.3088  -18.8757   25.5991 O   0  0  0  0  0  0  0  0  0  0  0  0
  2  1  1  1
  3  2  1  0
  4  2  1  0
  4  6  1  0
  4  5  1  1
  6  7  2  0
  8  9  1  0
 10  9  1  0
 10 12  1  0
 10 11  1  6
 12 13  1  1
 13  6  1  0
 14 12  1  0
 14 15  2  0
 16 17  1  0
 17 18  1  0
 18 19  1  0
 20 19  1  1
 20 21  1  0
 20 22  1  0
 21 14  1  0
 22 24  2  0
 22 23  1  0
M  END
$$$$
