VIM.pdb
     RDKit          3D

 24 23  0  0  1  0  0  0  0  0999 V2000
    5.9172  -15.4562   20.7243 C   0  0  0  0  0  0  0  0  0  0  0  0
    6.8276  -16.5811   20.2799 C   0  0  2  0  0  0  0  0  0  0  0  0
    6.0587  -17.6051   19.4842 C   0  0  0  0  0  0  0  0  0  0  0  0
    7.4510  -17.1747   21.5294 C   0  0  2  0  0  0  0  0  0  0  0  0
    6.4465  -17.8747   22.2999 N   0  0  0  0  0  0  0  0  0  0  0  0
    8.1766  -16.1661   22.3261 C   0  0  0  0  0  0  0  0  0  0  0  0
    9.2033  -15.6515   21.8170 O   0  0  0  0  0  0  0  0  0  0  0  0
    5.4335  -13.0882   25.9803 C   0  0  0  0  0  0  0  0  0  0  0  0
    6.3394  -13.4659   24.8279 C   0  0  0  0  0  0  0  0  0  0  0  0
    7.5980  -14.0607   25.3975 C   0  0  2  0  0  0  0  0  0  0  0  0
    8.3333  -12.9819   26.1622 C   0  0  0  0  0  0  0  0  0  0  0  0
    8.4854  -14.6569   24.3233 C   0  0  2  0  0  0  0  0  0  0  0  0
    7.7952  -15.7371   23.6260 N   0  0  0  0  0  0  0  0  0  0  0  0
    9.7516  -15.1725   24.8717 C   0  0  0  0  0  0  0  0  0  0  0  0
   10.7723  -14.4562   24.8638 O   0  0  0  0  0  0  0  0  0  0  0  0
   10.2863  -13.3527   29.3685 C   0  0  0  0  0  0  0  0  0  0  0  0
   11.0199  -14.8207   30.1031 S   0  0  0  0  0  0  0  0  0  0  0  0
   10.9984  -16.2467   28.9750 C   0  0  0  0  0  0  0  0  0  0  0  0
   10.3729  -15.8951   27.6660 C   0  0  0  0  0  0  0  0  0  0  0  0
   10.6985  -16.8144   26.5344 C   0  0  2  0  0  0  0  0  0  0  0  0
    9.8202  -16.4748   25.4081 N   0  0  0  0  0  0  0  0  0  0  0  0
   10.5140  -18.2302   26.8548 C   0  0  0  0  0  0  0  0  0  0  0  0
   11.5157  -18.9410   27.5047 O   0  0  0  0  0  0  0  0  0  0  0  0
    9.4392  -18.8029   26.5375 O   0  0  0  0  0  0  0  0  0  0  0  0
  2  1  1  1
  3  2  1  0
  4  2  1  0
  4  6  1  0
  4  5  1  1
  6  7  2  0
  8  9  1  0
 10  9  1  0
 10 12  1  0
 10 11  1  6
 12 13  1  1
 13  6  1  0
 14 12  1  0
 14 15  2  0
 16 17  1  0
 17 18  1  0
 18 19  1  0
 20 19  1  1
 20 21  1  0
 20 22  1  0
 21 14  1  0
 22 24  2  0
 22 23  1  0
M  END
$$$$
