VIM.pdb
     RDKit          3D

 24 23  0  0  1  0  0  0  0  0999 V2000
    6.1070  -15.4814   18.7958 C   0  0  0  0  0  0  0  0  0  0  0  0
    7.0943  -14.8403   19.7476 C   0  0  2  0  0  0  0  0  0  0  0  0
    8.3566  -14.4499   19.0215 C   0  0  0  0  0  0  0  0  0  0  0  0
    7.3572  -15.8372   20.8609 C   0  0  2  0  0  0  0  0  0  0  0  0
    6.1253  -16.4947   21.2386 N   0  0  0  0  0  0  0  0  0  0  0  0
    8.0481  -15.2222   22.0111 C   0  0  0  0  0  0  0  0  0  0  0  0
    9.1118  -14.5941   21.7826 O   0  0  0  0  0  0  0  0  0  0  0  0
    5.5554  -12.4740   25.7891 C   0  0  0  0  0  0  0  0  0  0  0  0
    6.5317  -13.0074   24.7628 C   0  0  0  0  0  0  0  0  0  0  0  0
    7.4156  -14.0192   25.4391 C   0  0  2  0  0  0  0  0  0  0  0  0
    8.2014  -13.3177   26.5253 C   0  0  0  0  0  0  0  0  0  0  0  0
    8.3472  -14.7080   24.4622 C   0  0  2  0  0  0  0  0  0  0  0  0
    7.5946  -15.2905   23.3561 N   0  0  0  0  0  0  0  0  0  0  0  0
    9.1461  -15.7643   25.1071 C   0  0  0  0  0  0  0  0  0  0  0  0
    8.5820  -16.7671   25.5880 O   0  0  0  0  0  0  0  0  0  0  0  0
   10.9989  -12.8819   29.5782 C   0  0  0  0  0  0  0  0  0  0  0  0
   10.9591  -14.5795   30.1691 S   0  0  0  0  0  0  0  0  0  0  0  0
   11.3674  -15.7788   28.8645 C   0  0  0  0  0  0  0  0  0  0  0  0
   10.7598  -15.3888   27.5579 C   0  0  0  0  0  0  0  0  0  0  0  0
   11.3079  -16.0960   26.3616 C   0  0  2  0  0  0  0  0  0  0  0  0
   10.5495  -15.6512   25.1859 N   0  0  0  0  0  0  0  0  0  0  0  0
   11.2166  -17.5539   26.4470 C   0  0  0  0  0  0  0  0  0  0  0  0
   12.3284  -18.3452   26.1844 O   0  0  0  0  0  0  0  0  0  0  0  0
   10.1219  -18.0895   26.7609 O   0  0  0  0  0  0  0  0  0  0  0  0
  2  1  1  6
  3  2  1  0
  4  2  1  0
  4  6  1  0
  4  5  1  1
  6  7  2  0
  8  9  1  0
 10  9  1  0
 10 12  1  0
 10 11  1  1
 12 13  1  6
 13  6  1  0
 14 12  1  0
 14 15  2  0
 16 17  1  0
 17 18  1  0
 18 19  1  0
 20 19  1  1
 20 21  1  0
 20 22  1  0
 21 14  1  0
 22 24  2  0
 22 23  1  0
M  END
$$$$
