SHY.pdb
     RDKit          3D

 29 30  0  0  1  0  0  0  0  0999 V2000
    7.4864  -18.8492   17.9052 O   0  0  0  0  0  0  0  0  0  0  0  0
    8.2385  -19.7108   18.6876 C   0  0  0  0  0  0  0  0  0  0  0  0
    8.4703  -19.1654   20.0794 C   0  0  2  0  0  0  0  0  0  0  0  0
    7.1821  -18.8127   20.6333 N   0  0  0  0  0  0  0  0  0  0  0  0
    9.2844  -17.9180   19.9364 C   0  0  0  0  0  0  0  0  0  0  0  0
   10.4339  -17.9313   19.4253 O   0  0  0  0  0  0  0  0  0  0  0  0
    8.7678  -16.6607   20.3842 N   0  0  0  0  0  0  0  0  0  0  0  0
    9.5249  -15.4385   20.2006 C   0  0  1  0  0  0  0  0  0  0  0  0
    8.6653  -14.3199   19.6507 C   0  0  0  0  0  0  0  0  0  0  0  0
    8.4238  -14.4305   18.2083 C   0  0  0  0  0  0  0  0  0  0  0  0
    9.0082  -15.3924   17.3889 C   0  0  0  0  0  0  0  0  0  0  0  0
    8.5532  -15.1772   16.1559 N   0  0  0  0  0  0  0  0  0  0  0  0
    7.7178  -14.1253   16.1941 C   0  0  0  0  0  0  0  0  0  0  0  0
    7.6292  -13.6530   17.4625 N   0  0  0  0  0  0  0  0  0  0  0  0
   10.1221  -15.0175   21.5078 C   0  0  0  0  0  0  0  0  0  0  0  0
   10.7992  -13.9589   21.5635 O   0  0  0  0  0  0  0  0  0  0  0  0
    6.2649  -11.7744   28.2361 O   0  0  0  0  0  0  0  0  0  0  0  0
    6.7238  -12.4785   27.1216 C   0  0  0  0  0  0  0  0  0  0  0  0
    7.6677  -11.9645   26.2639 C   0  0  0  0  0  0  0  0  0  0  0  0
    8.1078  -12.6750   25.1696 C   0  0  0  0  0  0  0  0  0  0  0  0
    7.6110  -13.9519   24.8855 C   0  0  0  0  0  0  0  0  0  0  0  0
    8.0883  -14.6748   23.6928 C   0  0  0  0  0  0  0  0  0  0  0  0
    9.4888  -15.1839   23.9302 C   0  0  2  0  0  0  0  0  0  0  0  0
    9.9508  -15.7719   22.6880 N   0  0  0  0  0  0  0  0  0  0  0  0
    9.4677  -16.2348   24.9672 C   0  0  0  0  0  0  0  0  0  0  0  0
    9.4546  -17.5984   24.7193 O   0  0  0  0  0  0  0  0  0  0  0  0
    6.6673  -14.4724   25.7374 C   0  0  0  0  0  0  0  0  0  0  0  0
    6.2330  -13.7352   26.8440 C   0  0  0  0  0  0  0  0  0  0  0  0
    9.4579  -15.9123   26.1960 O   0  0  0  0  0  0  0  0  0  0  0  0
  2  1  1  0
  3  2  1  0
  3  4  1  6
  5  3  1  0
  5  7  1  0
  6  5  2  0
  8  7  1  0
  8  9  1  1
 10  9  1  0
 11 10  2  0
 12 13  1  0
 12 11  1  0
 13 14  2  0
 14 10  1  0
 15  8  1  0
 16 15  2  0
 17 18  1  0
 18 19  2  0
 18 28  1  0
 19 20  1  0
 20 21  2  0
 21 22  1  0
 23 22  1  6
 23 24  1  0
 23 25  1  0
 24 15  1  0
 25 26  1  0
 27 21  1  0
 28 27  2  0
 29 25  2  0
M  END
$$$$
