SHY.pdb
     RDKit          3D

 29 30  0  0  1  0  0  0  0  0999 V2000
    9.1553  -12.2655   20.6012 O   0  0  0  0  0  0  0  0  0  0  0  0
    8.3854  -12.4976   19.4727 C   0  0  0  0  0  0  0  0  0  0  0  0
    8.6016  -13.8840   18.9075 C   0  0  2  0  0  0  0  0  0  0  0  0
    7.7750  -14.0116   17.7281 N   0  0  0  0  0  0  0  0  0  0  0  0
    8.1201  -14.8607   19.9338 C   0  0  0  0  0  0  0  0  0  0  0  0
    6.9015  -15.1493   20.0545 O   0  0  0  0  0  0  0  0  0  0  0  0
    9.0476  -15.5001   20.8165 N   0  0  0  0  0  0  0  0  0  0  0  0
    8.5887  -16.4254   21.8333 C   0  0  1  0  0  0  0  0  0  0  0  0
    8.8463  -17.8655   21.4428 C   0  0  0  0  0  0  0  0  0  0  0  0
   10.2311  -18.1145   21.0287 C   0  0  0  0  0  0  0  0  0  0  0  0
   11.1607  -17.1124   20.7645 C   0  0  0  0  0  0  0  0  0  0  0  0
   12.2952  -17.7191   20.4205 N   0  0  0  0  0  0  0  0  0  0  0  0
   12.0918  -19.0467   20.4653 C   0  0  0  0  0  0  0  0  0  0  0  0
   10.8144  -19.3048   20.8415 N   0  0  0  0  0  0  0  0  0  0  0  0
    9.2747  -16.1258   23.1303 C   0  0  0  0  0  0  0  0  0  0  0  0
   10.4089  -15.5821   23.1163 O   0  0  0  0  0  0  0  0  0  0  0  0
    5.9107  -10.7477   25.5098 O   0  0  0  0  0  0  0  0  0  0  0  0
    6.4845  -11.9885   25.7924 C   0  0  0  0  0  0  0  0  0  0  0  0
    7.8106  -12.1263   26.1293 C   0  0  0  0  0  0  0  0  0  0  0  0
    8.3580  -13.3593   26.4049 C   0  0  0  0  0  0  0  0  0  0  0  0
    7.5851  -14.5247   26.3531 C   0  0  0  0  0  0  0  0  0  0  0  0
    8.2094  -15.8306   26.6323 C   0  0  0  0  0  0  0  0  0  0  0  0
    9.3151  -16.0913   25.6390 C   0  0  2  0  0  0  0  0  0  0  0  0
    8.6895  -16.4342   24.3768 N   0  0  0  0  0  0  0  0  0  0  0  0
   10.1268  -17.2403   26.0876 C   0  0  0  0  0  0  0  0  0  0  0  0
   10.1801  -18.4728   25.4560 O   0  0  0  0  0  0  0  0  0  0  0  0
    6.2594  -14.3955   26.0170 C   0  0  0  0  0  0  0  0  0  0  0  0
    5.7216  -13.1341   25.7406 C   0  0  0  0  0  0  0  0  0  0  0  0
   10.8466  -17.1393   27.1296 O   0  0  0  0  0  0  0  0  0  0  0  0
  2  1  1  0
  3  2  1  0
  3  4  1  6
  5  3  1  0
  5  7  1  0
  6  5  2  0
  8  7  1  0
  8  9  1  6
 10  9  1  0
 11 10  2  0
 12 13  1  0
 12 11  1  0
 13 14  2  0
 14 10  1  0
 15  8  1  0
 16 15  2  0
 17 18  1  0
 18 19  2  0
 18 28  1  0
 19 20  1  0
 20 21  2  0
 21 22  1  0
 23 22  1  1
 23 24  1  0
 23 25  1  0
 24 15  1  0
 25 26  1  0
 27 21  1  0
 28 27  2  0
 29 25  2  0
M  END
$$$$
