SHY.pdb
     RDKit          3D

 29 30  0  0  1  0  0  0  0  0999 V2000
    7.2567  -20.1772   22.0056 O   0  0  0  0  0  0  0  0  0  0  0  0
    6.3703  -19.4209   21.2557 C   0  0  0  0  0  0  0  0  0  0  0  0
    7.0366  -18.7761   20.0605 C   0  0  2  0  0  0  0  0  0  0  0  0
    7.8554  -19.7804   19.4190 N   0  0  0  0  0  0  0  0  0  0  0  0
    7.9306  -17.6952   20.5816 C   0  0  0  0  0  0  0  0  0  0  0  0
    9.1694  -17.8672   20.7176 O   0  0  0  0  0  0  0  0  0  0  0  0
    7.3904  -16.4202   20.9434 N   0  0  0  0  0  0  0  0  0  0  0  0
    8.2493  -15.3626   21.4379 C   0  0  1  0  0  0  0  0  0  0  0  0
    7.8122  -14.0015   20.9389 C   0  0  0  0  0  0  0  0  0  0  0  0
    7.9831  -13.8327   19.4920 C   0  0  0  0  0  0  0  0  0  0  0  0
    8.9070  -12.9698   18.9090 C   0  0  0  0  0  0  0  0  0  0  0  0
    8.7684  -13.0897   17.5898 N   0  0  0  0  0  0  0  0  0  0  0  0
    7.7992  -13.9890   17.3495 C   0  0  0  0  0  0  0  0  0  0  0  0
    7.3039  -14.4575   18.5222 N   0  0  0  0  0  0  0  0  0  0  0  0
    8.2468  -15.3736   22.9354 C   0  0  0  0  0  0  0  0  0  0  0  0
    7.2095  -15.7365   23.5472 O   0  0  0  0  0  0  0  0  0  0  0  0
    5.3315  -10.7958   27.0331 O   0  0  0  0  0  0  0  0  0  0  0  0
    6.0166  -11.9637   26.6936 C   0  0  0  0  0  0  0  0  0  0  0  0
    7.3525  -12.1394   26.9685 C   0  0  0  0  0  0  0  0  0  0  0  0
    8.0106  -13.2993   26.6256 C   0  0  0  0  0  0  0  0  0  0  0  0
    7.3449  -14.3485   25.9821 C   0  0  0  0  0  0  0  0  0  0  0  0
    8.0860  -15.5671   25.6096 C   0  0  0  0  0  0  0  0  0  0  0  0
    9.4654  -15.1973   25.1218 C   0  0  2  0  0  0  0  0  0  0  0  0
    9.3754  -14.9884   23.6899 N   0  0  0  0  0  0  0  0  0  0  0  0
   10.3990  -16.3128   25.3753 C   0  0  0  0  0  0  0  0  0  0  0  0
   10.8494  -16.7061   26.6256 O   0  0  0  0  0  0  0  0  0  0  0  0
    6.0101  -14.1806   25.7036 C   0  0  0  0  0  0  0  0  0  0  0  0
    5.3591  -12.9949   26.0600 C   0  0  0  0  0  0  0  0  0  0  0  0
   10.8532  -16.9924   24.4027 O   0  0  0  0  0  0  0  0  0  0  0  0
  2  1  1  0
  3  2  1  0
  3  4  1  1
  5  3  1  0
  5  7  1  0
  6  5  2  0
  8  7  1  0
  8  9  1  1
 10  9  1  0
 11 10  2  0
 12 13  1  0
 12 11  1  0
 13 14  2  0
 14 10  1  0
 15  8  1  0
 16 15  2  0
 17 18  1  0
 18 19  2  0
 18 28  1  0
 19 20  1  0
 20 21  2  0
 21 22  1  0
 23 22  1  6
 23 24  1  0
 23 25  1  0
 24 15  1  0
 25 26  1  0
 27 21  1  0
 28 27  2  0
 29 25  2  0
M  END
$$$$
