SHY.pdb
     RDKit          3D

 29 30  0  0  1  0  0  0  0  0999 V2000
    5.0717  -20.0377   23.8712 O   0  0  0  0  0  0  0  0  0  0  0  0
    6.2633  -19.3343   23.7979 C   0  0  0  0  0  0  0  0  0  0  0  0
    6.5966  -18.9186   22.3821 C   0  0  2  0  0  0  0  0  0  0  0  0
    6.7861  -20.1222   21.6038 N   0  0  0  0  0  0  0  0  0  0  0  0
    7.8944  -18.1755   22.4327 C   0  0  0  0  0  0  0  0  0  0  0  0
    9.0018  -18.7715   22.3951 O   0  0  0  0  0  0  0  0  0  0  0  0
    7.9083  -16.7475   22.5265 N   0  0  0  0  0  0  0  0  0  0  0  0
    9.1560  -16.0245   22.6719 C   0  0  1  0  0  0  0  0  0  0  0  0
    9.1098  -14.6762   21.9846 C   0  0  0  0  0  0  0  0  0  0  0  0
    8.7993  -14.7657   20.5539 C   0  0  0  0  0  0  0  0  0  0  0  0
    9.5840  -15.4422   19.6241 C   0  0  0  0  0  0  0  0  0  0  0  0
    8.9875  -15.3032   18.4415 N   0  0  0  0  0  0  0  0  0  0  0  0
    7.8744  -14.5708   18.6162 C   0  0  0  0  0  0  0  0  0  0  0  0
    7.7465  -14.2311   19.9230 N   0  0  0  0  0  0  0  0  0  0  0  0
    9.4604  -15.8372   24.1262 C   0  0  0  0  0  0  0  0  0  0  0  0
    9.9573  -14.7497   24.5167 O   0  0  0  0  0  0  0  0  0  0  0  0
    6.0903  -11.1912   26.0656 O   0  0  0  0  0  0  0  0  0  0  0  0
    6.5592  -12.4828   26.3114 C   0  0  0  0  0  0  0  0  0  0  0  0
    5.9129  -13.6021   25.8420 C   0  0  0  0  0  0  0  0  0  0  0  0
    6.3916  -14.8681   26.0951 C   0  0  0  0  0  0  0  0  0  0  0  0
    7.5580  -15.0672   26.8421 C   0  0  0  0  0  0  0  0  0  0  0  0
    8.0295  -16.4374   27.1128 C   0  0  0  0  0  0  0  0  0  0  0  0
    9.3955  -16.6375   26.5036 C   0  0  2  0  0  0  0  0  0  0  0  0
    9.2075  -16.8451   25.0810 N   0  0  0  0  0  0  0  0  0  0  0  0
   10.0234  -17.8456   27.0749 C   0  0  0  0  0  0  0  0  0  0  0  0
   10.3429  -18.9903   26.3619 O   0  0  0  0  0  0  0  0  0  0  0  0
    8.2095  -13.9540   27.3150 C   0  0  0  0  0  0  0  0  0  0  0  0
    7.7075  -12.6761   27.0472 C   0  0  0  0  0  0  0  0  0  0  0  0
   10.3094  -17.8863   28.3121 O   0  0  0  0  0  0  0  0  0  0  0  0
  2  1  1  0
  3  2  1  0
  3  4  1  6
  5  3  1  0
  5  7  1  0
  6  5  2  0
  8  7  1  0
  8  9  1  6
 10  9  1  0
 11 10  2  0
 12 13  1  0
 12 11  1  0
 13 14  2  0
 14 10  1  0
 15  8  1  0
 16 15  2  0
 17 18  1  0
 18 19  2  0
 18 28  1  0
 19 20  1  0
 20 21  2  0
 21 22  1  0
 23 22  1  1
 23 24  1  0
 23 25  1  0
 24 15  1  0
 25 26  1  0
 27 21  1  0
 28 27  2  0
 29 25  2  0
M  END
$$$$
