SHY.pdb
     RDKit          3D

 29 30  0  0  1  0  0  0  0  0999 V2000
    4.8903  -17.3690   20.7359 O   0  0  0  0  0  0  0  0  0  0  0  0
    5.4966  -17.3665   19.4899 C   0  0  0  0  0  0  0  0  0  0  0  0
    6.3931  -18.5679   19.2869 C   0  0  2  0  0  0  0  0  0  0  0  0
    5.6762  -19.7345   19.7512 N   0  0  0  0  0  0  0  0  0  0  0  0
    7.5973  -18.3733   20.1536 C   0  0  0  0  0  0  0  0  0  0  0  0
    7.6891  -18.9046   21.2903 O   0  0  0  0  0  0  0  0  0  0  0  0
    8.6903  -17.5661   19.7042 N   0  0  0  0  0  0  0  0  0  0  0  0
    9.8281  -17.3103   20.5649 C   0  0  1  0  0  0  0  0  0  0  0  0
   11.0410  -16.8615   19.7775 C   0  0  0  0  0  0  0  0  0  0  0  0
   12.2188  -16.6179   20.6169 C   0  0  0  0  0  0  0  0  0  0  0  0
   12.8652  -15.3892   20.7200 C   0  0  0  0  0  0  0  0  0  0  0  0
   13.8798  -15.5564   21.5662 N   0  0  0  0  0  0  0  0  0  0  0  0
   13.8751  -16.8349   21.9800 C   0  0  0  0  0  0  0  0  0  0  0  0
   12.8489  -17.5040   21.3978 N   0  0  0  0  0  0  0  0  0  0  0  0
    9.4683  -16.2638   21.5738 C   0  0  0  0  0  0  0  0  0  0  0  0
    8.7740  -15.2772   21.2177 O   0  0  0  0  0  0  0  0  0  0  0  0
    6.3332  -11.3642   27.7155 O   0  0  0  0  0  0  0  0  0  0  0  0
    6.7337  -12.3235   26.7840 C   0  0  0  0  0  0  0  0  0  0  0  0
    6.1852  -13.5839   26.7435 C   0  0  0  0  0  0  0  0  0  0  0  0
    6.5937  -14.5164   25.8164 C   0  0  0  0  0  0  0  0  0  0  0  0
    7.5860  -14.2185   24.8758 C   0  0  0  0  0  0  0  0  0  0  0  0
    8.0147  -15.2484   23.9123 C   0  0  0  0  0  0  0  0  0  0  0  0
    9.5202  -15.3520   23.9111 C   0  0  2  0  0  0  0  0  0  0  0  0
    9.8837  -16.3459   22.9200 N   0  0  0  0  0  0  0  0  0  0  0  0
    9.9887  -15.8145   25.2327 C   0  0  0  0  0  0  0  0  0  0  0  0
   10.4226  -14.9887   26.2577 O   0  0  0  0  0  0  0  0  0  0  0  0
    8.1393  -12.9615   24.9099 C   0  0  0  0  0  0  0  0  0  0  0  0
    7.7108  -12.0278   25.8592 C   0  0  0  0  0  0  0  0  0  0  0  0
   10.0161  -17.0571   25.4961 O   0  0  0  0  0  0  0  0  0  0  0  0
  2  1  1  0
  3  2  1  0
  3  4  1  1
  5  3  1  0
  5  7  1  0
  6  5  2  0
  8  7  1  0
  8  9  1  6
 10  9  1  0
 11 10  2  0
 12 13  1  0
 12 11  1  0
 13 14  2  0
 14 10  1  0
 15  8  1  0
 16 15  2  0
 17 18  1  0
 18 19  2  0
 18 28  1  0
 19 20  1  0
 20 21  2  0
 21 22  1  0
 23 22  1  1
 23 24  1  0
 23 25  1  0
 24 15  1  0
 25 26  1  0
 27 21  1  0
 28 27  2  0
 29 25  2  0
M  END
$$$$
