SHY.pdb
     RDKit          3D

 29 30  0  0  1  0  0  0  0  0999 V2000
    8.4682  -12.6369   20.3246 O   0  0  0  0  0  0  0  0  0  0  0  0
    9.2563  -13.3936   19.4723 C   0  0  0  0  0  0  0  0  0  0  0  0
    8.6154  -14.7194   19.1260 C   0  0  2  0  0  0  0  0  0  0  0  0
    7.3175  -14.4434   18.5518 N   0  0  0  0  0  0  0  0  0  0  0  0
    8.4194  -15.4649   20.4086 C   0  0  0  0  0  0  0  0  0  0  0  0
    7.2958  -15.5343   20.9704 O   0  0  0  0  0  0  0  0  0  0  0  0
    9.5215  -16.1271   21.0371 N   0  0  0  0  0  0  0  0  0  0  0  0
    9.3360  -16.8788   22.2624 C   0  0  1  0  0  0  0  0  0  0  0  0
    9.7552  -18.3253   22.1056 C   0  0  0  0  0  0  0  0  0  0  0  0
    8.8235  -19.1133   21.2918 C   0  0  0  0  0  0  0  0  0  0  0  0
    9.0745  -19.5134   19.9822 C   0  0  0  0  0  0  0  0  0  0  0  0
    8.0093  -20.2034   19.5784 N   0  0  0  0  0  0  0  0  0  0  0  0
    7.1238  -20.2379   20.5886 C   0  0  0  0  0  0  0  0  0  0  0  0
    7.6175  -19.5648   21.6576 N   0  0  0  0  0  0  0  0  0  0  0  0
   10.1257  -16.2433   23.3649 C   0  0  0  0  0  0  0  0  0  0  0  0
   11.1742  -15.6075   23.0845 O   0  0  0  0  0  0  0  0  0  0  0  0
    5.0731  -12.4981   26.9183 O   0  0  0  0  0  0  0  0  0  0  0  0
    6.3679  -12.9191   26.6105 C   0  0  0  0  0  0  0  0  0  0  0  0
    7.4052  -12.8252   27.5084 C   0  0  0  0  0  0  0  0  0  0  0  0
    8.6759  -13.2462   27.1857 C   0  0  0  0  0  0  0  0  0  0  0  0
    8.9636  -13.7879   25.9280 C   0  0  0  0  0  0  0  0  0  0  0  0
   10.3401  -14.2078   25.6090 C   0  0  0  0  0  0  0  0  0  0  0  0
   10.4742  -15.7000   25.7897 C   0  0  2  0  0  0  0  0  0  0  0  0
    9.7321  -16.3332   24.7170 N   0  0  0  0  0  0  0  0  0  0  0  0
    9.8726  -16.1018   27.0769 C   0  0  0  0  0  0  0  0  0  0  0  0
   10.3522  -15.7429   28.3268 O   0  0  0  0  0  0  0  0  0  0  0  0
    7.9328  -13.8848   25.0251 C   0  0  0  0  0  0  0  0  0  0  0  0
    6.6486  -13.4518   25.3716 C   0  0  0  0  0  0  0  0  0  0  0  0
    8.8352  -16.8351   27.0901 O   0  0  0  0  0  0  0  0  0  0  0  0
  2  1  1  0
  3  2  1  0
  3  4  1  1
  5  3  1  0
  5  7  1  0
  6  5  2  0
  8  7  1  0
  8  9  1  6
 10  9  1  0
 11 10  2  0
 12 13  1  0
 12 11  1  0
 13 14  2  0
 14 10  1  0
 15  8  1  0
 16 15  2  0
 17 18  1  0
 18 19  2  0
 18 28  1  0
 19 20  1  0
 20 21  2  0
 21 22  1  0
 23 22  1  6
 23 24  1  0
 23 25  1  0
 24 15  1  0
 25 26  1  0
 27 21  1  0
 28 27  2  0
 29 25  2  0
M  END
$$$$
