SHY.pdb
     RDKit          3D

 29 30  0  0  1  0  0  0  0  0999 V2000
    6.7515  -18.9931   23.1671 O   0  0  0  0  0  0  0  0  0  0  0  0
    5.9028  -18.6542   22.1255 C   0  0  0  0  0  0  0  0  0  0  0  0
    6.6578  -18.3122   20.8600 C   0  0  2  0  0  0  0  0  0  0  0  0
    7.3088  -19.5175   20.3975 N   0  0  0  0  0  0  0  0  0  0  0  0
    7.7103  -17.3143   21.2282 C   0  0  0  0  0  0  0  0  0  0  0  0
    8.9274  -17.6267   21.2910 O   0  0  0  0  0  0  0  0  0  0  0  0
    7.3531  -15.9601   21.5225 N   0  0  0  0  0  0  0  0  0  0  0  0
    8.3726  -14.9491   21.7210 C   0  0  1  0  0  0  0  0  0  0  0  0
    7.9646  -13.6141   21.1347 C   0  0  0  0  0  0  0  0  0  0  0  0
    7.9927  -13.5926   19.6684 C   0  0  0  0  0  0  0  0  0  0  0  0
    9.0820  -13.1671   18.9131 C   0  0  0  0  0  0  0  0  0  0  0  0
    8.7363  -13.2911   17.6330 N   0  0  0  0  0  0  0  0  0  0  0  0
    7.4832  -13.7737   17.5813 C   0  0  0  0  0  0  0  0  0  0  0  0
    7.0107  -13.9651   18.8382 N   0  0  0  0  0  0  0  0  0  0  0  0
    8.6453  -14.7928   23.1853 C   0  0  0  0  0  0  0  0  0  0  0  0
    8.3064  -13.7293   23.7651 O   0  0  0  0  0  0  0  0  0  0  0  0
    6.2808  -10.4383   26.9468 O   0  0  0  0  0  0  0  0  0  0  0  0
    6.6854  -11.7517   26.7022 C   0  0  0  0  0  0  0  0  0  0  0  0
    7.6961  -12.3549   27.4132 C   0  0  0  0  0  0  0  0  0  0  0  0
    8.0806  -13.6520   27.1569 C   0  0  0  0  0  0  0  0  0  0  0  0
    7.4568  -14.4105   26.1601 C   0  0  0  0  0  0  0  0  0  0  0  0
    7.9092  -15.7887   25.8976 C   0  0  0  0  0  0  0  0  0  0  0  0
    9.3307  -15.7724   25.3914 C   0  0  2  0  0  0  0  0  0  0  0  0
    9.2736  -15.8040   23.9430 N   0  0  0  0  0  0  0  0  0  0  0  0
   10.0399  -16.9800   25.8593 C   0  0  0  0  0  0  0  0  0  0  0  0
   10.4887  -17.1889   27.1538 O   0  0  0  0  0  0  0  0  0  0  0  0
    6.4463  -13.8150   25.4449 C   0  0  0  0  0  0  0  0  0  0  0  0
    6.0698  -12.4962   25.7203 C   0  0  0  0  0  0  0  0  0  0  0  0
   10.2820  -17.9270   25.0476 O   0  0  0  0  0  0  0  0  0  0  0  0
  2  1  1  0
  3  2  1  0
  3  4  1  1
  5  3  1  0
  5  7  1  0
  6  5  2  0
  8  7  1  0
  8  9  1  1
 10  9  1  0
 11 10  2  0
 12 13  1  0
 12 11  1  0
 13 14  2  0
 14 10  1  0
 15  8  1  0
 16 15  2  0
 17 18  1  0
 18 19  2  0
 18 28  1  0
 19 20  1  0
 20 21  2  0
 21 22  1  0
 23 22  1  1
 23 24  1  0
 23 25  1  0
 24 15  1  0
 25 26  1  0
 27 21  1  0
 28 27  2  0
 29 25  2  0
M  END
$$$$
