SHY.pdb
     RDKit          3D

 29 30  0  0  1  0  0  0  0  0999 V2000
   10.2858  -13.1102   19.6573 O   0  0  0  0  0  0  0  0  0  0  0  0
    9.9270  -13.8928   18.5715 C   0  0  0  0  0  0  0  0  0  0  0  0
    8.4324  -14.1126   18.4930 C   0  0  2  0  0  0  0  0  0  0  0  0
    7.8064  -12.8200   18.3260 N   0  0  0  0  0  0  0  0  0  0  0  0
    7.9994  -14.6847   19.8061 C   0  0  0  0  0  0  0  0  0  0  0  0
    7.4394  -13.9794   20.6846 O   0  0  0  0  0  0  0  0  0  0  0  0
    8.2148  -16.0688   20.0994 N   0  0  0  0  0  0  0  0  0  0  0  0
    7.9263  -16.6032   21.4155 C   0  0  1  0  0  0  0  0  0  0  0  0
    7.7615  -18.1081   21.3894 C   0  0  0  0  0  0  0  0  0  0  0  0
    6.6164  -18.5516   20.5873 C   0  0  0  0  0  0  0  0  0  0  0  0
    5.3032  -18.1454   20.8075 C   0  0  0  0  0  0  0  0  0  0  0  0
    4.5526  -18.7512   19.8892 N   0  0  0  0  0  0  0  0  0  0  0  0
    5.3562  -19.5072   19.1221 C   0  0  0  0  0  0  0  0  0  0  0  0
    6.6397  -19.3917   19.5454 N   0  0  0  0  0  0  0  0  0  0  0  0
    9.0292  -16.2345   22.3591 C   0  0  0  0  0  0  0  0  0  0  0  0
   10.0960  -15.7506   21.9011 O   0  0  0  0  0  0  0  0  0  0  0  0
    5.5075  -12.0104   26.8753 O   0  0  0  0  0  0  0  0  0  0  0  0
    6.6244  -12.6138   26.2947 C   0  0  0  0  0  0  0  0  0  0  0  0
    6.6997  -12.8811   24.9480 C   0  0  0  0  0  0  0  0  0  0  0  0
    7.8106  -13.4769   24.3941 C   0  0  0  0  0  0  0  0  0  0  0  0
    8.9106  -13.8353   25.1814 C   0  0  0  0  0  0  0  0  0  0  0  0
   10.0741  -14.4919   24.5585 C   0  0  0  0  0  0  0  0  0  0  0  0
    9.9430  -15.9901   24.6833 C   0  0  2  0  0  0  0  0  0  0  0  0
    8.9130  -16.4121   23.7542 N   0  0  0  0  0  0  0  0  0  0  0  0
    9.5124  -16.3401   26.0515 C   0  0  0  0  0  0  0  0  0  0  0  0
    8.3144  -16.9567   26.3764 O   0  0  0  0  0  0  0  0  0  0  0  0
    8.8431  -13.5720   26.5280 C   0  0  0  0  0  0  0  0  0  0  0  0
    7.7058  -12.9658   27.0719 C   0  0  0  0  0  0  0  0  0  0  0  0
   10.2642  -16.0729   27.0403 O   0  0  0  0  0  0  0  0  0  0  0  0
  2  1  1  0
  3  2  1  0
  3  4  1  1
  5  3  1  0
  5  7  1  0
  6  5  2  0
  8  7  1  0
  8  9  1  6
 10  9  1  0
 11 10  2  0
 12 13  1  0
 12 11  1  0
 13 14  2  0
 14 10  1  0
 15  8  1  0
 16 15  2  0
 17 18  1  0
 18 19  2  0
 18 28  1  0
 19 20  1  0
 20 21  2  0
 21 22  1  0
 23 22  1  1
 23 24  1  0
 23 25  1  0
 24 15  1  0
 25 26  1  0
 27 21  1  0
 28 27  2  0
 29 25  2  0
M  END
$$$$
