SHY.pdb
     RDKit          3D

 29 30  0  0  1  0  0  0  0  0999 V2000
   10.4417  -14.1088   18.7798 O   0  0  0  0  0  0  0  0  0  0  0  0
    9.4639  -14.7928   18.0754 C   0  0  0  0  0  0  0  0  0  0  0  0
    8.0681  -14.3611   18.4675 C   0  0  2  0  0  0  0  0  0  0  0  0
    7.9998  -12.9229   18.3363 N   0  0  0  0  0  0  0  0  0  0  0  0
    7.8832  -14.7167   19.9092 C   0  0  0  0  0  0  0  0  0  0  0  0
    8.0133  -13.8635   20.8247 O   0  0  0  0  0  0  0  0  0  0  0  0
    7.5490  -16.0557   20.2879 N   0  0  0  0  0  0  0  0  0  0  0  0
    7.3089  -16.3975   21.6758 C   0  0  1  0  0  0  0  0  0  0  0  0
    6.8507  -17.8321   21.8321 C   0  0  0  0  0  0  0  0  0  0  0  0
    6.6686  -18.2328   23.2313 C   0  0  0  0  0  0  0  0  0  0  0  0
    5.7929  -17.6094   24.1158 C   0  0  0  0  0  0  0  0  0  0  0  0
    5.9033  -18.2450   25.2809 N   0  0  0  0  0  0  0  0  0  0  0  0
    6.8093  -19.2273   25.1390 C   0  0  0  0  0  0  0  0  0  0  0  0
    7.2916  -19.2300   23.8713 N   0  0  0  0  0  0  0  0  0  0  0  0
    8.5602  -16.1801   22.4694 C   0  0  0  0  0  0  0  0  0  0  0  0
    9.6712  -16.4830   21.9634 O   0  0  0  0  0  0  0  0  0  0  0  0
    4.9688  -12.1908   27.2777 O   0  0  0  0  0  0  0  0  0  0  0  0
    6.1607  -12.6299   26.6987 C   0  0  0  0  0  0  0  0  0  0  0  0
    7.2585  -12.9793   27.4494 C   0  0  0  0  0  0  0  0  0  0  0  0
    8.4255  -13.4104   26.8593 C   0  0  0  0  0  0  0  0  0  0  0  0
    8.5416  -13.5106   25.4684 C   0  0  0  0  0  0  0  0  0  0  0  0
    9.8134  -13.9546   24.8697 C   0  0  0  0  0  0  0  0  0  0  0  0
    9.7416  -15.4279   24.5514 C   0  0  2  0  0  0  0  0  0  0  0  0
    8.5367  -15.6435   23.7743 N   0  0  0  0  0  0  0  0  0  0  0  0
    9.6371  -16.2035   25.8035 C   0  0  0  0  0  0  0  0  0  0  0  0
    8.5461  -16.9731   26.1751 O   0  0  0  0  0  0  0  0  0  0  0  0
    7.4493  -13.1630   24.7112 C   0  0  0  0  0  0  0  0  0  0  0  0
    6.2725  -12.7275   25.3292 C   0  0  0  0  0  0  0  0  0  0  0  0
   10.5960  -16.1933   26.6370 O   0  0  0  0  0  0  0  0  0  0  0  0
  2  1  1  0
  3  2  1  0
  3  4  1  1
  5  3  1  0
  5  7  1  0
  6  5  2  0
  8  7  1  0
  8  9  1  6
 10  9  1  0
 11 10  2  0
 12 13  1  0
 12 11  1  0
 13 14  2  0
 14 10  1  0
 15  8  1  0
 16 15  2  0
 17 18  1  0
 18 19  2  0
 18 28  1  0
 19 20  1  0
 20 21  2  0
 21 22  1  0
 23 22  1  1
 23 24  1  0
 23 25  1  0
 24 15  1  0
 25 26  1  0
 27 21  1  0
 28 27  2  0
 29 25  2  0
M  END
$$$$
