SHY.pdb
     RDKit          3D

 29 30  0  0  1  0  0  0  0  0999 V2000
    9.9168  -17.3806   19.2268 O   0  0  0  0  0  0  0  0  0  0  0  0
   10.4718  -17.1342   17.9813 C   0  0  0  0  0  0  0  0  0  0  0  0
   11.2125  -18.3356   17.4368 C   0  0  2  0  0  0  0  0  0  0  0  0
   10.2804  -19.4396   17.3839 N   0  0  0  0  0  0  0  0  0  0  0  0
   12.2926  -18.6713   18.4165 C   0  0  0  0  0  0  0  0  0  0  0  0
   12.0576  -19.3287   19.4632 O   0  0  0  0  0  0  0  0  0  0  0  0
   13.6393  -18.2467   18.1837 N   0  0  0  0  0  0  0  0  0  0  0  0
   14.6775  -18.4979   19.1634 C   0  0  1  0  0  0  0  0  0  0  0  0
   15.9830  -18.9008   18.5108 C   0  0  0  0  0  0  0  0  0  0  0  0
   15.9621  -20.2623   17.9658 C   0  0  0  0  0  0  0  0  0  0  0  0
   15.2961  -21.3318   18.5581 C   0  0  0  0  0  0  0  0  0  0  0  0
   15.5036  -22.3937   17.7816 N   0  0  0  0  0  0  0  0  0  0  0  0
   16.2674  -22.0122   16.7438 C   0  0  0  0  0  0  0  0  0  0  0  0
   16.5587  -20.6915   16.8468 N   0  0  0  0  0  0  0  0  0  0  0  0
   14.8891  -17.2709   19.9955 C   0  0  0  0  0  0  0  0  0  0  0  0
   15.3232  -16.2238   19.4503 O   0  0  0  0  0  0  0  0  0  0  0  0
   11.7154  -20.2031   25.9316 O   0  0  0  0  0  0  0  0  0  0  0  0
   12.1581  -19.1101   25.1847 C   0  0  0  0  0  0  0  0  0  0  0  0
   12.9147  -18.1017   25.7337 C   0  0  0  0  0  0  0  0  0  0  0  0
   13.3422  -17.0315   24.9800 C   0  0  0  0  0  0  0  0  0  0  0  0
   13.0231  -16.9268   23.6216 C   0  0  0  0  0  0  0  0  0  0  0  0
   13.4785  -15.7561   22.8504 C   0  0  0  0  0  0  0  0  0  0  0  0
   14.8018  -16.0610   22.1921 C   0  0  2  0  0  0  0  0  0  0  0  0
   14.6167  -17.2477   21.3799 N   0  0  0  0  0  0  0  0  0  0  0  0
   15.8161  -16.3529   23.2246 C   0  0  0  0  0  0  0  0  0  0  0  0
   16.3885  -15.4130   24.0672 O   0  0  0  0  0  0  0  0  0  0  0  0
   12.2671  -17.9302   23.0656 C   0  0  0  0  0  0  0  0  0  0  0  0
   11.8425  -19.0093   23.8477 C   0  0  0  0  0  0  0  0  0  0  0  0
   16.2288  -17.5432   23.3889 O   0  0  0  0  0  0  0  0  0  0  0  0
  2  1  1  0
  3  2  1  0
  3  4  1  1
  5  3  1  0
  5  7  1  0
  6  5  2  0
  8  7  1  0
  8  9  1  6
 10  9  1  0
 11 10  2  0
 12 13  1  0
 12 11  1  0
 13 14  2  0
 14 10  1  0
 15  8  1  0
 16 15  2  0
 17 18  1  0
 18 19  2  0
 18 28  1  0
 19 20  1  0
 20 21  2  0
 21 22  1  0
 23 22  1  1
 23 24  1  0
 23 25  1  0
 24 15  1  0
 25 26  1  0
 27 21  1  0
 28 27  2  0
 29 25  2  0
M  END
$$$$
