SHY.pdb
     RDKit          3D

 29 30  0  0  1  0  0  0  0  0999 V2000
   15.4189  -18.5253   20.5969 O   0  0  0  0  0  0  0  0  0  0  0  0
   14.4206  -17.8563   21.2867 C   0  0  0  0  0  0  0  0  0  0  0  0
   13.1106  -17.8455   20.5303 C   0  0  2  0  0  0  0  0  0  0  0  0
   13.3454  -17.2083   19.2539 N   0  0  0  0  0  0  0  0  0  0  0  0
   12.1538  -17.0029   21.3138 C   0  0  0  0  0  0  0  0  0  0  0  0
   12.1550  -15.7475   21.2318 O   0  0  0  0  0  0  0  0  0  0  0  0
   11.1998  -17.6134   22.1886 N   0  0  0  0  0  0  0  0  0  0  0  0
   10.2355  -16.8098   22.9133 C   0  0  1  0  0  0  0  0  0  0  0  0
    8.8253  -17.3356   22.7477 C   0  0  0  0  0  0  0  0  0  0  0  0
    8.2145  -16.9621   21.4676 C   0  0  0  0  0  0  0  0  0  0  0  0
    8.8456  -16.1911   20.4953 C   0  0  0  0  0  0  0  0  0  0  0  0
    7.9865  -16.0642   19.4855 N   0  0  0  0  0  0  0  0  0  0  0  0
    6.8616  -16.7261   19.8055 C   0  0  0  0  0  0  0  0  0  0  0  0
    6.9907  -17.2877   21.0334 N   0  0  0  0  0  0  0  0  0  0  0  0
   10.5952  -16.7847   24.3668 C   0  0  0  0  0  0  0  0  0  0  0  0
   11.2385  -17.7470   24.8592 O   0  0  0  0  0  0  0  0  0  0  0  0
    5.4781  -11.9733   26.0992 O   0  0  0  0  0  0  0  0  0  0  0  0
    6.7487  -12.5112   26.3108 C   0  0  0  0  0  0  0  0  0  0  0  0
    7.6976  -12.5702   25.3173 C   0  0  0  0  0  0  0  0  0  0  0  0
    8.9459  -13.1046   25.5459 C   0  0  0  0  0  0  0  0  0  0  0  0
    9.3000  -13.6105   26.8016 C   0  0  0  0  0  0  0  0  0  0  0  0
   10.6376  -14.1957   27.0048 C   0  0  0  0  0  0  0  0  0  0  0  0
   10.6249  -15.6508   26.6051 C   0  0  2  0  0  0  0  0  0  0  0  0
   10.2353  -15.7118   25.2099 N   0  0  0  0  0  0  0  0  0  0  0  0
    9.6194  -16.3783   27.4051 C   0  0  0  0  0  0  0  0  0  0  0  0
    9.7544  -16.7091   28.7442 O   0  0  0  0  0  0  0  0  0  0  0  0
    8.3574  -13.5556   27.7995 C   0  0  0  0  0  0  0  0  0  0  0  0
    7.0947  -13.0087   27.5477 C   0  0  0  0  0  0  0  0  0  0  0  0
    8.5312  -16.7525   26.8666 O   0  0  0  0  0  0  0  0  0  0  0  0
  2  1  1  0
  3  2  1  0
  3  4  1  6
  5  3  1  0
  5  7  1  0
  6  5  2  0
  8  7  1  0
  8  9  1  1
 10  9  1  0
 11 10  2  0
 12 13  1  0
 12 11  1  0
 13 14  2  0
 14 10  1  0
 15  8  1  0
 16 15  2  0
 17 18  1  0
 18 19  2  0
 18 28  1  0
 19 20  1  0
 20 21  2  0
 21 22  1  0
 23 22  1  1
 23 24  1  0
 23 25  1  0
 24 15  1  0
 25 26  1  0
 27 21  1  0
 28 27  2  0
 29 25  2  0
M  END
$$$$
