SHY.pdb
     RDKit          3D

 29 30  0  0  1  0  0  0  0  0999 V2000
   11.8348  -14.5806   20.7250 O   0  0  0  0  0  0  0  0  0  0  0  0
   11.2129  -15.2957   21.7360 C   0  0  0  0  0  0  0  0  0  0  0  0
   11.4716  -16.7823   21.6283 C   0  0  2  0  0  0  0  0  0  0  0  0
   10.6357  -17.2980   20.5672 N   0  0  0  0  0  0  0  0  0  0  0  0
   11.0378  -17.4019   22.9194 C   0  0  0  0  0  0  0  0  0  0  0  0
    9.8358  -17.7005   23.1409 O   0  0  0  0  0  0  0  0  0  0  0  0
   11.9935  -17.6741   23.9493 N   0  0  0  0  0  0  0  0  0  0  0  0
   11.5768  -18.2289   25.2219 C   0  0  1  0  0  0  0  0  0  0  0  0
   12.3936  -19.4462   25.6008 C   0  0  0  0  0  0  0  0  0  0  0  0
   12.0598  -20.6364   24.8113 C   0  0  0  0  0  0  0  0  0  0  0  0
   11.9105  -20.6402   23.4272 C   0  0  0  0  0  0  0  0  0  0  0  0
   11.6112  -21.8892   23.0746 N   0  0  0  0  0  0  0  0  0  0  0  0
   11.5731  -22.6419   24.1872 C   0  0  0  0  0  0  0  0  0  0  0  0
   11.8498  -21.8758   25.2718 N   0  0  0  0  0  0  0  0  0  0  0  0
   11.7039  -17.1861   26.2892 C   0  0  0  0  0  0  0  0  0  0  0  0
   12.6793  -16.3923   26.2621 O   0  0  0  0  0  0  0  0  0  0  0  0
    7.8653  -12.3993   24.4639 O   0  0  0  0  0  0  0  0  0  0  0  0
    8.3080  -13.1861   25.5286 C   0  0  0  0  0  0  0  0  0  0  0  0
    7.9356  -14.5015   25.6761 C   0  0  0  0  0  0  0  0  0  0  0  0
    8.3833  -15.2613   26.7336 C   0  0  0  0  0  0  0  0  0  0  0  0
    9.2373  -14.7241   27.7032 C   0  0  0  0  0  0  0  0  0  0  0  0
    9.6792  -15.5600   28.8341 C   0  0  0  0  0  0  0  0  0  0  0  0
   10.9896  -16.2271   28.4952 C   0  0  2  0  0  0  0  0  0  0  0  0
   10.7611  -17.0616   27.3317 N   0  0  0  0  0  0  0  0  0  0  0  0
   11.4134  -17.0905   29.6156 C   0  0  0  0  0  0  0  0  0  0  0  0
   11.5111  -18.4720   29.5639 O   0  0  0  0  0  0  0  0  0  0  0  0
    9.6137  -13.4103   27.5632 C   0  0  0  0  0  0  0  0  0  0  0  0
    9.1485  -12.6548   26.4818 C   0  0  0  0  0  0  0  0  0  0  0  0
   11.7199  -16.5720   30.7343 O   0  0  0  0  0  0  0  0  0  0  0  0
  2  1  1  0
  3  2  1  0
  3  4  1  6
  5  3  1  0
  5  7  1  0
  6  5  2  0
  8  7  1  0
  8  9  1  1
 10  9  1  0
 11 10  2  0
 12 13  1  0
 12 11  1  0
 13 14  2  0
 14 10  1  0
 15  8  1  0
 16 15  2  0
 17 18  1  0
 18 19  2  0
 18 28  1  0
 19 20  1  0
 20 21  2  0
 21 22  1  0
 23 22  1  1
 23 24  1  0
 23 25  1  0
 24 15  1  0
 25 26  1  0
 27 21  1  0
 28 27  2  0
 29 25  2  0
M  END
$$$$
