MKL.pdb
     RDKit          3D

 26 25  0  0  1  0  0  0  0  0999 V2000
    7.4725  -11.2730   25.9272 C   0  0  0  0  0  0  0  0  0  0  0  0
    5.6748  -11.4690   26.1507 S   0  0  0  0  0  0  0  0  0  0  0  0
    5.2344  -13.1113   25.5216 C   0  0  0  0  0  0  0  0  0  0  0  0
    6.4851  -13.9610   25.4506 C   0  0  0  0  0  0  0  0  0  0  0  0
    6.1311  -15.2147   24.6800 C   0  0  2  0  0  0  0  0  0  0  0  0
    5.1262  -15.9363   25.4111 N   0  0  0  0  0  0  0  0  0  0  0  0
    7.3622  -16.0325   24.5887 C   0  0  0  0  0  0  0  0  0  0  0  0
    7.6699  -16.7618   25.5800 O   0  0  0  0  0  0  0  0  0  0  0  0
    8.1671  -15.9913   23.4160 N   0  0  0  0  0  0  0  0  0  0  0  0
    9.3589  -16.8038   23.3567 C   0  0  1  0  0  0  0  0  0  0  0  0
    9.7555  -16.9023   21.9116 C   0  0  0  0  0  0  0  0  0  0  0  0
   10.8166  -17.9143   21.6339 C   0  0  0  0  0  0  0  0  0  0  0  0
   11.0887  -17.8589   20.1230 C   0  0  0  0  0  0  0  0  0  0  0  0
   12.1696  -18.8890   19.7901 C   0  0  0  0  0  0  0  0  0  0  0  0
   12.4859  -18.7535   18.3813 N   0  0  0  0  0  0  0  0  0  0  0  0
   10.4293  -16.2958   24.2292 C   0  0  0  0  0  0  0  0  0  0  0  0
   11.0381  -15.2138   24.0695 O   0  0  0  0  0  0  0  0  0  0  0  0
   10.4392  -14.0837   27.2962 C   0  0  0  0  0  0  0  0  0  0  0  0
   10.2149  -15.4544   27.8828 C   0  0  2  0  0  0  0  0  0  0  0  0
    9.6984  -15.3975   29.2744 C   0  0  0  0  0  0  0  0  0  0  0  0
   11.2705  -16.4409   27.6313 C   0  0  0  0  0  0  0  0  0  0  0  0
   11.8559  -16.5936   26.2879 C   0  0  2  0  0  0  0  0  0  0  0  0
   10.8152  -17.0810   25.3447 N   0  0  0  0  0  0  0  0  0  0  0  0
   13.0060  -17.4802   26.1224 C   0  0  0  0  0  0  0  0  0  0  0  0
   14.3195  -17.2006   26.4564 O   0  0  0  0  0  0  0  0  0  0  0  0
   12.8306  -18.6360   25.6212 O   0  0  0  0  0  0  0  0  0  0  0  0
  2  1  1  0
  3  2  1  0
  4  5  1  0
  4  3  1  0
  5  7  1  0
  5  6  1  1
  7  8  2  0
  9 10  1  0
  9  7  1  0
 11 12  1  0
 10 11  1  6
 13 12  1  0
 13 14  1  0
 15 14  1  0
 16 10  1  0
 16 17  2  0
 19 18  1  1
 19 21  1  0
 20 19  1  0
 22 21  1  1
 22 24  1  0
 22 23  1  0
 23 16  1  0
 24 25  1  0
 26 24  2  0
M  END
$$$$
