MKL.pdb
     RDKit          3D

 26 25  0  0  1  0  0  0  0  0999 V2000
    7.9446  -11.5506   19.5219 C   0  0  0  0  0  0  0  0  0  0  0  0
    8.3521  -12.7176   18.1832 S   0  0  0  0  0  0  0  0  0  0  0  0
    7.5956  -14.3082   18.6128 C   0  0  0  0  0  0  0  0  0  0  0  0
    7.4893  -14.4099   20.1193 C   0  0  0  0  0  0  0  0  0  0  0  0
    8.0376  -15.7638   20.5161 C   0  0  2  0  0  0  0  0  0  0  0  0
    7.5648  -16.7449   19.5786 N   0  0  0  0  0  0  0  0  0  0  0  0
    7.5085  -16.0702   21.8648 C   0  0  0  0  0  0  0  0  0  0  0  0
    6.7583  -15.2120   22.4214 O   0  0  0  0  0  0  0  0  0  0  0  0
    7.8409  -17.2965   22.5057 N   0  0  0  0  0  0  0  0  0  0  0  0
    7.5151  -17.4668   23.9017 C   0  0  1  0  0  0  0  0  0  0  0  0
    7.5714  -18.9391   24.1925 C   0  0  0  0  0  0  0  0  0  0  0  0
    7.2889  -19.2953   25.6139 C   0  0  0  0  0  0  0  0  0  0  0  0
    7.3751  -20.8263   25.7062 C   0  0  0  0  0  0  0  0  0  0  0  0
    7.1129  -21.2369   27.1563 C   0  0  0  0  0  0  0  0  0  0  0  0
    7.1988  -22.6830   27.2253 N   0  0  0  0  0  0  0  0  0  0  0  0
    8.3733  -16.6581   24.7817 C   0  0  0  0  0  0  0  0  0  0  0  0
    9.6242  -16.6325   24.7449 O   0  0  0  0  0  0  0  0  0  0  0  0
    8.2012  -12.3041   25.2416 C   0  0  0  0  0  0  0  0  0  0  0  0
    7.2254  -12.9071   26.2201 C   0  0  2  0  0  0  0  0  0  0  0  0
    6.3002  -11.8962   26.7934 C   0  0  0  0  0  0  0  0  0  0  0  0
    7.7838  -13.8755   27.1694 C   0  0  0  0  0  0  0  0  0  0  0  0
    8.5704  -15.0280   26.6964 C   0  0  2  0  0  0  0  0  0  0  0  0
    7.7513  -15.8362   25.7550 N   0  0  0  0  0  0  0  0  0  0  0  0
    9.1025  -15.9647   27.6842 C   0  0  0  0  0  0  0  0  0  0  0  0
   10.2665  -15.8185   28.4183 O   0  0  0  0  0  0  0  0  0  0  0  0
    8.4664  -17.0396   27.9247 O   0  0  0  0  0  0  0  0  0  0  0  0
  2  1  1  0
  3  2  1  0
  4  5  1  0
  4  3  1  0
  5  7  1  0
  5  6  1  6
  7  8  2  0
  9 10  1  0
  9  7  1  0
 11 12  1  0
 10 11  1  1
 13 12  1  0
 13 14  1  0
 15 14  1  0
 16 10  1  0
 16 17  2  0
 19 18  1  1
 19 21  1  0
 20 19  1  0
 22 21  1  1
 22 24  1  0
 22 23  1  0
 23 16  1  0
 24 25  1  0
 26 24  2  0
M  END
$$$$
