MKL.pdb
     RDKit          3D

 26 25  0  0  1  0  0  0  0  0999 V2000
    7.0978  -10.9314   26.3464 C   0  0  0  0  0  0  0  0  0  0  0  0
    5.5031  -11.5560   26.9683 S   0  0  0  0  0  0  0  0  0  0  0  0
    5.2098  -13.1579   26.1718 C   0  0  0  0  0  0  0  0  0  0  0  0
    6.5380  -13.7410   25.7389 C   0  0  0  0  0  0  0  0  0  0  0  0
    6.2413  -15.0225   24.9901 C   0  0  2  0  0  0  0  0  0  0  0  0
    5.6510  -15.9629   25.9025 N   0  0  0  0  0  0  0  0  0  0  0  0
    7.5351  -15.5508   24.5005 C   0  0  0  0  0  0  0  0  0  0  0  0
    8.0753  -16.5003   25.1454 O   0  0  0  0  0  0  0  0  0  0  0  0
    8.1430  -14.9991   23.3381 N   0  0  0  0  0  0  0  0  0  0  0  0
    9.3284  -15.6265   22.8041 C   0  0  1  0  0  0  0  0  0  0  0  0
    9.6112  -14.9809   21.4780 C   0  0  0  0  0  0  0  0  0  0  0  0
    8.3923  -14.6615   20.6784 C   0  0  0  0  0  0  0  0  0  0  0  0
    8.8790  -13.9637   19.3993 C   0  0  0  0  0  0  0  0  0  0  0  0
    7.6570  -13.6013   18.5534 C   0  0  0  0  0  0  0  0  0  0  0  0
    8.1239  -12.8371   17.4127 N   0  0  0  0  0  0  0  0  0  0  0  0
   10.4625  -15.5736   23.7401 C   0  0  0  0  0  0  0  0  0  0  0  0
   11.4676  -14.8382   23.6152 O   0  0  0  0  0  0  0  0  0  0  0  0
   11.5854  -13.6098   26.9319 C   0  0  0  0  0  0  0  0  0  0  0  0
   10.7072  -14.7359   27.4158 C   0  0  2  0  0  0  0  0  0  0  0  0
   10.1768  -14.4937   28.7820 C   0  0  0  0  0  0  0  0  0  0  0  0
   11.1979  -16.0922   27.1503 C   0  0  0  0  0  0  0  0  0  0  0  0
   11.6027  -16.4956   25.7924 C   0  0  2  0  0  0  0  0  0  0  0  0
   10.4315  -16.4157   24.8801 N   0  0  0  0  0  0  0  0  0  0  0  0
   12.1814  -17.8240   25.6004 C   0  0  0  0  0  0  0  0  0  0  0  0
   11.6414  -18.8612   24.8603 O   0  0  0  0  0  0  0  0  0  0  0  0
   13.2924  -18.1020   26.1537 O   0  0  0  0  0  0  0  0  0  0  0  0
  2  1  1  0
  3  2  1  0
  4  5  1  0
  4  3  1  0
  5  7  1  0
  5  6  1  1
  7  8  2  0
  9 10  1  0
  9  7  1  0
 11 12  1  0
 10 11  1  6
 13 12  1  0
 13 14  1  0
 15 14  1  0
 16 10  1  0
 16 17  2  0
 19 18  1  1
 19 21  1  0
 20 19  1  0
 22 21  1  1
 22 24  1  0
 22 23  1  0
 23 16  1  0
 24 25  1  0
 26 24  2  0
M  END
$$$$
