MKL.pdb
     RDKit          3D

 26 25  0  0  1  0  0  0  0  0999 V2000
    8.9997  -11.5348   19.9271 C   0  0  0  0  0  0  0  0  0  0  0  0
    7.9451  -12.2166   18.6069 S   0  0  0  0  0  0  0  0  0  0  0  0
    8.0873  -14.0221   18.6887 C   0  0  0  0  0  0  0  0  0  0  0  0
    7.8775  -14.4663   20.1205 C   0  0  0  0  0  0  0  0  0  0  0  0
    8.0701  -15.9671   20.1560 C   0  0  2  0  0  0  0  0  0  0  0  0
    6.9081  -16.5941   19.5888 N   0  0  0  0  0  0  0  0  0  0  0  0
    8.1997  -16.3564   21.5789 C   0  0  0  0  0  0  0  0  0  0  0  0
    7.1451  -16.4107   22.2819 O   0  0  0  0  0  0  0  0  0  0  0  0
    9.4773  -16.6581   22.1280 N   0  0  0  0  0  0  0  0  0  0  0  0
    9.5585  -17.1442   23.4849 C   0  0  1  0  0  0  0  0  0  0  0  0
   10.7100  -18.1064   23.5418 C   0  0  0  0  0  0  0  0  0  0  0  0
   10.8655  -18.8007   24.8536 C   0  0  0  0  0  0  0  0  0  0  0  0
   12.1119  -19.6905   24.7322 C   0  0  0  0  0  0  0  0  0  0  0  0
   12.2519  -20.5020   26.0213 C   0  0  0  0  0  0  0  0  0  0  0  0
   13.2720  -21.5083   25.7978 N   0  0  0  0  0  0  0  0  0  0  0  0
    9.6516  -16.0533   24.4679 C   0  0  0  0  0  0  0  0  0  0  0  0
   10.4429  -15.0859   24.3995 O   0  0  0  0  0  0  0  0  0  0  0  0
    8.0237  -12.0620   26.2873 C   0  0  0  0  0  0  0  0  0  0  0  0
    7.0660  -13.2213   26.1780 C   0  0  2  0  0  0  0  0  0  0  0  0
    5.6555  -12.8143   26.4051 C   0  0  0  0  0  0  0  0  0  0  0  0
    7.4867  -14.4653   26.8309 C   0  0  0  0  0  0  0  0  0  0  0  0
    8.8384  -15.0104   26.6157 C   0  0  2  0  0  0  0  0  0  0  0  0
    8.7838  -16.0838   25.5885 N   0  0  0  0  0  0  0  0  0  0  0  0
    9.5559  -15.5731   27.7580 C   0  0  0  0  0  0  0  0  0  0  0  0
    9.7914  -16.9139   28.0068 O   0  0  0  0  0  0  0  0  0  0  0  0
   10.0274  -14.7888   28.6413 O   0  0  0  0  0  0  0  0  0  0  0  0
  2  1  1  0
  3  2  1  0
  4  5  1  0
  4  3  1  0
  5  7  1  0
  5  6  1  1
  7  8  2  0
  9 10  1  0
  9  7  1  0
 11 12  1  0
 10 11  1  6
 13 12  1  0
 13 14  1  0
 15 14  1  0
 16 10  1  0
 16 17  2  0
 19 18  1  1
 19 21  1  0
 20 19  1  0
 22 21  1  1
 22 24  1  0
 22 23  1  0
 23 16  1  0
 24 25  1  0
 26 24  2  0
M  END
$$$$
