MKL.pdb
     RDKit          3D

 26 25  0  0  1  0  0  0  0  0999 V2000
    8.2860  -17.4996   28.4896 C   0  0  0  0  0  0  0  0  0  0  0  0
    7.0831  -18.8668   28.4286 S   0  0  0  0  0  0  0  0  0  0  0  0
    6.2728  -18.7932   26.8085 C   0  0  0  0  0  0  0  0  0  0  0  0
    7.2006  -19.3841   25.7687 C   0  0  0  0  0  0  0  0  0  0  0  0
    6.5900  -19.1027   24.4126 C   0  0  2  0  0  0  0  0  0  0  0  0
    6.5220  -20.3334   23.6738 N   0  0  0  0  0  0  0  0  0  0  0  0
    7.4906  -18.1551   23.7171 C   0  0  0  0  0  0  0  0  0  0  0  0
    8.6937  -18.5075   23.5226 O   0  0  0  0  0  0  0  0  0  0  0  0
    7.0062  -16.8888   23.2850 N   0  0  0  0  0  0  0  0  0  0  0  0
    7.9275  -15.9571   22.6789 C   0  0  1  0  0  0  0  0  0  0  0  0
    7.1365  -15.1118   21.7225 C   0  0  0  0  0  0  0  0  0  0  0  0
    7.9428  -14.0855   20.9988 C   0  0  0  0  0  0  0  0  0  0  0  0
    7.3560  -13.9875   19.5825 C   0  0  0  0  0  0  0  0  0  0  0  0
    8.2727  -13.0970   18.7418 C   0  0  0  0  0  0  0  0  0  0  0  0
    7.7007  -13.0099   17.4119 N   0  0  0  0  0  0  0  0  0  0  0  0
    8.6754  -15.1766   23.6772 C   0  0  0  0  0  0  0  0  0  0  0  0
    9.5389  -14.3091   23.4156 O   0  0  0  0  0  0  0  0  0  0  0  0
    7.2282  -12.0193   25.7462 C   0  0  0  0  0  0  0  0  0  0  0  0
    6.8807  -13.2792   26.4979 C   0  0  2  0  0  0  0  0  0  0  0  0
    5.7501  -13.0826   27.4412 C   0  0  0  0  0  0  0  0  0  0  0  0
    8.0152  -14.0544   27.0107 C   0  0  0  0  0  0  0  0  0  0  0  0
    9.0485  -14.5733   26.0977 C   0  0  2  0  0  0  0  0  0  0  0  0
    8.4098  -15.4123   25.0496 N   0  0  0  0  0  0  0  0  0  0  0  0
   10.1372  -15.3733   26.6554 C   0  0  0  0  0  0  0  0  0  0  0  0
   10.4494  -16.6824   26.3332 O   0  0  0  0  0  0  0  0  0  0  0  0
   10.9000  -14.8565   27.5322 O   0  0  0  0  0  0  0  0  0  0  0  0
  2  1  1  0
  3  2  1  0
  4  5  1  0
  4  3  1  0
  5  7  1  0
  5  6  1  6
  7  8  2  0
  9 10  1  0
  9  7  1  0
 11 12  1  0
 10 11  1  6
 13 12  1  0
 13 14  1  0
 15 14  1  0
 16 10  1  0
 16 17  2  0
 19 18  1  1
 19 21  1  0
 20 19  1  0
 22 21  1  1
 22 24  1  0
 22 23  1  0
 23 16  1  0
 24 25  1  0
 26 24  2  0
M  END
$$$$
