MKL.pdb
     RDKit          3D

 26 25  0  0  1  0  0  0  0  0999 V2000
    7.4854  -12.0416   19.2456 C   0  0  0  0  0  0  0  0  0  0  0  0
    8.7548  -12.6738   18.1016 S   0  0  0  0  0  0  0  0  0  0  0  0
    8.6360  -14.4828   18.1190 C   0  0  0  0  0  0  0  0  0  0  0  0
    8.2297  -14.9344   19.5054 C   0  0  0  0  0  0  0  0  0  0  0  0
    8.1732  -16.4468   19.4847 C   0  0  2  0  0  0  0  0  0  0  0  0
    7.0289  -16.8544   18.7169 N   0  0  0  0  0  0  0  0  0  0  0  0
    8.0162  -16.8965   20.8868 C   0  0  0  0  0  0  0  0  0  0  0  0
    6.8660  -16.8136   21.4156 O   0  0  0  0  0  0  0  0  0  0  0  0
    9.1327  -17.4047   21.6079 N   0  0  0  0  0  0  0  0  0  0  0  0
    9.0040  -17.6313   23.0278 C   0  0  1  0  0  0  0  0  0  0  0  0
    9.8982  -18.7871   23.3740 C   0  0  0  0  0  0  0  0  0  0  0  0
    9.8894  -19.1586   24.8193 C   0  0  0  0  0  0  0  0  0  0  0  0
   10.9570  -20.2489   24.9969 C   0  0  0  0  0  0  0  0  0  0  0  0
   11.4227  -20.2342   26.4539 C   0  0  0  0  0  0  0  0  0  0  0  0
   12.6209  -19.4202   26.5235 N   0  0  0  0  0  0  0  0  0  0  0  0
    9.2738  -16.4192   23.8170 C   0  0  0  0  0  0  0  0  0  0  0  0
   10.3024  -15.7120   23.7246 O   0  0  0  0  0  0  0  0  0  0  0  0
    5.7583  -12.2785   26.7277 C   0  0  0  0  0  0  0  0  0  0  0  0
    7.1458  -12.8264   26.5084 C   0  0  2  0  0  0  0  0  0  0  0  0
    8.1277  -11.7640   26.1714 C   0  0  0  0  0  0  0  0  0  0  0  0
    7.2325  -14.0547   25.7118 C   0  0  0  0  0  0  0  0  0  0  0  0
    8.5112  -14.7724   25.5687 C   0  0  2  0  0  0  0  0  0  0  0  0
    8.3025  -16.0039   24.7625 N   0  0  0  0  0  0  0  0  0  0  0  0
    9.2185  -15.1896   26.7778 C   0  0  0  0  0  0  0  0  0  0  0  0
    8.9359  -16.2955   27.5602 O   0  0  0  0  0  0  0  0  0  0  0  0
   10.1989  -14.4941   27.1936 O   0  0  0  0  0  0  0  0  0  0  0  0
  2  1  1  0
  3  2  1  0
  4  5  1  0
  4  3  1  0
  5  7  1  0
  5  6  1  6
  7  8  2  0
  9 10  1  0
  9  7  1  0
 11 12  1  0
 10 11  1  1
 13 12  1  0
 13 14  1  0
 15 14  1  0
 16 10  1  0
 16 17  2  0
 19 18  1  6
 19 21  1  0
 20 19  1  0
 22 21  1  1
 22 24  1  0
 22 23  1  0
 23 16  1  0
 24 25  1  0
 26 24  2  0
M  END
$$$$
