MKL.pdb
     RDKit          3D

 26 25  0  0  1  0  0  0  0  0999 V2000
    4.7863  -10.3891   26.1378 C   0  0  0  0  0  0  0  0  0  0  0  0
    6.2353  -11.4913   26.2130 S   0  0  0  0  0  0  0  0  0  0  0  0
    5.7479  -13.0661   25.4586 C   0  0  0  0  0  0  0  0  0  0  0  0
    6.9379  -14.0016   25.4639 C   0  0  0  0  0  0  0  0  0  0  0  0
    6.5180  -15.2637   24.7415 C   0  0  2  0  0  0  0  0  0  0  0  0
    5.5109  -15.9279   25.5222 N   0  0  0  0  0  0  0  0  0  0  0  0
    7.7168  -16.1269   24.6395 C   0  0  0  0  0  0  0  0  0  0  0  0
    7.9196  -16.9788   25.5574 O   0  0  0  0  0  0  0  0  0  0  0  0
    8.6071  -15.9933   23.5374 N   0  0  0  0  0  0  0  0  0  0  0  0
    9.7328  -16.8912   23.4348 C   0  0  1  0  0  0  0  0  0  0  0  0
   10.1766  -16.8818   22.0001 C   0  0  0  0  0  0  0  0  0  0  0  0
   11.2092  -17.9075   21.6702 C   0  0  0  0  0  0  0  0  0  0  0  0
   11.4656  -17.7993   20.1594 C   0  0  0  0  0  0  0  0  0  0  0  0
   12.4948  -18.8614   19.7683 C   0  0  0  0  0  0  0  0  0  0  0  0
   12.8431  -18.6437   18.3774 N   0  0  0  0  0  0  0  0  0  0  0  0
   10.8049  -16.5593   24.3864 C   0  0  0  0  0  0  0  0  0  0  0  0
   11.6954  -15.6999   24.1993 O   0  0  0  0  0  0  0  0  0  0  0  0
   11.2895  -14.1138   27.2870 C   0  0  0  0  0  0  0  0  0  0  0  0
   10.6651  -15.3232   27.9356 C   0  0  2  0  0  0  0  0  0  0  0  0
   10.0699  -15.0117   29.2604 C   0  0  0  0  0  0  0  0  0  0  0  0
   11.4408  -16.5655   27.8580 C   0  0  0  0  0  0  0  0  0  0  0  0
   11.9711  -17.0445   26.5697 C   0  0  2  0  0  0  0  0  0  0  0  0
   10.8485  -17.2587   25.6188 N   0  0  0  0  0  0  0  0  0  0  0  0
   12.7626  -18.2731   26.5522 C   0  0  0  0  0  0  0  0  0  0  0  0
   12.4255  -19.4643   25.9336 O   0  0  0  0  0  0  0  0  0  0  0  0
   13.8814  -18.2984   27.1566 O   0  0  0  0  0  0  0  0  0  0  0  0
  2  1  1  0
  3  2  1  0
  4  5  1  0
  4  3  1  0
  5  7  1  0
  5  6  1  1
  7  8  2  0
  9 10  1  0
  9  7  1  0
 11 12  1  0
 10 11  1  6
 13 12  1  0
 13 14  1  0
 15 14  1  0
 16 10  1  0
 16 17  2  0
 19 18  1  1
 19 21  1  0
 20 19  1  0
 22 21  1  1
 22 24  1  0
 22 23  1  0
 23 16  1  0
 24 25  1  0
 26 24  2  0
M  END
$$$$
