MKL.pdb
     RDKit          3D

 26 25  0  0  1  0  0  0  0  0999 V2000
    6.6705  -11.4984   27.2098 C   0  0  0  0  0  0  0  0  0  0  0  0
    5.1385  -12.3933   26.7951 S   0  0  0  0  0  0  0  0  0  0  0  0
    5.3762  -14.1194   27.2961 C   0  0  0  0  0  0  0  0  0  0  0  0
    6.5222  -14.7076   26.5011 C   0  0  0  0  0  0  0  0  0  0  0  0
    5.9163  -15.5479   25.3975 C   0  0  2  0  0  0  0  0  0  0  0  0
    5.4955  -16.8043   25.9536 N   0  0  0  0  0  0  0  0  0  0  0  0
    6.9793  -15.7805   24.3932 C   0  0  0  0  0  0  0  0  0  0  0  0
    7.5681  -16.9042   24.3956 O   0  0  0  0  0  0  0  0  0  0  0  0
    7.3199  -14.7632   23.4583 N   0  0  0  0  0  0  0  0  0  0  0  0
    8.4010  -14.9987   22.5311 C   0  0  1  0  0  0  0  0  0  0  0  0
    8.3132  -13.9388   21.4709 C   0  0  0  0  0  0  0  0  0  0  0  0
    8.9972  -14.2915   20.1922 C   0  0  0  0  0  0  0  0  0  0  0  0
    8.8109  -13.0914   19.2515 C   0  0  0  0  0  0  0  0  0  0  0  0
    9.4541  -13.4301   17.9055 C   0  0  0  0  0  0  0  0  0  0  0  0
    9.0488  -14.7770   17.5520 N   0  0  0  0  0  0  0  0  0  0  0  0
    9.7109  -15.0586   23.1988 C   0  0  0  0  0  0  0  0  0  0  0  0
   10.7048  -14.3579   22.9022 O   0  0  0  0  0  0  0  0  0  0  0  0
   10.2082  -13.6410   26.9691 C   0  0  0  0  0  0  0  0  0  0  0  0
    9.8376  -15.0885   27.1711 C   0  0  2  0  0  0  0  0  0  0  0  0
    9.4476  -15.3830   28.5738 C   0  0  0  0  0  0  0  0  0  0  0  0
   10.7175  -16.0718   26.5310 C   0  0  0  0  0  0  0  0  0  0  0  0
   11.0986  -15.9339   25.1146 C   0  0  2  0  0  0  0  0  0  0  0  0
    9.8792  -15.9774   24.2652 N   0  0  0  0  0  0  0  0  0  0  0  0
   12.0304  -16.9042   24.5430 C   0  0  0  0  0  0  0  0  0  0  0  0
   13.3880  -16.9939   24.7959 O   0  0  0  0  0  0  0  0  0  0  0  0
   11.5950  -17.7723   23.7218 O   0  0  0  0  0  0  0  0  0  0  0  0
  2  1  1  0
  3  2  1  0
  4  5  1  0
  4  3  1  0
  5  7  1  0
  5  6  1  1
  7  8  2  0
  9 10  1  0
  9  7  1  0
 11 12  1  0
 10 11  1  6
 13 12  1  0
 13 14  1  0
 15 14  1  0
 16 10  1  0
 16 17  2  0
 19 18  1  1
 19 21  1  0
 20 19  1  0
 22 21  1  1
 22 24  1  0
 22 23  1  0
 23 16  1  0
 24 25  1  0
 26 24  2  0
M  END
$$$$
