MKL.pdb
     RDKit          3D

 26 25  0  0  1  0  0  0  0  0999 V2000
    8.5875  -11.5373   20.0970 C   0  0  0  0  0  0  0  0  0  0  0  0
    8.0972  -12.2558   18.4960 S   0  0  0  0  0  0  0  0  0  0  0  0
    8.3628  -14.0456   18.6102 C   0  0  0  0  0  0  0  0  0  0  0  0
    7.9766  -14.5113   19.9977 C   0  0  0  0  0  0  0  0  0  0  0  0
    8.2872  -15.9906   20.0758 C   0  0  2  0  0  0  0  0  0  0  0  0
    7.3227  -16.7059   19.2864 N   0  0  0  0  0  0  0  0  0  0  0  0
    8.1596  -16.3885   21.4964 C   0  0  0  0  0  0  0  0  0  0  0  0
    6.9932  -16.5306   21.9746 O   0  0  0  0  0  0  0  0  0  0  0  0
    9.3212  -16.6018   22.2902 N   0  0  0  0  0  0  0  0  0  0  0  0
    9.1637  -17.0374   23.6575 C   0  0  1  0  0  0  0  0  0  0  0  0
    9.9058  -18.3356   23.7963 C   0  0  0  0  0  0  0  0  0  0  0  0
    9.2829  -19.4796   23.0680 C   0  0  0  0  0  0  0  0  0  0  0  0
   10.3412  -19.9988   22.0828 C   0  0  0  0  0  0  0  0  0  0  0  0
    9.7675  -21.2174   21.3576 C   0  0  0  0  0  0  0  0  0  0  0  0
    9.6116  -22.2769   22.3356 N   0  0  0  0  0  0  0  0  0  0  0  0
    9.5824  -16.0117   24.6258 C   0  0  0  0  0  0  0  0  0  0  0  0
   10.7283  -15.5134   24.6990 O   0  0  0  0  0  0  0  0  0  0  0  0
    7.6396  -12.2227   25.3362 C   0  0  0  0  0  0  0  0  0  0  0  0
    6.9549  -13.1628   26.2956 C   0  0  2  0  0  0  0  0  0  0  0  0
    5.7642  -12.5490   26.9376 C   0  0  0  0  0  0  0  0  0  0  0  0
    7.8363  -13.9299   27.1819 C   0  0  0  0  0  0  0  0  0  0  0  0
    9.0278  -14.6154   26.6519 C   0  0  2  0  0  0  0  0  0  0  0  0
    8.6250  -15.5380   25.5578 N   0  0  0  0  0  0  0  0  0  0  0  0
    9.8484  -15.4028   27.5700 C   0  0  0  0  0  0  0  0  0  0  0  0
   10.7680  -14.9148   28.4817 O   0  0  0  0  0  0  0  0  0  0  0  0
    9.7431  -16.6703   27.5639 O   0  0  0  0  0  0  0  0  0  0  0  0
  2  1  1  0
  3  2  1  0
  4  5  1  0
  4  3  1  0
  5  7  1  0
  5  6  1  6
  7  8  2  0
  9 10  1  0
  9  7  1  0
 11 12  1  0
 10 11  1  6
 13 12  1  0
 13 14  1  0
 15 14  1  0
 16 10  1  0
 16 17  2  0
 19 18  1  1
 19 21  1  0
 20 19  1  0
 22 21  1  1
 22 24  1  0
 22 23  1  0
 23 16  1  0
 24 25  1  0
 26 24  2  0
M  END
$$$$
