MKL.pdb
     RDKit          3D

 26 25  0  0  1  0  0  0  0  0999 V2000
    5.2562  -17.1611   25.9956 C   0  0  0  0  0  0  0  0  0  0  0  0
    6.6567  -18.3224   25.8955 S   0  0  0  0  0  0  0  0  0  0  0  0
    6.8387  -18.7905   24.1535 C   0  0  0  0  0  0  0  0  0  0  0  0
    5.8661  -17.9802   23.3236 C   0  0  0  0  0  0  0  0  0  0  0  0
    6.3156  -18.0817   21.8819 C   0  0  2  0  0  0  0  0  0  0  0  0
    6.6940  -19.4415   21.6120 N   0  0  0  0  0  0  0  0  0  0  0  0
    7.4945  -17.1986   21.7296 C   0  0  0  0  0  0  0  0  0  0  0  0
    8.6441  -17.7346   21.7104 O   0  0  0  0  0  0  0  0  0  0  0  0
    7.3270  -15.7906   21.6093 N   0  0  0  0  0  0  0  0  0  0  0  0
    8.4925  -14.9618   21.4125 C   0  0  1  0  0  0  0  0  0  0  0  0
    8.0112  -13.6388   20.8897 C   0  0  0  0  0  0  0  0  0  0  0  0
    7.2153  -13.7292   19.6305 C   0  0  0  0  0  0  0  0  0  0  0  0
    8.1806  -13.4084   18.4793 C   0  0  0  0  0  0  0  0  0  0  0  0
    7.4057  -13.4927   17.1631 C   0  0  0  0  0  0  0  0  0  0  0  0
    8.3688  -13.4196   16.0813 N   0  0  0  0  0  0  0  0  0  0  0  0
    9.3159  -14.8524   22.6270 C   0  0  0  0  0  0  0  0  0  0  0  0
   10.4288  -14.2836   22.6956 O   0  0  0  0  0  0  0  0  0  0  0  0
    6.8794  -13.3414   27.7688 C   0  0  0  0  0  0  0  0  0  0  0  0
    8.1769  -13.4517   27.0088 C   0  0  2  0  0  0  0  0  0  0  0  0
    8.9947  -12.2151   27.1015 C   0  0  0  0  0  0  0  0  0  0  0  0
    8.0921  -14.0652   25.6794 C   0  0  0  0  0  0  0  0  0  0  0  0
    9.2063  -14.8687   25.1469 C   0  0  2  0  0  0  0  0  0  0  0  0
    8.8257  -15.4315   23.8245 N   0  0  0  0  0  0  0  0  0  0  0  0
    9.7026  -15.9903   25.9418 C   0  0  0  0  0  0  0  0  0  0  0  0
   10.8696  -16.0240   26.6847 O   0  0  0  0  0  0  0  0  0  0  0  0
    9.0280  -17.0678   25.9823 O   0  0  0  0  0  0  0  0  0  0  0  0
  2  1  1  0
  3  2  1  0
  4  5  1  0
  4  3  1  0
  5  7  1  0
  5  6  1  1
  7  8  2  0
  9 10  1  0
  9  7  1  0
 11 12  1  0
 10 11  1  1
 13 12  1  0
 13 14  1  0
 15 14  1  0
 16 10  1  0
 16 17  2  0
 19 18  1  6
 19 21  1  0
 20 19  1  0
 22 21  1  1
 22 24  1  0
 22 23  1  0
 23 16  1  0
 24 25  1  0
 26 24  2  0
M  END
$$$$
