MKL.pdb
     RDKit          3D

 26 25  0  0  1  0  0  0  0  0999 V2000
    8.5381  -11.5647   20.2497 C   0  0  0  0  0  0  0  0  0  0  0  0
    8.3501  -12.7015   18.8383 S   0  0  0  0  0  0  0  0  0  0  0  0
    6.9969  -13.8376   19.2443 C   0  0  0  0  0  0  0  0  0  0  0  0
    7.1635  -14.3082   20.6733 C   0  0  0  0  0  0  0  0  0  0  0  0
    7.2645  -15.8181   20.6382 C   0  0  2  0  0  0  0  0  0  0  0  0
    5.9673  -16.3596   20.3398 N   0  0  0  0  0  0  0  0  0  0  0  0
    7.6880  -16.2581   21.9872 C   0  0  0  0  0  0  0  0  0  0  0  0
    6.8153  -16.2877   22.9074 O   0  0  0  0  0  0  0  0  0  0  0  0
    9.0389  -16.6340   22.2294 N   0  0  0  0  0  0  0  0  0  0  0  0
    9.3965  -17.1621   23.5245 C   0  0  1  0  0  0  0  0  0  0  0  0
   10.5367  -18.1164   23.3135 C   0  0  0  0  0  0  0  0  0  0  0  0
   10.9279  -18.8844   24.5318 C   0  0  0  0  0  0  0  0  0  0  0  0
   12.1163  -19.7699   24.1274 C   0  0  0  0  0  0  0  0  0  0  0  0
   12.5369  -20.5967   25.3438 C   0  0  0  0  0  0  0  0  0  0  0  0
   13.5780  -21.5105   24.9146 N   0  0  0  0  0  0  0  0  0  0  0  0
    9.6873  -16.1021   24.5028 C   0  0  0  0  0  0  0  0  0  0  0  0
   10.6246  -15.2771   24.4156 O   0  0  0  0  0  0  0  0  0  0  0  0
    8.2618  -12.1229   25.6880 C   0  0  0  0  0  0  0  0  0  0  0  0
    7.3046  -13.2202   26.0792 C   0  0  2  0  0  0  0  0  0  0  0  0
    5.9550  -12.7004   26.4182 C   0  0  0  0  0  0  0  0  0  0  0  0
    7.8393  -14.2484   26.9779 C   0  0  0  0  0  0  0  0  0  0  0  0
    9.1006  -14.9424   26.6644 C   0  0  2  0  0  0  0  0  0  0  0  0
    8.8498  -15.9913   25.6412 N   0  0  0  0  0  0  0  0  0  0  0  0
    9.8283  -15.5957   27.7506 C   0  0  0  0  0  0  0  0  0  0  0  0
   10.1359  -16.9416   27.8467 O   0  0  0  0  0  0  0  0  0  0  0  0
   10.2377  -14.8965   28.7310 O   0  0  0  0  0  0  0  0  0  0  0  0
  2  1  1  0
  3  2  1  0
  4  5  1  0
  4  3  1  0
  5  7  1  0
  5  6  1  1
  7  8  2  0
  9 10  1  0
  9  7  1  0
 11 12  1  0
 10 11  1  6
 13 12  1  0
 13 14  1  0
 15 14  1  0
 16 10  1  0
 16 17  2  0
 19 18  1  1
 19 21  1  0
 20 19  1  0
 22 21  1  1
 22 24  1  0
 22 23  1  0
 23 16  1  0
 24 25  1  0
 26 24  2  0
M  END
$$$$
