MKL.pdb
     RDKit          3D

 26 25  0  0  1  0  0  0  0  0999 V2000
   10.3427  -18.7420   16.6928 C   0  0  0  0  0  0  0  0  0  0  0  0
    9.3246  -20.1690   17.1897 S   0  0  0  0  0  0  0  0  0  0  0  0
    8.9049  -19.9423   18.9387 C   0  0  0  0  0  0  0  0  0  0  0  0
    9.0637  -18.4799   19.2957 C   0  0  0  0  0  0  0  0  0  0  0  0
    8.8028  -18.3511   20.7811 C   0  0  2  0  0  0  0  0  0  0  0  0
    7.3849  -18.4138   21.0068 N   0  0  0  0  0  0  0  0  0  0  0  0
    9.3142  -17.0261   21.2002 C   0  0  0  0  0  0  0  0  0  0  0  0
   10.5708  -16.8585   21.2479 O   0  0  0  0  0  0  0  0  0  0  0  0
    8.4099  -15.9803   21.5370 N   0  0  0  0  0  0  0  0  0  0  0  0
    8.9372  -14.6732   21.8492 C   0  0  1  0  0  0  0  0  0  0  0  0
    7.9343  -13.6650   21.3666 C   0  0  0  0  0  0  0  0  0  0  0  0
    7.3682  -13.9595   20.0175 C   0  0  0  0  0  0  0  0  0  0  0  0
    8.4071  -13.4787   18.9931 C   0  0  0  0  0  0  0  0  0  0  0  0
    7.8392  -13.7016   17.5903 C   0  0  0  0  0  0  0  0  0  0  0  0
    8.8397  -13.2618   16.6369 N   0  0  0  0  0  0  0  0  0  0  0  0
    9.2791  -14.5307   23.2732 C   0  0  0  0  0  0  0  0  0  0  0  0
   10.1580  -13.7662   23.7314 O   0  0  0  0  0  0  0  0  0  0  0  0
    8.1423  -12.1192   26.5673 C   0  0  0  0  0  0  0  0  0  0  0  0
    7.0657  -13.0436   26.0578 C   0  0  2  0  0  0  0  0  0  0  0  0
    5.7094  -12.6343   26.5045 C   0  0  0  0  0  0  0  0  0  0  0  0
    7.3605  -14.4780   26.1376 C   0  0  0  0  0  0  0  0  0  0  0  0
    8.6520  -15.0099   25.6689 C   0  0  2  0  0  0  0  0  0  0  0  0
    8.5666  -15.3138   24.2161 N   0  0  0  0  0  0  0  0  0  0  0  0
    9.1875  -16.2106   26.3075 C   0  0  0  0  0  0  0  0  0  0  0  0
    9.7276  -16.2994   27.5785 O   0  0  0  0  0  0  0  0  0  0  0  0
    9.1803  -17.3092   25.6667 O   0  0  0  0  0  0  0  0  0  0  0  0
  2  1  1  0
  3  2  1  0
  4  5  1  0
  4  3  1  0
  5  7  1  0
  5  6  1  6
  7  8  2  0
  9 10  1  0
  9  7  1  0
 11 12  1  0
 10 11  1  1
 13 12  1  0
 13 14  1  0
 15 14  1  0
 16 10  1  0
 16 17  2  0
 19 18  1  1
 19 21  1  0
 20 19  1  0
 22 21  1  1
 22 24  1  0
 22 23  1  0
 23 16  1  0
 24 25  1  0
 26 24  2  0
M  END
$$$$
