RVD.pdb
     RDKit          3D

 27 26  0  0  1  0  0  0  0  0999 V2000
    8.4789  -12.6625   18.7102 N   0  0  0  0  0  0  0  0  0  0  0  0
    8.0267  -13.5653   17.7020 C   0  0  0  0  0  0  0  0  0  0  0  0
    8.3551  -13.4017   16.4748 N   0  0  0  0  0  0  0  0  0  0  0  0
    7.1978  -14.6765   18.0271 N   0  0  0  0  0  0  0  0  0  0  0  0
    6.7861  -14.9728   19.3730 C   0  0  0  0  0  0  0  0  0  0  0  0
    7.4056  -16.2793   19.8837 C   0  0  0  0  0  0  0  0  0  0  0  0
    8.0650  -15.9358   21.1892 C   0  0  0  0  0  0  0  0  0  0  0  0
    7.0990  -15.4797   22.2630 C   0  0  2  0  0  0  0  0  0  0  0  0
    6.2437  -14.4672   21.6265 N   0  0  0  0  0  0  0  0  0  0  0  0
    7.8665  -14.7975   23.3256 C   0  0  0  0  0  0  0  0  0  0  0  0
    8.8467  -14.0447   23.1175 O   0  0  0  0  0  0  0  0  0  0  0  0
    8.0157  -13.9639   15.6729 C   0  0  0  0  0  0  0  0  0  0  0  0
    7.8295  -12.7993   27.6398 C   0  0  2  0  0  0  0  0  0  0  0  0
    7.2258  -13.5101   26.4798 C   0  0  0  0  0  0  0  0  0  0  0  0
    6.6526  -12.4754   25.5420 C   0  0  1  0  0  0  0  0  0  0  0  0
    8.2562  -14.3549   25.7475 N   0  0  0  0  0  0  0  0  0  0  0  0
    7.4885  -14.9921   24.6731 C   0  0  0  0  0  0  0  0  0  0  0  0
    8.9319  -15.3394   26.5756 O   0  0  0  0  0  0  0  0  0  0  0  0
    8.2401  -16.3145   27.0332 N   0  0  0  0  0  0  0  0  0  0  0  0
   10.2944  -15.3559   26.9461 C   0  0  1  0  0  0  0  0  0  0  0  0
   10.8394  -16.3901   27.8241 C   0  0  0  0  0  0  0  0  0  0  0  0
   12.3130  -16.6374   27.5106 C   0  0  0  0  0  0  0  0  0  0  0  0
   12.4857  -17.1938   26.1548 O   0  0  0  0  0  0  0  0  0  0  0  0
   11.5434  -17.5288   25.3968 C   0  0  0  0  0  0  0  0  0  0  0  0
   10.7910  -15.8871   29.2108 O   0  0  0  0  0  0  0  0  0  0  0  0
   10.9740  -16.6828   30.3346 O   0  0  0  0  0  0  0  0  0  0  0  0
   13.7758  -17.3850   25.6225 O   0  0  0  0  0  0  0  0  0  0  0  0
  2  3  2  0
  2  1  1  0
  4  2  1  0
  5  4  1  0
  6  5  1  0
  7  6  1  0
  8  7  1  0
  8  9  1  6
 10  8  1  0
 11 10  2  0
 13 12  1  1
 13 14  1  0
 15 13  1  0
 15 16  1  1
 16 10  1  0
 17 19  1  0
 17 15  1  0
 18 17  2  0
 20 19  1  0
 20 21  1  1
 21 22  1  0
 22 26  1  0
 23 22  2  0
 24 25  1  0
 24 20  1  0
 27 24  2  0
M  END
$$$$
