RVD.pdb
     RDKit          3D

 27 26  0  0  1  0  0  0  0  0999 V2000
    8.6607  -14.9934   17.5598 N   0  0  0  0  0  0  0  0  0  0  0  0
    8.2458  -13.7373   17.0251 C   0  0  0  0  0  0  0  0  0  0  0  0
    8.3005  -13.5059   15.7665 N   0  0  0  0  0  0  0  0  0  0  0  0
    7.7571  -12.7022   17.8718 N   0  0  0  0  0  0  0  0  0  0  0  0
    7.4360  -12.9168   19.2574 C   0  0  0  0  0  0  0  0  0  0  0  0
    7.3311  -14.4093   19.5934 C   0  0  0  0  0  0  0  0  0  0  0  0
    6.9065  -14.4751   21.0330 C   0  0  0  0  0  0  0  0  0  0  0  0
    7.6778  -15.4873   21.8543 C   0  0  2  0  0  0  0  0  0  0  0  0
    6.6662  -16.3756   22.4455 N   0  0  0  0  0  0  0  0  0  0  0  0
    8.3419  -14.7793   22.9686 C   0  0  0  0  0  0  0  0  0  0  0  0
    9.4025  -14.1212   22.8559 O   0  0  0  0  0  0  0  0  0  0  0  0
    8.0967  -12.6011   15.3037 C   0  0  0  0  0  0  0  0  0  0  0  0
    7.7402  -12.9233   27.4291 C   0  0  2  0  0  0  0  0  0  0  0  0
    7.2582  -13.6812   26.2423 C   0  0  0  0  0  0  0  0  0  0  0  0
    6.3663  -12.7701   25.4341 C   0  0  1  0  0  0  0  0  0  0  0  0
    8.4158  -14.1641   25.3829 N   0  0  0  0  0  0  0  0  0  0  0  0
    7.7607  -14.8340   24.2552 C   0  0  0  0  0  0  0  0  0  0  0  0
    9.3460  -15.0504   26.0617 O   0  0  0  0  0  0  0  0  0  0  0  0
   10.0594  -14.5619   27.0058 N   0  0  0  0  0  0  0  0  0  0  0  0
    9.5648  -16.4214   25.8041 C   0  0  1  0  0  0  0  0  0  0  0  0
   10.6213  -17.1715   26.4814 C   0  0  0  0  0  0  0  0  0  0  0  0
   10.1504  -18.5873   26.8049 C   0  0  0  0  0  0  0  0  0  0  0  0
   10.0216  -18.7889   28.2610 O   0  0  0  0  0  0  0  0  0  0  0  0
    9.5837  -19.8342   28.7997 C   0  0  0  0  0  0  0  0  0  0  0  0
   11.7533  -17.3166   25.5456 O   0  0  0  0  0  0  0  0  0  0  0  0
   12.9818  -17.8663   25.8888 O   0  0  0  0  0  0  0  0  0  0  0  0
   10.4009  -17.7703   29.1572 O   0  0  0  0  0  0  0  0  0  0  0  0
  2  3  2  0
  2  1  1  0
  4  2  1  0
  5  4  1  0
  6  5  1  0
  7  6  1  0
  8  7  1  0
  8  9  1  1
 10  8  1  0
 11 10  2  0
 13 12  1  1
 13 14  1  0
 15 13  1  0
 15 16  1  1
 16 10  1  0
 17 19  1  0
 17 15  1  0
 18 17  2  0
 20 19  1  0
 20 21  1  6
 21 22  1  0
 22 26  1  0
 23 22  2  0
 24 25  1  0
 24 20  1  0
 27 24  2  0
M  END
$$$$
