RVD.pdb
     RDKit          3D

 27 26  0  0  1  0  0  0  0  0999 V2000
    8.4576  -15.7017   16.8456 N   0  0  0  0  0  0  0  0  0  0  0  0
    8.0512  -14.5120   16.1708 C   0  0  0  0  0  0  0  0  0  0  0  0
    8.4146  -14.2811   14.9645 N   0  0  0  0  0  0  0  0  0  0  0  0
    7.2287  -13.5447   16.8152 N   0  0  0  0  0  0  0  0  0  0  0  0
    6.9376  -13.5847   18.2232 C   0  0  0  0  0  0  0  0  0  0  0  0
    8.1899  -13.3320   19.0714 C   0  0  0  0  0  0  0  0  0  0  0  0
    7.7235  -13.3352   20.4995 C   0  0  0  0  0  0  0  0  0  0  0  0
    7.9906  -14.6354   21.2291 C   0  0  2  0  0  0  0  0  0  0  0  0
    6.6754  -15.2654   21.4163 N   0  0  0  0  0  0  0  0  0  0  0  0
    8.5188  -14.3196   22.5726 C   0  0  0  0  0  0  0  0  0  0  0  0
    9.6970  -13.9591   22.8023 O   0  0  0  0  0  0  0  0  0  0  0  0
    8.1787  -13.4395   14.4074 C   0  0  0  0  0  0  0  0  0  0  0  0
    7.3663  -13.1015   27.1358 C   0  0  2  0  0  0  0  0  0  0  0  0
    7.0196  -13.4524   25.7316 C   0  0  0  0  0  0  0  0  0  0  0  0
    6.6876  -12.1760   24.9971 C   0  0  1  0  0  0  0  0  0  0  0  0
    8.1695  -14.1632   25.0357 N   0  0  0  0  0  0  0  0  0  0  0  0
    7.6566  -14.4240   23.6870 C   0  0  0  0  0  0  0  0  0  0  0  0
    8.6073  -15.3871   25.6851 O   0  0  0  0  0  0  0  0  0  0  0  0
    7.7762  -16.3581   25.7574 N   0  0  0  0  0  0  0  0  0  0  0  0
    9.8710  -15.6464   26.2595 C   0  0  1  0  0  0  0  0  0  0  0  0
   10.1950  -16.9442   26.8496 C   0  0  0  0  0  0  0  0  0  0  0  0
   11.5293  -17.4582   26.3143 C   0  0  0  0  0  0  0  0  0  0  0  0
   11.9079  -18.7324   26.9551 O   0  0  0  0  0  0  0  0  0  0  0  0
   11.1294  -19.4504   27.6282 C   0  0  0  0  0  0  0  0  0  0  0  0
   10.3780  -16.7553   28.3019 O   0  0  0  0  0  0  0  0  0  0  0  0
   10.2962  -17.7792   29.2368 O   0  0  0  0  0  0  0  0  0  0  0  0
   13.2220  -19.2259   26.8371 O   0  0  0  0  0  0  0  0  0  0  0  0
  2  3  2  0
  2  1  1  0
  4  2  1  0
  5  4  1  0
  6  5  1  0
  7  6  1  0
  8  7  1  0
  8  9  1  1
 10  8  1  0
 11 10  2  0
 13 12  1  1
 13 14  1  0
 15 13  1  0
 15 16  1  1
 16 10  1  0
 17 19  1  0
 17 15  1  0
 18 17  2  0
 20 19  1  0
 20 21  1  1
 21 22  1  0
 22 26  1  0
 23 22  2  0
 24 25  1  0
 24 20  1  0
 27 24  2  0
M  END
$$$$
