RVD.pdb
     RDKit          3D

 27 26  0  0  1  0  0  0  0  0999 V2000
    7.0766  -21.7250   15.6172 N   0  0  0  0  0  0  0  0  0  0  0  0
    7.9797  -20.9901   14.7924 C   0  0  0  0  0  0  0  0  0  0  0  0
    8.5406  -21.5365   13.7788 N   0  0  0  0  0  0  0  0  0  0  0  0
    8.2853  -19.6271   15.0682 N   0  0  0  0  0  0  0  0  0  0  0  0
    7.7827  -18.9356   16.2250 C   0  0  0  0  0  0  0  0  0  0  0  0
    7.9822  -19.7516   17.5079 C   0  0  0  0  0  0  0  0  0  0  0  0
    8.4713  -18.7763   18.5406 C   0  0  0  0  0  0  0  0  0  0  0  0
    8.5232  -17.3427   18.0543 C   0  0  2  0  0  0  0  0  0  0  0  0
    9.5111  -17.3262   16.9654 N   0  0  0  0  0  0  0  0  0  0  0  0
    9.0581  -16.4974   19.1420 C   0  0  0  0  0  0  0  0  0  0  0  0
   10.2783  -16.3460   19.3848 O   0  0  0  0  0  0  0  0  0  0  0  0
    9.2330  -21.0890   13.1506 C   0  0  0  0  0  0  0  0  0  0  0  0
    7.7522  -13.1083   22.4735 C   0  0  2  0  0  0  0  0  0  0  0  0
    7.5155  -13.9426   21.2639 C   0  0  0  0  0  0  0  0  0  0  0  0
    7.3754  -13.0198   20.0774 C   0  0  1  0  0  0  0  0  0  0  0  0
    8.6591  -14.9162   21.0272 N   0  0  0  0  0  0  0  0  0  0  0  0
    8.1525  -15.8044   19.9763 C   0  0  0  0  0  0  0  0  0  0  0  0
    9.0720  -15.6634   22.2031 O   0  0  0  0  0  0  0  0  0  0  0  0
    8.2871  -16.5752   22.6405 N   0  0  0  0  0  0  0  0  0  0  0  0
   10.2653  -15.5063   22.9416 C   0  0  1  0  0  0  0  0  0  0  0  0
   10.5595  -16.3328   24.1111 C   0  0  0  0  0  0  0  0  0  0  0  0
   12.0613  -16.3593   24.3846 C   0  0  0  0  0  0  0  0  0  0  0  0
   12.8172  -16.7598   23.1821 O   0  0  0  0  0  0  0  0  0  0  0  0
   12.4997  -17.7079   22.4238 C   0  0  0  0  0  0  0  0  0  0  0  0
    9.9365  -15.6990   25.2895 O   0  0  0  0  0  0  0  0  0  0  0  0
    9.8635  -16.2901   26.5443 O   0  0  0  0  0  0  0  0  0  0  0  0
   13.9855  -16.0655   22.8114 O   0  0  0  0  0  0  0  0  0  0  0  0
  2  3  2  0
  2  1  1  0
  4  2  1  0
  5  4  1  0
  6  5  1  0
  7  6  1  0
  8  7  1  0
  8  9  1  6
 10  8  1  0
 11 10  2  0
 13 12  1  1
 13 14  1  0
 15 13  1  0
 15 16  1  1
 16 10  1  0
 17 19  1  0
 17 15  1  0
 18 17  2  0
 20 19  1  0
 20 21  1  1
 21 22  1  0
 22 26  1  0
 23 22  2  0
 24 25  1  0
 24 20  1  0
 27 24  2  0
M  END
$$$$
