RVD.pdb
     RDKit          3D

 27 26  0  0  1  0  0  0  0  0999 V2000
    8.7923  -15.6135   15.9837 N   0  0  0  0  0  0  0  0  0  0  0  0
    7.4865  -15.0584   15.8332 C   0  0  0  0  0  0  0  0  0  0  0  0
    7.1546  -14.4336   14.7654 N   0  0  0  0  0  0  0  0  0  0  0  0
    6.5110  -15.1818   16.8630 N   0  0  0  0  0  0  0  0  0  0  0  0
    6.6116  -14.4857   18.1177 C   0  0  0  0  0  0  0  0  0  0  0  0
    8.0426  -14.5080   18.6684 C   0  0  0  0  0  0  0  0  0  0  0  0
    7.9057  -14.6815   20.1544 C   0  0  0  0  0  0  0  0  0  0  0  0
    7.6744  -13.3862   20.9045 C   0  0  2  0  0  0  0  0  0  0  0  0
    8.4456  -12.3636   20.1824 N   0  0  0  0  0  0  0  0  0  0  0  0
    8.2690  -13.5113   22.2515 C   0  0  0  0  0  0  0  0  0  0  0  0
    9.5001  -13.4904   22.4856 O   0  0  0  0  0  0  0  0  0  0  0  0
    6.2328  -13.9996   14.5748 C   0  0  0  0  0  0  0  0  0  0  0  0
    7.1471  -13.3474   27.0392 C   0  0  2  0  0  0  0  0  0  0  0  0
    6.8388  -13.1806   25.5927 C   0  0  0  0  0  0  0  0  0  0  0  0
    6.6155  -11.7115   25.3268 C   0  0  1  0  0  0  0  0  0  0  0  0
    7.9716  -13.6961   24.7195 N   0  0  0  0  0  0  0  0  0  0  0  0
    7.4123  -13.6658   23.3644 C   0  0  0  0  0  0  0  0  0  0  0  0
    8.4505  -15.0228   25.0686 O   0  0  0  0  0  0  0  0  0  0  0  0
    7.6255  -15.9985   24.9891 N   0  0  0  0  0  0  0  0  0  0  0  0
    9.7489  -15.3796   25.4938 C   0  0  1  0  0  0  0  0  0  0  0  0
   10.0982  -16.7615   25.8192 C   0  0  0  0  0  0  0  0  0  0  0  0
   11.5254  -17.0725   25.3749 C   0  0  0  0  0  0  0  0  0  0  0  0
   11.9316  -18.4290   25.7903 O   0  0  0  0  0  0  0  0  0  0  0  0
   11.1935  -19.4423   25.7342 C   0  0  0  0  0  0  0  0  0  0  0  0
   10.0824  -16.9051   27.2881 O   0  0  0  0  0  0  0  0  0  0  0  0
    9.9268  -18.1160   27.9505 O   0  0  0  0  0  0  0  0  0  0  0  0
   13.2265  -18.6618   26.2936 O   0  0  0  0  0  0  0  0  0  0  0  0
  2  3  2  0
  2  1  1  0
  4  2  1  0
  5  4  1  0
  6  5  1  0
  7  6  1  0
  8  7  1  0
  8  9  1  6
 10  8  1  0
 11 10  2  0
 13 12  1  1
 13 14  1  0
 15 13  1  0
 15 16  1  6
 16 10  1  0
 17 19  1  0
 17 15  1  0
 18 17  2  0
 20 19  1  0
 20 21  1  1
 21 22  1  0
 22 26  1  0
 23 22  2  0
 24 25  1  0
 24 20  1  0
 27 24  2  0
M  END
$$$$
