RVD.pdb
     RDKit          3D

 27 26  0  0  1  0  0  0  0  0999 V2000
   11.7413  -20.1502   19.3841 N   0  0  0  0  0  0  0  0  0  0  0  0
   12.0933  -20.6138   18.0814 C   0  0  0  0  0  0  0  0  0  0  0  0
   13.2971  -20.9532   17.8052 N   0  0  0  0  0  0  0  0  0  0  0  0
   11.1191  -20.7151   17.0480 N   0  0  0  0  0  0  0  0  0  0  0  0
    9.7760  -20.2214   17.1936 C   0  0  0  0  0  0  0  0  0  0  0  0
    9.7497  -18.8083   17.7886 C   0  0  0  0  0  0  0  0  0  0  0  0
    9.8939  -17.8716   16.6229 C   0  0  0  0  0  0  0  0  0  0  0  0
    9.0699  -16.6067   16.7468 C   0  0  2  0  0  0  0  0  0  0  0  0
    9.4358  -15.7771   15.5894 N   0  0  0  0  0  0  0  0  0  0  0  0
    9.5036  -15.8810   17.9588 C   0  0  0  0  0  0  0  0  0  0  0  0
   10.6853  -15.5328   18.1895 O   0  0  0  0  0  0  0  0  0  0  0  0
   13.6406  -21.2871   16.8860 C   0  0  0  0  0  0  0  0  0  0  0  0
    7.8433  -13.2596   21.7642 C   0  0  2  0  0  0  0  0  0  0  0  0
    7.6619  -14.0289   20.5031 C   0  0  0  0  0  0  0  0  0  0  0  0
    7.2814  -13.0579   19.4116 C   0  0  1  0  0  0  0  0  0  0  0  0
    8.9323  -14.7685   20.1150 N   0  0  0  0  0  0  0  0  0  0  0  0
    8.5395  -15.5469   18.9362 C   0  0  0  0  0  0  0  0  0  0  0  0
    9.4803  -15.6199   21.1573 O   0  0  0  0  0  0  0  0  0  0  0  0
    8.8832  -16.7249   21.4049 N   0  0  0  0  0  0  0  0  0  0  0  0
   10.6224  -15.3743   21.9507 C   0  0  1  0  0  0  0  0  0  0  0  0
   11.0854  -16.3364   22.9494 C   0  0  0  0  0  0  0  0  0  0  0  0
   12.5022  -15.9959   23.4052 C   0  0  0  0  0  0  0  0  0  0  0  0
   13.4752  -16.1806   22.3112 O   0  0  0  0  0  0  0  0  0  0  0  0
   13.4450  -17.1222   21.4823 C   0  0  0  0  0  0  0  0  0  0  0  0
   10.2260  -16.2088   24.1426 O   0  0  0  0  0  0  0  0  0  0  0  0
   10.1352  -17.1680   25.1431 O   0  0  0  0  0  0  0  0  0  0  0  0
   14.5335  -15.2672   22.1377 O   0  0  0  0  0  0  0  0  0  0  0  0
  2  3  2  0
  2  1  1  0
  4  2  1  0
  5  4  1  0
  6  5  1  0
  7  6  1  0
  8  7  1  0
  8  9  1  6
 10  8  1  0
 11 10  2  0
 13 12  1  1
 13 14  1  0
 15 13  1  0
 15 16  1  1
 16 10  1  0
 17 19  1  0
 17 15  1  0
 18 17  2  0
 20 19  1  0
 20 21  1  1
 21 22  1  0
 22 26  1  0
 23 22  2  0
 24 25  1  0
 24 20  1  0
 27 24  2  0
M  END
$$$$
