RVD.pdb
     RDKit          3D

 27 26  0  0  1  0  0  0  0  0999 V2000
    9.7616  -14.8393   16.8942 N   0  0  0  0  0  0  0  0  0  0  0  0
    8.5345  -14.1391   17.0937 C   0  0  0  0  0  0  0  0  0  0  0  0
    8.4447  -12.8842   16.8533 N   0  0  0  0  0  0  0  0  0  0  0  0
    7.3713  -14.8118   17.5647 N   0  0  0  0  0  0  0  0  0  0  0  0
    7.3322  -15.5119   18.8206 C   0  0  0  0  0  0  0  0  0  0  0  0
    6.8095  -14.6207   19.9537 C   0  0  0  0  0  0  0  0  0  0  0  0
    7.9570  -14.4611   20.9102 C   0  0  0  0  0  0  0  0  0  0  0  0
    8.0182  -15.5326   21.9789 C   0  0  2  0  0  0  0  0  0  0  0  0
    6.6217  -15.8994   22.2569 N   0  0  0  0  0  0  0  0  0  0  0  0
    8.5662  -14.9333   23.2135 C   0  0  0  0  0  0  0  0  0  0  0  0
    9.7056  -14.4191   23.3043 O   0  0  0  0  0  0  0  0  0  0  0  0
    7.5784  -12.3165   16.8929 C   0  0  0  0  0  0  0  0  0  0  0  0
    7.4235  -12.9296   27.4815 C   0  0  2  0  0  0  0  0  0  0  0  0
    7.0769  -13.6284   26.2140 C   0  0  0  0  0  0  0  0  0  0  0  0
    6.5462  -12.6022   25.2423 C   0  0  1  0  0  0  0  0  0  0  0  0
    8.2870  -14.3274   25.6153 N   0  0  0  0  0  0  0  0  0  0  0  0
    7.7709  -14.9282   24.3814 C   0  0  0  0  0  0  0  0  0  0  0  0
    8.8993  -15.3241   26.4775 O   0  0  0  0  0  0  0  0  0  0  0  0
    8.1602  -16.2727   26.9165 N   0  0  0  0  0  0  0  0  0  0  0  0
   10.2454  -15.3791   26.9005 C   0  0  1  0  0  0  0  0  0  0  0  0
   10.7454  -16.4729   27.7318 C   0  0  0  0  0  0  0  0  0  0  0  0
   12.2468  -16.6591   27.5263 C   0  0  0  0  0  0  0  0  0  0  0  0
   12.5544  -17.0269   26.1307 O   0  0  0  0  0  0  0  0  0  0  0  0
   11.6933  -17.2937   25.2578 C   0  0  0  0  0  0  0  0  0  0  0  0
   10.5663  -16.0929   29.1467 O   0  0  0  0  0  0  0  0  0  0  0  0
   10.6975  -16.9742   30.2123 O   0  0  0  0  0  0  0  0  0  0  0  0
   13.8909  -17.1002   25.6917 O   0  0  0  0  0  0  0  0  0  0  0  0
  2  3  2  0
  2  1  1  0
  4  2  1  0
  5  4  1  0
  6  5  1  0
  7  6  1  0
  8  7  1  0
  8  9  1  1
 10  8  1  0
 11 10  2  0
 13 12  1  1
 13 14  1  0
 15 13  1  0
 15 16  1  1
 16 10  1  0
 17 19  1  0
 17 15  1  0
 18 17  2  0
 20 19  1  0
 20 21  1  1
 21 22  1  0
 22 26  1  0
 23 22  2  0
 24 25  1  0
 24 20  1  0
 27 24  2  0
M  END
$$$$
