RVD.pdb
     RDKit          3D

 27 26  0  0  1  0  0  0  0  0999 V2000
    9.8877  -15.2684   17.2021 N   0  0  0  0  0  0  0  0  0  0  0  0
   10.5450  -14.2426   17.9448 C   0  0  0  0  0  0  0  0  0  0  0  0
   11.7965  -14.3174   18.2073 N   0  0  0  0  0  0  0  0  0  0  0  0
    9.8326  -13.1037   18.4165 N   0  0  0  0  0  0  0  0  0  0  0  0
    8.4060  -12.9707   18.2896 C   0  0  0  0  0  0  0  0  0  0  0  0
    7.6592  -13.9960   19.1514 C   0  0  0  0  0  0  0  0  0  0  0  0
    7.9778  -13.6414   20.5761 C   0  0  0  0  0  0  0  0  0  0  0  0
    7.4269  -14.6223   21.5902 C   0  0  2  0  0  0  0  0  0  0  0  0
    5.9636  -14.5341   21.4768 N   0  0  0  0  0  0  0  0  0  0  0  0
    7.7892  -14.1514   22.9433 C   0  0  0  0  0  0  0  0  0  0  0  0
    7.8227  -12.9466   23.2871 O   0  0  0  0  0  0  0  0  0  0  0  0
   12.3356  -13.6585   18.7987 C   0  0  0  0  0  0  0  0  0  0  0  0
    7.0907  -12.6923   24.9444 C   0  0  2  0  0  0  0  0  0  0  0  0
    7.3995  -13.8718   25.7981 C   0  0  0  0  0  0  0  0  0  0  0  0
    6.1736  -14.7515   25.8442 C   0  0  2  0  0  0  0  0  0  0  0  0
    8.5793  -14.6601   25.2520 N   0  0  0  0  0  0  0  0  0  0  0  0
    8.1237  -15.1046   23.9311 C   0  0  0  0  0  0  0  0  0  0  0  0
    8.9932  -15.7817   26.0780 O   0  0  0  0  0  0  0  0  0  0  0  0
    8.1443  -16.7164   26.2892 N   0  0  0  0  0  0  0  0  0  0  0  0
   10.2504  -15.9751   26.6911 C   0  0  1  0  0  0  0  0  0  0  0  0
   10.7428  -17.3093   27.0301 C   0  0  0  0  0  0  0  0  0  0  0  0
   12.2450  -17.4070   26.7753 C   0  0  0  0  0  0  0  0  0  0  0  0
   12.5378  -17.5045   25.3323 O   0  0  0  0  0  0  0  0  0  0  0  0
   11.6700  -17.4827   24.4261 C   0  0  0  0  0  0  0  0  0  0  0  0
   10.5558  -17.5128   28.4799 O   0  0  0  0  0  0  0  0  0  0  0  0
   10.7464  -18.7272   29.1268 O   0  0  0  0  0  0  0  0  0  0  0  0
   13.8665  -17.6334   24.8824 O   0  0  0  0  0  0  0  0  0  0  0  0
  2  3  2  0
  2  1  1  0
  4  2  1  0
  5  4  1  0
  6  5  1  0
  7  6  1  0
  8  7  1  0
  8  9  1  1
 10  8  1  0
 11 10  2  0
 13 12  1  1
 13 14  1  0
 15 13  1  0
 15 16  1  1
 16 10  1  0
 17 19  1  0
 17 15  1  0
 18 17  2  0
 20 19  1  0
 20 21  1  1
 21 22  1  0
 22 26  1  0
 23 22  2  0
 24 25  1  0
 24 20  1  0
 27 24  2  0
M  END
$$$$
