RVD.pdb
     RDKit          3D

 27 26  0  0  1  0  0  0  0  0999 V2000
    7.8527  -13.0972   18.8568 N   0  0  0  0  0  0  0  0  0  0  0  0
    8.2308  -12.7418   20.1859 C   0  0  0  0  0  0  0  0  0  0  0  0
    8.8436  -11.6429   20.4257 N   0  0  0  0  0  0  0  0  0  0  0  0
    7.9385  -13.5953   21.2874 N   0  0  0  0  0  0  0  0  0  0  0  0
    7.1438  -14.7873   21.1588 C   0  0  0  0  0  0  0  0  0  0  0  0
    7.6821  -15.7156   20.0634 C   0  0  0  0  0  0  0  0  0  0  0  0
    8.6909  -16.6012   20.7379 C   0  0  0  0  0  0  0  0  0  0  0  0
    9.3702  -17.5801   19.8027 C   0  0  2  0  0  0  0  0  0  0  0  0
    8.3360  -18.5546   19.4252 N   0  0  0  0  0  0  0  0  0  0  0  0
   10.4047  -18.3133   20.5617 C   0  0  0  0  0  0  0  0  0  0  0  0
   10.2558  -19.4680   21.0258 O   0  0  0  0  0  0  0  0  0  0  0  0
    9.1872  -11.3260   21.3508 C   0  0  0  0  0  0  0  0  0  0  0  0
   15.1921  -18.3227   21.6729 C   0  0  1  0  0  0  0  0  0  0  0  0
   13.9953  -17.7992   20.9596 C   0  0  0  0  0  0  0  0  0  0  0  0
   14.1453  -18.1211   19.4923 C   0  0  1  0  0  0  0  0  0  0  0  0
   12.7139  -18.4184   21.4945 N   0  0  0  0  0  0  0  0  0  0  0  0
   11.6522  -17.6911   20.7918 C   0  0  0  0  0  0  0  0  0  0  0  0
   12.5547  -18.3316   22.9363 O   0  0  0  0  0  0  0  0  0  0  0  0
   12.4692  -17.1672   23.4613 N   0  0  0  0  0  0  0  0  0  0  0  0
   12.4779  -19.4014   23.8548 C   0  0  1  0  0  0  0  0  0  0  0  0
   12.3527  -19.1715   25.2932 C   0  0  0  0  0  0  0  0  0  0  0  0
   11.5011  -20.2624   25.9381 C   0  0  0  0  0  0  0  0  0  0  0  0
   11.4543  -20.1076   27.4049 O   0  0  0  0  0  0  0  0  0  0  0  0
   12.0522  -19.2099   28.0462 C   0  0  0  0  0  0  0  0  0  0  0  0
   13.6955  -19.2862   25.8949 O   0  0  0  0  0  0  0  0  0  0  0  0
   14.7990  -19.8190   25.2410 O   0  0  0  0  0  0  0  0  0  0  0  0
   10.7022  -21.0019   28.1917 O   0  0  0  0  0  0  0  0  0  0  0  0
  2  3  2  0
  2  1  1  0
  4  2  1  0
  5  4  1  0
  6  5  1  0
  7  6  1  0
  8  7  1  0
  8  9  1  1
 10  8  1  0
 11 10  2  0
 13 12  1  6
 13 14  1  0
 15 13  1  0
 15 16  1  1
 16 10  1  0
 17 19  1  0
 17 15  1  0
 18 17  2  0
 20 19  1  0
 20 21  1  1
 21 22  1  0
 22 26  1  0
 23 22  2  0
 24 25  1  0
 24 20  1  0
 27 24  2  0
M  END
$$$$
