RVD.pdb
     RDKit          3D

 27 26  0  0  1  0  0  0  0  0999 V2000
    7.8859  -13.1398   15.8322 N   0  0  0  0  0  0  0  0  0  0  0  0
    8.5253  -14.1148   16.6548 C   0  0  0  0  0  0  0  0  0  0  0  0
    9.1818  -15.0856   16.1378 N   0  0  0  0  0  0  0  0  0  0  0  0
    8.4554  -14.0397   18.0749 N   0  0  0  0  0  0  0  0  0  0  0  0
    7.7268  -14.9918   18.8696 C   0  0  0  0  0  0  0  0  0  0  0  0
    6.6006  -14.3242   19.6681 C   0  0  0  0  0  0  0  0  0  0  0  0
    7.2297  -13.8588   20.9506 C   0  0  0  0  0  0  0  0  0  0  0  0
    7.6205  -14.9842   21.8859 C   0  0  2  0  0  0  0  0  0  0  0  0
    6.3838  -15.7362   22.1441 N   0  0  0  0  0  0  0  0  0  0  0  0
    8.0513  -14.3973   23.1719 C   0  0  0  0  0  0  0  0  0  0  0  0
    8.0848  -13.1676   23.4119 O   0  0  0  0  0  0  0  0  0  0  0  0
    9.6019  -15.8803   16.6538 C   0  0  0  0  0  0  0  0  0  0  0  0
    7.7834  -13.3860   27.3236 C   0  0  2  0  0  0  0  0  0  0  0  0
    7.6945  -13.8070   25.8988 C   0  0  0  0  0  0  0  0  0  0  0  0
    7.6972  -12.5646   25.0413 C   0  0  1  0  0  0  0  0  0  0  0  0
    8.8589  -14.7039   25.5101 N   0  0  0  0  0  0  0  0  0  0  0  0
    8.4565  -15.2604   24.2146 C   0  0  0  0  0  0  0  0  0  0  0  0
    9.1627  -15.7525   26.4691 O   0  0  0  0  0  0  0  0  0  0  0  0
    8.2036  -16.5063   26.8574 N   0  0  0  0  0  0  0  0  0  0  0  0
   10.4191  -16.0531   27.0393 C   0  0  1  0  0  0  0  0  0  0  0  0
   10.6166  -17.2273   27.8877 C   0  0  0  0  0  0  0  0  0  0  0  0
   12.0736  -17.6815   27.8435 C   0  0  0  0  0  0  0  0  0  0  0  0
   12.4553  -18.1243   26.4885 O   0  0  0  0  0  0  0  0  0  0  0  0
   11.6624  -18.2207   25.5207 C   0  0  0  0  0  0  0  0  0  0  0  0
   10.3489  -16.8343   29.2849 O   0  0  0  0  0  0  0  0  0  0  0  0
   10.4067  -15.5270   29.7508 O   0  0  0  0  0  0  0  0  0  0  0  0
   13.7891  -18.4768   26.2040 O   0  0  0  0  0  0  0  0  0  0  0  0
  2  3  2  0
  2  1  1  0
  4  2  1  0
  5  4  1  0
  6  5  1  0
  7  6  1  0
  8  7  1  0
  8  9  1  1
 10  8  1  0
 11 10  2  0
 13 12  1  1
 13 14  1  0
 15 13  1  0
 15 16  1  6
 16 10  1  0
 17 19  1  0
 17 15  1  0
 18 17  2  0
 20 19  1  0
 20 21  1  1
 21 22  1  0
 22 26  1  0
 23 22  2  0
 24 25  1  0
 24 20  1  0
 27 24  2  0
M  END
$$$$
