ECG.pdb
     RDKit          3D

 20 19  0  0  1  0  0  0  0  0999 V2000
   19.5444  -10.6295  -15.5970 N   0  0  0  0  0  0  0  0  0  0  0  0
   18.4608   -9.7324  -15.3454 C   0  0  1  0  0  0  0  0  0  0  0  0
   17.3968  -10.4272  -14.4998 C   0  0  0  0  0  0  0  0  0  0  0  0
   16.9271  -11.6174  -15.2903 C   0  0  0  0  0  0  0  0  0  0  0  0
   15.8232  -12.3425  -14.6472 C   0  0  0  0  0  0  0  0  0  0  0  0
   15.1370  -11.7847  -13.7762 O   0  0  0  0  0  0  0  0  0  0  0  0
   18.8742   -8.4477  -14.7634 C   0  0  0  0  0  0  0  0  0  0  0  0
   17.9783   -7.6868  -14.3156 O   0  0  0  0  0  0  0  0  0  0  0  0
   15.5561  -13.6369  -15.0144 O   0  0  0  0  0  0  0  0  0  0  0  0
   20.2136   -7.9958  -14.6665 N   0  0  0  0  0  0  0  0  0  0  0  0
   20.6125   -6.7032  -14.2108 C   0  0  1  0  0  0  0  0  0  0  0  0
   21.8930   -6.8494  -13.4079 C   0  0  0  0  0  0  0  0  0  0  0  0
   22.4995   -5.2436  -12.8428 S   0  0  0  0  0  0  0  0  0  0  0  0
   20.7172   -5.6941  -15.2638 C   0  0  0  0  0  0  0  0  0  0  0  0
   21.3305   -5.9865  -16.3252 O   0  0  0  0  0  0  0  0  0  0  0  0
   20.1730   -4.3866  -15.1848 N   0  0  0  0  0  0  0  0  0  0  0  0
   20.3089   -3.3973  -16.2152 C   0  0  0  0  0  0  0  0  0  0  0  0
   19.6523   -2.1263  -15.9039 C   0  0  0  0  0  0  0  0  0  0  0  0
   18.7351   -2.1096  -15.0527 O   0  0  0  0  0  0  0  0  0  0  0  0
   20.0010   -0.9356  -16.5108 O   0  0  0  0  0  0  0  0  0  0  0  0
  2  1  1  1
  2  3  1  0
  3  4  1  0
  4  5  1  0
  5  9  1  0
  6  5  2  0
  7  2  1  0
  7  8  2  0
 10  7  1  0
 11 10  1  0
 11 12  1  6
 13 12  1  0
 14 11  1  0
 15 14  2  0
 16 14  1  0
 17 16  1  0
 18 17  1  0
 18 20  1  0
 19 18  2  0
M  END
$$$$
