ECG.pdb
     RDKit          3D

 20 19  0  0  1  0  0  0  0  0999 V2000
   12.6199  -11.6774  -10.2153 N   0  0  0  0  0  0  0  0  0  0  0  0
   13.9358  -11.1352  -10.3455 C   0  0  1  0  0  0  0  0  0  0  0  0
   14.5113  -11.4913  -11.7137 C   0  0  0  0  0  0  0  0  0  0  0  0
   14.6338  -12.9898  -11.7533 C   0  0  0  0  0  0  0  0  0  0  0  0
   15.1167  -13.4989  -13.0439 C   0  0  0  0  0  0  0  0  0  0  0  0
   16.3050  -13.8329  -13.1750 O   0  0  0  0  0  0  0  0  0  0  0  0
   14.0152   -9.6932  -10.0732 C   0  0  0  0  0  0  0  0  0  0  0  0
   12.9647   -9.0115  -10.1906 O   0  0  0  0  0  0  0  0  0  0  0  0
   14.2483  -13.6027  -14.1006 O   0  0  0  0  0  0  0  0  0  0  0  0
   15.1919   -9.0055   -9.6857 N   0  0  0  0  0  0  0  0  0  0  0  0
   15.2996   -7.5916   -9.5222 C   0  0  1  0  0  0  0  0  0  0  0  0
   15.0974   -7.2594   -8.0544 C   0  0  0  0  0  0  0  0  0  0  0  0
   15.3529   -5.4984   -7.7393 S   0  0  0  0  0  0  0  0  0  0  0  0
   16.5235   -7.0087  -10.0706 C   0  0  0  0  0  0  0  0  0  0  0  0
   17.6348   -7.4789   -9.7071 O   0  0  0  0  0  0  0  0  0  0  0  0
   16.5608   -5.9355  -10.9972 N   0  0  0  0  0  0  0  0  0  0  0  0
   17.7666   -5.2857  -11.4243 C   0  0  0  0  0  0  0  0  0  0  0  0
   17.5457   -4.2019  -12.3834 C   0  0  0  0  0  0  0  0  0  0  0  0
   16.3975   -4.0296  -12.8504 O   0  0  0  0  0  0  0  0  0  0  0  0
   18.5534   -3.3543  -12.8000 O   0  0  0  0  0  0  0  0  0  0  0  0
  2  1  1  6
  2  3  1  0
  3  4  1  0
  4  5  1  0
  5  9  1  0
  6  5  2  0
  7  2  1  0
  7  8  2  0
 10  7  1  0
 11 10  1  0
 11 12  1  1
 13 12  1  0
 14 11  1  0
 15 14  2  0
 16 14  1  0
 17 16  1  0
 18 17  1  0
 18 20  1  0
 19 18  2  0
M  END
$$$$
