ECG.pdb
     RDKit          3D

 20 19  0  0  1  0  0  0  0  0999 V2000
   20.7743  -13.8379  -17.2115 N   0  0  0  0  0  0  0  0  0  0  0  0
   19.9898  -12.9070  -16.4630 C   0  0  1  0  0  0  0  0  0  0  0  0
   19.0477  -13.6574  -15.5252 C   0  0  0  0  0  0  0  0  0  0  0  0
   18.1497  -14.4938  -16.3947 C   0  0  0  0  0  0  0  0  0  0  0  0
   17.2218  -15.3371  -15.6294 C   0  0  0  0  0  0  0  0  0  0  0  0
   15.9980  -15.2394  -15.8122 O   0  0  0  0  0  0  0  0  0  0  0  0
   20.7841  -11.8955  -15.7518 C   0  0  0  0  0  0  0  0  0  0  0  0
   20.2350  -11.2692  -14.8092 O   0  0  0  0  0  0  0  0  0  0  0  0
   17.7151  -16.2313  -14.7135 O   0  0  0  0  0  0  0  0  0  0  0  0
   22.1306  -11.5681  -16.0472 N   0  0  0  0  0  0  0  0  0  0  0  0
   22.9093  -10.5935  -15.3532 C   0  0  1  0  0  0  0  0  0  0  0  0
   24.3718  -10.9914  -15.4442 C   0  0  0  0  0  0  0  0  0  0  0  0
   24.6672  -12.5889  -14.6525 S   0  0  0  0  0  0  0  0  0  0  0  0
   22.6711   -9.2138  -15.7752 C   0  0  0  0  0  0  0  0  0  0  0  0
   22.6732   -8.9475  -17.0070 O   0  0  0  0  0  0  0  0  0  0  0  0
   22.4332   -8.1299  -14.8918 N   0  0  0  0  0  0  0  0  0  0  0  0
   22.1454   -6.7919  -15.3227 C   0  0  0  0  0  0  0  0  0  0  0  0
   21.8909   -5.8592  -14.2233 C   0  0  0  0  0  0  0  0  0  0  0  0
   21.6093   -6.3162  -13.0928 O   0  0  0  0  0  0  0  0  0  0  0  0
   21.9478   -4.4879  -14.3770 O   0  0  0  0  0  0  0  0  0  0  0  0
  2  1  1  1
  2  3  1  0
  3  4  1  0
  4  5  1  0
  5  9  1  0
  6  5  2  0
  7  2  1  0
  7  8  2  0
 10  7  1  0
 11 10  1  0
 11 12  1  6
 13 12  1  0
 14 11  1  0
 15 14  2  0
 16 14  1  0
 17 16  1  0
 18 17  1  0
 18 20  1  0
 19 18  2  0
M  END
$$$$
