ECG.pdb
     RDKit          3D

 20 19  0  0  1  0  0  0  0  0999 V2000
   18.3745  -11.0413  -17.0217 N   0  0  0  0  0  0  0  0  0  0  0  0
   19.5269  -10.4873  -16.3833 C   0  0  1  0  0  0  0  0  0  0  0  0
   20.6482  -10.3050  -17.4028 C   0  0  0  0  0  0  0  0  0  0  0  0
   21.0001  -11.6776  -17.9070 C   0  0  0  0  0  0  0  0  0  0  0  0
   22.0092  -11.6630  -18.9745 C   0  0  0  0  0  0  0  0  0  0  0  0
   21.8039  -11.0183  -20.0151 O   0  0  0  0  0  0  0  0  0  0  0  0
   19.2567   -9.2515  -15.6351 C   0  0  0  0  0  0  0  0  0  0  0  0
   18.4399   -8.4307  -16.1262 O   0  0  0  0  0  0  0  0  0  0  0  0
   23.1769  -12.3646  -18.8144 O   0  0  0  0  0  0  0  0  0  0  0  0
   19.8491   -8.9098  -14.3942 N   0  0  0  0  0  0  0  0  0  0  0  0
   19.5573   -7.7320  -13.6424 C   0  0  1  0  0  0  0  0  0  0  0  0
   18.9504   -8.1466  -12.3137 C   0  0  0  0  0  0  0  0  0  0  0  0
   17.3871   -9.0215  -12.5513 S   0  0  0  0  0  0  0  0  0  0  0  0
   20.6862   -6.8157  -13.4873 C   0  0  0  0  0  0  0  0  0  0  0  0
   21.7860   -7.2727  -13.0754 O   0  0  0  0  0  0  0  0  0  0  0  0
   20.6417   -5.4262  -13.7690 N   0  0  0  0  0  0  0  0  0  0  0  0
   21.7753   -4.5517  -13.6746 C   0  0  0  0  0  0  0  0  0  0  0  0
   21.4958   -3.1756  -14.0888 C   0  0  0  0  0  0  0  0  0  0  0  0
   21.0008   -2.9711  -15.2198 O   0  0  0  0  0  0  0  0  0  0  0  0
   21.7551   -2.0843  -13.2830 O   0  0  0  0  0  0  0  0  0  0  0  0
  2  1  1  6
  2  3  1  0
  3  4  1  0
  4  5  1  0
  5  9  1  0
  6  5  2  0
  7  2  1  0
  7  8  2  0
 10  7  1  0
 11 10  1  0
 11 12  1  1
 13 12  1  0
 14 11  1  0
 15 14  2  0
 16 14  1  0
 17 16  1  0
 18 17  1  0
 18 20  1  0
 19 18  2  0
M  END
$$$$
