ECG.pdb
     RDKit          3D

 20 19  0  0  1  0  0  0  0  0999 V2000
   22.2763  -17.6836  -17.1722 N   0  0  0  0  0  0  0  0  0  0  0  0
   22.3299  -18.3829  -15.9269 C   0  0  1  0  0  0  0  0  0  0  0  0
   21.0405  -19.1731  -15.7191 C   0  0  0  0  0  0  0  0  0  0  0  0
   20.0308  -18.2108  -15.1566 C   0  0  0  0  0  0  0  0  0  0  0  0
   18.7208  -18.8255  -14.9041 C   0  0  0  0  0  0  0  0  0  0  0  0
   18.3439  -19.0292  -13.7392 O   0  0  0  0  0  0  0  0  0  0  0  0
   23.5237  -19.2253  -15.7680 C   0  0  0  0  0  0  0  0  0  0  0  0
   24.0051  -19.7669  -16.7962 O   0  0  0  0  0  0  0  0  0  0  0  0
   17.9185  -19.1723  -15.9613 O   0  0  0  0  0  0  0  0  0  0  0  0
   24.1796  -19.4770  -14.5376 N   0  0  0  0  0  0  0  0  0  0  0  0
   25.2978  -20.3478  -14.3671 C   0  0  1  0  0  0  0  0  0  0  0  0
   26.1840  -19.7848  -13.2702 C   0  0  0  0  0  0  0  0  0  0  0  0
   27.0169  -18.2747  -13.8105 S   0  0  0  0  0  0  0  0  0  0  0  0
   24.9469  -21.7502  -14.1469 C   0  0  0  0  0  0  0  0  0  0  0  0
   24.1074  -22.0316  -13.2502 O   0  0  0  0  0  0  0  0  0  0  0  0
   25.4864  -22.8406  -14.8761 N   0  0  0  0  0  0  0  0  0  0  0  0
   25.0386  -24.1969  -14.7399 C   0  0  0  0  0  0  0  0  0  0  0  0
   25.7838  -25.1505  -15.5637 C   0  0  0  0  0  0  0  0  0  0  0  0
   26.6379  -24.7182  -16.3698 O   0  0  0  0  0  0  0  0  0  0  0  0
   25.5864  -26.5156  -15.4921 O   0  0  0  0  0  0  0  0  0  0  0  0
  2  1  1  6
  2  3  1  0
  3  4  1  0
  4  5  1  0
  5  9  1  0
  6  5  2  0
  7  2  1  0
  7  8  2  0
 10  7  1  0
 11 10  1  0
 11 12  1  1
 13 12  1  0
 14 11  1  0
 15 14  2  0
 16 14  1  0
 17 16  1  0
 18 17  1  0
 18 20  1  0
 19 18  2  0
M  END
$$$$
