ECG.pdb
     RDKit          3D

 20 19  0  0  1  0  0  0  0  0999 V2000
   20.8436  -13.9859  -18.2797 N   0  0  0  0  0  0  0  0  0  0  0  0
   20.7849  -12.5920  -18.5895 C   0  0  1  0  0  0  0  0  0  0  0  0
   19.6680  -12.3302  -19.5965 C   0  0  0  0  0  0  0  0  0  0  0  0
   19.3001  -13.6629  -20.1886 C   0  0  0  0  0  0  0  0  0  0  0  0
   18.4208  -13.5548  -21.3604 C   0  0  0  0  0  0  0  0  0  0  0  0
   18.8086  -12.9544  -22.3751 O   0  0  0  0  0  0  0  0  0  0  0  0
   20.6762  -11.7237  -17.4086 C   0  0  0  0  0  0  0  0  0  0  0  0
   19.8641  -12.0532  -16.5064 O   0  0  0  0  0  0  0  0  0  0  0  0
   17.1716  -14.1203  -21.3262 O   0  0  0  0  0  0  0  0  0  0  0  0
   21.4205  -10.5353  -17.2057 N   0  0  0  0  0  0  0  0  0  0  0  0
   21.2848   -9.6639  -16.0832 C   0  0  1  0  0  0  0  0  0  0  0  0
   22.5382   -9.7742  -15.2333 C   0  0  0  0  0  0  0  0  0  0  0  0
   22.4359   -8.7142  -13.7733 S   0  0  0  0  0  0  0  0  0  0  0  0
   20.9530   -8.2813  -16.4249 C   0  0  0  0  0  0  0  0  0  0  0  0
   21.6399   -7.6917  -17.3016 O   0  0  0  0  0  0  0  0  0  0  0  0
   19.8990   -7.5361  -15.8371 N   0  0  0  0  0  0  0  0  0  0  0  0
   19.6245   -6.1601  -16.1375 C   0  0  0  0  0  0  0  0  0  0  0  0
   20.4497   -5.2149  -15.3832 C   0  0  0  0  0  0  0  0  0  0  0  0
   20.2586   -3.9875  -15.5347 O   0  0  0  0  0  0  0  0  0  0  0  0
   21.4369   -5.6181  -14.5055 O   0  0  0  0  0  0  0  0  0  0  0  0
  2  1  1  1
  2  3  1  0
  3  4  1  0
  4  5  1  0
  5  9  1  0
  6  5  2  0
  7  2  1  0
  7  8  2  0
 10  7  1  0
 11 10  1  0
 11 12  1  6
 13 12  1  0
 14 11  1  0
 15 14  2  0
 16 14  1  0
 17 16  1  0
 18 17  1  0
 18 20  1  0
 19 18  2  0
M  END
$$$$
