ECG.pdb
     RDKit          3D

 20 19  0  0  1  0  0  0  0  0999 V2000
   18.8942  -11.4350  -14.7729 N   0  0  0  0  0  0  0  0  0  0  0  0
   18.9586  -10.2495  -15.5684 C   0  0  1  0  0  0  0  0  0  0  0  0
   17.6401  -10.0502  -16.3113 C   0  0  0  0  0  0  0  0  0  0  0  0
   17.6140  -11.0630  -17.4228 C   0  0  0  0  0  0  0  0  0  0  0  0
   16.4620  -10.9093  -18.3213 C   0  0  0  0  0  0  0  0  0  0  0  0
   15.5015  -11.6912  -18.2398 O   0  0  0  0  0  0  0  0  0  0  0  0
   19.3545   -9.0496  -14.8177 C   0  0  0  0  0  0  0  0  0  0  0  0
   18.8521   -8.8737  -13.6781 O   0  0  0  0  0  0  0  0  0  0  0  0
   16.4545   -9.8987  -19.2488 O   0  0  0  0  0  0  0  0  0  0  0  0
   20.2650   -8.0679  -15.2811 N   0  0  0  0  0  0  0  0  0  0  0  0
   20.5791   -6.8535  -14.5998 C   0  0  1  0  0  0  0  0  0  0  0  0
   22.0484   -6.8815  -14.2177 C   0  0  0  0  0  0  0  0  0  0  0  0
   22.5234   -5.3817  -13.3284 S   0  0  0  0  0  0  0  0  0  0  0  0
   20.2056   -5.6382  -15.3222 C   0  0  0  0  0  0  0  0  0  0  0  0
   20.6049   -5.4909  -16.5083 O   0  0  0  0  0  0  0  0  0  0  0  0
   19.4142   -4.5912  -14.7841 N   0  0  0  0  0  0  0  0  0  0  0  0
   19.1989   -3.3316  -15.4366 C   0  0  0  0  0  0  0  0  0  0  0  0
   18.3498   -2.4111  -14.6782 C   0  0  0  0  0  0  0  0  0  0  0  0
   17.8635   -2.7915  -13.5897 O   0  0  0  0  0  0  0  0  0  0  0  0
   18.0585   -1.1325  -15.1117 O   0  0  0  0  0  0  0  0  0  0  0  0
  2  1  1  1
  2  3  1  0
  3  4  1  0
  4  5  1  0
  5  9  1  0
  6  5  2  0
  7  2  1  0
  7  8  2  0
 10  7  1  0
 11 10  1  0
 11 12  1  6
 13 12  1  0
 14 11  1  0
 15 14  2  0
 16 14  1  0
 17 16  1  0
 18 17  1  0
 18 20  1  0
 19 18  2  0
M  END
$$$$
