ECG.pdb
     RDKit          3D

 20 19  0  0  1  0  0  0  0  0999 V2000
   21.0000  -14.3208  -16.3414 N   0  0  0  0  0  0  0  0  0  0  0  0
   20.5291  -13.0012  -16.6230 C   0  0  1  0  0  0  0  0  0  0  0  0
   19.0316  -12.9127  -16.3407 C   0  0  0  0  0  0  0  0  0  0  0  0
   18.3726  -13.9802  -17.1701 C   0  0  0  0  0  0  0  0  0  0  0  0
   16.9183  -14.0519  -16.9750 C   0  0  0  0  0  0  0  0  0  0  0  0
   16.3663  -13.3183  -16.1397 O   0  0  0  0  0  0  0  0  0  0  0  0
   21.2822  -11.9413  -15.9377 C   0  0  0  0  0  0  0  0  0  0  0  0
   21.3214  -11.9634  -14.6806 O   0  0  0  0  0  0  0  0  0  0  0  0
   16.1760  -14.9325  -17.7201 O   0  0  0  0  0  0  0  0  0  0  0  0
   21.9729  -10.8885  -16.5874 N   0  0  0  0  0  0  0  0  0  0  0  0
   22.7406   -9.8815  -15.9286 C   0  0  1  0  0  0  0  0  0  0  0  0
   24.1955  -10.0440  -16.3315 C   0  0  0  0  0  0  0  0  0  0  0  0
   24.9185  -11.5269  -15.5937 S   0  0  0  0  0  0  0  0  0  0  0  0
   22.2484   -8.5184  -16.1238 C   0  0  0  0  0  0  0  0  0  0  0  0
   21.7752   -8.1996  -17.2474 O   0  0  0  0  0  0  0  0  0  0  0  0
   22.2613   -7.5063  -15.1301 N   0  0  0  0  0  0  0  0  0  0  0  0
   21.7633   -6.1760  -15.3332 C   0  0  0  0  0  0  0  0  0  0  0  0
   21.9774   -5.2845  -14.1919 C   0  0  0  0  0  0  0  0  0  0  0  0
   22.3904   -5.7675  -13.1138 O   0  0  0  0  0  0  0  0  0  0  0  0
   21.7430   -3.9246  -14.2503 O   0  0  0  0  0  0  0  0  0  0  0  0
  2  1  1  1
  2  3  1  0
  3  4  1  0
  4  5  1  0
  5  9  1  0
  6  5  2  0
  7  2  1  0
  7  8  2  0
 10  7  1  0
 11 10  1  0
 11 12  1  6
 13 12  1  0
 14 11  1  0
 15 14  2  0
 16 14  1  0
 17 16  1  0
 18 17  1  0
 18 20  1  0
 19 18  2  0
M  END
$$$$
