ECG.pdb
     RDKit          3D

 20 19  0  0  1  0  0  0  0  0999 V2000
   26.8718  -20.8491  -13.8841 N   0  0  0  0  0  0  0  0  0  0  0  0
   25.7547  -20.8788  -14.7750 C   0  0  1  0  0  0  0  0  0  0  0  0
   25.1263  -22.2699  -14.7740 C   0  0  0  0  0  0  0  0  0  0  0  0
   26.1469  -23.2045  -15.3632 C   0  0  0  0  0  0  0  0  0  0  0  0
   25.7155  -24.6087  -15.3650 C   0  0  0  0  0  0  0  0  0  0  0  0
   24.6127  -24.9208  -14.8887 O   0  0  0  0  0  0  0  0  0  0  0  0
   24.7615  -19.8259  -14.5198 C   0  0  0  0  0  0  0  0  0  0  0  0
   24.5080  -19.5309  -13.3236 O   0  0  0  0  0  0  0  0  0  0  0  0
   26.5373  -25.5706  -15.8953 O   0  0  0  0  0  0  0  0  0  0  0  0
   24.0618  -19.1118  -15.5238 N   0  0  0  0  0  0  0  0  0  0  0  0
   23.0698  -18.1145  -15.2809 C   0  0  1  0  0  0  0  0  0  0  0  0
   23.4857  -16.8383  -15.9907 C   0  0  0  0  0  0  0  0  0  0  0  0
   25.0012  -16.1569  -15.2803 S   0  0  0  0  0  0  0  0  0  0  0  0
   21.7046  -18.5243  -15.6075 C   0  0  0  0  0  0  0  0  0  0  0  0
   21.4715  -19.0002  -16.7509 O   0  0  0  0  0  0  0  0  0  0  0  0
   20.6000  -18.4272  -14.7230 N   0  0  0  0  0  0  0  0  0  0  0  0
   19.2815  -18.9023  -15.0307 C   0  0  0  0  0  0  0  0  0  0  0  0
   18.3569  -17.8480  -15.4512 C   0  0  0  0  0  0  0  0  0  0  0  0
   17.1466  -18.1275  -15.6030 O   0  0  0  0  0  0  0  0  0  0  0  0
   18.7616  -16.5492  -15.6899 O   0  0  0  0  0  0  0  0  0  0  0  0
  2  1  1  1
  2  3  1  0
  3  4  1  0
  4  5  1  0
  5  9  1  0
  6  5  2  0
  7  2  1  0
  7  8  2  0
 10  7  1  0
 11 10  1  0
 11 12  1  6
 13 12  1  0
 14 11  1  0
 15 14  2  0
 16 14  1  0
 17 16  1  0
 18 17  1  0
 18 20  1  0
 19 18  2  0
M  END
$$$$
