ECG.pdb
     RDKit          3D

 20 19  0  0  1  0  0  0  0  0999 V2000
   14.9839  -10.5909  -12.6297 N   0  0  0  0  0  0  0  0  0  0  0  0
   15.9541   -9.6770  -12.1141 C   0  0  1  0  0  0  0  0  0  0  0  0
   16.1121   -9.8810  -10.6097 C   0  0  0  0  0  0  0  0  0  0  0  0
   14.9255   -9.2251   -9.9586 C   0  0  0  0  0  0  0  0  0  0  0  0
   13.7235  -10.0697   -9.9573 C   0  0  0  0  0  0  0  0  0  0  0  0
   13.8319  -11.3050   -9.9035 O   0  0  0  0  0  0  0  0  0  0  0  0
   17.2455   -9.7218  -12.8144 C   0  0  0  0  0  0  0  0  0  0  0  0
   17.6184  -10.8227  -13.2952 O   0  0  0  0  0  0  0  0  0  0  0  0
   12.4836   -9.4859  -10.0157 O   0  0  0  0  0  0  0  0  0  0  0  0
   18.1099   -8.6132  -12.9916 N   0  0  0  0  0  0  0  0  0  0  0  0
   19.3119   -8.6249  -13.7615 C   0  0  1  0  0  0  0  0  0  0  0  0
   18.9857   -9.1284  -15.1564 C   0  0  0  0  0  0  0  0  0  0  0  0
   20.4522   -9.1297  -16.2125 S   0  0  0  0  0  0  0  0  0  0  0  0
   20.0372   -7.3552  -13.7736 C   0  0  0  0  0  0  0  0  0  0  0  0
   19.4177   -6.3061  -14.0956 O   0  0  0  0  0  0  0  0  0  0  0  0
   21.4091   -7.2070  -13.4453 N   0  0  0  0  0  0  0  0  0  0  0  0
   22.0834   -5.9429  -13.3672 C   0  0  0  0  0  0  0  0  0  0  0  0
   22.0776   -5.1918  -14.6239 C   0  0  0  0  0  0  0  0  0  0  0  0
   22.6374   -4.0732  -14.6647 O   0  0  0  0  0  0  0  0  0  0  0  0
   21.4786   -5.6640  -15.7752 O   0  0  0  0  0  0  0  0  0  0  0  0
  2  1  1  6
  2  3  1  0
  3  4  1  0
  4  5  1  0
  5  9  1  0
  6  5  2  0
  7  2  1  0
  7  8  2  0
 10  7  1  0
 11 10  1  0
 11 12  1  6
 13 12  1  0
 14 11  1  0
 15 14  2  0
 16 14  1  0
 17 16  1  0
 18 17  1  0
 18 20  1  0
 19 18  2  0
M  END
$$$$
