ECG.pdb
     RDKit          3D

 20 19  0  0  1  0  0  0  0  0999 V2000
   16.6424  -12.7308  -15.5175 N   0  0  0  0  0  0  0  0  0  0  0  0
   17.9078  -12.0675  -15.4799 C   0  0  1  0  0  0  0  0  0  0  0  0
   18.6662  -12.3212  -16.7800 C   0  0  0  0  0  0  0  0  0  0  0  0
   18.9276  -13.8009  -16.8451 C   0  0  0  0  0  0  0  0  0  0  0  0
   19.6974  -14.2029  -18.0299 C   0  0  0  0  0  0  0  0  0  0  0  0
   20.8549  -14.6327  -17.9027 O   0  0  0  0  0  0  0  0  0  0  0  0
   17.8198  -10.6347  -15.1643 C   0  0  0  0  0  0  0  0  0  0  0  0
   16.8096  -10.0026  -15.5668 O   0  0  0  0  0  0  0  0  0  0  0  0
   19.1305  -14.1006  -19.2748 O   0  0  0  0  0  0  0  0  0  0  0  0
   18.7916   -9.9043  -14.4366 N   0  0  0  0  0  0  0  0  0  0  0  0
   18.7325   -8.5041  -14.1656 C   0  0  1  0  0  0  0  0  0  0  0  0
   17.5199   -8.2330  -13.2928 C   0  0  0  0  0  0  0  0  0  0  0  0
   17.7676   -8.8558  -11.6145 S   0  0  0  0  0  0  0  0  0  0  0  0
   19.9638   -7.9401  -13.6142 C   0  0  0  0  0  0  0  0  0  0  0  0
   20.6080   -8.6080  -12.7615 O   0  0  0  0  0  0  0  0  0  0  0  0
   20.5018   -6.6766  -13.9691 N   0  0  0  0  0  0  0  0  0  0  0  0
   21.7041   -6.1302  -13.4083 C   0  0  0  0  0  0  0  0  0  0  0  0
   22.0220   -4.7846  -13.8894 C   0  0  0  0  0  0  0  0  0  0  0  0
   21.3217   -4.2839  -14.7978 O   0  0  0  0  0  0  0  0  0  0  0  0
   23.0668   -4.0363  -13.3835 O   0  0  0  0  0  0  0  0  0  0  0  0
  2  1  1  6
  2  3  1  0
  3  4  1  0
  4  5  1  0
  5  9  1  0
  6  5  2  0
  7  2  1  0
  7  8  2  0
 10  7  1  0
 11 10  1  0
 11 12  1  1
 13 12  1  0
 14 11  1  0
 15 14  2  0
 16 14  1  0
 17 16  1  0
 18 17  1  0
 18 20  1  0
 19 18  2  0
M  END
$$$$
