ECG.pdb
     RDKit          3D

 20 19  0  0  1  0  0  0  0  0999 V2000
   20.7919  -12.4679  -16.4777 N   0  0  0  0  0  0  0  0  0  0  0  0
   21.1463  -11.2638  -17.1611 C   0  0  1  0  0  0  0  0  0  0  0  0
   19.8855  -10.5409  -17.6277 C   0  0  0  0  0  0  0  0  0  0  0  0
   19.0762  -11.5429  -18.4042 C   0  0  0  0  0  0  0  0  0  0  0  0
   18.6481  -11.0492  -19.7198 C   0  0  0  0  0  0  0  0  0  0  0  0
   18.9956   -9.9211  -20.1035 O   0  0  0  0  0  0  0  0  0  0  0  0
   22.0339  -10.3812  -16.3907 C   0  0  0  0  0  0  0  0  0  0  0  0
   21.7390  -10.1495  -15.1901 O   0  0  0  0  0  0  0  0  0  0  0  0
   17.8637  -11.8407  -20.5196 O   0  0  0  0  0  0  0  0  0  0  0  0
   23.2048   -9.7661  -16.8988 N   0  0  0  0  0  0  0  0  0  0  0  0
   24.0706   -8.9095  -16.1544 C   0  0  1  0  0  0  0  0  0  0  0  0
   25.5060   -9.3288  -16.4175 C   0  0  0  0  0  0  0  0  0  0  0  0
   25.9435  -10.8021  -15.4667 S   0  0  0  0  0  0  0  0  0  0  0  0
   23.8488   -7.4812  -16.3764 C   0  0  0  0  0  0  0  0  0  0  0  0
   23.8772   -7.0393  -17.5562 O   0  0  0  0  0  0  0  0  0  0  0  0
   23.5992   -6.5348  -15.3498 N   0  0  0  0  0  0  0  0  0  0  0  0
   23.2548   -5.1627  -15.5899 C   0  0  0  0  0  0  0  0  0  0  0  0
   24.4114   -4.2687  -15.6695 C   0  0  0  0  0  0  0  0  0  0  0  0
   25.5586   -4.7459  -15.5201 O   0  0  0  0  0  0  0  0  0  0  0  0
   24.2942   -2.9126  -15.9036 O   0  0  0  0  0  0  0  0  0  0  0  0
  2  1  1  1
  2  3  1  0
  3  4  1  0
  4  5  1  0
  5  9  1  0
  6  5  2  0
  7  2  1  0
  7  8  2  0
 10  7  1  0
 11 10  1  0
 11 12  1  6
 13 12  1  0
 14 11  1  0
 15 14  2  0
 16 14  1  0
 17 16  1  0
 18 17  1  0
 18 20  1  0
 19 18  2  0
M  END
$$$$
