ECG.pdb
     RDKit          3D

 20 19  0  0  1  0  0  0  0  0999 V2000
   24.3018  -14.5452  -16.6649 N   0  0  0  0  0  0  0  0  0  0  0  0
   23.4794  -13.3860  -16.8153 C   0  0  1  0  0  0  0  0  0  0  0  0
   22.0209  -13.7449  -16.5434 C   0  0  0  0  0  0  0  0  0  0  0  0
   21.7412  -15.0148  -17.2991 C   0  0  0  0  0  0  0  0  0  0  0  0
   20.3399  -15.4468  -17.2100 C   0  0  0  0  0  0  0  0  0  0  0  0
   19.7683  -15.9123  -18.2086 O   0  0  0  0  0  0  0  0  0  0  0  0
   23.9214  -12.2347  -16.0159 C   0  0  0  0  0  0  0  0  0  0  0  0
   24.0657  -12.3968  -14.7769 O   0  0  0  0  0  0  0  0  0  0  0  0
   19.6687  -15.3326  -16.0192 O   0  0  0  0  0  0  0  0  0  0  0  0
   24.1998  -10.9464  -16.5358 N   0  0  0  0  0  0  0  0  0  0  0  0
   24.6477   -9.8304  -15.7666 C   0  0  1  0  0  0  0  0  0  0  0  0
   26.0177   -9.4152  -16.2727 C   0  0  0  0  0  0  0  0  0  0  0  0
   27.3009  -10.5507  -15.6982 S   0  0  0  0  0  0  0  0  0  0  0  0
   23.7039   -8.7150  -15.7092 C   0  0  0  0  0  0  0  0  0  0  0  0
   23.2179   -8.2757  -16.7858 O   0  0  0  0  0  0  0  0  0  0  0  0
   23.2832   -8.0752  -14.5152 N   0  0  0  0  0  0  0  0  0  0  0  0
   22.3275   -7.0059  -14.4718 C   0  0  0  0  0  0  0  0  0  0  0  0
   20.9437   -7.4421  -14.6673 C   0  0  0  0  0  0  0  0  0  0  0  0
   20.5230   -8.4311  -14.0261 O   0  0  0  0  0  0  0  0  0  0  0  0
   20.0744   -6.8080  -15.5331 O   0  0  0  0  0  0  0  0  0  0  0  0
  2  1  1  1
  2  3  1  0
  3  4  1  0
  4  5  1  0
  5  9  1  0
  6  5  2  0
  7  2  1  0
  7  8  2  0
 10  7  1  0
 11 10  1  0
 11 12  1  6
 13 12  1  0
 14 11  1  0
 15 14  2  0
 16 14  1  0
 17 16  1  0
 18 17  1  0
 18 20  1  0
 19 18  2  0
M  END
$$$$
