WGV.pdb
     RDKit          3D

 26 27  0  0  1  0  0  0  0  0999 V2000
    6.6506  -17.4653   24.5977 N   0  0  0  0  0  0  0  0  0  0  0  0
    7.7995  -16.6006   24.3603 C   0  0  1  0  0  0  0  0  0  0  0  0
    8.0007  -15.6325   25.5187 C   0  0  0  0  0  0  0  0  0  0  0  0
    6.8379  -14.7413   25.6681 C   0  0  0  0  0  0  0  0  0  0  0  0
    5.5302  -15.1170   25.9567 C   0  0  0  0  0  0  0  0  0  0  0  0
    4.7560  -14.0095   26.0103 N   0  0  0  0  0  0  0  0  0  0  0  0
    5.5244  -12.9273   25.7647 C   0  0  0  0  0  0  0  0  0  0  0  0
    5.2594  -11.5790   25.6977 C   0  0  0  0  0  0  0  0  0  0  0  0
    6.2441  -10.6514   25.4238 C   0  0  0  0  0  0  0  0  0  0  0  0
    7.5251  -11.1117   25.2142 C   0  0  0  0  0  0  0  0  0  0  0  0
    7.7975  -12.4665   25.2803 C   0  0  0  0  0  0  0  0  0  0  0  0
    6.8091  -13.3761   25.5533 C   0  0  0  0  0  0  0  0  0  0  0  0
    9.0108  -17.4254   24.2236 C   0  0  0  0  0  0  0  0  0  0  0  0
    9.0214  -18.5960   24.6455 O   0  0  0  0  0  0  0  0  0  0  0  0
   10.1625  -16.8905   23.6139 N   0  0  0  0  0  0  0  0  0  0  0  0
   11.4757  -17.4701   23.7595 C   0  0  0  0  0  0  0  0  0  0  0  0
   12.0283  -17.2329   25.1266 C   0  0  0  0  0  0  0  0  0  0  0  0
   13.2226  -17.5673   25.3633 O   0  0  0  0  0  0  0  0  0  0  0  0
   11.7656  -13.9802   27.0225 C   0  0  0  0  0  0  0  0  0  0  0  0
   11.3659  -15.0693   27.9556 C   0  0  1  0  0  0  0  0  0  0  0  0
    9.8913  -15.0765   28.2627 C   0  0  0  0  0  0  0  0  0  0  0  0
   11.7835  -16.4466   27.5072 C   0  0  2  0  0  0  0  0  0  0  0  0
   11.2850  -16.6551   26.1642 N   0  0  0  0  0  0  0  0  0  0  0  0
   11.3967  -17.5117   28.4337 C   0  0  0  0  0  0  0  0  0  0  0  0
   10.4955  -18.3400   28.1478 O   0  0  0  0  0  0  0  0  0  0  0  0
   11.9964  -17.6791   29.6853 O   0  0  0  0  0  0  0  0  0  0  0  0
  2  1  1  1
  3  2  1  0
  4  3  1  0
  5  4  2  0
  6  7  1  0
  6  5  1  0
  7 12  2  0
  8  7  1  0
  8  9  2  0
  9 10  1  0
 10 11  2  0
 12  4  1  0
 12 11  1  0
 13  2  1  0
 13 15  1  0
 14 13  2  0
 16 15  1  0
 17 16  1  0
 18 17  2  0
 20 19  1  6
 20 21  1  0
 22 20  1  0
 22 23  1  6
 23 17  1  0
 24 26  1  0
 24 22  1  0
 25 24  2  0
M  END
$$$$
