WGV.pdb
     RDKit          3D

 26 27  0  0  1  0  0  0  0  0999 V2000
    7.3733  -15.6893   21.2535 N   0  0  0  0  0  0  0  0  0  0  0  0
    8.6735  -15.4886   21.8807 C   0  0  1  0  0  0  0  0  0  0  0  0
    8.6621  -14.2554   22.7744 C   0  0  0  0  0  0  0  0  0  0  0  0
    7.5752  -14.3331   23.7650 C   0  0  0  0  0  0  0  0  0  0  0  0
    6.8514  -15.4658   24.1226 C   0  0  0  0  0  0  0  0  0  0  0  0
    5.9412  -15.1271   25.0638 N   0  0  0  0  0  0  0  0  0  0  0  0
    6.0546  -13.8079   25.3262 C   0  0  0  0  0  0  0  0  0  0  0  0
    5.3921  -12.9567   26.1801 C   0  0  0  0  0  0  0  0  0  0  0  0
    5.7038  -11.6147   26.2646 C   0  0  0  0  0  0  0  0  0  0  0  0
    6.7128  -11.1339   25.4600 C   0  0  0  0  0  0  0  0  0  0  0  0
    7.3824  -11.9852   24.5993 C   0  0  0  0  0  0  0  0  0  0  0  0
    7.0618  -13.3159   24.5263 C   0  0  0  0  0  0  0  0  0  0  0  0
    9.0032  -16.6619   22.7059 C   0  0  0  0  0  0  0  0  0  0  0  0
    8.5030  -17.7709   22.4447 O   0  0  0  0  0  0  0  0  0  0  0  0
    9.8872  -16.5316   23.7949 N   0  0  0  0  0  0  0  0  0  0  0  0
   10.3002  -17.6441   24.6154 C   0  0  0  0  0  0  0  0  0  0  0  0
   11.2648  -17.2145   25.6716 C   0  0  0  0  0  0  0  0  0  0  0  0
   12.2525  -16.5031   25.3363 O   0  0  0  0  0  0  0  0  0  0  0  0
   11.4305  -14.7498   26.7072 C   0  0  0  0  0  0  0  0  0  0  0  0
   11.1977  -15.3925   28.0298 C   0  0  1  0  0  0  0  0  0  0  0  0
    9.7564  -15.3495   28.4652 C   0  0  0  0  0  0  0  0  0  0  0  0
   11.6986  -16.8115   28.1201 C   0  0  2  0  0  0  0  0  0  0  0  0
   11.1283  -17.5627   27.0219 N   0  0  0  0  0  0  0  0  0  0  0  0
   11.4679  -17.4372   29.4230 C   0  0  0  0  0  0  0  0  0  0  0  0
   10.5211  -18.2424   29.6101 O   0  0  0  0  0  0  0  0  0  0  0  0
   12.2759  -17.1854   30.5357 O   0  0  0  0  0  0  0  0  0  0  0  0
  2  1  1  1
  3  2  1  0
  4  3  1  0
  5  4  2  0
  6  7  1  0
  6  5  1  0
  7 12  2  0
  8  7  1  0
  8  9  2  0
  9 10  1  0
 10 11  2  0
 12  4  1  0
 12 11  1  0
 13  2  1  0
 13 15  1  0
 14 13  2  0
 16 15  1  0
 17 16  1  0
 18 17  2  0
 20 19  1  6
 20 21  1  0
 22 20  1  0
 22 23  1  6
 23 17  1  0
 24 26  1  0
 24 22  1  0
 25 24  2  0
M  END
$$$$
