WGV.pdb
     RDKit          3D

 26 27  0  0  1  0  0  0  0  0999 V2000
    7.0632  -17.2481   23.4285 N   0  0  0  0  0  0  0  0  0  0  0  0
    8.0706  -16.2328   23.7087 C   0  0  1  0  0  0  0  0  0  0  0  0
    8.0291  -15.8143   25.1725 C   0  0  0  0  0  0  0  0  0  0  0  0
    6.8695  -14.9466   25.4394 C   0  0  0  0  0  0  0  0  0  0  0  0
    5.6089  -15.3474   25.8695 C   0  0  0  0  0  0  0  0  0  0  0  0
    4.8205  -14.2561   25.9979 N   0  0  0  0  0  0  0  0  0  0  0  0
    5.5340  -13.1602   25.6634 C   0  0  0  0  0  0  0  0  0  0  0  0
    5.2334  -11.8185   25.6155 C   0  0  0  0  0  0  0  0  0  0  0  0
    6.1623  -10.8728   25.2307 C   0  0  0  0  0  0  0  0  0  0  0  0
    7.4233  -11.3078   24.8881 C   0  0  0  0  0  0  0  0  0  0  0  0
    7.7312  -12.6558   24.9343 C   0  0  0  0  0  0  0  0  0  0  0  0
    6.7982  -13.5835   25.3185 C   0  0  0  0  0  0  0  0  0  0  0  0
    9.4062  -16.7767   23.4148 C   0  0  0  0  0  0  0  0  0  0  0  0
    9.5767  -18.0066   23.3332 O   0  0  0  0  0  0  0  0  0  0  0  0
   10.4961  -15.9047   23.2251 N   0  0  0  0  0  0  0  0  0  0  0  0
   11.8718  -16.3169   23.3636 C   0  0  0  0  0  0  0  0  0  0  0  0
   12.2659  -16.4291   24.7998 C   0  0  0  0  0  0  0  0  0  0  0  0
   13.3937  -16.9217   25.0814 O   0  0  0  0  0  0  0  0  0  0  0  0
   11.0526  -15.3325   29.5218 C   0  0  0  0  0  0  0  0  0  0  0  0
   10.8485  -15.2619   28.0487 C   0  0  1  0  0  0  0  0  0  0  0  0
   10.9020  -13.8568   27.5086 C   0  0  0  0  0  0  0  0  0  0  0  0
   11.7901  -16.1318   27.2555 C   0  0  2  0  0  0  0  0  0  0  0  0
   11.4434  -16.0132   25.8551 N   0  0  0  0  0  0  0  0  0  0  0  0
   11.8419  -17.5198   27.7173 C   0  0  0  0  0  0  0  0  0  0  0  0
   12.6544  -17.8911   28.6016 O   0  0  0  0  0  0  0  0  0  0  0  0
   11.0008  -18.5158   27.2127 O   0  0  0  0  0  0  0  0  0  0  0  0
  2  1  1  1
  3  2  1  0
  4  3  1  0
  5  4  2  0
  6  7  1  0
  6  5  1  0
  7 12  2  0
  8  7  1  0
  8  9  2  0
  9 10  1  0
 10 11  2  0
 12  4  1  0
 12 11  1  0
 13  2  1  0
 13 15  1  0
 14 13  2  0
 16 15  1  0
 17 16  1  0
 18 17  2  0
 20 19  1  1
 20 21  1  0
 22 20  1  0
 22 23  1  6
 23 17  1  0
 24 26  1  0
 24 22  1  0
 25 24  2  0
M  END
$$$$
