WGV.pdb
     RDKit          3D

 26 27  0  0  1  0  0  0  0  0999 V2000
    7.4969  -18.5267   21.5801 N   0  0  0  0  0  0  0  0  0  0  0  0
    7.4421  -17.0917   21.8282 C   0  0  1  0  0  0  0  0  0  0  0  0
    6.2861  -16.4520   21.0705 C   0  0  0  0  0  0  0  0  0  0  0  0
    6.7819  -15.5465   20.0203 C   0  0  0  0  0  0  0  0  0  0  0  0
    6.8110  -15.7929   18.6516 C   0  0  0  0  0  0  0  0  0  0  0  0
    7.3390  -14.7184   18.0225 N   0  0  0  0  0  0  0  0  0  0  0  0
    7.6526  -13.7834   18.9440 C   0  0  0  0  0  0  0  0  0  0  0  0
    8.2054  -12.5263   18.8606 C   0  0  0  0  0  0  0  0  0  0  0  0
    8.4307  -11.7492   19.9790 C   0  0  0  0  0  0  0  0  0  0  0  0
    8.0840  -12.2680   21.2067 C   0  0  0  0  0  0  0  0  0  0  0  0
    7.5278  -13.5316   21.2967 C   0  0  0  0  0  0  0  0  0  0  0  0
    7.3099  -14.2918   20.1771 C   0  0  0  0  0  0  0  0  0  0  0  0
    7.2480  -16.8526   23.2675 C   0  0  0  0  0  0  0  0  0  0  0  0
    6.8674  -15.7386   23.6708 O   0  0  0  0  0  0  0  0  0  0  0  0
    7.4932  -17.8859   24.1928 N   0  0  0  0  0  0  0  0  0  0  0  0
    7.4683  -17.6898   25.6220 C   0  0  0  0  0  0  0  0  0  0  0  0
    8.7486  -17.0986   26.1140 C   0  0  0  0  0  0  0  0  0  0  0  0
    9.7948  -17.2627   25.4265 O   0  0  0  0  0  0  0  0  0  0  0  0
    9.0151  -13.5085   27.0389 C   0  0  0  0  0  0  0  0  0  0  0  0
    9.6744  -14.2780   28.1297 C   0  0  1  0  0  0  0  0  0  0  0  0
    8.8724  -14.3068   29.4044 C   0  0  0  0  0  0  0  0  0  0  0  0
   10.0464  -15.6882   27.7485 C   0  0  2  0  0  0  0  0  0  0  0  0
    8.8476  -16.3677   27.3052 N   0  0  0  0  0  0  0  0  0  0  0  0
   10.7614  -16.4146   28.7990 C   0  0  0  0  0  0  0  0  0  0  0  0
   10.2147  -17.3398   29.4510 O   0  0  0  0  0  0  0  0  0  0  0  0
   12.0863  -16.1328   29.1449 O   0  0  0  0  0  0  0  0  0  0  0  0
  2  1  1  1
  3  2  1  0
  4  3  1  0
  5  4  2  0
  6  7  1  0
  6  5  1  0
  7 12  2  0
  8  7  1  0
  8  9  2  0
  9 10  1  0
 10 11  2  0
 12  4  1  0
 12 11  1  0
 13  2  1  0
 13 15  1  0
 14 13  2  0
 16 15  1  0
 17 16  1  0
 18 17  2  0
 20 19  1  6
 20 21  1  0
 22 20  1  0
 22 23  1  1
 23 17  1  0
 24 26  1  0
 24 22  1  0
 25 24  2  0
M  END
$$$$
