WGV.pdb
     RDKit          3D

 26 27  0  0  1  0  0  0  0  0999 V2000
    7.0046  -16.6919   22.3344 N   0  0  0  0  0  0  0  0  0  0  0  0
    7.8931  -15.8209   23.0931 C   0  0  1  0  0  0  0  0  0  0  0  0
    7.5150  -15.8096   24.5684 C   0  0  0  0  0  0  0  0  0  0  0  0
    6.4609  -14.8161   24.8342 C   0  0  0  0  0  0  0  0  0  0  0  0
    5.1121  -15.0706   25.0598 C   0  0  0  0  0  0  0  0  0  0  0  0
    4.4712  -13.8972   25.2632 N   0  0  0  0  0  0  0  0  0  0  0  0
    5.3658  -12.8902   25.1760 C   0  0  0  0  0  0  0  0  0  0  0  0
    5.2611  -11.5238   25.2968 C   0  0  0  0  0  0  0  0  0  0  0  0
    6.3531  -10.6905   25.1612 C   0  0  0  0  0  0  0  0  0  0  0  0
    7.5761  -11.2659   24.8968 C   0  0  0  0  0  0  0  0  0  0  0  0
    7.6873  -12.6394   24.7742 C   0  0  0  0  0  0  0  0  0  0  0  0
    6.5938  -13.4545   24.9114 C   0  0  0  0  0  0  0  0  0  0  0  0
    9.2766  -16.3071   22.9680 C   0  0  0  0  0  0  0  0  0  0  0  0
    9.7513  -16.5616   21.8463 O   0  0  0  0  0  0  0  0  0  0  0  0
   10.0677  -16.4858   24.1199 N   0  0  0  0  0  0  0  0  0  0  0  0
   11.4721  -16.8128   24.0716 C   0  0  0  0  0  0  0  0  0  0  0  0
   12.0458  -16.9585   25.4428 C   0  0  0  0  0  0  0  0  0  0  0  0
   13.2315  -17.3759   25.5617 O   0  0  0  0  0  0  0  0  0  0  0  0
   11.8936  -15.3432   30.0773 C   0  0  0  0  0  0  0  0  0  0  0  0
   11.3577  -15.4797   28.6949 C   0  0  1  0  0  0  0  0  0  0  0  0
   11.5435  -14.2391   27.8610 C   0  0  0  0  0  0  0  0  0  0  0  0
   11.8992  -16.6672   27.9406 C   0  0  2  0  0  0  0  0  0  0  0  0
   11.3316  -16.6537   26.6090 N   0  0  0  0  0  0  0  0  0  0  0  0
   11.7078  -17.9430   28.6320 C   0  0  0  0  0  0  0  0  0  0  0  0
   10.6653  -18.6279   28.4768 O   0  0  0  0  0  0  0  0  0  0  0  0
   12.6607  -18.4813   29.5018 O   0  0  0  0  0  0  0  0  0  0  0  0
  2  1  1  6
  3  2  1  0
  4  3  1  0
  5  4  2  0
  6  7  1  0
  6  5  1  0
  7 12  2  0
  8  7  1  0
  8  9  2  0
  9 10  1  0
 10 11  2  0
 12  4  1  0
 12 11  1  0
 13  2  1  0
 13 15  1  0
 14 13  2  0
 16 15  1  0
 17 16  1  0
 18 17  2  0
 20 19  1  1
 20 21  1  0
 22 20  1  0
 22 23  1  6
 23 17  1  0
 24 26  1  0
 24 22  1  0
 25 24  2  0
M  END
$$$$
