WGV.pdb
     RDKit          3D

 26 27  0  0  1  0  0  0  0  0999 V2000
    9.1040  -15.0181   24.9290 N   0  0  0  0  0  0  0  0  0  0  0  0
    8.2259  -16.0660   24.4242 C   0  0  1  0  0  0  0  0  0  0  0  0
    7.3199  -15.5329   23.3222 C   0  0  0  0  0  0  0  0  0  0  0  0
    7.2459  -14.0627   23.3666 C   0  0  0  0  0  0  0  0  0  0  0  0
    7.7040  -13.1745   22.3992 C   0  0  0  0  0  0  0  0  0  0  0  0
    7.4534  -11.9103   22.8088 N   0  0  0  0  0  0  0  0  0  0  0  0
    6.8462  -11.9539   24.0135 C   0  0  0  0  0  0  0  0  0  0  0  0
    6.3800  -10.9830   24.8695 C   0  0  0  0  0  0  0  0  0  0  0  0
    5.7818  -11.2939   26.0740 C   0  0  0  0  0  0  0  0  0  0  0  0
    5.6581  -12.6238   26.4097 C   0  0  0  0  0  0  0  0  0  0  0  0
    6.1251  -13.6045   25.5528 C   0  0  0  0  0  0  0  0  0  0  0  0
    6.7171  -13.2805   24.3598 C   0  0  0  0  0  0  0  0  0  0  0  0
    9.0402  -17.1608   23.8723 C   0  0  0  0  0  0  0  0  0  0  0  0
    8.5103  -18.2474   23.5777 O   0  0  0  0  0  0  0  0  0  0  0  0
   10.4234  -16.9805   23.6761 N   0  0  0  0  0  0  0  0  0  0  0  0
   11.4183  -17.9041   24.1649 C   0  0  0  0  0  0  0  0  0  0  0  0
   11.8914  -17.5245   25.5297 C   0  0  0  0  0  0  0  0  0  0  0  0
   13.1339  -17.4856   25.7506 O   0  0  0  0  0  0  0  0  0  0  0  0
   11.0415  -14.3762   27.2064 C   0  0  0  0  0  0  0  0  0  0  0  0
   10.7597  -15.4559   28.1921 C   0  0  1  0  0  0  0  0  0  0  0  0
    9.2884  -15.7127   28.3870 C   0  0  0  0  0  0  0  0  0  0  0  0
   11.4526  -16.7601   27.8895 C   0  0  2  0  0  0  0  0  0  0  0  0
   11.0221  -17.2077   26.5819 N   0  0  0  0  0  0  0  0  0  0  0  0
   11.2787  -17.7760   28.9287 C   0  0  0  0  0  0  0  0  0  0  0  0
   10.5050  -18.7543   28.7724 O   0  0  0  0  0  0  0  0  0  0  0  0
   11.9536  -17.7288   30.1520 O   0  0  0  0  0  0  0  0  0  0  0  0
  2  1  1  6
  3  2  1  0
  4  3  1  0
  5  4  2  0
  6  7  1  0
  6  5  1  0
  7 12  2  0
  8  7  1  0
  8  9  2  0
  9 10  1  0
 10 11  2  0
 12  4  1  0
 12 11  1  0
 13  2  1  0
 13 15  1  0
 14 13  2  0
 16 15  1  0
 17 16  1  0
 18 17  2  0
 20 19  1  6
 20 21  1  0
 22 20  1  0
 22 23  1  6
 23 17  1  0
 24 26  1  0
 24 22  1  0
 25 24  2  0
M  END
$$$$
