WGV.pdb
     RDKit          3D

 26 27  0  0  1  0  0  0  0  0999 V2000
    8.8435  -18.1712   21.4567 N   0  0  0  0  0  0  0  0  0  0  0  0
    9.4350  -17.0620   22.1941 C   0  0  1  0  0  0  0  0  0  0  0  0
    8.3582  -16.2147   22.8591 C   0  0  0  0  0  0  0  0  0  0  0  0
    7.5227  -15.5395   21.8518 C   0  0  0  0  0  0  0  0  0  0  0  0
    6.2273  -15.8810   21.4774 C   0  0  0  0  0  0  0  0  0  0  0  0
    5.8042  -15.0211   20.5232 N   0  0  0  0  0  0  0  0  0  0  0  0
    6.7879  -14.1326   20.2688 C   0  0  0  0  0  0  0  0  0  0  0  0
    6.8934  -13.0643   19.4084 C   0  0  0  0  0  0  0  0  0  0  0  0
    8.0353  -12.2922   19.3355 C   0  0  0  0  0  0  0  0  0  0  0  0
    9.0899  -12.6192   20.1585 C   0  0  0  0  0  0  0  0  0  0  0  0
    8.9895  -13.6925   21.0257 C   0  0  0  0  0  0  0  0  0  0  0  0
    7.8490  -14.4503   21.0870 C   0  0  0  0  0  0  0  0  0  0  0  0
   10.3263  -17.5911   23.2390 C   0  0  0  0  0  0  0  0  0  0  0  0
   10.0248  -18.6322   23.8502 O   0  0  0  0  0  0  0  0  0  0  0  0
   11.5246  -16.9189   23.5499 N   0  0  0  0  0  0  0  0  0  0  0  0
   12.4348  -17.3603   24.5787 C   0  0  0  0  0  0  0  0  0  0  0  0
   12.2088  -16.6254   25.8591 C   0  0  0  0  0  0  0  0  0  0  0  0
   13.2053  -16.3538   26.5853 O   0  0  0  0  0  0  0  0  0  0  0  0
    9.2182  -13.8089   28.5951 C   0  0  0  0  0  0  0  0  0  0  0  0
    9.5840  -14.5617   27.3638 C   0  0  1  0  0  0  0  0  0  0  0  0
    9.9418  -13.6676   26.2056 C   0  0  0  0  0  0  0  0  0  0  0  0
   10.6843  -15.5722   27.5657 C   0  0  2  0  0  0  0  0  0  0  0  0
   10.9410  -16.2203   26.2969 N   0  0  0  0  0  0  0  0  0  0  0  0
   10.4241  -16.5196   28.6506 C   0  0  0  0  0  0  0  0  0  0  0  0
    9.8211  -17.6040   28.4495 O   0  0  0  0  0  0  0  0  0  0  0  0
   10.8243  -16.2863   29.9696 O   0  0  0  0  0  0  0  0  0  0  0  0
  2  1  1  1
  3  2  1  0
  4  3  1  0
  5  4  2  0
  6  7  1  0
  6  5  1  0
  7 12  2  0
  8  7  1  0
  8  9  2  0
  9 10  1  0
 10 11  2  0
 12  4  1  0
 12 11  1  0
 13  2  1  0
 13 15  1  0
 14 13  2  0
 16 15  1  0
 17 16  1  0
 18 17  2  0
 20 19  1  1
 20 21  1  0
 22 20  1  0
 22 23  1  6
 23 17  1  0
 24 26  1  0
 24 22  1  0
 25 24  2  0
M  END
$$$$
