WGV.pdb
     RDKit          3D

 26 27  0  0  1  0  0  0  0  0999 V2000
    8.0055  -17.4700   24.2533 N   0  0  0  0  0  0  0  0  0  0  0  0
    8.0714  -17.0842   22.8494 C   0  0  1  0  0  0  0  0  0  0  0  0
    7.2210  -15.8489   22.5840 C   0  0  0  0  0  0  0  0  0  0  0  0
    6.8011  -15.2175   23.8464 C   0  0  0  0  0  0  0  0  0  0  0  0
    6.1912  -15.8420   24.9294 C   0  0  0  0  0  0  0  0  0  0  0  0
    5.9623  -14.9234   25.8952 N   0  0  0  0  0  0  0  0  0  0  0  0
    6.4063  -13.7221   25.4691 C   0  0  0  0  0  0  0  0  0  0  0  0
    6.4244  -12.4689   26.0364 C   0  0  0  0  0  0  0  0  0  0  0  0
    6.9480  -11.3742   25.3785 C   0  0  0  0  0  0  0  0  0  0  0  0
    7.4631  -11.5650   24.1156 C   0  0  0  0  0  0  0  0  0  0  0  0
    7.4475  -12.8229   23.5401 C   0  0  0  0  0  0  0  0  0  0  0  0
    6.9241  -13.9008   24.2057 C   0  0  0  0  0  0  0  0  0  0  0  0
    9.4660  -16.7781   22.4926 C   0  0  0  0  0  0  0  0  0  0  0  0
    9.9822  -17.2960   21.4857 O   0  0  0  0  0  0  0  0  0  0  0  0
   10.2207  -15.8970   23.2915 N   0  0  0  0  0  0  0  0  0  0  0  0
   11.6270  -16.0791   23.5580 C   0  0  0  0  0  0  0  0  0  0  0  0
   11.9052  -16.1065   25.0251 C   0  0  0  0  0  0  0  0  0  0  0  0
   13.1064  -16.0982   25.4138 O   0  0  0  0  0  0  0  0  0  0  0  0
   10.1958  -14.7312   29.4001 C   0  0  0  0  0  0  0  0  0  0  0  0
   10.0689  -15.0254   27.9462 C   0  0  1  0  0  0  0  0  0  0  0  0
   10.0359  -13.7862   27.0905 C   0  0  0  0  0  0  0  0  0  0  0  0
   11.1221  -15.9641   27.4151 C   0  0  2  0  0  0  0  0  0  0  0  0
   10.8958  -16.1409   25.9963 N   0  0  0  0  0  0  0  0  0  0  0  0
   11.2057  -17.2306   28.1440 C   0  0  0  0  0  0  0  0  0  0  0  0
   10.5768  -18.2517   27.7674 O   0  0  0  0  0  0  0  0  0  0  0  0
   11.9823  -17.3898   29.2955 O   0  0  0  0  0  0  0  0  0  0  0  0
  2  1  1  1
  3  2  1  0
  4  3  1  0
  5  4  2  0
  6  7  1  0
  6  5  1  0
  7 12  2  0
  8  7  1  0
  8  9  2  0
  9 10  1  0
 10 11  2  0
 12  4  1  0
 12 11  1  0
 13  2  1  0
 13 15  1  0
 14 13  2  0
 16 15  1  0
 17 16  1  0
 18 17  2  0
 20 19  1  1
 20 21  1  0
 22 20  1  0
 22 23  1  6
 23 17  1  0
 24 26  1  0
 24 22  1  0
 25 24  2  0
M  END
$$$$
