WGV.pdb
     RDKit          3D

 26 27  0  0  1  0  0  0  0  0999 V2000
    7.9424  -17.6159   25.9764 N   0  0  0  0  0  0  0  0  0  0  0  0
    7.2340  -16.7647   25.0290 C   0  0  1  0  0  0  0  0  0  0  0  0
    8.0047  -15.4763   24.7729 C   0  0  0  0  0  0  0  0  0  0  0  0
    8.0952  -14.6645   25.9982 C   0  0  0  0  0  0  0  0  0  0  0  0
    8.9414  -14.8795   27.0811 C   0  0  0  0  0  0  0  0  0  0  0  0
    8.7232  -13.9185   28.0073 N   0  0  0  0  0  0  0  0  0  0  0  0
    7.7604  -13.0873   27.5557 C   0  0  0  0  0  0  0  0  0  0  0  0
    7.1619  -11.9652   28.0805 C   0  0  0  0  0  0  0  0  0  0  0  0
    6.1765  -11.2756   27.4032 C   0  0  0  0  0  0  0  0  0  0  0  0
    5.7957  -11.7428   26.1649 C   0  0  0  0  0  0  0  0  0  0  0  0
    6.3940  -12.8708   25.6322 C   0  0  0  0  0  0  0  0  0  0  0  0
    7.3714  -13.5453   26.3166 C   0  0  0  0  0  0  0  0  0  0  0  0
    7.0795  -17.4797   23.7518 C   0  0  0  0  0  0  0  0  0  0  0  0
    7.9116  -18.3403   23.4121 O   0  0  0  0  0  0  0  0  0  0  0  0
    5.9877  -17.1908   22.9100 N   0  0  0  0  0  0  0  0  0  0  0  0
    5.8314  -17.7611   21.5940 C   0  0  0  0  0  0  0  0  0  0  0  0
    6.6150  -17.0021   20.5739 C   0  0  0  0  0  0  0  0  0  0  0  0
    6.5042  -17.3288   19.3593 O   0  0  0  0  0  0  0  0  0  0  0  0
    8.7228  -12.7434   19.3916 C   0  0  0  0  0  0  0  0  0  0  0  0
    8.0666  -13.6927   20.3323 C   0  0  1  0  0  0  0  0  0  0  0  0
    6.6189  -13.3669   20.5908 C   0  0  0  0  0  0  0  0  0  0  0  0
    8.1819  -15.1395   19.9250 C   0  0  2  0  0  0  0  0  0  0  0  0
    7.4705  -15.9410   20.8982 N   0  0  0  0  0  0  0  0  0  0  0  0
    9.5599  -15.5852   19.7132 C   0  0  0  0  0  0  0  0  0  0  0  0
   10.2540  -16.0524   20.6512 O   0  0  0  0  0  0  0  0  0  0  0  0
   10.1910  -15.5230   18.4674 O   0  0  0  0  0  0  0  0  0  0  0  0
  2  1  1  1
  3  2  1  0
  4  3  1  0
  5  4  2  0
  6  7  1  0
  6  5  1  0
  7 12  2  0
  8  7  1  0
  8  9  2  0
  9 10  1  0
 10 11  2  0
 12  4  1  0
 12 11  1  0
 13  2  1  0
 13 15  1  0
 14 13  2  0
 16 15  1  0
 17 16  1  0
 18 17  2  0
 20 19  1  6
 20 21  1  0
 22 20  1  0
 22 23  1  1
 23 17  1  0
 24 26  1  0
 24 22  1  0
 25 24  2  0
M  END
$$$$
