WGV.pdb
     RDKit          3D

 26 27  0  0  1  0  0  0  0  0999 V2000
    7.3867  -16.9572   23.4918 N   0  0  0  0  0  0  0  0  0  0  0  0
    8.3127  -15.8420   23.3398 C   0  0  1  0  0  0  0  0  0  0  0  0
    8.5519  -15.1473   24.6738 C   0  0  0  0  0  0  0  0  0  0  0  0
    7.2919  -14.6244   25.2286 C   0  0  0  0  0  0  0  0  0  0  0  0
    6.1753  -15.3638   25.6045 C   0  0  0  0  0  0  0  0  0  0  0  0
    5.2241  -14.5202   26.0656 N   0  0  0  0  0  0  0  0  0  0  0  0
    5.6923  -13.2560   25.9992 C   0  0  0  0  0  0  0  0  0  0  0  0
    5.1552  -12.0336   26.3309 C   0  0  0  0  0  0  0  0  0  0  0  0
    5.8555  -10.8559   26.1637 C   0  0  0  0  0  0  0  0  0  0  0  0
    7.1299  -10.9298   25.6470 C   0  0  0  0  0  0  0  0  0  0  0  0
    7.6751  -12.1563   25.3115 C   0  0  0  0  0  0  0  0  0  0  0  0
    6.9676  -13.3176   25.4832 C   0  0  0  0  0  0  0  0  0  0  0  0
    9.6012  -16.3432   22.8351 C   0  0  0  0  0  0  0  0  0  0  0  0
   10.0558  -15.9242   21.7553 O   0  0  0  0  0  0  0  0  0  0  0  0
   10.3236  -17.3000   23.5747 N   0  0  0  0  0  0  0  0  0  0  0  0
   11.7633  -17.3044   23.6687 C   0  0  0  0  0  0  0  0  0  0  0  0
   12.2196  -17.0440   25.0667 C   0  0  0  0  0  0  0  0  0  0  0  0
   13.4301  -17.2542   25.3575 O   0  0  0  0  0  0  0  0  0  0  0  0
   11.8784  -14.0353   27.2036 C   0  0  0  0  0  0  0  0  0  0  0  0
   11.3463  -15.1671   28.0115 C   0  0  1  0  0  0  0  0  0  0  0  0
    9.8546  -15.1044   28.2108 C   0  0  0  0  0  0  0  0  0  0  0  0
   11.7166  -16.5285   27.4806 C   0  0  2  0  0  0  0  0  0  0  0  0
   11.3683  -16.5760   26.0764 N   0  0  0  0  0  0  0  0  0  0  0  0
   11.1484  -17.6367   28.2496 C   0  0  0  0  0  0  0  0  0  0  0  0
   10.1615  -18.2929   27.8309 O   0  0  0  0  0  0  0  0  0  0  0  0
   11.6588  -18.0369   29.4880 O   0  0  0  0  0  0  0  0  0  0  0  0
  2  1  1  1
  3  2  1  0
  4  3  1  0
  5  4  2  0
  6  7  1  0
  6  5  1  0
  7 12  2  0
  8  7  1  0
  8  9  2  0
  9 10  1  0
 10 11  2  0
 12  4  1  0
 12 11  1  0
 13  2  1  0
 13 15  1  0
 14 13  2  0
 16 15  1  0
 17 16  1  0
 18 17  2  0
 20 19  1  6
 20 21  1  0
 22 20  1  0
 22 23  1  6
 23 17  1  0
 24 26  1  0
 24 22  1  0
 25 24  2  0
M  END
$$$$
