WGV.pdb
     RDKit          3D

 26 27  0  0  1  0  0  0  0  0999 V2000
    8.9116  -15.2562   20.2902 N   0  0  0  0  0  0  0  0  0  0  0  0
    8.6117  -15.1780   21.7143 C   0  0  1  0  0  0  0  0  0  0  0  0
    7.1086  -15.1133   21.9512 C   0  0  0  0  0  0  0  0  0  0  0  0
    6.8023  -15.1100   23.3917 C   0  0  0  0  0  0  0  0  0  0  0  0
    6.3612  -16.1869   24.1535 C   0  0  0  0  0  0  0  0  0  0  0  0
    6.1925  -15.7811   25.4325 N   0  0  0  0  0  0  0  0  0  0  0  0
    6.5117  -14.4726   25.5212 C   0  0  0  0  0  0  0  0  0  0  0  0
    6.5216  -13.5735   26.5624 C   0  0  0  0  0  0  0  0  0  0  0  0
    6.8989  -12.2570   26.3902 C   0  0  0  0  0  0  0  0  0  0  0  0
    7.2734  -11.8520   25.1283 C   0  0  0  0  0  0  0  0  0  0  0  0
    7.2654  -12.7518   24.0773 C   0  0  0  0  0  0  0  0  0  0  0  0
    6.8882  -14.0563   24.2636 C   0  0  0  0  0  0  0  0  0  0  0  0
    9.1414  -16.3731   22.3906 C   0  0  0  0  0  0  0  0  0  0  0  0
    8.6641  -17.4953   22.1429 O   0  0  0  0  0  0  0  0  0  0  0  0
   10.1914  -16.2489   23.3214 N   0  0  0  0  0  0  0  0  0  0  0  0
   10.7044  -17.3587   24.0873 C   0  0  0  0  0  0  0  0  0  0  0  0
   11.2032  -16.9153   25.4234 C   0  0  0  0  0  0  0  0  0  0  0  0
   12.3392  -17.3106   25.8072 O   0  0  0  0  0  0  0  0  0  0  0  0
    9.1215  -13.8906   27.4615 C   0  0  0  0  0  0  0  0  0  0  0  0
   10.5569  -14.1798   27.7309 C   0  0  1  0  0  0  0  0  0  0  0  0
   11.0170  -13.6952   29.0808 C   0  0  0  0  0  0  0  0  0  0  0  0
   10.9311  -15.6316   27.5737 C   0  0  2  0  0  0  0  0  0  0  0  0
   10.4708  -16.0790   26.2762 N   0  0  0  0  0  0  0  0  0  0  0  0
   10.4679  -16.4828   28.6706 C   0  0  0  0  0  0  0  0  0  0  0  0
   10.9753  -16.4143   29.8186 O   0  0  0  0  0  0  0  0  0  0  0  0
    9.4410  -17.4191   28.5187 O   0  0  0  0  0  0  0  0  0  0  0  0
  2  1  1  6
  3  2  1  0
  4  3  1  0
  5  4  2  0
  6  7  1  0
  6  5  1  0
  7 12  2  0
  8  7  1  0
  8  9  2  0
  9 10  1  0
 10 11  2  0
 12  4  1  0
 12 11  1  0
 13  2  1  0
 13 15  1  0
 14 13  2  0
 16 15  1  0
 17 16  1  0
 18 17  2  0
 20 19  1  1
 20 21  1  0
 22 20  1  0
 22 23  1  6
 23 17  1  0
 24 26  1  0
 24 22  1  0
 25 24  2  0
M  END
$$$$
