WGV.pdb
     RDKit          3D

 26 27  0  0  1  0  0  0  0  0999 V2000
    7.1686  -18.1768   22.7095 N   0  0  0  0  0  0  0  0  0  0  0  0
    7.8563  -16.9497   23.0909 C   0  0  1  0  0  0  0  0  0  0  0  0
    7.0972  -16.2197   24.1910 C   0  0  0  0  0  0  0  0  0  0  0  0
    7.1615  -14.7614   23.9966 C   0  0  0  0  0  0  0  0  0  0  0  0
    7.6086  -14.0895   22.8638 C   0  0  0  0  0  0  0  0  0  0  0  0
    7.5123  -12.7573   23.0759 N   0  0  0  0  0  0  0  0  0  0  0  0
    7.0157  -12.5469   24.3132 C   0  0  0  0  0  0  0  0  0  0  0  0
    6.7195  -11.4100   25.0290 C   0  0  0  0  0  0  0  0  0  0  0  0
    6.2075  -11.4630   26.3097 C   0  0  0  0  0  0  0  0  0  0  0  0
    5.9944  -12.7031   26.8695 C   0  0  0  0  0  0  0  0  0  0  0  0
    6.2904  -13.8499   26.1544 C   0  0  0  0  0  0  0  0  0  0  0  0
    6.7985  -13.7816   24.8832 C   0  0  0  0  0  0  0  0  0  0  0  0
    9.2014  -17.2791   23.5894 C   0  0  0  0  0  0  0  0  0  0  0  0
    9.3918  -18.3298   24.2283 O   0  0  0  0  0  0  0  0  0  0  0  0
   10.2777  -16.4042   23.3438 N   0  0  0  0  0  0  0  0  0  0  0  0
   11.6237  -16.6603   23.7958 C   0  0  0  0  0  0  0  0  0  0  0  0
   11.7165  -16.6164   25.2858 C   0  0  0  0  0  0  0  0  0  0  0  0
   12.8162  -16.9090   25.8328 O   0  0  0  0  0  0  0  0  0  0  0  0
    9.6257  -14.7195   29.3735 C   0  0  0  0  0  0  0  0  0  0  0  0
    9.6598  -15.0425   27.9205 C   0  0  1  0  0  0  0  0  0  0  0  0
    9.7454  -13.8213   27.0429 C   0  0  0  0  0  0  0  0  0  0  0  0
   10.7503  -16.0077   27.5311 C   0  0  2  0  0  0  0  0  0  0  0  0
   10.6400  -16.2651   26.1109 N   0  0  0  0  0  0  0  0  0  0  0  0
   10.7711  -17.2306   28.3351 C   0  0  0  0  0  0  0  0  0  0  0  0
   11.2828  -17.2573   29.4828 O   0  0  0  0  0  0  0  0  0  0  0  0
   10.2289  -18.4387   27.8869 O   0  0  0  0  0  0  0  0  0  0  0  0
  2  1  1  1
  3  2  1  0
  4  3  1  0
  5  4  2  0
  6  7  1  0
  6  5  1  0
  7 12  2  0
  8  7  1  0
  8  9  2  0
  9 10  1  0
 10 11  2  0
 12  4  1  0
 12 11  1  0
 13  2  1  0
 13 15  1  0
 14 13  2  0
 16 15  1  0
 17 16  1  0
 18 17  2  0
 20 19  1  1
 20 21  1  0
 22 20  1  0
 22 23  1  6
 23 17  1  0
 24 26  1  0
 24 22  1  0
 25 24  2  0
M  END
$$$$
