WGV.pdb
     RDKit          3D

 26 27  0  0  1  0  0  0  0  0999 V2000
    7.8633  -16.8680   23.9438 N   0  0  0  0  0  0  0  0  0  0  0  0
    8.6894  -15.6786   23.7798 C   0  0  1  0  0  0  0  0  0  0  0  0
    8.7042  -14.8461   25.0551 C   0  0  0  0  0  0  0  0  0  0  0  0
    7.3527  -14.3621   25.3835 C   0  0  0  0  0  0  0  0  0  0  0  0
    6.2704  -15.1291   25.8020 C   0  0  0  0  0  0  0  0  0  0  0  0
    5.2071  -14.3176   26.0015 N   0  0  0  0  0  0  0  0  0  0  0  0
    5.5694  -13.0472   25.7245 C   0  0  0  0  0  0  0  0  0  0  0  0
    4.8976  -11.8471   25.7578 C   0  0  0  0  0  0  0  0  0  0  0  0
    5.5078  -10.6561   25.4197 C   0  0  0  0  0  0  0  0  0  0  0  0
    6.8310  -10.6931   25.0399 C   0  0  0  0  0  0  0  0  0  0  0  0
    7.5117  -11.8970   25.0044 C   0  0  0  0  0  0  0  0  0  0  0  0
    6.8924  -13.0720   25.3430 C   0  0  0  0  0  0  0  0  0  0  0  0
   10.0700  -16.0828   23.4685 C   0  0  0  0  0  0  0  0  0  0  0  0
   10.8418  -15.2881   22.9020 O   0  0  0  0  0  0  0  0  0  0  0  0
   10.5211  -17.3724   23.8116 N   0  0  0  0  0  0  0  0  0  0  0  0
   11.9153  -17.7041   23.9778 C   0  0  0  0  0  0  0  0  0  0  0  0
   12.3893  -17.3926   25.3595 C   0  0  0  0  0  0  0  0  0  0  0  0
   13.6287  -17.4316   25.5975 O   0  0  0  0  0  0  0  0  0  0  0  0
   11.4917  -14.4510   27.5641 C   0  0  0  0  0  0  0  0  0  0  0  0
   11.2618  -15.6903   28.3566 C   0  0  1  0  0  0  0  0  0  0  0  0
    9.8027  -15.9882   28.5827 C   0  0  0  0  0  0  0  0  0  0  0  0
   11.9338  -16.9151   27.7905 C   0  0  2  0  0  0  0  0  0  0  0  0
   11.5242  -17.0576   26.4094 N   0  0  0  0  0  0  0  0  0  0  0  0
   11.7147  -18.1274   28.5810 C   0  0  0  0  0  0  0  0  0  0  0  0
   10.9182  -19.0246   28.2062 O   0  0  0  0  0  0  0  0  0  0  0  0
   12.3690  -18.3677   29.7928 O   0  0  0  0  0  0  0  0  0  0  0  0
  2  1  1  1
  3  2  1  0
  4  3  1  0
  5  4  2  0
  6  7  1  0
  6  5  1  0
  7 12  2  0
  8  7  1  0
  8  9  2  0
  9 10  1  0
 10 11  2  0
 12  4  1  0
 12 11  1  0
 13  2  1  0
 13 15  1  0
 14 13  2  0
 16 15  1  0
 17 16  1  0
 18 17  2  0
 20 19  1  6
 20 21  1  0
 22 20  1  0
 22 23  1  6
 23 17  1  0
 24 26  1  0
 24 22  1  0
 25 24  2  0
M  END
$$$$
