EPT.pdb
     RDKit          3D

 24 24  0  0  1  0  0  0  0  0999 V2000
   24.9050  -35.9972   -7.1186 N   0  0  0  0  0  0  0  0  0  0  0  0
   25.4282  -35.2085   -5.9985 C   0  0  1  0  0  0  0  0  0  0  0  0
   24.2512  -34.8864   -5.1335 C   0  0  0  0  0  0  0  0  0  0  0  0
   23.1980  -34.0443   -5.8013 C   0  0  0  0  0  0  0  0  0  0  0  0
   22.0392  -33.7391   -4.9596 C   0  0  0  0  0  0  0  0  0  0  0  0
   21.0371  -33.0714   -5.2621 O   0  0  0  0  0  0  0  0  0  0  0  0
   26.5438  -35.8814   -5.3150 C   0  0  0  0  0  0  0  0  0  0  0  0
   26.4942  -37.1216   -5.1580 O   0  0  0  0  0  0  0  0  0  0  0  0
   22.0514  -34.2574   -3.6534 O   0  0  0  0  0  0  0  0  0  0  0  0
   27.7045  -35.2246   -4.8041 N   0  0  0  0  0  0  0  0  0  0  0  0
   28.0005  -33.8511   -5.1745 C   0  0  0  0  0  0  0  0  0  0  0  0
   29.3618  -33.5476   -4.5815 C   0  0  0  0  0  0  0  0  0  0  0  0
   29.3432  -34.4408   -3.3711 C   0  0  0  0  0  0  0  0  0  0  0  0
   28.7245  -35.6973   -3.9388 C   0  0  1  0  0  0  0  0  0  0  0  0
   28.2950  -36.5354   -2.8093 C   0  0  0  0  0  0  0  0  0  0  0  0
   27.2830  -36.4234   -2.1130 O   0  0  0  0  0  0  0  0  0  0  0  0
   28.5550  -40.5485   -2.9914 C   0  0  0  0  0  0  0  0  0  0  0  0
   29.3310  -39.9865   -1.8250 C   0  0  1  0  0  0  0  0  0  0  0  0
   30.6838  -39.9297   -2.1570 O   0  0  0  0  0  0  0  0  0  0  0  0
   28.7788  -38.6121   -1.4889 C   0  0  2  0  0  0  0  0  0  0  0  0
   29.1731  -37.6288   -2.4754 N   0  0  0  0  0  0  0  0  0  0  0  0
   29.3639  -38.2167   -0.1878 C   0  0  0  0  0  0  0  0  0  0  0  0
   30.2341  -37.3081   -0.0830 O   0  0  0  0  0  0  0  0  0  0  0  0
   28.9584  -38.8520    0.9731 O   0  0  0  0  0  0  0  0  0  0  0  0
  2  1  1  6
  2  3  1  0
  3  4  1  0
  4  5  1  0
  5  9  1  0
  6  5  2  0
  7  2  1  0
  7 10  1  0
  8  7  2  0
 10 14  1  0
 11 10  1  0
 11 12  1  0
 12 13  1  0
 14 13  1  0
 14 15  1  1
 15 21  1  0
 16 15  2  0
 18 17  1  6
 19 18  1  0
 20 21  1  6
 20 22  1  0
 20 18  1  0
 22 24  1  0
 23 22  2  0
M  END
$$$$
