EPT.pdb
     RDKit          3D

 24 24  0  0  1  0  0  0  0  0999 V2000
   17.9958  -12.1711  -15.8838 N   0  0  0  0  0  0  0  0  0  0  0  0
   19.4355  -11.9985  -16.1026 C   0  0  1  0  0  0  0  0  0  0  0  0
   19.6457  -12.1073  -17.5796 C   0  0  0  0  0  0  0  0  0  0  0  0
   19.4307  -13.4869  -18.1404 C   0  0  0  0  0  0  0  0  0  0  0  0
   19.6003  -13.5870  -19.5915 C   0  0  0  0  0  0  0  0  0  0  0  0
   19.9875  -14.5701  -20.2436 O   0  0  0  0  0  0  0  0  0  0  0  0
   19.9504  -10.7666  -15.4847 C   0  0  0  0  0  0  0  0  0  0  0  0
   19.3248   -9.6975  -15.6602 O   0  0  0  0  0  0  0  0  0  0  0  0
   19.2917  -12.4420  -20.3455 O   0  0  0  0  0  0  0  0  0  0  0  0
   21.1299  -10.6856  -14.6835 N   0  0  0  0  0  0  0  0  0  0  0  0
   21.8047  -11.8923  -14.2365 C   0  0  0  0  0  0  0  0  0  0  0  0
   22.9014  -11.4288  -13.2987 C   0  0  0  0  0  0  0  0  0  0  0  0
   23.2133  -10.0776  -13.8819 C   0  0  0  0  0  0  0  0  0  0  0  0
   21.8269   -9.5564  -14.1819 C   0  0  1  0  0  0  0  0  0  0  0  0
   21.9662   -8.4097  -15.0919 C   0  0  0  0  0  0  0  0  0  0  0  0
   22.1789   -8.4167  -16.3069 O   0  0  0  0  0  0  0  0  0  0  0  0
   19.6860   -5.2633  -14.4029 C   0  0  0  0  0  0  0  0  0  0  0  0
   20.4959   -5.4349  -15.6651 C   0  0  1  0  0  0  0  0  0  0  0  0
   20.5349   -4.2239  -16.3548 O   0  0  0  0  0  0  0  0  0  0  0  0
   21.8886   -5.9107  -15.2899 C   0  0  2  0  0  0  0  0  0  0  0  0
   21.8369   -7.1103  -14.4813 N   0  0  0  0  0  0  0  0  0  0  0  0
   22.5090   -4.8379  -14.4800 C   0  0  0  0  0  0  0  0  0  0  0  0
   22.5410   -4.8723  -13.2183 O   0  0  0  0  0  0  0  0  0  0  0  0
   23.0828   -3.7448  -15.1056 O   0  0  0  0  0  0  0  0  0  0  0  0
  2  1  1  6
  2  3  1  0
  3  4  1  0
  4  5  1  0
  5  9  1  0
  6  5  2  0
  7  2  1  0
  7 10  1  0
  8  7  2  0
 10 14  1  0
 11 10  1  0
 11 12  1  0
 12 13  1  0
 14 13  1  0
 14 15  1  6
 15 21  1  0
 16 15  2  0
 18 17  1  1
 19 18  1  0
 20 21  1  1
 20 22  1  0
 20 18  1  0
 22 24  1  0
 23 22  2  0
M  END
$$$$
