EPT.pdb
     RDKit          3D

 24 24  0  0  1  0  0  0  0  0999 V2000
   23.9605  -20.8099  -16.1511 N   0  0  0  0  0  0  0  0  0  0  0  0
   24.8479  -19.9243  -15.3905 C   0  0  1  0  0  0  0  0  0  0  0  0
   24.1493  -18.6038  -15.3148 C   0  0  0  0  0  0  0  0  0  0  0  0
   24.2535  -17.7703  -16.5633 C   0  0  0  0  0  0  0  0  0  0  0  0
   23.4158  -18.2297  -17.6731 C   0  0  0  0  0  0  0  0  0  0  0  0
   23.7779  -18.8265  -18.6999 O   0  0  0  0  0  0  0  0  0  0  0  0
   25.2377  -20.5030  -14.0953 C   0  0  0  0  0  0  0  0  0  0  0  0
   24.3407  -20.8898  -13.3137 O   0  0  0  0  0  0  0  0  0  0  0  0
   22.0381  -17.9702  -17.5760 O   0  0  0  0  0  0  0  0  0  0  0  0
   26.5832  -20.6646  -13.6443 N   0  0  0  0  0  0  0  0  0  0  0  0
   27.6891  -20.6214  -14.5858 C   0  0  0  0  0  0  0  0  0  0  0  0
   28.9259  -20.9800  -13.7867 C   0  0  0  0  0  0  0  0  0  0  0  0
   28.5413  -20.4574  -12.4294 C   0  0  0  0  0  0  0  0  0  0  0  0
   27.0969  -20.8932  -12.3418 C   0  0  1  0  0  0  0  0  0  0  0  0
   26.4682  -20.1435  -11.2440 C   0  0  0  0  0  0  0  0  0  0  0  0
   26.0251  -18.9924  -11.2570 O   0  0  0  0  0  0  0  0  0  0  0  0
   25.3387  -22.3682   -7.8146 C   0  0  0  0  0  0  0  0  0  0  0  0
   24.7747  -21.0031   -8.1262 C   0  0  1  0  0  0  0  0  0  0  0  0
   24.3433  -20.4029   -6.9442 O   0  0  0  0  0  0  0  0  0  0  0  0
   25.8480  -20.1776   -8.8141 C   0  0  2  0  0  0  0  0  0  0  0  0
   26.3568  -20.8486   -9.9916 N   0  0  0  0  0  0  0  0  0  0  0  0
   26.9637  -20.0301   -7.8522 C   0  0  0  0  0  0  0  0  0  0  0  0
   28.0099  -20.7341   -7.9131 O   0  0  0  0  0  0  0  0  0  0  0  0
   26.8813  -19.0919   -6.8380 O   0  0  0  0  0  0  0  0  0  0  0  0
  2  1  1  1
  2  3  1  0
  3  4  1  0
  4  5  1  0
  5  9  1  0
  6  5  2  0
  7  2  1  0
  7 10  1  0
  8  7  2  0
 10 14  1  0
 11 10  1  0
 11 12  1  0
 12 13  1  0
 14 13  1  0
 14 15  1  1
 15 21  1  0
 16 15  2  0
 18 17  1  1
 19 18  1  0
 20 21  1  6
 20 22  1  0
 20 18  1  0
 22 24  1  0
 23 22  2  0
M  END
$$$$
