EPT.pdb
     RDKit          3D

 24 24  0  0  1  0  0  0  0  0999 V2000
   18.0530  -10.8803  -17.2711 N   0  0  0  0  0  0  0  0  0  0  0  0
   19.5096  -10.7265  -17.2021 C   0  0  1  0  0  0  0  0  0  0  0  0
   19.9558  -10.3831  -18.5879 C   0  0  0  0  0  0  0  0  0  0  0  0
   19.8211  -11.5042  -19.5825 C   0  0  0  0  0  0  0  0  0  0  0  0
   20.3378  -11.1980  -20.9181 C   0  0  0  0  0  0  0  0  0  0  0  0
   19.7887  -10.5294  -21.8086 O   0  0  0  0  0  0  0  0  0  0  0  0
   19.9219   -9.7769  -16.1568 C   0  0  0  0  0  0  0  0  0  0  0  0
   19.2712   -8.7178  -16.0143 O   0  0  0  0  0  0  0  0  0  0  0  0
   21.6034  -11.7163  -21.2415 O   0  0  0  0  0  0  0  0  0  0  0  0
   21.0262   -9.9653  -15.2710 N   0  0  0  0  0  0  0  0  0  0  0  0
   21.6326  -11.2763  -15.1133 C   0  0  0  0  0  0  0  0  0  0  0  0
   22.6502  -11.1294  -13.9999 C   0  0  0  0  0  0  0  0  0  0  0  0
   23.0417   -9.6868  -14.1696 C   0  0  0  0  0  0  0  0  0  0  0  0
   21.6991   -9.0433  -14.4286 C   0  0  1  0  0  0  0  0  0  0  0  0
   21.9437   -7.7025  -14.9811 C   0  0  0  0  0  0  0  0  0  0  0  0
   22.4525   -7.4005  -16.0634 O   0  0  0  0  0  0  0  0  0  0  0  0
   19.7402   -5.0905  -16.0475 C   0  0  0  0  0  0  0  0  0  0  0  0
   20.3870   -4.5361  -14.8012 C   0  0  1  0  0  0  0  0  0  0  0  0
   19.5312   -4.7234  -13.7167 O   0  0  0  0  0  0  0  0  0  0  0  0
   21.7188   -5.2352  -14.5909 C   0  0  2  0  0  0  0  0  0  0  0  0
   21.5342   -6.6006  -14.1467 N   0  0  0  0  0  0  0  0  0  0  0  0
   22.4310   -4.4977  -13.5230 C   0  0  0  0  0  0  0  0  0  0  0  0
   22.9428   -3.3588  -13.7099 O   0  0  0  0  0  0  0  0  0  0  0  0
   22.5543   -5.0560  -12.2626 O   0  0  0  0  0  0  0  0  0  0  0  0
  2  1  1  6
  2  3  1  0
  3  4  1  0
  4  5  1  0
  5  9  1  0
  6  5  2  0
  7  2  1  0
  7 10  1  0
  8  7  2  0
 10 14  1  0
 11 10  1  0
 11 12  1  0
 12 13  1  0
 14 13  1  0
 14 15  1  6
 15 21  1  0
 16 15  2  0
 18 17  1  6
 19 18  1  0
 20 21  1  1
 20 22  1  0
 20 18  1  0
 22 24  1  0
 23 22  2  0
M  END
$$$$
