EPT.pdb
     RDKit          3D

 24 24  0  0  1  0  0  0  0  0999 V2000
   19.7020  -13.0055  -16.7604 N   0  0  0  0  0  0  0  0  0  0  0  0
   20.9532  -12.3252  -17.1097 C   0  0  1  0  0  0  0  0  0  0  0  0
   20.8028  -11.8866  -18.5317 C   0  0  0  0  0  0  0  0  0  0  0  0
   20.6418  -13.0116  -19.5180 C   0  0  0  0  0  0  0  0  0  0  0  0
   20.4715  -12.5825  -20.9078 C   0  0  0  0  0  0  0  0  0  0  0  0
   19.4980  -12.7874  -21.6507 O   0  0  0  0  0  0  0  0  0  0  0  0
   21.2931  -11.2575  -16.1564 C   0  0  0  0  0  0  0  0  0  0  0  0
   20.3849  -10.4962  -15.7553 O   0  0  0  0  0  0  0  0  0  0  0  0
   21.5275  -11.8521  -21.4789 O   0  0  0  0  0  0  0  0  0  0  0  0
   22.6007  -11.0107  -15.6380 N   0  0  0  0  0  0  0  0  0  0  0  0
   23.6207  -12.0447  -15.6807 C   0  0  0  0  0  0  0  0  0  0  0  0
   24.8049  -11.4885  -14.9156 C   0  0  0  0  0  0  0  0  0  0  0  0
   24.6385  -10.0165  -15.1775 C   0  0  0  0  0  0  0  0  0  0  0  0
   23.1442   -9.8542  -15.0217 C   0  0  1  0  0  0  0  0  0  0  0  0
   22.7706   -8.5578  -15.6070 C   0  0  0  0  0  0  0  0  0  0  0  0
   22.6947   -8.2481  -16.7986 O   0  0  0  0  0  0  0  0  0  0  0  0
   19.7348   -6.9727  -14.3554 C   0  0  0  0  0  0  0  0  0  0  0  0
   20.4832   -6.3133  -15.4884 C   0  0  1  0  0  0  0  0  0  0  0  0
   19.9448   -5.0486  -15.7209 O   0  0  0  0  0  0  0  0  0  0  0  0
   21.9549   -6.2365  -15.1211 C   0  0  2  0  0  0  0  0  0  0  0  0
   22.4524   -7.5163  -14.6626 N   0  0  0  0  0  0  0  0  0  0  0  0
   22.0725   -5.2718  -14.0042 C   0  0  0  0  0  0  0  0  0  0  0  0
   21.9789   -4.0240  -14.1724 O   0  0  0  0  0  0  0  0  0  0  0  0
   22.2936   -5.7296  -12.7169 O   0  0  0  0  0  0  0  0  0  0  0  0
  2  1  1  1
  2  3  1  0
  3  4  1  0
  4  5  1  0
  5  9  1  0
  6  5  2  0
  7  2  1  0
  7 10  1  0
  8  7  2  0
 10 14  1  0
 11 10  1  0
 11 12  1  0
 12 13  1  0
 14 13  1  0
 14 15  1  6
 15 21  1  0
 16 15  2  0
 18 17  1  1
 19 18  1  0
 20 21  1  1
 20 22  1  0
 20 18  1  0
 22 24  1  0
 23 22  2  0
M  END
$$$$
