EPT.pdb
     RDKit          3D

 24 24  0  0  1  0  0  0  0  0999 V2000
   16.3422  -12.0183  -15.7780 N   0  0  0  0  0  0  0  0  0  0  0  0
   16.3094  -10.7894  -16.5774 C   0  0  1  0  0  0  0  0  0  0  0  0
   14.9652  -10.1775  -16.3409 C   0  0  0  0  0  0  0  0  0  0  0  0
   14.6510   -9.9011  -14.8955 C   0  0  0  0  0  0  0  0  0  0  0  0
   14.2762   -8.5148  -14.6087 C   0  0  0  0  0  0  0  0  0  0  0  0
   14.9003   -7.6862  -13.9265 O   0  0  0  0  0  0  0  0  0  0  0  0
   17.4564   -9.9113  -16.2985 C   0  0  0  0  0  0  0  0  0  0  0  0
   18.0123   -9.9830  -15.1800 O   0  0  0  0  0  0  0  0  0  0  0  0
   13.0700   -8.0570  -15.1657 O   0  0  0  0  0  0  0  0  0  0  0  0
   18.0016   -8.9629  -17.2166 N   0  0  0  0  0  0  0  0  0  0  0  0
   17.4428   -8.8188  -18.5502 C   0  0  0  0  0  0  0  0  0  0  0  0
   18.3560   -7.8530  -19.2784 C   0  0  0  0  0  0  0  0  0  0  0  0
   18.8419   -7.0106  -18.1306 C   0  0  0  0  0  0  0  0  0  0  0  0
   19.0884   -8.0622  -17.0738 C   0  0  1  0  0  0  0  0  0  0  0  0
   19.2106   -7.3764  -15.7787 C   0  0  0  0  0  0  0  0  0  0  0  0
   18.3117   -7.0064  -15.0194 O   0  0  0  0  0  0  0  0  0  0  0  0
   22.4281   -8.2671  -13.5596 C   0  0  0  0  0  0  0  0  0  0  0  0
   21.2338   -7.5151  -13.0240 C   0  0  1  0  0  0  0  0  0  0  0  0
   21.5736   -6.9152  -11.8123 O   0  0  0  0  0  0  0  0  0  0  0  0
   20.8018   -6.4877  -14.0558 C   0  0  2  0  0  0  0  0  0  0  0  0
   20.5573   -7.1027  -15.3433 N   0  0  0  0  0  0  0  0  0  0  0  0
   21.9214   -5.5313  -14.2095 C   0  0  0  0  0  0  0  0  0  0  0  0
   22.2780   -4.7495  -13.2845 O   0  0  0  0  0  0  0  0  0  0  0  0
   22.6199   -5.4722  -15.4028 O   0  0  0  0  0  0  0  0  0  0  0  0
  2  1  1  1
  2  3  1  0
  3  4  1  0
  4  5  1  0
  5  9  1  0
  6  5  2  0
  7  2  1  0
  7 10  1  0
  8  7  2  0
 10 14  1  0
 11 10  1  0
 11 12  1  0
 12 13  1  0
 14 13  1  0
 14 15  1  1
 15 21  1  0
 16 15  2  0
 18 17  1  6
 19 18  1  0
 20 21  1  6
 20 22  1  0
 20 18  1  0
 22 24  1  0
 23 22  2  0
M  END
$$$$
