EPT.pdb
     RDKit          3D

 24 24  0  0  1  0  0  0  0  0999 V2000
   18.0808  -12.0680  -15.6713 N   0  0  0  0  0  0  0  0  0  0  0  0
   19.2808  -11.5223  -16.3136 C   0  0  1  0  0  0  0  0  0  0  0  0
   18.8499  -11.0569  -17.6682 C   0  0  0  0  0  0  0  0  0  0  0  0
   18.3812  -12.1542  -18.5851 C   0  0  0  0  0  0  0  0  0  0  0  0
   18.0211  -11.7085  -19.9328 C   0  0  0  0  0  0  0  0  0  0  0  0
   17.1488  -12.1806  -20.6797 O   0  0  0  0  0  0  0  0  0  0  0  0
   19.9454  -10.5061  -15.4831 C   0  0  0  0  0  0  0  0  0  0  0  0
   19.2524   -9.5987  -14.9714 O   0  0  0  0  0  0  0  0  0  0  0  0
   18.7405  -10.6190  -20.4527 O   0  0  0  0  0  0  0  0  0  0  0  0
   21.3456  -10.4663  -15.2048 N   0  0  0  0  0  0  0  0  0  0  0  0
   22.1720  -11.6457  -15.3982 C   0  0  0  0  0  0  0  0  0  0  0  0
   23.5425  -11.2819  -14.8632 C   0  0  0  0  0  0  0  0  0  0  0  0
   23.5603   -9.8011  -15.1278 C   0  0  0  0  0  0  0  0  0  0  0  0
   22.1588   -9.4097  -14.7199 C   0  0  1  0  0  0  0  0  0  0  0  0
   21.8915   -8.0694  -15.2629 C   0  0  0  0  0  0  0  0  0  0  0  0
   21.6398   -7.7504  -16.4275 O   0  0  0  0  0  0  0  0  0  0  0  0
   19.3908   -6.0722  -15.5647 C   0  0  0  0  0  0  0  0  0  0  0  0
   20.1926   -5.2805  -14.5603 C   0  0  1  0  0  0  0  0  0  0  0  0
   19.7352   -5.5700  -13.2756 O   0  0  0  0  0  0  0  0  0  0  0  0
   21.6614   -5.6308  -14.7240 C   0  0  2  0  0  0  0  0  0  0  0  0
   21.9296   -6.9909  -14.3072 N   0  0  0  0  0  0  0  0  0  0  0  0
   22.4246   -4.7211  -13.8398 C   0  0  0  0  0  0  0  0  0  0  0  0
   22.9445   -5.1064  -12.7558 O   0  0  0  0  0  0  0  0  0  0  0  0
   22.5888   -3.3928  -14.1923 O   0  0  0  0  0  0  0  0  0  0  0  0
  2  1  1  1
  2  3  1  0
  3  4  1  0
  4  5  1  0
  5  9  1  0
  6  5  2  0
  7  2  1  0
  7 10  1  0
  8  7  2  0
 10 14  1  0
 11 10  1  0
 11 12  1  0
 12 13  1  0
 14 13  1  0
 14 15  1  6
 15 21  1  0
 16 15  2  0
 18 17  1  6
 19 18  1  0
 20 21  1  1
 20 22  1  0
 20 18  1  0
 22 24  1  0
 23 22  2  0
M  END
$$$$
