EPT.pdb
     RDKit          3D

 24 24  0  0  1  0  0  0  0  0999 V2000
   17.5256  -11.8728  -15.3733 N   0  0  0  0  0  0  0  0  0  0  0  0
   18.1961  -11.1139  -16.4338 C   0  0  1  0  0  0  0  0  0  0  0  0
   17.1202  -10.3538  -17.1424 C   0  0  0  0  0  0  0  0  0  0  0  0
   16.0789  -11.2159  -17.8033 C   0  0  0  0  0  0  0  0  0  0  0  0
   15.0255  -10.4728  -18.4980 C   0  0  0  0  0  0  0  0  0  0  0  0
   15.0837   -9.9456  -19.6206 O   0  0  0  0  0  0  0  0  0  0  0  0
   19.3065  -10.2974  -15.9195 C   0  0  0  0  0  0  0  0  0  0  0  0
   19.1507   -9.6772  -14.8441 O   0  0  0  0  0  0  0  0  0  0  0  0
   13.7998  -10.3333  -17.8248 O   0  0  0  0  0  0  0  0  0  0  0  0
   20.5757  -10.1492  -16.5574 N   0  0  0  0  0  0  0  0  0  0  0  0
   21.0305  -11.1234  -17.5348 C   0  0  0  0  0  0  0  0  0  0  0  0
   22.4554  -10.7341  -17.8738 C   0  0  0  0  0  0  0  0  0  0  0  0
   22.3935   -9.2452  -17.6670 C   0  0  0  0  0  0  0  0  0  0  0  0
   21.5755   -9.1552  -16.3996 C   0  0  1  0  0  0  0  0  0  0  0  0
   21.1096   -7.7669  -16.2643 C   0  0  0  0  0  0  0  0  0  0  0  0
   20.2128   -7.1950  -16.8889 O   0  0  0  0  0  0  0  0  0  0  0  0
   20.9438   -6.4823  -12.6484 C   0  0  0  0  0  0  0  0  0  0  0  0
   20.3296   -5.6935  -13.7794 C   0  0  1  0  0  0  0  0  0  0  0  0
   20.0106   -4.4138  -13.3276 O   0  0  0  0  0  0  0  0  0  0  0  0
   21.3144   -5.6502  -14.9347 C   0  0  2  0  0  0  0  0  0  0  0  0
   21.7917   -6.9747  -15.2718 N   0  0  0  0  0  0  0  0  0  0  0  0
   22.4732   -4.8455  -14.4859 C   0  0  0  0  0  0  0  0  0  0  0  0
   22.3996   -3.6005  -14.2894 O   0  0  0  0  0  0  0  0  0  0  0  0
   23.6950   -5.4574  -14.2661 O   0  0  0  0  0  0  0  0  0  0  0  0
  2  1  1  1
  2  3  1  0
  3  4  1  0
  4  5  1  0
  5  9  1  0
  6  5  2  0
  7  2  1  0
  7 10  1  0
  8  7  2  0
 10 14  1  0
 11 10  1  0
 11 12  1  0
 12 13  1  0
 14 13  1  0
 14 15  1  6
 15 21  1  0
 16 15  2  0
 18 17  1  1
 19 18  1  0
 20 21  1  1
 20 22  1  0
 20 18  1  0
 22 24  1  0
 23 22  2  0
M  END
$$$$
