EPT.pdb
     RDKit          3D

 24 24  0  0  1  0  0  0  0  0999 V2000
   27.5406  -23.0856  -15.4374 N   0  0  0  0  0  0  0  0  0  0  0  0
   27.1289  -21.7398  -15.0260 C   0  0  1  0  0  0  0  0  0  0  0  0
   27.3325  -20.8615  -16.2195 C   0  0  0  0  0  0  0  0  0  0  0  0
   26.9438  -19.4231  -16.0093 C   0  0  0  0  0  0  0  0  0  0  0  0
   27.8341  -18.4525  -16.6494 C   0  0  0  0  0  0  0  0  0  0  0  0
   28.7514  -18.6808  -17.4545 O   0  0  0  0  0  0  0  0  0  0  0  0
   25.7723  -21.7205  -14.4570 C   0  0  0  0  0  0  0  0  0  0  0  0
   24.7989  -21.9367  -15.2125 O   0  0  0  0  0  0  0  0  0  0  0  0
   27.6369  -17.1003  -16.3218 O   0  0  0  0  0  0  0  0  0  0  0  0
   25.4652  -21.4704  -13.0848 N   0  0  0  0  0  0  0  0  0  0  0  0
   26.5276  -21.2928  -12.1096 C   0  0  0  0  0  0  0  0  0  0  0  0
   25.8404  -21.2063  -10.7615 C   0  0  0  0  0  0  0  0  0  0  0  0
   24.5225  -20.5999  -11.1596 C   0  0  0  0  0  0  0  0  0  0  0  0
   24.2136  -21.3656  -12.4253 C   0  0  1  0  0  0  0  0  0  0  0  0
   23.1507  -20.6420  -13.1390 C   0  0  0  0  0  0  0  0  0  0  0  0
   23.1726  -19.4923  -13.5855 O   0  0  0  0  0  0  0  0  0  0  0  0
   21.5690  -21.3851  -16.2985 C   0  0  0  0  0  0  0  0  0  0  0  0
   20.4538  -21.5437  -15.2935 C   0  0  1  0  0  0  0  0  0  0  0  0
   20.2682  -22.8986  -15.0224 O   0  0  0  0  0  0  0  0  0  0  0  0
   20.8133  -20.7658  -14.0396 C   0  0  2  0  0  0  0  0  0  0  0  0
   21.9257  -21.3744  -13.3412 N   0  0  0  0  0  0  0  0  0  0  0  0
   19.6320  -20.8113  -13.1484 C   0  0  0  0  0  0  0  0  0  0  0  0
   19.6178  -21.4733  -12.0734 O   0  0  0  0  0  0  0  0  0  0  0  0
   18.4868  -20.1101  -13.4838 O   0  0  0  0  0  0  0  0  0  0  0  0
  2  1  1  6
  2  3  1  0
  3  4  1  0
  4  5  1  0
  5  9  1  0
  6  5  2  0
  7  2  1  0
  7 10  1  0
  8  7  2  0
 10 14  1  0
 11 10  1  0
 11 12  1  0
 12 13  1  0
 14 13  1  0
 14 15  1  6
 15 21  1  0
 16 15  2  0
 18 17  1  6
 19 18  1  0
 20 21  1  1
 20 22  1  0
 20 18  1  0
 22 24  1  0
 23 22  2  0
M  END
$$$$
