EPT.pdb
     RDKit          3D

 24 24  0  0  1  0  0  0  0  0999 V2000
   18.6580  -12.8025  -16.2743 N   0  0  0  0  0  0  0  0  0  0  0  0
   19.6867  -11.9529  -16.8828 C   0  0  1  0  0  0  0  0  0  0  0  0
   19.0899  -11.4214  -18.1471 C   0  0  0  0  0  0  0  0  0  0  0  0
   18.8222  -12.4649  -19.1977 C   0  0  0  0  0  0  0  0  0  0  0  0
   18.3337  -11.9340  -20.4720 C   0  0  0  0  0  0  0  0  0  0  0  0
   18.9140  -11.1482  -21.2384 O   0  0  0  0  0  0  0  0  0  0  0  0
   20.1920  -10.9333  -15.9504 C   0  0  0  0  0  0  0  0  0  0  0  0
   19.3789  -10.1392  -15.4273 O   0  0  0  0  0  0  0  0  0  0  0  0
   17.0593  -12.3564  -20.8870 O   0  0  0  0  0  0  0  0  0  0  0  0
   21.5624  -10.7692  -15.5832 N   0  0  0  0  0  0  0  0  0  0  0  0
   22.5239  -11.8326  -15.8194 C   0  0  0  0  0  0  0  0  0  0  0  0
   23.8151  -11.3731  -15.1724 C   0  0  0  0  0  0  0  0  0  0  0  0
   23.6820   -9.8814  -15.3149 C   0  0  0  0  0  0  0  0  0  0  0  0
   22.2260   -9.6784  -14.9647 C   0  0  1  0  0  0  0  0  0  0  0  0
   21.8405   -8.3320  -15.4132 C   0  0  0  0  0  0  0  0  0  0  0  0
   21.4895   -7.9702  -16.5389 O   0  0  0  0  0  0  0  0  0  0  0  0
   19.5439   -6.1414  -13.2888 C   0  0  0  0  0  0  0  0  0  0  0  0
   20.0265   -5.7194  -14.6554 C   0  0  1  0  0  0  0  0  0  0  0  0
   19.6907   -4.3834  -14.8696 O   0  0  0  0  0  0  0  0  0  0  0  0
   21.5274   -5.9387  -14.7316 C   0  0  2  0  0  0  0  0  0  0  0  0
   21.8791   -7.3040  -14.4032 N   0  0  0  0  0  0  0  0  0  0  0  0
   22.1466   -5.0501  -13.7223 C   0  0  0  0  0  0  0  0  0  0  0  0
   22.5622   -5.4744  -12.6082 O   0  0  0  0  0  0  0  0  0  0  0  0
   22.2868   -3.6986  -13.9856 O   0  0  0  0  0  0  0  0  0  0  0  0
  2  1  1  1
  2  3  1  0
  3  4  1  0
  4  5  1  0
  5  9  1  0
  6  5  2  0
  7  2  1  0
  7 10  1  0
  8  7  2  0
 10 14  1  0
 11 10  1  0
 11 12  1  0
 12 13  1  0
 14 13  1  0
 14 15  1  6
 15 21  1  0
 16 15  2  0
 18 17  1  1
 19 18  1  0
 20 21  1  1
 20 22  1  0
 20 18  1  0
 22 24  1  0
 23 22  2  0
M  END
$$$$
