EPT.pdb
     RDKit          3D

 24 24  0  0  1  0  0  0  0  0999 V2000
   23.8808  -21.6932  -17.6695 N   0  0  0  0  0  0  0  0  0  0  0  0
   24.1375  -20.4889  -16.8732 C   0  0  1  0  0  0  0  0  0  0  0  0
   22.8055  -19.8432  -16.6580 C   0  0  0  0  0  0  0  0  0  0  0  0
   22.8499  -18.3432  -16.5467 C   0  0  0  0  0  0  0  0  0  0  0  0
   21.5598  -17.7167  -16.2508 C   0  0  0  0  0  0  0  0  0  0  0  0
   20.7205  -18.0711  -15.4073 O   0  0  0  0  0  0  0  0  0  0  0  0
   24.8982  -20.7811  -15.6484 C   0  0  0  0  0  0  0  0  0  0  0  0
   24.3845  -21.5242  -14.7828 O   0  0  0  0  0  0  0  0  0  0  0  0
   21.2208  -16.5795  -17.0036 O   0  0  0  0  0  0  0  0  0  0  0  0
   26.2025  -20.2775  -15.3569 N   0  0  0  0  0  0  0  0  0  0  0  0
   27.0258  -19.7037  -16.4077 C   0  0  0  0  0  0  0  0  0  0  0  0
   28.3732  -19.4266  -15.7717 C   0  0  0  0  0  0  0  0  0  0  0  0
   27.9601  -19.1593  -14.3501 C   0  0  0  0  0  0  0  0  0  0  0  0
   26.9222  -20.2365  -14.1350 C   0  0  1  0  0  0  0  0  0  0  0  0
   26.1558  -19.8863  -12.9297 C   0  0  0  0  0  0  0  0  0  0  0  0
   25.2401  -19.0680  -12.8144 O   0  0  0  0  0  0  0  0  0  0  0  0
   24.0806  -21.0374   -8.9107 C   0  0  0  0  0  0  0  0  0  0  0  0
   24.7057  -21.3177  -10.2558 C   0  0  1  0  0  0  0  0  0  0  0  0
   23.7301  -21.2162  -11.2465 O   0  0  0  0  0  0  0  0  0  0  0  0
   25.8383  -20.3315  -10.4820 C   0  0  2  0  0  0  0  0  0  0  0  0
   26.5254  -20.5933  -11.7290 N   0  0  0  0  0  0  0  0  0  0  0  0
   26.8050  -20.5216   -9.3770 C   0  0  0  0  0  0  0  0  0  0  0  0
   26.5683  -20.1442   -8.1957 O   0  0  0  0  0  0  0  0  0  0  0  0
   28.0220  -21.1337   -9.6220 O   0  0  0  0  0  0  0  0  0  0  0  0
  2  1  1  1
  2  3  1  0
  3  4  1  0
  4  5  1  0
  5  9  1  0
  6  5  2  0
  7  2  1  0
  7 10  1  0
  8  7  2  0
 10 14  1  0
 11 10  1  0
 11 12  1  0
 12 13  1  0
 14 13  1  0
 14 15  1  1
 15 21  1  0
 16 15  2  0
 18 17  1  1
 19 18  1  0
 20 21  1  6
 20 22  1  0
 20 18  1  0
 22 24  1  0
 23 22  2  0
M  END
$$$$
