EPT.pdb
     RDKit          3D

 24 24  0  0  1  0  0  0  0  0999 V2000
   19.8116  -12.9324  -17.7813 N   0  0  0  0  0  0  0  0  0  0  0  0
   21.1039  -12.2411  -17.7317 C   0  0  1  0  0  0  0  0  0  0  0  0
   21.3273  -11.6823  -19.1010 C   0  0  0  0  0  0  0  0  0  0  0  0
   21.4118  -12.7164  -20.1908 C   0  0  0  0  0  0  0  0  0  0  0  0
   21.7078  -12.1770  -21.5197 C   0  0  0  0  0  0  0  0  0  0  0  0
   21.2754  -11.1292  -22.0263 O   0  0  0  0  0  0  0  0  0  0  0  0
   21.1715  -11.2620  -16.6357 C   0  0  0  0  0  0  0  0  0  0  0  0
   20.2022  -10.4921  -16.4549 O   0  0  0  0  0  0  0  0  0  0  0  0
   22.5832  -12.9245  -22.3258 O   0  0  0  0  0  0  0  0  0  0  0  0
   22.2743  -11.1124  -15.7406 N   0  0  0  0  0  0  0  0  0  0  0  0
   23.2478  -12.1792  -15.5815 C   0  0  0  0  0  0  0  0  0  0  0  0
   24.1647  -11.7375  -14.4584 C   0  0  0  0  0  0  0  0  0  0  0  0
   24.1023  -10.2431  -14.6201 C   0  0  0  0  0  0  0  0  0  0  0  0
   22.6300  -10.0347  -14.8892 C   0  0  1  0  0  0  0  0  0  0  0  0
   22.4614   -8.6797  -15.4353 C   0  0  0  0  0  0  0  0  0  0  0  0
   22.6797   -8.2829  -16.5826 O   0  0  0  0  0  0  0  0  0  0  0  0
   20.2000   -4.4915  -15.3606 C   0  0  0  0  0  0  0  0  0  0  0  0
   20.3208   -5.9517  -14.9971 C   0  0  1  0  0  0  0  0  0  0  0  0
   19.6459   -6.7191  -15.9454 O   0  0  0  0  0  0  0  0  0  0  0  0
   21.7934   -6.3164  -14.9267 C   0  0  2  0  0  0  0  0  0  0  0  0
   21.9780   -7.6892  -14.5061 N   0  0  0  0  0  0  0  0  0  0  0  0
   22.4088   -5.4374  -13.9067 C   0  0  0  0  0  0  0  0  0  0  0  0
   22.8495   -4.2862  -14.1795 O   0  0  0  0  0  0  0  0  0  0  0  0
   22.5170   -5.8707  -12.5966 O   0  0  0  0  0  0  0  0  0  0  0  0
  2  1  1  6
  2  3  1  0
  3  4  1  0
  4  5  1  0
  5  9  1  0
  6  5  2  0
  7  2  1  0
  7 10  1  0
  8  7  2  0
 10 14  1  0
 11 10  1  0
 11 12  1  0
 12 13  1  0
 14 13  1  0
 14 15  1  6
 15 21  1  0
 16 15  2  0
 18 17  1  6
 19 18  1  0
 20 21  1  1
 20 22  1  0
 20 18  1  0
 22 24  1  0
 23 22  2  0
M  END
$$$$
