EPT.pdb
     RDKit          3D

 24 24  0  0  1  0  0  0  0  0999 V2000
   21.4107  -21.3060  -14.2060 N   0  0  0  0  0  0  0  0  0  0  0  0
   21.1655  -20.5309  -12.9856 C   0  0  1  0  0  0  0  0  0  0  0  0
   19.9776  -19.6690  -13.2742 C   0  0  0  0  0  0  0  0  0  0  0  0
   20.1115  -18.8137  -14.5049 C   0  0  0  0  0  0  0  0  0  0  0  0
   18.8521  -18.5547  -15.2059 C   0  0  0  0  0  0  0  0  0  0  0  0
   18.6761  -17.8520  -16.2142 O   0  0  0  0  0  0  0  0  0  0  0  0
   21.0451  -21.3871  -11.7952 C   0  0  0  0  0  0  0  0  0  0  0  0
   20.3685  -22.4366  -11.8738 O   0  0  0  0  0  0  0  0  0  0  0  0
   17.7001  -19.1685  -14.6854 O   0  0  0  0  0  0  0  0  0  0  0  0
   21.6484  -21.1162  -10.5294 N   0  0  0  0  0  0  0  0  0  0  0  0
   22.6542  -20.0759  -10.3969 C   0  0  0  0  0  0  0  0  0  0  0  0
   23.1704  -20.1793   -8.9757 C   0  0  0  0  0  0  0  0  0  0  0  0
   21.9472  -20.7018   -8.2729 C   0  0  0  0  0  0  0  0  0  0  0  0
   21.4503  -21.7279   -9.2648 C   0  0  1  0  0  0  0  0  0  0  0  0
   20.0648  -22.0650   -8.9052 C   0  0  0  0  0  0  0  0  0  0  0  0
   19.0332  -21.4375   -9.1568 O   0  0  0  0  0  0  0  0  0  0  0  0
   16.8930  -25.5438   -7.9904 C   0  0  0  0  0  0  0  0  0  0  0  0
   18.2739  -25.1095   -8.4184 C   0  0  1  0  0  0  0  0  0  0  0  0
   18.3324  -25.0685   -9.8107 O   0  0  0  0  0  0  0  0  0  0  0  0
   18.5699  -23.7519   -7.8052 C   0  0  2  0  0  0  0  0  0  0  0  0
   19.8941  -23.2885   -8.1621 N   0  0  0  0  0  0  0  0  0  0  0  0
   18.5239  -23.9215   -6.3352 C   0  0  0  0  0  0  0  0  0  0  0  0
   19.5221  -24.3066   -5.6649 O   0  0  0  0  0  0  0  0  0  0  0  0
   17.3540  -23.6542   -5.6457 O   0  0  0  0  0  0  0  0  0  0  0  0
  2  1  1  6
  2  3  1  0
  3  4  1  0
  4  5  1  0
  5  9  1  0
  6  5  2  0
  7  2  1  0
  7 10  1  0
  8  7  2  0
 10 14  1  0
 11 10  1  0
 11 12  1  0
 12 13  1  0
 14 13  1  0
 14 15  1  1
 15 21  1  0
 16 15  2  0
 18 17  1  6
 19 18  1  0
 20 21  1  1
 20 22  1  0
 20 18  1  0
 22 24  1  0
 23 22  2  0
M  END
$$$$
