EPT.pdb
     RDKit          3D

 24 24  0  0  1  0  0  0  0  0999 V2000
   19.0925  -12.4137  -16.1050 N   0  0  0  0  0  0  0  0  0  0  0  0
   18.3793  -11.1843  -16.4654 C   0  0  1  0  0  0  0  0  0  0  0  0
   17.1593  -11.1448  -15.6008 C   0  0  0  0  0  0  0  0  0  0  0  0
   16.2133  -12.2973  -15.8035 C   0  0  0  0  0  0  0  0  0  0  0  0
   15.0136  -12.2543  -14.9650 C   0  0  0  0  0  0  0  0  0  0  0  0
   13.8293  -12.3219  -15.3318 O   0  0  0  0  0  0  0  0  0  0  0  0
   19.2420   -9.9951  -16.3878 C   0  0  0  0  0  0  0  0  0  0  0  0
   19.9988   -9.8631  -15.4003 O   0  0  0  0  0  0  0  0  0  0  0  0
   15.2133  -12.1211  -13.5803 O   0  0  0  0  0  0  0  0  0  0  0  0
   19.2904   -8.9554  -17.3657 N   0  0  0  0  0  0  0  0  0  0  0  0
   18.6542   -9.1278  -18.6606 C   0  0  0  0  0  0  0  0  0  0  0  0
   19.0388   -7.9089  -19.4752 C   0  0  0  0  0  0  0  0  0  0  0  0
   19.1853   -6.8816  -18.3860 C   0  0  0  0  0  0  0  0  0  0  0  0
   19.9050   -7.6775  -17.3219 C   0  0  1  0  0  0  0  0  0  0  0  0
   19.7954   -6.9362  -16.0565 C   0  0  0  0  0  0  0  0  0  0  0  0
   18.8161   -6.8268  -15.3145 O   0  0  0  0  0  0  0  0  0  0  0  0
   21.6181   -7.5575  -13.0925 C   0  0  0  0  0  0  0  0  0  0  0  0
   22.0373   -6.1444  -13.4183 C   0  0  1  0  0  0  0  0  0  0  0  0
   23.3149   -6.1605  -13.9760 O   0  0  0  0  0  0  0  0  0  0  0  0
   21.0187   -5.5407  -14.3694 C   0  0  2  0  0  0  0  0  0  0  0  0
   20.9894   -6.2495  -15.6313 N   0  0  0  0  0  0  0  0  0  0  0  0
   21.4463   -4.1485  -14.6351 C   0  0  0  0  0  0  0  0  0  0  0  0
   21.8268   -3.7611  -15.7749 O   0  0  0  0  0  0  0  0  0  0  0  0
   21.4379   -3.2165  -13.6119 O   0  0  0  0  0  0  0  0  0  0  0  0
  2  1  1  1
  2  3  1  0
  3  4  1  0
  4  5  1  0
  5  9  1  0
  6  5  2  0
  7  2  1  0
  7 10  1  0
  8  7  2  0
 10 14  1  0
 11 10  1  0
 11 12  1  0
 12 13  1  0
 14 13  1  0
 14 15  1  1
 15 21  1  0
 16 15  2  0
 18 17  1  6
 19 18  1  0
 20 21  1  6
 20 22  1  0
 20 18  1  0
 22 24  1  0
 23 22  2  0
M  END
$$$$
