EPT.pdb
     RDKit          3D

 24 24  0  0  1  0  0  0  0  0999 V2000
   19.1560  -11.1178  -15.7843 N   0  0  0  0  0  0  0  0  0  0  0  0
   19.5379   -9.7037  -15.7154 C   0  0  1  0  0  0  0  0  0  0  0  0
   18.7985   -9.0208  -16.8218 C   0  0  0  0  0  0  0  0  0  0  0  0
   17.7715   -9.8795  -17.5090 C   0  0  0  0  0  0  0  0  0  0  0  0
   16.4188   -9.3186  -17.5206 C   0  0  0  0  0  0  0  0  0  0  0  0
   15.3908   -9.8280  -17.9953 O   0  0  0  0  0  0  0  0  0  0  0  0
   19.3285   -9.1336  -14.3754 C   0  0  0  0  0  0  0  0  0  0  0  0
   18.3791   -9.5597  -13.6809 O   0  0  0  0  0  0  0  0  0  0  0  0
   16.2520   -8.0556  -16.9274 O   0  0  0  0  0  0  0  0  0  0  0  0
   20.1348   -8.1124  -13.7867 N   0  0  0  0  0  0  0  0  0  0  0  0
   21.4111   -7.7457  -14.3765 C   0  0  0  0  0  0  0  0  0  0  0  0
   22.0435   -6.7611  -13.4134 C   0  0  0  0  0  0  0  0  0  0  0  0
   20.8161   -6.1224  -12.8229 C   0  0  0  0  0  0  0  0  0  0  0  0
   19.9212   -7.3242  -12.6266 C   0  0  1  0  0  0  0  0  0  0  0  0
   18.5528   -6.8330  -12.4060 C   0  0  0  0  0  0  0  0  0  0  0  0
   17.6570   -6.6606  -13.2362 O   0  0  0  0  0  0  0  0  0  0  0  0
   15.2167   -5.7560   -8.9100 C   0  0  0  0  0  0  0  0  0  0  0  0
   16.6298   -6.2001   -9.2009 C   0  0  1  0  0  0  0  0  0  0  0  0
   16.8025   -7.5085   -8.7517 O   0  0  0  0  0  0  0  0  0  0  0  0
   16.8800   -6.0831  -10.6943 C   0  0  2  0  0  0  0  0  0  0  0  0
   18.2184   -6.5123  -11.0409 N   0  0  0  0  0  0  0  0  0  0  0  0
   16.7529   -4.6501  -11.0436 C   0  0  0  0  0  0  0  0  0  0  0  0
   17.7391   -3.8617  -11.0446 O   0  0  0  0  0  0  0  0  0  0  0  0
   15.5169   -4.1298  -11.3857 O   0  0  0  0  0  0  0  0  0  0  0  0
  2  1  1  1
  2  3  1  0
  3  4  1  0
  4  5  1  0
  5  9  1  0
  6  5  2  0
  7  2  1  0
  7 10  1  0
  8  7  2  0
 10 14  1  0
 11 10  1  0
 11 12  1  0
 12 13  1  0
 14 13  1  0
 14 15  1  6
 15 21  1  0
 16 15  2  0
 18 17  1  6
 19 18  1  0
 20 21  1  1
 20 22  1  0
 20 18  1  0
 22 24  1  0
 23 22  2  0
M  END
$$$$
