EPT.pdb
     RDKit          3D

 24 24  0  0  1  0  0  0  0  0999 V2000
   23.4801  -21.1347  -15.7015 N   0  0  0  0  0  0  0  0  0  0  0  0
   24.3882  -20.1616  -15.0861 C   0  0  1  0  0  0  0  0  0  0  0  0
   23.6078  -18.8923  -14.9553 C   0  0  0  0  0  0  0  0  0  0  0  0
   23.2648  -18.2331  -16.2637 C   0  0  0  0  0  0  0  0  0  0  0  0
   24.4082  -18.0117  -17.1515 C   0  0  0  0  0  0  0  0  0  0  0  0
   25.3290  -17.1907  -17.0116 O   0  0  0  0  0  0  0  0  0  0  0  0
   24.9822  -20.6644  -13.8376 C   0  0  0  0  0  0  0  0  0  0  0  0
   24.2282  -21.1436  -12.9617 O   0  0  0  0  0  0  0  0  0  0  0  0
   24.4828  -18.8173  -18.3006 O   0  0  0  0  0  0  0  0  0  0  0  0
   26.3776  -20.6519  -13.5336 N   0  0  0  0  0  0  0  0  0  0  0  0
   27.3625  -20.4714  -14.5866 C   0  0  0  0  0  0  0  0  0  0  0  0
   28.7129  -20.6670  -13.9269 C   0  0  0  0  0  0  0  0  0  0  0  0
   28.4118  -20.1931  -12.5313 C   0  0  0  0  0  0  0  0  0  0  0  0
   27.0521  -20.8089  -12.2954 C   0  0  1  0  0  0  0  0  0  0  0  0
   26.4538  -20.1416  -11.1294 C   0  0  0  0  0  0  0  0  0  0  0  0
   25.7979  -19.0975  -11.0966 O   0  0  0  0  0  0  0  0  0  0  0  0
   24.7947  -20.5854   -6.6157 C   0  0  0  0  0  0  0  0  0  0  0  0
   25.1273  -21.1338   -7.9822 C   0  0  1  0  0  0  0  0  0  0  0  0
   23.9582  -21.2332   -8.7350 O   0  0  0  0  0  0  0  0  0  0  0  0
   26.1419  -20.2162   -8.6419 C   0  0  2  0  0  0  0  0  0  0  0  0
   26.6633  -20.7955   -9.8619 N   0  0  0  0  0  0  0  0  0  0  0  0
   27.2662  -20.0595   -7.6916 C   0  0  0  0  0  0  0  0  0  0  0  0
   28.3138  -20.7611   -7.7579 O   0  0  0  0  0  0  0  0  0  0  0  0
   27.1910  -19.1149   -6.6828 O   0  0  0  0  0  0  0  0  0  0  0  0
  2  1  1  1
  2  3  1  0
  3  4  1  0
  4  5  1  0
  5  9  1  0
  6  5  2  0
  7  2  1  0
  7 10  1  0
  8  7  2  0
 10 14  1  0
 11 10  1  0
 11 12  1  0
 12 13  1  0
 14 13  1  0
 14 15  1  1
 15 21  1  0
 16 15  2  0
 18 17  1  1
 19 18  1  0
 20 21  1  6
 20 22  1  0
 20 18  1  0
 22 24  1  0
 23 22  2  0
M  END
$$$$
