EPT.pdb
     RDKit          3D

 24 24  0  0  1  0  0  0  0  0999 V2000
   19.8167  -11.7971  -18.3684 N   0  0  0  0  0  0  0  0  0  0  0  0
   21.0777  -11.2597  -17.8477 C   0  0  1  0  0  0  0  0  0  0  0  0
   21.8222  -10.7297  -19.0318 C   0  0  0  0  0  0  0  0  0  0  0  0
   22.1598  -11.7645  -20.0708 C   0  0  0  0  0  0  0  0  0  0  0  0
   22.9616  -11.2644  -21.1895 C   0  0  0  0  0  0  0  0  0  0  0  0
   22.6610  -10.3719  -21.9986 O   0  0  0  0  0  0  0  0  0  0  0  0
   20.8656  -10.2954  -16.7570 C   0  0  0  0  0  0  0  0  0  0  0  0
   20.0128   -9.3926  -16.9082 O   0  0  0  0  0  0  0  0  0  0  0  0
   24.2218  -11.8565  -21.3797 O   0  0  0  0  0  0  0  0  0  0  0  0
   21.5660  -10.3025  -15.5123 N   0  0  0  0  0  0  0  0  0  0  0  0
   22.3182  -11.4729  -15.0935 C   0  0  0  0  0  0  0  0  0  0  0  0
   22.7865  -11.1796  -13.6822 C   0  0  0  0  0  0  0  0  0  0  0  0
   22.9138   -9.6816  -13.7373 C   0  0  0  0  0  0  0  0  0  0  0  0
   21.6693   -9.3059  -14.5079 C   0  0  1  0  0  0  0  0  0  0  0  0
   21.8293   -7.9188  -14.9692 C   0  0  0  0  0  0  0  0  0  0  0  0
   22.3554   -7.5123  -16.0082 O   0  0  0  0  0  0  0  0  0  0  0  0
   20.2454   -3.3304  -14.5521 C   0  0  0  0  0  0  0  0  0  0  0  0
   20.0541   -4.8050  -14.2920 C   0  0  1  0  0  0  0  0  0  0  0  0
   19.1050   -5.3095  -15.1798 O   0  0  0  0  0  0  0  0  0  0  0  0
   21.3932   -5.5049  -14.4464 C   0  0  2  0  0  0  0  0  0  0  0  0
   21.3014   -6.9052  -14.0906 N   0  0  0  0  0  0  0  0  0  0  0  0
   22.3331   -4.8535  -13.5064 C   0  0  0  0  0  0  0  0  0  0  0  0
   22.3796   -5.1483  -12.2796 O   0  0  0  0  0  0  0  0  0  0  0  0
   23.2048   -3.8809  -13.9646 O   0  0  0  0  0  0  0  0  0  0  0  0
  2  1  1  6
  2  3  1  0
  3  4  1  0
  4  5  1  0
  5  9  1  0
  6  5  2  0
  7  2  1  0
  7 10  1  0
  8  7  2  0
 10 14  1  0
 11 10  1  0
 11 12  1  0
 12 13  1  0
 14 13  1  0
 14 15  1  6
 15 21  1  0
 16 15  2  0
 18 17  1  6
 19 18  1  0
 20 21  1  1
 20 22  1  0
 20 18  1  0
 22 24  1  0
 23 22  2  0
M  END
$$$$
