AGP.pdb
     RDKit          3D

 17 17  0  0  1  0  0  0  0  0999 V2000
    8.8988  -16.0166   19.2386 C   0  0  0  0  0  0  0  0  0  0  0  0
    8.9199  -16.4809   20.6739 C   0  0  2  0  0  0  0  0  0  0  0  0
    8.1306  -17.6658   20.8164 N   0  0  0  0  0  0  0  0  0  0  0  0
    8.4223  -15.3758   21.5685 C   0  0  0  0  0  0  0  0  0  0  0  0
    9.0495  -14.2978   21.6252 O   0  0  0  0  0  0  0  0  0  0  0  0
    7.2548  -15.5254   22.3530 N   0  0  0  0  0  0  0  0  0  0  0  0
    6.7223  -14.4583   23.2042 C   0  0  0  0  0  0  0  0  0  0  0  0
    7.5102  -14.2913   24.4277 C   0  0  0  0  0  0  0  0  0  0  0  0
    8.3553  -15.2610   24.6312 O   0  0  0  0  0  0  0  0  0  0  0  0
    7.4914  -13.2781   25.3816 N   0  0  0  0  0  0  0  0  0  0  0  0
    6.8570  -11.9466   25.0114 C   0  0  0  0  0  0  0  0  0  0  0  0
    6.2046  -11.4762   26.2788 C   0  0  0  0  0  0  0  0  0  0  0  0
    6.5519  -12.5260   27.3025 C   0  0  0  0  0  0  0  0  0  0  0  0
    7.9070  -13.0102   26.7029 C   0  0  1  0  0  0  0  0  0  0  0  0
    8.4538  -13.9985   27.5796 C   0  0  0  0  0  0  0  0  0  0  0  0
    9.5448  -13.6417   28.2009 O   0  0  0  0  0  0  0  0  0  0  0  0
    8.0543  -15.2661   27.9029 O   0  0  0  0  0  0  0  0  0  0  0  0
  2  1  1  6
  2  3  1  0
  4  2  1  0
  4  5  2  0
  6  4  1  0
  7  6  1  0
  8  9  2  0
  8  7  1  0
 10  8  1  0
 11 12  1  0
 11 10  1  0
 13 14  1  0
 13 12  1  0
 14 10  1  0
 14 15  1  1
 15 17  1  0
 16 15  2  0
M  END
$$$$
