AGP.pdb
     RDKit          3D

 17 17  0  0  1  0  0  0  0  0999 V2000
    7.7582  -12.8748   18.8532 C   0  0  0  0  0  0  0  0  0  0  0  0
    8.3477  -13.8113   19.8787 C   0  0  2  0  0  0  0  0  0  0  0  0
    8.1383  -15.1691   19.4788 N   0  0  0  0  0  0  0  0  0  0  0  0
    7.7356  -13.5325   21.2266 C   0  0  0  0  0  0  0  0  0  0  0  0
    7.8799  -12.4081   21.7495 O   0  0  0  0  0  0  0  0  0  0  0  0
    6.9956  -14.5165   21.9231 N   0  0  0  0  0  0  0  0  0  0  0  0
    6.3673  -14.2715   23.2239 C   0  0  0  0  0  0  0  0  0  0  0  0
    7.3610  -14.0569   24.2784 C   0  0  0  0  0  0  0  0  0  0  0  0
    8.4042  -14.8283   24.1664 O   0  0  0  0  0  0  0  0  0  0  0  0
    7.3576  -13.1753   25.3553 N   0  0  0  0  0  0  0  0  0  0  0  0
    6.6281  -11.8497   25.2037 C   0  0  0  0  0  0  0  0  0  0  0  0
    6.0452  -11.5844   26.5614 C   0  0  0  0  0  0  0  0  0  0  0  0
    6.5212  -12.7315   27.4148 C   0  0  0  0  0  0  0  0  0  0  0  0
    7.8530  -13.0511   26.6704 C   0  0  1  0  0  0  0  0  0  0  0  0
    8.5138  -14.1063   27.3735 C   0  0  0  0  0  0  0  0  0  0  0  0
    8.0287  -15.2991   27.1607 O   0  0  0  0  0  0  0  0  0  0  0  0
    9.5719  -14.1150   28.2402 O   0  0  0  0  0  0  0  0  0  0  0  0
  2  1  1  6
  2  3  1  0
  4  2  1  0
  4  5  2  0
  6  4  1  0
  7  6  1  0
  8  9  2  0
  8  7  1  0
 10  8  1  0
 11 12  1  0
 11 10  1  0
 13 14  1  0
 13 12  1  0
 14 10  1  0
 14 15  1  1
 15 17  1  0
 16 15  2  0
M  END
$$$$
