AGP.pdb
     RDKit          3D

 17 17  0  0  1  0  0  0  0  0999 V2000
    8.3905  -12.3958   20.0921 C   0  0  0  0  0  0  0  0  0  0  0  0
    8.0982  -13.8760   20.0895 C   0  0  2  0  0  0  0  0  0  0  0  0
    7.2085  -14.1970   19.0159 N   0  0  0  0  0  0  0  0  0  0  0  0
    7.5225  -14.2784   21.4221 C   0  0  0  0  0  0  0  0  0  0  0  0
    6.3016  -14.5207   21.5192 O   0  0  0  0  0  0  0  0  0  0  0  0
    8.3321  -14.3905   22.5766 N   0  0  0  0  0  0  0  0  0  0  0  0
    7.8352  -14.9106   23.8531 C   0  0  0  0  0  0  0  0  0  0  0  0
    8.8956  -14.9898   24.8603 C   0  0  0  0  0  0  0  0  0  0  0  0
    9.7883  -15.9005   24.5964 O   0  0  0  0  0  0  0  0  0  0  0  0
    9.0875  -14.2571   26.0280 N   0  0  0  0  0  0  0  0  0  0  0  0
    8.5720  -12.8275   26.0787 C   0  0  0  0  0  0  0  0  0  0  0  0
    8.1085  -12.6453   27.4947 C   0  0  0  0  0  0  0  0  0  0  0  0
    8.4381  -13.9476   28.1775 C   0  0  0  0  0  0  0  0  0  0  0  0
    9.6624  -14.3724   27.3111 C   0  0  1  0  0  0  0  0  0  0  0  0
   10.1812  -15.5943   27.8424 C   0  0  0  0  0  0  0  0  0  0  0  0
   11.2576  -15.4666   28.5695 O   0  0  0  0  0  0  0  0  0  0  0  0
    9.7669  -16.8937   27.7388 O   0  0  0  0  0  0  0  0  0  0  0  0
  2  1  1  1
  2  3  1  0
  4  2  1  0
  4  5  2  0
  6  4  1  0
  7  6  1  0
  8  9  2  0
  8  7  1  0
 10  8  1  0
 11 12  1  0
 11 10  1  0
 13 14  1  0
 13 12  1  0
 14 10  1  0
 14 15  1  1
 15 17  1  0
 16 15  2  0
M  END
$$$$
