AGP.pdb
     RDKit          3D

 17 17  0  0  1  0  0  0  0  0999 V2000
    8.3608  -18.0958   21.0568 C   0  0  0  0  0  0  0  0  0  0  0  0
    8.3986  -16.6874   20.5172 C   0  0  2  0  0  0  0  0  0  0  0  0
    9.7417  -16.1943   20.5306 N   0  0  0  0  0  0  0  0  0  0  0  0
    7.4812  -15.8115   21.3299 C   0  0  0  0  0  0  0  0  0  0  0  0
    6.2713  -16.1046   21.4243 O   0  0  0  0  0  0  0  0  0  0  0  0
    7.9552  -14.6565   21.9950 N   0  0  0  0  0  0  0  0  0  0  0  0
    7.1592  -13.9186   22.9792 C   0  0  0  0  0  0  0  0  0  0  0  0
    7.8248  -13.8546   24.2824 C   0  0  0  0  0  0  0  0  0  0  0  0
    8.8270  -14.6793   24.3888 O   0  0  0  0  0  0  0  0  0  0  0  0
    7.5537  -13.0653   25.3962 N   0  0  0  0  0  0  0  0  0  0  0  0
    6.8318  -11.7432   25.1884 C   0  0  0  0  0  0  0  0  0  0  0  0
    5.9544  -11.6001   26.3979 C   0  0  0  0  0  0  0  0  0  0  0  0
    6.2679  -12.8063   27.2449 C   0  0  0  0  0  0  0  0  0  0  0  0
    7.7414  -13.0426   26.7943 C   0  0  1  0  0  0  0  0  0  0  0  0
    8.2652  -14.1420   27.5435 C   0  0  0  0  0  0  0  0  0  0  0  0
    7.8772  -15.3204   27.1381 O   0  0  0  0  0  0  0  0  0  0  0  0
    9.1070  -14.2061   28.6196 O   0  0  0  0  0  0  0  0  0  0  0  0
  2  1  1  1
  2  3  1  0
  4  2  1  0
  4  5  2  0
  6  4  1  0
  7  6  1  0
  8  9  2  0
  8  7  1  0
 10  8  1  0
 11 12  1  0
 11 10  1  0
 13 14  1  0
 13 12  1  0
 14 10  1  0
 14 15  1  1
 15 17  1  0
 16 15  2  0
M  END
$$$$
