AGP.pdb
     RDKit          3D

 17 17  0  0  1  0  0  0  0  0999 V2000
    8.6623  -16.4645   19.5033 C   0  0  0  0  0  0  0  0  0  0  0  0
    8.9376  -16.6733   20.9719 C   0  0  2  0  0  0  0  0  0  0  0  0
    8.4978  -17.9749   21.3718 N   0  0  0  0  0  0  0  0  0  0  0  0
    8.2582  -15.5919   21.7708 C   0  0  0  0  0  0  0  0  0  0  0  0
    8.5775  -14.3985   21.5908 O   0  0  0  0  0  0  0  0  0  0  0  0
    7.2602  -15.8922   22.7272 N   0  0  0  0  0  0  0  0  0  0  0  0
    6.6621  -14.8803   23.6020 C   0  0  0  0  0  0  0  0  0  0  0  0
    7.5597  -14.5060   24.6973 C   0  0  0  0  0  0  0  0  0  0  0  0
    8.5190  -15.3648   24.8921 O   0  0  0  0  0  0  0  0  0  0  0  0
    7.5416  -13.3987   25.5402 N   0  0  0  0  0  0  0  0  0  0  0  0
    6.7713  -12.1644   25.0979 C   0  0  0  0  0  0  0  0  0  0  0  0
    6.1953  -11.6065   26.3669 C   0  0  0  0  0  0  0  0  0  0  0  0
    6.7145  -12.5107   27.4548 C   0  0  0  0  0  0  0  0  0  0  0  0
    8.0472  -12.9591   26.7818 C   0  0  1  0  0  0  0  0  0  0  0  0
    8.7467  -13.8042   27.6989 C   0  0  0  0  0  0  0  0  0  0  0  0
    9.9562  -13.4139   27.9958 O   0  0  0  0  0  0  0  0  0  0  0  0
    8.3946  -14.9607   28.3385 O   0  0  0  0  0  0  0  0  0  0  0  0
  2  1  1  6
  2  3  1  0
  4  2  1  0
  4  5  2  0
  6  4  1  0
  7  6  1  0
  8  9  2  0
  8  7  1  0
 10  8  1  0
 11 12  1  0
 11 10  1  0
 13 14  1  0
 13 12  1  0
 14 10  1  0
 14 15  1  1
 15 17  1  0
 16 15  2  0
M  END
$$$$
