AGP.pdb
     RDKit          3D

 17 17  0  0  1  0  0  0  0  0999 V2000
    7.5604  -13.2005   20.0398 C   0  0  0  0  0  0  0  0  0  0  0  0
    8.4396  -14.1563   20.8078 C   0  0  2  0  0  0  0  0  0  0  0  0
    8.0939  -15.5065   20.4841 N   0  0  0  0  0  0  0  0  0  0  0  0
    8.3034  -13.8908   22.2843 C   0  0  0  0  0  0  0  0  0  0  0  0
    8.6173  -12.7725   22.7419 O   0  0  0  0  0  0  0  0  0  0  0  0
    7.8261  -14.8806   23.1750 N   0  0  0  0  0  0  0  0  0  0  0  0
    7.7099  -14.6658   24.6197 C   0  0  0  0  0  0  0  0  0  0  0  0
    8.8471  -15.2318   25.3490 C   0  0  0  0  0  0  0  0  0  0  0  0
    9.3061  -16.3275   24.8155 O   0  0  0  0  0  0  0  0  0  0  0  0
    9.4942  -14.7862   26.4978 N   0  0  0  0  0  0  0  0  0  0  0  0
    9.3784  -13.3165   26.8703 C   0  0  0  0  0  0  0  0  0  0  0  0
    9.3351  -13.3115   28.3708 C   0  0  0  0  0  0  0  0  0  0  0  0
    9.4877  -14.7581   28.7644 C   0  0  0  0  0  0  0  0  0  0  0  0
   10.3181  -15.2555   27.5425 C   0  0  1  0  0  0  0  0  0  0  0  0
   10.6309  -16.6353   27.7489 C   0  0  0  0  0  0  0  0  0  0  0  0
   11.8886  -16.8853   27.9923 O   0  0  0  0  0  0  0  0  0  0  0  0
    9.8610  -17.7658   27.7420 O   0  0  0  0  0  0  0  0  0  0  0  0
  2  1  1  6
  2  3  1  0
  4  2  1  0
  4  5  2  0
  6  4  1  0
  7  6  1  0
  8  9  2  0
  8  7  1  0
 10  8  1  0
 11 12  1  0
 11 10  1  0
 13 14  1  0
 13 12  1  0
 14 10  1  0
 14 15  1  1
 15 17  1  0
 16 15  2  0
M  END
$$$$
