AGP.pdb
     RDKit          3D

 17 17  0  0  1  0  0  0  0  0999 V2000
    7.7842  -12.7153   18.8953 C   0  0  0  0  0  0  0  0  0  0  0  0
    8.4291  -13.6840   19.8556 C   0  0  2  0  0  0  0  0  0  0  0  0
    8.2964  -15.0213   19.3641 N   0  0  0  0  0  0  0  0  0  0  0  0
    7.8057  -13.5329   21.2186 C   0  0  0  0  0  0  0  0  0  0  0  0
    7.9191  -12.4518   21.8328 O   0  0  0  0  0  0  0  0  0  0  0  0
    7.0895  -14.5895   21.8280 N   0  0  0  0  0  0  0  0  0  0  0  0
    6.5074  -14.4906   23.1690 C   0  0  0  0  0  0  0  0  0  0  0  0
    7.5310  -14.2736   24.1939 C   0  0  0  0  0  0  0  0  0  0  0  0
    8.5710  -15.0447   24.0532 O   0  0  0  0  0  0  0  0  0  0  0  0
    7.5584  -13.3900   25.2689 N   0  0  0  0  0  0  0  0  0  0  0  0
    6.8987  -12.0297   25.1051 C   0  0  0  0  0  0  0  0  0  0  0  0
    6.3126  -11.7316   26.4545 C   0  0  0  0  0  0  0  0  0  0  0  0
    6.7192  -12.8989   27.3165 C   0  0  0  0  0  0  0  0  0  0  0  0
    8.0426  -13.2873   26.5900 C   0  0  1  0  0  0  0  0  0  0  0  0
    8.6401  -14.3726   27.3038 C   0  0  0  0  0  0  0  0  0  0  0  0
    8.0999  -15.5405   27.0852 O   0  0  0  0  0  0  0  0  0  0  0  0
    9.6838  -14.4320   28.1858 O   0  0  0  0  0  0  0  0  0  0  0  0
  2  1  1  6
  2  3  1  0
  4  2  1  0
  4  5  2  0
  6  4  1  0
  7  6  1  0
  8  9  2  0
  8  7  1  0
 10  8  1  0
 11 12  1  0
 11 10  1  0
 13 14  1  0
 13 12  1  0
 14 10  1  0
 14 15  1  1
 15 17  1  0
 16 15  2  0
M  END
$$$$
