AGP.pdb
     RDKit          3D

 17 17  0  0  1  0  0  0  0  0999 V2000
    7.7854  -12.6731   18.8240 C   0  0  0  0  0  0  0  0  0  0  0  0
    8.2960  -13.7501   19.7490 C   0  0  2  0  0  0  0  0  0  0  0  0
    7.8934  -15.0371   19.2706 N   0  0  0  0  0  0  0  0  0  0  0  0
    7.7897  -13.4973   21.1450 C   0  0  0  0  0  0  0  0  0  0  0  0
    8.1623  -12.4776   21.7616 O   0  0  0  0  0  0  0  0  0  0  0  0
    6.8965  -14.3894   21.7830 N   0  0  0  0  0  0  0  0  0  0  0  0
    6.2675  -14.1022   23.0748 C   0  0  0  0  0  0  0  0  0  0  0  0
    7.2518  -14.0292   24.1571 C   0  0  0  0  0  0  0  0  0  0  0  0
    8.1959  -14.9202   24.0544 O   0  0  0  0  0  0  0  0  0  0  0  0
    7.3275  -13.1726   25.2515 N   0  0  0  0  0  0  0  0  0  0  0  0
    6.7149  -11.7862   25.1297 C   0  0  0  0  0  0  0  0  0  0  0  0
    6.1607  -11.4992   26.4949 C   0  0  0  0  0  0  0  0  0  0  0  0
    6.5380  -12.7002   27.3231 C   0  0  0  0  0  0  0  0  0  0  0  0
    7.8353  -13.1184   26.5666 C   0  0  1  0  0  0  0  0  0  0  0  0
    8.4042  -14.2408   27.2455 C   0  0  0  0  0  0  0  0  0  0  0  0
    7.8497  -15.3901   26.9716 O   0  0  0  0  0  0  0  0  0  0  0  0
    9.4322  -14.3522   28.1409 O   0  0  0  0  0  0  0  0  0  0  0  0
  2  1  1  6
  2  3  1  0
  4  2  1  0
  4  5  2  0
  6  4  1  0
  7  6  1  0
  8  9  2  0
  8  7  1  0
 10  8  1  0
 11 12  1  0
 11 10  1  0
 13 14  1  0
 13 12  1  0
 14 10  1  0
 14 15  1  1
 15 17  1  0
 16 15  2  0
M  END
$$$$
