AGP.pdb
     RDKit          3D

 17 17  0  0  1  0  0  0  0  0999 V2000
    7.4948  -13.1698   20.2475 C   0  0  0  0  0  0  0  0  0  0  0  0
    8.2727  -14.3184   20.8409 C   0  0  2  0  0  0  0  0  0  0  0  0
    7.7529  -15.5616   20.3598 N   0  0  0  0  0  0  0  0  0  0  0  0
    8.2165  -14.2418   22.3443 C   0  0  0  0  0  0  0  0  0  0  0  0
    8.7143  -13.2588   22.9314 O   0  0  0  0  0  0  0  0  0  0  0  0
    7.6108  -15.2602   23.1168 N   0  0  0  0  0  0  0  0  0  0  0  0
    7.4264  -15.1599   24.5669 C   0  0  0  0  0  0  0  0  0  0  0  0
    8.6776  -15.3884   25.2935 C   0  0  0  0  0  0  0  0  0  0  0  0
    9.2996  -16.4694   24.9188 O   0  0  0  0  0  0  0  0  0  0  0  0
    9.2859  -14.6429   26.2991 N   0  0  0  0  0  0  0  0  0  0  0  0
    9.0153  -13.1477   26.3566 C   0  0  0  0  0  0  0  0  0  0  0  0
    8.9895  -12.8268   27.8228 C   0  0  0  0  0  0  0  0  0  0  0  0
    9.3031  -14.1320   28.5074 C   0  0  0  0  0  0  0  0  0  0  0  0
   10.1682  -14.7901   27.3901 C   0  0  1  0  0  0  0  0  0  0  0  0
   10.6316  -16.0540   27.8722 C   0  0  0  0  0  0  0  0  0  0  0  0
    9.7858  -17.0390   27.7386 O   0  0  0  0  0  0  0  0  0  0  0  0
   11.8056  -16.4434   28.4561 O   0  0  0  0  0  0  0  0  0  0  0  0
  2  1  1  6
  2  3  1  0
  4  2  1  0
  4  5  2  0
  6  4  1  0
  7  6  1  0
  8  9  2  0
  8  7  1  0
 10  8  1  0
 11 12  1  0
 11 10  1  0
 13 14  1  0
 13 12  1  0
 14 10  1  0
 14 15  1  1
 15 17  1  0
 16 15  2  0
M  END
$$$$
