AGP.pdb
     RDKit          3D

 17 17  0  0  1  0  0  0  0  0999 V2000
    7.8620  -12.9347   18.9201 C   0  0  0  0  0  0  0  0  0  0  0  0
    8.4850  -13.8367   19.9567 C   0  0  2  0  0  0  0  0  0  0  0  0
    8.3846  -15.2021   19.5408 N   0  0  0  0  0  0  0  0  0  0  0  0
    7.8139  -13.6144   21.2869 C   0  0  0  0  0  0  0  0  0  0  0  0
    7.8813  -12.4936   21.8327 O   0  0  0  0  0  0  0  0  0  0  0  0
    7.1035  -14.6479   21.9413 N   0  0  0  0  0  0  0  0  0  0  0  0
    6.4478  -14.4685   23.2392 C   0  0  0  0  0  0  0  0  0  0  0  0
    7.4157  -14.2218   24.3105 C   0  0  0  0  0  0  0  0  0  0  0  0
    8.4382  -15.0273   24.2750 O   0  0  0  0  0  0  0  0  0  0  0  0
    7.4067  -13.2800   25.3352 N   0  0  0  0  0  0  0  0  0  0  0  0
    6.6550  -11.9767   25.1143 C   0  0  0  0  0  0  0  0  0  0  0  0
    6.0787  -11.6430   26.4596 C   0  0  0  0  0  0  0  0  0  0  0  0
    6.5797  -12.7316   27.3731 C   0  0  0  0  0  0  0  0  0  0  0  0
    7.9105  -13.0728   26.6366 C   0  0  1  0  0  0  0  0  0  0  0  0
    8.5935  -14.0756   27.3931 C   0  0  0  0  0  0  0  0  0  0  0  0
    9.6503  -13.6579   28.0350 O   0  0  0  0  0  0  0  0  0  0  0  0
    8.3558  -15.4093   27.5815 O   0  0  0  0  0  0  0  0  0  0  0  0
  2  1  1  6
  2  3  1  0
  4  2  1  0
  4  5  2  0
  6  4  1  0
  7  6  1  0
  8  9  2  0
  8  7  1  0
 10  8  1  0
 11 12  1  0
 11 10  1  0
 13 14  1  0
 13 12  1  0
 14 10  1  0
 14 15  1  1
 15 17  1  0
 16 15  2  0
M  END
$$$$
