AGP.pdb
     RDKit          3D

 17 17  0  0  1  0  0  0  0  0999 V2000
    7.8701  -12.8359   18.8265 C   0  0  0  0  0  0  0  0  0  0  0  0
    8.3905  -13.8263   19.8388 C   0  0  2  0  0  0  0  0  0  0  0  0
    8.1002  -15.1606   19.4116 N   0  0  0  0  0  0  0  0  0  0  0  0
    7.7846  -13.5345   21.1868 C   0  0  0  0  0  0  0  0  0  0  0  0
    8.0184  -12.4428   21.7455 O   0  0  0  0  0  0  0  0  0  0  0  0
    6.9511  -14.4698   21.8435 N   0  0  0  0  0  0  0  0  0  0  0  0
    6.3080  -14.1998   23.1320 C   0  0  0  0  0  0  0  0  0  0  0  0
    7.2854  -14.0856   24.2169 C   0  0  0  0  0  0  0  0  0  0  0  0
    8.2595  -14.9449   24.1237 O   0  0  0  0  0  0  0  0  0  0  0  0
    7.3283  -13.2192   25.3052 N   0  0  0  0  0  0  0  0  0  0  0  0
    6.6484  -11.8648   25.1798 C   0  0  0  0  0  0  0  0  0  0  0  0
    6.0919  -11.5959   26.5477 C   0  0  0  0  0  0  0  0  0  0  0  0
    6.5335  -12.7717   27.3803 C   0  0  0  0  0  0  0  0  0  0  0  0
    7.8433  -13.1318   26.6158 C   0  0  1  0  0  0  0  0  0  0  0  0
    8.4713  -14.2209   27.2969 C   0  0  0  0  0  0  0  0  0  0  0  0
    7.8626  -15.3694   27.1793 O   0  0  0  0  0  0  0  0  0  0  0  0
    9.6030  -14.3004   28.0610 O   0  0  0  0  0  0  0  0  0  0  0  0
  2  1  1  6
  2  3  1  0
  4  2  1  0
  4  5  2  0
  6  4  1  0
  7  6  1  0
  8  9  2  0
  8  7  1  0
 10  8  1  0
 11 12  1  0
 11 10  1  0
 13 14  1  0
 13 12  1  0
 14 10  1  0
 14 15  1  1
 15 17  1  0
 16 15  2  0
M  END
$$$$
