AGP.pdb
     RDKit          3D

 17 17  0  0  1  0  0  0  0  0999 V2000
    7.7555  -12.2073   19.2802 C   0  0  0  0  0  0  0  0  0  0  0  0
    8.3797  -13.5344   19.6344 C   0  0  2  0  0  0  0  0  0  0  0  0
    8.4241  -14.3779   18.4794 N   0  0  0  0  0  0  0  0  0  0  0  0
    7.6022  -14.1741   20.7549 C   0  0  0  0  0  0  0  0  0  0  0  0
    7.1511  -15.3294   20.6123 O   0  0  0  0  0  0  0  0  0  0  0  0
    7.3663  -13.4976   21.9746 N   0  0  0  0  0  0  0  0  0  0  0  0
    6.7778  -14.1485   23.1480 C   0  0  0  0  0  0  0  0  0  0  0  0
    7.6584  -14.0685   24.3157 C   0  0  0  0  0  0  0  0  0  0  0  0
    8.6529  -14.9079   24.2681 O   0  0  0  0  0  0  0  0  0  0  0  0
    7.5933  -13.2514   25.4405 N   0  0  0  0  0  0  0  0  0  0  0  0
    6.8963  -11.9055   25.3184 C   0  0  0  0  0  0  0  0  0  0  0  0
    6.2242  -11.7087   26.6462 C   0  0  0  0  0  0  0  0  0  0  0  0
    6.6222  -12.9126   27.4605 C   0  0  0  0  0  0  0  0  0  0  0  0
    7.9977  -13.2137   26.7916 C   0  0  1  0  0  0  0  0  0  0  0  0
    8.5918  -14.3207   27.4742 C   0  0  0  0  0  0  0  0  0  0  0  0
    8.1215  -15.4915   27.1401 O   0  0  0  0  0  0  0  0  0  0  0  0
    9.5723  -14.3987   28.4247 O   0  0  0  0  0  0  0  0  0  0  0  0
  2  1  1  6
  2  3  1  0
  4  2  1  0
  4  5  2  0
  6  4  1  0
  7  6  1  0
  8  9  2  0
  8  7  1  0
 10  8  1  0
 11 12  1  0
 11 10  1  0
 13 14  1  0
 13 12  1  0
 14 10  1  0
 14 15  1  1
 15 17  1  0
 16 15  2  0
M  END
$$$$
