AGP.pdb
     RDKit          3D

 17 17  0  0  1  0  0  0  0  0999 V2000
    9.1855  -14.7205   19.5098 C   0  0  0  0  0  0  0  0  0  0  0  0
    8.0070  -13.7786   19.4905 C   0  0  2  0  0  0  0  0  0  0  0  0
    8.3184  -12.6215   18.7084 N   0  0  0  0  0  0  0  0  0  0  0  0
    7.6360  -13.4066   20.9023 C   0  0  0  0  0  0  0  0  0  0  0  0
    8.1776  -12.4204   21.4435 O   0  0  0  0  0  0  0  0  0  0  0  0
    6.6836  -14.1488   21.6391 N   0  0  0  0  0  0  0  0  0  0  0  0
    6.1614  -13.7127   22.9367 C   0  0  0  0  0  0  0  0  0  0  0  0
    7.1627  -13.8381   23.9984 C   0  0  0  0  0  0  0  0  0  0  0  0
    8.0156  -14.7998   23.7896 O   0  0  0  0  0  0  0  0  0  0  0  0
    7.3349  -13.1030   25.1675 N   0  0  0  0  0  0  0  0  0  0  0  0
    6.7769  -11.6895   25.2230 C   0  0  0  0  0  0  0  0  0  0  0  0
    6.3111  -11.5250   26.6405 C   0  0  0  0  0  0  0  0  0  0  0  0
    6.6809  -12.8186   27.3191 C   0  0  0  0  0  0  0  0  0  0  0  0
    7.9157  -13.2043   26.4493 C   0  0  1  0  0  0  0  0  0  0  0  0
    8.4719  -14.4114   26.9763 C   0  0  0  0  0  0  0  0  0  0  0  0
    7.8545  -15.5047   26.6200 O   0  0  0  0  0  0  0  0  0  0  0  0
    9.5412  -14.6531   27.7942 O   0  0  0  0  0  0  0  0  0  0  0  0
  2  1  1  1
  2  3  1  0
  4  2  1  0
  4  5  2  0
  6  4  1  0
  7  6  1  0
  8  9  2  0
  8  7  1  0
 10  8  1  0
 11 12  1  0
 11 10  1  0
 13 14  1  0
 13 12  1  0
 14 10  1  0
 14 15  1  1
 15 17  1  0
 16 15  2  0
M  END
$$$$
