AGP.pdb
     RDKit          3D

 17 17  0  0  1  0  0  0  0  0999 V2000
    8.9737  -16.1952   19.2592 C   0  0  0  0  0  0  0  0  0  0  0  0
    9.0362  -16.5342   20.7281 C   0  0  2  0  0  0  0  0  0  0  0  0
    8.3418  -17.7603   20.9770 N   0  0  0  0  0  0  0  0  0  0  0  0
    8.4576  -15.3995   21.5323 C   0  0  0  0  0  0  0  0  0  0  0  0
    8.9720  -14.2644   21.4571 O   0  0  0  0  0  0  0  0  0  0  0  0
    7.3387  -15.5844   22.3777 N   0  0  0  0  0  0  0  0  0  0  0  0
    6.7812  -14.5152   23.2101 C   0  0  0  0  0  0  0  0  0  0  0  0
    7.5988  -14.2669   24.3997 C   0  0  0  0  0  0  0  0  0  0  0  0
    8.5084  -15.1775   24.5977 O   0  0  0  0  0  0  0  0  0  0  0  0
    7.5504  -13.2304   25.3274 N   0  0  0  0  0  0  0  0  0  0  0  0
    6.9131  -11.9144   24.9102 C   0  0  0  0  0  0  0  0  0  0  0  0
    6.2289  -11.4185   26.1509 C   0  0  0  0  0  0  0  0  0  0  0  0
    6.5624  -12.4394   27.2079 C   0  0  0  0  0  0  0  0  0  0  0  0
    7.9344  -12.9261   26.6504 C   0  0  1  0  0  0  0  0  0  0  0  0
    8.4701  -13.8874   27.5633 C   0  0  0  0  0  0  0  0  0  0  0  0
    9.4776  -13.4671   28.2785 O   0  0  0  0  0  0  0  0  0  0  0  0
    8.1310  -15.1830   27.8414 O   0  0  0  0  0  0  0  0  0  0  0  0
  2  1  1  6
  2  3  1  0
  4  2  1  0
  4  5  2  0
  6  4  1  0
  7  6  1  0
  8  9  2  0
  8  7  1  0
 10  8  1  0
 11 12  1  0
 11 10  1  0
 13 14  1  0
 13 12  1  0
 14 10  1  0
 14 15  1  1
 15 17  1  0
 16 15  2  0
M  END
$$$$
