EHA.pdb
     RDKit          3D

 25 25  0  0  1  0  0  0  0  0999 V2000
   24.4997  -12.4740  -16.4739 N   0  0  0  0  0  0  0  0  0  0  0  0
   24.9338  -11.0879  -16.2590 C   0  0  1  0  0  0  0  0  0  0  0  0
   26.3378  -11.0063  -16.7211 C   0  0  0  0  0  0  0  0  0  0  0  0
   27.2982  -11.9305  -16.0331 C   0  0  0  0  0  0  0  0  0  0  0  0
   28.6880  -11.6677  -16.4430 C   0  0  0  0  0  0  0  0  0  0  0  0
   29.1295  -10.4984  -16.5378 O   0  0  0  0  0  0  0  0  0  0  0  0
   23.9893  -10.1396  -16.8793 C   0  0  0  0  0  0  0  0  0  0  0  0
   23.4508  -10.3512  -17.9931 O   0  0  0  0  0  0  0  0  0  0  0  0
   29.5526  -12.7291  -16.7378 O   0  0  0  0  0  0  0  0  0  0  0  0
   23.6150   -8.9020  -16.2547 N   0  0  0  0  0  0  0  0  0  0  0  0
   22.5996   -8.0092  -16.7739 C   0  0  1  0  0  0  0  0  0  0  0  0
   21.2912   -8.7378  -16.9732 C   0  0  0  0  0  0  0  0  0  0  0  0
   20.2177   -7.8637  -17.4804 C   0  0  0  0  0  0  0  0  0  0  0  0
   20.3441   -6.5369  -17.8035 C   0  0  0  0  0  0  0  0  0  0  0  0
   19.1289   -6.1151  -18.2259 N   0  0  0  0  0  0  0  0  0  0  0  0
   18.2638   -7.1218  -18.1767 C   0  0  0  0  0  0  0  0  0  0  0  0
   18.9397   -8.1892  -17.7188 N   0  0  0  0  0  0  0  0  0  0  0  0
   22.5314   -6.8310  -15.9142 C   0  0  0  0  0  0  0  0  0  0  0  0
   22.3418   -6.9365  -14.6556 O   0  0  0  0  0  0  0  0  0  0  0  0
   22.9691   -3.1150  -16.3209 C   0  0  0  0  0  0  0  0  0  0  0  0
   22.6951   -4.3587  -15.4601 C   0  0  2  0  0  0  0  0  0  0  0  0
   22.6666   -5.4775  -16.3784 N   0  0  0  0  0  0  0  0  0  0  0  0
   21.3674   -4.2196  -14.8345 C   0  0  0  0  0  0  0  0  0  0  0  0
   20.3193   -4.6109  -15.4205 O   0  0  0  0  0  0  0  0  0  0  0  0
   21.2243   -3.6555  -13.5818 O   0  0  0  0  0  0  0  0  0  0  0  0
  2  1  1  6
  2  7  1  0
  3  2  1  0
  4  3  1  0
  4  5  1  0
  5  9  1  0
  5  6  2  0
  7  8  2  0
  7 10  1  0
 10 11  1  0
 11 18  1  0
 11 12  1  1
 13 12  1  0
 13 14  2  0
 15 14  1  0
 16 15  1  0
 17 16  2  0
 17 13  1  0
 18 19  2  0
 21 20  1  6
 22 21  1  0
 22 18  1  0
 23 21  1  0
 23 25  1  0
 24 23  2  0
M  END
$$$$
