EHA.pdb
     RDKit          3D

 25 25  0  0  1  0  0  0  0  0999 V2000
   28.7284  -37.4548   -9.3715 N   0  0  0  0  0  0  0  0  0  0  0  0
   28.8217  -37.7207   -7.9304 C   0  0  1  0  0  0  0  0  0  0  0  0
   29.5380  -39.0077   -7.7817 C   0  0  0  0  0  0  0  0  0  0  0  0
   28.7950  -40.2188   -8.2625 C   0  0  0  0  0  0  0  0  0  0  0  0
   27.8590  -40.7186   -7.2415 C   0  0  0  0  0  0  0  0  0  0  0  0
   28.0801  -40.5547   -6.0186 O   0  0  0  0  0  0  0  0  0  0  0  0
   29.4047  -36.5667   -7.2202 C   0  0  0  0  0  0  0  0  0  0  0  0
   30.0237  -35.6493   -7.8124 O   0  0  0  0  0  0  0  0  0  0  0  0
   26.6916  -41.3933   -7.6198 O   0  0  0  0  0  0  0  0  0  0  0  0
   29.3077  -36.4063   -5.7965 N   0  0  0  0  0  0  0  0  0  0  0  0
   29.9137  -35.3144   -5.0629 C   0  0  1  0  0  0  0  0  0  0  0  0
   29.4745  -33.9806   -5.6199 C   0  0  0  0  0  0  0  0  0  0  0  0
   28.0137  -33.7884   -5.5676 C   0  0  0  0  0  0  0  0  0  0  0  0
   27.0935  -34.7156   -5.1500 C   0  0  0  0  0  0  0  0  0  0  0  0
   25.8734  -34.1389   -5.2587 N   0  0  0  0  0  0  0  0  0  0  0  0
   26.0032  -32.9014   -5.7235 C   0  0  0  0  0  0  0  0  0  0  0  0
   27.3180  -32.6953   -5.9098 N   0  0  0  0  0  0  0  0  0  0  0  0
   29.6559  -35.5099   -3.6391 C   0  0  0  0  0  0  0  0  0  0  0  0
   28.5063  -35.8701   -3.2151 O   0  0  0  0  0  0  0  0  0  0  0  0
   31.6133  -35.2693   -0.4316 C   0  0  0  0  0  0  0  0  0  0  0  0
   30.3193  -35.5572   -1.2095 C   0  0  2  0  0  0  0  0  0  0  0  0
   30.6347  -35.3247   -2.6032 N   0  0  0  0  0  0  0  0  0  0  0  0
   29.2866  -34.5941   -0.7858 C   0  0  0  0  0  0  0  0  0  0  0  0
   28.9572  -33.6180   -1.5166 O   0  0  0  0  0  0  0  0  0  0  0  0
   28.6417  -34.7271    0.4284 O   0  0  0  0  0  0  0  0  0  0  0  0
  2  1  1  6
  2  7  1  0
  3  2  1  0
  4  3  1  0
  4  5  1  0
  5  9  1  0
  5  6  2  0
  7  8  2  0
  7 10  1  0
 10 11  1  0
 11 18  1  0
 11 12  1  6
 13 12  1  0
 13 14  2  0
 15 14  1  0
 16 15  1  0
 17 16  2  0
 17 13  1  0
 18 19  2  0
 21 20  1  1
 22 21  1  0
 22 18  1  0
 23 21  1  0
 23 25  1  0
 24 23  2  0
M  END
$$$$
