EHA.pdb
     RDKit          3D

 25 25  0  0  1  0  0  0  0  0999 V2000
   14.9816  -18.4896    2.6547 N   0  0  0  0  0  0  0  0  0  0  0  0
   15.6321  -19.4959    3.5034 C   0  0  1  0  0  0  0  0  0  0  0  0
   15.6745  -20.7500    2.7181 C   0  0  0  0  0  0  0  0  0  0  0  0
   14.3525  -21.4289    2.5145 C   0  0  0  0  0  0  0  0  0  0  0  0
   14.4964  -22.6671    1.7307 C   0  0  0  0  0  0  0  0  0  0  0  0
   14.9687  -23.7102    2.2407 O   0  0  0  0  0  0  0  0  0  0  0  0
   16.9270  -19.0004    4.0071 C   0  0  0  0  0  0  0  0  0  0  0  0
   17.9780  -19.0345    3.3218 O   0  0  0  0  0  0  0  0  0  0  0  0
   14.1045  -22.7048    0.3868 O   0  0  0  0  0  0  0  0  0  0  0  0
   17.0823  -18.4413    5.3205 N   0  0  0  0  0  0  0  0  0  0  0  0
   18.3345  -17.9304    5.8388 C   0  0  1  0  0  0  0  0  0  0  0  0
   18.1511  -16.5535    6.4327 C   0  0  0  0  0  0  0  0  0  0  0  0
   18.2258  -15.4785    5.4266 C   0  0  0  0  0  0  0  0  0  0  0  0
   18.4636  -15.6446    4.0862 C   0  0  0  0  0  0  0  0  0  0  0  0
   18.4500  -14.4120    3.5262 N   0  0  0  0  0  0  0  0  0  0  0  0
   18.2148  -13.4983    4.4612 C   0  0  0  0  0  0  0  0  0  0  0  0
   18.0787  -14.1609    5.6224 N   0  0  0  0  0  0  0  0  0  0  0  0
   18.9065  -18.9263    6.7404 C   0  0  0  0  0  0  0  0  0  0  0  0
   18.1859  -19.5356    7.6010 O   0  0  0  0  0  0  0  0  0  0  0  0
   22.1540  -20.7415    7.1541 C   0  0  0  0  0  0  0  0  0  0  0  0
   20.8077  -20.2588    7.7175 C   0  0  2  0  0  0  0  0  0  0  0  0
   20.2910  -19.3116    6.7524 N   0  0  0  0  0  0  0  0  0  0  0  0
   21.0505  -19.5586    8.9920 C   0  0  0  0  0  0  0  0  0  0  0  0
   21.0838  -18.2976    9.0544 O   0  0  0  0  0  0  0  0  0  0  0  0
   21.2497  -20.2601   10.1651 O   0  0  0  0  0  0  0  0  0  0  0  0
  2  1  1  6
  2  7  1  0
  3  2  1  0
  4  3  1  0
  4  5  1  0
  5  9  1  0
  5  6  2  0
  7  8  2  0
  7 10  1  0
 10 11  1  0
 11 18  1  0
 11 12  1  1
 13 12  1  0
 13 14  2  0
 15 14  1  0
 16 15  1  0
 17 16  2  0
 17 13  1  0
 18 19  2  0
 21 20  1  6
 22 21  1  0
 22 18  1  0
 23 21  1  0
 23 25  1  0
 24 23  2  0
M  END
$$$$
