EHA.pdb
     RDKit          3D

 25 25  0  0  1  0  0  0  0  0999 V2000
   27.0914  -32.8903   -3.5497 N   0  0  0  0  0  0  0  0  0  0  0  0
   26.3393  -34.1513   -3.5403 C   0  0  1  0  0  0  0  0  0  0  0  0
   27.0613  -35.0829   -4.4358 C   0  0  0  0  0  0  0  0  0  0  0  0
   28.1127  -34.4582   -5.3044 C   0  0  0  0  0  0  0  0  0  0  0  0
   28.6014  -35.4018   -6.3239 C   0  0  0  0  0  0  0  0  0  0  0  0
   28.1427  -36.5652   -6.4084 O   0  0  0  0  0  0  0  0  0  0  0  0
   26.1160  -34.6193   -2.1592 C   0  0  0  0  0  0  0  0  0  0  0  0
   25.4403  -35.6427   -1.8920 O   0  0  0  0  0  0  0  0  0  0  0  0
   29.5978  -35.0144   -7.2284 O   0  0  0  0  0  0  0  0  0  0  0  0
   26.6557  -33.9384   -1.0160 N   0  0  0  0  0  0  0  0  0  0  0  0
   26.5334  -34.4205    0.3442 C   0  0  1  0  0  0  0  0  0  0  0  0
   27.8122  -35.0843    0.7984 C   0  0  0  0  0  0  0  0  0  0  0  0
   27.7300  -36.5563    0.7913 C   0  0  0  0  0  0  0  0  0  0  0  0
   26.6210  -37.2999    0.4786 C   0  0  0  0  0  0  0  0  0  0  0  0
   26.9722  -38.6023    0.5947 N   0  0  0  0  0  0  0  0  0  0  0  0
   28.2450  -38.6913    0.9640 C   0  0  0  0  0  0  0  0  0  0  0  0
   28.7013  -37.4328    1.0821 N   0  0  0  0  0  0  0  0  0  0  0  0
   26.0679  -33.3232    1.1874 C   0  0  0  0  0  0  0  0  0  0  0  0
   26.7066  -32.2191    1.2542 O   0  0  0  0  0  0  0  0  0  0  0  0
   22.9424  -32.4838    3.0605 C   0  0  0  0  0  0  0  0  0  0  0  0
   24.4185  -32.2092    2.7314 C   0  0  2  0  0  0  0  0  0  0  0  0
   24.8839  -33.3691    2.0008 N   0  0  0  0  0  0  0  0  0  0  0  0
   25.1743  -32.1037    3.9928 C   0  0  0  0  0  0  0  0  0  0  0  0
   25.0234  -31.1198    4.7703 O   0  0  0  0  0  0  0  0  0  0  0  0
   26.0754  -33.0806    4.3689 O   0  0  0  0  0  0  0  0  0  0  0  0
  2  1  1  1
  2  7  1  0
  3  2  1  0
  4  3  1  0
  4  5  1  0
  5  9  1  0
  5  6  2  0
  7  8  2  0
  7 10  1  0
 10 11  1  0
 11 18  1  0
 11 12  1  1
 13 12  1  0
 13 14  2  0
 15 14  1  0
 16 15  1  0
 17 16  2  0
 17 13  1  0
 18 19  2  0
 21 20  1  1
 22 21  1  0
 22 18  1  0
 23 21  1  0
 23 25  1  0
 24 23  2  0
M  END
$$$$
