EHA.pdb
     RDKit          3D

 25 25  0  0  1  0  0  0  0  0999 V2000
   18.7972  -13.4650  -17.4386 N   0  0  0  0  0  0  0  0  0  0  0  0
   19.6071  -13.4079  -16.2151 C   0  0  1  0  0  0  0  0  0  0  0  0
   20.3402  -14.6912  -16.1312 C   0  0  0  0  0  0  0  0  0  0  0  0
   19.4866  -15.9113  -15.9507 C   0  0  0  0  0  0  0  0  0  0  0  0
   20.2846  -17.1460  -16.0352 C   0  0  0  0  0  0  0  0  0  0  0  0
   21.5305  -17.1089  -16.1682 O   0  0  0  0  0  0  0  0  0  0  0  0
   20.4320  -12.1852  -16.1880 C   0  0  0  0  0  0  0  0  0  0  0  0
   21.1709  -11.8883  -15.2178 O   0  0  0  0  0  0  0  0  0  0  0  0
   19.6619  -18.3984  -15.9679 O   0  0  0  0  0  0  0  0  0  0  0  0
   20.4514  -11.2421  -17.2706 N   0  0  0  0  0  0  0  0  0  0  0  0
   21.3511  -10.1093  -17.3398 C   0  0  1  0  0  0  0  0  0  0  0  0
   21.7259   -9.8046  -18.7712 C   0  0  0  0  0  0  0  0  0  0  0  0
   22.7496  -10.7213  -19.3053 C   0  0  0  0  0  0  0  0  0  0  0  0
   23.4240  -11.6792  -18.5924 C   0  0  0  0  0  0  0  0  0  0  0  0
   24.2671  -12.2941  -19.4551 N   0  0  0  0  0  0  0  0  0  0  0  0
   24.1406  -11.7574  -20.6635 C   0  0  0  0  0  0  0  0  0  0  0  0
   23.2086  -10.7945  -20.5623 N   0  0  0  0  0  0  0  0  0  0  0  0
   20.7585   -8.9979  -16.6013 C   0  0  0  0  0  0  0  0  0  0  0  0
   19.5767   -8.5857  -16.8556 O   0  0  0  0  0  0  0  0  0  0  0  0
   21.3095   -7.2794  -13.3873 C   0  0  0  0  0  0  0  0  0  0  0  0
   20.7563   -7.2167  -14.8201 C   0  0  2  0  0  0  0  0  0  0  0  0
   21.4198   -8.2778  -15.5478 N   0  0  0  0  0  0  0  0  0  0  0  0
   21.1303   -5.9214  -15.4168 C   0  0  0  0  0  0  0  0  0  0  0  0
   20.6146   -4.8395  -15.0181 O   0  0  0  0  0  0  0  0  0  0  0  0
   22.0608   -5.8466  -16.4349 O   0  0  0  0  0  0  0  0  0  0  0  0
  2  1  1  6
  2  7  1  0
  3  2  1  0
  4  3  1  0
  4  5  1  0
  5  9  1  0
  5  6  2  0
  7  8  2  0
  7 10  1  0
 10 11  1  0
 11 18  1  0
 11 12  1  6
 13 12  1  0
 13 14  2  0
 15 14  1  0
 16 15  1  0
 17 16  2  0
 17 13  1  0
 18 19  2  0
 21 20  1  1
 22 21  1  0
 22 18  1  0
 23 21  1  0
 23 25  1  0
 24 23  2  0
M  END
$$$$
