EHA.pdb
     RDKit          3D

 25 25  0  0  1  0  0  0  0  0999 V2000
   19.5201  -13.3434  -17.3165 N   0  0  0  0  0  0  0  0  0  0  0  0
   18.8088  -12.0789  -17.0907 C   0  0  1  0  0  0  0  0  0  0  0  0
   18.1045  -12.2134  -15.7957 C   0  0  0  0  0  0  0  0  0  0  0  0
   17.0086  -13.2370  -15.7606 C   0  0  0  0  0  0  0  0  0  0  0  0
   16.3897  -13.3200  -14.4270 C   0  0  0  0  0  0  0  0  0  0  0  0
   16.2354  -12.2996  -13.7155 O   0  0  0  0  0  0  0  0  0  0  0  0
   19.7266  -10.9307  -17.2150 C   0  0  0  0  0  0  0  0  0  0  0  0
   20.9739  -11.0498  -17.1416 O   0  0  0  0  0  0  0  0  0  0  0  0
   15.9566  -14.5523  -13.9220 O   0  0  0  0  0  0  0  0  0  0  0  0
   19.2612   -9.5893  -17.4297 N   0  0  0  0  0  0  0  0  0  0  0  0
   20.1296   -8.4315  -17.4849 C   0  0  1  0  0  0  0  0  0  0  0  0
   19.9308   -7.6689  -18.7738 C   0  0  0  0  0  0  0  0  0  0  0  0
   20.7485   -6.4445  -18.8495 C   0  0  0  0  0  0  0  0  0  0  0  0
   22.0293   -6.3595  -19.3322 C   0  0  0  0  0  0  0  0  0  0  0  0
   22.4082   -5.0642  -19.2230 N   0  0  0  0  0  0  0  0  0  0  0  0
   21.4190   -4.3515  -18.6959 C   0  0  0  0  0  0  0  0  0  0  0  0
   20.4060   -5.2055  -18.4703 N   0  0  0  0  0  0  0  0  0  0  0  0
   19.9440   -7.6513  -16.2648 C   0  0  0  0  0  0  0  0  0  0  0  0
   18.7778   -7.3769  -15.8222 O   0  0  0  0  0  0  0  0  0  0  0  0
   21.8821   -6.6043  -13.3061 C   0  0  0  0  0  0  0  0  0  0  0  0
   20.7649   -6.2869  -14.3129 C   0  0  2  0  0  0  0  0  0  0  0  0
   21.0165   -7.1298  -15.4627 N   0  0  0  0  0  0  0  0  0  0  0  0
   20.8808   -4.8748  -14.7208 C   0  0  0  0  0  0  0  0  0  0  0  0
   21.5869   -4.5311  -15.7099 O   0  0  0  0  0  0  0  0  0  0  0  0
   20.2183   -3.8767  -14.0332 O   0  0  0  0  0  0  0  0  0  0  0  0
  2  1  1  1
  2  7  1  0
  3  2  1  0
  4  3  1  0
  4  5  1  0
  5  9  1  0
  5  6  2  0
  7  8  2  0
  7 10  1  0
 10 11  1  0
 11 18  1  0
 11 12  1  6
 13 12  1  0
 13 14  2  0
 15 14  1  0
 16 15  1  0
 17 16  2  0
 17 13  1  0
 18 19  2  0
 21 20  1  1
 22 21  1  0
 22 18  1  0
 23 21  1  0
 23 25  1  0
 24 23  2  0
M  END
$$$$
