EHA.pdb
     RDKit          3D

 25 25  0  0  1  0  0  0  0  0999 V2000
   23.9462   -9.3277  -22.9549 N   0  0  0  0  0  0  0  0  0  0  0  0
   24.7677   -9.5154  -21.7524 C   0  0  1  0  0  0  0  0  0  0  0  0
   25.9688  -10.2718  -22.1727 C   0  0  0  0  0  0  0  0  0  0  0  0
   25.7240  -11.3750  -23.1591 C   0  0  0  0  0  0  0  0  0  0  0  0
   26.9496  -12.1489  -23.4189 C   0  0  0  0  0  0  0  0  0  0  0  0
   28.0801  -11.6082  -23.3898 O   0  0  0  0  0  0  0  0  0  0  0  0
   25.0143   -8.2266  -21.0784 C   0  0  0  0  0  0  0  0  0  0  0  0
   24.3253   -7.2019  -21.3037 O   0  0  0  0  0  0  0  0  0  0  0  0
   26.8761  -13.5175  -23.7061 O   0  0  0  0  0  0  0  0  0  0  0  0
   26.0621   -8.0476  -20.1130 N   0  0  0  0  0  0  0  0  0  0  0  0
   26.2507   -6.8376  -19.3397 C   0  0  1  0  0  0  0  0  0  0  0  0
   25.9890   -7.0883  -17.8731 C   0  0  0  0  0  0  0  0  0  0  0  0
   24.5554   -7.0552  -17.5308 C   0  0  0  0  0  0  0  0  0  0  0  0
   23.5281   -6.7637  -18.3913 C   0  0  0  0  0  0  0  0  0  0  0  0
   22.3799   -6.8438  -17.6783 N   0  0  0  0  0  0  0  0  0  0  0  0
   22.6560   -7.1708  -16.4208 C   0  0  0  0  0  0  0  0  0  0  0  0
   23.9913   -7.2983  -16.3396 N   0  0  0  0  0  0  0  0  0  0  0  0
   27.5657   -6.2853  -19.6520 C   0  0  0  0  0  0  0  0  0  0  0  0
   28.6234   -6.9956  -19.5622 O   0  0  0  0  0  0  0  0  0  0  0  0
   28.9386   -3.0502  -20.9911 C   0  0  0  0  0  0  0  0  0  0  0  0
   29.1279   -4.4536  -20.3933 C   0  0  2  0  0  0  0  0  0  0  0  0
   27.7986   -4.9329  -20.0789 N   0  0  0  0  0  0  0  0  0  0  0  0
   29.9020   -4.3368  -19.1441 C   0  0  0  0  0  0  0  0  0  0  0  0
   29.3345   -4.3333  -18.0158 O   0  0  0  0  0  0  0  0  0  0  0  0
   31.2788   -4.2275  -19.1652 O   0  0  0  0  0  0  0  0  0  0  0  0
  2  1  1  6
  2  7  1  0
  3  2  1  0
  4  3  1  0
  4  5  1  0
  5  9  1  0
  5  6  2  0
  7  8  2  0
  7 10  1  0
 10 11  1  0
 11 18  1  0
 11 12  1  1
 13 12  1  0
 13 14  2  0
 15 14  1  0
 16 15  1  0
 17 16  2  0
 17 13  1  0
 18 19  2  0
 21 20  1  1
 22 21  1  0
 22 18  1  0
 23 21  1  0
 23 25  1  0
 24 23  2  0
M  END
$$$$
