EHA.pdb
     RDKit          3D

 25 25  0  0  1  0  0  0  0  0999 V2000
   22.7293  -10.5201  -20.2271 N   0  0  0  0  0  0  0  0  0  0  0  0
   21.2664  -10.5617  -20.3458 C   0  0  1  0  0  0  0  0  0  0  0  0
   20.9063  -11.9608  -20.6686 C   0  0  0  0  0  0  0  0  0  0  0  0
   21.4242  -12.4742  -21.9793 C   0  0  0  0  0  0  0  0  0  0  0  0
   21.0773  -13.8914  -22.1791 C   0  0  0  0  0  0  0  0  0  0  0  0
   20.3354  -14.2540  -23.1222 O   0  0  0  0  0  0  0  0  0  0  0  0
   20.6258   -9.9855  -19.1483 C   0  0  0  0  0  0  0  0  0  0  0  0
   19.3814   -9.8661  -19.0373 O   0  0  0  0  0  0  0  0  0  0  0  0
   21.5742  -14.8718  -21.3114 O   0  0  0  0  0  0  0  0  0  0  0  0
   21.3790   -9.5176  -18.0188 N   0  0  0  0  0  0  0  0  0  0  0  0
   20.7798   -9.0216  -16.7971 C   0  0  1  0  0  0  0  0  0  0  0  0
   21.6291   -9.3730  -15.5982 C   0  0  0  0  0  0  0  0  0  0  0  0
   21.0583   -8.8900  -14.3276 C   0  0  0  0  0  0  0  0  0  0  0  0
   19.8338   -8.2928  -14.1698 C   0  0  0  0  0  0  0  0  0  0  0  0
   19.7002   -8.0060  -12.8533 N   0  0  0  0  0  0  0  0  0  0  0  0
   20.7859   -8.3996  -12.1972 C   0  0  0  0  0  0  0  0  0  0  0  0
   21.6126   -8.9401  -13.1085 N   0  0  0  0  0  0  0  0  0  0  0  0
   20.4941   -7.5993  -16.9624 C   0  0  0  0  0  0  0  0  0  0  0  0
   21.4070   -6.7729  -17.3014 O   0  0  0  0  0  0  0  0  0  0  0  0
   17.4595   -5.4900  -17.3649 C   0  0  0  0  0  0  0  0  0  0  0  0
   18.9601   -5.6032  -17.0521 C   0  0  2  0  0  0  0  0  0  0  0  0
   19.2012   -7.0022  -16.7685 N   0  0  0  0  0  0  0  0  0  0  0  0
   19.2537   -4.8126  -15.8428 C   0  0  0  0  0  0  0  0  0  0  0  0
   19.1685   -3.5525  -15.8433 O   0  0  0  0  0  0  0  0  0  0  0  0
   19.6326   -5.4252  -14.6642 O   0  0  0  0  0  0  0  0  0  0  0  0
  2  1  1  1
  2  7  1  0
  3  2  1  0
  4  3  1  0
  4  5  1  0
  5  9  1  0
  5  6  2  0
  7  8  2  0
  7 10  1  0
 10 11  1  0
 11 18  1  0
 11 12  1  1
 13 12  1  0
 13 14  2  0
 15 14  1  0
 16 15  1  0
 17 16  2  0
 17 13  1  0
 18 19  2  0
 21 20  1  1
 22 21  1  0
 22 18  1  0
 23 21  1  0
 23 25  1  0
 24 23  2  0
M  END
$$$$
