EHA.pdb
     RDKit          3D

 25 25  0  0  1  0  0  0  0  0999 V2000
   16.4320  -10.6906  -18.1426 N   0  0  0  0  0  0  0  0  0  0  0  0
   17.0971  -10.3937  -16.8677 C   0  0  1  0  0  0  0  0  0  0  0  0
   17.8216  -11.6221  -16.4707 C   0  0  0  0  0  0  0  0  0  0  0  0
   16.9626  -12.7421  -15.9630 C   0  0  0  0  0  0  0  0  0  0  0  0
   16.3310  -12.3982  -14.6779 C   0  0  0  0  0  0  0  0  0  0  0  0
   15.1309  -12.0414  -14.6164 O   0  0  0  0  0  0  0  0  0  0  0  0
   17.9081   -9.1659  -16.9719 C   0  0  0  0  0  0  0  0  0  0  0  0
   18.8259   -9.0304  -17.8173 O   0  0  0  0  0  0  0  0  0  0  0  0
   17.0653  -12.4638  -13.4873 O   0  0  0  0  0  0  0  0  0  0  0  0
   17.7081   -8.0326  -16.1131 N   0  0  0  0  0  0  0  0  0  0  0  0
   18.5106   -6.8281  -16.1642 C   0  0  1  0  0  0  0  0  0  0  0  0
   17.6411   -5.6082  -16.3597 C   0  0  0  0  0  0  0  0  0  0  0  0
   17.0987   -5.5016  -17.7264 C   0  0  0  0  0  0  0  0  0  0  0  0
   17.8326   -5.4748  -18.8846 C   0  0  0  0  0  0  0  0  0  0  0  0
   16.9527   -5.3701  -19.9083 N   0  0  0  0  0  0  0  0  0  0  0  0
   15.7137   -5.3314  -19.4311 C   0  0  0  0  0  0  0  0  0  0  0  0
   15.8128   -5.4127  -18.0934 N   0  0  0  0  0  0  0  0  0  0  0  0
   19.3754   -6.7942  -14.9883 C   0  0  0  0  0  0  0  0  0  0  0  0
   18.8912   -6.7156  -13.8090 O   0  0  0  0  0  0  0  0  0  0  0  0
   22.9069   -7.6034  -14.1919 C   0  0  0  0  0  0  0  0  0  0  0  0
   21.6091   -6.8654  -13.8260 C   0  0  2  0  0  0  0  0  0  0  0  0
   20.8110   -6.8448  -15.0336 N   0  0  0  0  0  0  0  0  0  0  0  0
   21.9416   -5.4795  -13.4489 C   0  0  0  0  0  0  0  0  0  0  0  0
   22.4601   -5.2081  -12.3297 O   0  0  0  0  0  0  0  0  0  0  0  0
   21.6972   -4.4273  -14.3098 O   0  0  0  0  0  0  0  0  0  0  0  0
  2  1  1  6
  2  7  1  0
  3  2  1  0
  4  3  1  0
  4  5  1  0
  5  9  1  0
  5  6  2  0
  7  8  2  0
  7 10  1  0
 10 11  1  0
 11 18  1  0
 11 12  1  1
 13 12  1  0
 13 14  2  0
 15 14  1  0
 16 15  1  0
 17 16  2  0
 17 13  1  0
 18 19  2  0
 21 20  1  6
 22 21  1  0
 22 18  1  0
 23 21  1  0
 23 25  1  0
 24 23  2  0
M  END
$$$$
