EHA.pdb
     RDKit          3D

 25 25  0  0  1  0  0  0  0  0999 V2000
   21.1614  -13.5774  -16.3810 N   0  0  0  0  0  0  0  0  0  0  0  0
   20.1551  -12.5731  -16.7481 C   0  0  1  0  0  0  0  0  0  0  0  0
   18.8509  -13.2723  -16.7838 C   0  0  0  0  0  0  0  0  0  0  0  0
   18.5676  -14.0458  -18.0374 C   0  0  0  0  0  0  0  0  0  0  0  0
   17.9855  -13.1866  -19.0820 C   0  0  0  0  0  0  0  0  0  0  0  0
   18.6685  -12.3076  -19.6584 O   0  0  0  0  0  0  0  0  0  0  0  0
   20.2383  -11.3976  -15.8606 C   0  0  0  0  0  0  0  0  0  0  0  0
   19.8093  -11.4080  -14.6811 O   0  0  0  0  0  0  0  0  0  0  0  0
   16.6443  -13.3358  -19.4564 O   0  0  0  0  0  0  0  0  0  0  0  0
   20.8167  -10.1522  -16.2802 N   0  0  0  0  0  0  0  0  0  0  0  0
   20.8678   -8.9650  -15.4522 C   0  0  1  0  0  0  0  0  0  0  0  0
   22.0375   -9.0226  -14.4979 C   0  0  0  0  0  0  0  0  0  0  0  0
   23.3083   -9.3584  -15.1655 C   0  0  0  0  0  0  0  0  0  0  0  0
   23.4531   -9.7525  -16.4710 C   0  0  0  0  0  0  0  0  0  0  0  0
   24.7750   -9.9603  -16.6774 N   0  0  0  0  0  0  0  0  0  0  0  0
   25.4470   -9.7118  -15.5589 C   0  0  0  0  0  0  0  0  0  0  0  0
   24.5402   -9.3436  -14.6379 N   0  0  0  0  0  0  0  0  0  0  0  0
   20.8285   -7.7905  -16.3188 C   0  0  0  0  0  0  0  0  0  0  0  0
   21.3041   -7.8225  -17.5038 O   0  0  0  0  0  0  0  0  0  0  0  0
   18.9494   -4.8570  -17.0213 C   0  0  0  0  0  0  0  0  0  0  0  0
   20.3852   -5.3570  -16.7950 C   0  0  2  0  0  0  0  0  0  0  0  0
   20.2696   -6.5211  -15.9422 N   0  0  0  0  0  0  0  0  0  0  0  0
   21.1438   -4.3142  -16.0803 C   0  0  0  0  0  0  0  0  0  0  0  0
   21.3513   -4.3868  -14.8366 O   0  0  0  0  0  0  0  0  0  0  0  0
   21.6554   -3.2191  -16.7489 O   0  0  0  0  0  0  0  0  0  0  0  0
  2  1  1  1
  2  7  1  0
  3  2  1  0
  4  3  1  0
  4  5  1  0
  5  9  1  0
  5  6  2  0
  7  8  2  0
  7 10  1  0
 10 11  1  0
 11 18  1  0
 11 12  1  6
 13 12  1  0
 13 14  2  0
 15 14  1  0
 16 15  1  0
 17 16  2  0
 17 13  1  0
 18 19  2  0
 21 20  1  1
 22 21  1  0
 22 18  1  0
 23 21  1  0
 23 25  1  0
 24 23  2  0
M  END
$$$$
