EHA.pdb
     RDKit          3D

 25 25  0  0  1  0  0  0  0  0999 V2000
   23.8693  -25.6755  -18.5951 N   0  0  0  0  0  0  0  0  0  0  0  0
   23.9573  -27.0315  -19.1513 C   0  0  1  0  0  0  0  0  0  0  0  0
   24.8264  -26.9446  -20.3465 C   0  0  0  0  0  0  0  0  0  0  0  0
   26.3013  -26.9495  -20.0734 C   0  0  0  0  0  0  0  0  0  0  0  0
   27.0817  -26.9344  -21.3221 C   0  0  0  0  0  0  0  0  0  0  0  0
   27.7857  -27.9140  -21.6625 O   0  0  0  0  0  0  0  0  0  0  0  0
   24.3706  -27.9979  -18.1162 C   0  0  0  0  0  0  0  0  0  0  0  0
   25.0042  -27.6584  -17.0873 O   0  0  0  0  0  0  0  0  0  0  0  0
   27.0524  -25.8147  -22.1626 O   0  0  0  0  0  0  0  0  0  0  0  0
   24.0786  -29.4008  -18.2083 N   0  0  0  0  0  0  0  0  0  0  0  0
   24.4023  -30.3633  -17.1756 C   0  0  1  0  0  0  0  0  0  0  0  0
   23.3312  -31.4236  -17.0714 C   0  0  0  0  0  0  0  0  0  0  0  0
   22.1047  -30.9392  -16.4123 C   0  0  0  0  0  0  0  0  0  0  0  0
   21.9810  -29.7776  -15.6938 C   0  0  0  0  0  0  0  0  0  0  0  0
   20.6988  -29.7128  -15.2640 N   0  0  0  0  0  0  0  0  0  0  0  0
   20.0309  -30.7807  -15.6856 C   0  0  0  0  0  0  0  0  0  0  0  0
   20.9003  -31.5266  -16.3884 N   0  0  0  0  0  0  0  0  0  0  0  0
   25.7532  -30.8641  -17.4124 C   0  0  0  0  0  0  0  0  0  0  0  0
   26.2036  -31.0274  -18.5964 O   0  0  0  0  0  0  0  0  0  0  0  0
   28.7307  -31.8375  -15.3266 C   0  0  0  0  0  0  0  0  0  0  0  0
   28.0101  -31.7082  -16.6782 C   0  0  2  0  0  0  0  0  0  0  0  0
   26.6843  -31.2126  -16.3745 N   0  0  0  0  0  0  0  0  0  0  0  0
   27.8929  -33.0475  -17.2835 C   0  0  0  0  0  0  0  0  0  0  0  0
   26.8416  -33.7363  -17.1594 O   0  0  0  0  0  0  0  0  0  0  0  0
   28.9320  -33.5958  -18.0098 O   0  0  0  0  0  0  0  0  0  0  0  0
  2  1  1  1
  2  7  1  0
  3  2  1  0
  4  3  1  0
  4  5  1  0
  5  9  1  0
  5  6  2  0
  7  8  2  0
  7 10  1  0
 10 11  1  0
 11 18  1  0
 11 12  1  6
 13 12  1  0
 13 14  2  0
 15 14  1  0
 16 15  1  0
 17 16  2  0
 17 13  1  0
 18 19  2  0
 21 20  1  1
 22 21  1  0
 22 18  1  0
 23 21  1  0
 23 25  1  0
 24 23  2  0
M  END
$$$$
