EHA.pdb
     RDKit          3D

 25 25  0  0  1  0  0  0  0  0999 V2000
   22.9447   -8.2228  -19.3754 N   0  0  0  0  0  0  0  0  0  0  0  0
   21.5222   -8.4622  -19.1014 C   0  0  1  0  0  0  0  0  0  0  0  0
   21.3051   -9.9210  -19.2287 C   0  0  0  0  0  0  0  0  0  0  0  0
   22.2507  -10.6363  -20.1474 C   0  0  0  0  0  0  0  0  0  0  0  0
   23.0174  -11.6714  -19.4339 C   0  0  0  0  0  0  0  0  0  0  0  0
   23.9720  -11.3712  -18.6791 O   0  0  0  0  0  0  0  0  0  0  0  0
   21.1257   -7.8559  -17.8164 C   0  0  0  0  0  0  0  0  0  0  0  0
   19.9768   -7.9916  -17.3296 O   0  0  0  0  0  0  0  0  0  0  0  0
   22.6922  -13.0250  -19.5855 O   0  0  0  0  0  0  0  0  0  0  0  0
   22.0253   -7.0640  -17.0255 N   0  0  0  0  0  0  0  0  0  0  0  0
   21.7147   -6.5689  -15.7004 C   0  0  1  0  0  0  0  0  0  0  0  0
   22.7061   -7.0867  -14.6848 C   0  0  0  0  0  0  0  0  0  0  0  0
   22.5569   -8.5291  -14.4191 C   0  0  0  0  0  0  0  0  0  0  0  0
   21.5961   -9.3511  -14.9502 C   0  0  0  0  0  0  0  0  0  0  0  0
   21.8157  -10.5904  -14.4512 N   0  0  0  0  0  0  0  0  0  0  0  0
   22.8665  -10.5661  -13.6390 C   0  0  0  0  0  0  0  0  0  0  0  0
   23.3142   -9.2990  -13.6254 N   0  0  0  0  0  0  0  0  0  0  0  0
   21.5897   -5.1156  -15.7635 C   0  0  0  0  0  0  0  0  0  0  0  0
   22.4881   -4.3943  -16.3148 O   0  0  0  0  0  0  0  0  0  0  0  0
   19.0572   -2.5195  -14.7636 C   0  0  0  0  0  0  0  0  0  0  0  0
   20.4562   -2.9242  -15.2551 C   0  0  2  0  0  0  0  0  0  0  0  0
   20.4813   -4.3714  -15.2312 N   0  0  0  0  0  0  0  0  0  0  0  0
   21.4597   -2.4128  -14.3037 C   0  0  0  0  0  0  0  0  0  0  0  0
   21.9504   -1.2552  -14.4234 O   0  0  0  0  0  0  0  0  0  0  0  0
   21.8982   -3.1844  -13.2453 O   0  0  0  0  0  0  0  0  0  0  0  0
  2  1  1  1
  2  7  1  0
  3  2  1  0
  4  3  1  0
  4  5  1  0
  5  9  1  0
  5  6  2  0
  7  8  2  0
  7 10  1  0
 10 11  1  0
 11 18  1  0
 11 12  1  1
 13 12  1  0
 13 14  2  0
 15 14  1  0
 16 15  1  0
 17 16  2  0
 17 13  1  0
 18 19  2  0
 21 20  1  1
 22 21  1  0
 22 18  1  0
 23 21  1  0
 23 25  1  0
 24 23  2  0
M  END
$$$$
