EHA.pdb
     RDKit          3D

 25 25  0  0  1  0  0  0  0  0999 V2000
   19.4284  -10.8193  -16.8817 N   0  0  0  0  0  0  0  0  0  0  0  0
   20.5216   -9.8484  -16.7468 C   0  0  1  0  0  0  0  0  0  0  0  0
   20.8172   -9.3501  -18.1090 C   0  0  0  0  0  0  0  0  0  0  0  0
   21.8153  -10.1546  -18.8878 C   0  0  0  0  0  0  0  0  0  0  0  0
   21.4864  -10.1800  -20.3230 C   0  0  0  0  0  0  0  0  0  0  0  0
   20.6602   -9.3768  -20.8165 O   0  0  0  0  0  0  0  0  0  0  0  0
   20.1927   -8.8242  -15.7373 C   0  0  0  0  0  0  0  0  0  0  0  0
   19.0532   -8.3062  -15.6446 O   0  0  0  0  0  0  0  0  0  0  0  0
   22.0961  -11.1106  -21.1735 O   0  0  0  0  0  0  0  0  0  0  0  0
   21.1526   -8.3427  -14.7841 N   0  0  0  0  0  0  0  0  0  0  0  0
   20.8469   -7.3831  -13.7432 C   0  0  1  0  0  0  0  0  0  0  0  0
   21.1084   -7.9690  -12.3755 C   0  0  0  0  0  0  0  0  0  0  0  0
   20.7720   -7.0426  -11.2791 C   0  0  0  0  0  0  0  0  0  0  0  0
   20.2833   -5.7692  -11.4216 C   0  0  0  0  0  0  0  0  0  0  0  0
   20.1119   -5.2694  -10.1750 N   0  0  0  0  0  0  0  0  0  0  0  0
   20.4727   -6.1774   -9.2753 C   0  0  0  0  0  0  0  0  0  0  0  0
   20.8758   -7.2608   -9.9608 N   0  0  0  0  0  0  0  0  0  0  0  0
   21.5546   -6.1395  -14.0335 C   0  0  0  0  0  0  0  0  0  0  0  0
   21.4847   -5.1357  -13.2468 O   0  0  0  0  0  0  0  0  0  0  0  0
   24.2052   -4.9935  -16.4032 C   0  0  0  0  0  0  0  0  0  0  0  0
   23.0824   -4.6773  -15.4021 C   0  0  2  0  0  0  0  0  0  0  0  0
   22.3753   -5.9232  -15.1933 N   0  0  0  0  0  0  0  0  0  0  0  0
   22.1619   -3.7018  -16.0140 C   0  0  0  0  0  0  0  0  0  0  0  0
   21.1318   -4.0735  -16.6432 O   0  0  0  0  0  0  0  0  0  0  0  0
   22.3951   -2.3436  -15.9192 O   0  0  0  0  0  0  0  0  0  0  0  0
  2  1  1  6
  2  7  1  0
  3  2  1  0
  4  3  1  0
  4  5  1  0
  5  9  1  0
  5  6  2  0
  7  8  2  0
  7 10  1  0
 10 11  1  0
 11 18  1  0
 11 12  1  1
 13 12  1  0
 13 14  2  0
 15 14  1  0
 16 15  1  0
 17 16  2  0
 17 13  1  0
 18 19  2  0
 21 20  1  6
 22 21  1  0
 22 18  1  0
 23 21  1  0
 23 25  1  0
 24 23  2  0
M  END
$$$$
