EHA.pdb
     RDKit          3D

 25 25  0  0  1  0  0  0  0  0999 V2000
   17.3655  -11.1765  -17.7271 N   0  0  0  0  0  0  0  0  0  0  0  0
   17.0798  -10.1205  -16.7477 C   0  0  1  0  0  0  0  0  0  0  0  0
   16.7966  -10.7988  -15.4627 C   0  0  0  0  0  0  0  0  0  0  0  0
   15.4578  -11.4685  -15.3681 C   0  0  0  0  0  0  0  0  0  0  0  0
   15.2220  -12.0162  -14.0217 C   0  0  0  0  0  0  0  0  0  0  0  0
   16.0757  -11.8983  -13.1114 O   0  0  0  0  0  0  0  0  0  0  0  0
   18.1602   -9.1162  -16.7281 C   0  0  0  0  0  0  0  0  0  0  0  0
   19.3460   -9.3914  -17.0337 O   0  0  0  0  0  0  0  0  0  0  0  0
   14.0277  -12.6861  -13.7282 O   0  0  0  0  0  0  0  0  0  0  0  0
   17.9357   -7.7472  -16.3576 N   0  0  0  0  0  0  0  0  0  0  0  0
   18.9569   -6.7210  -16.3984 C   0  0  1  0  0  0  0  0  0  0  0  0
   18.3970   -5.4235  -16.9327 C   0  0  0  0  0  0  0  0  0  0  0  0
   18.2709   -5.4132  -18.4015 C   0  0  0  0  0  0  0  0  0  0  0  0
   18.6990   -6.3986  -19.2539 C   0  0  0  0  0  0  0  0  0  0  0  0
   18.3919   -5.9963  -20.5097 N   0  0  0  0  0  0  0  0  0  0  0  0
   17.7955   -4.8103  -20.4665 C   0  0  0  0  0  0  0  0  0  0  0  0
   17.7256   -4.4607  -19.1707 N   0  0  0  0  0  0  0  0  0  0  0  0
   19.5826   -6.6338  -15.0821 C   0  0  0  0  0  0  0  0  0  0  0  0
   18.9022   -6.3457  -14.0403 O   0  0  0  0  0  0  0  0  0  0  0  0
   22.6769   -7.8500  -13.4853 C   0  0  0  0  0  0  0  0  0  0  0  0
   21.5231   -6.8344  -13.4885 C   0  0  2  0  0  0  0  0  0  0  0  0
   20.9800   -6.8560  -14.8303 N   0  0  0  0  0  0  0  0  0  0  0  0
   22.0709   -5.4931  -13.2159 C   0  0  0  0  0  0  0  0  0  0  0  0
   22.2654   -4.6601  -14.1451 O   0  0  0  0  0  0  0  0  0  0  0  0
   22.3904   -5.1002  -11.9308 O   0  0  0  0  0  0  0  0  0  0  0  0
  2  1  1  6
  2  7  1  0
  3  2  1  0
  4  3  1  0
  4  5  1  0
  5  9  1  0
  5  6  2  0
  7  8  2  0
  7 10  1  0
 10 11  1  0
 11 18  1  0
 11 12  1  1
 13 12  1  0
 13 14  2  0
 15 14  1  0
 16 15  1  0
 17 16  2  0
 17 13  1  0
 18 19  2  0
 21 20  1  6
 22 21  1  0
 22 18  1  0
 23 21  1  0
 23 25  1  0
 24 23  2  0
M  END
$$$$
