EHA.pdb
     RDKit          3D

 25 25  0  0  1  0  0  0  0  0999 V2000
   14.8237  -10.8206  -15.2821 N   0  0  0  0  0  0  0  0  0  0  0  0
   15.4664   -9.6041  -15.7949 C   0  0  1  0  0  0  0  0  0  0  0  0
   14.6776   -8.4600  -15.2849 C   0  0  0  0  0  0  0  0  0  0  0  0
   13.2773   -8.3556  -15.8123 C   0  0  0  0  0  0  0  0  0  0  0  0
   12.3714   -9.2940  -15.1287 C   0  0  0  0  0  0  0  0  0  0  0  0
   11.6572  -10.0971  -15.7737 O   0  0  0  0  0  0  0  0  0  0  0  0
   16.9062   -9.5955  -15.4735 C   0  0  0  0  0  0  0  0  0  0  0  0
   17.4156  -10.3695  -14.6269 O   0  0  0  0  0  0  0  0  0  0  0  0
   12.2891   -9.3083  -13.7308 O   0  0  0  0  0  0  0  0  0  0  0  0
   17.8336   -8.7000  -16.1059 N   0  0  0  0  0  0  0  0  0  0  0  0
   19.2576   -8.6919  -15.8416 C   0  0  1  0  0  0  0  0  0  0  0  0
   20.0077   -9.4615  -16.9034 C   0  0  0  0  0  0  0  0  0  0  0  0
   21.4572   -9.5351  -16.6443 C   0  0  0  0  0  0  0  0  0  0  0  0
   22.1135   -8.9820  -15.5747 C   0  0  0  0  0  0  0  0  0  0  0  0
   23.4261   -9.2818  -15.7179 N   0  0  0  0  0  0  0  0  0  0  0  0
   23.6045   -9.9928  -16.8255 C   0  0  0  0  0  0  0  0  0  0  0  0
   22.3927  -10.1432  -17.3867 N   0  0  0  0  0  0  0  0  0  0  0  0
   19.6886   -7.3098  -15.6530 C   0  0  0  0  0  0  0  0  0  0  0  0
   19.3379   -6.3875  -16.4640 O   0  0  0  0  0  0  0  0  0  0  0  0
   21.8299   -5.4071  -13.2091 C   0  0  0  0  0  0  0  0  0  0  0  0
   20.9832   -5.4890  -14.4894 C   0  0  2  0  0  0  0  0  0  0  0  0
   20.5226   -6.8589  -14.5728 N   0  0  0  0  0  0  0  0  0  0  0  0
   21.8477   -5.2037  -15.6490 C   0  0  0  0  0  0  0  0  0  0  0  0
   22.5281   -6.1126  -16.2023 O   0  0  0  0  0  0  0  0  0  0  0  0
   21.9428   -3.9288  -16.1719 O   0  0  0  0  0  0  0  0  0  0  0  0
  2  1  1  1
  2  7  1  0
  3  2  1  0
  4  3  1  0
  4  5  1  0
  5  9  1  0
  5  6  2  0
  7  8  2  0
  7 10  1  0
 10 11  1  0
 11 18  1  0
 11 12  1  6
 13 12  1  0
 13 14  2  0
 15 14  1  0
 16 15  1  0
 17 16  2  0
 17 13  1  0
 18 19  2  0
 21 20  1  1
 22 21  1  0
 22 18  1  0
 23 21  1  0
 23 25  1  0
 24 23  2  0
M  END
$$$$
