MDH.pdb
     RDKit          3D

 27 27  0  0  1  0  0  0  0  0999 V2000
    8.7371  -11.5128   20.4498 C   0  0  0  0  0  0  0  0  0  0  0  0
    7.2656  -12.4245   19.9192 S   0  0  0  0  0  0  0  0  0  0  0  0
    7.5754  -14.1964   19.9919 C   0  0  0  0  0  0  0  0  0  0  0  0
    7.8199  -14.6377   21.4384 C   0  0  0  0  0  0  0  0  0  0  0  0
    8.2669  -16.0698   21.3742 C   0  0  2  0  0  0  0  0  0  0  0  0
    7.1562  -16.8562   20.8747 N   0  0  0  0  0  0  0  0  0  0  0  0
    8.6711  -16.5642   22.7261 C   0  0  0  0  0  0  0  0  0  0  0  0
    7.8836  -17.2330   23.4366 O   0  0  0  0  0  0  0  0  0  0  0  0
    9.9467  -16.2763   23.2050 N   0  0  0  0  0  0  0  0  0  0  0  0
   10.3872  -16.9660   24.4758 C   0  0  1  0  0  0  0  0  0  0  0  0
   11.8092  -17.3076   24.1607 C   0  0  0  0  0  0  0  0  0  0  0  0
   12.5963  -18.0456   25.1225 C   0  0  0  0  0  0  0  0  0  0  0  0
   12.3016  -18.4920   26.2373 O   0  0  0  0  0  0  0  0  0  0  0  0
   10.2403  -15.9045   25.4835 C   0  0  0  0  0  0  0  0  0  0  0  0
   10.7282  -14.7708   25.2749 O   0  0  0  0  0  0  0  0  0  0  0  0
   13.9423  -18.3021   24.7133 O   0  0  0  0  0  0  0  0  0  0  0  0
    9.5587  -16.1069   26.6931 N   0  0  0  0  0  0  0  0  0  0  0  0
    9.6094  -15.0891   27.7497 C   0  0  1  0  0  0  0  0  0  0  0  0
    8.2571  -14.5576   28.1058 C   0  0  0  0  0  0  0  0  0  0  0  0
    7.6568  -13.8645   26.9465 C   0  0  0  0  0  0  0  0  0  0  0  0
    7.5717  -12.5013   26.7156 C   0  0  0  0  0  0  0  0  0  0  0  0
    6.9536  -12.2869   25.5505 N   0  0  0  0  0  0  0  0  0  0  0  0
    6.6535  -13.4976   25.0542 C   0  0  0  0  0  0  0  0  0  0  0  0
    7.0770  -14.4429   25.8947 N   0  0  0  0  0  0  0  0  0  0  0  0
   10.2897  -15.7109   28.9138 C   0  0  0  0  0  0  0  0  0  0  0  0
   10.3901  -15.0227   29.9671 O   0  0  0  0  0  0  0  0  0  0  0  0
   10.7827  -16.9970   28.8131 O   0  0  0  0  0  0  0  0  0  0  0  0
  2  1  1  0
  3  2  1  0
  4  3  1  0
  4  5  1  0
  5  7  1  0
  5  6  1  1
  7  8  2  0
  9 10  1  0
  9  7  1  0
 10 11  1  6
 12 11  1  0
 13 12  2  0
 14 17  1  0
 14 10  1  0
 15 14  2  0
 16 12  1  0
 18 17  1  0
 18 19  1  1
 20 19  1  0
 21 20  2  0
 22 21  1  0
 22 23  1  0
 23 24  2  0
 24 20  1  0
 25 18  1  0
 26 25  2  0
 27 25  1  0
M  END
$$$$
