MDH.pdb
     RDKit          3D

 27 27  0  0  1  0  0  0  0  0999 V2000
    7.3591  -11.7160   26.0462 C   0  0  0  0  0  0  0  0  0  0  0  0
    6.6402  -13.2407   26.7069 S   0  0  0  0  0  0  0  0  0  0  0  0
    6.8682  -14.5902   25.5375 C   0  0  0  0  0  0  0  0  0  0  0  0
    7.6822  -14.1184   24.3285 C   0  0  0  0  0  0  0  0  0  0  0  0
    7.7681  -15.2898   23.3928 C   0  0  2  0  0  0  0  0  0  0  0  0
    6.4726  -15.9403   23.3809 N   0  0  0  0  0  0  0  0  0  0  0  0
    8.8169  -16.2562   23.8419 C   0  0  0  0  0  0  0  0  0  0  0  0
    8.5168  -17.2891   24.4864 O   0  0  0  0  0  0  0  0  0  0  0  0
   10.1524  -16.0040   23.5382 N   0  0  0  0  0  0  0  0  0  0  0  0
   11.1599  -17.0792   23.8757 C   0  0  1  0  0  0  0  0  0  0  0  0
   12.3122  -16.7042   22.9985 C   0  0  0  0  0  0  0  0  0  0  0  0
   12.2544  -16.9899   21.5827 C   0  0  0  0  0  0  0  0  0  0  0  0
   11.8842  -18.0015   20.9758 O   0  0  0  0  0  0  0  0  0  0  0  0
   11.4044  -16.8503   25.3081 C   0  0  0  0  0  0  0  0  0  0  0  0
   12.0519  -15.8458   25.6805 O   0  0  0  0  0  0  0  0  0  0  0  0
   12.7007  -15.9205   20.7447 O   0  0  0  0  0  0  0  0  0  0  0  0
   10.9304  -17.7229   26.2993 N   0  0  0  0  0  0  0  0  0  0  0  0
   11.3392  -17.5452   27.6980 C   0  0  1  0  0  0  0  0  0  0  0  0
   10.2561  -16.9585   28.5468 C   0  0  0  0  0  0  0  0  0  0  0  0
   10.0864  -15.5223   28.2415 C   0  0  0  0  0  0  0  0  0  0  0  0
   11.0687  -14.5546   28.1086 C   0  0  0  0  0  0  0  0  0  0  0  0
   10.4978  -13.3788   27.8311 N   0  0  0  0  0  0  0  0  0  0  0  0
    9.1747  -13.6022   27.7897 C   0  0  0  0  0  0  0  0  0  0  0  0
    8.9307  -14.8902   28.0365 N   0  0  0  0  0  0  0  0  0  0  0  0
   11.7763  -18.8759   28.1908 C   0  0  0  0  0  0  0  0  0  0  0  0
   12.2688  -18.9354   29.3514 O   0  0  0  0  0  0  0  0  0  0  0  0
   11.6347  -19.9866   27.3826 O   0  0  0  0  0  0  0  0  0  0  0  0
  2  1  1  0
  3  2  1  0
  4  3  1  0
  4  5  1  0
  5  7  1  0
  5  6  1  1
  7  8  2  0
  9 10  1  0
  9  7  1  0
 10 11  1  6
 12 11  1  0
 13 12  2  0
 14 17  1  0
 14 10  1  0
 15 14  2  0
 16 12  1  0
 18 17  1  0
 18 19  1  1
 20 19  1  0
 21 20  2  0
 22 21  1  0
 22 23  1  0
 23 24  2  0
 24 20  1  0
 25 18  1  0
 26 25  2  0
 27 25  1  0
M  END
$$$$
