MDH.pdb
     RDKit          3D

 27 27  0  0  1  0  0  0  0  0999 V2000
    7.4978  -10.8806   25.5777 C   0  0  0  0  0  0  0  0  0  0  0  0
    6.1323  -12.0613   25.7164 S   0  0  0  0  0  0  0  0  0  0  0  0
    6.2893  -13.3401   24.4590 C   0  0  0  0  0  0  0  0  0  0  0  0
    7.3485  -14.3676   24.8706 C   0  0  0  0  0  0  0  0  0  0  0  0
    7.5447  -15.2706   23.6869 C   0  0  2  0  0  0  0  0  0  0  0  0
    6.3071  -15.9955   23.4757 N   0  0  0  0  0  0  0  0  0  0  0  0
    8.6619  -16.2341   23.9296 C   0  0  0  0  0  0  0  0  0  0  0  0
    8.4401  -17.3969   24.3432 O   0  0  0  0  0  0  0  0  0  0  0  0
    9.9738  -15.8321   23.6916 N   0  0  0  0  0  0  0  0  0  0  0  0
   11.0551  -16.8836   23.7921 C   0  0  1  0  0  0  0  0  0  0  0  0
   12.1043  -16.3309   22.8801 C   0  0  0  0  0  0  0  0  0  0  0  0
   12.4078  -17.0150   21.6435 C   0  0  0  0  0  0  0  0  0  0  0  0
   12.0302  -18.1098   21.2105 O   0  0  0  0  0  0  0  0  0  0  0  0
   11.4192  -16.8330   25.2165 C   0  0  0  0  0  0  0  0  0  0  0  0
   11.9266  -15.7944   25.6969 O   0  0  0  0  0  0  0  0  0  0  0  0
   13.2941  -16.3031   20.7758 O   0  0  0  0  0  0  0  0  0  0  0  0
   11.2148  -17.9179   26.0825 N   0  0  0  0  0  0  0  0  0  0  0  0
   11.5843  -17.8129   27.4993 C   0  0  1  0  0  0  0  0  0  0  0  0
   10.4024  -17.5974   28.3906 C   0  0  0  0  0  0  0  0  0  0  0  0
    9.9381  -16.1973   28.2974 C   0  0  0  0  0  0  0  0  0  0  0  0
   10.4798  -15.0748   28.9021 C   0  0  0  0  0  0  0  0  0  0  0  0
    9.7626  -13.9994   28.5638 N   0  0  0  0  0  0  0  0  0  0  0  0
    8.7828  -14.4377   27.7574 C   0  0  0  0  0  0  0  0  0  0  0  0
    8.8908  -15.7578   27.5993 N   0  0  0  0  0  0  0  0  0  0  0  0
   12.3253  -19.0526   27.8437 C   0  0  0  0  0  0  0  0  0  0  0  0
   12.4463  -19.9293   26.9438 O   0  0  0  0  0  0  0  0  0  0  0  0
   12.8498  -19.2078   29.1117 O   0  0  0  0  0  0  0  0  0  0  0  0
  2  1  1  0
  3  2  1  0
  4  3  1  0
  4  5  1  0
  5  7  1  0
  5  6  1  1
  7  8  2  0
  9 10  1  0
  9  7  1  0
 10 11  1  6
 12 11  1  0
 13 12  2  0
 14 17  1  0
 14 10  1  0
 15 14  2  0
 16 12  1  0
 18 17  1  0
 18 19  1  1
 20 19  1  0
 21 20  2  0
 22 21  1  0
 22 23  1  0
 23 24  2  0
 24 20  1  0
 25 18  1  0
 26 25  2  0
 27 25  1  0
M  END
$$$$
