MDH.pdb
     RDKit          3D

 27 27  0  0  1  0  0  0  0  0999 V2000
    9.1850  -11.6161   19.4227 C   0  0  0  0  0  0  0  0  0  0  0  0
    7.7788  -12.7118   19.1067 S   0  0  0  0  0  0  0  0  0  0  0  0
    8.3580  -14.2987   18.4844 C   0  0  0  0  0  0  0  0  0  0  0  0
    9.0289  -15.0998   19.6046 C   0  0  0  0  0  0  0  0  0  0  0  0
    9.6225  -16.3177   18.9571 C   0  0  2  0  0  0  0  0  0  0  0  0
    8.5292  -17.1291   18.4592 N   0  0  0  0  0  0  0  0  0  0  0  0
   10.4316  -17.1036   19.9384 C   0  0  0  0  0  0  0  0  0  0  0  0
    9.9720  -18.1359   20.4820 O   0  0  0  0  0  0  0  0  0  0  0  0
   11.7203  -16.6809   20.2545 N   0  0  0  0  0  0  0  0  0  0  0  0
   12.5231  -17.5396   21.2048 C   0  0  1  0  0  0  0  0  0  0  0  0
   13.9231  -17.2690   20.7523 C   0  0  0  0  0  0  0  0  0  0  0  0
   15.0336  -17.7994   21.5104 C   0  0  0  0  0  0  0  0  0  0  0  0
   15.5242  -18.9339   21.5409 O   0  0  0  0  0  0  0  0  0  0  0  0
   12.1988  -16.9557   22.5155 C   0  0  0  0  0  0  0  0  0  0  0  0
   11.8255  -15.7636   22.5951 O   0  0  0  0  0  0  0  0  0  0  0  0
   15.6713  -16.8498   22.3687 O   0  0  0  0  0  0  0  0  0  0  0  0
   12.2856  -17.6913   23.7070 N   0  0  0  0  0  0  0  0  0  0  0  0
   11.1994  -17.6331   24.6927 C   0  0  1  0  0  0  0  0  0  0  0  0
    9.8632  -17.9515   24.1001 C   0  0  0  0  0  0  0  0  0  0  0  0
    9.1206  -16.7067   23.8109 C   0  0  0  0  0  0  0  0  0  0  0  0
    9.5468  -15.3990   23.9758 C   0  0  0  0  0  0  0  0  0  0  0  0
    8.5737  -14.5648   23.5984 N   0  0  0  0  0  0  0  0  0  0  0  0
    7.5488  -15.3356   23.2012 C   0  0  0  0  0  0  0  0  0  0  0  0
    7.8802  -16.6213   23.3300 N   0  0  0  0  0  0  0  0  0  0  0  0
   11.5619  -18.5677   25.7881 C   0  0  0  0  0  0  0  0  0  0  0  0
   12.3492  -19.5145   25.5109 O   0  0  0  0  0  0  0  0  0  0  0  0
   11.0384  -18.3785   27.0519 O   0  0  0  0  0  0  0  0  0  0  0  0
  2  1  1  0
  3  2  1  0
  4  3  1  0
  4  5  1  0
  5  7  1  0
  5  6  1  1
  7  8  2  0
  9 10  1  0
  9  7  1  0
 10 11  1  6
 12 11  1  0
 13 12  2  0
 14 17  1  0
 14 10  1  0
 15 14  2  0
 16 12  1  0
 18 17  1  0
 18 19  1  6
 20 19  1  0
 21 20  2  0
 22 21  1  0
 22 23  1  0
 23 24  2  0
 24 20  1  0
 25 18  1  0
 26 25  2  0
 27 25  1  0
M  END
$$$$
