MDH.pdb
     RDKit          3D

 27 27  0  0  1  0  0  0  0  0999 V2000
    7.7009  -11.1674   26.0720 C   0  0  0  0  0  0  0  0  0  0  0  0
    6.4118  -12.3277   26.5915 S   0  0  0  0  0  0  0  0  0  0  0  0
    6.2820  -13.6790   25.4092 C   0  0  0  0  0  0  0  0  0  0  0  0
    7.5263  -14.5701   25.4767 C   0  0  0  0  0  0  0  0  0  0  0  0
    7.3874  -15.5756   24.3700 C   0  0  2  0  0  0  0  0  0  0  0  0
    6.2020  -16.3656   24.6386 N   0  0  0  0  0  0  0  0  0  0  0  0
    8.5865  -16.4663   24.3041 C   0  0  0  0  0  0  0  0  0  0  0  0
    8.6418  -17.5328   24.9612 O   0  0  0  0  0  0  0  0  0  0  0  0
    9.6624  -16.1041   23.4975 N   0  0  0  0  0  0  0  0  0  0  0  0
   10.8403  -17.0496   23.4391 C   0  0  1  0  0  0  0  0  0  0  0  0
   11.5555  -16.5713   22.2153 C   0  0  0  0  0  0  0  0  0  0  0  0
   11.0403  -16.9117   20.9083 C   0  0  0  0  0  0  0  0  0  0  0  0
   10.7253  -18.0039   20.4219 O   0  0  0  0  0  0  0  0  0  0  0  0
   11.5489  -16.7560   24.6944 C   0  0  0  0  0  0  0  0  0  0  0  0
   12.2302  -15.7112   24.7995 O   0  0  0  0  0  0  0  0  0  0  0  0
   10.8660  -15.7951   20.0320 O   0  0  0  0  0  0  0  0  0  0  0  0
   11.4909  -17.6096   25.8063 N   0  0  0  0  0  0  0  0  0  0  0  0
   12.4071  -17.4148   26.9367 C   0  0  1  0  0  0  0  0  0  0  0  0
   11.6900  -17.2093   28.2334 C   0  0  0  0  0  0  0  0  0  0  0  0
   10.9446  -15.9331   28.2106 C   0  0  0  0  0  0  0  0  0  0  0  0
   11.4247  -14.6677   27.9153 C   0  0  0  0  0  0  0  0  0  0  0  0
   10.4279  -13.7827   28.0080 N   0  0  0  0  0  0  0  0  0  0  0  0
    9.3352  -14.4803   28.3567 C   0  0  0  0  0  0  0  0  0  0  0  0
    9.6485  -15.7712   28.4777 N   0  0  0  0  0  0  0  0  0  0  0  0
   13.3017  -18.5992   26.9746 C   0  0  0  0  0  0  0  0  0  0  0  0
   13.1033  -19.5080   26.1214 O   0  0  0  0  0  0  0  0  0  0  0  0
   14.3039  -18.6712   27.9219 O   0  0  0  0  0  0  0  0  0  0  0  0
  2  1  1  0
  3  2  1  0
  4  3  1  0
  4  5  1  0
  5  7  1  0
  5  6  1  1
  7  8  2  0
  9 10  1  0
  9  7  1  0
 10 11  1  6
 12 11  1  0
 13 12  2  0
 14 17  1  0
 14 10  1  0
 15 14  2  0
 16 12  1  0
 18 17  1  0
 18 19  1  1
 20 19  1  0
 21 20  2  0
 22 21  1  0
 22 23  1  0
 23 24  2  0
 24 20  1  0
 25 18  1  0
 26 25  2  0
 27 25  1  0
M  END
$$$$
