MDH.pdb
     RDKit          3D

 27 27  0  0  1  0  0  0  0  0999 V2000
    6.5296  -12.8330   27.0732 C   0  0  0  0  0  0  0  0  0  0  0  0
    6.8996  -11.7814   25.6466 S   0  0  0  0  0  0  0  0  0  0  0  0
    6.9388  -12.7698   24.1424 C   0  0  0  0  0  0  0  0  0  0  0  0
    7.8519  -13.9862   24.3255 C   0  0  0  0  0  0  0  0  0  0  0  0
    7.7604  -14.7794   23.0537 C   0  0  2  0  0  0  0  0  0  0  0  0
    6.3983  -15.2602   22.9312 N   0  0  0  0  0  0  0  0  0  0  0  0
    8.7068  -15.9367   23.0768 C   0  0  0  0  0  0  0  0  0  0  0  0
    8.3219  -17.0856   23.3994 O   0  0  0  0  0  0  0  0  0  0  0  0
   10.0411  -15.7343   22.7334 N   0  0  0  0  0  0  0  0  0  0  0  0
   10.8997  -16.9595   22.5174 C   0  0  1  0  0  0  0  0  0  0  0  0
   11.5914  -16.6252   21.2337 C   0  0  0  0  0  0  0  0  0  0  0  0
   12.6231  -17.5028   20.7289 C   0  0  0  0  0  0  0  0  0  0  0  0
   12.5841  -18.6955   20.4056 O   0  0  0  0  0  0  0  0  0  0  0  0
   11.7852  -16.9408   23.6919 C   0  0  0  0  0  0  0  0  0  0  0  0
   12.7787  -17.7007   23.7395 O   0  0  0  0  0  0  0  0  0  0  0  0
   13.9040  -16.8848   20.5785 O   0  0  0  0  0  0  0  0  0  0  0  0
   11.5656  -16.0878   24.7840 N   0  0  0  0  0  0  0  0  0  0  0  0
   11.6518  -16.6047   26.1552 C   0  0  1  0  0  0  0  0  0  0  0  0
   10.3177  -16.6872   26.8269 C   0  0  0  0  0  0  0  0  0  0  0  0
   10.1520  -15.5676   27.7776 C   0  0  0  0  0  0  0  0  0  0  0  0
    9.9711  -14.2240   27.4931 C   0  0  0  0  0  0  0  0  0  0  0  0
    9.8639  -13.5395   28.6356 N   0  0  0  0  0  0  0  0  0  0  0  0
    9.9756  -14.4388   29.6261 C   0  0  0  0  0  0  0  0  0  0  0  0
   10.1485  -15.6557   29.1078 N   0  0  0  0  0  0  0  0  0  0  0  0
   12.3196  -17.9284   26.0748 C   0  0  0  0  0  0  0  0  0  0  0  0
   13.4367  -18.0544   26.6487 O   0  0  0  0  0  0  0  0  0  0  0  0
   11.7125  -18.9620   25.3890 O   0  0  0  0  0  0  0  0  0  0  0  0
  2  1  1  0
  3  2  1  0
  4  3  1  0
  4  5  1  0
  5  7  1  0
  5  6  1  1
  7  8  2  0
  9 10  1  0
  9  7  1  0
 10 11  1  6
 12 11  1  0
 13 12  2  0
 14 17  1  0
 14 10  1  0
 15 14  2  0
 16 12  1  0
 18 17  1  0
 18 19  1  6
 20 19  1  0
 21 20  2  0
 22 21  1  0
 22 23  1  0
 23 24  2  0
 24 20  1  0
 25 18  1  0
 26 25  2  0
 27 25  1  0
M  END
$$$$
