MDH.pdb
     RDKit          3D

 27 27  0  0  1  0  0  0  0  0999 V2000
    8.9446  -12.4354   20.7241 C   0  0  0  0  0  0  0  0  0  0  0  0
    8.5446  -13.0068   19.0533 S   0  0  0  0  0  0  0  0  0  0  0  0
    8.4313  -14.8032   19.0239 C   0  0  0  0  0  0  0  0  0  0  0  0
    8.0090  -15.2898   17.6340 C   0  0  0  0  0  0  0  0  0  0  0  0
    9.2418  -15.2464   16.7777 C   0  0  2  0  0  0  0  0  0  0  0  0
    8.8694  -15.6831   15.4465 N   0  0  0  0  0  0  0  0  0  0  0  0
   10.3052  -16.1426   17.3267 C   0  0  0  0  0  0  0  0  0  0  0  0
   10.1365  -17.3829   17.4009 O   0  0  0  0  0  0  0  0  0  0  0  0
   11.5059  -15.5889   17.7639 N   0  0  0  0  0  0  0  0  0  0  0  0
   12.5484  -16.5325   18.3187 C   0  0  1  0  0  0  0  0  0  0  0  0
   13.8057  -15.9833   17.7223 C   0  0  0  0  0  0  0  0  0  0  0  0
   14.2522  -16.4603   16.4330 C   0  0  0  0  0  0  0  0  0  0  0  0
   14.4285  -17.6094   16.0120 O   0  0  0  0  0  0  0  0  0  0  0  0
   12.4354  -16.3170   19.7695 C   0  0  0  0  0  0  0  0  0  0  0  0
   12.4263  -15.1535   20.2312 O   0  0  0  0  0  0  0  0  0  0  0  0
   14.5368  -15.4272   15.4860 O   0  0  0  0  0  0  0  0  0  0  0  0
   12.3297  -17.3791   20.6801 N   0  0  0  0  0  0  0  0  0  0  0  0
   12.2545  -17.1125   22.1217 C   0  0  1  0  0  0  0  0  0  0  0  0
   11.3280  -18.0459   22.8347 C   0  0  0  0  0  0  0  0  0  0  0  0
    9.9242  -17.7391   22.4885 C   0  0  0  0  0  0  0  0  0  0  0  0
    9.4479  -16.7410   21.6542 C   0  0  0  0  0  0  0  0  0  0  0  0
    8.1138  -16.8008   21.6084 N   0  0  0  0  0  0  0  0  0  0  0  0
    7.7544  -17.8219   22.4024 C   0  0  0  0  0  0  0  0  0  0  0  0
    8.8436  -18.3834   22.9294 N   0  0  0  0  0  0  0  0  0  0  0  0
   13.6410  -17.1921   22.6468 C   0  0  0  0  0  0  0  0  0  0  0  0
   14.5521  -17.5281   21.8405 O   0  0  0  0  0  0  0  0  0  0  0  0
   13.8889  -16.9023   23.9741 O   0  0  0  0  0  0  0  0  0  0  0  0
  2  1  1  0
  3  2  1  0
  4  3  1  0
  4  5  1  0
  5  7  1  0
  5  6  1  6
  7  8  2  0
  9 10  1  0
  9  7  1  0
 10 11  1  6
 12 11  1  0
 13 12  2  0
 14 17  1  0
 14 10  1  0
 15 14  2  0
 16 12  1  0
 18 17  1  0
 18 19  1  1
 20 19  1  0
 21 20  2  0
 22 21  1  0
 22 23  1  0
 23 24  2  0
 24 20  1  0
 25 18  1  0
 26 25  2  0
 27 25  1  0
M  END
$$$$
