MDH.pdb
     RDKit          3D

 27 27  0  0  1  0  0  0  0  0999 V2000
    7.0671  -11.7642   27.2006 C   0  0  0  0  0  0  0  0  0  0  0  0
    7.0209  -11.5038   25.4095 S   0  0  0  0  0  0  0  0  0  0  0  0
    6.7490  -13.0692   24.5631 C   0  0  0  0  0  0  0  0  0  0  0  0
    7.8265  -14.0844   24.9572 C   0  0  0  0  0  0  0  0  0  0  0  0
    7.5289  -15.3383   24.1863 C   0  0  2  0  0  0  0  0  0  0  0  0
    6.2839  -15.8818   24.6925 N   0  0  0  0  0  0  0  0  0  0  0  0
    8.6253  -16.3410   24.3535 C   0  0  0  0  0  0  0  0  0  0  0  0
    8.5314  -17.2755   25.1842 O   0  0  0  0  0  0  0  0  0  0  0  0
    9.7727  -16.2346   23.5714 N   0  0  0  0  0  0  0  0  0  0  0  0
   10.7748  -17.3638   23.6454 C   0  0  1  0  0  0  0  0  0  0  0  0
   11.6716  -17.0524   22.4892 C   0  0  0  0  0  0  0  0  0  0  0  0
   11.1873  -17.2368   21.1399 C   0  0  0  0  0  0  0  0  0  0  0  0
   11.5355  -16.7114   20.0762 O   0  0  0  0  0  0  0  0  0  0  0  0
   11.4021  -17.1495   24.9586 C   0  0  0  0  0  0  0  0  0  0  0  0
   12.2757  -16.2640   25.0985 O   0  0  0  0  0  0  0  0  0  0  0  0
   10.1269  -18.1884   21.0168 O   0  0  0  0  0  0  0  0  0  0  0  0
   11.0550  -17.9053   26.0885 N   0  0  0  0  0  0  0  0  0  0  0  0
   11.8157  -17.7626   27.3358 C   0  0  1  0  0  0  0  0  0  0  0  0
   10.9417  -17.4840   28.5175 C   0  0  0  0  0  0  0  0  0  0  0  0
   10.2464  -16.1907   28.3477 C   0  0  0  0  0  0  0  0  0  0  0  0
   10.4621  -15.2249   27.3783 C   0  0  0  0  0  0  0  0  0  0  0  0
    9.6243  -14.2031   27.5766 N   0  0  0  0  0  0  0  0  0  0  0  0
    8.8910  -14.5203   28.6555 C   0  0  0  0  0  0  0  0  0  0  0  0
    9.2669  -15.7143   29.1163 N   0  0  0  0  0  0  0  0  0  0  0  0
   12.6029  -19.0101   27.5049 C   0  0  0  0  0  0  0  0  0  0  0  0
   12.4463  -19.9202   26.6443 O   0  0  0  0  0  0  0  0  0  0  0  0
   13.4654  -19.1367   28.5759 O   0  0  0  0  0  0  0  0  0  0  0  0
  2  1  1  0
  3  2  1  0
  4  3  1  0
  4  5  1  0
  5  7  1  0
  5  6  1  1
  7  8  2  0
  9 10  1  0
  9  7  1  0
 10 11  1  6
 12 11  1  0
 13 12  2  0
 14 17  1  0
 14 10  1  0
 15 14  2  0
 16 12  1  0
 18 17  1  0
 18 19  1  1
 20 19  1  0
 21 20  2  0
 22 21  1  0
 22 23  1  0
 23 24  2  0
 24 20  1  0
 25 18  1  0
 26 25  2  0
 27 25  1  0
M  END
$$$$
