MDH.pdb
     RDKit          3D

 27 27  0  0  1  0  0  0  0  0999 V2000
    7.3457  -11.0061   25.9317 C   0  0  0  0  0  0  0  0  0  0  0  0
    6.1693  -12.3673   25.7283 S   0  0  0  0  0  0  0  0  0  0  0  0
    6.5589  -13.3054   24.2420 C   0  0  0  0  0  0  0  0  0  0  0  0
    7.5575  -14.4225   24.5611 C   0  0  0  0  0  0  0  0  0  0  0  0
    7.8467  -15.1158   23.2608 C   0  0  2  0  0  0  0  0  0  0  0  0
    6.6106  -15.7130   22.7953 N   0  0  0  0  0  0  0  0  0  0  0  0
    8.8861  -16.1755   23.4403 C   0  0  0  0  0  0  0  0  0  0  0  0
    8.5897  -17.3084   23.8883 O   0  0  0  0  0  0  0  0  0  0  0  0
   10.2087  -15.8985   23.1032 N   0  0  0  0  0  0  0  0  0  0  0  0
   11.2277  -16.9941   23.3180 C   0  0  1  0  0  0  0  0  0  0  0  0
   12.2787  -16.6343   22.3161 C   0  0  0  0  0  0  0  0  0  0  0  0
   12.1315  -17.0598   20.9426 C   0  0  0  0  0  0  0  0  0  0  0  0
   11.5985  -18.0654   20.4596 O   0  0  0  0  0  0  0  0  0  0  0  0
   11.6390  -16.7795   24.7139 C   0  0  0  0  0  0  0  0  0  0  0  0
   11.7465  -15.6162   25.1635 O   0  0  0  0  0  0  0  0  0  0  0  0
   12.6983  -16.1647   19.9820 O   0  0  0  0  0  0  0  0  0  0  0  0
   11.9178  -17.8425   25.5862 N   0  0  0  0  0  0  0  0  0  0  0  0
   11.5633  -17.7453   27.0074 C   0  0  1  0  0  0  0  0  0  0  0  0
   10.1668  -17.2539   27.2226 C   0  0  0  0  0  0  0  0  0  0  0  0
   10.1846  -15.9224   27.8640 C   0  0  0  0  0  0  0  0  0  0  0  0
   11.2828  -15.1931   28.2896 C   0  0  0  0  0  0  0  0  0  0  0  0
   10.8696  -14.0375   28.8181 N   0  0  0  0  0  0  0  0  0  0  0  0
    9.5302  -14.0384   28.7268 C   0  0  0  0  0  0  0  0  0  0  0  0
    9.1218  -15.1714   28.1535 N   0  0  0  0  0  0  0  0  0  0  0  0
   11.7795  -19.0903   27.5978 C   0  0  0  0  0  0  0  0  0  0  0  0
   11.5414  -20.0929   26.8688 O   0  0  0  0  0  0  0  0  0  0  0  0
   12.2255  -19.2038   28.8998 O   0  0  0  0  0  0  0  0  0  0  0  0
  2  1  1  0
  3  2  1  0
  4  3  1  0
  4  5  1  0
  5  7  1  0
  5  6  1  1
  7  8  2  0
  9 10  1  0
  9  7  1  0
 10 11  1  6
 12 11  1  0
 13 12  2  0
 14 17  1  0
 14 10  1  0
 15 14  2  0
 16 12  1  0
 18 17  1  0
 18 19  1  6
 20 19  1  0
 21 20  2  0
 22 21  1  0
 22 23  1  0
 23 24  2  0
 24 20  1  0
 25 18  1  0
 26 25  2  0
 27 25  1  0
M  END
$$$$
