MDH.pdb
     RDKit          3D

 27 27  0  0  1  0  0  0  0  0999 V2000
    7.3808  -11.1370   24.6921 C   0  0  0  0  0  0  0  0  0  0  0  0
    6.1451  -12.1239   25.5737 S   0  0  0  0  0  0  0  0  0  0  0  0
    5.9816  -13.7429   24.8036 C   0  0  0  0  0  0  0  0  0  0  0  0
    7.3085  -14.5053   24.8745 C   0  0  0  0  0  0  0  0  0  0  0  0
    7.1397  -15.7289   24.0205 C   0  0  2  0  0  0  0  0  0  0  0  0
    6.1353  -16.5671   24.6452 N   0  0  0  0  0  0  0  0  0  0  0  0
    8.4269  -16.4806   23.9041 C   0  0  0  0  0  0  0  0  0  0  0  0
    8.6680  -17.4743   24.6299 O   0  0  0  0  0  0  0  0  0  0  0  0
    9.3759  -16.0690   22.9717 N   0  0  0  0  0  0  0  0  0  0  0  0
   10.6413  -16.8876   22.8559 C   0  0  1  0  0  0  0  0  0  0  0  0
   11.1893  -16.4190   21.5452 C   0  0  0  0  0  0  0  0  0  0  0  0
   10.8176  -17.1063   20.3291 C   0  0  0  0  0  0  0  0  0  0  0  0
   10.6092  -16.6772   19.1884 O   0  0  0  0  0  0  0  0  0  0  0  0
   11.4204  -16.4389   24.0203 C   0  0  0  0  0  0  0  0  0  0  0  0
   11.8452  -15.2627   24.0742 O   0  0  0  0  0  0  0  0  0  0  0  0
   10.6667  -18.5212   20.4717 O   0  0  0  0  0  0  0  0  0  0  0  0
   11.7116  -17.2861   25.1001 N   0  0  0  0  0  0  0  0  0  0  0  0
   11.6973  -16.7659   26.4728 C   0  0  1  0  0  0  0  0  0  0  0  0
   10.4082  -16.0923   26.8224 C   0  0  0  0  0  0  0  0  0  0  0  0
   10.4236  -15.6566   28.2347 C   0  0  0  0  0  0  0  0  0  0  0  0
   10.4938  -14.3649   28.7303 C   0  0  0  0  0  0  0  0  0  0  0  0
   10.4840  -14.4015   30.0659 N   0  0  0  0  0  0  0  0  0  0  0  0
   10.4087  -15.6976   30.4074 C   0  0  0  0  0  0  0  0  0  0  0  0
   10.3726  -16.4489   29.3057 N   0  0  0  0  0  0  0  0  0  0  0  0
   11.9902  -17.9119   27.3703 C   0  0  0  0  0  0  0  0  0  0  0  0
   12.6317  -17.6736   28.4309 O   0  0  0  0  0  0  0  0  0  0  0  0
   11.5618  -19.1789   27.0263 O   0  0  0  0  0  0  0  0  0  0  0  0
  2  1  1  0
  3  2  1  0
  4  3  1  0
  4  5  1  0
  5  7  1  0
  5  6  1  1
  7  8  2  0
  9 10  1  0
  9  7  1  0
 10 11  1  6
 12 11  1  0
 13 12  2  0
 14 17  1  0
 14 10  1  0
 15 14  2  0
 16 12  1  0
 18 17  1  0
 18 19  1  1
 20 19  1  0
 21 20  2  0
 22 21  1  0
 22 23  1  0
 23 24  2  0
 24 20  1  0
 25 18  1  0
 26 25  2  0
 27 25  1  0
M  END
$$$$
