MDH.pdb
     RDKit          3D

 27 27  0  0  1  0  0  0  0  0999 V2000
    7.3913  -11.6255   21.9901 C   0  0  0  0  0  0  0  0  0  0  0  0
    7.6264  -12.0542   20.2469 S   0  0  0  0  0  0  0  0  0  0  0  0
    7.1507  -13.7667   19.9608 C   0  0  0  0  0  0  0  0  0  0  0  0
    7.5732  -14.6438   21.1437 C   0  0  0  0  0  0  0  0  0  0  0  0
    8.0009  -15.9608   20.5626 C   0  0  2  0  0  0  0  0  0  0  0  0
    6.8036  -16.6851   20.1840 N   0  0  0  0  0  0  0  0  0  0  0  0
    8.7810  -16.7563   21.5597 C   0  0  0  0  0  0  0  0  0  0  0  0
    8.2554  -17.7038   22.1908 O   0  0  0  0  0  0  0  0  0  0  0  0
   10.1169  -16.4386   21.7915 N   0  0  0  0  0  0  0  0  0  0  0  0
   10.8813  -17.3050   22.7661 C   0  0  1  0  0  0  0  0  0  0  0  0
   12.2707  -17.2302   22.2166 C   0  0  0  0  0  0  0  0  0  0  0  0
   13.3091  -18.0594   22.7853 C   0  0  0  0  0  0  0  0  0  0  0  0
   13.2912  -18.8288   23.7530 O   0  0  0  0  0  0  0  0  0  0  0  0
   10.7060  -16.5872   24.0381 C   0  0  0  0  0  0  0  0  0  0  0  0
   10.5402  -15.3464   24.0396 O   0  0  0  0  0  0  0  0  0  0  0  0
   14.5686  -17.9742   22.1133 O   0  0  0  0  0  0  0  0  0  0  0  0
   10.7108  -17.2444   25.2777 N   0  0  0  0  0  0  0  0  0  0  0  0
    9.7454  -16.8685   26.3177 C   0  0  1  0  0  0  0  0  0  0  0  0
    8.3366  -16.8391   25.8154 C   0  0  0  0  0  0  0  0  0  0  0  0
    7.8777  -15.4431   25.6565 C   0  0  0  0  0  0  0  0  0  0  0  0
    8.5676  -14.2778   25.9488 C   0  0  0  0  0  0  0  0  0  0  0  0
    7.7981  -13.2237   25.6624 N   0  0  0  0  0  0  0  0  0  0  0  0
    6.6400  -13.7173   25.1963 C   0  0  0  0  0  0  0  0  0  0  0  0
    6.6908  -15.0502   25.1939 N   0  0  0  0  0  0  0  0  0  0  0  0
    9.9202  -17.8306   27.4351 C   0  0  0  0  0  0  0  0  0  0  0  0
    9.3428  -17.5687   28.5265 O   0  0  0  0  0  0  0  0  0  0  0  0
   10.6931  -18.9603   27.2523 O   0  0  0  0  0  0  0  0  0  0  0  0
  2  1  1  0
  3  2  1  0
  4  3  1  0
  4  5  1  0
  5  7  1  0
  5  6  1  1
  7  8  2  0
  9 10  1  0
  9  7  1  0
 10 11  1  6
 12 11  1  0
 13 12  2  0
 14 17  1  0
 14 10  1  0
 15 14  2  0
 16 12  1  0
 18 17  1  0
 18 19  1  6
 20 19  1  0
 21 20  2  0
 22 21  1  0
 22 23  1  0
 23 24  2  0
 24 20  1  0
 25 18  1  0
 26 25  2  0
 27 25  1  0
M  END
$$$$
