MDH.pdb
     RDKit          3D

 27 27  0  0  1  0  0  0  0  0999 V2000
    8.0083  -10.8187   20.0691 C   0  0  0  0  0  0  0  0  0  0  0  0
    7.3005  -12.0105   21.2338 S   0  0  0  0  0  0  0  0  0  0  0  0
    7.6379  -13.6906   20.6821 C   0  0  0  0  0  0  0  0  0  0  0  0
    7.0494  -14.7054   21.6674 C   0  0  0  0  0  0  0  0  0  0  0  0
    7.4016  -16.0649   21.1357 C   0  0  2  0  0  0  0  0  0  0  0  0
    6.1701  -16.8177   21.0002 N   0  0  0  0  0  0  0  0  0  0  0  0
    8.3320  -16.7770   22.0646 C   0  0  0  0  0  0  0  0  0  0  0  0
    7.9594  -17.7828   22.7140 O   0  0  0  0  0  0  0  0  0  0  0  0
    9.6372  -16.3141   22.2109 N   0  0  0  0  0  0  0  0  0  0  0  0
   10.5718  -17.1245   23.0796 C   0  0  1  0  0  0  0  0  0  0  0  0
   11.8938  -16.8676   22.4282 C   0  0  0  0  0  0  0  0  0  0  0  0
   13.0988  -17.3984   23.0246 C   0  0  0  0  0  0  0  0  0  0  0  0
   13.2576  -18.2420   23.9145 O   0  0  0  0  0  0  0  0  0  0  0  0
   10.4229  -16.4831   24.3950 C   0  0  0  0  0  0  0  0  0  0  0  0
   10.1763  -15.2582   24.4705 O   0  0  0  0  0  0  0  0  0  0  0  0
   14.3105  -16.8552   22.4936 O   0  0  0  0  0  0  0  0  0  0  0  0
   10.5420  -17.1980   25.5964 N   0  0  0  0  0  0  0  0  0  0  0  0
    9.5435  -17.0295   26.6592 C   0  0  1  0  0  0  0  0  0  0  0  0
    8.1397  -17.1671   26.1608 C   0  0  0  0  0  0  0  0  0  0  0  0
    7.5928  -15.8432   25.7961 C   0  0  0  0  0  0  0  0  0  0  0  0
    8.1840  -14.6005   25.9555 C   0  0  0  0  0  0  0  0  0  0  0  0
    7.3580  -13.6549   25.4984 N   0  0  0  0  0  0  0  0  0  0  0  0
    6.2619  -14.2924   25.0574 C   0  0  0  0  0  0  0  0  0  0  0  0
    6.4059  -15.6062   25.2375 N   0  0  0  0  0  0  0  0  0  0  0  0
    9.8630  -18.0269   27.7117 C   0  0  0  0  0  0  0  0  0  0  0  0
    9.2674  -17.9177   28.8193 O   0  0  0  0  0  0  0  0  0  0  0  0
   10.7829  -19.0242   27.4545 O   0  0  0  0  0  0  0  0  0  0  0  0
  2  1  1  0
  3  2  1  0
  4  3  1  0
  4  5  1  0
  5  7  1  0
  5  6  1  1
  7  8  2  0
  9 10  1  0
  9  7  1  0
 10 11  1  6
 12 11  1  0
 13 12  2  0
 14 17  1  0
 14 10  1  0
 15 14  2  0
 16 12  1  0
 18 17  1  0
 18 19  1  6
 20 19  1  0
 21 20  2  0
 22 21  1  0
 22 23  1  0
 23 24  2  0
 24 20  1  0
 25 18  1  0
 26 25  2  0
 27 25  1  0
M  END
$$$$
