MDH.pdb
     RDKit          3D

 27 27  0  0  1  0  0  0  0  0999 V2000
    7.7444  -12.1726   18.6229 C   0  0  0  0  0  0  0  0  0  0  0  0
    7.5405  -12.5668   20.3782 S   0  0  0  0  0  0  0  0  0  0  0  0
    7.5113  -14.3515   20.6126 C   0  0  0  0  0  0  0  0  0  0  0  0
    8.4212  -15.0401   19.5905 C   0  0  0  0  0  0  0  0  0  0  0  0
    8.2715  -16.5169   19.8177 C   0  0  2  0  0  0  0  0  0  0  0  0
    6.8602  -16.8357   19.7282 N   0  0  0  0  0  0  0  0  0  0  0  0
    8.7953  -16.9061   21.1629 C   0  0  0  0  0  0  0  0  0  0  0  0
    8.0269  -17.3052   22.0698 O   0  0  0  0  0  0  0  0  0  0  0  0
   10.1628  -16.8235   21.4131 N   0  0  0  0  0  0  0  0  0  0  0  0
   10.6675  -17.3828   22.7235 C   0  0  1  0  0  0  0  0  0  0  0  0
   12.0792  -17.7393   22.3798 C   0  0  0  0  0  0  0  0  0  0  0  0
   12.3402  -18.8632   21.5092 C   0  0  0  0  0  0  0  0  0  0  0  0
   12.9453  -18.9297   20.4329 O   0  0  0  0  0  0  0  0  0  0  0  0
   10.5495  -16.2304   23.6300 C   0  0  0  0  0  0  0  0  0  0  0  0
   10.6094  -15.0661   23.1743 O   0  0  0  0  0  0  0  0  0  0  0  0
   11.8085  -20.1070   21.9732 O   0  0  0  0  0  0  0  0  0  0  0  0
   10.3633  -16.3790   25.0127 N   0  0  0  0  0  0  0  0  0  0  0  0
    9.6649  -15.3411   25.7806 C   0  0  1  0  0  0  0  0  0  0  0  0
    8.2933  -15.0575   25.2551 C   0  0  0  0  0  0  0  0  0  0  0  0
    7.6475  -13.9947   26.0539 C   0  0  0  0  0  0  0  0  0  0  0  0
    8.1907  -13.2562   27.0926 C   0  0  0  0  0  0  0  0  0  0  0  0
    7.2765  -12.3958   27.5500 N   0  0  0  0  0  0  0  0  0  0  0  0
    6.1729  -12.5892   26.8104 C   0  0  0  0  0  0  0  0  0  0  0  0
    6.3987  -13.5498   25.9129 N   0  0  0  0  0  0  0  0  0  0  0  0
    9.6389  -15.7956   27.1939 C   0  0  0  0  0  0  0  0  0  0  0  0
    9.4516  -14.9213   28.0848 O   0  0  0  0  0  0  0  0  0  0  0  0
    9.8165  -17.1333   27.4871 O   0  0  0  0  0  0  0  0  0  0  0  0
  2  1  1  0
  3  2  1  0
  4  3  1  0
  4  5  1  0
  5  7  1  0
  5  6  1  1
  7  8  2  0
  9 10  1  0
  9  7  1  0
 10 11  1  6
 12 11  1  0
 13 12  2  0
 14 17  1  0
 14 10  1  0
 15 14  2  0
 16 12  1  0
 18 17  1  0
 18 19  1  6
 20 19  1  0
 21 20  2  0
 22 21  1  0
 22 23  1  0
 23 24  2  0
 24 20  1  0
 25 18  1  0
 26 25  2  0
 27 25  1  0
M  END
$$$$
