GWE.pdb
     RDKit          3D

 28 29  0  0  1  0  0  0  0  0999 V2000
    8.7007  -13.1114   18.0758 N   0  0  0  0  0  0  0  0  0  0  0  0
    7.9828  -14.2228   18.6671 C   0  0  0  0  0  0  0  0  0  0  0  0
    8.3081  -14.3299   20.1338 C   0  0  0  0  0  0  0  0  0  0  0  0
    9.4492  -14.0355   20.4907 O   0  0  0  0  0  0  0  0  0  0  0  0
    7.3624  -14.7472   21.0747 N   0  0  0  0  0  0  0  0  0  0  0  0
    7.6171  -15.0360   22.4136 C   0  0  1  0  0  0  0  0  0  0  0  0
    6.4718  -15.0987   23.3957 C   0  0  0  0  0  0  0  0  0  0  0  0
    6.8981  -14.9809   24.8030 C   0  0  0  0  0  0  0  0  0  0  0  0
    7.2669  -15.9459   25.7043 C   0  0  0  0  0  0  0  0  0  0  0  0
    7.5951  -15.3678   26.8994 N   0  0  0  0  0  0  0  0  0  0  0  0
    7.4523  -14.0553   26.8048 C   0  0  0  0  0  0  0  0  0  0  0  0
    7.6362  -12.9725   27.6652 C   0  0  0  0  0  0  0  0  0  0  0  0
    7.4020  -11.6758   27.2597 C   0  0  0  0  0  0  0  0  0  0  0  0
    6.9752  -11.4093   25.9800 C   0  0  0  0  0  0  0  0  0  0  0  0
    6.7932  -12.4996   25.1246 C   0  0  0  0  0  0  0  0  0  0  0  0
    7.0293  -13.7888   25.5398 C   0  0  0  0  0  0  0  0  0  0  0  0
    8.6607  -16.0549   22.6988 C   0  0  0  0  0  0  0  0  0  0  0  0
    8.5533  -17.2362   22.2702 O   0  0  0  0  0  0  0  0  0  0  0  0
    9.8150  -15.7315   23.4646 N   0  0  0  0  0  0  0  0  0  0  0  0
   10.9406  -16.5941   23.7063 C   0  0  1  0  0  0  0  0  0  0  0  0
   12.2352  -15.9956   23.2967 C   0  0  0  0  0  0  0  0  0  0  0  0
   13.4203  -16.8521   23.6525 C   0  0  0  0  0  0  0  0  0  0  0  0
   14.6397  -16.4014   22.8818 C   0  0  0  0  0  0  0  0  0  0  0  0
   14.5855  -15.3862   22.1441 O   0  0  0  0  0  0  0  0  0  0  0  0
   10.8688  -17.1219   25.0807 C   0  0  0  0  0  0  0  0  0  0  0  0
   10.2599  -16.4782   26.1430 O   0  0  0  0  0  0  0  0  0  0  0  0
   15.8070  -17.1160   22.9985 O   0  0  0  0  0  0  0  0  0  0  0  0
   11.3882  -18.2329   25.3460 O   0  0  0  0  0  0  0  0  0  0  0  0
  1  2  1  0
  3  4  2  0
  3  2  1  0
  5  3  1  0
  6  5  1  0
  6  7  1  6
  8  7  1  0
  9  8  2  0
 10 11  1  0
 10  9  1  0
 11 16  2  0
 12 11  1  0
 12 13  2  0
 13 14  1  0
 14 15  2  0
 16  8  1  0
 16 15  1  0
 17 19  1  0
 17  6  1  0
 18 17  2  0
 20 25  1  0
 20 19  1  0
 20 21  1  1
 22 21  1  0
 23 22  1  0
 24 23  2  0
 25 26  1  0
 27 23  1  0
 28 25  2  0
M  END
$$$$
