GWE.pdb
     RDKit          3D

 28 29  0  0  1  0  0  0  0  0999 V2000
    6.6291  -17.5998   20.4116 N   0  0  0  0  0  0  0  0  0  0  0  0
    6.7006  -17.6367   21.8587 C   0  0  0  0  0  0  0  0  0  0  0  0
    7.9470  -16.9380   22.3351 C   0  0  0  0  0  0  0  0  0  0  0  0
    8.7448  -16.5453   21.4836 O   0  0  0  0  0  0  0  0  0  0  0  0
    8.2089  -16.7322   23.6926 N   0  0  0  0  0  0  0  0  0  0  0  0
    9.3695  -16.1734   24.2234 C   0  0  1  0  0  0  0  0  0  0  0  0
    9.2931  -15.3534   25.4890 C   0  0  0  0  0  0  0  0  0  0  0  0
    7.9523  -14.7948   25.7467 C   0  0  0  0  0  0  0  0  0  0  0  0
    6.7376  -15.4185   25.8696 C   0  0  0  0  0  0  0  0  0  0  0  0
    5.7609  -14.4940   26.1178 N   0  0  0  0  0  0  0  0  0  0  0  0
    6.3016  -13.2867   26.1613 C   0  0  0  0  0  0  0  0  0  0  0  0
    5.8251  -11.9930   26.3760 C   0  0  0  0  0  0  0  0  0  0  0  0
    6.6649  -10.8998   26.3665 C   0  0  0  0  0  0  0  0  0  0  0  0
    8.0128  -11.0549   26.1426 C   0  0  0  0  0  0  0  0  0  0  0  0
    8.4818  -12.3540   25.9283 C   0  0  0  0  0  0  0  0  0  0  0  0
    7.6351  -13.4371   25.9393 C   0  0  0  0  0  0  0  0  0  0  0  0
   10.6065  -16.9942   24.1572 C   0  0  0  0  0  0  0  0  0  0  0  0
   10.9578  -17.7235   25.1244 O   0  0  0  0  0  0  0  0  0  0  0  0
   11.4352  -16.9844   23.0011 N   0  0  0  0  0  0  0  0  0  0  0  0
   12.8727  -16.9297   22.9892 C   0  0  1  0  0  0  0  0  0  0  0  0
   13.4103  -15.8528   22.1215 C   0  0  0  0  0  0  0  0  0  0  0  0
   14.9060  -15.7139   22.2110 C   0  0  0  0  0  0  0  0  0  0  0  0
   15.5044  -15.6136   20.8268 C   0  0  0  0  0  0  0  0  0  0  0  0
   15.6109  -14.4977   20.2602 O   0  0  0  0  0  0  0  0  0  0  0  0
   13.3772  -16.9682   24.3737 C   0  0  0  0  0  0  0  0  0  0  0  0
   14.5040  -17.6573   24.7847 O   0  0  0  0  0  0  0  0  0  0  0  0
   15.9298  -16.7579   20.1971 O   0  0  0  0  0  0  0  0  0  0  0  0
   12.7654  -16.3439   25.2740 O   0  0  0  0  0  0  0  0  0  0  0  0
  1  2  1  0
  3  4  2  0
  3  2  1  0
  5  3  1  0
  6  5  1  0
  6  7  1  1
  8  7  1  0
  9  8  2  0
 10 11  1  0
 10  9  1  0
 11 16  2  0
 12 11  1  0
 12 13  2  0
 13 14  1  0
 14 15  2  0
 16  8  1  0
 16 15  1  0
 17 19  1  0
 17  6  1  0
 18 17  2  0
 20 25  1  0
 20 19  1  0
 20 21  1  1
 22 21  1  0
 23 22  1  0
 24 23  2  0
 25 26  1  0
 27 23  1  0
 28 25  2  0
M  END
$$$$
