GWE.pdb
     RDKit          3D

 28 29  0  0  1  0  0  0  0  0999 V2000
    8.7617  -18.6838   17.9679 N   0  0  0  0  0  0  0  0  0  0  0  0
    9.0478  -19.2871   19.2541 C   0  0  0  0  0  0  0  0  0  0  0  0
    9.7873  -18.3123   20.1323 C   0  0  0  0  0  0  0  0  0  0  0  0
   10.8308  -17.8256   19.6960 O   0  0  0  0  0  0  0  0  0  0  0  0
    9.3231  -17.9583   21.4023 N   0  0  0  0  0  0  0  0  0  0  0  0
    9.9506  -17.0813   22.2845 C   0  0  1  0  0  0  0  0  0  0  0  0
    9.1210  -16.1083   23.0876 C   0  0  0  0  0  0  0  0  0  0  0  0
    8.0614  -15.4504   22.2998 C   0  0  0  0  0  0  0  0  0  0  0  0
    6.7075  -15.6643   22.2769 C   0  0  0  0  0  0  0  0  0  0  0  0
    6.1139  -14.8064   21.3927 N   0  0  0  0  0  0  0  0  0  0  0  0
    7.0393  -14.0389   20.8388 C   0  0  0  0  0  0  0  0  0  0  0  0
    7.0411  -13.0077   19.8990 C   0  0  0  0  0  0  0  0  0  0  0  0
    8.2058  -12.3769   19.5166 C   0  0  0  0  0  0  0  0  0  0  0  0
    9.4138  -12.7505   20.0572 C   0  0  0  0  0  0  0  0  0  0  0  0
    9.4031  -13.7843   20.9977 C   0  0  0  0  0  0  0  0  0  0  0  0
    8.2357  -14.4069   21.3713 C   0  0  0  0  0  0  0  0  0  0  0  0
   11.1045  -17.6102   23.0572 C   0  0  0  0  0  0  0  0  0  0  0  0
   11.0526  -18.7398   23.6159 O   0  0  0  0  0  0  0  0  0  0  0  0
   12.3055  -16.8601   23.1924 N   0  0  0  0  0  0  0  0  0  0  0  0
   13.5321  -17.3235   23.7842 C   0  0  1  0  0  0  0  0  0  0  0  0
   14.7264  -16.5785   23.3150 C   0  0  0  0  0  0  0  0  0  0  0  0
   16.0133  -17.1009   23.8943 C   0  0  0  0  0  0  0  0  0  0  0  0
   17.1895  -16.3503   23.3135 C   0  0  0  0  0  0  0  0  0  0  0  0
   18.2677  -16.9477   23.0721 O   0  0  0  0  0  0  0  0  0  0  0  0
   13.3616  -17.4351   25.2441 C   0  0  0  0  0  0  0  0  0  0  0  0
   13.9321  -18.4178   26.0329 O   0  0  0  0  0  0  0  0  0  0  0  0
   17.0639  -15.0074   23.0534 O   0  0  0  0  0  0  0  0  0  0  0  0
   12.6527  -16.5965   25.8513 O   0  0  0  0  0  0  0  0  0  0  0  0
  1  2  1  0
  3  4  2  0
  3  2  1  0
  5  3  1  0
  6  5  1  0
  6  7  1  1
  8  7  1  0
  9  8  2  0
 10 11  1  0
 10  9  1  0
 11 16  2  0
 12 11  1  0
 12 13  2  0
 13 14  1  0
 14 15  2  0
 16  8  1  0
 16 15  1  0
 17 19  1  0
 17  6  1  0
 18 17  2  0
 20 25  1  0
 20 19  1  0
 20 21  1  1
 22 21  1  0
 23 22  1  0
 24 23  2  0
 25 26  1  0
 27 23  1  0
 28 25  2  0
M  END
$$$$
