GWE.pdb
     RDKit          3D

 28 29  0  0  1  0  0  0  0  0999 V2000
    8.5010  -12.6826   18.1193 N   0  0  0  0  0  0  0  0  0  0  0  0
    8.1038  -14.0103   18.5433 C   0  0  0  0  0  0  0  0  0  0  0  0
    8.3919  -14.1952   20.0100 C   0  0  0  0  0  0  0  0  0  0  0  0
    9.5128  -13.8886   20.4169 O   0  0  0  0  0  0  0  0  0  0  0  0
    7.4344  -14.6964   20.8965 N   0  0  0  0  0  0  0  0  0  0  0  0
    7.6298  -14.9425   22.2538 C   0  0  1  0  0  0  0  0  0  0  0  0
    6.4474  -14.9335   23.1928 C   0  0  0  0  0  0  0  0  0  0  0  0
    6.8292  -14.9047   24.6174 C   0  0  0  0  0  0  0  0  0  0  0  0
    7.1501  -15.9267   25.4730 C   0  0  0  0  0  0  0  0  0  0  0  0
    7.4496  -15.4244   26.7092 N   0  0  0  0  0  0  0  0  0  0  0  0
    7.3345  -14.1060   26.6857 C   0  0  0  0  0  0  0  0  0  0  0  0
    7.5103  -13.0778   27.6124 C   0  0  0  0  0  0  0  0  0  0  0  0
    7.3137  -11.7557   27.2749 C   0  0  0  0  0  0  0  0  0  0  0  0
    6.9342  -11.4081   25.9997 C   0  0  0  0  0  0  0  0  0  0  0  0
    6.7602  -12.4441   25.0777 C   0  0  0  0  0  0  0  0  0  0  0  0
    6.9584  -13.7594   25.4254 C   0  0  0  0  0  0  0  0  0  0  0  0
    8.6290  -15.9813   22.6154 C   0  0  0  0  0  0  0  0  0  0  0  0
    8.5109  -17.1694   22.2090 O   0  0  0  0  0  0  0  0  0  0  0  0
    9.7514  -15.6700   23.4319 N   0  0  0  0  0  0  0  0  0  0  0  0
   10.8993  -16.5093   23.6503 C   0  0  1  0  0  0  0  0  0  0  0  0
   12.1418  -15.9711   23.0435 C   0  0  0  0  0  0  0  0  0  0  0  0
   13.3552  -16.8104   23.3400 C   0  0  0  0  0  0  0  0  0  0  0  0
   14.5712  -16.2292   22.6563 C   0  0  0  0  0  0  0  0  0  0  0  0
   14.5544  -15.9936   21.4227 O   0  0  0  0  0  0  0  0  0  0  0  0
   10.9733  -16.8791   25.0753 C   0  0  0  0  0  0  0  0  0  0  0  0
   11.7447  -17.9080   25.5850 O   0  0  0  0  0  0  0  0  0  0  0  0
   15.6941  -15.9623   23.4010 O   0  0  0  0  0  0  0  0  0  0  0  0
   10.3001  -16.2379   25.9179 O   0  0  0  0  0  0  0  0  0  0  0  0
  1  2  1  0
  3  4  2  0
  3  2  1  0
  5  3  1  0
  6  5  1  0
  6  7  1  6
  8  7  1  0
  9  8  2  0
 10 11  1  0
 10  9  1  0
 11 16  2  0
 12 11  1  0
 12 13  2  0
 13 14  1  0
 14 15  2  0
 16  8  1  0
 16 15  1  0
 17 19  1  0
 17  6  1  0
 18 17  2  0
 20 25  1  0
 20 19  1  0
 20 21  1  1
 22 21  1  0
 23 22  1  0
 24 23  2  0
 25 26  1  0
 27 23  1  0
 28 25  2  0
M  END
$$$$
