GWE.pdb
     RDKit          3D

 28 29  0  0  1  0  0  0  0  0999 V2000
    6.4316  -15.0599   20.0992 N   0  0  0  0  0  0  0  0  0  0  0  0
    6.7581  -16.1790   20.9602 C   0  0  0  0  0  0  0  0  0  0  0  0
    7.9100  -15.8216   21.8623 C   0  0  0  0  0  0  0  0  0  0  0  0
    8.7929  -15.0960   21.4042 O   0  0  0  0  0  0  0  0  0  0  0  0
    7.9939  -16.2868   23.1777 N   0  0  0  0  0  0  0  0  0  0  0  0
    9.0570  -16.0722   24.0521 C   0  0  1  0  0  0  0  0  0  0  0  0
    8.7825  -15.8267   25.5165 C   0  0  0  0  0  0  0  0  0  0  0  0
    7.5665  -15.0278   25.7600 C   0  0  0  0  0  0  0  0  0  0  0  0
    6.2544  -15.4128   25.8586 C   0  0  0  0  0  0  0  0  0  0  0  0
    5.4649  -14.3230   26.1019 N   0  0  0  0  0  0  0  0  0  0  0  0
    6.2220  -13.2392   26.1657 C   0  0  0  0  0  0  0  0  0  0  0  0
    5.9936  -11.8806   26.3864 C   0  0  0  0  0  0  0  0  0  0  0  0
    7.0240  -10.9647   26.4005 C   0  0  0  0  0  0  0  0  0  0  0  0
    8.3222  -11.3689   26.1950 C   0  0  0  0  0  0  0  0  0  0  0  0
    8.5422  -12.7315   25.9744 C   0  0  0  0  0  0  0  0  0  0  0  0
    7.5070  -13.6360   25.9618 C   0  0  0  0  0  0  0  0  0  0  0  0
   10.2837  -16.8828   23.8367 C   0  0  0  0  0  0  0  0  0  0  0  0
   10.2268  -18.1390   23.7401 O   0  0  0  0  0  0  0  0  0  0  0  0
   11.5626  -16.2687   23.7324 N   0  0  0  0  0  0  0  0  0  0  0  0
   12.8237  -16.9514   23.6176 C   0  0  1  0  0  0  0  0  0  0  0  0
   13.8994  -16.1020   23.0492 C   0  0  0  0  0  0  0  0  0  0  0  0
   15.2139  -16.8229   22.9188 C   0  0  0  0  0  0  0  0  0  0  0  0
   16.2498  -15.9113   22.3023 C   0  0  0  0  0  0  0  0  0  0  0  0
   16.5431  -16.0145   21.0853 O   0  0  0  0  0  0  0  0  0  0  0  0
   13.1302  -17.6337   24.8877 C   0  0  0  0  0  0  0  0  0  0  0  0
   12.7848  -17.1616   26.1412 O   0  0  0  0  0  0  0  0  0  0  0  0
   16.8657  -14.9692   23.0896 O   0  0  0  0  0  0  0  0  0  0  0  0
   13.7504  -18.7244   24.8715 O   0  0  0  0  0  0  0  0  0  0  0  0
  1  2  1  0
  3  4  2  0
  3  2  1  0
  5  3  1  0
  6  5  1  0
  6  7  1  1
  8  7  1  0
  9  8  2  0
 10 11  1  0
 10  9  1  0
 11 16  2  0
 12 11  1  0
 12 13  2  0
 13 14  1  0
 14 15  2  0
 16  8  1  0
 16 15  1  0
 17 19  1  0
 17  6  1  0
 18 17  2  0
 20 25  1  0
 20 19  1  0
 20 21  1  1
 22 21  1  0
 23 22  1  0
 24 23  2  0
 25 26  1  0
 27 23  1  0
 28 25  2  0
M  END
$$$$
