GWE.pdb
     RDKit          3D

 28 29  0  0  1  0  0  0  0  0999 V2000
    6.5785  -16.8117   20.2281 N   0  0  0  0  0  0  0  0  0  0  0  0
    6.8710  -17.5014   21.4687 C   0  0  0  0  0  0  0  0  0  0  0  0
    7.9777  -16.7953   22.2071 C   0  0  0  0  0  0  0  0  0  0  0  0
    8.8052  -16.1732   21.5408 O   0  0  0  0  0  0  0  0  0  0  0  0
    8.0808  -16.8322   23.6006 N   0  0  0  0  0  0  0  0  0  0  0  0
    9.1331  -16.3166   24.3541 C   0  0  1  0  0  0  0  0  0  0  0  0
    8.8811  -15.8478   25.7671 C   0  0  0  0  0  0  0  0  0  0  0  0
    7.6078  -15.1200   25.9260 C   0  0  0  0  0  0  0  0  0  0  0  0
    6.3252  -15.5882   26.0495 C   0  0  0  0  0  0  0  0  0  0  0  0
    5.4565  -14.5408   26.1845 N   0  0  0  0  0  0  0  0  0  0  0  0
    6.1334  -13.4037   26.1535 C   0  0  0  0  0  0  0  0  0  0  0  0
    5.8055  -12.0507   26.2456 C   0  0  0  0  0  0  0  0  0  0  0  0
    6.7675  -11.0653   26.1828 C   0  0  0  0  0  0  0  0  0  0  0  0
    8.0941  -11.3916   26.0258 C   0  0  0  0  0  0  0  0  0  0  0  0
    8.4140  -12.7491   25.9342 C   0  0  0  0  0  0  0  0  0  0  0  0
    7.4462  -13.7236   25.9974 C   0  0  0  0  0  0  0  0  0  0  0  0
   10.4568  -16.9757   24.2064 C   0  0  0  0  0  0  0  0  0  0  0  0
   10.5745  -18.2286   24.2907 O   0  0  0  0  0  0  0  0  0  0  0  0
   11.6346  -16.2154   23.9653 N   0  0  0  0  0  0  0  0  0  0  0  0
   12.9593  -16.7427   23.7743 C   0  0  1  0  0  0  0  0  0  0  0  0
   13.9211  -15.7368   23.2596 C   0  0  0  0  0  0  0  0  0  0  0  0
   15.3267  -16.2638   23.1543 C   0  0  0  0  0  0  0  0  0  0  0  0
   16.0984  -15.4869   22.1127 C   0  0  0  0  0  0  0  0  0  0  0  0
   15.5756  -15.2213   21.0019 O   0  0  0  0  0  0  0  0  0  0  0  0
   13.3707  -17.4856   24.9792 C   0  0  0  0  0  0  0  0  0  0  0  0
   14.1846  -18.6041   24.9777 O   0  0  0  0  0  0  0  0  0  0  0  0
   17.3778  -15.0754   22.3965 O   0  0  0  0  0  0  0  0  0  0  0  0
   12.9722  -17.1069   26.1071 O   0  0  0  0  0  0  0  0  0  0  0  0
  1  2  1  0
  3  4  2  0
  3  2  1  0
  5  3  1  0
  6  5  1  0
  6  7  1  1
  8  7  1  0
  9  8  2  0
 10 11  1  0
 10  9  1  0
 11 16  2  0
 12 11  1  0
 12 13  2  0
 13 14  1  0
 14 15  2  0
 16  8  1  0
 16 15  1  0
 17 19  1  0
 17  6  1  0
 18 17  2  0
 20 25  1  0
 20 19  1  0
 20 21  1  1
 22 21  1  0
 23 22  1  0
 24 23  2  0
 25 26  1  0
 27 23  1  0
 28 25  2  0
M  END
$$$$
