GWE.pdb
     RDKit          3D

 28 29  0  0  1  0  0  0  0  0999 V2000
    6.2059  -17.9815   21.0686 N   0  0  0  0  0  0  0  0  0  0  0  0
    6.0191  -16.7206   21.7583 C   0  0  0  0  0  0  0  0  0  0  0  0
    7.3127  -16.2771   22.3894 C   0  0  0  0  0  0  0  0  0  0  0  0
    7.9559  -15.3956   21.8191 O   0  0  0  0  0  0  0  0  0  0  0  0
    7.7857  -16.8338   23.5811 N   0  0  0  0  0  0  0  0  0  0  0  0
    8.9690  -16.4873   24.2296 C   0  0  1  0  0  0  0  0  0  0  0  0
    8.9167  -15.9219   25.6287 C   0  0  0  0  0  0  0  0  0  0  0  0
    7.6719  -15.1851   25.9180 C   0  0  0  0  0  0  0  0  0  0  0  0
    6.3833  -15.6337   26.0509 C   0  0  0  0  0  0  0  0  0  0  0  0
    5.5504  -14.5858   26.3308 N   0  0  0  0  0  0  0  0  0  0  0  0
    6.2565  -13.4676   26.3853 C   0  0  0  0  0  0  0  0  0  0  0  0
    5.9703  -12.1241   26.6294 C   0  0  0  0  0  0  0  0  0  0  0  0
    6.9557  -11.1599   26.6241 C   0  0  0  0  0  0  0  0  0  0  0  0
    8.2649  -11.4990   26.3751 C   0  0  0  0  0  0  0  0  0  0  0  0
    8.5430  -12.8469   26.1314 C   0  0  0  0  0  0  0  0  0  0  0  0
    7.5522  -13.8000   26.1385 C   0  0  0  0  0  0  0  0  0  0  0  0
   10.1382  -17.3818   24.0263 C   0  0  0  0  0  0  0  0  0  0  0  0
   10.1358  -18.5667   24.4584 O   0  0  0  0  0  0  0  0  0  0  0  0
   11.2985  -16.9312   23.3379 N   0  0  0  0  0  0  0  0  0  0  0  0
   12.5669  -17.6077   23.2817 C   0  0  1  0  0  0  0  0  0  0  0  0
   13.4546  -17.0989   22.2072 C   0  0  0  0  0  0  0  0  0  0  0  0
   12.7369  -16.2285   21.2112 C   0  0  0  0  0  0  0  0  0  0  0  0
   13.6742  -15.8325   20.0937 C   0  0  0  0  0  0  0  0  0  0  0  0
   13.7023  -16.4915   19.0248 O   0  0  0  0  0  0  0  0  0  0  0  0
   13.1482  -17.6747   24.6347 C   0  0  0  0  0  0  0  0  0  0  0  0
   12.6709  -16.9844   25.7343 O   0  0  0  0  0  0  0  0  0  0  0  0
   14.4941  -14.7434   20.2623 O   0  0  0  0  0  0  0  0  0  0  0  0
   14.1514  -18.3989   24.8431 O   0  0  0  0  0  0  0  0  0  0  0  0
  1  2  1  0
  3  4  2  0
  3  2  1  0
  5  3  1  0
  6  5  1  0
  6  7  1  1
  8  7  1  0
  9  8  2  0
 10 11  1  0
 10  9  1  0
 11 16  2  0
 12 11  1  0
 12 13  2  0
 13 14  1  0
 14 15  2  0
 16  8  1  0
 16 15  1  0
 17 19  1  0
 17  6  1  0
 18 17  2  0
 20 25  1  0
 20 19  1  0
 20 21  1  6
 22 21  1  0
 23 22  1  0
 24 23  2  0
 25 26  1  0
 27 23  1  0
 28 25  2  0
M  END
$$$$
