GWE.pdb
     RDKit          3D

 28 29  0  0  1  0  0  0  0  0999 V2000
    6.7845  -15.2136   19.7874 N   0  0  0  0  0  0  0  0  0  0  0  0
    6.8491  -16.1373   20.9023 C   0  0  0  0  0  0  0  0  0  0  0  0
    7.9929  -15.7738   21.8124 C   0  0  0  0  0  0  0  0  0  0  0  0
    8.8610  -15.0215   21.3693 O   0  0  0  0  0  0  0  0  0  0  0  0
    8.0855  -16.2628   23.1186 N   0  0  0  0  0  0  0  0  0  0  0  0
    9.1383  -16.0339   24.0019 C   0  0  1  0  0  0  0  0  0  0  0  0
    8.8452  -15.7349   25.4526 C   0  0  0  0  0  0  0  0  0  0  0  0
    7.6037  -14.9640   25.6540 C   0  0  0  0  0  0  0  0  0  0  0  0
    6.2953  -15.3732   25.6693 C   0  0  0  0  0  0  0  0  0  0  0  0
    5.4744  -14.3047   25.9025 N   0  0  0  0  0  0  0  0  0  0  0  0
    6.2074  -13.2112   26.0404 C   0  0  0  0  0  0  0  0  0  0  0  0
    5.9430  -11.8641   26.2898 C   0  0  0  0  0  0  0  0  0  0  0  0
    6.9544  -10.9325   26.3878 C   0  0  0  0  0  0  0  0  0  0  0  0
    8.2689  -11.3088   26.2409 C   0  0  0  0  0  0  0  0  0  0  0  0
    8.5250  -12.6599   25.9911 C   0  0  0  0  0  0  0  0  0  0  0  0
    7.5084  -13.5804   25.8947 C   0  0  0  0  0  0  0  0  0  0  0  0
   10.3559  -16.8690   23.8333 C   0  0  0  0  0  0  0  0  0  0  0  0
   10.2823  -18.1271   23.7845 O   0  0  0  0  0  0  0  0  0  0  0  0
   11.6445  -16.2770   23.7215 N   0  0  0  0  0  0  0  0  0  0  0  0
   12.8859  -16.9787   23.5316 C   0  0  1  0  0  0  0  0  0  0  0  0
   13.9609  -16.1246   22.9689 C   0  0  0  0  0  0  0  0  0  0  0  0
   15.2354  -16.8789   22.7022 C   0  0  0  0  0  0  0  0  0  0  0  0
   16.2690  -15.9585   22.0950 C   0  0  0  0  0  0  0  0  0  0  0  0
   17.2901  -15.6308   22.7489 O   0  0  0  0  0  0  0  0  0  0  0  0
   13.2187  -17.7285   24.7563 C   0  0  0  0  0  0  0  0  0  0  0  0
   13.8658  -18.9507   24.7827 O   0  0  0  0  0  0  0  0  0  0  0  0
   16.0771  -15.4853   20.8198 O   0  0  0  0  0  0  0  0  0  0  0  0
   12.9067  -17.2563   25.8762 O   0  0  0  0  0  0  0  0  0  0  0  0
  1  2  1  0
  3  4  2  0
  3  2  1  0
  5  3  1  0
  6  5  1  0
  6  7  1  1
  8  7  1  0
  9  8  2  0
 10 11  1  0
 10  9  1  0
 11 16  2  0
 12 11  1  0
 12 13  2  0
 13 14  1  0
 14 15  2  0
 16  8  1  0
 16 15  1  0
 17 19  1  0
 17  6  1  0
 18 17  2  0
 20 25  1  0
 20 19  1  0
 20 21  1  1
 22 21  1  0
 23 22  1  0
 24 23  2  0
 25 26  1  0
 27 23  1  0
 28 25  2  0
M  END
$$$$
