GWE.pdb
     RDKit          3D

 28 29  0  0  1  0  0  0  0  0999 V2000
    5.9698  -15.0206   20.8993 N   0  0  0  0  0  0  0  0  0  0  0  0
    6.7958  -16.1790   21.1753 C   0  0  0  0  0  0  0  0  0  0  0  0
    7.9465  -15.7956   22.0682 C   0  0  0  0  0  0  0  0  0  0  0  0
    8.7789  -15.0053   21.6227 O   0  0  0  0  0  0  0  0  0  0  0  0
    8.0842  -16.3076   23.3615 N   0  0  0  0  0  0  0  0  0  0  0  0
    9.1680  -16.0959   24.2110 C   0  0  1  0  0  0  0  0  0  0  0  0
    8.9250  -15.7183   25.6527 C   0  0  0  0  0  0  0  0  0  0  0  0
    7.6457  -15.0160   25.8681 C   0  0  0  0  0  0  0  0  0  0  0  0
    6.3716  -15.5067   25.9918 C   0  0  0  0  0  0  0  0  0  0  0  0
    5.4924  -14.4785   26.1914 N   0  0  0  0  0  0  0  0  0  0  0  0
    6.1542  -13.3323   26.2023 C   0  0  0  0  0  0  0  0  0  0  0  0
    5.8109  -11.9897   26.3641 C   0  0  0  0  0  0  0  0  0  0  0  0
    6.7592  -10.9895   26.3311 C   0  0  0  0  0  0  0  0  0  0  0  0
    8.0867  -11.2902   26.1357 C   0  0  0  0  0  0  0  0  0  0  0  0
    8.4220  -12.6375   25.9743 C   0  0  0  0  0  0  0  0  0  0  0  0
    7.4679  -13.6268   26.0083 C   0  0  0  0  0  0  0  0  0  0  0  0
   10.3365  -17.0005   24.0544 C   0  0  0  0  0  0  0  0  0  0  0  0
   10.2520  -18.2286   24.3288 O   0  0  0  0  0  0  0  0  0  0  0  0
   11.5888  -16.5112   23.5901 N   0  0  0  0  0  0  0  0  0  0  0  0
   12.8541  -17.1881   23.6930 C   0  0  1  0  0  0  0  0  0  0  0  0
   13.9032  -16.6035   22.8216 C   0  0  0  0  0  0  0  0  0  0  0  0
   13.5137  -16.5721   21.3684 C   0  0  0  0  0  0  0  0  0  0  0  0
   14.1488  -15.3838   20.6837 C   0  0  0  0  0  0  0  0  0  0  0  0
   15.3788  -15.3800   20.4292 O   0  0  0  0  0  0  0  0  0  0  0  0
   13.2045  -17.3608   25.1143 C   0  0  0  0  0  0  0  0  0  0  0  0
   12.4937  -16.8259   26.1736 O   0  0  0  0  0  0  0  0  0  0  0  0
   13.3639  -14.3091   20.3438 O   0  0  0  0  0  0  0  0  0  0  0  0
   14.2161  -18.0347   25.4258 O   0  0  0  0  0  0  0  0  0  0  0  0
  1  2  1  0
  3  4  2  0
  3  2  1  0
  5  3  1  0
  6  5  1  0
  6  7  1  1
  8  7  1  0
  9  8  2  0
 10 11  1  0
 10  9  1  0
 11 16  2  0
 12 11  1  0
 12 13  2  0
 13 14  1  0
 14 15  2  0
 16  8  1  0
 16 15  1  0
 17 19  1  0
 17  6  1  0
 18 17  2  0
 20 25  1  0
 20 19  1  0
 20 21  1  6
 22 21  1  0
 23 22  1  0
 24 23  2  0
 25 26  1  0
 27 23  1  0
 28 25  2  0
M  END
$$$$
