GWE.pdb
     RDKit          3D

 28 29  0  0  1  0  0  0  0  0999 V2000
    6.4714  -15.7808   20.1266 N   0  0  0  0  0  0  0  0  0  0  0  0
    6.8057  -16.7200   21.1784 C   0  0  0  0  0  0  0  0  0  0  0  0
    7.9523  -16.1928   22.0005 C   0  0  0  0  0  0  0  0  0  0  0  0
    8.8257  -15.5486   21.4191 O   0  0  0  0  0  0  0  0  0  0  0  0
    8.0418  -16.4159   23.3775 N   0  0  0  0  0  0  0  0  0  0  0  0
    9.1148  -16.0622   24.1926 C   0  0  1  0  0  0  0  0  0  0  0  0
    8.8600  -15.6205   25.6138 C   0  0  0  0  0  0  0  0  0  0  0  0
    7.5876  -14.8937   25.7836 C   0  0  0  0  0  0  0  0  0  0  0  0
    6.2961  -15.3533   25.7990 C   0  0  0  0  0  0  0  0  0  0  0  0
    5.4320  -14.3119   25.9960 N   0  0  0  0  0  0  0  0  0  0  0  0
    6.1205  -13.1872   26.1104 C   0  0  0  0  0  0  0  0  0  0  0  0
    5.8015  -11.8453   26.3208 C   0  0  0  0  0  0  0  0  0  0  0  0
    6.7749  -10.8724   26.4020 C   0  0  0  0  0  0  0  0  0  0  0  0
    8.1043  -11.2007   26.2765 C   0  0  0  0  0  0  0  0  0  0  0  0
    8.4152  -12.5470   26.0657 C   0  0  0  0  0  0  0  0  0  0  0  0
    7.4362  -13.5089   25.9858 C   0  0  0  0  0  0  0  0  0  0  0  0
   10.3544  -16.8722   24.0676 C   0  0  0  0  0  0  0  0  0  0  0  0
   10.3254  -18.1290   24.1695 O   0  0  0  0  0  0  0  0  0  0  0  0
   11.6146  -16.2569   23.8290 N   0  0  0  0  0  0  0  0  0  0  0  0
   12.8774  -16.9338   23.7006 C   0  0  1  0  0  0  0  0  0  0  0  0
   13.8937  -16.1422   22.9642 C   0  0  0  0  0  0  0  0  0  0  0  0
   15.1967  -16.8737   22.7866 C   0  0  0  0  0  0  0  0  0  0  0  0
   16.1916  -15.9981   22.0602 C   0  0  0  0  0  0  0  0  0  0  0  0
   16.6478  -14.9646   22.6092 O   0  0  0  0  0  0  0  0  0  0  0  0
   13.2861  -17.4644   25.0137 C   0  0  0  0  0  0  0  0  0  0  0  0
   14.0785  -18.5825   25.2018 O   0  0  0  0  0  0  0  0  0  0  0  0
   16.5901  -16.3471   20.7929 O   0  0  0  0  0  0  0  0  0  0  0  0
   12.9055  -16.8876   26.0611 O   0  0  0  0  0  0  0  0  0  0  0  0
  1  2  1  0
  3  4  2  0
  3  2  1  0
  5  3  1  0
  6  5  1  0
  6  7  1  1
  8  7  1  0
  9  8  2  0
 10 11  1  0
 10  9  1  0
 11 16  2  0
 12 11  1  0
 12 13  2  0
 13 14  1  0
 14 15  2  0
 16  8  1  0
 16 15  1  0
 17 19  1  0
 17  6  1  0
 18 17  2  0
 20 25  1  0
 20 19  1  0
 20 21  1  1
 22 21  1  0
 23 22  1  0
 24 23  2  0
 25 26  1  0
 27 23  1  0
 28 25  2  0
M  END
$$$$
