GWE.pdb
     RDKit          3D

 28 29  0  0  1  0  0  0  0  0999 V2000
    5.3839  -18.6540   22.1015 N   0  0  0  0  0  0  0  0  0  0  0  0
    6.5155  -19.1975   22.8257 C   0  0  0  0  0  0  0  0  0  0  0  0
    7.5269  -18.1151   23.0972 C   0  0  0  0  0  0  0  0  0  0  0  0
    7.9853  -17.5039   22.1316 O   0  0  0  0  0  0  0  0  0  0  0  0
    7.9452  -17.7990   24.3929 N   0  0  0  0  0  0  0  0  0  0  0  0
    8.9828  -16.9309   24.7256 C   0  0  1  0  0  0  0  0  0  0  0  0
    8.8353  -16.0102   25.9132 C   0  0  0  0  0  0  0  0  0  0  0  0
    7.5502  -15.2863   25.9388 C   0  0  0  0  0  0  0  0  0  0  0  0
    6.2647  -15.7581   26.0044 C   0  0  0  0  0  0  0  0  0  0  0  0
    5.3832  -14.7127   26.0134 N   0  0  0  0  0  0  0  0  0  0  0  0
    6.0545  -13.5733   25.9565 C   0  0  0  0  0  0  0  0  0  0  0  0
    5.7138  -12.2205   25.9401 C   0  0  0  0  0  0  0  0  0  0  0  0
    6.6726  -11.2317   25.8804 C   0  0  0  0  0  0  0  0  0  0  0  0
    8.0086  -11.5544   25.8349 C   0  0  0  0  0  0  0  0  0  0  0  0
    8.3412  -12.9118   25.8514 C   0  0  0  0  0  0  0  0  0  0  0  0
    7.3766  -13.8897   25.9105 C   0  0  0  0  0  0  0  0  0  0  0  0
   10.3688  -17.4472   24.5813 C   0  0  0  0  0  0  0  0  0  0  0  0
   10.7036  -18.5616   25.0679 O   0  0  0  0  0  0  0  0  0  0  0  0
   11.3635  -16.7017   23.8897 N   0  0  0  0  0  0  0  0  0  0  0  0
   12.7156  -17.1231   23.6372 C   0  0  1  0  0  0  0  0  0  0  0  0
   13.3841  -16.3372   22.5708 C   0  0  0  0  0  0  0  0  0  0  0  0
   14.8082  -16.7599   22.3306 C   0  0  0  0  0  0  0  0  0  0  0  0
   15.4027  -15.9659   21.1903 C   0  0  0  0  0  0  0  0  0  0  0  0
   16.1650  -14.9948   21.4220 O   0  0  0  0  0  0  0  0  0  0  0  0
   13.4401  -17.2412   24.9155 C   0  0  0  0  0  0  0  0  0  0  0  0
   14.4205  -18.1795   25.1837 O   0  0  0  0  0  0  0  0  0  0  0  0
   15.0988  -16.3200   19.8984 O   0  0  0  0  0  0  0  0  0  0  0  0
   13.1746  -16.4516   25.8538 O   0  0  0  0  0  0  0  0  0  0  0  0
  1  2  1  0
  3  4  2  0
  3  2  1  0
  5  3  1  0
  6  5  1  0
  6  7  1  1
  8  7  1  0
  9  8  2  0
 10 11  1  0
 10  9  1  0
 11 16  2  0
 12 11  1  0
 12 13  2  0
 13 14  1  0
 14 15  2  0
 16  8  1  0
 16 15  1  0
 17 19  1  0
 17  6  1  0
 18 17  2  0
 20 25  1  0
 20 19  1  0
 20 21  1  6
 22 21  1  0
 23 22  1  0
 24 23  2  0
 25 26  1  0
 27 23  1  0
 28 25  2  0
M  END
$$$$
