MGW.pdb
     RDKit          3D

 27 28  0  0  1  0  0  0  0  0999 V2000
   30.7505  -19.0109  -20.4359 C   0  0  0  0  0  0  0  0  0  0  0  0
   30.4187  -17.3174  -20.9172 S   0  0  0  0  0  0  0  0  0  0  0  0
   28.9540  -16.6124  -20.1680 C   0  0  0  0  0  0  0  0  0  0  0  0
   28.9349  -16.7150  -18.6553 C   0  0  0  0  0  0  0  0  0  0  0  0
   27.9237  -17.8041  -18.2767 C   0  0  2  0  0  0  0  0  0  0  0  0
   26.6124  -17.2546  -18.4646 N   0  0  0  0  0  0  0  0  0  0  0  0
   28.0950  -18.1555  -16.8227 C   0  0  0  0  0  0  0  0  0  0  0  0
   29.1208  -18.7428  -16.4221 O   0  0  0  0  0  0  0  0  0  0  0  0
   27.0993  -17.8302  -15.8579 N   0  0  0  0  0  0  0  0  0  0  0  0
   27.1718  -18.1650  -14.4794 C   0  0  0  0  0  0  0  0  0  0  0  0
   26.7262  -19.4839  -14.0771 C   0  0  0  0  0  0  0  0  0  0  0  0
   26.1849  -20.2173  -14.9517 O   0  0  0  0  0  0  0  0  0  0  0  0
   26.8595  -20.0025  -12.7740 N   0  0  0  0  0  0  0  0  0  0  0  0
   26.5556  -21.3765  -12.4629 C   0  0  1  0  0  0  0  0  0  0  0  0
   26.9912  -21.8819  -11.1390 C   0  0  0  0  0  0  0  0  0  0  0  0
   26.5241  -21.1278   -9.9744 C   0  0  0  0  0  0  0  0  0  0  0  0
   25.3305  -20.5419   -9.6695 C   0  0  0  0  0  0  0  0  0  0  0  0
   25.4294  -19.9645   -8.4490 N   0  0  0  0  0  0  0  0  0  0  0  0
   26.6402  -20.1531   -7.9501 C   0  0  0  0  0  0  0  0  0  0  0  0
   27.2415  -19.7688   -6.7587 C   0  0  0  0  0  0  0  0  0  0  0  0
   28.5467  -20.1220   -6.5273 C   0  0  0  0  0  0  0  0  0  0  0  0
   29.2596  -20.8406   -7.4420 C   0  0  0  0  0  0  0  0  0  0  0  0
   28.6490  -21.2213   -8.6321 C   0  0  0  0  0  0  0  0  0  0  0  0
   27.3489  -20.8703   -8.8657 C   0  0  0  0  0  0  0  0  0  0  0  0
   25.0520  -21.5195  -12.5606 C   0  0  0  0  0  0  0  0  0  0  0  0
   24.5664  -22.6488  -12.7018 O   0  0  0  0  0  0  0  0  0  0  0  0
   24.2246  -20.4100  -12.4952 O   0  0  0  0  0  0  0  0  0  0  0  0
  2  3  1  0
  2  1  1  0
  4  5  1  0
  4  3  1  0
  5  6  1  1
  5  7  1  0
  7  8  2  0
  9  7  1  0
  9 10  1  0
 11 10  1  0
 11 12  2  0
 13 11  1  0
 14 13  1  0
 14 15  1  1
 16 17  2  0
 16 15  1  0
 18 17  1  0
 19 24  2  0
 19 18  1  0
 20 19  1  0
 21 22  1  0
 21 20  2  0
 22 23  2  0
 23 24  1  0
 24 16  1  0
 25 14  1  0
 26 25  2  0
 27 25  1  0
M  END
$$$$
