MGW.pdb
     RDKit          3D

 27 28  0  0  1  0  0  0  0  0999 V2000
   25.9845  -14.1527  -15.0550 C   0  0  0  0  0  0  0  0  0  0  0  0
   26.2531  -15.6674  -14.1366 S   0  0  0  0  0  0  0  0  0  0  0  0
   25.3703  -17.0852  -14.7802 C   0  0  0  0  0  0  0  0  0  0  0  0
   25.6185  -18.3617  -14.0005 C   0  0  0  0  0  0  0  0  0  0  0  0
   27.1000  -18.7238  -14.1623 C   0  0  2  0  0  0  0  0  0  0  0  0
   27.3304  -18.9709  -15.5561 N   0  0  0  0  0  0  0  0  0  0  0  0
   27.3880  -19.9868  -13.3950 C   0  0  0  0  0  0  0  0  0  0  0  0
   26.6690  -20.9978  -13.5321 O   0  0  0  0  0  0  0  0  0  0  0  0
   28.4859  -20.0732  -12.4921 N   0  0  0  0  0  0  0  0  0  0  0  0
   28.7432  -21.1787  -11.6383 C   0  0  0  0  0  0  0  0  0  0  0  0
   27.8216  -21.4220  -10.5468 C   0  0  0  0  0  0  0  0  0  0  0  0
   28.1244  -22.3141   -9.7052 O   0  0  0  0  0  0  0  0  0  0  0  0
   26.6104  -20.7266  -10.3618 N   0  0  0  0  0  0  0  0  0  0  0  0
   25.6610  -21.1012   -9.3442 C   0  0  1  0  0  0  0  0  0  0  0  0
   25.5183  -20.1888   -8.1845 C   0  0  0  0  0  0  0  0  0  0  0  0
   26.7443  -19.5363   -7.7214 C   0  0  0  0  0  0  0  0  0  0  0  0
   27.5224  -18.5480   -8.2493 C   0  0  0  0  0  0  0  0  0  0  0  0
   28.5566  -18.3134   -7.4077 N   0  0  0  0  0  0  0  0  0  0  0  0
   28.4796  -19.1105   -6.3546 C   0  0  0  0  0  0  0  0  0  0  0  0
   29.2771  -19.2678   -5.2285 C   0  0  0  0  0  0  0  0  0  0  0  0
   28.9276  -20.2061   -4.2908 C   0  0  0  0  0  0  0  0  0  0  0  0
   27.8163  -20.9824   -4.4445 C   0  0  0  0  0  0  0  0  0  0  0  0
   27.0236  -20.8176   -5.5753 C   0  0  0  0  0  0  0  0  0  0  0  0
   27.3696  -19.8840   -6.5115 C   0  0  0  0  0  0  0  0  0  0  0  0
   24.3170  -21.2205  -10.0298 C   0  0  0  0  0  0  0  0  0  0  0  0
   24.2169  -20.8761  -11.2141 O   0  0  0  0  0  0  0  0  0  0  0  0
   23.2107  -21.7050   -9.3507 O   0  0  0  0  0  0  0  0  0  0  0  0
  2  3  1  0
  2  1  1  0
  4  5  1  0
  4  3  1  0
  5  6  1  6
  5  7  1  0
  7  8  2  0
  9  7  1  0
  9 10  1  0
 11 10  1  0
 11 12  2  0
 13 11  1  0
 14 13  1  0
 14 15  1  1
 16 17  2  0
 16 15  1  0
 18 17  1  0
 19 24  2  0
 19 18  1  0
 20 19  1  0
 21 22  1  0
 21 20  2  0
 22 23  2  0
 23 24  1  0
 24 16  1  0
 25 14  1  0
 26 25  2  0
 27 25  1  0
M  END
$$$$
