MGW.pdb
     RDKit          3D

 27 28  0  0  1  0  0  0  0  0999 V2000
   24.5957  -13.3555  -16.4103 C   0  0  0  0  0  0  0  0  0  0  0  0
   25.6024  -14.7957  -16.0611 S   0  0  0  0  0  0  0  0  0  0  0  0
   25.3884  -15.4619  -14.4137 C   0  0  0  0  0  0  0  0  0  0  0  0
   26.3040  -16.6307  -14.1064 C   0  0  0  0  0  0  0  0  0  0  0  0
   26.6837  -17.2860  -15.4400 C   0  0  2  0  0  0  0  0  0  0  0  0
   25.6446  -18.2176  -15.7703 N   0  0  0  0  0  0  0  0  0  0  0  0
   27.9738  -18.0435  -15.2703 C   0  0  0  0  0  0  0  0  0  0  0  0
   28.8912  -17.5940  -14.5532 O   0  0  0  0  0  0  0  0  0  0  0  0
   28.1914  -19.2937  -15.9166 N   0  0  0  0  0  0  0  0  0  0  0  0
   27.4416  -20.4735  -15.6645 C   0  0  0  0  0  0  0  0  0  0  0  0
   27.6590  -21.1599  -14.4069 C   0  0  0  0  0  0  0  0  0  0  0  0
   28.4181  -22.1697  -14.4082 O   0  0  0  0  0  0  0  0  0  0  0  0
   27.0805  -20.7729  -13.1820 N   0  0  0  0  0  0  0  0  0  0  0  0
   26.2128  -21.6487  -12.4355 C   0  0  1  0  0  0  0  0  0  0  0  0
   26.6486  -22.0287  -11.0703 C   0  0  0  0  0  0  0  0  0  0  0  0
   26.5141  -20.9981  -10.0393 C   0  0  0  0  0  0  0  0  0  0  0  0
   25.6239  -19.9802   -9.8592 C   0  0  0  0  0  0  0  0  0  0  0  0
   25.9528  -19.3106   -8.7295 N   0  0  0  0  0  0  0  0  0  0  0  0
   27.0210  -19.8544   -8.1695 C   0  0  0  0  0  0  0  0  0  0  0  0
   27.7461  -19.5498   -7.0249 C   0  0  0  0  0  0  0  0  0  0  0  0
   28.8365  -20.3178   -6.7033 C   0  0  0  0  0  0  0  0  0  0  0  0
   29.2180  -21.3696   -7.4840 C   0  0  0  0  0  0  0  0  0  0  0  0
   28.4855  -21.6672   -8.6282 C   0  0  0  0  0  0  0  0  0  0  0  0
   27.3991  -20.9036   -8.9514 C   0  0  0  0  0  0  0  0  0  0  0  0
   24.8747  -20.9487  -12.3351 C   0  0  0  0  0  0  0  0  0  0  0  0
   24.2827  -20.9426  -11.2485 O   0  0  0  0  0  0  0  0  0  0  0  0
   24.3129  -20.3231  -13.4364 O   0  0  0  0  0  0  0  0  0  0  0  0
  2  3  1  0
  2  1  1  0
  4  5  1  0
  4  3  1  0
  5  6  1  1
  5  7  1  0
  7  8  2  0
  9  7  1  0
  9 10  1  0
 11 10  1  0
 11 12  2  0
 13 11  1  0
 14 13  1  0
 14 15  1  1
 16 17  2  0
 16 15  1  0
 18 17  1  0
 19 24  2  0
 19 18  1  0
 20 19  1  0
 21 22  1  0
 21 20  2  0
 22 23  2  0
 23 24  1  0
 24 16  1  0
 25 14  1  0
 26 25  2  0
 27 25  1  0
M  END
$$$$
