MGW.pdb
     RDKit          3D

 27 28  0  0  1  0  0  0  0  0999 V2000
   26.9108  -17.8861  -19.7297 C   0  0  0  0  0  0  0  0  0  0  0  0
   26.4407  -19.6106  -19.8518 S   0  0  0  0  0  0  0  0  0  0  0  0
   25.2531  -20.1391  -18.6214 C   0  0  0  0  0  0  0  0  0  0  0  0
   25.5007  -19.5522  -17.2455 C   0  0  0  0  0  0  0  0  0  0  0  0
   26.7995  -20.1642  -16.7065 C   0  0  2  0  0  0  0  0  0  0  0  0
   26.6564  -21.5901  -16.7629 N   0  0  0  0  0  0  0  0  0  0  0  0
   26.9811  -19.7547  -15.2691 C   0  0  0  0  0  0  0  0  0  0  0  0
   26.4269  -18.7306  -14.8197 O   0  0  0  0  0  0  0  0  0  0  0  0
   27.7854  -20.5180  -14.3755 N   0  0  0  0  0  0  0  0  0  0  0  0
   27.9886  -20.2047  -13.0050 C   0  0  0  0  0  0  0  0  0  0  0  0
   27.1017  -20.8100  -12.0319 C   0  0  0  0  0  0  0  0  0  0  0  0
   26.2378  -21.6313  -12.4499 O   0  0  0  0  0  0  0  0  0  0  0  0
   27.1420  -20.5437  -10.6490 N   0  0  0  0  0  0  0  0  0  0  0  0
   26.3807  -21.3152   -9.6992 C   0  0  1  0  0  0  0  0  0  0  0  0
   26.9686  -21.4971   -8.3504 C   0  0  0  0  0  0  0  0  0  0  0  0
   27.2902  -20.2724   -7.6156 C   0  0  0  0  0  0  0  0  0  0  0  0
   26.9301  -18.9681   -7.7887 C   0  0  0  0  0  0  0  0  0  0  0  0
   27.5115  -18.2246   -6.8181 N   0  0  0  0  0  0  0  0  0  0  0  0
   28.2342  -18.9956   -6.0220 C   0  0  0  0  0  0  0  0  0  0  0  0
   29.0137  -18.7310   -4.9035 C   0  0  0  0  0  0  0  0  0  0  0  0
   29.6602  -19.7691   -4.2817 C   0  0  0  0  0  0  0  0  0  0  0  0
   29.5505  -21.0492   -4.7405 C   0  0  0  0  0  0  0  0  0  0  0  0
   28.7674  -21.3045   -5.8612 C   0  0  0  0  0  0  0  0  0  0  0  0
   28.1227  -20.2723   -6.4830 C   0  0  0  0  0  0  0  0  0  0  0  0
   25.0440  -20.6209   -9.5508 C   0  0  0  0  0  0  0  0  0  0  0  0
   24.9378  -19.4433   -9.9156 O   0  0  0  0  0  0  0  0  0  0  0  0
   23.9516  -21.2842   -9.0154 O   0  0  0  0  0  0  0  0  0  0  0  0
  2  3  1  0
  2  1  1  0
  4  5  1  0
  4  3  1  0
  5  6  1  1
  5  7  1  0
  7  8  2  0
  9  7  1  0
  9 10  1  0
 11 10  1  0
 11 12  2  0
 13 11  1  0
 14 13  1  0
 14 15  1  1
 16 17  2  0
 16 15  1  0
 18 17  1  0
 19 24  2  0
 19 18  1  0
 20 19  1  0
 21 22  1  0
 21 20  2  0
 22 23  2  0
 23 24  1  0
 24 16  1  0
 25 14  1  0
 26 25  2  0
 27 25  1  0
M  END
$$$$
