MGW.pdb
     RDKit          3D

 27 28  0  0  1  0  0  0  0  0999 V2000
   27.0384  -24.2543  -16.9950 C   0  0  0  0  0  0  0  0  0  0  0  0
   27.8251  -25.6056  -17.8694 S   0  0  0  0  0  0  0  0  0  0  0  0
   26.8517  -27.1062  -17.9350 C   0  0  0  0  0  0  0  0  0  0  0  0
   27.6855  -28.3682  -18.0402 C   0  0  0  0  0  0  0  0  0  0  0  0
   27.3774  -29.0165  -19.3955 C   0  0  2  0  0  0  0  0  0  0  0  0
   26.0825  -29.6246  -19.2945 N   0  0  0  0  0  0  0  0  0  0  0  0
   28.3943  -30.0916  -19.6730 C   0  0  0  0  0  0  0  0  0  0  0  0
   28.0804  -31.2986  -19.6233 O   0  0  0  0  0  0  0  0  0  0  0  0
   29.7423  -29.7715  -20.0024 N   0  0  0  0  0  0  0  0  0  0  0  0
   30.7243  -30.7203  -20.3934 C   0  0  0  0  0  0  0  0  0  0  0  0
   30.9976  -31.8237  -19.4947 C   0  0  0  0  0  0  0  0  0  0  0  0
   32.0905  -32.4420  -19.6331 O   0  0  0  0  0  0  0  0  0  0  0  0
   30.1245  -32.2505  -18.4748 N   0  0  0  0  0  0  0  0  0  0  0  0
   30.6089  -32.7936  -17.2309 C   0  0  1  0  0  0  0  0  0  0  0  0
   29.9344  -32.3448  -15.9893 C   0  0  0  0  0  0  0  0  0  0  0  0
   28.4921  -32.5846  -15.9152 C   0  0  0  0  0  0  0  0  0  0  0  0
   27.7463  -33.7245  -15.8430 C   0  0  0  0  0  0  0  0  0  0  0  0
   26.4368  -33.3843  -15.7948 N   0  0  0  0  0  0  0  0  0  0  0  0
   26.3040  -32.0685  -15.8324 C   0  0  0  0  0  0  0  0  0  0  0  0
   25.1973  -31.2298  -15.8132 C   0  0  0  0  0  0  0  0  0  0  0  0
   25.3892  -29.8726  -15.8704 C   0  0  0  0  0  0  0  0  0  0  0  0
   26.6413  -29.3361  -15.9450 C   0  0  0  0  0  0  0  0  0  0  0  0
   27.7437  -30.1840  -15.9634 C   0  0  0  0  0  0  0  0  0  0  0  0
   27.5555  -31.5365  -15.9071 C   0  0  0  0  0  0  0  0  0  0  0  0
   30.4739  -34.2976  -17.3341 C   0  0  0  0  0  0  0  0  0  0  0  0
   31.0761  -35.0095  -16.5207 O   0  0  0  0  0  0  0  0  0  0  0  0
   29.6921  -34.8772  -18.3203 O   0  0  0  0  0  0  0  0  0  0  0  0
  2  3  1  0
  2  1  1  0
  4  5  1  0
  4  3  1  0
  5  6  1  1
  5  7  1  0
  7  8  2  0
  9  7  1  0
  9 10  1  0
 11 10  1  0
 11 12  2  0
 13 11  1  0
 14 13  1  0
 14 15  1  1
 16 17  2  0
 16 15  1  0
 18 17  1  0
 19 24  2  0
 19 18  1  0
 20 19  1  0
 21 22  1  0
 21 20  2  0
 22 23  2  0
 23 24  1  0
 24 16  1  0
 25 14  1  0
 26 25  2  0
 27 25  1  0
M  END
$$$$
