MGW.pdb
     RDKit          3D

 27 28  0  0  1  0  0  0  0  0999 V2000
   28.7107  -14.4539  -20.3397 C   0  0  0  0  0  0  0  0  0  0  0  0
   27.6808  -15.7943  -20.9332 S   0  0  0  0  0  0  0  0  0  0  0  0
   26.5601  -16.4605  -19.7068 C   0  0  0  0  0  0  0  0  0  0  0  0
   27.1730  -16.5833  -18.3255 C   0  0  0  0  0  0  0  0  0  0  0  0
   26.8610  -17.9909  -17.8026 C   0  0  2  0  0  0  0  0  0  0  0  0
   25.4459  -18.1891  -17.9255 N   0  0  0  0  0  0  0  0  0  0  0  0
   27.2342  -18.0725  -16.3463 C   0  0  0  0  0  0  0  0  0  0  0  0
   28.4307  -18.0815  -15.9910 O   0  0  0  0  0  0  0  0  0  0  0  0
   26.2411  -18.1400  -15.3278 N   0  0  0  0  0  0  0  0  0  0  0  0
   26.5122  -18.3479  -13.9492 C   0  0  0  0  0  0  0  0  0  0  0  0
   25.9873  -19.5472  -13.3277 C   0  0  0  0  0  0  0  0  0  0  0  0
   25.6642  -20.5096  -14.0795 O   0  0  0  0  0  0  0  0  0  0  0  0
   25.8159  -19.7105  -11.9389 N   0  0  0  0  0  0  0  0  0  0  0  0
   25.2784  -20.9215  -11.3718 C   0  0  1  0  0  0  0  0  0  0  0  0
   25.5496  -21.1739   -9.9363 C   0  0  0  0  0  0  0  0  0  0  0  0
   26.9581  -21.1844   -9.5374 C   0  0  0  0  0  0  0  0  0  0  0  0
   28.0810  -21.6943  -10.1206 C   0  0  0  0  0  0  0  0  0  0  0  0
   29.1431  -21.4273   -9.3246 N   0  0  0  0  0  0  0  0  0  0  0  0
   28.7532  -20.7639   -8.2484 C   0  0  0  0  0  0  0  0  0  0  0  0
   29.4362  -20.2672   -7.1458 C   0  0  0  0  0  0  0  0  0  0  0  0
   28.7335  -19.6106   -6.1676 C   0  0  0  0  0  0  0  0  0  0  0  0
   27.3833  -19.4379   -6.2591 C   0  0  0  0  0  0  0  0  0  0  0  0
   26.7079  -19.9384   -7.3671 C   0  0  0  0  0  0  0  0  0  0  0  0
   27.4053  -20.5936   -8.3430 C   0  0  0  0  0  0  0  0  0  0  0  0
   23.7796  -20.8657  -11.5749 C   0  0  0  0  0  0  0  0  0  0  0  0
   23.1035  -21.8700  -11.3192 O   0  0  0  0  0  0  0  0  0  0  0  0
   23.1655  -19.7141  -12.0402 O   0  0  0  0  0  0  0  0  0  0  0  0
  2  3  1  0
  2  1  1  0
  4  5  1  0
  4  3  1  0
  5  6  1  1
  5  7  1  0
  7  8  2  0
  9  7  1  0
  9 10  1  0
 11 10  1  0
 11 12  2  0
 13 11  1  0
 14 13  1  0
 14 15  1  1
 16 17  2  0
 16 15  1  0
 18 17  1  0
 19 24  2  0
 19 18  1  0
 20 19  1  0
 21 22  1  0
 21 20  2  0
 22 23  2  0
 23 24  1  0
 24 16  1  0
 25 14  1  0
 26 25  2  0
 27 25  1  0
M  END
$$$$
