MGW.pdb
     RDKit          3D

 27 28  0  0  1  0  0  0  0  0999 V2000
   23.6986  -16.5309  -22.0766 C   0  0  0  0  0  0  0  0  0  0  0  0
   23.7922  -17.1760  -20.4078 S   0  0  0  0  0  0  0  0  0  0  0  0
   25.4534  -17.2757  -19.7489 C   0  0  0  0  0  0  0  0  0  0  0  0
   25.5320  -17.9595  -18.3979 C   0  0  0  0  0  0  0  0  0  0  0  0
   25.8102  -16.8786  -17.3461 C   0  0  2  0  0  0  0  0  0  0  0  0
   27.0887  -16.3044  -17.6502 N   0  0  0  0  0  0  0  0  0  0  0  0
   25.8809  -17.5183  -15.9849 C   0  0  0  0  0  0  0  0  0  0  0  0
   24.9048  -18.1403  -15.5179 O   0  0  0  0  0  0  0  0  0  0  0  0
   27.0579  -17.4386  -15.1872 N   0  0  0  0  0  0  0  0  0  0  0  0
   27.1933  -18.0021  -13.8904 C   0  0  0  0  0  0  0  0  0  0  0  0
   27.0274  -19.4351  -13.7526 C   0  0  0  0  0  0  0  0  0  0  0  0
   27.4812  -20.1738  -14.6713 O   0  0  0  0  0  0  0  0  0  0  0  0
   26.3945  -20.0584  -12.6590 N   0  0  0  0  0  0  0  0  0  0  0  0
   26.4493  -21.4839  -12.4545 C   0  0  1  0  0  0  0  0  0  0  0  0
   26.9441  -21.9596  -11.1404 C   0  0  0  0  0  0  0  0  0  0  0  0
   26.5443  -21.1687   -9.9751 C   0  0  0  0  0  0  0  0  0  0  0  0
   25.3409  -20.6817   -9.5562 C   0  0  0  0  0  0  0  0  0  0  0  0
   25.5254  -20.0060   -8.3976 N   0  0  0  0  0  0  0  0  0  0  0  0
   26.8011  -20.0359   -8.0485 C   0  0  0  0  0  0  0  0  0  0  0  0
   27.4985  -19.5046   -6.9714 C   0  0  0  0  0  0  0  0  0  0  0  0
   28.8526  -19.7088   -6.8887 C   0  0  0  0  0  0  0  0  0  0  0  0
   29.5216  -20.4213   -7.8406 C   0  0  0  0  0  0  0  0  0  0  0  0
   28.8147  -20.9498   -8.9155 C   0  0  0  0  0  0  0  0  0  0  0  0
   27.4658  -20.7474   -9.0008 C   0  0  0  0  0  0  0  0  0  0  0  0
   25.0420  -22.0037  -12.6547 C   0  0  0  0  0  0  0  0  0  0  0  0
   24.0982  -21.2043  -12.6180 O   0  0  0  0  0  0  0  0  0  0  0  0
   24.8041  -23.3508  -12.8748 O   0  0  0  0  0  0  0  0  0  0  0  0
  2  3  1  0
  2  1  1  0
  4  5  1  0
  4  3  1  0
  5  6  1  6
  5  7  1  0
  7  8  2  0
  9  7  1  0
  9 10  1  0
 11 10  1  0
 11 12  2  0
 13 11  1  0
 14 13  1  0
 14 15  1  1
 16 17  2  0
 16 15  1  0
 18 17  1  0
 19 24  2  0
 19 18  1  0
 20 19  1  0
 21 22  1  0
 21 20  2  0
 22 23  2  0
 23 24  1  0
 24 16  1  0
 25 14  1  0
 26 25  2  0
 27 25  1  0
M  END
$$$$
