MGW.pdb
     RDKit          3D

 27 28  0  0  1  0  0  0  0  0999 V2000
   27.5590  -14.2457  -16.4791 C   0  0  0  0  0  0  0  0  0  0  0  0
   25.9157  -14.9327  -16.6727 S   0  0  0  0  0  0  0  0  0  0  0  0
   25.7847  -16.6632  -16.2349 C   0  0  0  0  0  0  0  0  0  0  0  0
   26.5577  -17.0345  -14.9845 C   0  0  0  0  0  0  0  0  0  0  0  0
   26.4506  -18.5541  -14.8067 C   0  0  2  0  0  0  0  0  0  0  0  0
   25.0553  -18.8831  -14.7672 N   0  0  0  0  0  0  0  0  0  0  0  0
   27.0750  -18.9445  -13.4934 C   0  0  0  0  0  0  0  0  0  0  0  0
   26.5112  -18.6793  -12.4120 O   0  0  0  0  0  0  0  0  0  0  0  0
   28.3231  -19.6282  -13.4387 N   0  0  0  0  0  0  0  0  0  0  0  0
   28.9771  -20.0189  -12.2399 C   0  0  0  0  0  0  0  0  0  0  0  0
   28.2408  -20.8435  -11.3030 C   0  0  0  0  0  0  0  0  0  0  0  0
   28.6745  -22.0073  -11.0722 O   0  0  0  0  0  0  0  0  0  0  0  0
   27.0735  -20.4308  -10.6307 N   0  0  0  0  0  0  0  0  0  0  0  0
   26.3586  -21.3032   -9.7337 C   0  0  1  0  0  0  0  0  0  0  0  0
   26.9590  -21.5390   -8.3988 C   0  0  0  0  0  0  0  0  0  0  0  0
   27.2064  -20.3491   -7.5828 C   0  0  0  0  0  0  0  0  0  0  0  0
   26.8605  -19.0378   -7.7302 C   0  0  0  0  0  0  0  0  0  0  0  0
   27.3458  -18.3395   -6.6768 N   0  0  0  0  0  0  0  0  0  0  0  0
   27.9927  -19.1464   -5.8517 C   0  0  0  0  0  0  0  0  0  0  0  0
   28.6627  -18.9335   -4.6540 C   0  0  0  0  0  0  0  0  0  0  0  0
   29.2508  -19.9994   -4.0214 C   0  0  0  0  0  0  0  0  0  0  0  0
   29.1886  -21.2574   -4.5455 C   0  0  0  0  0  0  0  0  0  0  0  0
   28.5151  -21.4610   -5.7452 C   0  0  0  0  0  0  0  0  0  0  0  0
   27.9287  -20.4010   -6.3780 C   0  0  0  0  0  0  0  0  0  0  0  0
   24.9857  -20.6954   -9.5422 C   0  0  0  0  0  0  0  0  0  0  0  0
   24.2180  -21.2007   -8.7138 O   0  0  0  0  0  0  0  0  0  0  0  0
   24.5855  -19.5920  -10.2786 O   0  0  0  0  0  0  0  0  0  0  0  0
  2  3  1  0
  2  1  1  0
  4  5  1  0
  4  3  1  0
  5  6  1  1
  5  7  1  0
  7  8  2  0
  9  7  1  0
  9 10  1  0
 11 10  1  0
 11 12  2  0
 13 11  1  0
 14 13  1  0
 14 15  1  1
 16 17  2  0
 16 15  1  0
 18 17  1  0
 19 24  2  0
 19 18  1  0
 20 19  1  0
 21 22  1  0
 21 20  2  0
 22 23  2  0
 23 24  1  0
 24 16  1  0
 25 14  1  0
 26 25  2  0
 27 25  1  0
M  END
$$$$
