MGW.pdb
     RDKit          3D

 27 28  0  0  1  0  0  0  0  0999 V2000
   20.9946  -18.6871  -17.0139 C   0  0  0  0  0  0  0  0  0  0  0  0
   21.0689  -17.0788  -16.2279 S   0  0  0  0  0  0  0  0  0  0  0  0
   22.6098  -16.7434  -15.3813 C   0  0  0  0  0  0  0  0  0  0  0  0
   23.8372  -16.9506  -16.2470 C   0  0  0  0  0  0  0  0  0  0  0  0
   24.3838  -18.3523  -15.9496 C   0  0  2  0  0  0  0  0  0  0  0  0
   24.8348  -18.3558  -14.5883 N   0  0  0  0  0  0  0  0  0  0  0  0
   25.5608  -18.6260  -16.8478 C   0  0  0  0  0  0  0  0  0  0  0  0
   25.4772  -18.4603  -18.0820 O   0  0  0  0  0  0  0  0  0  0  0  0
   26.8051  -19.0791  -16.3239 N   0  0  0  0  0  0  0  0  0  0  0  0
   27.2595  -20.4240  -16.3732 C   0  0  0  0  0  0  0  0  0  0  0  0
   27.2760  -21.1804  -15.1373 C   0  0  0  0  0  0  0  0  0  0  0  0
   28.3251  -21.8235  -14.8518 O   0  0  0  0  0  0  0  0  0  0  0  0
   26.1984  -21.2435  -14.2320 N   0  0  0  0  0  0  0  0  0  0  0  0
   26.2923  -21.9498  -12.9792 C   0  0  1  0  0  0  0  0  0  0  0  0
   27.2177  -21.3986  -11.9604 C   0  0  0  0  0  0  0  0  0  0  0  0
   26.6030  -20.9233  -10.7197 C   0  0  0  0  0  0  0  0  0  0  0  0
   25.3240  -20.5786  -10.3937 C   0  0  0  0  0  0  0  0  0  0  0  0
   25.2939  -20.2010   -9.0940 N   0  0  0  0  0  0  0  0  0  0  0  0
   26.5030  -20.2874   -8.5640 C   0  0  0  0  0  0  0  0  0  0  0  0
   26.9998  -20.0189   -7.2953 C   0  0  0  0  0  0  0  0  0  0  0  0
   28.3362  -20.2081   -7.0496 C   0  0  0  0  0  0  0  0  0  0  0  0
   29.1802  -20.6533   -8.0245 C   0  0  0  0  0  0  0  0  0  0  0  0
   28.6736  -20.9199   -9.2921 C   0  0  0  0  0  0  0  0  0  0  0  0
   27.3428  -20.7318   -9.5399 C   0  0  0  0  0  0  0  0  0  0  0  0
   24.8968  -21.9800  -12.3943 C   0  0  0  0  0  0  0  0  0  0  0  0
   24.1213  -21.0499  -12.6485 O   0  0  0  0  0  0  0  0  0  0  0  0
   24.4852  -23.0270  -11.5853 O   0  0  0  0  0  0  0  0  0  0  0  0
  2  3  1  0
  2  1  1  0
  4  5  1  0
  4  3  1  0
  5  6  1  1
  5  7  1  0
  7  8  2  0
  9  7  1  0
  9 10  1  0
 11 10  1  0
 11 12  2  0
 13 11  1  0
 14 13  1  0
 14 15  1  1
 16 17  2  0
 16 15  1  0
 18 17  1  0
 19 24  2  0
 19 18  1  0
 20 19  1  0
 21 22  1  0
 21 20  2  0
 22 23  2  0
 23 24  1  0
 24 16  1  0
 25 14  1  0
 26 25  2  0
 27 25  1  0
M  END
$$$$
