MGW.pdb
     RDKit          3D

 27 28  0  0  1  0  0  0  0  0999 V2000
   28.1278  -14.0088  -16.7905 C   0  0  0  0  0  0  0  0  0  0  0  0
   26.3977  -13.9227  -16.3333 S   0  0  0  0  0  0  0  0  0  0  0  0
   25.7959  -15.3611  -15.4544 C   0  0  0  0  0  0  0  0  0  0  0  0
   26.6481  -16.5987  -15.6573 C   0  0  0  0  0  0  0  0  0  0  0  0
   26.0341  -17.7275  -14.8202 C   0  0  2  0  0  0  0  0  0  0  0  0
   25.5995  -17.1530  -13.5801 N   0  0  0  0  0  0  0  0  0  0  0  0
   27.0909  -18.7595  -14.5288 C   0  0  0  0  0  0  0  0  0  0  0  0
   27.4322  -19.5897  -15.3961 O   0  0  0  0  0  0  0  0  0  0  0  0
   27.7367  -18.8237  -13.2612 N   0  0  0  0  0  0  0  0  0  0  0  0
   28.5582  -19.8983  -12.8277 C   0  0  0  0  0  0  0  0  0  0  0  0
   28.0343  -20.7844  -11.8078 C   0  0  0  0  0  0  0  0  0  0  0  0
   28.6314  -21.8805  -11.6135 O   0  0  0  0  0  0  0  0  0  0  0  0
   26.9031  -20.5018  -11.0169 N   0  0  0  0  0  0  0  0  0  0  0  0
   26.3687  -21.4558  -10.0781 C   0  0  1  0  0  0  0  0  0  0  0  0
   27.1022  -21.6314   -8.8017 C   0  0  0  0  0  0  0  0  0  0  0  0
   27.2338  -20.4385   -7.9632 C   0  0  0  0  0  0  0  0  0  0  0  0
   26.8413  -19.1427   -8.1297 C   0  0  0  0  0  0  0  0  0  0  0  0
   27.2142  -18.4325   -7.0392 N   0  0  0  0  0  0  0  0  0  0  0  0
   27.8329  -19.2168   -6.1717 C   0  0  0  0  0  0  0  0  0  0  0  0
   28.4009  -18.9845   -4.9259 C   0  0  0  0  0  0  0  0  0  0  0  0
   28.9872  -20.0284   -4.2561 C   0  0  0  0  0  0  0  0  0  0  0  0
   29.0211  -21.2835   -4.7898 C   0  0  0  0  0  0  0  0  0  0  0  0
   28.4494  -21.5067   -6.0379 C   0  0  0  0  0  0  0  0  0  0  0  0
   27.8652  -20.4685   -6.7077 C   0  0  0  0  0  0  0  0  0  0  0  0
   24.9574  -21.0086   -9.7635 C   0  0  0  0  0  0  0  0  0  0  0  0
   24.3337  -21.5853   -8.8638 O   0  0  0  0  0  0  0  0  0  0  0  0
   24.3645  -19.9721  -10.4664 O   0  0  0  0  0  0  0  0  0  0  0  0
  2  3  1  0
  2  1  1  0
  4  5  1  0
  4  3  1  0
  5  6  1  1
  5  7  1  0
  7  8  2  0
  9  7  1  0
  9 10  1  0
 11 10  1  0
 11 12  2  0
 13 11  1  0
 14 13  1  0
 14 15  1  1
 16 17  2  0
 16 15  1  0
 18 17  1  0
 19 24  2  0
 19 18  1  0
 20 19  1  0
 21 22  1  0
 21 20  2  0
 22 23  2  0
 23 24  1  0
 24 16  1  0
 25 14  1  0
 26 25  2  0
 27 25  1  0
M  END
$$$$
