MGW.pdb
     RDKit          3D

 27 28  0  0  1  0  0  0  0  0999 V2000
   25.9182  -18.5632  -20.1680 C   0  0  0  0  0  0  0  0  0  0  0  0
   27.1807  -19.7736  -20.5564 S   0  0  0  0  0  0  0  0  0  0  0  0
   27.8868  -20.5860  -19.1263 C   0  0  0  0  0  0  0  0  0  0  0  0
   27.4418  -19.9885  -17.8058 C   0  0  0  0  0  0  0  0  0  0  0  0
   28.1957  -20.7195  -16.6880 C   0  0  2  0  0  0  0  0  0  0  0  0
   27.8383  -22.1062  -16.7666 N   0  0  0  0  0  0  0  0  0  0  0  0
   27.7486  -20.1816  -15.3548 C   0  0  0  0  0  0  0  0  0  0  0  0
   26.6477  -19.6062  -15.2326 O   0  0  0  0  0  0  0  0  0  0  0  0
   28.5602  -20.3110  -14.1918 N   0  0  0  0  0  0  0  0  0  0  0  0
   28.2179  -19.8065  -12.9089 C   0  0  0  0  0  0  0  0  0  0  0  0
   27.3037  -20.5833  -12.0960 C   0  0  0  0  0  0  0  0  0  0  0  0
   26.7524  -21.5898  -12.6241 O   0  0  0  0  0  0  0  0  0  0  0  0
   26.9913  -20.2903  -10.7539 N   0  0  0  0  0  0  0  0  0  0  0  0
   26.2418  -21.2017   -9.9265 C   0  0  1  0  0  0  0  0  0  0  0  0
   26.7026  -21.3804   -8.5288 C   0  0  0  0  0  0  0  0  0  0  0  0
   27.1027  -20.1634   -7.8202 C   0  0  0  0  0  0  0  0  0  0  0  0
   26.8566  -18.8402   -8.0425 C   0  0  0  0  0  0  0  0  0  0  0  0
   27.4690  -18.1163   -7.0762 N   0  0  0  0  0  0  0  0  0  0  0  0
   28.1023  -18.9180   -6.2357 C   0  0  0  0  0  0  0  0  0  0  0  0
   28.8683  -18.6827   -5.1014 C   0  0  0  0  0  0  0  0  0  0  0  0
   29.4087  -19.7498   -4.4296 C   0  0  0  0  0  0  0  0  0  0  0  0
   29.2071  -21.0306   -4.8541 C   0  0  0  0  0  0  0  0  0  0  0  0
   28.4384  -21.2565   -5.9909 C   0  0  0  0  0  0  0  0  0  0  0  0
   27.8993  -20.1953   -6.6626 C   0  0  0  0  0  0  0  0  0  0  0  0
   24.8174  -20.6908   -9.9010 C   0  0  0  0  0  0  0  0  0  0  0  0
   24.5925  -19.5278  -10.2589 O   0  0  0  0  0  0  0  0  0  0  0  0
   23.7756  -21.5038   -9.4843 O   0  0  0  0  0  0  0  0  0  0  0  0
  2  3  1  0
  2  1  1  0
  4  5  1  0
  4  3  1  0
  5  6  1  1
  5  7  1  0
  7  8  2  0
  9  7  1  0
  9 10  1  0
 11 10  1  0
 11 12  2  0
 13 11  1  0
 14 13  1  0
 14 15  1  1
 16 17  2  0
 16 15  1  0
 18 17  1  0
 19 24  2  0
 19 18  1  0
 20 19  1  0
 21 22  1  0
 21 20  2  0
 22 23  2  0
 23 24  1  0
 24 16  1  0
 25 14  1  0
 26 25  2  0
 27 25  1  0
M  END
$$$$
