MGW.pdb
     RDKit          3D

 27 28  0  0  1  0  0  0  0  0999 V2000
   22.3014  -20.1235  -13.6332 C   0  0  0  0  0  0  0  0  0  0  0  0
   21.3583  -19.6877  -15.0928 S   0  0  0  0  0  0  0  0  0  0  0  0
   22.3144  -18.8833  -16.3743 C   0  0  0  0  0  0  0  0  0  0  0  0
   23.3003  -17.8597  -15.8459 C   0  0  0  0  0  0  0  0  0  0  0  0
   24.6808  -18.2073  -16.4162 C   0  0  2  0  0  0  0  0  0  0  0  0
   24.9858  -19.5488  -16.0111 N   0  0  0  0  0  0  0  0  0  0  0  0
   25.7090  -17.2799  -15.8249 C   0  0  0  0  0  0  0  0  0  0  0  0
   25.5491  -16.0424  -15.8561 O   0  0  0  0  0  0  0  0  0  0  0  0
   26.8931  -17.7787  -15.2106 N   0  0  0  0  0  0  0  0  0  0  0  0
   26.9554  -18.3171  -13.8977 C   0  0  0  0  0  0  0  0  0  0  0  0
   27.3191  -19.7123  -13.7529 C   0  0  0  0  0  0  0  0  0  0  0  0
   27.6189  -20.3565  -14.7974 O   0  0  0  0  0  0  0  0  0  0  0  0
   27.3623  -20.3968  -12.5223 N   0  0  0  0  0  0  0  0  0  0  0  0
   26.5556  -21.5635  -12.2674 C   0  0  1  0  0  0  0  0  0  0  0  0
   26.5246  -22.0727  -10.8754 C   0  0  0  0  0  0  0  0  0  0  0  0
   26.4443  -21.0617   -9.8196 C   0  0  0  0  0  0  0  0  0  0  0  0
   25.4955  -20.1372   -9.4942 C   0  0  0  0  0  0  0  0  0  0  0  0
   25.9210  -19.4396   -8.4148 N   0  0  0  0  0  0  0  0  0  0  0  0
   27.1085  -19.8756   -8.0271 C   0  0  0  0  0  0  0  0  0  0  0  0
   27.9620  -19.5020   -6.9972 C   0  0  0  0  0  0  0  0  0  0  0  0
   29.1578  -20.1584   -6.8521 C   0  0  0  0  0  0  0  0  0  0  0  0
   29.5204  -21.1664   -7.6969 C   0  0  0  0  0  0  0  0  0  0  0  0
   28.6590  -21.5338   -8.7252 C   0  0  0  0  0  0  0  0  0  0  0  0
   27.4673  -20.8812   -8.8727 C   0  0  0  0  0  0  0  0  0  0  0  0
   25.1430  -21.2112  -12.6814 C   0  0  0  0  0  0  0  0  0  0  0  0
   24.9461  -20.7691  -13.8202 O   0  0  0  0  0  0  0  0  0  0  0  0
   24.0814  -21.3765  -11.8065 O   0  0  0  0  0  0  0  0  0  0  0  0
  2  3  1  0
  2  1  1  0
  4  5  1  0
  4  3  1  0
  5  6  1  1
  5  7  1  0
  7  8  2  0
  9  7  1  0
  9 10  1  0
 11 10  1  0
 11 12  2  0
 13 11  1  0
 14 13  1  0
 14 15  1  1
 16 17  2  0
 16 15  1  0
 18 17  1  0
 19 24  2  0
 19 18  1  0
 20 19  1  0
 21 22  1  0
 21 20  2  0
 22 23  2  0
 23 24  1  0
 24 16  1  0
 25 14  1  0
 26 25  2  0
 27 25  1  0
M  END
$$$$
