MGW.pdb
     RDKit          3D

 27 28  0  0  1  0  0  0  0  0999 V2000
   29.3100  -15.7917  -17.1958 C   0  0  0  0  0  0  0  0  0  0  0  0
   29.2257  -17.4018  -17.9771 S   0  0  0  0  0  0  0  0  0  0  0  0
   28.4131  -18.6564  -16.9926 C   0  0  0  0  0  0  0  0  0  0  0  0
   27.2365  -18.1337  -16.1917 C   0  0  0  0  0  0  0  0  0  0  0  0
   27.3739  -18.6696  -14.7613 C   0  0  2  0  0  0  0  0  0  0  0  0
   27.6175  -20.0799  -14.8542 N   0  0  0  0  0  0  0  0  0  0  0  0
   26.0793  -18.4518  -14.0241 C   0  0  0  0  0  0  0  0  0  0  0  0
   25.5266  -17.3328  -14.0167 O   0  0  0  0  0  0  0  0  0  0  0  0
   25.4418  -19.5093  -13.3146 N   0  0  0  0  0  0  0  0  0  0  0  0
   25.1093  -19.4692  -11.9343 C   0  0  0  0  0  0  0  0  0  0  0  0
   25.7696  -20.4080  -11.0496 C   0  0  0  0  0  0  0  0  0  0  0  0
   26.2468  -21.4622  -11.5563 O   0  0  0  0  0  0  0  0  0  0  0  0
   25.9162  -20.2202   -9.6610 N   0  0  0  0  0  0  0  0  0  0  0  0
   26.6978  -21.1160   -8.8465 C   0  0  1  0  0  0  0  0  0  0  0  0
   28.0020  -20.6145   -8.3508 C   0  0  0  0  0  0  0  0  0  0  0  0
   27.9471  -19.6491   -7.2517 C   0  0  0  0  0  0  0  0  0  0  0  0
   27.4210  -18.3947   -7.1476 C   0  0  0  0  0  0  0  0  0  0  0  0
   27.6448  -17.9326   -5.8949 N   0  0  0  0  0  0  0  0  0  0  0  0
   28.2950  -18.8381   -5.1823 C   0  0  0  0  0  0  0  0  0  0  0  0
   28.7570  -18.8562   -3.8728 C   0  0  0  0  0  0  0  0  0  0  0  0
   29.4163  -19.9686   -3.4145 C   0  0  0  0  0  0  0  0  0  0  0  0
   29.6242  -21.0510   -4.2185 C   0  0  0  0  0  0  0  0  0  0  0  0
   29.1577  -21.0239   -5.5284 C   0  0  0  0  0  0  0  0  0  0  0  0
   28.5010  -19.9168   -5.9879 C   0  0  0  0  0  0  0  0  0  0  0  0
   25.8380  -21.4779   -7.6546 C   0  0  0  0  0  0  0  0  0  0  0  0
   26.2294  -22.3604   -6.8805 O   0  0  0  0  0  0  0  0  0  0  0  0
   24.6305  -20.8380   -7.4261 O   0  0  0  0  0  0  0  0  0  0  0  0
  2  3  1  0
  2  1  1  0
  4  5  1  0
  4  3  1  0
  5  6  1  6
  5  7  1  0
  7  8  2  0
  9  7  1  0
  9 10  1  0
 11 10  1  0
 11 12  2  0
 13 11  1  0
 14 13  1  0
 14 15  1  1
 16 17  2  0
 16 15  1  0
 18 17  1  0
 19 24  2  0
 19 18  1  0
 20 19  1  0
 21 22  1  0
 21 20  2  0
 22 23  2  0
 23 24  1  0
 24 16  1  0
 25 14  1  0
 26 25  2  0
 27 25  1  0
M  END
$$$$
