MGW.pdb
     RDKit          3D

 27 28  0  0  1  0  0  0  0  0999 V2000
   25.3594  -17.2536  -17.7184 C   0  0  0  0  0  0  0  0  0  0  0  0
   24.3250  -18.7026  -17.9192 S   0  0  0  0  0  0  0  0  0  0  0  0
   23.5539  -19.2721  -16.4077 C   0  0  0  0  0  0  0  0  0  0  0  0
   24.4031  -19.0519  -15.1711 C   0  0  0  0  0  0  0  0  0  0  0  0
   24.9161  -20.4218  -14.7104 C   0  0  2  0  0  0  0  0  0  0  0  0
   23.7694  -21.2397  -14.4407 N   0  0  0  0  0  0  0  0  0  0  0  0
   25.6992  -20.2544  -13.4354 C   0  0  0  0  0  0  0  0  0  0  0  0
   25.1176  -20.1016  -12.3416 O   0  0  0  0  0  0  0  0  0  0  0  0
   27.1232  -20.2666  -13.4314 N   0  0  0  0  0  0  0  0  0  0  0  0
   27.9200  -21.2303  -12.7577 C   0  0  0  0  0  0  0  0  0  0  0  0
   27.7939  -21.3277  -11.3174 C   0  0  0  0  0  0  0  0  0  0  0  0
   28.5339  -22.1548  -10.7138 O   0  0  0  0  0  0  0  0  0  0  0  0
   26.9010  -20.5582  -10.5458 N   0  0  0  0  0  0  0  0  0  0  0  0
   26.9415  -20.5555   -9.1052 C   0  0  1  0  0  0  0  0  0  0  0  0
   27.5544  -19.3760   -8.4486 C   0  0  0  0  0  0  0  0  0  0  0  0
   27.5343  -19.3689   -6.9848 C   0  0  0  0  0  0  0  0  0  0  0  0
   26.6121  -18.9430   -6.0743 C   0  0  0  0  0  0  0  0  0  0  0  0
   27.0948  -19.1679   -4.8296 N   0  0  0  0  0  0  0  0  0  0  0  0
   28.2937  -19.7232   -4.8970 C   0  0  0  0  0  0  0  0  0  0  0  0
   29.1979  -20.1395   -3.9285 C   0  0  0  0  0  0  0  0  0  0  0  0
   30.3915  -20.6882   -4.3238 C   0  0  0  0  0  0  0  0  0  0  0  0
   30.7033  -20.8315   -5.6442 C   0  0  0  0  0  0  0  0  0  0  0  0
   29.7914  -20.4120   -6.6069 C   0  0  0  0  0  0  0  0  0  0  0  0
   28.6018  -19.8644   -6.2162 C   0  0  0  0  0  0  0  0  0  0  0  0
   25.5089  -20.6780   -8.6323 C   0  0  0  0  0  0  0  0  0  0  0  0
   24.6096  -20.1638   -9.3090 O   0  0  0  0  0  0  0  0  0  0  0  0
   25.1997  -21.3517   -7.4617 O   0  0  0  0  0  0  0  0  0  0  0  0
  2  3  1  0
  2  1  1  0
  4  5  1  0
  4  3  1  0
  5  6  1  1
  5  7  1  0
  7  8  2  0
  9  7  1  0
  9 10  1  0
 11 10  1  0
 11 12  2  0
 13 11  1  0
 14 13  1  0
 14 15  1  1
 16 17  2  0
 16 15  1  0
 18 17  1  0
 19 24  2  0
 19 18  1  0
 20 19  1  0
 21 22  1  0
 21 20  2  0
 22 23  2  0
 23 24  1  0
 24 16  1  0
 25 14  1  0
 26 25  2  0
 27 25  1  0
M  END
$$$$
