MGW.pdb
     RDKit          3D

 27 28  0  0  1  0  0  0  0  0999 V2000
   14.0878  -11.4162  -22.6699 C   0  0  0  0  0  0  0  0  0  0  0  0
   15.1997  -10.2385  -21.9041 S   0  0  0  0  0  0  0  0  0  0  0  0
   15.5121  -10.5423  -20.1681 C   0  0  0  0  0  0  0  0  0  0  0  0
   16.3646   -9.4763  -19.5078 C   0  0  0  0  0  0  0  0  0  0  0  0
   17.8340   -9.8292  -19.7691 C   0  0  2  0  0  0  0  0  0  0  0  0
   18.1225  -11.0291  -19.0384 N   0  0  0  0  0  0  0  0  0  0  0  0
   18.7102   -8.7230  -19.2442 C   0  0  0  0  0  0  0  0  0  0  0  0
   18.6187   -7.5636  -19.6971 O   0  0  0  0  0  0  0  0  0  0  0  0
   19.6678   -8.9584  -18.2168 N   0  0  0  0  0  0  0  0  0  0  0  0
   20.6304   -8.0103  -17.7786 C   0  0  0  0  0  0  0  0  0  0  0  0
   20.2609   -7.1177  -16.6984 C   0  0  0  0  0  0  0  0  0  0  0  0
   19.0333   -6.9943  -16.4273 O   0  0  0  0  0  0  0  0  0  0  0  0
   21.1823   -6.3800  -15.9292 N   0  0  0  0  0  0  0  0  0  0  0  0
   20.7718   -5.5848  -14.7995 C   0  0  1  0  0  0  0  0  0  0  0  0
   21.1852   -6.0556  -13.4558 C   0  0  0  0  0  0  0  0  0  0  0  0
   20.8425   -7.4393  -13.1227 C   0  0  0  0  0  0  0  0  0  0  0  0
   21.3807   -8.6389  -13.4864 C   0  0  0  0  0  0  0  0  0  0  0  0
   20.6764   -9.6294  -12.8900 N   0  0  0  0  0  0  0  0  0  0  0  0
   19.7029   -9.1194  -12.1535 C   0  0  0  0  0  0  0  0  0  0  0  0
   18.7175   -9.6939  -11.3611 C   0  0  0  0  0  0  0  0  0  0  0  0
   17.8279   -8.8783  -10.7089 C   0  0  0  0  0  0  0  0  0  0  0  0
   17.8947   -7.5205  -10.8243 C   0  0  0  0  0  0  0  0  0  0  0  0
   18.8851   -6.9543  -11.6198 C   0  0  0  0  0  0  0  0  0  0  0  0
   19.7724   -7.7643  -12.2713 C   0  0  0  0  0  0  0  0  0  0  0  0
   21.3384   -4.1985  -15.0180 C   0  0  0  0  0  0  0  0  0  0  0  0
   22.1231   -4.0141  -15.9568 O   0  0  0  0  0  0  0  0  0  0  0  0
   20.9911   -3.1469  -14.1854 O   0  0  0  0  0  0  0  0  0  0  0  0
  2  3  1  0
  2  1  1  0
  4  5  1  0
  4  3  1  0
  5  6  1  1
  5  7  1  0
  7  8  2  0
  9  7  1  0
  9 10  1  0
 11 10  1  0
 11 12  2  0
 13 11  1  0
 14 13  1  0
 14 15  1  1
 16 17  2  0
 16 15  1  0
 18 17  1  0
 19 24  2  0
 19 18  1  0
 20 19  1  0
 21 22  1  0
 21 20  2  0
 22 23  2  0
 23 24  1  0
 24 16  1  0
 25 14  1  0
 26 25  2  0
 27 25  1  0
M  END
$$$$
