AEC.pdb
     RDKit          3D

 21 20  0  0  1  0  0  0  0  0999 V2000
   13.7378  -11.3054  -13.7420 C   0  0  0  0  0  0  0  0  0  0  0  0
   15.1772  -11.7637  -13.7640 C   0  0  2  0  0  0  0  0  0  0  0  0
   15.1905  -13.1928  -13.5121 N   0  0  0  0  0  0  0  0  0  0  0  0
   15.9457  -11.0572  -12.7064 C   0  0  0  0  0  0  0  0  0  0  0  0
   15.8813  -11.3780  -11.5085 O   0  0  0  0  0  0  0  0  0  0  0  0
   16.7864   -9.9767  -13.0602 N   0  0  0  0  0  0  0  0  0  0  0  0
   17.4940   -9.1417  -12.1496 C   0  0  1  0  0  0  0  0  0  0  0  0
   18.6470   -8.5070  -12.8972 C   0  0  0  0  0  0  0  0  0  0  0  0
   19.5264   -7.7690  -11.9124 C   0  0  0  0  0  0  0  0  0  0  0  0
   20.6516   -7.1825  -12.6710 C   0  0  0  0  0  0  0  0  0  0  0  0
   20.7536   -7.3759  -13.9116 O   0  0  0  0  0  0  0  0  0  0  0  0
   16.6741   -8.0546  -11.5765 C   0  0  0  0  0  0  0  0  0  0  0  0
   15.9748   -7.3612  -12.3570 O   0  0  0  0  0  0  0  0  0  0  0  0
   21.5843   -6.4210  -11.9907 O   0  0  0  0  0  0  0  0  0  0  0  0
   16.6229   -7.7392  -10.1993 N   0  0  0  0  0  0  0  0  0  0  0  0
   15.6973   -6.7789   -9.6287 C   0  0  1  0  0  0  0  0  0  0  0  0
   15.5142   -6.9838   -8.1421 C   0  0  0  0  0  0  0  0  0  0  0  0
   14.1668   -8.0830   -7.7279 S   0  0  0  0  0  0  0  0  0  0  0  0
   16.3459   -5.4303   -9.7742 C   0  0  0  0  0  0  0  0  0  0  0  0
   17.5424   -5.3013  -10.1374 O   0  0  0  0  0  0  0  0  0  0  0  0
   15.6391   -4.2596   -9.5097 O   0  0  0  0  0  0  0  0  0  0  0  0
  2  1  1  1
  2  3  1  0
  4  6  1  0
  4  2  1  0
  5  4  2  0
  7  6  1  0
  7 12  1  0
  7  8  1  6
  9  8  1  0
 10  9  1  0
 11 10  2  0
 12 15  1  0
 13 12  2  0
 14 10  1  0
 15 16  1  0
 16 19  1  0
 16 17  1  1
 17 18  1  0
 19 21  1  0
 20 19  2  0
M  END
$$$$
