AEC.pdb
     RDKit          3D

 21 20  0  0  1  0  0  0  0  0999 V2000
   17.3624  -12.5765  -14.4249 C   0  0  0  0  0  0  0  0  0  0  0  0
   16.6719  -11.2335  -14.3803 C   0  0  2  0  0  0  0  0  0  0  0  0
   17.0290  -10.5120  -15.5878 N   0  0  0  0  0  0  0  0  0  0  0  0
   17.1256  -10.4747  -13.1858 C   0  0  0  0  0  0  0  0  0  0  0  0
   16.9993  -10.9122  -12.0305 O   0  0  0  0  0  0  0  0  0  0  0  0
   17.7254   -9.2052  -13.3532 N   0  0  0  0  0  0  0  0  0  0  0  0
   18.1010   -8.3189  -12.3043 C   0  0  1  0  0  0  0  0  0  0  0  0
   19.0010   -7.2535  -12.8927 C   0  0  0  0  0  0  0  0  0  0  0  0
   20.4404   -7.5953  -12.5778 C   0  0  0  0  0  0  0  0  0  0  0  0
   21.2783   -6.4693  -13.0420 C   0  0  0  0  0  0  0  0  0  0  0  0
   21.7164   -5.6199  -12.2212 O   0  0  0  0  0  0  0  0  0  0  0  0
   16.9585   -7.6394  -11.6595 C   0  0  0  0  0  0  0  0  0  0  0  0
   16.1188   -7.0602  -12.3932 O   0  0  0  0  0  0  0  0  0  0  0  0
   21.5683   -6.3707  -14.3906 O   0  0  0  0  0  0  0  0  0  0  0  0
   16.7448   -7.5963  -10.2627 N   0  0  0  0  0  0  0  0  0  0  0  0
   15.6648   -6.8565   -9.6375 C   0  0  1  0  0  0  0  0  0  0  0  0
   14.8002   -7.7424   -8.7696 C   0  0  0  0  0  0  0  0  0  0  0  0
   13.8994   -8.9866   -9.6840 S   0  0  0  0  0  0  0  0  0  0  0  0
   16.3127   -5.8780   -8.6976 C   0  0  0  0  0  0  0  0  0  0  0  0
   17.5291   -5.9540   -8.3899 O   0  0  0  0  0  0  0  0  0  0  0  0
   15.5829   -4.8387   -8.1254 O   0  0  0  0  0  0  0  0  0  0  0  0
  2  1  1  6
  2  3  1  0
  4  6  1  0
  4  2  1  0
  5  4  2  0
  7  6  1  0
  7 12  1  0
  7  8  1  6
  9  8  1  0
 10  9  1  0
 11 10  2  0
 12 15  1  0
 13 12  2  0
 14 10  1  0
 15 16  1  0
 16 19  1  0
 16 17  1  1
 17 18  1  0
 19 21  1  0
 20 19  2  0
M  END
$$$$
