AEC.pdb
     RDKit          3D

 21 20  0  0  1  0  0  0  0  0999 V2000
   16.3096  -11.0632  -15.1494 C   0  0  0  0  0  0  0  0  0  0  0  0
   17.1986  -11.1716  -16.3662 C   0  0  2  0  0  0  0  0  0  0  0  0
   17.4041  -12.5819  -16.6398 N   0  0  0  0  0  0  0  0  0  0  0  0
   18.5035  -10.5143  -16.0952 C   0  0  0  0  0  0  0  0  0  0  0  0
   19.3683  -11.0248  -15.3648 O   0  0  0  0  0  0  0  0  0  0  0  0
   18.7871   -9.2599  -16.6831 N   0  0  0  0  0  0  0  0  0  0  0  0
   20.0001   -8.5290  -16.5371 C   0  0  1  0  0  0  0  0  0  0  0  0
   20.3055   -7.8613  -17.8607 C   0  0  0  0  0  0  0  0  0  0  0  0
   21.6634   -7.2001  -17.7776 C   0  0  0  0  0  0  0  0  0  0  0  0
   21.9260   -6.5545  -19.0813 C   0  0  0  0  0  0  0  0  0  0  0  0
   22.8596   -6.9662  -19.8201 O   0  0  0  0  0  0  0  0  0  0  0  0
   19.9412   -7.4757  -15.5028 C   0  0  0  0  0  0  0  0  0  0  0  0
   18.9329   -6.7266  -15.4725 O   0  0  0  0  0  0  0  0  0  0  0  0
   21.1275   -5.4939  -19.4686 O   0  0  0  0  0  0  0  0  0  0  0  0
   20.9501   -7.2520  -14.5380 N   0  0  0  0  0  0  0  0  0  0  0  0
   20.8839   -6.2072  -13.5337 C   0  0  1  0  0  0  0  0  0  0  0  0
   21.2167   -6.7269  -12.1536 C   0  0  0  0  0  0  0  0  0  0  0  0
   19.9239   -7.7275  -11.4306 S   0  0  0  0  0  0  0  0  0  0  0  0
   21.9743   -5.2285  -13.8711 C   0  0  0  0  0  0  0  0  0  0  0  0
   22.8081   -5.4479  -14.7859 O   0  0  0  0  0  0  0  0  0  0  0  0
   22.1045   -4.0284  -13.1761 O   0  0  0  0  0  0  0  0  0  0  0  0
  2  1  1  1
  2  3  1  0
  4  6  1  0
  4  2  1  0
  5  4  2  0
  7  6  1  0
  7 12  1  0
  7  8  1  6
  9  8  1  0
 10  9  1  0
 11 10  2  0
 12 15  1  0
 13 12  2  0
 14 10  1  0
 15 16  1  0
 16 19  1  0
 16 17  1  1
 17 18  1  0
 19 21  1  0
 20 19  2  0
M  END
$$$$
