AEC.pdb
     RDKit          3D

 21 20  0  0  1  0  0  0  0  0999 V2000
   18.4793  -12.6780  -16.9233 C   0  0  0  0  0  0  0  0  0  0  0  0
   18.4939  -11.7961  -15.6966 C   0  0  2  0  0  0  0  0  0  0  0  0
   17.1488  -11.7729  -15.1522 N   0  0  0  0  0  0  0  0  0  0  0  0
   18.9106  -10.4200  -16.0720 C   0  0  0  0  0  0  0  0  0  0  0  0
   20.0320  -10.1679  -16.5421 O   0  0  0  0  0  0  0  0  0  0  0  0
   18.0087   -9.3458  -15.8934 N   0  0  0  0  0  0  0  0  0  0  0  0
   18.2703   -7.9810  -16.2030 C   0  0  1  0  0  0  0  0  0  0  0  0
   16.9492   -7.3113  -16.5153 C   0  0  0  0  0  0  0  0  0  0  0  0
   17.2129   -5.9029  -16.9997 C   0  0  0  0  0  0  0  0  0  0  0  0
   15.9042   -5.2746  -17.2793 C   0  0  0  0  0  0  0  0  0  0  0  0
   15.5846   -4.1916  -16.7210 O   0  0  0  0  0  0  0  0  0  0  0  0
   18.9076   -7.2308  -15.1013 C   0  0  0  0  0  0  0  0  0  0  0  0
   18.4114   -7.3259  -13.9508 O   0  0  0  0  0  0  0  0  0  0  0  0
   15.0439   -5.9003  -18.1630 O   0  0  0  0  0  0  0  0  0  0  0  0
   20.0462   -6.4070  -15.2553 N   0  0  0  0  0  0  0  0  0  0  0  0
   20.6999   -5.7258  -14.1538 C   0  0  1  0  0  0  0  0  0  0  0  0
   22.1911   -5.9745  -14.1397 C   0  0  0  0  0  0  0  0  0  0  0  0
   23.0785   -4.9596  -12.9659 S   0  0  0  0  0  0  0  0  0  0  0  0
   20.5379   -4.2536  -14.4129 C   0  0  0  0  0  0  0  0  0  0  0  0
   20.2812   -3.4384  -13.4911 O   0  0  0  0  0  0  0  0  0  0  0  0
   20.6672   -3.7305  -15.6973 O   0  0  0  0  0  0  0  0  0  0  0  0
  2  1  1  6
  2  3  1  0
  4  6  1  0
  4  2  1  0
  5  4  2  0
  7  6  1  0
  7 12  1  0
  7  8  1  1
  9  8  1  0
 10  9  1  0
 11 10  2  0
 12 15  1  0
 13 12  2  0
 14 10  1  0
 15 16  1  0
 16 19  1  0
 16 17  1  6
 17 18  1  0
 19 21  1  0
 20 19  2  0
M  END
$$$$
