AEC.pdb
     RDKit          3D

 21 20  0  0  1  0  0  0  0  0999 V2000
   19.5066  -12.1114  -15.9645 C   0  0  0  0  0  0  0  0  0  0  0  0
   19.8919  -11.1301  -17.0467 C   0  0  2  0  0  0  0  0  0  0  0  0
   21.2469  -11.4404  -17.4634 N   0  0  0  0  0  0  0  0  0  0  0  0
   19.8325   -9.7445  -16.5129 C   0  0  0  0  0  0  0  0  0  0  0  0
   18.7854   -9.2450  -16.0700 O   0  0  0  0  0  0  0  0  0  0  0  0
   21.0030   -8.9513  -16.5018 N   0  0  0  0  0  0  0  0  0  0  0  0
   21.0825   -7.5932  -16.0820 C   0  0  1  0  0  0  0  0  0  0  0  0
   22.4163   -7.3941  -15.3944 C   0  0  0  0  0  0  0  0  0  0  0  0
   22.2407   -7.6071  -13.9072 C   0  0  0  0  0  0  0  0  0  0  0  0
   21.8947   -6.3010  -13.3071 C   0  0  0  0  0  0  0  0  0  0  0  0
   22.5336   -5.2634  -13.6265 O   0  0  0  0  0  0  0  0  0  0  0  0
   20.9960   -6.6201  -17.1903 C   0  0  0  0  0  0  0  0  0  0  0  0
   21.6944   -6.8211  -18.2153 O   0  0  0  0  0  0  0  0  0  0  0  0
   20.8593   -6.2455  -12.3920 O   0  0  0  0  0  0  0  0  0  0  0  0
   20.1746   -5.4695  -17.1752 N   0  0  0  0  0  0  0  0  0  0  0  0
   20.0162   -4.5804  -18.3105 C   0  0  1  0  0  0  0  0  0  0  0  0
   18.5622   -4.2797  -18.5953 C   0  0  0  0  0  0  0  0  0  0  0  0
   17.6129   -5.7140  -19.0820 S   0  0  0  0  0  0  0  0  0  0  0  0
   20.6291   -3.2681  -17.9071 C   0  0  0  0  0  0  0  0  0  0  0  0
   20.9882   -3.0348  -16.7253 O   0  0  0  0  0  0  0  0  0  0  0  0
   20.8249   -2.2493  -18.8367 O   0  0  0  0  0  0  0  0  0  0  0  0
  2  1  1  1
  2  3  1  0
  4  6  1  0
  4  2  1  0
  5  4  2  0
  7  6  1  0
  7 12  1  0
  7  8  1  6
  9  8  1  0
 10  9  1  0
 11 10  2  0
 12 15  1  0
 13 12  2  0
 14 10  1  0
 15 16  1  0
 16 19  1  0
 16 17  1  1
 17 18  1  0
 19 21  1  0
 20 19  2  0
M  END
$$$$
