AEC.pdb
     RDKit          3D

 21 20  0  0  1  0  0  0  0  0999 V2000
   24.2577  -14.0778  -18.3156 C   0  0  0  0  0  0  0  0  0  0  0  0
   22.9212  -13.3774  -18.2409 C   0  0  2  0  0  0  0  0  0  0  0  0
   22.5015  -13.0788  -19.5976 N   0  0  0  0  0  0  0  0  0  0  0  0
   23.0571  -12.1171  -17.4653 C   0  0  0  0  0  0  0  0  0  0  0  0
   23.3946  -12.1028  -16.2704 O   0  0  0  0  0  0  0  0  0  0  0  0
   22.7956  -10.8790  -18.0963 N   0  0  0  0  0  0  0  0  0  0  0  0
   22.8190   -9.6033  -17.4648 C   0  0  1  0  0  0  0  0  0  0  0  0
   22.7659   -8.5456  -18.5464 C   0  0  0  0  0  0  0  0  0  0  0  0
   22.8419   -7.1787  -17.9033 C   0  0  0  0  0  0  0  0  0  0  0  0
   22.7444   -6.1720  -18.9816 C   0  0  0  0  0  0  0  0  0  0  0  0
   21.6206   -5.7343  -19.3454 O   0  0  0  0  0  0  0  0  0  0  0  0
   21.6835   -9.3700  -16.5489 C   0  0  0  0  0  0  0  0  0  0  0  0
   20.5293   -9.6734  -16.9419 O   0  0  0  0  0  0  0  0  0  0  0  0
   23.9092   -5.7248  -19.5781 O   0  0  0  0  0  0  0  0  0  0  0  0
   21.8089   -8.8244  -15.2507 N   0  0  0  0  0  0  0  0  0  0  0  0
   20.6851   -8.6024  -14.3605 C   0  0  1  0  0  0  0  0  0  0  0  0
   20.8841   -9.2725  -13.0200 C   0  0  0  0  0  0  0  0  0  0  0  0
   19.6842   -8.7861  -11.7874 S   0  0  0  0  0  0  0  0  0  0  0  0
   20.6587   -7.1265  -14.0748 C   0  0  0  0  0  0  0  0  0  0  0  0
   19.6376   -6.5537  -13.6171 O   0  0  0  0  0  0  0  0  0  0  0  0
   21.7760   -6.3281  -14.3085 O   0  0  0  0  0  0  0  0  0  0  0  0
  2  1  1  6
  2  3  1  0
  4  6  1  0
  4  2  1  0
  5  4  2  0
  7  6  1  0
  7 12  1  0
  7  8  1  6
  9  8  1  0
 10  9  1  0
 11 10  2  0
 12 15  1  0
 13 12  2  0
 14 10  1  0
 15 16  1  0
 16 19  1  0
 16 17  1  1
 17 18  1  0
 19 21  1  0
 20 19  2  0
M  END
$$$$
