AEC.pdb
     RDKit          3D

 21 20  0  0  1  0  0  0  0  0999 V2000
   13.3432  -13.7786  -10.9500 C   0  0  0  0  0  0  0  0  0  0  0  0
   12.8844  -12.3462  -10.8074 C   0  0  2  0  0  0  0  0  0  0  0  0
   12.2455  -11.9602  -12.0519 N   0  0  0  0  0  0  0  0  0  0  0  0
   14.0540  -11.4675  -10.5464 C   0  0  0  0  0  0  0  0  0  0  0  0
   14.7233  -11.5409   -9.5030 O   0  0  0  0  0  0  0  0  0  0  0  0
   14.4325  -10.5062  -11.5118 N   0  0  0  0  0  0  0  0  0  0  0  0
   15.5154   -9.5898  -11.3918 C   0  0  1  0  0  0  0  0  0  0  0  0
   16.1726   -9.4628  -12.7494 C   0  0  0  0  0  0  0  0  0  0  0  0
   17.0976  -10.6407  -12.9614 C   0  0  0  0  0  0  0  0  0  0  0  0
   17.7165  -10.4878  -14.2952 C   0  0  0  0  0  0  0  0  0  0  0  0
   18.9302  -10.1678  -14.4020 O   0  0  0  0  0  0  0  0  0  0  0  0
   15.1074   -8.2374  -10.9591 C   0  0  0  0  0  0  0  0  0  0  0  0
   14.0614   -7.7450  -11.4514 O   0  0  0  0  0  0  0  0  0  0  0  0
   16.9362  -10.7030  -15.4165 O   0  0  0  0  0  0  0  0  0  0  0  0
   15.8196   -7.4541  -10.0221 N   0  0  0  0  0  0  0  0  0  0  0  0
   15.3631   -6.1637   -9.5416 C   0  0  1  0  0  0  0  0  0  0  0  0
   15.5630   -6.0119   -8.0507 C   0  0  0  0  0  0  0  0  0  0  0  0
   14.0367   -5.9662   -7.1213 S   0  0  0  0  0  0  0  0  0  0  0  0
   16.2589   -5.1364  -10.1763 C   0  0  0  0  0  0  0  0  0  0  0  0
   17.3632   -5.4424  -10.6932 O   0  0  0  0  0  0  0  0  0  0  0  0
   15.8965   -3.7921  -10.2168 O   0  0  0  0  0  0  0  0  0  0  0  0
  2  1  1  6
  2  3  1  0
  4  6  1  0
  4  2  1  0
  5  4  2  0
  7  6  1  0
  7 12  1  0
  7  8  1  6
  9  8  1  0
 10  9  1  0
 11 10  2  0
 12 15  1  0
 13 12  2  0
 14 10  1  0
 15 16  1  0
 16 19  1  0
 16 17  1  1
 17 18  1  0
 19 21  1  0
 20 19  2  0
M  END
$$$$
