AEC.pdb
     RDKit          3D

 21 20  0  0  1  0  0  0  0  0999 V2000
   19.8781  -12.5185  -17.7863 C   0  0  0  0  0  0  0  0  0  0  0  0
   20.0322  -11.8010  -16.4656 C   0  0  2  0  0  0  0  0  0  0  0  0
   18.8999  -12.1602  -15.6321 N   0  0  0  0  0  0  0  0  0  0  0  0
   20.0480  -10.3322  -16.6906 C   0  0  0  0  0  0  0  0  0  0  0  0
   20.9876   -9.7553  -17.2619 O   0  0  0  0  0  0  0  0  0  0  0  0
   18.9603   -9.5471  -16.2435 N   0  0  0  0  0  0  0  0  0  0  0  0
   18.8394   -8.1359  -16.3878 C   0  0  1  0  0  0  0  0  0  0  0  0
   17.3670   -7.8018  -16.4956 C   0  0  0  0  0  0  0  0  0  0  0  0
   16.9786   -7.7518  -17.9566 C   0  0  0  0  0  0  0  0  0  0  0  0
   15.5471   -7.3892  -18.0258 C   0  0  0  0  0  0  0  0  0  0  0  0
   15.1983   -6.1809  -18.0988 O   0  0  0  0  0  0  0  0  0  0  0  0
   19.3944   -7.3704  -15.2526 C   0  0  0  0  0  0  0  0  0  0  0  0
   19.4046   -7.9106  -14.1182 O   0  0  0  0  0  0  0  0  0  0  0  0
   14.6053   -8.4017  -18.0083 O   0  0  0  0  0  0  0  0  0  0  0  0
   19.9182   -6.0614  -15.3572 N   0  0  0  0  0  0  0  0  0  0  0  0
   20.5726   -5.3681  -14.2637 C   0  0  1  0  0  0  0  0  0  0  0  0
   21.8601   -6.0461  -13.8535 C   0  0  0  0  0  0  0  0  0  0  0  0
   22.8402   -5.0925  -12.7022 S   0  0  0  0  0  0  0  0  0  0  0  0
   20.9769   -4.0227  -14.7993 C   0  0  0  0  0  0  0  0  0  0  0  0
   21.3432   -3.8617  -15.9910 O   0  0  0  0  0  0  0  0  0  0  0  0
   20.9611   -2.8906  -13.9878 O   0  0  0  0  0  0  0  0  0  0  0  0
  2  1  1  6
  2  3  1  0
  4  6  1  0
  4  2  1  0
  5  4  2  0
  7  6  1  0
  7 12  1  0
  7  8  1  1
  9  8  1  0
 10  9  1  0
 11 10  2  0
 12 15  1  0
 13 12  2  0
 14 10  1  0
 15 16  1  0
 16 19  1  0
 16 17  1  6
 17 18  1  0
 19 21  1  0
 20 19  2  0
M  END
$$$$
