AEC.pdb
     RDKit          3D

 21 20  0  0  1  0  0  0  0  0999 V2000
   17.9460  -12.2865  -14.3006 C   0  0  0  0  0  0  0  0  0  0  0  0
   16.7284  -11.5138  -13.8501 C   0  0  2  0  0  0  0  0  0  0  0  0
   15.6680  -11.7599  -14.8097 N   0  0  0  0  0  0  0  0  0  0  0  0
   17.0426  -10.0621  -13.8057 C   0  0  0  0  0  0  0  0  0  0  0  0
   17.1022   -9.3613  -14.8290 O   0  0  0  0  0  0  0  0  0  0  0  0
   17.2858   -9.4397  -12.5595 N   0  0  0  0  0  0  0  0  0  0  0  0
   17.5498   -8.0550  -12.3598 C   0  0  1  0  0  0  0  0  0  0  0  0
   17.1716   -7.7080  -10.9358 C   0  0  0  0  0  0  0  0  0  0  0  0
   17.2877   -6.2119  -10.7456 C   0  0  0  0  0  0  0  0  0  0  0  0
   16.8517   -5.9019   -9.3674 C   0  0  0  0  0  0  0  0  0  0  0  0
   16.5959   -6.8306   -8.5556 O   0  0  0  0  0  0  0  0  0  0  0  0
   18.9664   -7.6836  -12.5542 C   0  0  0  0  0  0  0  0  0  0  0  0
   19.8468   -8.3716  -11.9793 O   0  0  0  0  0  0  0  0  0  0  0  0
   16.7317   -4.5762   -8.9925 O   0  0  0  0  0  0  0  0  0  0  0  0
   19.4016   -6.5983  -13.3489 N   0  0  0  0  0  0  0  0  0  0  0  0
   20.7974   -6.3071  -13.6163 C   0  0  1  0  0  0  0  0  0  0  0  0
   21.2154   -6.7591  -14.9971 C   0  0  0  0  0  0  0  0  0  0  0  0
   22.8516   -6.2146  -15.4677 S   0  0  0  0  0  0  0  0  0  0  0  0
   20.9210   -4.8087  -13.6266 C   0  0  0  0  0  0  0  0  0  0  0  0
   22.0352   -4.2307  -13.5575 O   0  0  0  0  0  0  0  0  0  0  0  0
   19.7943   -3.9943  -13.7140 O   0  0  0  0  0  0  0  0  0  0  0  0
  2  1  1  6
  2  3  1  0
  4  6  1  0
  4  2  1  0
  5  4  2  0
  7  6  1  0
  7 12  1  0
  7  8  1  1
  9  8  1  0
 10  9  1  0
 11 10  2  0
 12 15  1  0
 13 12  2  0
 14 10  1  0
 15 16  1  0
 16 19  1  0
 16 17  1  6
 17 18  1  0
 19 21  1  0
 20 19  2  0
M  END
$$$$
