NCY.pdb
     RDKit          3D

 27 27  0  0  1  0  0  0  0  0999 V2000
   22.4394  -12.1438  -21.4295 N   0  0  0  0  0  0  0  0  0  0  0  0
   22.2616  -12.4370  -20.0403 C   0  0  0  0  0  0  0  0  0  0  0  0
   21.5639  -13.4342  -19.7490 O   0  0  0  0  0  0  0  0  0  0  0  0
   22.9190  -11.5345  -19.0698 C   0  0  0  0  0  0  0  0  0  0  0  0
   23.7035  -10.4218  -19.6536 C   0  0  2  0  0  0  0  0  0  0  0  0
   25.0209  -10.9504  -20.0018 N   0  0  0  0  0  0  0  0  0  0  0  0
   23.8258   -9.2098  -18.8180 C   0  0  0  0  0  0  0  0  0  0  0  0
   24.5149   -9.1602  -17.7802 O   0  0  0  0  0  0  0  0  0  0  0  0
   23.1365   -8.0046  -19.1762 N   0  0  0  0  0  0  0  0  0  0  0  0
   23.2649   -6.7835  -18.3932 C   0  0  1  0  0  0  0  0  0  0  0  0
   23.1035   -5.5768  -19.3291 C   0  0  0  0  0  0  0  0  0  0  0  0
   23.0698   -4.0080  -18.4829 S   0  0  0  0  0  0  0  0  0  0  0  0
   22.2285   -6.7235  -17.3358 C   0  0  0  0  0  0  0  0  0  0  0  0
   21.0585   -7.1464  -17.6411 O   0  0  0  0  0  0  0  0  0  0  0  0
   18.3784   -6.3372   -9.3329 O   0  0  0  0  0  0  0  0  0  0  0  0
   19.2063   -6.4780  -10.4227 C   0  0  0  0  0  0  0  0  0  0  0  0
   19.3111   -7.6620  -11.1397 C   0  0  0  0  0  0  0  0  0  0  0  0
   20.1612   -7.7459  -12.2287 C   0  0  0  0  0  0  0  0  0  0  0  0
   20.9264   -6.6740  -12.6389 C   0  0  0  0  0  0  0  0  0  0  0  0
   21.8396   -6.7120  -13.7742 C   0  0  0  0  0  0  0  0  0  0  0  0
   21.2957   -6.1509  -15.0657 C   0  0  2  0  0  0  0  0  0  0  0  0
   22.3753   -6.2580  -16.0307 N   0  0  0  0  0  0  0  0  0  0  0  0
   20.9311   -4.7270  -14.9505 C   0  0  0  0  0  0  0  0  0  0  0  0
   21.8614   -3.7615  -15.2845 O   0  0  0  0  0  0  0  0  0  0  0  0
   20.7993   -5.5165  -11.9074 C   0  0  0  0  0  0  0  0  0  0  0  0
   19.9678   -5.3934  -10.8220 C   0  0  0  0  0  0  0  0  0  0  0  0
   19.7809   -4.3573  -14.5509 O   0  0  0  0  0  0  0  0  0  0  0  0
  2  1  1  0
  3  2  2  0
  4  2  1  0
  4  5  1  0
  5  7  1  0
  5  6  1  1
  7  9  1  0
  8  7  2  0
  9 10  1  0
 10 11  1  6
 11 12  1  0
 13 10  1  0
 13 14  2  0
 15 16  1  0
 16 17  2  0
 16 26  1  0
 17 18  1  0
 18 19  2  0
 19 20  1  0
 21 20  1  1
 21 22  1  0
 21 23  1  0
 22 13  1  0
 23 24  1  0
 25 19  1  0
 26 25  2  0
 27 23  2  0
M  END
$$$$
