NCY.pdb
     RDKit          3D

 27 27  0  0  1  0  0  0  0  0999 V2000
   17.6518  -14.0585  -16.0020 N   0  0  0  0  0  0  0  0  0  0  0  0
   19.0685  -14.0037  -15.8087 C   0  0  0  0  0  0  0  0  0  0  0  0
   19.5751  -14.8467  -15.0348 O   0  0  0  0  0  0  0  0  0  0  0  0
   19.8103  -12.9543  -16.5414 C   0  0  0  0  0  0  0  0  0  0  0  0
   18.9931  -12.0723  -17.4067 C   0  0  2  0  0  0  0  0  0  0  0  0
   18.7471  -12.7903  -18.6557 N   0  0  0  0  0  0  0  0  0  0  0  0
   19.5507  -10.7302  -17.6710 C   0  0  0  0  0  0  0  0  0  0  0  0
   20.4928  -10.5235  -18.4611 O   0  0  0  0  0  0  0  0  0  0  0  0
   19.0160   -9.5754  -17.0104 N   0  0  0  0  0  0  0  0  0  0  0  0
   19.5475   -8.2401  -17.2453 C   0  0  1  0  0  0  0  0  0  0  0  0
   18.4115   -7.3373  -17.7481 C   0  0  0  0  0  0  0  0  0  0  0  0
   18.8316   -5.6051  -17.7877 S   0  0  0  0  0  0  0  0  0  0  0  0
   20.1096   -7.6692  -15.9987 C   0  0  0  0  0  0  0  0  0  0  0  0
   19.4683   -7.8945  -14.9129 O   0  0  0  0  0  0  0  0  0  0  0  0
   26.8064   -5.7277  -18.5758 O   0  0  0  0  0  0  0  0  0  0  0  0
   25.9209   -5.9644  -17.5497 C   0  0  0  0  0  0  0  0  0  0  0  0
   25.5852   -5.0008  -16.6086 C   0  0  0  0  0  0  0  0  0  0  0  0
   24.6875   -5.2957  -15.5972 C   0  0  0  0  0  0  0  0  0  0  0  0
   24.0997   -6.5385  -15.4852 C   0  0  0  0  0  0  0  0  0  0  0  0
   23.1537   -6.9008  -14.4373 C   0  0  0  0  0  0  0  0  0  0  0  0
   21.7547   -6.3604  -14.6087 C   0  0  2  0  0  0  0  0  0  0  0  0
   21.2688   -6.9080  -15.8627 N   0  0  0  0  0  0  0  0  0  0  0  0
   21.7293   -4.8902  -14.7168 C   0  0  0  0  0  0  0  0  0  0  0  0
   22.0797   -4.1253  -13.6206 O   0  0  0  0  0  0  0  0  0  0  0  0
   24.4538   -7.4699  -16.4330 C   0  0  0  0  0  0  0  0  0  0  0  0
   25.3395   -7.2166  -17.4507 C   0  0  0  0  0  0  0  0  0  0  0  0
   21.3931   -4.3005  -15.7931 O   0  0  0  0  0  0  0  0  0  0  0  0
  2  1  1  0
  3  2  2  0
  4  2  1  0
  4  5  1  0
  5  7  1  0
  5  6  1  6
  7  9  1  0
  8  7  2  0
  9 10  1  0
 10 11  1  1
 11 12  1  0
 13 10  1  0
 13 14  2  0
 15 16  1  0
 16 17  2  0
 16 26  1  0
 17 18  1  0
 18 19  2  0
 19 20  1  0
 21 20  1  6
 21 22  1  0
 21 23  1  0
 22 13  1  0
 23 24  1  0
 25 19  1  0
 26 25  2  0
 27 23  2  0
M  END
$$$$
