NCY.pdb
     RDKit          3D

 27 27  0  0  1  0  0  0  0  0999 V2000
   19.0101  -10.3768  -17.5861 N   0  0  0  0  0  0  0  0  0  0  0  0
   18.5030  -11.1423  -16.4887 C   0  0  0  0  0  0  0  0  0  0  0  0
   17.7058  -12.0693  -16.7554 O   0  0  0  0  0  0  0  0  0  0  0  0
   18.9665  -10.7701  -15.1340 C   0  0  0  0  0  0  0  0  0  0  0  0
   19.8096   -9.5547  -15.0526 C   0  0  2  0  0  0  0  0  0  0  0  0
   21.1741   -9.9443  -15.4024 N   0  0  0  0  0  0  0  0  0  0  0  0
   19.7810   -8.8340  -13.7634 C   0  0  0  0  0  0  0  0  0  0  0  0
   20.0492   -9.3729  -12.6716 O   0  0  0  0  0  0  0  0  0  0  0  0
   19.4334   -7.4440  -13.7128 N   0  0  0  0  0  0  0  0  0  0  0  0
   19.4083   -6.7027  -12.4596 C   0  0  1  0  0  0  0  0  0  0  0  0
   20.0077   -5.3090  -12.6974 C   0  0  0  0  0  0  0  0  0  0  0  0
   21.7903   -5.2804  -12.6898 S   0  0  0  0  0  0  0  0  0  0  0  0
   18.0208   -6.5587  -11.9595 C   0  0  0  0  0  0  0  0  0  0  0  0
   17.1064   -6.3426  -12.8302 O   0  0  0  0  0  0  0  0  0  0  0  0
   10.9506   -7.2831   -6.5866 O   0  0  0  0  0  0  0  0  0  0  0  0
   12.1728   -7.3613   -7.2137 C   0  0  0  0  0  0  0  0  0  0  0  0
   12.4928   -8.3676   -8.1148 C   0  0  0  0  0  0  0  0  0  0  0  0
   13.7392   -8.3960   -8.7159 C   0  0  0  0  0  0  0  0  0  0  0  0
   14.6981   -7.4412   -8.4486 C   0  0  0  0  0  0  0  0  0  0  0  0
   16.0255   -7.4290   -9.0503 C   0  0  0  0  0  0  0  0  0  0  0  0
   16.2029   -6.4860  -10.2156 C   0  0  2  0  0  0  0  0  0  0  0  0
   17.5842   -6.6330  -10.6383 N   0  0  0  0  0  0  0  0  0  0  0  0
   15.9934   -5.0770   -9.8354 C   0  0  0  0  0  0  0  0  0  0  0  0
   14.7495   -4.5043  -10.0204 O   0  0  0  0  0  0  0  0  0  0  0  0
   14.3492   -6.4587   -7.5519 C   0  0  0  0  0  0  0  0  0  0  0  0
   13.1245   -6.3958   -6.9350 C   0  0  0  0  0  0  0  0  0  0  0  0
   16.9267   -4.3679   -9.3400 O   0  0  0  0  0  0  0  0  0  0  0  0
  2  1  1  0
  3  2  2  0
  4  2  1  0
  4  5  1  0
  5  7  1  0
  5  6  1  1
  7  9  1  0
  8  7  2  0
  9 10  1  0
 10 11  1  6
 11 12  1  0
 13 10  1  0
 13 14  2  0
 15 16  1  0
 16 17  2  0
 16 26  1  0
 17 18  1  0
 18 19  2  0
 19 20  1  0
 21 20  1  1
 21 22  1  0
 21 23  1  0
 22 13  1  0
 23 24  1  0
 25 19  1  0
 26 25  2  0
 27 23  2  0
M  END
$$$$
