NCY.pdb
     RDKit          3D

 27 27  0  0  1  0  0  0  0  0999 V2000
   16.4571  -19.9855    1.6987 N   0  0  0  0  0  0  0  0  0  0  0  0
   15.1431  -19.9371    2.2629 C   0  0  0  0  0  0  0  0  0  0  0  0
   14.1799  -20.1538    1.4938 O   0  0  0  0  0  0  0  0  0  0  0  0
   15.0387  -19.6348    3.7073 C   0  0  0  0  0  0  0  0  0  0  0  0
   16.0596  -20.2685    4.5738 C   0  0  2  0  0  0  0  0  0  0  0  0
   15.7745  -21.7015    4.6100 N   0  0  0  0  0  0  0  0  0  0  0  0
   16.1778  -19.7196    5.9401 C   0  0  0  0  0  0  0  0  0  0  0  0
   15.3540  -19.9545    6.8460 O   0  0  0  0  0  0  0  0  0  0  0  0
   17.2771  -18.8689    6.2916 N   0  0  0  0  0  0  0  0  0  0  0  0
   17.5025  -18.4301    7.6617 C   0  0  1  0  0  0  0  0  0  0  0  0
   18.0104  -19.6224    8.4855 C   0  0  0  0  0  0  0  0  0  0  0  0
   19.4917  -20.3701    7.8333 S   0  0  0  0  0  0  0  0  0  0  0  0
   18.5064  -17.3411    7.7084 C   0  0  0  0  0  0  0  0  0  0  0  0
   19.2716  -17.2090    6.6896 O   0  0  0  0  0  0  0  0  0  0  0  0
   22.1464   -9.6180    7.2436 O   0  0  0  0  0  0  0  0  0  0  0  0
   21.4087  -10.7776    7.3095 C   0  0  0  0  0  0  0  0  0  0  0  0
   20.0209  -10.7889    7.2796 C   0  0  0  0  0  0  0  0  0  0  0  0
   19.3309  -11.9866    7.3493 C   0  0  0  0  0  0  0  0  0  0  0  0
   19.9834  -13.1978    7.4496 C   0  0  0  0  0  0  0  0  0  0  0  0
   19.3042  -14.4848    7.5310 C   0  0  0  0  0  0  0  0  0  0  0  0
   19.6943  -15.3531    8.7026 C   0  0  2  0  0  0  0  0  0  0  0  0
   18.7204  -16.4295    8.7403 N   0  0  0  0  0  0  0  0  0  0  0  0
   19.6212  -14.6314    9.9861 C   0  0  0  0  0  0  0  0  0  0  0  0
   20.7679  -14.0661   10.5104 O   0  0  0  0  0  0  0  0  0  0  0  0
   21.3575  -13.1515    7.4768 C   0  0  0  0  0  0  0  0  0  0  0  0
   22.0780  -11.9849    7.4100 C   0  0  0  0  0  0  0  0  0  0  0  0
   18.5299  -14.5122   10.6297 O   0  0  0  0  0  0  0  0  0  0  0  0
  2  1  1  0
  3  2  2  0
  4  2  1  0
  4  5  1  0
  5  7  1  0
  5  6  1  1
  7  9  1  0
  8  7  2  0
  9 10  1  0
 10 11  1  1
 11 12  1  0
 13 10  1  0
 13 14  2  0
 15 16  1  0
 16 17  2  0
 16 26  1  0
 17 18  1  0
 18 19  2  0
 19 20  1  0
 21 20  1  6
 21 22  1  0
 21 23  1  0
 22 13  1  0
 23 24  1  0
 25 19  1  0
 26 25  2  0
 27 23  2  0
M  END
$$$$
