NCY.pdb
     RDKit          3D

 27 27  0  0  1  0  0  0  0  0999 V2000
   21.5245  -14.9220  -18.3227 N   0  0  0  0  0  0  0  0  0  0  0  0
   22.5883  -14.0634  -18.7452 C   0  0  0  0  0  0  0  0  0  0  0  0
   23.6957  -14.5958  -18.9825 O   0  0  0  0  0  0  0  0  0  0  0  0
   22.2850  -12.6203  -18.8644 C   0  0  0  0  0  0  0  0  0  0  0  0
   20.8588  -12.2473  -18.7181 C   0  0  2  0  0  0  0  0  0  0  0  0
   20.1553  -12.7342  -19.9031 N   0  0  0  0  0  0  0  0  0  0  0  0
   20.5861  -10.8127  -18.4952 C   0  0  0  0  0  0  0  0  0  0  0  0
   20.8497   -9.9274  -19.3326 O   0  0  0  0  0  0  0  0  0  0  0  0
   19.9894  -10.3657  -17.2705 N   0  0  0  0  0  0  0  0  0  0  0  0
   19.7060   -8.9591  -17.0217 C   0  0  1  0  0  0  0  0  0  0  0  0
   18.1918   -8.7855  -16.8339 C   0  0  0  0  0  0  0  0  0  0  0  0
   17.7322   -7.2369  -16.0796 S   0  0  0  0  0  0  0  0  0  0  0  0
   20.4064   -8.4873  -15.8040 C   0  0  0  0  0  0  0  0  0  0  0  0
   20.2905   -9.2051  -14.7493 O   0  0  0  0  0  0  0  0  0  0  0  0
   26.0878   -4.9921  -18.8558 O   0  0  0  0  0  0  0  0  0  0  0  0
   25.3995   -5.6148  -17.8402 C   0  0  0  0  0  0  0  0  0  0  0  0
   24.9083   -6.9088  -17.9476 C   0  0  0  0  0  0  0  0  0  0  0  0
   24.2226   -7.4849  -16.8924 C   0  0  0  0  0  0  0  0  0  0  0  0
   24.0031   -6.8081  -15.7107 C   0  0  0  0  0  0  0  0  0  0  0  0
   23.2836   -7.3672  -14.5731 C   0  0  0  0  0  0  0  0  0  0  0  0
   21.8442   -6.9333  -14.4369 C   0  0  2  0  0  0  0  0  0  0  0  0
   21.1885   -7.3423  -15.6661 N   0  0  0  0  0  0  0  0  0  0  0  0
   21.7072   -5.4703  -14.3160 C   0  0  0  0  0  0  0  0  0  0  0  0
   21.0465   -4.7687  -15.3064 O   0  0  0  0  0  0  0  0  0  0  0  0
   24.5024   -5.5289  -15.6371 C   0  0  0  0  0  0  0  0  0  0  0  0
   25.1873   -4.9225  -16.6607 C   0  0  0  0  0  0  0  0  0  0  0  0
   22.1807   -4.8300  -13.3235 O   0  0  0  0  0  0  0  0  0  0  0  0
  2  1  1  0
  3  2  2  0
  4  2  1  0
  4  5  1  0
  5  7  1  0
  5  6  1  6
  7  9  1  0
  8  7  2  0
  9 10  1  0
 10 11  1  1
 11 12  1  0
 13 10  1  0
 13 14  2  0
 15 16  1  0
 16 17  2  0
 16 26  1  0
 17 18  1  0
 18 19  2  0
 19 20  1  0
 21 20  1  6
 21 22  1  0
 21 23  1  0
 22 13  1  0
 23 24  1  0
 25 19  1  0
 26 25  2  0
 27 23  2  0
M  END
$$$$
