NCY.pdb
     RDKit          3D

 27 27  0  0  1  0  0  0  0  0999 V2000
   29.8778  -16.7853  -16.4528 N   0  0  0  0  0  0  0  0  0  0  0  0
   28.5067  -16.8462  -16.8576 C   0  0  0  0  0  0  0  0  0  0  0  0
   28.2533  -16.6198  -18.0620 O   0  0  0  0  0  0  0  0  0  0  0  0
   27.5084  -17.1719  -15.8155 C   0  0  0  0  0  0  0  0  0  0  0  0
   27.6677  -18.4909  -15.1603 C   0  0  2  0  0  0  0  0  0  0  0  0
   27.6472  -19.5068  -16.2108 N   0  0  0  0  0  0  0  0  0  0  0  0
   26.6885  -18.8082  -14.1007 C   0  0  0  0  0  0  0  0  0  0  0  0
   26.2959  -17.9758  -13.2596 O   0  0  0  0  0  0  0  0  0  0  0  0
   26.1326  -20.1254  -13.9924 N   0  0  0  0  0  0  0  0  0  0  0  0
   25.1565  -20.4662  -12.9668 C   0  0  1  0  0  0  0  0  0  0  0  0
   24.3295  -21.6662  -13.4507 C   0  0  0  0  0  0  0  0  0  0  0  0
   23.2482  -22.3449  -12.2063 S   0  0  0  0  0  0  0  0  0  0  0  0
   25.8295  -20.8182  -11.6944 C   0  0  0  0  0  0  0  0  0  0  0  0
   26.9305  -21.4677  -11.7770 O   0  0  0  0  0  0  0  0  0  0  0  0
   29.3401  -19.9510   -3.7368 O   0  0  0  0  0  0  0  0  0  0  0  0
   28.7836  -19.9283   -4.9949 C   0  0  0  0  0  0  0  0  0  0  0  0
   27.6776  -19.1525   -5.3142 C   0  0  0  0  0  0  0  0  0  0  0  0
   27.1602  -19.1694   -6.5978 C   0  0  0  0  0  0  0  0  0  0  0  0
   27.7133  -19.9450   -7.5954 C   0  0  0  0  0  0  0  0  0  0  0  0
   27.2039  -20.0023   -8.9598 C   0  0  0  0  0  0  0  0  0  0  0  0
   26.0691  -20.9706   -9.1902 C   0  0  2  0  0  0  0  0  0  0  0  0
   25.4045  -20.5221  -10.4008 N   0  0  0  0  0  0  0  0  0  0  0  0
   25.0806  -20.9487   -8.0965 C   0  0  0  0  0  0  0  0  0  0  0  0
   25.3467  -21.6408   -6.9305 O   0  0  0  0  0  0  0  0  0  0  0  0
   28.8074  -20.7013   -7.2460 C   0  0  0  0  0  0  0  0  0  0  0  0
   29.3500  -20.7120   -5.9851 C   0  0  0  0  0  0  0  0  0  0  0  0
   23.9845  -20.3096   -8.1931 O   0  0  0  0  0  0  0  0  0  0  0  0
  2  1  1  0
  3  2  2  0
  4  2  1  0
  4  5  1  0
  5  7  1  0
  5  6  1  6
  7  9  1  0
  8  7  2  0
  9 10  1  0
 10 11  1  6
 11 12  1  0
 13 10  1  0
 13 14  2  0
 15 16  1  0
 16 17  2  0
 16 26  1  0
 17 18  1  0
 18 19  2  0
 19 20  1  0
 21 20  1  1
 21 22  1  0
 21 23  1  0
 22 13  1  0
 23 24  1  0
 25 19  1  0
 26 25  2  0
 27 23  2  0
M  END
$$$$
