NCY.pdb
     RDKit          3D

 27 27  0  0  1  0  0  0  0  0999 V2000
   26.9078  -17.2058  -17.8993 N   0  0  0  0  0  0  0  0  0  0  0  0
   27.9599  -17.8069  -17.1383 C   0  0  0  0  0  0  0  0  0  0  0  0
   29.1336  -17.4795  -17.4233 O   0  0  0  0  0  0  0  0  0  0  0  0
   27.5670  -18.7636  -16.0804 C   0  0  0  0  0  0  0  0  0  0  0  0
   28.3906  -19.9911  -15.9833 C   0  0  2  0  0  0  0  0  0  0  0  0
   28.1113  -20.8005  -17.1678 N   0  0  0  0  0  0  0  0  0  0  0  0
   28.2220  -20.7860  -14.7497 C   0  0  0  0  0  0  0  0  0  0  0  0
   27.2927  -21.5999  -14.5811 O   0  0  0  0  0  0  0  0  0  0  0  0
   29.1474  -20.6506  -13.6629 N   0  0  0  0  0  0  0  0  0  0  0  0
   28.8413  -21.1415  -12.3265 C   0  0  1  0  0  0  0  0  0  0  0  0
   30.0937  -21.0006  -11.4491 C   0  0  0  0  0  0  0  0  0  0  0  0
   29.8044  -21.3332   -9.7217 S   0  0  0  0  0  0  0  0  0  0  0  0
   27.7317  -20.3678  -11.7216 C   0  0  0  0  0  0  0  0  0  0  0  0
   27.7594  -19.0955  -11.8690 O   0  0  0  0  0  0  0  0  0  0  0  0
   21.4337  -23.5050  -13.7540 O   0  0  0  0  0  0  0  0  0  0  0  0
   22.2734  -22.5618  -13.2078 C   0  0  0  0  0  0  0  0  0  0  0  0
   23.6224  -22.4817  -13.5254 C   0  0  0  0  0  0  0  0  0  0  0  0
   24.4199  -21.5111  -12.9445 C   0  0  0  0  0  0  0  0  0  0  0  0
   23.9151  -20.5991  -12.0411 C   0  0  0  0  0  0  0  0  0  0  0  0
   24.7127  -19.5624  -11.3981 C   0  0  0  0  0  0  0  0  0  0  0  0
   25.6595  -20.0420  -10.3248 C   0  0  2  0  0  0  0  0  0  0  0  0
   26.6454  -20.8639  -11.0036 N   0  0  0  0  0  0  0  0  0  0  0  0
   24.9872  -20.8818   -9.3165 C   0  0  0  0  0  0  0  0  0  0  0  0
   23.9785  -20.3361   -8.5456 O   0  0  0  0  0  0  0  0  0  0  0  0
   22.5758  -20.7059  -11.7483 C   0  0  0  0  0  0  0  0  0  0  0  0
   21.7519  -21.6536  -12.3028 C   0  0  0  0  0  0  0  0  0  0  0  0
   25.3082  -22.0993   -9.1327 O   0  0  0  0  0  0  0  0  0  0  0  0
  2  1  1  0
  3  2  2  0
  4  2  1  0
  4  5  1  0
  5  7  1  0
  5  6  1  6
  7  9  1  0
  8  7  2  0
  9 10  1  0
 10 11  1  1
 11 12  1  0
 13 10  1  0
 13 14  2  0
 15 16  1  0
 16 17  2  0
 16 26  1  0
 17 18  1  0
 18 19  2  0
 19 20  1  0
 21 20  1  6
 21 22  1  0
 21 23  1  0
 22 13  1  0
 23 24  1  0
 25 19  1  0
 26 25  2  0
 27 23  2  0
M  END
$$$$
