NCY.pdb
     RDKit          3D

 27 27  0  0  1  0  0  0  0  0999 V2000
   28.1201  -18.8318  -18.3446 N   0  0  0  0  0  0  0  0  0  0  0  0
   28.1911  -18.8048  -16.9157 C   0  0  0  0  0  0  0  0  0  0  0  0
   29.0870  -18.1004  -16.3988 O   0  0  0  0  0  0  0  0  0  0  0  0
   27.1979  -19.6128  -16.1745 C   0  0  0  0  0  0  0  0  0  0  0  0
   27.7432  -20.7492  -15.3963 C   0  0  2  0  0  0  0  0  0  0  0  0
   28.2082  -21.7517  -16.3528 N   0  0  0  0  0  0  0  0  0  0  0  0
   26.8285  -21.3510  -14.4047 C   0  0  0  0  0  0  0  0  0  0  0  0
   26.0117  -22.2505  -14.6839 O   0  0  0  0  0  0  0  0  0  0  0  0
   26.8424  -20.9124  -13.0397 N   0  0  0  0  0  0  0  0  0  0  0  0
   25.7891  -21.2792  -12.1034 C   0  0  1  0  0  0  0  0  0  0  0  0
   26.2096  -20.8457  -10.6915 C   0  0  0  0  0  0  0  0  0  0  0  0
   24.9052  -20.9664   -9.4822 S   0  0  0  0  0  0  0  0  0  0  0  0
   24.5129  -20.6149  -12.4583 C   0  0  0  0  0  0  0  0  0  0  0  0
   24.5813  -19.4068  -12.8788 O   0  0  0  0  0  0  0  0  0  0  0  0
   17.7718  -18.5116  -17.3161 O   0  0  0  0  0  0  0  0  0  0  0  0
   18.8605  -18.9280  -16.5852 C   0  0  0  0  0  0  0  0  0  0  0  0
   19.6386  -18.0587  -15.8330 C   0  0  0  0  0  0  0  0  0  0  0  0
   20.7231  -18.5344  -15.1167 C   0  0  0  0  0  0  0  0  0  0  0  0
   21.0692  -19.8696  -15.1211 C   0  0  0  0  0  0  0  0  0  0  0  0
   22.2032  -20.4197  -14.3891 C   0  0  0  0  0  0  0  0  0  0  0  0
   22.0328  -20.5016  -12.8915 C   0  0  2  0  0  0  0  0  0  0  0  0
   23.2297  -21.1538  -12.3911 N   0  0  0  0  0  0  0  0  0  0  0  0
   20.8727  -21.3238  -12.5019 C   0  0  0  0  0  0  0  0  0  0  0  0
   19.7443  -20.7056  -11.9979 O   0  0  0  0  0  0  0  0  0  0  0  0
   20.2783  -20.7037  -15.8760 C   0  0  0  0  0  0  0  0  0  0  0  0
   19.1950  -20.2710  -16.5998 C   0  0  0  0  0  0  0  0  0  0  0  0
   20.8778  -22.5912  -12.6154 O   0  0  0  0  0  0  0  0  0  0  0  0
  2  1  1  0
  3  2  2  0
  4  2  1  0
  4  5  1  0
  5  7  1  0
  5  6  1  6
  7  9  1  0
  8  7  2  0
  9 10  1  0
 10 11  1  1
 11 12  1  0
 13 10  1  0
 13 14  2  0
 15 16  1  0
 16 17  2  0
 16 26  1  0
 17 18  1  0
 18 19  2  0
 19 20  1  0
 21 20  1  6
 21 22  1  0
 21 23  1  0
 22 13  1  0
 23 24  1  0
 25 19  1  0
 26 25  2  0
 27 23  2  0
M  END
$$$$
