NCY.pdb
     RDKit          3D

 27 27  0  0  1  0  0  0  0  0999 V2000
   18.8004  -16.3610  -14.8331 N   0  0  0  0  0  0  0  0  0  0  0  0
   18.9112  -16.0212  -16.2186 C   0  0  0  0  0  0  0  0  0  0  0  0
   19.5632  -16.7997  -16.9501 O   0  0  0  0  0  0  0  0  0  0  0  0
   18.2445  -14.7782  -16.6649 C   0  0  0  0  0  0  0  0  0  0  0  0
   17.5043  -14.0332  -15.6202 C   0  0  2  0  0  0  0  0  0  0  0  0
   16.3001  -14.7996  -15.3061 N   0  0  0  0  0  0  0  0  0  0  0  0
   17.1681  -12.6313  -15.9424 C   0  0  0  0  0  0  0  0  0  0  0  0
   16.6595  -12.2806  -17.0254 O   0  0  0  0  0  0  0  0  0  0  0  0
   17.4203  -11.5848  -14.9953 N   0  0  0  0  0  0  0  0  0  0  0  0
   17.1340  -10.1892  -15.2969 C   0  0  1  0  0  0  0  0  0  0  0  0
   15.8942   -9.7557  -14.5011 C   0  0  0  0  0  0  0  0  0  0  0  0
   15.6172   -7.9945  -14.5015 S   0  0  0  0  0  0  0  0  0  0  0  0
   18.2787   -9.3240  -14.9271 C   0  0  0  0  0  0  0  0  0  0  0  0
   18.8175   -9.5268  -13.7827 O   0  0  0  0  0  0  0  0  0  0  0  0
   24.3158   -2.7442  -15.5626 O   0  0  0  0  0  0  0  0  0  0  0  0
   23.3444   -3.6935  -15.7823 C   0  0  0  0  0  0  0  0  0  0  0  0
   21.9928   -3.3846  -15.8507 C   0  0  0  0  0  0  0  0  0  0  0  0
   21.0593   -4.3818  -16.0743 C   0  0  0  0  0  0  0  0  0  0  0  0
   21.4281   -5.7012  -16.2355 C   0  0  0  0  0  0  0  0  0  0  0  0
   20.4852   -6.7881  -16.4677 C   0  0  0  0  0  0  0  0  0  0  0  0
   19.9158   -7.4314  -15.2265 C   0  0  2  0  0  0  0  0  0  0  0  0
   18.8493   -8.3036  -15.6852 N   0  0  0  0  0  0  0  0  0  0  0  0
   19.3277   -6.4453  -14.3015 C   0  0  0  0  0  0  0  0  0  0  0  0
   20.0561   -6.0302  -13.2031 O   0  0  0  0  0  0  0  0  0  0  0  0
   22.7741   -5.9731  -16.1621 C   0  0  0  0  0  0  0  0  0  0  0  0
   23.7304   -5.0130  -15.9421 C   0  0  0  0  0  0  0  0  0  0  0  0
   18.1647   -5.9622  -14.4836 O   0  0  0  0  0  0  0  0  0  0  0  0
  2  1  1  0
  3  2  2  0
  4  2  1  0
  4  5  1  0
  5  7  1  0
  5  6  1  6
  7  9  1  0
  8  7  2  0
  9 10  1  0
 10 11  1  1
 11 12  1  0
 13 10  1  0
 13 14  2  0
 15 16  1  0
 16 17  2  0
 16 26  1  0
 17 18  1  0
 18 19  2  0
 19 20  1  0
 21 20  1  6
 21 22  1  0
 21 23  1  0
 22 13  1  0
 23 24  1  0
 25 19  1  0
 26 25  2  0
 27 23  2  0
M  END
$$$$
