NCY.pdb
     RDKit          3D

 27 27  0  0  1  0  0  0  0  0999 V2000
   22.3293  -12.4572  -22.3499 N   0  0  0  0  0  0  0  0  0  0  0  0
   21.8932  -13.3834  -21.3502 C   0  0  0  0  0  0  0  0  0  0  0  0
   21.4850  -14.4999  -21.7412 O   0  0  0  0  0  0  0  0  0  0  0  0
   21.9634  -12.9391  -19.9409 C   0  0  0  0  0  0  0  0  0  0  0  0
   23.2508  -13.1856  -19.2507 C   0  0  2  0  0  0  0  0  0  0  0  0
   23.3604  -14.6263  -19.0303 N   0  0  0  0  0  0  0  0  0  0  0  0
   23.4615  -12.4421  -17.9918 C   0  0  0  0  0  0  0  0  0  0  0  0
   22.8637  -12.7087  -16.9308 O   0  0  0  0  0  0  0  0  0  0  0  0
   24.3896  -11.3506  -17.9364 N   0  0  0  0  0  0  0  0  0  0  0  0
   24.6181  -10.5970  -16.7114 C   0  0  1  0  0  0  0  0  0  0  0  0
   26.1260  -10.5686  -16.4224 C   0  0  0  0  0  0  0  0  0  0  0  0
   26.5826   -9.4848  -15.0825 S   0  0  0  0  0  0  0  0  0  0  0  0
   24.1206   -9.2077  -16.8462 C   0  0  0  0  0  0  0  0  0  0  0  0
   24.3463   -8.6124  -17.9579 O   0  0  0  0  0  0  0  0  0  0  0  0
   18.8347   -2.3810  -17.5577 O   0  0  0  0  0  0  0  0  0  0  0  0
   19.5867   -3.5286  -17.4553 C   0  0  0  0  0  0  0  0  0  0  0  0
   20.7160   -3.7593  -18.2289 C   0  0  0  0  0  0  0  0  0  0  0  0
   21.4343   -4.9333  -18.0828 C   0  0  0  0  0  0  0  0  0  0  0  0
   21.0635   -5.9057  -17.1775 C   0  0  0  0  0  0  0  0  0  0  0  0
   21.7818   -7.1598  -16.9890 C   0  0  0  0  0  0  0  0  0  0  0  0
   22.9885   -7.0887  -16.0849 C   0  0  2  0  0  0  0  0  0  0  0  0
   23.4252   -8.4607  -15.8975 N   0  0  0  0  0  0  0  0  0  0  0  0
   22.6652   -6.5314  -14.7587 C   0  0  0  0  0  0  0  0  0  0  0  0
   22.3603   -7.3904  -13.7202 O   0  0  0  0  0  0  0  0  0  0  0  0
   19.9406   -5.6461  -16.4272 C   0  0  0  0  0  0  0  0  0  0  0  0
   19.2016   -4.4949  -16.5423 C   0  0  0  0  0  0  0  0  0  0  0  0
   22.6579   -5.2780  -14.5392 O   0  0  0  0  0  0  0  0  0  0  0  0
  2  1  1  0
  3  2  2  0
  4  2  1  0
  4  5  1  0
  5  7  1  0
  5  6  1  1
  7  9  1  0
  8  7  2  0
  9 10  1  0
 10 11  1  6
 11 12  1  0
 13 10  1  0
 13 14  2  0
 15 16  1  0
 16 17  2  0
 16 26  1  0
 17 18  1  0
 18 19  2  0
 19 20  1  0
 21 20  1  6
 21 22  1  0
 21 23  1  0
 22 13  1  0
 23 24  1  0
 25 19  1  0
 26 25  2  0
 27 23  2  0
M  END
$$$$
