NCY.pdb
     RDKit          3D

 27 27  0  0  1  0  0  0  0  0999 V2000
   25.9429  -17.4040  -18.3975 N   0  0  0  0  0  0  0  0  0  0  0  0
   27.0603  -18.2177  -18.0280 C   0  0  0  0  0  0  0  0  0  0  0  0
   28.1831  -17.8857  -18.4698 O   0  0  0  0  0  0  0  0  0  0  0  0
   26.7896  -19.3811  -17.1552 C   0  0  0  0  0  0  0  0  0  0  0  0
   27.9648  -20.2134  -16.8077 C   0  0  2  0  0  0  0  0  0  0  0  0
   28.1856  -21.1427  -17.9140 N   0  0  0  0  0  0  0  0  0  0  0  0
   27.8877  -20.9345  -15.5208 C   0  0  0  0  0  0  0  0  0  0  0  0
   27.2856  -22.0167  -15.3772 O   0  0  0  0  0  0  0  0  0  0  0  0
   28.5208  -20.4040  -14.3487 N   0  0  0  0  0  0  0  0  0  0  0  0
   28.3251  -20.9977  -13.0335 C   0  0  1  0  0  0  0  0  0  0  0  0
   29.5500  -20.6840  -12.1622 C   0  0  0  0  0  0  0  0  0  0  0  0
   29.3386  -21.1063  -10.4430 S   0  0  0  0  0  0  0  0  0  0  0  0
   27.1106  -20.4514  -12.3835 C   0  0  0  0  0  0  0  0  0  0  0  0
   26.9346  -19.1842  -12.4475 O   0  0  0  0  0  0  0  0  0  0  0  0
   18.8322  -18.6333  -10.9997 O   0  0  0  0  0  0  0  0  0  0  0  0
   20.0457  -19.2603  -11.1648 C   0  0  0  0  0  0  0  0  0  0  0  0
   20.8749  -19.0197  -12.2518 C   0  0  0  0  0  0  0  0  0  0  0  0
   22.0859  -19.6802  -12.3657 C   0  0  0  0  0  0  0  0  0  0  0  0
   22.5109  -20.5894  -11.4195 C   0  0  0  0  0  0  0  0  0  0  0  0
   23.7730  -21.3144  -11.4955 C   0  0  0  0  0  0  0  0  0  0  0  0
   24.9894  -20.5535  -11.0265 C   0  0  2  0  0  0  0  0  0  0  0  0
   26.1220  -21.1597  -11.7034 N   0  0  0  0  0  0  0  0  0  0  0  0
   25.2079  -20.6829   -9.5742 C   0  0  0  0  0  0  0  0  0  0  0  0
   24.4965  -19.8742   -8.7085 O   0  0  0  0  0  0  0  0  0  0  0  0
   21.6662  -20.8048  -10.3559 C   0  0  0  0  0  0  0  0  0  0  0  0
   20.4582  -20.1701  -10.2068 C   0  0  0  0  0  0  0  0  0  0  0  0
   26.0354  -21.5198   -9.0902 O   0  0  0  0  0  0  0  0  0  0  0  0
  2  1  1  0
  3  2  2  0
  4  2  1  0
  4  5  1  0
  5  7  1  0
  5  6  1  6
  7  9  1  0
  8  7  2  0
  9 10  1  0
 10 11  1  1
 11 12  1  0
 13 10  1  0
 13 14  2  0
 15 16  1  0
 16 17  2  0
 16 26  1  0
 17 18  1  0
 18 19  2  0
 19 20  1  0
 21 20  1  6
 21 22  1  0
 21 23  1  0
 22 13  1  0
 23 24  1  0
 25 19  1  0
 26 25  2  0
 27 23  2  0
M  END
$$$$
