NCY.pdb
     RDKit          3D

 27 27  0  0  1  0  0  0  0  0999 V2000
   19.0329  -17.6310  -14.2969 N   0  0  0  0  0  0  0  0  0  0  0  0
   20.3014  -17.0792  -14.6626 C   0  0  0  0  0  0  0  0  0  0  0  0
   21.3236  -17.6362  -14.2032 O   0  0  0  0  0  0  0  0  0  0  0  0
   20.2928  -15.8974  -15.5525 C   0  0  0  0  0  0  0  0  0  0  0  0
   18.9599  -15.4556  -16.0244 C   0  0  2  0  0  0  0  0  0  0  0  0
   18.3985  -16.5399  -16.8277 N   0  0  0  0  0  0  0  0  0  0  0  0
   18.9280  -14.1787  -16.7663 C   0  0  0  0  0  0  0  0  0  0  0  0
   19.2503  -14.0756  -17.9662 O   0  0  0  0  0  0  0  0  0  0  0  0
   18.5129  -12.9690  -16.1180 N   0  0  0  0  0  0  0  0  0  0  0  0
   18.3733  -11.7154  -16.8458 C   0  0  1  0  0  0  0  0  0  0  0  0
   16.8995  -11.2854  -16.8118 C   0  0  0  0  0  0  0  0  0  0  0  0
   16.1865  -11.2847  -15.1778 S   0  0  0  0  0  0  0  0  0  0  0  0
   19.2059  -10.6540  -16.2326 C   0  0  0  0  0  0  0  0  0  0  0  0
   19.4432  -10.7508  -14.9775 O   0  0  0  0  0  0  0  0  0  0  0  0
   24.3388   -3.3431  -15.6414 O   0  0  0  0  0  0  0  0  0  0  0  0
   23.5489   -4.3927  -16.0508 C   0  0  0  0  0  0  0  0  0  0  0  0
   22.1921   -4.2562  -16.3106 C   0  0  0  0  0  0  0  0  0  0  0  0
   21.4466   -5.3480  -16.7203 C   0  0  0  0  0  0  0  0  0  0  0  0
   22.0121   -6.5954  -16.8843 C   0  0  0  0  0  0  0  0  0  0  0  0
   21.2708   -7.7766  -17.3080 C   0  0  0  0  0  0  0  0  0  0  0  0
   20.5873   -8.5463  -16.2040 C   0  0  2  0  0  0  0  0  0  0  0  0
   19.7715   -9.5489  -16.8655 N   0  0  0  0  0  0  0  0  0  0  0  0
   19.6934   -7.6964  -15.3963 C   0  0  0  0  0  0  0  0  0  0  0  0
   20.1546   -7.1703  -14.2047 O   0  0  0  0  0  0  0  0  0  0  0  0
   23.3575   -6.6963  -16.6187 C   0  0  0  0  0  0  0  0  0  0  0  0
   24.1311   -5.6381  -16.2108 C   0  0  0  0  0  0  0  0  0  0  0  0
   18.5044   -7.4307  -15.7637 O   0  0  0  0  0  0  0  0  0  0  0  0
  2  1  1  0
  3  2  2  0
  4  2  1  0
  4  5  1  0
  5  7  1  0
  5  6  1  6
  7  9  1  0
  8  7  2  0
  9 10  1  0
 10 11  1  1
 11 12  1  0
 13 10  1  0
 13 14  2  0
 15 16  1  0
 16 17  2  0
 16 26  1  0
 17 18  1  0
 18 19  2  0
 19 20  1  0
 21 20  1  6
 21 22  1  0
 21 23  1  0
 22 13  1  0
 23 24  1  0
 25 19  1  0
 26 25  2  0
 27 23  2  0
M  END
$$$$
