NCY.pdb
     RDKit          3D

 27 27  0  0  1  0  0  0  0  0999 V2000
   16.7695  -15.3488  -15.5403 N   0  0  0  0  0  0  0  0  0  0  0  0
   18.1897  -15.4172  -15.7008 C   0  0  0  0  0  0  0  0  0  0  0  0
   18.7729  -16.4192  -15.2295 O   0  0  0  0  0  0  0  0  0  0  0  0
   18.8443  -14.2963  -16.4106 C   0  0  0  0  0  0  0  0  0  0  0  0
   17.9336  -13.2895  -17.0034 C   0  0  2  0  0  0  0  0  0  0  0  0
   17.5900  -13.7479  -18.3480 N   0  0  0  0  0  0  0  0  0  0  0  0
   18.4371  -11.9010  -17.0324 C   0  0  0  0  0  0  0  0  0  0  0  0
   19.3648  -11.5243  -17.7752 O   0  0  0  0  0  0  0  0  0  0  0  0
   17.8629  -10.8994  -16.1821 N   0  0  0  0  0  0  0  0  0  0  0  0
   18.3089   -9.5135  -16.2167 C   0  0  1  0  0  0  0  0  0  0  0  0
   17.0995   -8.6120  -16.5042 C   0  0  0  0  0  0  0  0  0  0  0  0
   17.4138   -6.8776  -16.2364 S   0  0  0  0  0  0  0  0  0  0  0  0
   18.9134   -9.1215  -14.9218 C   0  0  0  0  0  0  0  0  0  0  0  0
   18.3047   -9.4930  -13.8576 O   0  0  0  0  0  0  0  0  0  0  0  0
   22.0326   -2.2639  -15.7729 O   0  0  0  0  0  0  0  0  0  0  0  0
   22.0397   -3.5605  -15.3127 C   0  0  0  0  0  0  0  0  0  0  0  0
   22.2584   -4.6519  -16.1423 C   0  0  0  0  0  0  0  0  0  0  0  0
   22.2544   -5.9350  -15.6236 C   0  0  0  0  0  0  0  0  0  0  0  0
   22.0365   -6.1775  -14.2833 C   0  0  0  0  0  0  0  0  0  0  0  0
   22.0172   -7.5082  -13.6888 C   0  0  0  0  0  0  0  0  0  0  0  0
   20.6465   -8.0797  -13.4178 C   0  0  2  0  0  0  0  0  0  0  0  0
   20.0814   -8.3892  -14.7190 N   0  0  0  0  0  0  0  0  0  0  0  0
   19.7543   -7.1105  -12.7556 C   0  0  0  0  0  0  0  0  0  0  0  0
   18.8649   -6.3788  -13.5191 O   0  0  0  0  0  0  0  0  0  0  0  0
   21.8232   -5.0752  -13.4893 C   0  0  0  0  0  0  0  0  0  0  0  0
   21.8194   -3.7876  -13.9653 C   0  0  0  0  0  0  0  0  0  0  0  0
   19.7777   -6.9256  -11.4969 O   0  0  0  0  0  0  0  0  0  0  0  0
  2  1  1  0
  3  2  2  0
  4  2  1  0
  4  5  1  0
  5  7  1  0
  5  6  1  6
  7  9  1  0
  8  7  2  0
  9 10  1  0
 10 11  1  1
 11 12  1  0
 13 10  1  0
 13 14  2  0
 15 16  1  0
 16 17  2  0
 16 26  1  0
 17 18  1  0
 18 19  2  0
 19 20  1  0
 21 20  1  6
 21 22  1  0
 21 23  1  0
 22 13  1  0
 23 24  1  0
 25 19  1  0
 26 25  2  0
 27 23  2  0
M  END
$$$$
