NCY.pdb
     RDKit          3D

 27 27  0  0  1  0  0  0  0  0999 V2000
   16.9216  -14.7867  -15.9706 N   0  0  0  0  0  0  0  0  0  0  0  0
   18.2381  -14.5156  -15.4798 C   0  0  0  0  0  0  0  0  0  0  0  0
   18.6672  -15.2427  -14.5561 O   0  0  0  0  0  0  0  0  0  0  0  0
   18.9767  -13.3984  -16.1083 C   0  0  0  0  0  0  0  0  0  0  0  0
   18.2611  -12.6792  -17.1877 C   0  0  2  0  0  0  0  0  0  0  0  0
   18.2043  -13.5704  -18.3446 N   0  0  0  0  0  0  0  0  0  0  0  0
   18.8146  -11.3621  -17.5634 C   0  0  0  0  0  0  0  0  0  0  0  0
   19.1157  -11.0544  -18.7334 O   0  0  0  0  0  0  0  0  0  0  0  0
   19.0352  -10.3533  -16.5687 N   0  0  0  0  0  0  0  0  0  0  0  0
   19.2823   -8.9631  -16.9249 C   0  0  1  0  0  0  0  0  0  0  0  0
   18.0487   -8.4132  -17.6556 C   0  0  0  0  0  0  0  0  0  0  0  0
   18.0485   -6.6393  -17.8345 S   0  0  0  0  0  0  0  0  0  0  0  0
   19.5380   -8.1461  -15.7154 C   0  0  0  0  0  0  0  0  0  0  0  0
   18.7057   -8.2593  -14.7482 O   0  0  0  0  0  0  0  0  0  0  0  0
   26.1873   -5.8770  -17.7888 O   0  0  0  0  0  0  0  0  0  0  0  0
   25.2324   -6.0767  -16.8186 C   0  0  0  0  0  0  0  0  0  0  0  0
   24.7944   -5.0652  -15.9748 C   0  0  0  0  0  0  0  0  0  0  0  0
   23.8303   -5.3243  -15.0161 C   0  0  0  0  0  0  0  0  0  0  0  0
   23.2748   -6.5775  -14.8627 C   0  0  0  0  0  0  0  0  0  0  0  0
   22.2617   -6.9031  -13.8666 C   0  0  0  0  0  0  0  0  0  0  0  0
   20.8412   -6.5643  -14.2487 C   0  0  2  0  0  0  0  0  0  0  0  0
   20.5903   -7.2586  -15.4990 N   0  0  0  0  0  0  0  0  0  0  0  0
   20.6519   -5.1216  -14.4863 C   0  0  0  0  0  0  0  0  0  0  0  0
   20.7450   -4.2432  -13.4236 O   0  0  0  0  0  0  0  0  0  0  0  0
   23.7305   -7.5566  -15.7139 C   0  0  0  0  0  0  0  0  0  0  0  0
   24.6845   -7.3398  -16.6769 C   0  0  0  0  0  0  0  0  0  0  0  0
   20.4041   -4.6574  -15.6449 O   0  0  0  0  0  0  0  0  0  0  0  0
  2  1  1  0
  3  2  2  0
  4  2  1  0
  4  5  1  0
  5  7  1  0
  5  6  1  6
  7  9  1  0
  8  7  2  0
  9 10  1  0
 10 11  1  1
 11 12  1  0
 13 10  1  0
 13 14  2  0
 15 16  1  0
 16 17  2  0
 16 26  1  0
 17 18  1  0
 18 19  2  0
 19 20  1  0
 21 20  1  6
 21 22  1  0
 21 23  1  0
 22 13  1  0
 23 24  1  0
 25 19  1  0
 26 25  2  0
 27 23  2  0
M  END
$$$$
