FNP.pdb
     RDKit          3D

 27 28  0  0  1  0  0  0  0  0999 V2000
   26.1225  -22.1045   -9.0214 N   0  0  0  0  0  0  0  0  0  0  0  0
   26.5699  -20.8343   -9.5579 C   0  0  1  0  0  0  0  0  0  0  0  0
   27.8757  -20.3916   -8.9905 C   0  0  0  0  0  0  0  0  0  0  0  0
   27.8988  -19.9941   -7.6084 C   0  0  0  0  0  0  0  0  0  0  0  0
   26.7173  -19.5764   -7.0268 C   0  0  0  0  0  0  0  0  0  0  0  0
   26.6579  -19.1803   -5.7043 C   0  0  0  0  0  0  0  0  0  0  0  0
   27.7854  -19.1930   -4.9291 C   0  0  0  0  0  0  0  0  0  0  0  0
   28.9731  -19.6106   -5.5059 C   0  0  0  0  0  0  0  0  0  0  0  0
   29.0302  -20.0070   -6.8307 C   0  0  0  0  0  0  0  0  0  0  0  0
   26.5445  -20.8415  -11.0459 C   0  0  0  0  0  0  0  0  0  0  0  0
   27.3635  -21.5566  -11.7185 O   0  0  0  0  0  0  0  0  0  0  0  0
   25.5134  -23.0089  -13.2744 N   0  0  0  0  0  0  0  0  0  0  0  0
   24.2988  -22.2477  -13.5181 C   0  0  0  0  0  0  0  0  0  0  0  0
   23.2652  -22.9179  -13.6742 O   0  0  0  0  0  0  0  0  0  0  0  0
   24.3395  -20.8179  -13.5658 C   0  0  0  0  0  0  0  0  0  0  0  0
   25.6728  -20.1053  -13.3212 C   0  0  2  0  0  0  0  0  0  0  0  0
   25.6393  -20.0808  -11.8059 N   0  0  0  0  0  0  0  0  0  0  0  0
   25.5554  -18.7290  -13.7814 C   0  0  0  0  0  0  0  0  0  0  0  0
   24.7804  -17.9320  -13.1303 O   0  0  0  0  0  0  0  0  0  0  0  0
   26.2167  -18.1694  -14.8721 N   0  0  0  0  0  0  0  0  0  0  0  0
   27.1863  -18.8102  -15.7354 C   0  0  0  0  0  0  0  0  0  0  0  0
   28.2713  -17.7326  -15.8212 C   0  0  0  0  0  0  0  0  0  0  0  0
   27.5400  -16.4279  -15.6836 C   0  0  0  0  0  0  0  0  0  0  0  0
   26.1145  -16.8135  -15.4073 C   0  0  1  0  0  0  0  0  0  0  0  0
   25.3521  -16.7847  -16.6759 C   0  0  0  0  0  0  0  0  0  0  0  0
   24.9942  -15.6057  -17.3138 O   0  0  0  0  0  0  0  0  0  0  0  0
   24.9817  -17.8495  -17.2535 O   0  0  0  0  0  0  0  0  0  0  0  0
  2  1  1  6
  3  2  1  0
  4  9  1  0
  4  3  1  0
  5  4  2  0
  6  7  2  0
  6  5  1  0
  7  8  1  0
  8  9  2  0
 10  2  1  0
 11 10  2  0
 13 12  1  0
 14 13  2  0
 15 13  1  0
 16 15  1  6
 16 17  1  0
 17 10  1  0
 18 19  2  0
 18 16  1  0
 20 18  1  0
 21 20  1  0
 22 21  1  0
 23 24  1  0
 23 22  1  0
 24 20  1  0
 24 25  1  6
 26 25  1  0
 27 25  2  0
M  END
$$$$
