FNP.pdb
     RDKit          3D

 27 28  0  0  1  0  0  0  0  0999 V2000
   26.6751  -21.9404  -16.6130 N   0  0  0  0  0  0  0  0  0  0  0  0
   27.9596  -21.8988  -17.2836 C   0  0  1  0  0  0  0  0  0  0  0  0
   28.3648  -20.5192  -17.6779 C   0  0  0  0  0  0  0  0  0  0  0  0
   27.6179  -19.8827  -18.7294 C   0  0  0  0  0  0  0  0  0  0  0  0
   26.5113  -19.1309  -18.3847 C   0  0  0  0  0  0  0  0  0  0  0  0
   25.7435  -18.4879  -19.3369 C   0  0  0  0  0  0  0  0  0  0  0  0
   26.0670  -18.5829  -20.6630 C   0  0  0  0  0  0  0  0  0  0  0  0
   27.1751  -19.3349  -21.0155 C   0  0  0  0  0  0  0  0  0  0  0  0
   27.9427  -19.9780  -20.0601 C   0  0  0  0  0  0  0  0  0  0  0  0
   28.9988  -22.6175  -16.4972 C   0  0  0  0  0  0  0  0  0  0  0  0
   28.8585  -22.8181  -15.2423 O   0  0  0  0  0  0  0  0  0  0  0  0
   29.7854  -26.8511  -15.2615 N   0  0  0  0  0  0  0  0  0  0  0  0
   29.0885  -26.4515  -16.4734 C   0  0  0  0  0  0  0  0  0  0  0  0
   28.0996  -27.1381  -16.7775 O   0  0  0  0  0  0  0  0  0  0  0  0
   29.5488  -25.3309  -17.2354 C   0  0  0  0  0  0  0  0  0  0  0  0
   30.7097  -24.4919  -16.6934 C   0  0  2  0  0  0  0  0  0  0  0  0
   30.1846  -23.1183  -17.0616 N   0  0  0  0  0  0  0  0  0  0  0  0
   31.8864  -24.7422  -17.5134 C   0  0  0  0  0  0  0  0  0  0  0  0
   31.9007  -24.2817  -18.7166 O   0  0  0  0  0  0  0  0  0  0  0  0
   33.0285  -25.4356  -17.1196 N   0  0  0  0  0  0  0  0  0  0  0  0
   33.2298  -26.1702  -15.8886 C   0  0  0  0  0  0  0  0  0  0  0  0
   34.6203  -25.6824  -15.4710 C   0  0  0  0  0  0  0  0  0  0  0  0
   35.3325  -25.3795  -16.7583 C   0  0  0  0  0  0  0  0  0  0  0  0
   34.2978  -25.5857  -17.8278 C   0  0  1  0  0  0  0  0  0  0  0  0
   34.4499  -26.9464  -18.3906 C   0  0  0  0  0  0  0  0  0  0  0  0
   33.5241  -27.9579  -18.1782 O   0  0  0  0  0  0  0  0  0  0  0  0
   35.4465  -27.2629  -19.1054 O   0  0  0  0  0  0  0  0  0  0  0  0
  2  1  1  1
  3  2  1  0
  4  9  1  0
  4  3  1  0
  5  4  2  0
  6  7  2  0
  6  5  1  0
  7  8  1  0
  8  9  2  0
 10  2  1  0
 11 10  2  0
 13 12  1  0
 14 13  2  0
 15 13  1  0
 16 15  1  6
 16 17  1  0
 17 10  1  0
 18 19  2  0
 18 16  1  0
 20 18  1  0
 21 20  1  0
 22 21  1  0
 23 24  1  0
 23 22  1  0
 24 20  1  0
 24 25  1  1
 26 25  1  0
 27 25  2  0
M  END
$$$$
