FNP.pdb
     RDKit          3D

 27 28  0  0  1  0  0  0  0  0999 V2000
   22.4736  -15.6818  -16.7748 N   0  0  0  0  0  0  0  0  0  0  0  0
   23.0051  -14.4031  -16.3462 C   0  0  1  0  0  0  0  0  0  0  0  0
   24.4593  -14.2511  -16.6382 C   0  0  0  0  0  0  0  0  0  0  0  0
   25.3465  -15.2677  -16.1403 C   0  0  0  0  0  0  0  0  0  0  0  0
   25.5787  -16.3783  -16.9286 C   0  0  0  0  0  0  0  0  0  0  0  0
   26.4189  -17.3968  -16.5208 C   0  0  0  0  0  0  0  0  0  0  0  0
   27.0494  -17.3273  -15.3084 C   0  0  0  0  0  0  0  0  0  0  0  0
   26.8210  -16.2167  -14.5133 C   0  0  0  0  0  0  0  0  0  0  0  0
   25.9792  -15.1977  -14.9237 C   0  0  0  0  0  0  0  0  0  0  0  0
   22.1784  -13.2783  -16.8622 C   0  0  0  0  0  0  0  0  0  0  0  0
   21.4442  -13.4180  -17.8996 O   0  0  0  0  0  0  0  0  0  0  0  0
   17.7124  -10.6847  -15.6285 N   0  0  0  0  0  0  0  0  0  0  0  0
   18.6917  -10.8091  -16.6960 C   0  0  0  0  0  0  0  0  0  0  0  0
   18.4113  -10.2247  -17.7550 O   0  0  0  0  0  0  0  0  0  0  0  0
   19.8888  -11.5668  -16.4935 C   0  0  0  0  0  0  0  0  0  0  0  0
   21.2404  -10.9130  -16.7953 C   0  0  2  0  0  0  0  0  0  0  0  0
   22.1431  -12.0079  -16.2619 N   0  0  0  0  0  0  0  0  0  0  0  0
   21.4008   -9.7554  -15.9272 C   0  0  0  0  0  0  0  0  0  0  0  0
   21.6312   -9.9583  -14.6759 O   0  0  0  0  0  0  0  0  0  0  0  0
   21.3392   -8.4204  -16.3200 N   0  0  0  0  0  0  0  0  0  0  0  0
   20.9819   -7.9038  -17.6243 C   0  0  0  0  0  0  0  0  0  0  0  0
   22.0796   -6.8587  -17.8450 C   0  0  0  0  0  0  0  0  0  0  0  0
   22.4336   -6.3657  -16.4710 C   0  0  0  0  0  0  0  0  0  0  0  0
   21.6270   -7.2214  -15.5360 C   0  0  1  0  0  0  0  0  0  0  0  0
   20.3875   -6.4998  -15.1694 C   0  0  0  0  0  0  0  0  0  0  0  0
   20.3582   -5.4826  -14.2262 O   0  0  0  0  0  0  0  0  0  0  0  0
   19.2736   -6.7769  -15.7049 O   0  0  0  0  0  0  0  0  0  0  0  0
  2  1  1  6
  3  2  1  0
  4  9  1  0
  4  3  1  0
  5  4  2  0
  6  7  2  0
  6  5  1  0
  7  8  1  0
  8  9  2  0
 10  2  1  0
 11 10  2  0
 13 12  1  0
 14 13  2  0
 15 13  1  0
 16 15  1  1
 16 17  1  0
 17 10  1  0
 18 19  2  0
 18 16  1  0
 20 18  1  0
 21 20  1  0
 22 21  1  0
 23 24  1  0
 23 22  1  0
 24 20  1  0
 24 25  1  6
 26 25  1  0
 27 25  2  0
M  END
$$$$
