FNP.pdb
     RDKit          3D

 27 28  0  0  1  0  0  0  0  0999 V2000
   28.1966  -21.8328   -8.7934 N   0  0  0  0  0  0  0  0  0  0  0  0
   27.2032  -20.8311   -9.1262 C   0  0  1  0  0  0  0  0  0  0  0  0
   27.3826  -19.5602   -8.3674 C   0  0  0  0  0  0  0  0  0  0  0  0
   27.6080  -19.6590   -6.9503 C   0  0  0  0  0  0  0  0  0  0  0  0
   26.5872  -20.1456   -6.1567 C   0  0  0  0  0  0  0  0  0  0  0  0
   26.7272  -20.2716   -4.7877 C   0  0  0  0  0  0  0  0  0  0  0  0
   27.8981  -19.9117   -4.1780 C   0  0  0  0  0  0  0  0  0  0  0  0
   28.9255  -19.4232   -4.9677 C   0  0  0  0  0  0  0  0  0  0  0  0
   28.7830  -19.2979   -6.3386 C   0  0  0  0  0  0  0  0  0  0  0  0
   27.1140  -20.6323  -10.5984 C   0  0  0  0  0  0  0  0  0  0  0  0
   28.1365  -20.2840  -11.2825 O   0  0  0  0  0  0  0  0  0  0  0  0
   24.8590  -24.2181  -12.7105 N   0  0  0  0  0  0  0  0  0  0  0  0
   25.4379  -23.0775  -13.4020 C   0  0  0  0  0  0  0  0  0  0  0  0
   26.3779  -23.3344  -14.1715 O   0  0  0  0  0  0  0  0  0  0  0  0
   24.9240  -21.7605  -13.1791 C   0  0  0  0  0  0  0  0  0  0  0  0
   25.9002  -20.6316  -12.8357 C   0  0  2  0  0  0  0  0  0  0  0  0
   25.9271  -20.8086  -11.3304 N   0  0  0  0  0  0  0  0  0  0  0  0
   25.2528  -19.3573  -13.1125 C   0  0  0  0  0  0  0  0  0  0  0  0
   24.3361  -18.9503  -12.3039 O   0  0  0  0  0  0  0  0  0  0  0  0
   25.5351  -18.5084  -14.1802 N   0  0  0  0  0  0  0  0  0  0  0  0
   26.5136  -18.7097  -15.2280 C   0  0  0  0  0  0  0  0  0  0  0  0
   27.1846  -17.3339  -15.2813 C   0  0  0  0  0  0  0  0  0  0  0  0
   26.1141  -16.3596  -14.8801 C   0  0  0  0  0  0  0  0  0  0  0  0
   24.9376  -17.2147  -14.5037 C   0  0  1  0  0  0  0  0  0  0  0  0
   24.0215  -17.3125  -15.6625 C   0  0  0  0  0  0  0  0  0  0  0  0
   23.8281  -18.4882  -16.3735 O   0  0  0  0  0  0  0  0  0  0  0  0
   23.3571  -16.3144  -16.0711 O   0  0  0  0  0  0  0  0  0  0  0  0
  2  1  1  6
  3  2  1  0
  4  9  1  0
  4  3  1  0
  5  4  2  0
  6  7  2  0
  6  5  1  0
  7  8  1  0
  8  9  2  0
 10  2  1  0
 11 10  2  0
 13 12  1  0
 14 13  2  0
 15 13  1  0
 16 15  1  6
 16 17  1  0
 17 10  1  0
 18 19  2  0
 18 16  1  0
 20 18  1  0
 21 20  1  0
 22 21  1  0
 23 24  1  0
 23 22  1  0
 24 20  1  0
 24 25  1  6
 26 25  1  0
 27 25  2  0
M  END
$$$$
