FNP.pdb
     RDKit          3D

 27 28  0  0  1  0  0  0  0  0999 V2000
   23.0496    4.0856   -9.9807 N   0  0  0  0  0  0  0  0  0  0  0  0
   22.0244    3.8855  -10.9858 C   0  0  1  0  0  0  0  0  0  0  0  0
   21.4485    5.1646  -11.4911 C   0  0  0  0  0  0  0  0  0  0  0  0
   20.7710    6.0081  -10.5434 C   0  0  0  0  0  0  0  0  0  0  0  0
   19.4387    5.7571  -10.2780 C   0  0  0  0  0  0  0  0  0  0  0  0
   18.7195    6.5220   -9.3795 C   0  0  0  0  0  0  0  0  0  0  0  0
   19.3200    7.5612   -8.7224 C   0  0  0  0  0  0  0  0  0  0  0  0
   20.6555    7.8182   -8.9838 C   0  0  0  0  0  0  0  0  0  0  0  0
   21.3739    7.0508   -9.8841 C   0  0  0  0  0  0  0  0  0  0  0  0
   22.5040    2.9849  -12.0693 C   0  0  0  0  0  0  0  0  0  0  0  0
   23.6707    3.1199  -12.5743 O   0  0  0  0  0  0  0  0  0  0  0  0
   22.6775   -1.2925  -15.3551 N   0  0  0  0  0  0  0  0  0  0  0  0
   21.8822   -1.4010  -14.1427 C   0  0  0  0  0  0  0  0  0  0  0  0
   21.4596   -2.5376  -13.8756 O   0  0  0  0  0  0  0  0  0  0  0  0
   21.6288   -0.2443  -13.3390 C   0  0  0  0  0  0  0  0  0  0  0  0
   22.2394    1.0969  -13.7558 C   0  0  2  0  0  0  0  0  0  0  0  0
   21.7285    1.9428  -12.6062 N   0  0  0  0  0  0  0  0  0  0  0  0
   21.5707    1.5562  -14.9648 C   0  0  0  0  0  0  0  0  0  0  0  0
   20.3814    2.0398  -14.8579 O   0  0  0  0  0  0  0  0  0  0  0  0
   22.0995    1.5353  -16.2532 N   0  0  0  0  0  0  0  0  0  0  0  0
   23.3850    1.0140  -16.6673 C   0  0  0  0  0  0  0  0  0  0  0  0
   23.8871    2.1392  -17.5770 C   0  0  0  0  0  0  0  0  0  0  0  0
   22.6479    2.7462  -18.1703 C   0  0  0  0  0  0  0  0  0  0  0  0
   21.5100    2.0368  -17.4927 C   0  0  1  0  0  0  0  0  0  0  0  0
   21.0448    0.9316  -18.3608 C   0  0  0  0  0  0  0  0  0  0  0  0
   20.2442    1.1344  -19.4757 O   0  0  0  0  0  0  0  0  0  0  0  0
   21.3578   -0.2736  -18.1281 O   0  0  0  0  0  0  0  0  0  0  0  0
  2  1  1  1
  3  2  1  0
  4  9  1  0
  4  3  1  0
  5  4  2  0
  6  7  2  0
  6  5  1  0
  7  8  1  0
  8  9  2  0
 10  2  1  0
 11 10  2  0
 13 12  1  0
 14 13  2  0
 15 13  1  0
 16 15  1  1
 16 17  1  0
 17 10  1  0
 18 19  2  0
 18 16  1  0
 20 18  1  0
 21 20  1  0
 22 21  1  0
 23 24  1  0
 23 22  1  0
 24 20  1  0
 24 25  1  6
 26 25  1  0
 27 25  2  0
M  END
$$$$
