FNP.pdb
     RDKit          3D

 27 28  0  0  1  0  0  0  0  0999 V2000
   25.4186  -20.2519   -7.7380 N   0  0  0  0  0  0  0  0  0  0  0  0
   26.6860  -20.2528   -8.4417 C   0  0  1  0  0  0  0  0  0  0  0  0
   27.8135  -20.7579   -7.6070 C   0  0  0  0  0  0  0  0  0  0  0  0
   28.0664  -20.0905   -6.3583 C   0  0  0  0  0  0  0  0  0  0  0  0
   27.7891  -20.7667   -5.1859 C   0  0  0  0  0  0  0  0  0  0  0  0
   28.0060  -20.1940   -3.9472 C   0  0  0  0  0  0  0  0  0  0  0  0
   28.5080  -18.9246   -3.8524 C   0  0  0  0  0  0  0  0  0  0  0  0
   28.7882  -18.2411   -5.0238 C   0  0  0  0  0  0  0  0  0  0  0  0
   28.5702  -18.8167   -6.2634 C   0  0  0  0  0  0  0  0  0  0  0  0
   26.5695  -20.9413   -9.7559 C   0  0  0  0  0  0  0  0  0  0  0  0
   27.5835  -21.4912  -10.3073 O   0  0  0  0  0  0  0  0  0  0  0  0
   22.2916  -20.0998  -12.7913 N   0  0  0  0  0  0  0  0  0  0  0  0
   22.8935  -20.8534  -11.7033 C   0  0  0  0  0  0  0  0  0  0  0  0
   22.5311  -20.5316  -10.5601 O   0  0  0  0  0  0  0  0  0  0  0  0
   23.8386  -21.8919  -11.9799 C   0  0  0  0  0  0  0  0  0  0  0  0
   25.3346  -21.5769  -11.8890 C   0  0  2  0  0  0  0  0  0  0  0  0
   25.3643  -21.0367  -10.4729 N   0  0  0  0  0  0  0  0  0  0  0  0
   25.6312  -20.4678  -12.7842 C   0  0  0  0  0  0  0  0  0  0  0  0
   25.3716  -19.2720  -12.3809 O   0  0  0  0  0  0  0  0  0  0  0  0
   26.1883  -20.5671  -14.0570 N   0  0  0  0  0  0  0  0  0  0  0  0
   26.5160  -21.7772  -14.7809 C   0  0  0  0  0  0  0  0  0  0  0  0
   27.9161  -21.4443  -15.3052 C   0  0  0  0  0  0  0  0  0  0  0  0
   27.9195  -19.9544  -15.4957 C   0  0  0  0  0  0  0  0  0  0  0  0
   26.5903  -19.4961  -14.9662 C   0  0  1  0  0  0  0  0  0  0  0  0
   25.6432  -19.3561  -16.0953 C   0  0  0  0  0  0  0  0  0  0  0  0
   25.7178  -18.3227  -17.0182 O   0  0  0  0  0  0  0  0  0  0  0  0
   24.7023  -20.1837  -16.2807 O   0  0  0  0  0  0  0  0  0  0  0  0
  2  1  1  1
  3  2  1  0
  4  9  1  0
  4  3  1  0
  5  4  2  0
  6  7  2  0
  6  5  1  0
  7  8  1  0
  8  9  2  0
 10  2  1  0
 11 10  2  0
 13 12  1  0
 14 13  2  0
 15 13  1  0
 16 15  1  6
 16 17  1  0
 17 10  1  0
 18 19  2  0
 18 16  1  0
 20 18  1  0
 21 20  1  0
 22 21  1  0
 23 24  1  0
 23 22  1  0
 24 20  1  0
 24 25  1  6
 26 25  1  0
 27 25  2  0
M  END
$$$$
