FNP.pdb
     RDKit          3D

 27 28  0  0  1  0  0  0  0  0999 V2000
   17.1087  -15.3596  -16.0556 N   0  0  0  0  0  0  0  0  0  0  0  0
   17.9978  -14.2166  -16.1217 C   0  0  1  0  0  0  0  0  0  0  0  0
   19.0925  -14.3890  -17.1192 C   0  0  0  0  0  0  0  0  0  0  0  0
   19.9062  -15.5703  -17.0147 C   0  0  0  0  0  0  0  0  0  0  0  0
   19.5539  -16.6770  -17.7630 C   0  0  0  0  0  0  0  0  0  0  0  0
   20.2858  -17.8483  -17.7181 C   0  0  0  0  0  0  0  0  0  0  0  0
   21.3928  -17.9398  -16.9191 C   0  0  0  0  0  0  0  0  0  0  0  0
   21.7515  -16.8341  -16.1664 C   0  0  0  0  0  0  0  0  0  0  0  0
   21.0171  -15.6620  -16.2130 C   0  0  0  0  0  0  0  0  0  0  0  0
   17.2333  -12.9517  -16.2964 C   0  0  0  0  0  0  0  0  0  0  0  0
   15.9987  -12.9648  -16.6283 O   0  0  0  0  0  0  0  0  0  0  0  0
   13.8992   -9.2850  -15.3076 N   0  0  0  0  0  0  0  0  0  0  0  0
   15.1926   -9.5226  -14.6872 C   0  0  0  0  0  0  0  0  0  0  0  0
   15.5162   -8.7237  -13.7934 O   0  0  0  0  0  0  0  0  0  0  0  0
   16.0067  -10.6205  -15.1115 C   0  0  0  0  0  0  0  0  0  0  0  0
   16.9686  -10.4201  -16.2862 C   0  0  2  0  0  0  0  0  0  0  0  0
   17.7978  -11.6775  -16.1139 N   0  0  0  0  0  0  0  0  0  0  0  0
   17.8321   -9.2856  -15.9913 C   0  0  0  0  0  0  0  0  0  0  0  0
   18.7517   -9.4340  -15.1012 O   0  0  0  0  0  0  0  0  0  0  0  0
   17.7718   -8.0306  -16.5925 N   0  0  0  0  0  0  0  0  0  0  0  0
   16.7910   -7.5599  -17.5477 C   0  0  0  0  0  0  0  0  0  0  0  0
   17.6872   -6.8914  -18.5944 C   0  0  0  0  0  0  0  0  0  0  0  0
   18.8783   -6.3904  -17.8286 C   0  0  0  0  0  0  0  0  0  0  0  0
   18.6732   -6.8924  -16.4275 C   0  0  1  0  0  0  0  0  0  0  0  0
   18.0537   -5.8201  -15.6164 C   0  0  0  0  0  0  0  0  0  0  0  0
   18.7793   -4.7665  -15.0791 O   0  0  0  0  0  0  0  0  0  0  0  0
   16.8119   -5.8080  -15.3671 O   0  0  0  0  0  0  0  0  0  0  0  0
  2  1  1  6
  3  2  1  0
  4  9  1  0
  4  3  1  0
  5  4  2  0
  6  7  2  0
  6  5  1  0
  7  8  1  0
  8  9  2  0
 10  2  1  0
 11 10  2  0
 13 12  1  0
 14 13  2  0
 15 13  1  0
 16 15  1  1
 16 17  1  0
 17 10  1  0
 18 19  2  0
 18 16  1  0
 20 18  1  0
 21 20  1  0
 22 21  1  0
 23 24  1  0
 23 22  1  0
 24 20  1  0
 24 25  1  1
 26 25  1  0
 27 25  2  0
M  END
$$$$
