FNP.pdb
     RDKit          3D

 27 28  0  0  1  0  0  0  0  0999 V2000
   25.0970  -19.8648  -16.3902 N   0  0  0  0  0  0  0  0  0  0  0  0
   23.7065  -19.5073  -16.1902 C   0  0  1  0  0  0  0  0  0  0  0  0
   22.9248  -19.4822  -17.4596 C   0  0  0  0  0  0  0  0  0  0  0  0
   23.4615  -18.7204  -18.5552 C   0  0  0  0  0  0  0  0  0  0  0  0
   23.0817  -17.3982  -18.6821 C   0  0  0  0  0  0  0  0  0  0  0  0
   23.5548  -16.6007  -19.7067 C   0  0  0  0  0  0  0  0  0  0  0  0
   24.4234  -17.1107  -20.6329 C   0  0  0  0  0  0  0  0  0  0  0  0
   24.8082  -18.4355  -20.5115 C   0  0  0  0  0  0  0  0  0  0  0  0
   24.3331  -19.2323  -19.4844 C   0  0  0  0  0  0  0  0  0  0  0  0
   23.0841  -20.3456  -15.1297 C   0  0  0  0  0  0  0  0  0  0  0  0
   23.7914  -20.8813  -14.2092 O   0  0  0  0  0  0  0  0  0  0  0  0
   19.9474  -20.6881  -11.0876 N   0  0  0  0  0  0  0  0  0  0  0  0
   20.7579  -19.6173  -11.6448 C   0  0  0  0  0  0  0  0  0  0  0  0
   20.9134  -18.6242  -10.9159 O   0  0  0  0  0  0  0  0  0  0  0  0
   21.3211  -19.7441  -12.9544 C   0  0  0  0  0  0  0  0  0  0  0  0
   21.0468  -21.0175  -13.7597 C   0  0  2  0  0  0  0  0  0  0  0  0
   21.7044  -20.6053  -15.0619 N   0  0  0  0  0  0  0  0  0  0  0  0
   19.6151  -21.1122  -14.0061 C   0  0  0  0  0  0  0  0  0  0  0  0
   19.0540  -20.1874  -14.7061 O   0  0  0  0  0  0  0  0  0  0  0  0
   18.7713  -22.1273  -13.5614 N   0  0  0  0  0  0  0  0  0  0  0  0
   19.0532  -23.1246  -12.5506 C   0  0  0  0  0  0  0  0  0  0  0  0
   18.5484  -24.3982  -13.2355 C   0  0  0  0  0  0  0  0  0  0  0  0
   17.4234  -23.9468  -14.1225 C   0  0  0  0  0  0  0  0  0  0  0  0
   17.4157  -22.4493  -14.0016 C   0  0  1  0  0  0  0  0  0  0  0  0
   16.4069  -22.0516  -12.9939 C   0  0  0  0  0  0  0  0  0  0  0  0
   15.0409  -22.1663  -13.2086 O   0  0  0  0  0  0  0  0  0  0  0  0
   16.7424  -21.5794  -11.8674 O   0  0  0  0  0  0  0  0  0  0  0  0
  2  1  1  6
  3  2  1  0
  4  9  1  0
  4  3  1  0
  5  4  2  0
  6  7  2  0
  6  5  1  0
  7  8  1  0
  8  9  2  0
 10  2  1  0
 11 10  2  0
 13 12  1  0
 14 13  2  0
 15 13  1  0
 16 15  1  1
 16 17  1  0
 17 10  1  0
 18 19  2  0
 18 16  1  0
 20 18  1  0
 21 20  1  0
 22 21  1  0
 23 24  1  0
 23 22  1  0
 24 20  1  0
 24 25  1  1
 26 25  1  0
 27 25  2  0
M  END
$$$$
