FNP.pdb
     RDKit          3D

 27 28  0  0  1  0  0  0  0  0999 V2000
   21.6722  -20.4138  -13.4321 N   0  0  0  0  0  0  0  0  0  0  0  0
   22.9229  -20.5253  -14.1563 C   0  0  1  0  0  0  0  0  0  0  0  0
   22.9018  -19.8119  -15.4654 C   0  0  0  0  0  0  0  0  0  0  0  0
   22.0519  -20.3426  -16.4973 C   0  0  0  0  0  0  0  0  0  0  0  0
   22.4357  -21.5116  -17.1257 C   0  0  0  0  0  0  0  0  0  0  0  0
   21.6725  -22.0844  -18.1252 C   0  0  0  0  0  0  0  0  0  0  0  0
   20.5015  -21.4975  -18.5211 C   0  0  0  0  0  0  0  0  0  0  0  0
   20.1110  -20.3255  -17.8953 C   0  0  0  0  0  0  0  0  0  0  0  0
   20.8769  -19.7536  -16.8944 C   0  0  0  0  0  0  0  0  0  0  0  0
   24.0767  -20.1465  -13.2959 C   0  0  0  0  0  0  0  0  0  0  0  0
   24.0534  -19.0819  -12.5883 O   0  0  0  0  0  0  0  0  0  0  0  0
   24.7457  -19.0647  -10.3558 N   0  0  0  0  0  0  0  0  0  0  0  0
   25.1410  -20.4321  -10.0589 C   0  0  0  0  0  0  0  0  0  0  0  0
   24.7670  -20.8746   -8.9607 O   0  0  0  0  0  0  0  0  0  0  0  0
   25.9116  -21.1825  -11.0030 C   0  0  0  0  0  0  0  0  0  0  0  0
   26.3871  -20.4948  -12.2860 C   0  0  2  0  0  0  0  0  0  0  0  0
   25.2510  -20.9127  -13.1986 N   0  0  0  0  0  0  0  0  0  0  0  0
   27.5910  -21.1662  -12.7544 C   0  0  0  0  0  0  0  0  0  0  0  0
   27.4578  -22.2382  -13.4566 O   0  0  0  0  0  0  0  0  0  0  0  0
   28.9018  -20.7549  -12.5248 N   0  0  0  0  0  0  0  0  0  0  0  0
   29.3537  -19.7324  -11.6050 C   0  0  0  0  0  0  0  0  0  0  0  0
   30.3423  -18.9561  -12.4801 C   0  0  0  0  0  0  0  0  0  0  0  0
   30.9018  -19.9715  -13.4352 C   0  0  0  0  0  0  0  0  0  0  0  0
   30.1334  -21.2308  -13.1510 C   0  0  1  0  0  0  0  0  0  0  0  0
   30.9211  -22.0790  -12.2282 C   0  0  0  0  0  0  0  0  0  0  0  0
   30.5733  -22.2714  -10.8988 O   0  0  0  0  0  0  0  0  0  0  0  0
   31.9679  -22.6819  -12.6090 O   0  0  0  0  0  0  0  0  0  0  0  0
  2  1  1  1
  3  2  1  0
  4  9  1  0
  4  3  1  0
  5  4  2  0
  6  7  2  0
  6  5  1  0
  7  8  1  0
  8  9  2  0
 10  2  1  0
 11 10  2  0
 13 12  1  0
 14 13  2  0
 15 13  1  0
 16 15  1  1
 16 17  1  0
 17 10  1  0
 18 19  2  0
 18 16  1  0
 20 18  1  0
 21 20  1  0
 22 21  1  0
 23 24  1  0
 23 22  1  0
 24 20  1  0
 24 25  1  1
 26 25  1  0
 27 25  2  0
M  END
$$$$
