FNP.pdb
     RDKit          3D

 27 28  0  0  1  0  0  0  0  0999 V2000
   17.0893  -12.0780  -15.6354 N   0  0  0  0  0  0  0  0  0  0  0  0
   18.2903  -11.2731  -15.5307 C   0  0  1  0  0  0  0  0  0  0  0  0
   18.9700  -11.0703  -16.8422 C   0  0  0  0  0  0  0  0  0  0  0  0
   19.4119  -12.2421  -17.5494 C   0  0  0  0  0  0  0  0  0  0  0  0
   20.5617  -12.8741  -17.1166 C   0  0  0  0  0  0  0  0  0  0  0  0
   21.0495  -14.0053  -17.7426 C   0  0  0  0  0  0  0  0  0  0  0  0
   20.3947  -14.5331  -18.8219 C   0  0  0  0  0  0  0  0  0  0  0  0
   19.2414  -13.9045  -19.2610 C   0  0  0  0  0  0  0  0  0  0  0  0
   18.7546  -12.7716  -18.6324 C   0  0  0  0  0  0  0  0  0  0  0  0
   18.0234  -10.0036  -14.8013 C   0  0  0  0  0  0  0  0  0  0  0  0
   17.0232   -9.2658  -15.1008 O   0  0  0  0  0  0  0  0  0  0  0  0
   17.7114   -7.2930   -9.8421 N   0  0  0  0  0  0  0  0  0  0  0  0
   18.8901   -7.5458  -10.6549 C   0  0  0  0  0  0  0  0  0  0  0  0
   19.8733   -6.8258  -10.4167 O   0  0  0  0  0  0  0  0  0  0  0  0
   18.8726   -8.5703  -11.6541 C   0  0  0  0  0  0  0  0  0  0  0  0
   18.5702   -8.1860  -13.1054 C   0  0  2  0  0  0  0  0  0  0  0  0
   18.8317   -9.5315  -13.7528 N   0  0  0  0  0  0  0  0  0  0  0  0
   19.6040   -7.2717  -13.5690 C   0  0  0  0  0  0  0  0  0  0  0  0
   20.7525   -7.7607  -13.8881 O   0  0  0  0  0  0  0  0  0  0  0  0
   19.4740   -5.8927  -13.7159 N   0  0  0  0  0  0  0  0  0  0  0  0
   18.3223   -5.0788  -13.3890 C   0  0  0  0  0  0  0  0  0  0  0  0
   18.2138   -4.1963  -14.6362 C   0  0  0  0  0  0  0  0  0  0  0  0
   19.6228   -4.0466  -15.1344 C   0  0  0  0  0  0  0  0  0  0  0  0
   20.4429   -4.9327  -14.2403 C   0  0  1  0  0  0  0  0  0  0  0  0
   21.0361   -4.1123  -13.1602 C   0  0  0  0  0  0  0  0  0  0  0  0
   22.1460   -3.3021  -13.3519 O   0  0  0  0  0  0  0  0  0  0  0  0
   20.5548   -4.1068  -11.9886 O   0  0  0  0  0  0  0  0  0  0  0  0
  2  1  1  6
  3  2  1  0
  4  9  1  0
  4  3  1  0
  5  4  2  0
  6  7  2  0
  6  5  1  0
  7  8  1  0
  8  9  2  0
 10  2  1  0
 11 10  2  0
 13 12  1  0
 14 13  2  0
 15 13  1  0
 16 15  1  1
 16 17  1  0
 17 10  1  0
 18 19  2  0
 18 16  1  0
 20 18  1  0
 21 20  1  0
 22 21  1  0
 23 24  1  0
 23 22  1  0
 24 20  1  0
 24 25  1  1
 26 25  1  0
 27 25  2  0
M  END
$$$$
