FNP.pdb
     RDKit          3D

 27 28  0  0  1  0  0  0  0  0999 V2000
   10.7266  -21.5320   -5.0427 N   0  0  0  0  0  0  0  0  0  0  0  0
   11.5218  -22.2186   -4.0439 C   0  0  1  0  0  0  0  0  0  0  0  0
   12.5823  -23.0817   -4.6384 C   0  0  0  0  0  0  0  0  0  0  0  0
   12.1726  -24.0715   -5.5980 C   0  0  0  0  0  0  0  0  0  0  0  0
   12.1046  -25.3900   -5.1911 C   0  0  0  0  0  0  0  0  0  0  0  0
   11.7184  -26.3983   -6.0535 C   0  0  0  0  0  0  0  0  0  0  0  0
   11.3898  -26.1091   -7.3499 C   0  0  0  0  0  0  0  0  0  0  0  0
   11.4558  -24.7893   -7.7643 C   0  0  0  0  0  0  0  0  0  0  0  0
   11.8428  -23.7811   -6.8988 C   0  0  0  0  0  0  0  0  0  0  0  0
   12.0382  -21.2673   -3.0224 C   0  0  0  0  0  0  0  0  0  0  0  0
   12.0703  -20.0089   -3.2461 O   0  0  0  0  0  0  0  0  0  0  0  0
   10.0181  -18.8041    1.1299 N   0  0  0  0  0  0  0  0  0  0  0  0
   11.3269  -19.0701    0.5552 C   0  0  0  0  0  0  0  0  0  0  0  0
   12.2563  -18.3669    0.9835 O   0  0  0  0  0  0  0  0  0  0  0  0
   11.4865  -20.0882   -0.4379 C   0  0  0  0  0  0  0  0  0  0  0  0
   12.8847  -20.6547   -0.7014 C   0  0  2  0  0  0  0  0  0  0  0  0
   12.5180  -21.6712   -1.7646 N   0  0  0  0  0  0  0  0  0  0  0  0
   13.3164  -21.3934    0.4765 C   0  0  0  0  0  0  0  0  0  0  0  0
   12.7260  -22.5055    0.7495 O   0  0  0  0  0  0  0  0  0  0  0  0
   14.3315  -21.0186    1.3536 N   0  0  0  0  0  0  0  0  0  0  0  0
   15.1264  -19.8094    1.3125 C   0  0  0  0  0  0  0  0  0  0  0  0
   16.5354  -20.3680    1.5329 C   0  0  0  0  0  0  0  0  0  0  0  0
   16.3441  -21.5892    2.3862 C   0  0  0  0  0  0  0  0  0  0  0  0
   14.8547  -21.7417    2.5107 C   0  0  1  0  0  0  0  0  0  0  0  0
   14.4112  -21.1278    3.7826 C   0  0  0  0  0  0  0  0  0  0  0  0
   14.6161  -21.7234    5.0190 O   0  0  0  0  0  0  0  0  0  0  0  0
   13.8133  -20.0114    3.8094 O   0  0  0  0  0  0  0  0  0  0  0  0
  2  1  1  6
  3  2  1  0
  4  9  1  0
  4  3  1  0
  5  4  2  0
  6  7  2  0
  6  5  1  0
  7  8  1  0
  8  9  2  0
 10  2  1  0
 11 10  2  0
 13 12  1  0
 14 13  2  0
 15 13  1  0
 16 15  1  1
 16 17  1  0
 17 10  1  0
 18 19  2  0
 18 16  1  0
 20 18  1  0
 21 20  1  0
 22 21  1  0
 23 24  1  0
 23 22  1  0
 24 20  1  0
 24 25  1  1
 26 25  1  0
 27 25  2  0
M  END
$$$$
