FNP.pdb
     RDKit          3D

 27 28  0  0  1  0  0  0  0  0999 V2000
   23.8237  -14.4870  -18.8025 N   0  0  0  0  0  0  0  0  0  0  0  0
   23.5651  -13.4305  -17.8442 C   0  0  1  0  0  0  0  0  0  0  0  0
   24.7962  -12.9711  -17.1396 C   0  0  0  0  0  0  0  0  0  0  0  0
   25.5735  -13.9627  -16.4459 C   0  0  0  0  0  0  0  0  0  0  0  0
   26.7756  -14.3585  -17.0000 C   0  0  0  0  0  0  0  0  0  0  0  0
   27.5795  -15.3047  -16.3934 C   0  0  0  0  0  0  0  0  0  0  0  0
   27.1972  -15.8797  -15.2121 C   0  0  0  0  0  0  0  0  0  0  0  0
   25.9933  -15.4874  -14.6512 C   0  0  0  0  0  0  0  0  0  0  0  0
   25.1897  -14.5395  -15.2605 C   0  0  0  0  0  0  0  0  0  0  0  0
   22.7908  -12.3212  -18.4645 C   0  0  0  0  0  0  0  0  0  0  0  0
   23.2554  -11.6647  -19.4584 O   0  0  0  0  0  0  0  0  0  0  0  0
   18.8506  -13.7810  -19.7887 N   0  0  0  0  0  0  0  0  0  0  0  0
   19.3258  -12.4255  -20.0141 C   0  0  0  0  0  0  0  0  0  0  0  0
   19.6138  -12.1439  -21.1887 O   0  0  0  0  0  0  0  0  0  0  0  0
   19.4377  -11.5081  -18.9214 C   0  0  0  0  0  0  0  0  0  0  0  0
   20.7702  -10.7897  -18.6894 C   0  0  2  0  0  0  0  0  0  0  0  0
   21.5205  -11.9213  -18.0151 N   0  0  0  0  0  0  0  0  0  0  0  0
   20.5687   -9.7469  -17.6936 C   0  0  0  0  0  0  0  0  0  0  0  0
   20.6206  -10.0741  -16.4485 O   0  0  0  0  0  0  0  0  0  0  0  0
   20.3298   -8.3995  -17.9534 N   0  0  0  0  0  0  0  0  0  0  0  0
   20.2668   -7.7515  -19.2465 C   0  0  0  0  0  0  0  0  0  0  0  0
   21.1191   -6.5032  -18.9993 C   0  0  0  0  0  0  0  0  0  0  0  0
   20.9337   -6.1838  -17.5434 C   0  0  0  0  0  0  0  0  0  0  0  0
   20.0993   -7.3115  -17.0056 C   0  0  1  0  0  0  0  0  0  0  0  0
   18.6787   -6.8955  -16.9889 C   0  0  0  0  0  0  0  0  0  0  0  0
   18.1723   -5.9783  -16.0793 O   0  0  0  0  0  0  0  0  0  0  0  0
   17.8396   -7.3613  -17.8156 O   0  0  0  0  0  0  0  0  0  0  0  0
  2  1  1  6
  3  2  1  0
  4  9  1  0
  4  3  1  0
  5  4  2  0
  6  7  2  0
  6  5  1  0
  7  8  1  0
  8  9  2  0
 10  2  1  0
 11 10  2  0
 13 12  1  0
 14 13  2  0
 15 13  1  0
 16 15  1  1
 16 17  1  0
 17 10  1  0
 18 19  2  0
 18 16  1  0
 20 18  1  0
 21 20  1  0
 22 21  1  0
 23 24  1  0
 23 22  1  0
 24 20  1  0
 24 25  1  6
 26 25  1  0
 27 25  2  0
M  END
$$$$
