FNP.pdb
     RDKit          3D

 27 28  0  0  1  0  0  0  0  0999 V2000
   24.9180  -21.9331  -12.6511 N   0  0  0  0  0  0  0  0  0  0  0  0
   24.9588  -20.9045  -11.6306 C   0  0  1  0  0  0  0  0  0  0  0  0
   23.6081  -20.3778  -11.2822 C   0  0  0  0  0  0  0  0  0  0  0  0
   22.8284  -19.7963  -12.3417 C   0  0  0  0  0  0  0  0  0  0  0  0
   21.5582  -20.2905  -12.5677 C   0  0  0  0  0  0  0  0  0  0  0  0
   20.7476  -19.7837  -13.5656 C   0  0  0  0  0  0  0  0  0  0  0  0
   21.1915  -18.7655  -14.3645 C   0  0  0  0  0  0  0  0  0  0  0  0
   22.4639  -18.2655  -14.1432 C   0  0  0  0  0  0  0  0  0  0  0  0
   23.2740  -18.7745  -13.1433 C   0  0  0  0  0  0  0  0  0  0  0  0
   25.7409  -21.3538  -10.4468 C   0  0  0  0  0  0  0  0  0  0  0  0
   25.4700  -22.4532   -9.8530 O   0  0  0  0  0  0  0  0  0  0  0  0
   31.4846  -21.4543   -9.2415 N   0  0  0  0  0  0  0  0  0  0  0  0
   30.1628  -21.4596   -8.6356 C   0  0  0  0  0  0  0  0  0  0  0  0
   30.1231  -21.7634   -7.4323 O   0  0  0  0  0  0  0  0  0  0  0  0
   29.0093  -21.1282   -9.4152 C   0  0  0  0  0  0  0  0  0  0  0  0
   27.6298  -21.1643   -8.7513 C   0  0  2  0  0  0  0  0  0  0  0  0
   26.8111  -20.6209   -9.9056 N   0  0  0  0  0  0  0  0  0  0  0  0
   27.5990  -20.1690   -7.6892 C   0  0  0  0  0  0  0  0  0  0  0  0
   27.1563  -18.9918   -7.9690 O   0  0  0  0  0  0  0  0  0  0  0  0
   27.9988  -20.3648   -6.3694 N   0  0  0  0  0  0  0  0  0  0  0  0
   28.4616  -21.5960   -5.7648 C   0  0  0  0  0  0  0  0  0  0  0  0
   27.6688  -21.6043   -4.4543 C   0  0  0  0  0  0  0  0  0  0  0  0
   27.4710  -20.1565   -4.1066 C   0  0  0  0  0  0  0  0  0  0  0  0
   28.0404  -19.3997   -5.2729 C   0  0  1  0  0  0  0  0  0  0  0  0
   29.4286  -18.9960   -4.9550 C   0  0  0  0  0  0  0  0  0  0  0  0
   29.7403  -18.1022   -3.9405 O   0  0  0  0  0  0  0  0  0  0  0  0
   30.4183  -19.4517   -5.6012 O   0  0  0  0  0  0  0  0  0  0  0  0
  2  1  1  6
  3  2  1  0
  4  9  1  0
  4  3  1  0
  5  4  2  0
  6  7  2  0
  6  5  1  0
  7  8  1  0
  8  9  2  0
 10  2  1  0
 11 10  2  0
 13 12  1  0
 14 13  2  0
 15 13  1  0
 16 15  1  6
 16 17  1  0
 17 10  1  0
 18 19  2  0
 18 16  1  0
 20 18  1  0
 21 20  1  0
 22 21  1  0
 23 24  1  0
 23 22  1  0
 24 20  1  0
 24 25  1  1
 26 25  1  0
 27 25  2  0
M  END
$$$$
