FNP.pdb
     RDKit          3D

 27 28  0  0  1  0  0  0  0  0999 V2000
   28.1026  -20.9822   -8.9708 N   0  0  0  0  0  0  0  0  0  0  0  0
   26.7203  -20.6707   -8.6652 C   0  0  1  0  0  0  0  0  0  0  0  0
   26.5779  -19.7041   -7.5389 C   0  0  0  0  0  0  0  0  0  0  0  0
   27.6021  -19.7053   -6.5292 C   0  0  0  0  0  0  0  0  0  0  0  0
   27.2507  -19.3585   -5.2389 C   0  0  0  0  0  0  0  0  0  0  0  0
   28.1770  -19.3372   -4.2136 C   0  0  0  0  0  0  0  0  0  0  0  0
   29.4832  -19.6639   -4.4571 C   0  0  0  0  0  0  0  0  0  0  0  0
   29.8422  -20.0125   -5.7484 C   0  0  0  0  0  0  0  0  0  0  0  0
   28.9128  -20.0333   -6.7737 C   0  0  0  0  0  0  0  0  0  0  0  0
   25.9786  -20.2642   -9.8897 C   0  0  0  0  0  0  0  0  0  0  0  0
   25.5101  -19.0815  -10.0178 O   0  0  0  0  0  0  0  0  0  0  0  0
   28.4731  -21.7584  -13.2336 N   0  0  0  0  0  0  0  0  0  0  0  0
   27.3267  -20.9042  -13.4983 C   0  0  0  0  0  0  0  0  0  0  0  0
   27.5880  -19.7730  -13.9384 O   0  0  0  0  0  0  0  0  0  0  0  0
   25.9994  -21.3798  -13.2528 C   0  0  0  0  0  0  0  0  0  0  0  0
   25.1138  -20.6262  -12.2562 C   0  0  2  0  0  0  0  0  0  0  0  0
   25.7429  -21.1295  -10.9720 N   0  0  0  0  0  0  0  0  0  0  0  0
   23.7667  -21.1741  -12.3247 C   0  0  0  0  0  0  0  0  0  0  0  0
   23.4645  -22.1501  -11.5399 O   0  0  0  0  0  0  0  0  0  0  0  0
   22.7445  -20.7361  -13.1633 N   0  0  0  0  0  0  0  0  0  0  0  0
   22.8319  -19.7377  -14.2080 C   0  0  0  0  0  0  0  0  0  0  0  0
   21.5791  -18.9013  -13.9304 C   0  0  0  0  0  0  0  0  0  0  0  0
   20.5882  -19.8635  -13.3401 C   0  0  0  0  0  0  0  0  0  0  0  0
   21.3444  -21.1534  -13.1950 C   0  0  1  0  0  0  0  0  0  0  0  0
   21.0591  -22.0145  -14.3648 C   0  0  0  0  0  0  0  0  0  0  0  0
   19.8742  -22.7219  -14.5092 O   0  0  0  0  0  0  0  0  0  0  0  0
   21.8930  -22.1523  -15.3083 O   0  0  0  0  0  0  0  0  0  0  0  0
  2  1  1  6
  3  2  1  0
  4  9  1  0
  4  3  1  0
  5  4  2  0
  6  7  2  0
  6  5  1  0
  7  8  1  0
  8  9  2  0
 10  2  1  0
 11 10  2  0
 13 12  1  0
 14 13  2  0
 15 13  1  0
 16 15  1  6
 16 17  1  0
 17 10  1  0
 18 19  2  0
 18 16  1  0
 20 18  1  0
 21 20  1  0
 22 21  1  0
 23 24  1  0
 23 22  1  0
 24 20  1  0
 24 25  1  6
 26 25  1  0
 27 25  2  0
M  END
$$$$
