FNP.pdb
     RDKit          3D

 27 28  0  0  1  0  0  0  0  0999 V2000
   27.5260  -21.3060   -8.5647 N   0  0  0  0  0  0  0  0  0  0  0  0
   26.4349  -20.3541   -8.4970 C   0  0  1  0  0  0  0  0  0  0  0  0
   26.7827  -19.1253   -7.7274 C   0  0  0  0  0  0  0  0  0  0  0  0
   27.3609  -19.3006   -6.4221 C   0  0  0  0  0  0  0  0  0  0  0  0
   28.6547  -18.8630   -6.2143 C   0  0  0  0  0  0  0  0  0  0  0  0
   29.2789  -18.9947   -4.9885 C   0  0  0  0  0  0  0  0  0  0  0  0
   28.6195  -19.5704   -3.9369 C   0  0  0  0  0  0  0  0  0  0  0  0
   27.3223  -20.0112   -4.1384 C   0  0  0  0  0  0  0  0  0  0  0  0
   26.6990  -19.8783   -5.3669 C   0  0  0  0  0  0  0  0  0  0  0  0
   25.8879  -20.0677   -9.8511 C   0  0  0  0  0  0  0  0  0  0  0  0
   26.1918  -18.9935  -10.4743 O   0  0  0  0  0  0  0  0  0  0  0  0
   27.3943  -22.7845  -12.0853 N   0  0  0  0  0  0  0  0  0  0  0  0
   26.5086  -21.9908  -12.9218 C   0  0  0  0  0  0  0  0  0  0  0  0
   27.0469  -21.4130  -13.8799 O   0  0  0  0  0  0  0  0  0  0  0  0
   25.1115  -21.9104  -12.6219 C   0  0  0  0  0  0  0  0  0  0  0  0
   24.5687  -20.6460  -11.9498 C   0  0  2  0  0  0  0  0  0  0  0  0
   25.0167  -20.9363  -10.5309 N   0  0  0  0  0  0  0  0  0  0  0  0
   23.1138  -20.6990  -11.9662 C   0  0  0  0  0  0  0  0  0  0  0  0
   22.5108  -21.2180  -10.9528 O   0  0  0  0  0  0  0  0  0  0  0  0
   22.2871  -20.2272  -12.9830 N   0  0  0  0  0  0  0  0  0  0  0  0
   22.6833  -19.7812  -14.3021 C   0  0  0  0  0  0  0  0  0  0  0  0
   21.8773  -18.4857  -14.4364 C   0  0  0  0  0  0  0  0  0  0  0  0
   20.6336  -18.7117  -13.6250 C   0  0  0  0  0  0  0  0  0  0  0  0
   20.8364  -20.0513  -12.9757 C   0  0  1  0  0  0  0  0  0  0  0  0
   20.1580  -21.0880  -13.7859 C   0  0  0  0  0  0  0  0  0  0  0  0
   18.8091  -21.3852  -13.6537 O   0  0  0  0  0  0  0  0  0  0  0  0
   20.7818  -21.7673  -14.6542 O   0  0  0  0  0  0  0  0  0  0  0  0
  2  1  1  6
  3  2  1  0
  4  9  1  0
  4  3  1  0
  5  4  2  0
  6  7  2  0
  6  5  1  0
  7  8  1  0
  8  9  2  0
 10  2  1  0
 11 10  2  0
 13 12  1  0
 14 13  2  0
 15 13  1  0
 16 15  1  6
 16 17  1  0
 17 10  1  0
 18 19  2  0
 18 16  1  0
 20 18  1  0
 21 20  1  0
 22 21  1  0
 23 24  1  0
 23 22  1  0
 24 20  1  0
 24 25  1  6
 26 25  1  0
 27 25  2  0
M  END
$$$$
