FNP.pdb
     RDKit          3D

 27 28  0  0  1  0  0  0  0  0999 V2000
   25.5434  -22.4248  -12.6819 N   0  0  0  0  0  0  0  0  0  0  0  0
   25.0417  -21.0679  -12.7723 C   0  0  1  0  0  0  0  0  0  0  0  0
   25.3430  -20.2550  -11.5592 C   0  0  0  0  0  0  0  0  0  0  0  0
   24.8093  -20.7118  -10.3042 C   0  0  0  0  0  0  0  0  0  0  0  0
   23.4452  -20.6273  -10.1025 C   0  0  0  0  0  0  0  0  0  0  0  0
   22.8568  -21.0467   -8.9246 C   0  0  0  0  0  0  0  0  0  0  0  0
   23.6238  -21.5629   -7.9159 C   0  0  0  0  0  0  0  0  0  0  0  0
   24.9920  -21.6505   -8.1116 C   0  0  0  0  0  0  0  0  0  0  0  0
   25.5792  -21.2299   -9.2921 C   0  0  0  0  0  0  0  0  0  0  0  0
   25.4738  -20.4193  -14.0401 C   0  0  0  0  0  0  0  0  0  0  0  0
   26.5281  -20.8023  -14.6536 O   0  0  0  0  0  0  0  0  0  0  0  0
   25.1909  -20.0825  -19.2973 N   0  0  0  0  0  0  0  0  0  0  0  0
   24.7406  -19.1072  -18.3174 C   0  0  0  0  0  0  0  0  0  0  0  0
   24.5038  -17.9707  -18.7580 O   0  0  0  0  0  0  0  0  0  0  0  0
   24.5935  -19.4787  -16.9432 C   0  0  0  0  0  0  0  0  0  0  0  0
   25.3171  -18.6584  -15.8714 C   0  0  2  0  0  0  0  0  0  0  0  0
   24.7719  -19.3621  -14.6443 N   0  0  0  0  0  0  0  0  0  0  0  0
   24.7747  -17.3073  -15.8753 C   0  0  0  0  0  0  0  0  0  0  0  0
   23.5438  -17.1431  -15.5320 O   0  0  0  0  0  0  0  0  0  0  0  0
   25.4673  -16.1462  -16.2101 N   0  0  0  0  0  0  0  0  0  0  0  0
   26.8260  -16.0434  -16.6993 C   0  0  0  0  0  0  0  0  0  0  0  0
   27.3710  -14.9017  -15.8360 C   0  0  0  0  0  0  0  0  0  0  0  0
   26.1842  -14.0275  -15.5471 C   0  0  0  0  0  0  0  0  0  0  0  0
   25.0144  -14.7585  -16.1421 C   0  0  1  0  0  0  0  0  0  0  0  0
   24.7365  -14.2098  -17.4887 C   0  0  0  0  0  0  0  0  0  0  0  0
   25.0692  -14.8778  -18.6584 O   0  0  0  0  0  0  0  0  0  0  0  0
   24.1725  -13.0865  -17.6457 O   0  0  0  0  0  0  0  0  0  0  0  0
  2  1  1  1
  3  2  1  0
  4  9  1  0
  4  3  1  0
  5  4  2  0
  6  7  2  0
  6  5  1  0
  7  8  1  0
  8  9  2  0
 10  2  1  0
 11 10  2  0
 13 12  1  0
 14 13  2  0
 15 13  1  0
 16 15  1  6
 16 17  1  0
 17 10  1  0
 18 19  2  0
 18 16  1  0
 20 18  1  0
 21 20  1  0
 22 21  1  0
 23 24  1  0
 23 22  1  0
 24 20  1  0
 24 25  1  6
 26 25  1  0
 27 25  2  0
M  END
$$$$
