FNP.pdb
     RDKit          3D

 27 28  0  0  1  0  0  0  0  0999 V2000
   27.3550  -11.1716  -18.5887 N   0  0  0  0  0  0  0  0  0  0  0  0
   27.0739   -9.9282  -17.8986 C   0  0  1  0  0  0  0  0  0  0  0  0
   27.7348   -8.7506  -18.5307 C   0  0  0  0  0  0  0  0  0  0  0  0
   29.1680   -8.7770  -18.6479 C   0  0  0  0  0  0  0  0  0  0  0  0
   29.7213   -9.2760  -19.8113 C   0  0  0  0  0  0  0  0  0  0  0  0
   31.0891   -9.3334  -19.9998 C   0  0  0  0  0  0  0  0  0  0  0  0
   31.9392   -8.8904  -19.0235 C   0  0  0  0  0  0  0  0  0  0  0  0
   31.3912   -8.3889  -17.8547 C   0  0  0  0  0  0  0  0  0  0  0  0
   30.0210   -8.3324  -17.6680 C   0  0  0  0  0  0  0  0  0  0  0  0
   25.6108   -9.7461  -17.6959 C   0  0  0  0  0  0  0  0  0  0  0  0
   24.7734  -10.0399  -18.6163 O   0  0  0  0  0  0  0  0  0  0  0  0
   20.9162   -9.3601  -15.1744 N   0  0  0  0  0  0  0  0  0  0  0  0
   22.0780   -9.7643  -14.3992 C   0  0  0  0  0  0  0  0  0  0  0  0
   21.8394  -10.2210  -13.2695 O   0  0  0  0  0  0  0  0  0  0  0  0
   23.3939   -9.6267  -14.9446 C   0  0  0  0  0  0  0  0  0  0  0  0
   23.5554   -9.0626  -16.3592 C   0  0  2  0  0  0  0  0  0  0  0  0
   25.0526   -9.2493  -16.5055 N   0  0  0  0  0  0  0  0  0  0  0  0
   23.2972   -7.6303  -16.3205 C   0  0  0  0  0  0  0  0  0  0  0  0
   24.1835   -6.8648  -15.7835 O   0  0  0  0  0  0  0  0  0  0  0  0
   22.1696   -6.9860  -16.8242 N   0  0  0  0  0  0  0  0  0  0  0  0
   21.0300   -7.5926  -17.4792 C   0  0  0  0  0  0  0  0  0  0  0  0
   20.8443   -6.6630  -18.6822 C   0  0  0  0  0  0  0  0  0  0  0  0
   21.3190   -5.3169  -18.2144 C   0  0  0  0  0  0  0  0  0  0  0  0
   21.8589   -5.5582  -16.8334 C   0  0  1  0  0  0  0  0  0  0  0  0
   20.8134   -5.2219  -15.8408 C   0  0  0  0  0  0  0  0  0  0  0  0
   20.1575   -6.1810  -15.0824 O   0  0  0  0  0  0  0  0  0  0  0  0
   20.4580   -4.0247  -15.6288 O   0  0  0  0  0  0  0  0  0  0  0  0
  2  1  1  6
  3  2  1  0
  4  9  1  0
  4  3  1  0
  5  4  2  0
  6  7  2  0
  6  5  1  0
  7  8  1  0
  8  9  2  0
 10  2  1  0
 11 10  2  0
 13 12  1  0
 14 13  2  0
 15 13  1  0
 16 15  1  1
 16 17  1  0
 17 10  1  0
 18 19  2  0
 18 16  1  0
 20 18  1  0
 21 20  1  0
 22 21  1  0
 23 24  1  0
 23 22  1  0
 24 20  1  0
 24 25  1  1
 26 25  1  0
 27 25  2  0
M  END
$$$$
