SGV.pdb
     RDKit          3D

 18 17  0  0  1  0  0  0  0  0999 V2000
   10.9521  -16.1055   23.5353 O   0  0  0  0  0  0  0  0  0  0  0  0
   10.9634  -16.8692   22.3754 C   0  0  0  0  0  0  0  0  0  0  0  0
    9.6611  -16.6836   21.6230 C   0  0  2  0  0  0  0  0  0  0  0  0
    9.4536  -15.2820   21.3822 N   0  0  0  0  0  0  0  0  0  0  0  0
    8.5809  -17.2370   22.5144 C   0  0  0  0  0  0  0  0  0  0  0  0
    8.6880  -18.4198   22.9256 O   0  0  0  0  0  0  0  0  0  0  0  0
    7.4673  -16.4566   22.8881 N   0  0  0  0  0  0  0  0  0  0  0  0
    6.4125  -16.9071   23.7591 C   0  0  0  0  0  0  0  0  0  0  0  0
    6.4055  -16.1375   25.0151 C   0  0  0  0  0  0  0  0  0  0  0  0
    5.6172  -16.5778   25.9181 O   0  0  0  0  0  0  0  0  0  0  0  0
    9.4814  -13.6980   26.4802 C   0  0  0  0  0  0  0  0  0  0  0  0
    8.0757  -13.1029   26.5281 C   0  0  1  0  0  0  0  0  0  0  0  0
    7.8581  -12.0956   25.4477 C   0  0  0  0  0  0  0  0  0  0  0  0
    7.0269  -14.2231   26.4860 C   0  0  2  0  0  0  0  0  0  0  0  0
    7.1949  -14.9979   25.2479 N   0  0  0  0  0  0  0  0  0  0  0  0
    5.7104  -13.5521   26.4127 C   0  0  0  0  0  0  0  0  0  0  0  0
    5.1569  -13.4483   25.2960 O   0  0  0  0  0  0  0  0  0  0  0  0
    5.0630  -13.0352   27.5166 O   0  0  0  0  0  0  0  0  0  0  0  0
  1  2  1  0
  3  2  1  0
  3  5  1  0
  3  4  1  1
  5  7  1  0
  6  5  2  0
  7  8  1  0
  9 10  2  0
  9  8  1  0
 12 11  1  6
 13 12  1  0
 14 12  1  0
 14 16  1  0
 14 15  1  6
 15  9  1  0
 16 18  1  0
 17 16  2  0
M  END
$$$$
