SGV.pdb
     RDKit          3D

 18 17  0  0  1  0  0  0  0  0999 V2000
    9.7494  -19.3259   19.8983 O   0  0  0  0  0  0  0  0  0  0  0  0
    8.5913  -18.6132   20.1801 C   0  0  0  0  0  0  0  0  0  0  0  0
    8.7198  -17.1948   19.6623 C   0  0  2  0  0  0  0  0  0  0  0  0
   10.0558  -16.7248   19.9072 N   0  0  0  0  0  0  0  0  0  0  0  0
    7.7173  -16.3764   20.4323 C   0  0  0  0  0  0  0  0  0  0  0  0
    6.5503  -16.2717   19.9775 O   0  0  0  0  0  0  0  0  0  0  0  0
    8.0659  -15.7355   21.6391 N   0  0  0  0  0  0  0  0  0  0  0  0
    7.1623  -14.9398   22.4294 C   0  0  0  0  0  0  0  0  0  0  0  0
    7.8164  -14.4759   23.6651 C   0  0  0  0  0  0  0  0  0  0  0  0
    9.0173  -14.8781   23.8285 O   0  0  0  0  0  0  0  0  0  0  0  0
    7.1755  -10.8166   25.6609 C   0  0  0  0  0  0  0  0  0  0  0  0
    7.1688  -12.0864   26.5095 C   0  0  1  0  0  0  0  0  0  0  0  0
    5.7827  -12.5192   26.8568 C   0  0  0  0  0  0  0  0  0  0  0  0
    7.9551  -13.1984   25.8013 C   0  0  2  0  0  0  0  0  0  0  0  0
    7.2028  -13.6474   24.6207 N   0  0  0  0  0  0  0  0  0  0  0  0
    8.0088  -14.3329   26.7494 C   0  0  0  0  0  0  0  0  0  0  0  0
    7.1261  -15.2155   26.6717 O   0  0  0  0  0  0  0  0  0  0  0  0
    8.9855  -14.4649   27.7156 O   0  0  0  0  0  0  0  0  0  0  0  0
  1  2  1  0
  3  2  1  0
  3  5  1  0
  3  4  1  1
  5  7  1  0
  6  5  2  0
  7  8  1  0
  9 10  2  0
  9  8  1  0
 12 11  1  6
 13 12  1  0
 14 12  1  0
 14 16  1  0
 14 15  1  6
 15  9  1  0
 16 18  1  0
 17 16  2  0
M  END
$$$$
