SGV.pdb
     RDKit          3D

 18 17  0  0  1  0  0  0  0  0999 V2000
    8.2354  -17.1073   18.5246 O   0  0  0  0  0  0  0  0  0  0  0  0
    9.5470  -16.6969   18.7247 C   0  0  0  0  0  0  0  0  0  0  0  0
    9.9082  -16.8211   20.1911 C   0  0  2  0  0  0  0  0  0  0  0  0
    9.5115  -18.1190   20.6641 N   0  0  0  0  0  0  0  0  0  0  0  0
    9.1429  -15.7373   20.9033 C   0  0  0  0  0  0  0  0  0  0  0  0
    9.4016  -14.5385   20.6284 O   0  0  0  0  0  0  0  0  0  0  0  0
    8.1543  -16.0457   21.8606 N   0  0  0  0  0  0  0  0  0  0  0  0
    7.2883  -15.0751   22.4788 C   0  0  0  0  0  0  0  0  0  0  0  0
    7.9017  -14.5292   23.7018 C   0  0  0  0  0  0  0  0  0  0  0  0
    9.0836  -14.9446   23.9493 O   0  0  0  0  0  0  0  0  0  0  0  0
    7.1263  -10.8233   25.7106 C   0  0  0  0  0  0  0  0  0  0  0  0
    7.0698  -12.1289   26.5009 C   0  0  1  0  0  0  0  0  0  0  0  0
    5.6667  -12.5911   26.7172 C   0  0  0  0  0  0  0  0  0  0  0  0
    7.9255  -13.2006   25.8111 C   0  0  2  0  0  0  0  0  0  0  0  0
    7.2706  -13.6130   24.5611 N   0  0  0  0  0  0  0  0  0  0  0  0
    7.9282  -14.3710   26.7161 C   0  0  0  0  0  0  0  0  0  0  0  0
    8.6269  -14.3204   27.7521 O   0  0  0  0  0  0  0  0  0  0  0  0
    7.1972  -15.5162   26.4728 O   0  0  0  0  0  0  0  0  0  0  0  0
  1  2  1  0
  3  2  1  0
  3  5  1  0
  3  4  1  1
  5  7  1  0
  6  5  2  0
  7  8  1  0
  9 10  2  0
  9  8  1  0
 12 11  1  6
 13 12  1  0
 14 12  1  0
 14 16  1  0
 14 15  1  6
 15  9  1  0
 16 18  1  0
 17 16  2  0
M  END
$$$$
