SGV.pdb
     RDKit          3D

 18 17  0  0  1  0  0  0  0  0999 V2000
    7.7749  -18.6307   19.6233 O   0  0  0  0  0  0  0  0  0  0  0  0
    8.8319  -17.8422   19.1879 C   0  0  0  0  0  0  0  0  0  0  0  0
    9.6311  -17.3484   20.3769 C   0  0  2  0  0  0  0  0  0  0  0  0
    9.8573  -18.4446   21.2785 N   0  0  0  0  0  0  0  0  0  0  0  0
    8.7911  -16.2840   21.0321 C   0  0  0  0  0  0  0  0  0  0  0  0
    8.6124  -15.1994   20.4227 O   0  0  0  0  0  0  0  0  0  0  0  0
    8.2112  -16.4857   22.3016 N   0  0  0  0  0  0  0  0  0  0  0  0
    7.2322  -15.6137   22.8977 C   0  0  0  0  0  0  0  0  0  0  0  0
    7.8492  -14.7590   23.9267 C   0  0  0  0  0  0  0  0  0  0  0  0
    9.1260  -14.7632   23.9429 O   0  0  0  0  0  0  0  0  0  0  0  0
    6.5740  -11.0160   25.1904 C   0  0  0  0  0  0  0  0  0  0  0  0
    6.8674  -12.0234   26.3001 C   0  0  1  0  0  0  0  0  0  0  0  0
    5.6173  -12.6141   26.8636 C   0  0  0  0  0  0  0  0  0  0  0  0
    7.8318  -13.1036   25.7906 C   0  0  2  0  0  0  0  0  0  0  0  0
    7.1244  -13.9764   24.8424 N   0  0  0  0  0  0  0  0  0  0  0  0
    8.1881  -13.9261   26.9676 C   0  0  0  0  0  0  0  0  0  0  0  0
    7.6239  -15.0327   27.1129 O   0  0  0  0  0  0  0  0  0  0  0  0
    9.1127  -13.5317   27.9133 O   0  0  0  0  0  0  0  0  0  0  0  0
  1  2  1  0
  3  2  1  0
  3  5  1  0
  3  4  1  1
  5  7  1  0
  6  5  2  0
  7  8  1  0
  9 10  2  0
  9  8  1  0
 12 11  1  6
 13 12  1  0
 14 12  1  0
 14 16  1  0
 14 15  1  6
 15  9  1  0
 16 18  1  0
 17 16  2  0
M  END
$$$$
