SGV.pdb
     RDKit          3D

 18 17  0  0  1  0  0  0  0  0999 V2000
   11.8826  -17.7785   20.1476 O   0  0  0  0  0  0  0  0  0  0  0  0
   10.9774  -17.9046   21.1933 C   0  0  0  0  0  0  0  0  0  0  0  0
    9.5608  -17.8677   20.6564 C   0  0  2  0  0  0  0  0  0  0  0  0
    9.5271  -17.0478   19.4764 N   0  0  0  0  0  0  0  0  0  0  0  0
    8.7157  -17.2660   21.7479 C   0  0  0  0  0  0  0  0  0  0  0  0
    8.5903  -17.8966   22.8279 O   0  0  0  0  0  0  0  0  0  0  0  0
    8.0729  -16.0226   21.5764 N   0  0  0  0  0  0  0  0  0  0  0  0
    7.1391  -15.4524   22.5129 C   0  0  0  0  0  0  0  0  0  0  0  0
    7.8462  -14.8384   23.6500 C   0  0  0  0  0  0  0  0  0  0  0  0
    9.1205  -14.8544   23.5705 O   0  0  0  0  0  0  0  0  0  0  0  0
    6.9664  -11.2647   25.2450 C   0  0  0  0  0  0  0  0  0  0  0  0
    7.1225  -12.3574   26.3005 C   0  0  1  0  0  0  0  0  0  0  0  0
    5.8026  -12.8439   26.8009 C   0  0  0  0  0  0  0  0  0  0  0  0
    7.9837  -13.5030   25.7506 C   0  0  2  0  0  0  0  0  0  0  0  0
    7.2056  -14.2619   24.7606 N   0  0  0  0  0  0  0  0  0  0  0  0
    8.2465  -14.4058   26.8929 C   0  0  0  0  0  0  0  0  0  0  0  0
    7.5574  -15.4438   27.0017 O   0  0  0  0  0  0  0  0  0  0  0  0
    9.2150  -14.1583   27.8445 O   0  0  0  0  0  0  0  0  0  0  0  0
  1  2  1  0
  3  2  1  0
  3  5  1  0
  3  4  1  6
  5  7  1  0
  6  5  2  0
  7  8  1  0
  9 10  2  0
  9  8  1  0
 12 11  1  6
 13 12  1  0
 14 12  1  0
 14 16  1  0
 14 15  1  6
 15  9  1  0
 16 18  1  0
 17 16  2  0
M  END
$$$$
