SGV.pdb
     RDKit          3D

 18 17  0  0  1  0  0  0  0  0999 V2000
    7.9708  -16.3375   18.4553 O   0  0  0  0  0  0  0  0  0  0  0  0
    8.0075  -17.7067   18.6842 C   0  0  0  0  0  0  0  0  0  0  0  0
    8.4937  -17.9812   20.0929 C   0  0  2  0  0  0  0  0  0  0  0  0
    8.5347  -19.4018   20.3071 N   0  0  0  0  0  0  0  0  0  0  0  0
    7.4948  -17.3318   21.0139 C   0  0  0  0  0  0  0  0  0  0  0  0
    6.2752  -17.5930   20.8583 O   0  0  0  0  0  0  0  0  0  0  0  0
    7.9041  -16.4477   22.0334 N   0  0  0  0  0  0  0  0  0  0  0  0
    7.0059  -15.7650   22.9285 C   0  0  0  0  0  0  0  0  0  0  0  0
    7.7525  -14.9195   23.8760 C   0  0  0  0  0  0  0  0  0  0  0  0
    9.0229  -15.0398   23.8275 O   0  0  0  0  0  0  0  0  0  0  0  0
    6.7325  -11.1004   25.4219 C   0  0  0  0  0  0  0  0  0  0  0  0
    7.1119  -12.1991   26.4126 C   0  0  1  0  0  0  0  0  0  0  0  0
    5.9118  -12.8042   27.0628 C   0  0  0  0  0  0  0  0  0  0  0  0
    7.9818  -13.2570   25.7195 C   0  0  2  0  0  0  0  0  0  0  0  0
    7.1522  -14.0286   24.7826 N   0  0  0  0  0  0  0  0  0  0  0  0
    8.4279  -14.1844   26.7824 C   0  0  0  0  0  0  0  0  0  0  0  0
    7.7564  -15.2189   26.9896 O   0  0  0  0  0  0  0  0  0  0  0  0
    9.5489  -13.9636   27.5566 O   0  0  0  0  0  0  0  0  0  0  0  0
  1  2  1  0
  3  2  1  0
  3  5  1  0
  3  4  1  1
  5  7  1  0
  6  5  2  0
  7  8  1  0
  9 10  2  0
  9  8  1  0
 12 11  1  6
 13 12  1  0
 14 12  1  0
 14 16  1  0
 14 15  1  6
 15  9  1  0
 16 18  1  0
 17 16  2  0
M  END
$$$$
