SGV.pdb
     RDKit          3D

 18 17  0  0  1  0  0  0  0  0999 V2000
    8.8536  -12.3749   18.1590 O   0  0  0  0  0  0  0  0  0  0  0  0
    8.7951  -13.0203   19.3872 C   0  0  0  0  0  0  0  0  0  0  0  0
    8.1104  -14.3632   19.2320 C   0  0  2  0  0  0  0  0  0  0  0  0
    6.7333  -14.1502   18.8800 N   0  0  0  0  0  0  0  0  0  0  0  0
    8.2192  -15.0450   20.5703 C   0  0  0  0  0  0  0  0  0  0  0  0
    9.3543  -15.4081   20.9696 O   0  0  0  0  0  0  0  0  0  0  0  0
    7.0808  -15.2777   21.3694 N   0  0  0  0  0  0  0  0  0  0  0  0
    7.1056  -15.9345   22.6509 C   0  0  0  0  0  0  0  0  0  0  0  0
    7.6866  -15.0545   23.6795 C   0  0  0  0  0  0  0  0  0  0  0  0
    8.9429  -14.8514   23.5747 O   0  0  0  0  0  0  0  0  0  0  0  0
    7.2958  -12.0514   27.6371 C   0  0  0  0  0  0  0  0  0  0  0  0
    6.5989  -12.8925   26.5698 C   0  0  1  0  0  0  0  0  0  0  0  0
    5.7219  -12.0643   25.6899 C   0  0  0  0  0  0  0  0  0  0  0  0
    7.6363  -13.6844   25.7616 C   0  0  2  0  0  0  0  0  0  0  0  0
    6.9492  -14.4575   24.7168 N   0  0  0  0  0  0  0  0  0  0  0  0
    8.2405  -14.6526   26.7031 C   0  0  0  0  0  0  0  0  0  0  0  0
    7.7084  -15.7782   26.8218 O   0  0  0  0  0  0  0  0  0  0  0  0
    9.3625  -14.3743   27.4569 O   0  0  0  0  0  0  0  0  0  0  0  0
  1  2  1  0
  3  2  1  0
  3  5  1  0
  3  4  1  1
  5  7  1  0
  6  5  2  0
  7  8  1  0
  9 10  2  0
  9  8  1  0
 12 11  1  1
 13 12  1  0
 14 12  1  0
 14 16  1  0
 14 15  1  6
 15  9  1  0
 16 18  1  0
 17 16  2  0
M  END
$$$$
