SGV.pdb
     RDKit          3D

 18 17  0  0  1  0  0  0  0  0999 V2000
   -1.9054  -30.3741   27.9904 O   0  0  0  0  0  0  0  0  0  0  0  0
   -1.9678  -29.2907   28.8571 C   0  0  0  0  0  0  0  0  0  0  0  0
   -2.4575  -28.0639   28.1146 C   0  0  2  0  0  0  0  0  0  0  0  0
   -1.3989  -27.5668   27.2792 N   0  0  0  0  0  0  0  0  0  0  0  0
   -2.8219  -27.0541   29.1707 C   0  0  0  0  0  0  0  0  0  0  0  0
   -2.1133  -26.9848   30.2063 O   0  0  0  0  0  0  0  0  0  0  0  0
   -3.9316  -26.1980   29.0147 N   0  0  0  0  0  0  0  0  0  0  0  0
   -4.2656  -25.1250   29.9154 C   0  0  0  0  0  0  0  0  0  0  0  0
   -5.4679  -24.4092   29.4549 C   0  0  0  0  0  0  0  0  0  0  0  0
   -5.7039  -24.4925   28.2027 O   0  0  0  0  0  0  0  0  0  0  0  0
   -8.5413  -23.5520   32.0263 C   0  0  0  0  0  0  0  0  0  0  0  0
   -8.7640  -23.6662   30.5198 C   0  0  1  0  0  0  0  0  0  0  0  0
  -10.0460  -23.0299   30.0944 C   0  0  0  0  0  0  0  0  0  0  0  0
   -7.5597  -23.0886   29.7631 C   0  0  2  0  0  0  0  0  0  0  0  0
   -6.3236  -23.6783   30.2973 N   0  0  0  0  0  0  0  0  0  0  0  0
   -7.5314  -21.6429   30.0760 C   0  0  0  0  0  0  0  0  0  0  0  0
   -6.8839  -21.2634   31.0764 O   0  0  0  0  0  0  0  0  0  0  0  0
   -8.1846  -20.6926   29.3178 O   0  0  0  0  0  0  0  0  0  0  0  0
  1  2  1  0
  3  2  1  0
  3  5  1  0
  3  4  1  6
  5  7  1  0
  6  5  2  0
  7  8  1  0
  9 10  2  0
  9  8  1  0
 12 11  1  1
 13 12  1  0
 14 12  1  0
 14 16  1  0
 14 15  1  1
 15  9  1  0
 16 18  1  0
 17 16  2  0
M  END
$$$$
