SGV.pdb
     RDKit          3D

 18 17  0  0  1  0  0  0  0  0999 V2000
    7.5375  -16.5556   18.1707 O   0  0  0  0  0  0  0  0  0  0  0  0
    8.7624  -16.7363   18.7996 C   0  0  0  0  0  0  0  0  0  0  0  0
    8.5900  -17.6154   20.0217 C   0  0  2  0  0  0  0  0  0  0  0  0
    8.0923  -18.8994   19.6102 N   0  0  0  0  0  0  0  0  0  0  0  0
    7.5908  -16.9141   20.9035 C   0  0  0  0  0  0  0  0  0  0  0  0
    6.3664  -17.0648   20.6627 O   0  0  0  0  0  0  0  0  0  0  0  0
    8.0051  -16.1025   21.9797 N   0  0  0  0  0  0  0  0  0  0  0  0
    7.1110  -15.4795   22.9213 C   0  0  0  0  0  0  0  0  0  0  0  0
    7.8644  -14.7429   23.9508 C   0  0  0  0  0  0  0  0  0  0  0  0
    9.1354  -14.8139   23.8494 O   0  0  0  0  0  0  0  0  0  0  0  0
    6.9791  -11.0638   25.6795 C   0  0  0  0  0  0  0  0  0  0  0  0
    7.2699  -12.2042   26.6527 C   0  0  1  0  0  0  0  0  0  0  0  0
    6.0201  -12.7631   27.2485 C   0  0  0  0  0  0  0  0  0  0  0  0
    8.1082  -13.2878   25.9603 C   0  0  2  0  0  0  0  0  0  0  0  0
    7.2695  -14.0002   24.9855 N   0  0  0  0  0  0  0  0  0  0  0  0
    8.4810  -14.2566   27.0145 C   0  0  0  0  0  0  0  0  0  0  0  0
    7.7817  -15.2842   27.1524 O   0  0  0  0  0  0  0  0  0  0  0  0
    9.5630  -14.0817   27.8533 O   0  0  0  0  0  0  0  0  0  0  0  0
  1  2  1  0
  3  2  1  0
  3  5  1  0
  3  4  1  6
  5  7  1  0
  6  5  2  0
  7  8  1  0
  9 10  2  0
  9  8  1  0
 12 11  1  6
 13 12  1  0
 14 12  1  0
 14 16  1  0
 14 15  1  6
 15  9  1  0
 16 18  1  0
 17 16  2  0
M  END
$$$$
