SGV.pdb
     RDKit          3D

 18 17  0  0  1  0  0  0  0  0999 V2000
    7.4582  -18.2768   19.2548 O   0  0  0  0  0  0  0  0  0  0  0  0
    8.5664  -17.6150   18.7424 C   0  0  0  0  0  0  0  0  0  0  0  0
    9.4096  -17.0670   19.8760 C   0  0  2  0  0  0  0  0  0  0  0  0
    9.7142  -18.1319   20.7919 N   0  0  0  0  0  0  0  0  0  0  0  0
    8.5723  -16.0102   20.5467 C   0  0  0  0  0  0  0  0  0  0  0  0
    8.2871  -14.9700   19.9015 O   0  0  0  0  0  0  0  0  0  0  0  0
    8.1109  -16.1705   21.8696 N   0  0  0  0  0  0  0  0  0  0  0  0
    7.2139  -15.2614   22.5352 C   0  0  0  0  0  0  0  0  0  0  0  0
    7.8838  -14.5996   23.6680 C   0  0  0  0  0  0  0  0  0  0  0  0
    9.1472  -14.7742   23.7298 O   0  0  0  0  0  0  0  0  0  0  0  0
    6.9536  -10.9377   25.6156 C   0  0  0  0  0  0  0  0  0  0  0  0
    7.0878  -12.1996   26.4654 C   0  0  1  0  0  0  0  0  0  0  0  0
    5.7578  -12.7704   26.8323 C   0  0  0  0  0  0  0  0  0  0  0  0
    7.9734  -13.2275   25.7474 C   0  0  2  0  0  0  0  0  0  0  0  0
    7.2210  -13.8205   24.6323 N   0  0  0  0  0  0  0  0  0  0  0  0
    8.2328  -14.3043   26.7282 C   0  0  0  0  0  0  0  0  0  0  0  0
    7.5265  -15.3353   26.6805 O   0  0  0  0  0  0  0  0  0  0  0  0
    9.2163  -14.2267   27.6934 O   0  0  0  0  0  0  0  0  0  0  0  0
  1  2  1  0
  3  2  1  0
  3  5  1  0
  3  4  1  1
  5  7  1  0
  6  5  2  0
  7  8  1  0
  9 10  2  0
  9  8  1  0
 12 11  1  6
 13 12  1  0
 14 12  1  0
 14 16  1  0
 14 15  1  6
 15  9  1  0
 16 18  1  0
 17 16  2  0
M  END
$$$$
