SGV.pdb
     RDKit          3D

 18 17  0  0  1  0  0  0  0  0999 V2000
    8.1660  -17.1363   18.0763 O   0  0  0  0  0  0  0  0  0  0  0  0
    9.3965  -16.9936   18.7041 C   0  0  0  0  0  0  0  0  0  0  0  0
    9.4078  -17.7773   20.0010 C   0  0  2  0  0  0  0  0  0  0  0  0
    9.1686  -19.1650   19.7132 N   0  0  0  0  0  0  0  0  0  0  0  0
    8.2965  -17.2082   20.8429 C   0  0  0  0  0  0  0  0  0  0  0  0
    7.1091  -17.4871   20.5394 O   0  0  0  0  0  0  0  0  0  0  0  0
    8.5670  -16.3788   21.9508 N   0  0  0  0  0  0  0  0  0  0  0  0
    7.5680  -15.8916   22.8667 C   0  0  0  0  0  0  0  0  0  0  0  0
    8.1683  -14.9922   23.8670 C   0  0  0  0  0  0  0  0  0  0  0  0
    9.4433  -14.9273   23.8441 O   0  0  0  0  0  0  0  0  0  0  0  0
    6.8711  -11.2955   25.2006 C   0  0  0  0  0  0  0  0  0  0  0  0
    7.1539  -12.3208   26.2965 C   0  0  1  0  0  0  0  0  0  0  0  0
    5.8985  -12.9204   26.8384 C   0  0  0  0  0  0  0  0  0  0  0  0
    8.1230  -13.3928   25.7787 C   0  0  2  0  0  0  0  0  0  0  0  0
    7.4300  -14.2386   24.7961 N   0  0  0  0  0  0  0  0  0  0  0  0
    8.4534  -14.2457   26.9416 C   0  0  0  0  0  0  0  0  0  0  0  0
    9.2178  -13.7862   27.8183 O   0  0  0  0  0  0  0  0  0  0  0  0
    7.9593  -15.5238   27.1061 O   0  0  0  0  0  0  0  0  0  0  0  0
  1  2  1  0
  3  2  1  0
  3  5  1  0
  3  4  1  6
  5  7  1  0
  6  5  2  0
  7  8  1  0
  9 10  2  0
  9  8  1  0
 12 11  1  6
 13 12  1  0
 14 12  1  0
 14 16  1  0
 14 15  1  6
 15  9  1  0
 16 18  1  0
 17 16  2  0
M  END
$$$$
