SGV.pdb
     RDKit          3D

 18 17  0  0  1  0  0  0  0  0999 V2000
    7.7888  -17.0763   18.4799 O   0  0  0  0  0  0  0  0  0  0  0  0
    8.0415  -18.3367   19.0055 C   0  0  0  0  0  0  0  0  0  0  0  0
    8.6673  -18.2064   20.3794 C   0  0  2  0  0  0  0  0  0  0  0  0
    8.9371  -19.5191   20.8989 N   0  0  0  0  0  0  0  0  0  0  0  0
    7.6538  -17.4927   21.2344 C   0  0  0  0  0  0  0  0  0  0  0  0
    6.4425  -17.8085   21.1211 O   0  0  0  0  0  0  0  0  0  0  0  0
    8.0405  -16.4895   22.1469 N   0  0  0  0  0  0  0  0  0  0  0  0
    7.1290  -15.7609   22.9910 C   0  0  0  0  0  0  0  0  0  0  0  0
    7.8630  -14.9527   23.9800 C   0  0  0  0  0  0  0  0  0  0  0  0
    9.1356  -15.0130   23.8947 O   0  0  0  0  0  0  0  0  0  0  0  0
    7.0010  -11.1715   25.4226 C   0  0  0  0  0  0  0  0  0  0  0  0
    7.2324  -12.2397   26.4892 C   0  0  1  0  0  0  0  0  0  0  0  0
    5.9505  -12.7259   27.0806 C   0  0  0  0  0  0  0  0  0  0  0  0
    8.0687  -13.3899   25.9113 C   0  0  2  0  0  0  0  0  0  0  0  0
    7.2485  -14.1559   24.9617 N   0  0  0  0  0  0  0  0  0  0  0  0
    8.3805  -14.2841   27.0480 C   0  0  0  0  0  0  0  0  0  0  0  0
    7.6365  -15.2684   27.2521 O   0  0  0  0  0  0  0  0  0  0  0  0
    9.4524  -14.0851   27.8943 O   0  0  0  0  0  0  0  0  0  0  0  0
  1  2  1  0
  3  2  1  0
  3  5  1  0
  3  4  1  1
  5  7  1  0
  6  5  2  0
  7  8  1  0
  9 10  2  0
  9  8  1  0
 12 11  1  6
 13 12  1  0
 14 12  1  0
 14 16  1  0
 14 15  1  6
 15  9  1  0
 16 18  1  0
 17 16  2  0
M  END
$$$$
