TED.pdb
     RDKit          3D

 25 24  0  0  1  0  0  0  0  0999 V2000
   18.4772  -10.0269  -21.0574 C   0  0  0  0  0  0  0  0  0  0  0  0
   19.9675   -9.9727  -21.2395 C   0  0  1  0  0  0  0  0  0  0  0  0
   20.3812   -8.7039  -21.6645 O   0  0  0  0  0  0  0  0  0  0  0  0
   20.7575  -10.4286  -20.0440 C   0  0  2  0  0  0  0  0  0  0  0  0
   20.3010  -11.8209  -19.8073 N   0  0  0  0  0  0  0  0  0  0  0  0
   20.4086   -9.6341  -18.8479 C   0  0  0  0  0  0  0  0  0  0  0  0
   19.2043   -9.6600  -18.4221 O   0  0  0  0  0  0  0  0  0  0  0  0
   21.3006   -8.8228  -18.0987 N   0  0  0  0  0  0  0  0  0  0  0  0
   20.8169   -8.0297  -16.9690 C   0  0  1  0  0  0  0  0  0  0  0  0
   21.3728   -8.5704  -15.6635 C   0  0  0  0  0  0  0  0  0  0  0  0
   20.8482   -7.8336  -14.4645 C   0  0  0  0  0  0  0  0  0  0  0  0
   21.4445   -8.4177  -13.2363 C   0  0  0  0  0  0  0  0  0  0  0  0
   22.3120   -9.3319  -13.2525 O   0  0  0  0  0  0  0  0  0  0  0  0
   21.1804   -6.5977  -17.0610 C   0  0  0  0  0  0  0  0  0  0  0  0
   22.3274   -6.2897  -17.5153 O   0  0  0  0  0  0  0  0  0  0  0  0
   21.0583   -7.9659  -11.9722 O   0  0  0  0  0  0  0  0  0  0  0  0
   20.3445   -5.5280  -16.6798 N   0  0  0  0  0  0  0  0  0  0  0  0
   20.7029   -4.1070  -16.8143 C   0  0  1  0  0  0  0  0  0  0  0  0
   19.3810   -3.3849  -16.9170 C   0  0  0  0  0  0  0  0  0  0  0  0
   19.4767   -1.9258  -17.0345 C   0  0  0  0  0  0  0  0  0  0  0  0
   20.4124   -1.3458  -17.6053 O   0  0  0  0  0  0  0  0  0  0  0  0
   21.5591   -3.6848  -15.7072 C   0  0  0  0  0  0  0  0  0  0  0  0
   22.6952   -2.9317  -15.8487 O   0  0  0  0  0  0  0  0  0  0  0  0
   18.4446   -1.1704  -16.4632 O   0  0  0  0  0  0  0  0  0  0  0  0
   21.2538   -4.0245  -14.5301 O   0  0  0  0  0  0  0  0  0  0  0  0
  2  1  1  1
  2  4  1  0
  3  2  1  0
  4  6  1  0
  4  5  1  1
  6  8  1  0
  6  7  2  0
  8  9  1  0
  9 14  1  0
  9 10  1  1
 10 11  1  0
 12 11  1  0
 12 16  1  0
 13 12  2  0
 14 15  2  0
 17 14  1  0
 17 18  1  0
 18 19  1  1
 20 19  1  0
 20 24  1  0
 21 20  2  0
 22 18  1  0
 22 23  1  0
 25 22  2  0
M  END
$$$$
