TED.pdb
     RDKit          3D

 25 24  0  0  1  0  0  0  0  0999 V2000
   18.8513  -13.4931  -15.1678 C   0  0  0  0  0  0  0  0  0  0  0  0
   19.2421  -12.0880  -15.5281 C   0  0  1  0  0  0  0  0  0  0  0  0
   20.6039  -12.0050  -15.8443 O   0  0  0  0  0  0  0  0  0  0  0  0
   18.3965  -11.4630  -16.6031 C   0  0  2  0  0  0  0  0  0  0  0  0
   18.8312  -12.1343  -17.8534 N   0  0  0  0  0  0  0  0  0  0  0  0
   18.6985  -10.0230  -16.7402 C   0  0  0  0  0  0  0  0  0  0  0  0
   19.4825   -9.6453  -17.6756 O   0  0  0  0  0  0  0  0  0  0  0  0
   18.1899   -8.9842  -15.9171 N   0  0  0  0  0  0  0  0  0  0  0  0
   18.5866   -7.5942  -16.1405 C   0  0  1  0  0  0  0  0  0  0  0  0
   17.5141   -6.6474  -15.6318 C   0  0  0  0  0  0  0  0  0  0  0  0
   17.9075   -5.2043  -15.7678 C   0  0  0  0  0  0  0  0  0  0  0  0
   16.7992   -4.3498  -15.2712 C   0  0  0  0  0  0  0  0  0  0  0  0
   16.1223   -4.6186  -14.2424 O   0  0  0  0  0  0  0  0  0  0  0  0
   19.8617   -7.2361  -15.4795 C   0  0  0  0  0  0  0  0  0  0  0  0
   20.0779   -7.6658  -14.3025 O   0  0  0  0  0  0  0  0  0  0  0  0
   16.4483   -3.1762  -15.9425 O   0  0  0  0  0  0  0  0  0  0  0  0
   20.8747   -6.4439  -16.0581 N   0  0  0  0  0  0  0  0  0  0  0  0
   22.1193   -6.0592  -15.3734 C   0  0  1  0  0  0  0  0  0  0  0  0
   23.1201   -5.8489  -16.4839 C   0  0  0  0  0  0  0  0  0  0  0  0
   24.4509   -5.4122  -16.0477 C   0  0  0  0  0  0  0  0  0  0  0  0
   24.7384   -5.1731  -14.8653 O   0  0  0  0  0  0  0  0  0  0  0  0
   21.8951   -4.9018  -14.5091 C   0  0  0  0  0  0  0  0  0  0  0  0
   21.1513   -3.8051  -14.8585 O   0  0  0  0  0  0  0  0  0  0  0  0
   25.4306   -5.2646  -17.0378 O   0  0  0  0  0  0  0  0  0  0  0  0
   22.4116   -4.8859  -13.3571 O   0  0  0  0  0  0  0  0  0  0  0  0
  2  1  1  6
  2  4  1  0
  3  2  1  0
  4  6  1  0
  4  5  1  6
  6  8  1  0
  6  7  2  0
  8  9  1  0
  9 14  1  0
  9 10  1  1
 10 11  1  0
 12 11  1  0
 12 16  1  0
 13 12  2  0
 14 15  2  0
 17 14  1  0
 17 18  1  0
 18 19  1  6
 20 19  1  0
 20 24  1  0
 21 20  2  0
 22 18  1  0
 22 23  1  0
 25 22  2  0
M  END
$$$$
