TED.pdb
     RDKit          3D

 25 24  0  0  1  0  0  0  0  0999 V2000
   25.6440  -13.7815  -17.8045 C   0  0  0  0  0  0  0  0  0  0  0  0
   24.4684  -12.8486  -17.7345 C   0  0  1  0  0  0  0  0  0  0  0  0
   23.2611  -13.5564  -17.6810 O   0  0  0  0  0  0  0  0  0  0  0  0
   24.5483  -11.8283  -16.6328 C   0  0  2  0  0  0  0  0  0  0  0  0
   24.5494  -12.6307  -15.3842 N   0  0  0  0  0  0  0  0  0  0  0  0
   23.3413  -10.9760  -16.6158 C   0  0  0  0  0  0  0  0  0  0  0  0
   23.1710  -10.1320  -17.5596 O   0  0  0  0  0  0  0  0  0  0  0  0
   22.3191  -11.0008  -15.6310 N   0  0  0  0  0  0  0  0  0  0  0  0
   21.1991  -10.0624  -15.6953 C   0  0  1  0  0  0  0  0  0  0  0  0
   19.9355  -10.7052  -15.1517 C   0  0  0  0  0  0  0  0  0  0  0  0
   19.3765  -11.7492  -16.0754 C   0  0  0  0  0  0  0  0  0  0  0  0
   18.1703  -12.3524  -15.4537 C   0  0  0  0  0  0  0  0  0  0  0  0
   16.9937  -12.0864  -15.8193 O   0  0  0  0  0  0  0  0  0  0  0  0
   21.4377   -8.8136  -14.9372 C   0  0  0  0  0  0  0  0  0  0  0  0
   21.9466   -8.8959  -13.7749 O   0  0  0  0  0  0  0  0  0  0  0  0
   18.2909  -13.2678  -14.4055 O   0  0  0  0  0  0  0  0  0  0  0  0
   21.1424   -7.5171  -15.4065 N   0  0  0  0  0  0  0  0  0  0  0  0
   21.4194   -6.2810  -14.6574 C   0  0  1  0  0  0  0  0  0  0  0  0
   22.3751   -5.5067  -15.5328 C   0  0  0  0  0  0  0  0  0  0  0  0
   22.7152   -4.1647  -15.0475 C   0  0  0  0  0  0  0  0  0  0  0  0
   22.8811   -3.8928  -13.8491 O   0  0  0  0  0  0  0  0  0  0  0  0
   20.1750   -5.5881  -14.3285 C   0  0  0  0  0  0  0  0  0  0  0  0
   20.0340   -4.6921  -13.3012 O   0  0  0  0  0  0  0  0  0  0  0  0
   22.8535   -3.1547  -16.0082 O   0  0  0  0  0  0  0  0  0  0  0  0
   19.1445   -5.8132  -15.0224 O   0  0  0  0  0  0  0  0  0  0  0  0
  2  1  1  1
  2  4  1  0
  3  2  1  0
  4  6  1  0
  4  5  1  1
  6  8  1  0
  6  7  2  0
  8  9  1  0
  9 14  1  0
  9 10  1  1
 10 11  1  0
 12 11  1  0
 12 16  1  0
 13 12  2  0
 14 15  2  0
 17 14  1  0
 17 18  1  0
 18 19  1  6
 20 19  1  0
 20 24  1  0
 21 20  2  0
 22 18  1  0
 22 23  1  0
 25 22  2  0
M  END
$$$$
