TED.pdb
     RDKit          3D

 25 24  0  0  1  0  0  0  0  0999 V2000
   27.9739  -10.4800  -15.8551 C   0  0  0  0  0  0  0  0  0  0  0  0
   27.1767  -11.6402  -16.3800 C   0  0  1  0  0  0  0  0  0  0  0  0
   27.8261  -12.8560  -16.1323 O   0  0  0  0  0  0  0  0  0  0  0  0
   25.7503  -11.6805  -15.9055 C   0  0  2  0  0  0  0  0  0  0  0  0
   25.1684  -12.8668  -16.5816 N   0  0  0  0  0  0  0  0  0  0  0  0
   25.0068  -10.4912  -16.3705 C   0  0  0  0  0  0  0  0  0  0  0  0
   24.6295  -10.4396  -17.5900 O   0  0  0  0  0  0  0  0  0  0  0  0
   24.6551   -9.3673  -15.5777 N   0  0  0  0  0  0  0  0  0  0  0  0
   23.9929   -8.2095  -16.1778 C   0  0  1  0  0  0  0  0  0  0  0  0
   23.2968   -7.3834  -15.1107 C   0  0  0  0  0  0  0  0  0  0  0  0
   22.5304   -6.2268  -15.6858 C   0  0  0  0  0  0  0  0  0  0  0  0
   21.9019   -5.4621  -14.5788 C   0  0  0  0  0  0  0  0  0  0  0  0
   22.1141   -5.7033  -13.3600 O   0  0  0  0  0  0  0  0  0  0  0  0
   24.9213   -7.3190  -16.9101 C   0  0  0  0  0  0  0  0  0  0  0  0
   26.0288   -7.0143  -16.3646 O   0  0  0  0  0  0  0  0  0  0  0  0
   21.0222   -4.4110  -14.8482 O   0  0  0  0  0  0  0  0  0  0  0  0
   24.6745   -6.7712  -18.1858 N   0  0  0  0  0  0  0  0  0  0  0  0
   25.6230   -5.9181  -18.9196 C   0  0  1  0  0  0  0  0  0  0  0  0
   25.4666   -6.3241  -20.3653 C   0  0  0  0  0  0  0  0  0  0  0  0
   26.3474   -5.6242  -21.3068 C   0  0  0  0  0  0  0  0  0  0  0  0
   27.2013   -4.7956  -20.9572 O   0  0  0  0  0  0  0  0  0  0  0  0
   25.3700   -4.5062  -18.6381 C   0  0  0  0  0  0  0  0  0  0  0  0
   26.3478   -3.5585  -18.4841 O   0  0  0  0  0  0  0  0  0  0  0  0
   26.1957   -5.9247  -22.6665 O   0  0  0  0  0  0  0  0  0  0  0  0
   24.1778   -4.1065  -18.5233 O   0  0  0  0  0  0  0  0  0  0  0  0
  2  1  1  1
  2  4  1  0
  3  2  1  0
  4  6  1  0
  4  5  1  6
  6  8  1  0
  6  7  2  0
  8  9  1  0
  9 14  1  0
  9 10  1  1
 10 11  1  0
 12 11  1  0
 12 16  1  0
 13 12  2  0
 14 15  2  0
 17 14  1  0
 17 18  1  0
 18 19  1  6
 20 19  1  0
 20 24  1  0
 21 20  2  0
 22 18  1  0
 22 23  1  0
 25 22  2  0
M  END
$$$$
