TED.pdb
     RDKit          3D

 25 24  0  0  1  0  0  0  0  0999 V2000
   19.8173  -13.5084  -15.2481 C   0  0  0  0  0  0  0  0  0  0  0  0
   19.6135  -12.0820  -15.6735 C   0  0  1  0  0  0  0  0  0  0  0  0
   20.7095  -11.6093  -16.4062 O   0  0  0  0  0  0  0  0  0  0  0  0
   18.3232  -11.8285  -16.4030 C   0  0  2  0  0  0  0  0  0  0  0  0
   18.5581  -12.3626  -17.7677 N   0  0  0  0  0  0  0  0  0  0  0  0
   18.0652  -10.3788  -16.5283 C   0  0  0  0  0  0  0  0  0  0  0  0
   18.4654   -9.7713  -17.5785 O   0  0  0  0  0  0  0  0  0  0  0  0
   17.3958   -9.5675  -15.5750 N   0  0  0  0  0  0  0  0  0  0  0  0
   17.2185   -8.1346  -15.8088 C   0  0  1  0  0  0  0  0  0  0  0  0
   15.7891   -7.7200  -15.5079 C   0  0  0  0  0  0  0  0  0  0  0  0
   14.7898   -8.4165  -16.3866 C   0  0  0  0  0  0  0  0  0  0  0  0
   13.4343   -8.2570  -15.8018 C   0  0  0  0  0  0  0  0  0  0  0  0
   12.6119   -7.3812  -16.1833 O   0  0  0  0  0  0  0  0  0  0  0  0
   18.1194   -7.2923  -14.9902 C   0  0  0  0  0  0  0  0  0  0  0  0
   18.6141   -7.7856  -13.9278 O   0  0  0  0  0  0  0  0  0  0  0  0
   12.9986   -9.0954  -14.7729 O   0  0  0  0  0  0  0  0  0  0  0  0
   18.4808   -5.9643  -15.2972 N   0  0  0  0  0  0  0  0  0  0  0  0
   19.4845   -5.1853  -14.5545 C   0  0  1  0  0  0  0  0  0  0  0  0
   20.7645   -5.9732  -14.6957 C   0  0  0  0  0  0  0  0  0  0  0  0
   21.9601   -5.3206  -14.1509 C   0  0  0  0  0  0  0  0  0  0  0  0
   21.9360   -4.2260  -13.5685 O   0  0  0  0  0  0  0  0  0  0  0  0
   19.5406   -3.8115  -15.0508 C   0  0  0  0  0  0  0  0  0  0  0  0
   20.0724   -2.7568  -14.3560 O   0  0  0  0  0  0  0  0  0  0  0  0
   23.1807   -5.9889  -14.3105 O   0  0  0  0  0  0  0  0  0  0  0  0
   19.0731   -3.5517  -16.1945 O   0  0  0  0  0  0  0  0  0  0  0  0
  2  1  1  6
  2  4  1  0
  3  2  1  0
  4  6  1  0
  4  5  1  6
  6  8  1  0
  6  7  2  0
  8  9  1  0
  9 14  1  0
  9 10  1  1
 10 11  1  0
 12 11  1  0
 12 16  1  0
 13 12  2  0
 14 15  2  0
 17 14  1  0
 17 18  1  0
 18 19  1  6
 20 19  1  0
 20 24  1  0
 21 20  2  0
 22 18  1  0
 22 23  1  0
 25 22  2  0
M  END
$$$$
