TED.pdb
     RDKit          3D

 25 24  0  0  1  0  0  0  0  0999 V2000
   18.8702   -9.9775  -19.7223 C   0  0  0  0  0  0  0  0  0  0  0  0
   19.2657  -11.2604  -19.0480 C   0  0  1  0  0  0  0  0  0  0  0  0
   19.4997  -12.2750  -19.9846 O   0  0  0  0  0  0  0  0  0  0  0  0
   20.4173  -11.1306  -18.0898 C   0  0  2  0  0  0  0  0  0  0  0  0
   20.5346  -12.4728  -17.4675 N   0  0  0  0  0  0  0  0  0  0  0  0
   20.1026  -10.1655  -17.0159 C   0  0  0  0  0  0  0  0  0  0  0  0
   19.1667  -10.4452  -16.1924 O   0  0  0  0  0  0  0  0  0  0  0  0
   20.7543   -8.9237  -16.7960 N   0  0  0  0  0  0  0  0  0  0  0  0
   20.3231   -8.0363  -15.7163 C   0  0  1  0  0  0  0  0  0  0  0  0
   21.4393   -7.0792  -15.3375 C   0  0  0  0  0  0  0  0  0  0  0  0
   21.1047   -6.2529  -14.1287 C   0  0  0  0  0  0  0  0  0  0  0  0
   22.2705   -5.3994  -13.7859 C   0  0  0  0  0  0  0  0  0  0  0  0
   23.4289   -5.5888  -14.2452 O   0  0  0  0  0  0  0  0  0  0  0  0
   19.1298   -7.2314  -16.0617 C   0  0  0  0  0  0  0  0  0  0  0  0
   19.1256   -6.5913  -17.1603 O   0  0  0  0  0  0  0  0  0  0  0  0
   22.1298   -4.3176  -12.9135 O   0  0  0  0  0  0  0  0  0  0  0  0
   17.9768   -7.1142  -15.2585 N   0  0  0  0  0  0  0  0  0  0  0  0
   16.7934   -6.3166  -15.6181 C   0  0  1  0  0  0  0  0  0  0  0  0
   15.6750   -6.8887  -14.7808 C   0  0  0  0  0  0  0  0  0  0  0  0
   14.3710   -6.2404  -14.9579 C   0  0  0  0  0  0  0  0  0  0  0  0
   14.2340   -5.0894  -15.3985 O   0  0  0  0  0  0  0  0  0  0  0  0
   17.0533   -4.8917  -15.4208 C   0  0  0  0  0  0  0  0  0  0  0  0
   17.5803   -4.3502  -14.2776 O   0  0  0  0  0  0  0  0  0  0  0  0
   13.2364   -6.9813  -14.6028 O   0  0  0  0  0  0  0  0  0  0  0  0
   16.7818   -4.0829  -16.3516 O   0  0  0  0  0  0  0  0  0  0  0  0
  2  1  1  6
  2  4  1  0
  3  2  1  0
  4  6  1  0
  4  5  1  1
  6  8  1  0
  6  7  2  0
  8  9  1  0
  9 14  1  0
  9 10  1  6
 10 11  1  0
 12 11  1  0
 12 16  1  0
 13 12  2  0
 14 15  2  0
 17 14  1  0
 17 18  1  0
 18 19  1  1
 20 19  1  0
 20 24  1  0
 21 20  2  0
 22 18  1  0
 22 23  1  0
 25 22  2  0
M  END
$$$$
