TED.pdb
     RDKit          3D

 25 24  0  0  1  0  0  0  0  0999 V2000
   15.2140   -6.8708   -7.2323 C   0  0  0  0  0  0  0  0  0  0  0  0
   14.2966   -6.8535   -8.4219 C   0  0  1  0  0  0  0  0  0  0  0  0
   14.6403   -5.8294   -9.3133 O   0  0  0  0  0  0  0  0  0  0  0  0
   14.1743   -8.1730   -9.1328 C   0  0  2  0  0  0  0  0  0  0  0  0
   14.0709   -9.1735   -8.0414 N   0  0  0  0  0  0  0  0  0  0  0  0
   15.4008   -8.4734   -9.9003 C   0  0  0  0  0  0  0  0  0  0  0  0
   16.4110   -8.9530   -9.2825 O   0  0  0  0  0  0  0  0  0  0  0  0
   15.5771   -8.2811  -11.2957 N   0  0  0  0  0  0  0  0  0  0  0  0
   16.8478   -8.6132  -11.9394 C   0  0  1  0  0  0  0  0  0  0  0  0
   16.6238   -9.5758  -13.0921 C   0  0  0  0  0  0  0  0  0  0  0  0
   17.9103  -10.0874  -13.6742 C   0  0  0  0  0  0  0  0  0  0  0  0
   17.6029  -11.0075  -14.7984 C   0  0  0  0  0  0  0  0  0  0  0  0
   17.3897  -12.2407  -14.6482 O   0  0  0  0  0  0  0  0  0  0  0  0
   17.5637   -7.4296  -12.4663 C   0  0  0  0  0  0  0  0  0  0  0  0
   16.8815   -6.4741  -12.9547 O   0  0  0  0  0  0  0  0  0  0  0  0
   17.5345  -10.5323  -16.1101 O   0  0  0  0  0  0  0  0  0  0  0  0
   18.9649   -7.2715  -12.4711 N   0  0  0  0  0  0  0  0  0  0  0  0
   19.6606   -6.0554  -12.9216 C   0  0  1  0  0  0  0  0  0  0  0  0
   21.1265   -6.3527  -12.7170 C   0  0  0  0  0  0  0  0  0  0  0  0
   22.0385   -5.2599  -13.0724 C   0  0  0  0  0  0  0  0  0  0  0  0
   23.2341   -5.4313  -13.3532 O   0  0  0  0  0  0  0  0  0  0  0  0
   19.2780   -5.7210  -14.2923 C   0  0  0  0  0  0  0  0  0  0  0  0
   19.1965   -6.6263  -15.3178 O   0  0  0  0  0  0  0  0  0  0  0  0
   21.5065   -3.9642  -13.0875 O   0  0  0  0  0  0  0  0  0  0  0  0
   18.9993   -4.5231  -14.5776 O   0  0  0  0  0  0  0  0  0  0  0  0
  2  1  1  1
  2  4  1  0
  3  2  1  0
  4  6  1  0
  4  5  1  1
  6  8  1  0
  6  7  2  0
  8  9  1  0
  9 14  1  0
  9 10  1  6
 10 11  1  0
 12 11  1  0
 12 16  1  0
 13 12  2  0
 14 15  2  0
 17 14  1  0
 17 18  1  0
 18 19  1  6
 20 19  1  0
 20 24  1  0
 21 20  2  0
 22 18  1  0
 22 23  1  0
 25 22  2  0
M  END
$$$$
