TED.pdb
     RDKit          3D

 25 24  0  0  1  0  0  0  0  0999 V2000
   13.6547  -11.4012  -13.1457 C   0  0  0  0  0  0  0  0  0  0  0  0
   14.3902  -10.3106  -12.4199 C   0  0  1  0  0  0  0  0  0  0  0  0
   13.5014   -9.3828  -11.8625 O   0  0  0  0  0  0  0  0  0  0  0  0
   15.3763  -10.8000  -11.3956 C   0  0  2  0  0  0  0  0  0  0  0  0
   14.5353  -11.3807  -10.3194 N   0  0  0  0  0  0  0  0  0  0  0  0
   16.1333   -9.6727  -10.8126 C   0  0  0  0  0  0  0  0  0  0  0  0
   15.7073   -9.1387   -9.7330 O   0  0  0  0  0  0  0  0  0  0  0  0
   17.3225   -9.1066  -11.3424 N   0  0  0  0  0  0  0  0  0  0  0  0
   17.8769   -7.8756  -10.7800 C   0  0  1  0  0  0  0  0  0  0  0  0
   19.0883   -7.4257  -11.5773 C   0  0  0  0  0  0  0  0  0  0  0  0
   19.6816   -6.1492  -11.0536 C   0  0  0  0  0  0  0  0  0  0  0  0
   20.8812   -5.8051  -11.8582 C   0  0  0  0  0  0  0  0  0  0  0  0
   21.8403   -6.6002  -12.0502 O   0  0  0  0  0  0  0  0  0  0  0  0
   16.9082   -6.7567  -10.7523 C   0  0  0  0  0  0  0  0  0  0  0  0
   16.2059   -6.5348  -11.7888 O   0  0  0  0  0  0  0  0  0  0  0  0
   21.0026   -4.5479  -12.4550 O   0  0  0  0  0  0  0  0  0  0  0  0
   16.6960   -5.9015   -9.6514 N   0  0  0  0  0  0  0  0  0  0  0  0
   15.6917   -4.8263   -9.6180 C   0  0  1  0  0  0  0  0  0  0  0  0
   15.0890   -4.9055   -8.2361 C   0  0  0  0  0  0  0  0  0  0  0  0
   14.0670   -3.8945   -7.9442 C   0  0  0  0  0  0  0  0  0  0  0  0
   13.3508   -3.3755   -8.8135 O   0  0  0  0  0  0  0  0  0  0  0  0
   16.3006   -3.5420   -9.9595 C   0  0  0  0  0  0  0  0  0  0  0  0
   15.6094   -2.4563  -10.4300 O   0  0  0  0  0  0  0  0  0  0  0  0
   13.9118   -3.5116   -6.6058 O   0  0  0  0  0  0  0  0  0  0  0  0
   17.5473   -3.3970   -9.8215 O   0  0  0  0  0  0  0  0  0  0  0  0
  2  1  1  1
  2  4  1  0
  3  2  1  0
  4  6  1  0
  4  5  1  1
  6  8  1  0
  6  7  2  0
  8  9  1  0
  9 14  1  0
  9 10  1  6
 10 11  1  0
 12 11  1  0
 12 16  1  0
 13 12  2  0
 14 15  2  0
 17 14  1  0
 17 18  1  0
 18 19  1  1
 20 19  1  0
 20 24  1  0
 21 20  2  0
 22 18  1  0
 22 23  1  0
 25 22  2  0
M  END
$$$$
