TED.pdb
     RDKit          3D

 25 24  0  0  1  0  0  0  0  0999 V2000
   24.9554  -11.2747  -14.3060 C   0  0  0  0  0  0  0  0  0  0  0  0
   23.9994  -10.3906  -15.0553 C   0  0  1  0  0  0  0  0  0  0  0  0
   24.6700   -9.6025  -15.9990 O   0  0  0  0  0  0  0  0  0  0  0  0
   22.8400  -11.1163  -15.6801 C   0  0  2  0  0  0  0  0  0  0  0  0
   23.4261  -11.8091  -16.8545 N   0  0  0  0  0  0  0  0  0  0  0  0
   21.8299  -10.1616  -16.1821 C   0  0  0  0  0  0  0  0  0  0  0  0
   21.9207   -9.7472  -17.3872 O   0  0  0  0  0  0  0  0  0  0  0  0
   20.7343   -9.6439  -15.4425 N   0  0  0  0  0  0  0  0  0  0  0  0
   19.7604   -8.7556  -16.0760 C   0  0  1  0  0  0  0  0  0  0  0  0
   18.3483   -9.2627  -15.8429 C   0  0  0  0  0  0  0  0  0  0  0  0
   18.0215  -10.4644  -16.6824 C   0  0  0  0  0  0  0  0  0  0  0  0
   16.6224  -10.8813  -16.4101 C   0  0  0  0  0  0  0  0  0  0  0  0
   15.6280  -10.4284  -17.0384 O   0  0  0  0  0  0  0  0  0  0  0  0
   19.8316   -7.3619  -15.5822 C   0  0  0  0  0  0  0  0  0  0  0  0
   20.0985   -7.1648  -14.3547 O   0  0  0  0  0  0  0  0  0  0  0  0
   16.3394  -11.8212  -15.4163 O   0  0  0  0  0  0  0  0  0  0  0  0
   19.6245   -6.2144  -16.3752 N   0  0  0  0  0  0  0  0  0  0  0  0
   19.7627   -4.8330  -15.8868 C   0  0  1  0  0  0  0  0  0  0  0  0
   20.1456   -4.0303  -17.1067 C   0  0  0  0  0  0  0  0  0  0  0  0
   20.3230   -2.5926  -16.8749 C   0  0  0  0  0  0  0  0  0  0  0  0
   20.2437   -2.0658  -15.7550 O   0  0  0  0  0  0  0  0  0  0  0  0
   18.5392   -4.3996  -15.2146 C   0  0  0  0  0  0  0  0  0  0  0  0
   18.5066   -3.5961  -14.1050 O   0  0  0  0  0  0  0  0  0  0  0  0
   20.5949   -1.7945  -17.9935 O   0  0  0  0  0  0  0  0  0  0  0  0
   17.4226   -4.7781  -15.6665 O   0  0  0  0  0  0  0  0  0  0  0  0
  2  1  1  6
  2  4  1  0
  3  2  1  0
  4  6  1  0
  4  5  1  6
  6  8  1  0
  6  7  2  0
  8  9  1  0
  9 14  1  0
  9 10  1  1
 10 11  1  0
 12 11  1  0
 12 16  1  0
 13 12  2  0
 14 15  2  0
 17 14  1  0
 17 18  1  0
 18 19  1  6
 20 19  1  0
 20 24  1  0
 21 20  2  0
 22 18  1  0
 22 23  1  0
 25 22  2  0
M  END
$$$$
