TED.pdb
     RDKit          3D

 25 24  0  0  1  0  0  0  0  0999 V2000
   17.4939   -8.8601  -18.0285 C   0  0  0  0  0  0  0  0  0  0  0  0
   17.5132  -10.3068  -17.6237 C   0  0  1  0  0  0  0  0  0  0  0  0
   16.4975  -11.0269  -18.2650 O   0  0  0  0  0  0  0  0  0  0  0  0
   18.8462  -10.9823  -17.7916 C   0  0  2  0  0  0  0  0  0  0  0  0
   18.6555  -12.3302  -17.2004 N   0  0  0  0  0  0  0  0  0  0  0  0
   19.8892  -10.2921  -17.0045 C   0  0  0  0  0  0  0  0  0  0  0  0
   19.8298  -10.3398  -15.7292 O   0  0  0  0  0  0  0  0  0  0  0  0
   20.9850   -9.5619  -17.5348 N   0  0  0  0  0  0  0  0  0  0  0  0
   21.8846   -8.8208  -16.6513 C   0  0  1  0  0  0  0  0  0  0  0  0
   23.3219   -8.9557  -17.1219 C   0  0  0  0  0  0  0  0  0  0  0  0
   23.5033   -8.5278  -18.5501 C   0  0  0  0  0  0  0  0  0  0  0  0
   24.9320   -8.6804  -18.9251 C   0  0  0  0  0  0  0  0  0  0  0  0
   25.8151   -7.8208  -18.6607 O   0  0  0  0  0  0  0  0  0  0  0  0
   21.5656   -7.3777  -16.5683 C   0  0  0  0  0  0  0  0  0  0  0  0
   21.0078   -6.8201  -17.5657 O   0  0  0  0  0  0  0  0  0  0  0  0
   25.3724   -9.8169  -19.6076 O   0  0  0  0  0  0  0  0  0  0  0  0
   21.8337   -6.5558  -15.4543 N   0  0  0  0  0  0  0  0  0  0  0  0
   21.4932   -5.1262  -15.3775 C   0  0  1  0  0  0  0  0  0  0  0  0
   20.0030   -5.0724  -15.6129 C   0  0  0  0  0  0  0  0  0  0  0  0
   19.3869   -3.7578  -15.4026 C   0  0  0  0  0  0  0  0  0  0  0  0
   19.7219   -2.7384  -16.0242 O   0  0  0  0  0  0  0  0  0  0  0  0
   21.9446   -4.5566  -14.1091 C   0  0  0  0  0  0  0  0  0  0  0  0
   22.5021   -5.2810  -13.0881 O   0  0  0  0  0  0  0  0  0  0  0  0
   18.3695   -3.6759  -14.4432 O   0  0  0  0  0  0  0  0  0  0  0  0
   21.8232   -3.3149  -13.9153 O   0  0  0  0  0  0  0  0  0  0  0  0
  2  1  1  6
  2  4  1  0
  3  2  1  0
  4  6  1  0
  4  5  1  1
  6  8  1  0
  6  7  2  0
  8  9  1  0
  9 14  1  0
  9 10  1  6
 10 11  1  0
 12 11  1  0
 12 16  1  0
 13 12  2  0
 14 15  2  0
 17 14  1  0
 17 18  1  0
 18 19  1  1
 20 19  1  0
 20 24  1  0
 21 20  2  0
 22 18  1  0
 22 23  1  0
 25 22  2  0
M  END
$$$$
