TED.pdb
     RDKit          3D

 25 24  0  0  1  0  0  0  0  0999 V2000
   17.2169   -9.4101  -17.2450 C   0  0  0  0  0  0  0  0  0  0  0  0
   16.9369  -10.6953  -16.5192 C   0  0  1  0  0  0  0  0  0  0  0  0
   15.8157  -11.3448  -17.0509 O   0  0  0  0  0  0  0  0  0  0  0  0
   18.1126  -11.6285  -16.4298 C   0  0  2  0  0  0  0  0  0  0  0  0
   17.6303  -12.7526  -15.5893 N   0  0  0  0  0  0  0  0  0  0  0  0
   19.2393  -10.9895  -15.7185 C   0  0  0  0  0  0  0  0  0  0  0  0
   19.0823  -10.6504  -14.4967 O   0  0  0  0  0  0  0  0  0  0  0  0
   20.5175  -10.7075  -16.2679 N   0  0  0  0  0  0  0  0  0  0  0  0
   21.5042   -9.9426  -15.5060 C   0  0  1  0  0  0  0  0  0  0  0  0
   22.9099  -10.2713  -15.9766 C   0  0  0  0  0  0  0  0  0  0  0  0
   23.3510  -11.6451  -15.5594 C   0  0  0  0  0  0  0  0  0  0  0  0
   24.6593  -11.9486  -16.1930 C   0  0  0  0  0  0  0  0  0  0  0  0
   24.7746  -12.5545  -17.2922 O   0  0  0  0  0  0  0  0  0  0  0  0
   21.3186   -8.4779  -15.6128 C   0  0  0  0  0  0  0  0  0  0  0  0
   21.1184   -7.9727  -16.7623 O   0  0  0  0  0  0  0  0  0  0  0  0
   25.8543  -11.5644  -15.5802 O   0  0  0  0  0  0  0  0  0  0  0  0
   21.3455   -7.5808  -14.5252 N   0  0  0  0  0  0  0  0  0  0  0  0
   21.1966   -6.1220  -14.6497 C   0  0  1  0  0  0  0  0  0  0  0  0
   19.7055   -5.8902  -14.6960 C   0  0  0  0  0  0  0  0  0  0  0  0
   19.2951   -4.4818  -14.7138 C   0  0  0  0  0  0  0  0  0  0  0  0
   19.9185   -3.5957  -15.3171 O   0  0  0  0  0  0  0  0  0  0  0  0
   21.9001   -5.4381  -13.5661 C   0  0  0  0  0  0  0  0  0  0  0  0
   22.1060   -4.0845  -13.5075 O   0  0  0  0  0  0  0  0  0  0  0  0
   18.1352   -4.1460  -14.0040 O   0  0  0  0  0  0  0  0  0  0  0  0
   22.3600   -6.1179  -12.6067 O   0  0  0  0  0  0  0  0  0  0  0  0
  2  1  1  6
  2  4  1  0
  3  2  1  0
  4  6  1  0
  4  5  1  1
  6  8  1  0
  6  7  2  0
  8  9  1  0
  9 14  1  0
  9 10  1  6
 10 11  1  0
 12 11  1  0
 12 16  1  0
 13 12  2  0
 14 15  2  0
 17 14  1  0
 17 18  1  0
 18 19  1  1
 20 19  1  0
 20 24  1  0
 21 20  2  0
 22 18  1  0
 22 23  1  0
 25 22  2  0
M  END
$$$$
