TED.pdb
     RDKit          3D

 25 24  0  0  1  0  0  0  0  0999 V2000
   17.2518  -11.1428  -20.2406 C   0  0  0  0  0  0  0  0  0  0  0  0
   17.8670  -10.5624  -18.9989 C   0  0  1  0  0  0  0  0  0  0  0  0
   17.0079  -10.6887  -17.9000 O   0  0  0  0  0  0  0  0  0  0  0  0
   19.2383  -11.0898  -18.6787 C   0  0  2  0  0  0  0  0  0  0  0  0
   19.0233  -12.5296  -18.3894 N   0  0  0  0  0  0  0  0  0  0  0  0
   19.7709  -10.4617  -17.4518 C   0  0  0  0  0  0  0  0  0  0  0  0
   19.1416  -10.6283  -16.3525 O   0  0  0  0  0  0  0  0  0  0  0  0
   20.9467   -9.6710  -17.3649 N   0  0  0  0  0  0  0  0  0  0  0  0
   21.4026   -9.1520  -16.0757 C   0  0  1  0  0  0  0  0  0  0  0  0
   22.7851   -9.6867  -15.7467 C   0  0  0  0  0  0  0  0  0  0  0  0
   23.7842   -9.4092  -16.8332 C   0  0  0  0  0  0  0  0  0  0  0  0
   25.0851  -10.0236  -16.4655 C   0  0  0  0  0  0  0  0  0  0  0  0
   26.1375   -9.8802  -17.1442 O   0  0  0  0  0  0  0  0  0  0  0  0
   21.4623   -7.6737  -16.0280 C   0  0  0  0  0  0  0  0  0  0  0  0
   21.7497   -7.0422  -17.0936 O   0  0  0  0  0  0  0  0  0  0  0  0
   25.2025  -10.8105  -15.3174 O   0  0  0  0  0  0  0  0  0  0  0  0
   21.2219   -6.8942  -14.8778 N   0  0  0  0  0  0  0  0  0  0  0  0
   21.2249   -5.4227  -14.8579 C   0  0  1  0  0  0  0  0  0  0  0  0
   19.8113   -5.0401  -14.4912 C   0  0  0  0  0  0  0  0  0  0  0  0
   19.5759   -3.6000  -14.3399 C   0  0  0  0  0  0  0  0  0  0  0  0
   20.4380   -2.7386  -14.5691 O   0  0  0  0  0  0  0  0  0  0  0  0
   22.2600   -4.9219  -13.9553 C   0  0  0  0  0  0  0  0  0  0  0  0
   22.8720   -3.7019  -14.0776 O   0  0  0  0  0  0  0  0  0  0  0  0
   18.3025   -3.2029  -13.9121 O   0  0  0  0  0  0  0  0  0  0  0  0
   22.6346   -5.6435  -12.9893 O   0  0  0  0  0  0  0  0  0  0  0  0
  2  1  1  6
  2  4  1  0
  3  2  1  0
  4  6  1  0
  4  5  1  1
  6  8  1  0
  6  7  2  0
  8  9  1  0
  9 14  1  0
  9 10  1  6
 10 11  1  0
 12 11  1  0
 12 16  1  0
 13 12  2  0
 14 15  2  0
 17 14  1  0
 17 18  1  0
 18 19  1  1
 20 19  1  0
 20 24  1  0
 21 20  2  0
 22 18  1  0
 22 23  1  0
 25 22  2  0
M  END
$$$$
