TED.pdb
     RDKit          3D

 25 24  0  0  1  0  0  0  0  0999 V2000
   16.7304  -10.2865  -19.3505 C   0  0  0  0  0  0  0  0  0  0  0  0
   17.7963   -9.7867  -18.4171 C   0  0  1  0  0  0  0  0  0  0  0  0
   17.3031   -8.7826  -17.5744 O   0  0  0  0  0  0  0  0  0  0  0  0
   18.4891  -10.8641  -17.6296 C   0  0  2  0  0  0  0  0  0  0  0  0
   17.4422  -11.3868  -16.7165 N   0  0  0  0  0  0  0  0  0  0  0  0
   19.5675  -10.2954  -16.7946 C   0  0  0  0  0  0  0  0  0  0  0  0
   19.2746   -9.8416  -15.6368 O   0  0  0  0  0  0  0  0  0  0  0  0
   20.9372  -10.2009  -17.1556 N   0  0  0  0  0  0  0  0  0  0  0  0
   21.9181   -9.6496  -16.2212 C   0  0  1  0  0  0  0  0  0  0  0  0
   23.2984  -10.2151  -16.5049 C   0  0  0  0  0  0  0  0  0  0  0  0
   23.4235  -11.6576  -16.1057 C   0  0  0  0  0  0  0  0  0  0  0  0
   24.7666  -12.1553  -16.4975 C   0  0  0  0  0  0  0  0  0  0  0  0
   24.9683  -12.8969  -17.4966 O   0  0  0  0  0  0  0  0  0  0  0  0
   22.0108   -8.1731  -16.2737 C   0  0  0  0  0  0  0  0  0  0  0  0
   21.9136   -7.5977  -17.4035 O   0  0  0  0  0  0  0  0  0  0  0  0
   25.8984  -11.8131  -15.7538 O   0  0  0  0  0  0  0  0  0  0  0  0
   22.2010   -7.3373  -15.1541 N   0  0  0  0  0  0  0  0  0  0  0  0
   22.1614   -5.8669  -15.2007 C   0  0  1  0  0  0  0  0  0  0  0  0
   20.7662   -5.5344  -15.6721 C   0  0  0  0  0  0  0  0  0  0  0  0
   20.4087   -4.1133  -15.6039 C   0  0  0  0  0  0  0  0  0  0  0  0
   19.4887   -3.6729  -14.8986 O   0  0  0  0  0  0  0  0  0  0  0  0
   22.5330   -5.3003  -13.9055 C   0  0  0  0  0  0  0  0  0  0  0  0
   22.9025   -3.9958  -13.7065 O   0  0  0  0  0  0  0  0  0  0  0  0
   21.1607   -3.2277  -16.3865 O   0  0  0  0  0  0  0  0  0  0  0  0
   22.5219   -6.0425  -12.8841 O   0  0  0  0  0  0  0  0  0  0  0  0
  2  1  1  1
  2  4  1  0
  3  2  1  0
  4  6  1  0
  4  5  1  1
  6  8  1  0
  6  7  2  0
  8  9  1  0
  9 14  1  0
  9 10  1  6
 10 11  1  0
 12 11  1  0
 12 16  1  0
 13 12  2  0
 14 15  2  0
 17 14  1  0
 17 18  1  0
 18 19  1  1
 20 19  1  0
 20 24  1  0
 21 20  2  0
 22 18  1  0
 22 23  1  0
 25 22  2  0
M  END
$$$$
