VEI.pdb
     RDKit          3D

 25 24  0  0  1  0  0  0  0  0999 V2000
    8.1970  -12.9978   17.5120 C   0  0  0  0  0  0  0  0  0  0  0  0
    7.8724  -13.6937   18.7946 C   0  0  2  0  0  0  0  0  0  0  0  0
    6.8155  -12.9038   19.5491 C   0  0  0  0  0  0  0  0  0  0  0  0
    9.0727  -13.8713   19.6990 C   0  0  2  0  0  0  0  0  0  0  0  0
   10.0998  -14.5264   18.9266 N   0  0  0  0  0  0  0  0  0  0  0  0
    8.7530  -14.6712   20.9059 C   0  0  0  0  0  0  0  0  0  0  0  0
    7.8146  -14.3471   21.6706 O   0  0  0  0  0  0  0  0  0  0  0  0
    9.5073  -15.8271   21.2220 N   0  0  0  0  0  0  0  0  0  0  0  0
    9.2902  -16.6335   22.4054 C   0  0  1  0  0  0  0  0  0  0  0  0
   10.0825  -17.9110   22.3090 C   0  0  0  0  0  0  0  0  0  0  0  0
   10.0705  -18.7003   23.5917 C   0  0  0  0  0  0  0  0  0  0  0  0
   10.8628  -19.9386   23.3734 C   0  0  0  0  0  0  0  0  0  0  0  0
   12.0637  -19.9930   23.7632 O   0  0  0  0  0  0  0  0  0  0  0  0
    9.5617  -15.8589   23.6154 C   0  0  0  0  0  0  0  0  0  0  0  0
   10.7100  -15.4264   23.8477 O   0  0  0  0  0  0  0  0  0  0  0  0
   10.3347  -21.0600   22.7491 O   0  0  0  0  0  0  0  0  0  0  0  0
    6.9778  -11.6413   27.0606 C   0  0  0  0  0  0  0  0  0  0  0  0
    7.9205  -12.8200   26.9676 C   0  0  0  0  0  0  0  0  0  0  0  0
    7.6246  -13.6752   25.7550 C   0  0  2  0  0  0  0  0  0  0  0  0
    6.2828  -14.3459   25.8473 C   0  0  0  0  0  0  0  0  0  0  0  0
    8.6911  -14.7567   25.7078 C   0  0  2  0  0  0  0  0  0  0  0  0
    8.5204  -15.5940   24.5338 N   0  0  0  0  0  0  0  0  0  0  0  0
    8.6677  -15.5537   26.9552 C   0  0  0  0  0  0  0  0  0  0  0  0
    9.2304  -15.1293   28.1408 O   0  0  0  0  0  0  0  0  0  0  0  0
    8.1068  -16.6727   26.9310 O   0  0  0  0  0  0  0  0  0  0  0  0
  2  1  1  6
  2  3  1  0
  4  5  1  6
  4  2  1  0
  6  4  1  0
  7  6  2  0
  8  6  1  0
  9 14  1  0
  9  8  1  0
  9 10  1  6
 11 10  1  0
 12 11  1  0
 13 12  2  0
 14 15  2  0
 16 12  1  0
 17 18  1  0
 19 18  1  0
 19 20  1  1
 21 19  1  0
 21 22  1  6
 22 14  1  0
 23 21  1  0
 24 23  1  0
 25 23  2  0
M  END
$$$$
