VEI.pdb
     RDKit          3D

 25 24  0  0  1  0  0  0  0  0999 V2000
    7.6669  -12.7626   18.1893 C   0  0  0  0  0  0  0  0  0  0  0  0
    7.6249  -13.4366   19.5230 C   0  0  2  0  0  0  0  0  0  0  0  0
    8.4535  -12.6437   20.5205 C   0  0  0  0  0  0  0  0  0  0  0  0
    8.1453  -14.8573   19.4917 C   0  0  2  0  0  0  0  0  0  0  0  0
    7.3070  -15.6024   18.5846 N   0  0  0  0  0  0  0  0  0  0  0  0
    8.1340  -15.4890   20.8331 C   0  0  0  0  0  0  0  0  0  0  0  0
    7.0642  -15.6559   21.4640 O   0  0  0  0  0  0  0  0  0  0  0  0
    9.3415  -15.9204   21.4340 N   0  0  0  0  0  0  0  0  0  0  0  0
    9.4199  -16.5099   22.7546 C   0  0  1  0  0  0  0  0  0  0  0  0
   10.5335  -17.5232   22.7995 C   0  0  0  0  0  0  0  0  0  0  0  0
   10.7110  -18.1312   24.1661 C   0  0  0  0  0  0  0  0  0  0  0  0
   11.8145  -19.1233   24.0847 C   0  0  0  0  0  0  0  0  0  0  0  0
   12.9385  -18.8563   24.5971 O   0  0  0  0  0  0  0  0  0  0  0  0
    9.5232  -15.4715   23.7787 C   0  0  0  0  0  0  0  0  0  0  0  0
   10.4618  -14.6480   23.7550 O   0  0  0  0  0  0  0  0  0  0  0  0
   11.6651  -20.3536   23.4600 O   0  0  0  0  0  0  0  0  0  0  0  0
    6.6522  -11.2401   26.6632 C   0  0  0  0  0  0  0  0  0  0  0  0
    7.6137  -12.3951   26.8312 C   0  0  0  0  0  0  0  0  0  0  0  0
    7.4450  -13.4239   25.7347 C   0  0  2  0  0  0  0  0  0  0  0  0
    6.1630  -14.1960   25.8733 C   0  0  0  0  0  0  0  0  0  0  0  0
    8.6015  -14.4010   25.8657 C   0  0  2  0  0  0  0  0  0  0  0  0
    8.5563  -15.3936   24.8067 N   0  0  0  0  0  0  0  0  0  0  0  0
    8.5905  -15.0308   27.2054 C   0  0  0  0  0  0  0  0  0  0  0  0
    8.4054  -16.3821   27.4102 O   0  0  0  0  0  0  0  0  0  0  0  0
    8.7584  -14.2961   28.2051 O   0  0  0  0  0  0  0  0  0  0  0  0
  2  1  1  6
  2  3  1  0
  4  5  1  6
  4  2  1  0
  6  4  1  0
  7  6  2  0
  8  6  1  0
  9 14  1  0
  9  8  1  0
  9 10  1  6
 11 10  1  0
 12 11  1  0
 13 12  2  0
 14 15  2  0
 16 12  1  0
 17 18  1  0
 19 18  1  0
 19 20  1  1
 21 19  1  0
 21 22  1  6
 22 14  1  0
 23 21  1  0
 24 23  1  0
 25 23  2  0
M  END
$$$$
