VEI.pdb
     RDKit          3D

 25 24  0  0  1  0  0  0  0  0999 V2000
    9.2341  -12.4319   20.0727 C   0  0  0  0  0  0  0  0  0  0  0  0
    8.1509  -13.1575   19.3412 C   0  0  2  0  0  0  0  0  0  0  0  0
    6.8319  -12.9766   20.0746 C   0  0  0  0  0  0  0  0  0  0  0  0
    8.4172  -14.6400   19.1952 C   0  0  2  0  0  0  0  0  0  0  0  0
    7.3764  -15.1833   18.3573 N   0  0  0  0  0  0  0  0  0  0  0  0
    8.4366  -15.3385   20.5030 C   0  0  0  0  0  0  0  0  0  0  0  0
    7.3740  -15.6405   21.0945 O   0  0  0  0  0  0  0  0  0  0  0  0
    9.6663  -15.6816   21.1158 N   0  0  0  0  0  0  0  0  0  0  0  0
    9.7704  -16.3848   22.3776 C   0  0  1  0  0  0  0  0  0  0  0  0
   10.9188  -17.3584   22.3299 C   0  0  0  0  0  0  0  0  0  0  0  0
   11.1306  -18.0716   23.6395 C   0  0  0  0  0  0  0  0  0  0  0  0
   12.3523  -18.9081   23.5117 C   0  0  0  0  0  0  0  0  0  0  0  0
   13.4791  -18.4257   23.8195 O   0  0  0  0  0  0  0  0  0  0  0  0
    9.8415  -15.4402   23.4913 C   0  0  0  0  0  0  0  0  0  0  0  0
   10.7142  -14.5471   23.5111 O   0  0  0  0  0  0  0  0  0  0  0  0
   12.3124  -20.2202   23.0610 O   0  0  0  0  0  0  0  0  0  0  0  0
    6.8375  -11.7804   27.0053 C   0  0  0  0  0  0  0  0  0  0  0  0
    7.9467  -12.8048   26.9216 C   0  0  0  0  0  0  0  0  0  0  0  0
    7.7762  -13.7133   25.7236 C   0  0  2  0  0  0  0  0  0  0  0  0
    6.5179  -14.5309   25.8059 C   0  0  0  0  0  0  0  0  0  0  0  0
    8.9597  -14.6665   25.7218 C   0  0  2  0  0  0  0  0  0  0  0  0
    8.9181  -15.5331   24.5574 N   0  0  0  0  0  0  0  0  0  0  0  0
    8.9925  -15.4446   26.9808 C   0  0  0  0  0  0  0  0  0  0  0  0
    9.4192  -14.9261   28.1856 O   0  0  0  0  0  0  0  0  0  0  0  0
    8.6124  -16.6370   26.9486 O   0  0  0  0  0  0  0  0  0  0  0  0
  2  1  1  1
  2  3  1  0
  4  5  1  6
  4  2  1  0
  6  4  1  0
  7  6  2  0
  8  6  1  0
  9 14  1  0
  9  8  1  0
  9 10  1  6
 11 10  1  0
 12 11  1  0
 13 12  2  0
 14 15  2  0
 16 12  1  0
 17 18  1  0
 19 18  1  0
 19 20  1  1
 21 19  1  0
 21 22  1  6
 22 14  1  0
 23 21  1  0
 24 23  1  0
 25 23  2  0
M  END
$$$$
