VEI.pdb
     RDKit          3D

 25 24  0  0  1  0  0  0  0  0999 V2000
    7.5705  -12.5530   20.7279 C   0  0  0  0  0  0  0  0  0  0  0  0
    8.4291  -13.3267   19.7796 C   0  0  2  0  0  0  0  0  0  0  0  0
    8.2360  -12.7953   18.3687 C   0  0  0  0  0  0  0  0  0  0  0  0
    8.1303  -14.8102   19.7767 C   0  0  2  0  0  0  0  0  0  0  0  0
    6.8320  -14.9861   19.1732 N   0  0  0  0  0  0  0  0  0  0  0  0
    8.1412  -15.3878   21.1422 C   0  0  0  0  0  0  0  0  0  0  0  0
    7.1186  -15.3642   21.8662 O   0  0  0  0  0  0  0  0  0  0  0  0
    9.3168  -15.9830   21.6609 N   0  0  0  0  0  0  0  0  0  0  0  0
    9.3827  -16.6563   22.9415 C   0  0  1  0  0  0  0  0  0  0  0  0
   10.3154  -17.8359   22.8543 C   0  0  0  0  0  0  0  0  0  0  0  0
   10.4690  -18.5536   24.1695 C   0  0  0  0  0  0  0  0  0  0  0  0
   11.4824  -19.6256   23.9892 C   0  0  0  0  0  0  0  0  0  0  0  0
   12.3502  -19.5227   23.0763 O   0  0  0  0  0  0  0  0  0  0  0  0
    9.7212  -15.7119   24.0051 C   0  0  0  0  0  0  0  0  0  0  0  0
   10.7115  -14.9591   23.8938 O   0  0  0  0  0  0  0  0  0  0  0  0
   11.5207  -20.7567   24.7926 O   0  0  0  0  0  0  0  0  0  0  0  0
    6.3803  -12.3813   25.9315 C   0  0  0  0  0  0  0  0  0  0  0  0
    7.6285  -13.1724   25.6110 C   0  0  0  0  0  0  0  0  0  0  0  0
    8.0657  -14.0220   26.7843 C   0  0  2  0  0  0  0  0  0  0  0  0
    8.4866  -13.1891   27.9624 C   0  0  0  0  0  0  0  0  0  0  0  0
    9.2684  -14.8272   26.3210 C   0  0  2  0  0  0  0  0  0  0  0  0
    8.9254  -15.6452   25.1713 N   0  0  0  0  0  0  0  0  0  0  0  0
    9.7968  -15.6457   27.4356 C   0  0  0  0  0  0  0  0  0  0  0  0
   10.7292  -15.1866   28.3424 O   0  0  0  0  0  0  0  0  0  0  0  0
    9.3737  -16.8174   27.5605 O   0  0  0  0  0  0  0  0  0  0  0  0
  2  1  1  1
  2  3  1  0
  4  5  1  1
  4  2  1  0
  6  4  1  0
  7  6  2  0
  8  6  1  0
  9 14  1  0
  9  8  1  0
  9 10  1  6
 11 10  1  0
 12 11  1  0
 13 12  2  0
 14 15  2  0
 16 12  1  0
 17 18  1  0
 19 18  1  0
 19 20  1  1
 21 19  1  0
 21 22  1  6
 22 14  1  0
 23 21  1  0
 24 23  1  0
 25 23  2  0
M  END
$$$$
