VEI.pdb
     RDKit          3D

 25 24  0  0  1  0  0  0  0  0999 V2000
    6.8205  -14.6772   18.9783 C   0  0  0  0  0  0  0  0  0  0  0  0
    7.3502  -13.3629   19.4546 C   0  0  2  0  0  0  0  0  0  0  0  0
    7.5618  -12.4386   18.2667 C   0  0  0  0  0  0  0  0  0  0  0  0
    8.6582  -13.4822   20.2063 C   0  0  2  0  0  0  0  0  0  0  0  0
    9.6201  -14.0679   19.3051 N   0  0  0  0  0  0  0  0  0  0  0  0
    8.5302  -14.3136   21.4274 C   0  0  0  0  0  0  0  0  0  0  0  0
    7.6746  -14.0523   22.3049 O   0  0  0  0  0  0  0  0  0  0  0  0
    9.3789  -15.4291   21.6290 N   0  0  0  0  0  0  0  0  0  0  0  0
    9.3255  -16.2827   22.7978 C   0  0  1  0  0  0  0  0  0  0  0  0
   10.1579  -17.5174   22.5706 C   0  0  0  0  0  0  0  0  0  0  0  0
   10.1897  -18.4257   23.7717 C   0  0  0  0  0  0  0  0  0  0  0  0
   10.3646  -19.8193   23.2859 C   0  0  0  0  0  0  0  0  0  0  0  0
   11.1401  -20.0539   22.3160 O   0  0  0  0  0  0  0  0  0  0  0  0
    9.6911  -15.5358   24.0003 C   0  0  0  0  0  0  0  0  0  0  0  0
   10.7698  -14.9088   24.0544 O   0  0  0  0  0  0  0  0  0  0  0  0
    9.7028  -20.8962   23.8591 O   0  0  0  0  0  0  0  0  0  0  0  0
    6.2730  -12.2625   25.8167 C   0  0  0  0  0  0  0  0  0  0  0  0
    7.5311  -13.0605   25.5578 C   0  0  0  0  0  0  0  0  0  0  0  0
    7.8791  -13.9480   26.7328 C   0  0  2  0  0  0  0  0  0  0  0  0
    8.2395  -13.1539   27.9567 C   0  0  0  0  0  0  0  0  0  0  0  0
    9.0943  -14.7637   26.3239 C   0  0  2  0  0  0  0  0  0  0  0  0
    8.8211  -15.5192   25.1142 N   0  0  0  0  0  0  0  0  0  0  0  0
    9.5163  -15.6461   27.4352 C   0  0  0  0  0  0  0  0  0  0  0  0
    9.4267  -17.0218   27.3914 O   0  0  0  0  0  0  0  0  0  0  0  0
    9.9791  -15.1137   28.4694 O   0  0  0  0  0  0  0  0  0  0  0  0
  2  1  1  6
  2  3  1  0
  4  5  1  6
  4  2  1  0
  6  4  1  0
  7  6  2  0
  8  6  1  0
  9 14  1  0
  9  8  1  0
  9 10  1  6
 11 10  1  0
 12 11  1  0
 13 12  2  0
 14 15  2  0
 16 12  1  0
 17 18  1  0
 19 18  1  0
 19 20  1  1
 21 19  1  0
 21 22  1  6
 22 14  1  0
 23 21  1  0
 24 23  1  0
 25 23  2  0
M  END
$$$$
