VEI.pdb
     RDKit          3D

 25 24  0  0  1  0  0  0  0  0999 V2000
    7.2621  -12.7165   20.7477 C   0  0  0  0  0  0  0  0  0  0  0  0
    8.3568  -13.2290   19.8681 C   0  0  2  0  0  0  0  0  0  0  0  0
    8.2359  -12.6035   18.4880 C   0  0  0  0  0  0  0  0  0  0  0  0
    8.3445  -14.7343   19.7133 C   0  0  2  0  0  0  0  0  0  0  0  0
    7.1743  -15.0778   18.9430 N   0  0  0  0  0  0  0  0  0  0  0  0
    8.3183  -15.4330   21.0209 C   0  0  0  0  0  0  0  0  0  0  0  0
    7.2376  -15.6724   21.6084 O   0  0  0  0  0  0  0  0  0  0  0  0
    9.5235  -15.8476   21.6380 N   0  0  0  0  0  0  0  0  0  0  0  0
    9.5833  -16.5301   22.9140 C   0  0  1  0  0  0  0  0  0  0  0  0
   10.5691  -17.6668   22.8429 C   0  0  0  0  0  0  0  0  0  0  0  0
   10.6039  -18.4856   24.1065 C   0  0  0  0  0  0  0  0  0  0  0  0
   11.6210  -19.5547   23.9301 C   0  0  0  0  0  0  0  0  0  0  0  0
   11.6469  -20.2269   22.8602 O   0  0  0  0  0  0  0  0  0  0  0  0
    9.8501  -15.5824   23.9949 C   0  0  0  0  0  0  0  0  0  0  0  0
   10.7755  -14.7497   23.8948 O   0  0  0  0  0  0  0  0  0  0  0  0
   12.5622  -19.8552   24.9049 O   0  0  0  0  0  0  0  0  0  0  0  0
    6.2272  -12.5518   25.7933 C   0  0  0  0  0  0  0  0  0  0  0  0
    7.5278  -13.2683   25.5082 C   0  0  0  0  0  0  0  0  0  0  0  0
    8.0230  -14.0266   26.7203 C   0  0  2  0  0  0  0  0  0  0  0  0
    8.3485  -13.1122   27.8678 C   0  0  0  0  0  0  0  0  0  0  0  0
    9.3009  -14.7360   26.3043 C   0  0  2  0  0  0  0  0  0  0  0  0
    9.0579  -15.6035   25.1653 N   0  0  0  0  0  0  0  0  0  0  0  0
    9.8675  -15.4839   27.4494 C   0  0  0  0  0  0  0  0  0  0  0  0
   10.6700  -14.9088   28.4125 O   0  0  0  0  0  0  0  0  0  0  0  0
    9.6032  -16.7037   27.5474 O   0  0  0  0  0  0  0  0  0  0  0  0
  2  1  1  1
  2  3  1  0
  4  5  1  6
  4  2  1  0
  6  4  1  0
  7  6  2  0
  8  6  1  0
  9 14  1  0
  9  8  1  0
  9 10  1  6
 11 10  1  0
 12 11  1  0
 13 12  2  0
 14 15  2  0
 16 12  1  0
 17 18  1  0
 19 18  1  0
 19 20  1  1
 21 19  1  0
 21 22  1  6
 22 14  1  0
 23 21  1  0
 24 23  1  0
 25 23  2  0
M  END
$$$$
