VEI.pdb
     RDKit          3D

 25 24  0  0  1  0  0  0  0  0999 V2000
    7.3606  -12.6118   18.9759 C   0  0  0  0  0  0  0  0  0  0  0  0
    7.4946  -13.3508   20.2685 C   0  0  2  0  0  0  0  0  0  0  0  0
    8.5293  -12.6623   21.1436 C   0  0  0  0  0  0  0  0  0  0  0  0
    7.9047  -14.7966   20.0911 C   0  0  2  0  0  0  0  0  0  0  0  0
    6.8768  -15.4425   19.3120 N   0  0  0  0  0  0  0  0  0  0  0  0
    8.0769  -15.4946   21.3879 C   0  0  0  0  0  0  0  0  0  0  0  0
    7.0957  -15.7484   22.1249 O   0  0  0  0  0  0  0  0  0  0  0  0
    9.3642  -15.8921   21.8242 N   0  0  0  0  0  0  0  0  0  0  0  0
    9.6179  -16.5644   23.0816 C   0  0  1  0  0  0  0  0  0  0  0  0
   10.7318  -17.5644   22.9139 C   0  0  0  0  0  0  0  0  0  0  0  0
   11.0007  -18.3508   24.1700 C   0  0  0  0  0  0  0  0  0  0  0  0
   12.1763  -19.2247   23.9189 C   0  0  0  0  0  0  0  0  0  0  0  0
   12.0023  -20.4318   23.5872 O   0  0  0  0  0  0  0  0  0  0  0  0
    9.8508  -15.5930   24.1492 C   0  0  0  0  0  0  0  0  0  0  0  0
   10.8120  -14.7981   24.0853 O   0  0  0  0  0  0  0  0  0  0  0  0
   13.4818  -18.7679   24.0339 O   0  0  0  0  0  0  0  0  0  0  0  0
    6.4196  -12.2540   25.5122 C   0  0  0  0  0  0  0  0  0  0  0  0
    7.6681  -13.0975   25.3852 C   0  0  0  0  0  0  0  0  0  0  0  0
    7.9861  -13.8194   26.6764 C   0  0  2  0  0  0  0  0  0  0  0  0
    8.3196  -12.8681   27.7910 C   0  0  0  0  0  0  0  0  0  0  0  0
    9.2085  -14.6817   26.4094 C   0  0  2  0  0  0  0  0  0  0  0  0
    8.9848  -15.5478   25.2654 N   0  0  0  0  0  0  0  0  0  0  0  0
    9.5629  -15.4566   27.6200 C   0  0  0  0  0  0  0  0  0  0  0  0
    9.4458  -16.8281   27.7077 O   0  0  0  0  0  0  0  0  0  0  0  0
    9.9917  -14.8322   28.6168 O   0  0  0  0  0  0  0  0  0  0  0  0
  2  1  1  6
  2  3  1  0
  4  5  1  6
  4  2  1  0
  6  4  1  0
  7  6  2  0
  8  6  1  0
  9 14  1  0
  9  8  1  0
  9 10  1  6
 11 10  1  0
 12 11  1  0
 13 12  2  0
 14 15  2  0
 16 12  1  0
 17 18  1  0
 19 18  1  0
 19 20  1  1
 21 19  1  0
 21 22  1  6
 22 14  1  0
 23 21  1  0
 24 23  1  0
 25 23  2  0
M  END
$$$$
