VEI.pdb
     RDKit          3D

 25 24  0  0  1  0  0  0  0  0999 V2000
    7.0831  -12.8376   20.2833 C   0  0  0  0  0  0  0  0  0  0  0  0
    8.3827  -13.2083   19.6441 C   0  0  2  0  0  0  0  0  0  0  0  0
    8.4894  -12.5400   18.2831 C   0  0  0  0  0  0  0  0  0  0  0  0
    8.5538  -14.7004   19.4587 C   0  0  2  0  0  0  0  0  0  0  0  0
    7.5949  -15.1232   18.4675 N   0  0  0  0  0  0  0  0  0  0  0  0
    8.3477  -15.4504   20.7211 C   0  0  0  0  0  0  0  0  0  0  0  0
    7.2025  -15.8023   21.0885 O   0  0  0  0  0  0  0  0  0  0  0  0
    9.4495  -15.7872   21.5444 N   0  0  0  0  0  0  0  0  0  0  0  0
    9.3260  -16.4504   22.8260 C   0  0  1  0  0  0  0  0  0  0  0  0
   10.1393  -17.7183   22.8288 C   0  0  0  0  0  0  0  0  0  0  0  0
    9.7670  -18.6498   21.7054 C   0  0  0  0  0  0  0  0  0  0  0  0
    9.4058  -19.9625   22.3013 C   0  0  0  0  0  0  0  0  0  0  0  0
    9.9205  -20.3167   23.3999 O   0  0  0  0  0  0  0  0  0  0  0  0
    9.6558  -15.5336   23.9161 C   0  0  0  0  0  0  0  0  0  0  0  0
   10.7318  -14.8998   23.9086 O   0  0  0  0  0  0  0  0  0  0  0  0
    8.5120  -20.8346   21.6956 O   0  0  0  0  0  0  0  0  0  0  0  0
    5.6941  -12.9255   26.9175 C   0  0  0  0  0  0  0  0  0  0  0  0
    6.7132  -13.9880   26.5724 C   0  0  0  0  0  0  0  0  0  0  0  0
    8.0622  -13.3823   26.2518 C   0  0  2  0  0  0  0  0  0  0  0  0
    8.0583  -12.6510   24.9388 C   0  0  0  0  0  0  0  0  0  0  0  0
    9.0485  -14.5337   26.1484 C   0  0  2  0  0  0  0  0  0  0  0  0
    8.7537  -15.3587   24.9902 N   0  0  0  0  0  0  0  0  0  0  0  0
    9.0436  -15.3262   27.3988 C   0  0  0  0  0  0  0  0  0  0  0  0
    9.5347  -14.8574   28.5995 O   0  0  0  0  0  0  0  0  0  0  0  0
    8.5678  -16.4836   27.3630 O   0  0  0  0  0  0  0  0  0  0  0  0
  2  1  1  6
  2  3  1  0
  4  5  1  6
  4  2  1  0
  6  4  1  0
  7  6  2  0
  8  6  1  0
  9 14  1  0
  9  8  1  0
  9 10  1  6
 11 10  1  0
 12 11  1  0
 13 12  2  0
 14 15  2  0
 16 12  1  0
 17 18  1  0
 19 18  1  0
 19 20  1  6
 21 19  1  0
 21 22  1  6
 22 14  1  0
 23 21  1  0
 24 23  1  0
 25 23  2  0
M  END
$$$$
