VEI.pdb
     RDKit          3D

 25 24  0  0  1  0  0  0  0  0999 V2000
    7.5903  -12.7059   18.6250 C   0  0  0  0  0  0  0  0  0  0  0  0
    7.6586  -13.3780   19.9586 C   0  0  2  0  0  0  0  0  0  0  0  0
    8.5771  -12.5908   20.8789 C   0  0  0  0  0  0  0  0  0  0  0  0
    8.1626  -14.8030   19.8850 C   0  0  2  0  0  0  0  0  0  0  0  0
    7.3007  -15.5175   18.9754 N   0  0  0  0  0  0  0  0  0  0  0  0
    8.1672  -15.4661   21.2112 C   0  0  0  0  0  0  0  0  0  0  0  0
    7.0988  -15.7178   21.8158 O   0  0  0  0  0  0  0  0  0  0  0  0
    9.3887  -15.8317   21.8272 N   0  0  0  0  0  0  0  0  0  0  0  0
    9.4773  -16.5096   23.1040 C   0  0  1  0  0  0  0  0  0  0  0  0
   10.4291  -17.6727   23.0030 C   0  0  0  0  0  0  0  0  0  0  0  0
   10.5611  -18.4296   24.2985 C   0  0  0  0  0  0  0  0  0  0  0  0
   11.6241  -19.4533   24.1231 C   0  0  0  0  0  0  0  0  0  0  0  0
   12.7696  -19.2613   24.6212 O   0  0  0  0  0  0  0  0  0  0  0  0
    9.8090  -15.5645   24.1690 C   0  0  0  0  0  0  0  0  0  0  0  0
   10.8564  -14.8867   24.1124 O   0  0  0  0  0  0  0  0  0  0  0  0
   11.4130  -20.6336   23.4241 O   0  0  0  0  0  0  0  0  0  0  0  0
    6.3490  -12.2064   25.9828 C   0  0  0  0  0  0  0  0  0  0  0  0
    7.5859  -13.0183   25.6706 C   0  0  0  0  0  0  0  0  0  0  0  0
    8.0648  -13.7907   26.8803 C   0  0  2  0  0  0  0  0  0  0  0  0
    8.4998  -12.8837   27.9970 C   0  0  0  0  0  0  0  0  0  0  0  0
    9.2692  -14.6036   26.4354 C   0  0  2  0  0  0  0  0  0  0  0  0
    8.9414  -15.4119   25.2744 N   0  0  0  0  0  0  0  0  0  0  0  0
    9.7690  -15.4332   27.5550 C   0  0  0  0  0  0  0  0  0  0  0  0
   10.6588  -14.9753   28.5042 O   0  0  0  0  0  0  0  0  0  0  0  0
    9.3612  -16.6136   27.6437 O   0  0  0  0  0  0  0  0  0  0  0  0
  2  1  1  6
  2  3  1  0
  4  5  1  6
  4  2  1  0
  6  4  1  0
  7  6  2  0
  8  6  1  0
  9 14  1  0
  9  8  1  0
  9 10  1  6
 11 10  1  0
 12 11  1  0
 13 12  2  0
 14 15  2  0
 16 12  1  0
 17 18  1  0
 19 18  1  0
 19 20  1  1
 21 19  1  0
 21 22  1  6
 22 14  1  0
 23 21  1  0
 24 23  1  0
 25 23  2  0
M  END
$$$$
