VEI.pdb
     RDKit          3D

 25 24  0  0  1  0  0  0  0  0999 V2000
    7.2131  -12.8639   20.7058 C   0  0  0  0  0  0  0  0  0  0  0  0
    8.3131  -13.2342   19.7636 C   0  0  2  0  0  0  0  0  0  0  0  0
    8.1355  -12.4841   18.4536 C   0  0  0  0  0  0  0  0  0  0  0  0
    8.3688  -14.7161   19.4621 C   0  0  2  0  0  0  0  0  0  0  0  0
    7.2088  -15.0369   18.6671 N   0  0  0  0  0  0  0  0  0  0  0  0
    8.3866  -15.5397   20.6950 C   0  0  0  0  0  0  0  0  0  0  0  0
    7.3230  -15.9055   21.2477 O   0  0  0  0  0  0  0  0  0  0  0  0
    9.6155  -15.9331   21.2783 N   0  0  0  0  0  0  0  0  0  0  0  0
    9.7220  -16.6231   22.5472 C   0  0  1  0  0  0  0  0  0  0  0  0
   10.8910  -17.5726   22.5191 C   0  0  0  0  0  0  0  0  0  0  0  0
   10.6601  -18.7515   21.6105 C   0  0  0  0  0  0  0  0  0  0  0  0
   11.8776  -19.6029   21.6489 C   0  0  0  0  0  0  0  0  0  0  0  0
   12.9395  -19.2064   21.0899 O   0  0  0  0  0  0  0  0  0  0  0  0
    9.7624  -15.6676   23.6531 C   0  0  0  0  0  0  0  0  0  0  0  0
   10.6741  -14.8169   23.7238 O   0  0  0  0  0  0  0  0  0  0  0  0
   11.9032  -20.8375   22.2824 O   0  0  0  0  0  0  0  0  0  0  0  0
    6.8942  -11.6491   26.6857 C   0  0  0  0  0  0  0  0  0  0  0  0
    7.6867  -12.9181   26.9047 C   0  0  0  0  0  0  0  0  0  0  0  0
    7.5681  -13.8591   25.7258 C   0  0  2  0  0  0  0  0  0  0  0  0
    6.3112  -14.6813   25.7801 C   0  0  0  0  0  0  0  0  0  0  0  0
    8.7551  -14.8053   25.7963 C   0  0  2  0  0  0  0  0  0  0  0  0
    8.7647  -15.7016   24.6538 N   0  0  0  0  0  0  0  0  0  0  0  0
    8.7404  -15.5509   27.0752 C   0  0  0  0  0  0  0  0  0  0  0  0
    9.0847  -14.9904   28.2875 O   0  0  0  0  0  0  0  0  0  0  0  0
    8.3968  -16.7545   27.0535 O   0  0  0  0  0  0  0  0  0  0  0  0
  2  1  1  1
  2  3  1  0
  4  5  1  6
  4  2  1  0
  6  4  1  0
  7  6  2  0
  8  6  1  0
  9 14  1  0
  9  8  1  0
  9 10  1  6
 11 10  1  0
 12 11  1  0
 13 12  2  0
 14 15  2  0
 16 12  1  0
 17 18  1  0
 19 18  1  0
 19 20  1  1
 21 19  1  0
 21 22  1  6
 22 14  1  0
 23 21  1  0
 24 23  1  0
 25 23  2  0
M  END
$$$$
