VEI.pdb
     RDKit          3D

 25 24  0  0  1  0  0  0  0  0999 V2000
    8.0418  -12.8182   18.0012 C   0  0  0  0  0  0  0  0  0  0  0  0
    7.9407  -13.3491   19.3950 C   0  0  2  0  0  0  0  0  0  0  0  0
    8.9544  -12.6454   20.2825 C   0  0  0  0  0  0  0  0  0  0  0  0
    8.1800  -14.8406   19.4857 C   0  0  2  0  0  0  0  0  0  0  0  0
    7.2124  -15.4840   18.6311 N   0  0  0  0  0  0  0  0  0  0  0  0
    8.0519  -15.3465   20.8735 C   0  0  0  0  0  0  0  0  0  0  0  0
    6.9434  -15.3687   21.4575 O   0  0  0  0  0  0  0  0  0  0  0  0
    9.1886  -15.8187   21.5737 N   0  0  0  0  0  0  0  0  0  0  0  0
    9.1322  -16.4263   22.8871 C   0  0  1  0  0  0  0  0  0  0  0  0
    9.9004  -17.7221   22.8871 C   0  0  0  0  0  0  0  0  0  0  0  0
    9.9481  -18.3692   24.2464 C   0  0  0  0  0  0  0  0  0  0  0  0
   10.7805  -19.5957   24.1393 C   0  0  0  0  0  0  0  0  0  0  0  0
   11.9993  -19.5588   24.4715 O   0  0  0  0  0  0  0  0  0  0  0  0
    9.5679  -15.4803   23.9132 C   0  0  0  0  0  0  0  0  0  0  0  0
   10.7046  -14.9657   23.8604 O   0  0  0  0  0  0  0  0  0  0  0  0
   10.2716  -20.8034   23.6824 O   0  0  0  0  0  0  0  0  0  0  0  0
    5.8618  -12.6326   27.0992 C   0  0  0  0  0  0  0  0  0  0  0  0
    6.8298  -13.7228   26.6983 C   0  0  0  0  0  0  0  0  0  0  0  0
    8.1746  -13.1547   26.3004 C   0  0  2  0  0  0  0  0  0  0  0  0
    8.1095  -12.3973   25.0040 C   0  0  0  0  0  0  0  0  0  0  0  0
    9.1129  -14.3349   26.1115 C   0  0  2  0  0  0  0  0  0  0  0  0
    8.7003  -15.1412   24.9764 N   0  0  0  0  0  0  0  0  0  0  0  0
    9.1837  -15.1368   27.3540 C   0  0  0  0  0  0  0  0  0  0  0  0
    9.7311  -14.6708   28.5311 O   0  0  0  0  0  0  0  0  0  0  0  0
    8.7215  -16.3001   27.3336 O   0  0  0  0  0  0  0  0  0  0  0  0
  2  1  1  6
  2  3  1  0
  4  5  1  6
  4  2  1  0
  6  4  1  0
  7  6  2  0
  8  6  1  0
  9 14  1  0
  9  8  1  0
  9 10  1  6
 11 10  1  0
 12 11  1  0
 13 12  2  0
 14 15  2  0
 16 12  1  0
 17 18  1  0
 19 18  1  0
 19 20  1  6
 21 19  1  0
 21 22  1  6
 22 14  1  0
 23 21  1  0
 24 23  1  0
 25 23  2  0
M  END
$$$$
