VEI.pdb
     RDKit          3D

 25 24  0  0  1  0  0  0  0  0999 V2000
    7.5391  -12.6443   21.1018 C   0  0  0  0  0  0  0  0  0  0  0  0
    8.3402  -13.4746   20.1512 C   0  0  2  0  0  0  0  0  0  0  0  0
    8.1423  -12.9603   18.7347 C   0  0  0  0  0  0  0  0  0  0  0  0
    7.9724  -14.9422   20.1826 C   0  0  2  0  0  0  0  0  0  0  0  0
    6.6282  -15.0595   19.6727 N   0  0  0  0  0  0  0  0  0  0  0  0
    8.0517  -15.5118   21.5492 C   0  0  0  0  0  0  0  0  0  0  0  0
    7.0860  -15.4318   22.3438 O   0  0  0  0  0  0  0  0  0  0  0  0
    9.2298  -16.1633   21.9886 N   0  0  0  0  0  0  0  0  0  0  0  0
    9.3881  -16.7415   23.3070 C   0  0  1  0  0  0  0  0  0  0  0  0
   10.3812  -17.8729   23.2558 C   0  0  0  0  0  0  0  0  0  0  0  0
   10.5558  -18.5535   24.5881 C   0  0  0  0  0  0  0  0  0  0  0  0
   11.6380  -19.5623   24.4473 C   0  0  0  0  0  0  0  0  0  0  0  0
   12.8046  -19.2928   24.8518 O   0  0  0  0  0  0  0  0  0  0  0  0
    9.7179  -15.7088   24.2880 C   0  0  0  0  0  0  0  0  0  0  0  0
   10.6191  -14.8763   24.0543 O   0  0  0  0  0  0  0  0  0  0  0  0
   11.4227  -20.8111   23.8813 O   0  0  0  0  0  0  0  0  0  0  0  0
    6.4130  -12.3622   25.9018 C   0  0  0  0  0  0  0  0  0  0  0  0
    7.6825  -13.1526   25.6777 C   0  0  0  0  0  0  0  0  0  0  0  0
    8.1201  -13.8714   26.9352 C   0  0  2  0  0  0  0  0  0  0  0  0
    8.5176  -12.9165   28.0256 C   0  0  0  0  0  0  0  0  0  0  0  0
    9.3384  -14.7015   26.5667 C   0  0  2  0  0  0  0  0  0  0  0  0
    9.0150  -15.6465   25.5126 N   0  0  0  0  0  0  0  0  0  0  0  0
    9.8752  -15.3836   27.7660 C   0  0  0  0  0  0  0  0  0  0  0  0
    9.8426  -16.7511   27.9428 O   0  0  0  0  0  0  0  0  0  0  0  0
   10.3856  -14.6802   28.6670 O   0  0  0  0  0  0  0  0  0  0  0  0
  2  1  1  1
  2  3  1  0
  4  5  1  1
  4  2  1  0
  6  4  1  0
  7  6  2  0
  8  6  1  0
  9 14  1  0
  9  8  1  0
  9 10  1  6
 11 10  1  0
 12 11  1  0
 13 12  2  0
 14 15  2  0
 16 12  1  0
 17 18  1  0
 19 18  1  0
 19 20  1  1
 21 19  1  0
 21 22  1  6
 22 14  1  0
 23 21  1  0
 24 23  1  0
 25 23  2  0
M  END
$$$$
