VEI.pdb
     RDKit          3D

 25 24  0  0  1  0  0  0  0  0999 V2000
    7.7623  -12.6481   18.2367 C   0  0  0  0  0  0  0  0  0  0  0  0
    7.7992  -13.2884   19.5870 C   0  0  2  0  0  0  0  0  0  0  0  0
    8.8232  -12.5798   20.4586 C   0  0  0  0  0  0  0  0  0  0  0  0
    8.1470  -14.7605   19.5416 C   0  0  2  0  0  0  0  0  0  0  0  0
    7.1606  -15.4100   18.7135 N   0  0  0  0  0  0  0  0  0  0  0  0
    8.1657  -15.3750   20.8909 C   0  0  0  0  0  0  0  0  0  0  0  0
    7.1043  -15.5958   21.5193 O   0  0  0  0  0  0  0  0  0  0  0  0
    9.3932  -15.7278   21.5024 N   0  0  0  0  0  0  0  0  0  0  0  0
    9.4932  -16.4845   22.7333 C   0  0  1  0  0  0  0  0  0  0  0  0
   10.5277  -17.5695   22.5867 C   0  0  0  0  0  0  0  0  0  0  0  0
   10.7535  -18.3335   23.8650 C   0  0  0  0  0  0  0  0  0  0  0  0
   11.8543  -19.3036   23.6288 C   0  0  0  0  0  0  0  0  0  0  0  0
   12.0474  -20.2464   24.4480 O   0  0  0  0  0  0  0  0  0  0  0  0
    9.7264  -15.5944   23.8696 C   0  0  0  0  0  0  0  0  0  0  0  0
   10.7055  -14.8191   23.8779 O   0  0  0  0  0  0  0  0  0  0  0  0
   12.6966  -19.2207   22.5288 O   0  0  0  0  0  0  0  0  0  0  0  0
    6.2217  -12.3784   25.6511 C   0  0  0  0  0  0  0  0  0  0  0  0
    7.4772  -13.1806   25.3931 C   0  0  0  0  0  0  0  0  0  0  0  0
    7.8267  -14.0624   26.5720 C   0  0  2  0  0  0  0  0  0  0  0  0
    8.1417  -13.2629   27.8050 C   0  0  0  0  0  0  0  0  0  0  0  0
    9.0714  -14.8432   26.1843 C   0  0  2  0  0  0  0  0  0  0  0  0
    8.8403  -15.6065   24.9707 N   0  0  0  0  0  0  0  0  0  0  0  0
    9.4995  -15.7128   27.3032 C   0  0  0  0  0  0  0  0  0  0  0  0
   10.3196  -15.2877   28.3275 O   0  0  0  0  0  0  0  0  0  0  0  0
    9.0948  -16.8974   27.3192 O   0  0  0  0  0  0  0  0  0  0  0  0
  2  1  1  6
  2  3  1  0
  4  5  1  6
  4  2  1  0
  6  4  1  0
  7  6  2  0
  8  6  1  0
  9 14  1  0
  9  8  1  0
  9 10  1  6
 11 10  1  0
 12 11  1  0
 13 12  2  0
 14 15  2  0
 16 12  1  0
 17 18  1  0
 19 18  1  0
 19 20  1  1
 21 19  1  0
 21 22  1  6
 22 14  1  0
 23 21  1  0
 24 23  1  0
 25 23  2  0
M  END
$$$$
