VEI.pdb
     RDKit          3D

 25 24  0  0  1  0  0  0  0  0999 V2000
    7.5139  -12.6139   18.8949 C   0  0  0  0  0  0  0  0  0  0  0  0
    7.5703  -13.3283   20.2069 C   0  0  2  0  0  0  0  0  0  0  0  0
    8.5642  -12.6330   21.1228 C   0  0  0  0  0  0  0  0  0  0  0  0
    7.9731  -14.7815   20.0797 C   0  0  2  0  0  0  0  0  0  0  0  0
    6.9716  -15.4363   19.2743 N   0  0  0  0  0  0  0  0  0  0  0  0
    8.0857  -15.4504   21.3982 C   0  0  0  0  0  0  0  0  0  0  0  0
    7.0703  -15.7023   22.0881 O   0  0  0  0  0  0  0  0  0  0  0  0
    9.3530  -15.8214   21.9095 N   0  0  0  0  0  0  0  0  0  0  0  0
    9.5454  -16.5017   23.1736 C   0  0  1  0  0  0  0  0  0  0  0  0
   10.5823  -17.5837   23.0221 C   0  0  0  0  0  0  0  0  0  0  0  0
   10.8110  -18.3519   24.2972 C   0  0  0  0  0  0  0  0  0  0  0  0
   11.8123  -19.4139   24.0173 C   0  0  0  0  0  0  0  0  0  0  0  0
   13.0128  -19.0984   23.7795 O   0  0  0  0  0  0  0  0  0  0  0  0
    9.8420  -15.5427   24.2366 C   0  0  0  0  0  0  0  0  0  0  0  0
   10.7740  -14.7213   24.1083 O   0  0  0  0  0  0  0  0  0  0  0  0
   11.4839  -20.7623   24.0048 O   0  0  0  0  0  0  0  0  0  0  0  0
    6.3481  -12.4206   26.0367 C   0  0  0  0  0  0  0  0  0  0  0  0
    7.6147  -13.1937   25.7463 C   0  0  0  0  0  0  0  0  0  0  0  0
    8.1249  -13.9096   26.9778 C   0  0  2  0  0  0  0  0  0  0  0  0
    8.5191  -12.9529   28.0678 C   0  0  0  0  0  0  0  0  0  0  0  0
    9.3636  -14.6824   26.5566 C   0  0  2  0  0  0  0  0  0  0  0  0
    9.0715  -15.5398   25.4216 N   0  0  0  0  0  0  0  0  0  0  0  0
    9.8992  -15.4545   27.7006 C   0  0  0  0  0  0  0  0  0  0  0  0
   10.7889  -14.9371   28.6188 O   0  0  0  0  0  0  0  0  0  0  0  0
    9.5234  -16.6404   27.8409 O   0  0  0  0  0  0  0  0  0  0  0  0
  2  1  1  6
  2  3  1  0
  4  5  1  6
  4  2  1  0
  6  4  1  0
  7  6  2  0
  8  6  1  0
  9 14  1  0
  9  8  1  0
  9 10  1  6
 11 10  1  0
 12 11  1  0
 13 12  2  0
 14 15  2  0
 16 12  1  0
 17 18  1  0
 19 18  1  0
 19 20  1  1
 21 19  1  0
 21 22  1  6
 22 14  1  0
 23 21  1  0
 24 23  1  0
 25 23  2  0
M  END
$$$$
