FHQ.pdb
     RDKit          3D

 31 32  0  0  1  0  0  0  0  0999 V2000
    5.3323  -17.5207   24.0627 N   0  0  0  0  0  0  0  0  0  0  0  0
    5.9898  -16.2479   24.2364 C   0  0  1  0  0  0  0  0  0  0  0  0
    6.0345  -15.8231   25.7016 C   0  0  0  0  0  0  0  0  0  0  0  0
    6.3871  -14.3887   25.8331 C   0  0  0  0  0  0  0  0  0  0  0  0
    7.6570  -14.0392   26.2581 C   0  0  0  0  0  0  0  0  0  0  0  0
    8.0269  -12.6972   26.4018 C   0  0  0  0  0  0  0  0  0  0  0  0
    7.1245  -11.6899   26.1199 C   0  0  0  0  0  0  0  0  0  0  0  0
    5.8608  -12.0332   25.6970 C   0  0  0  0  0  0  0  0  0  0  0  0
    5.5040  -13.3638   25.5576 C   0  0  0  0  0  0  0  0  0  0  0  0
    7.3614  -16.3458   23.6793 C   0  0  0  0  0  0  0  0  0  0  0  0
    8.0362  -17.4059   23.7959 O   0  0  0  0  0  0  0  0  0  0  0  0
    7.9549  -15.2481   22.9978 N   0  0  0  0  0  0  0  0  0  0  0  0
    9.2193  -15.2579   22.3277 C   0  0  1  0  0  0  0  0  0  0  0  0
    9.5230  -14.0977   21.4596 C   0  0  0  0  0  0  0  0  0  0  0  0
    8.6280  -13.9315   20.3403 C   0  0  0  0  0  0  0  0  0  0  0  0
    7.8908  -12.8660   19.9471 C   0  0  0  0  0  0  0  0  0  0  0  0
    7.1656  -13.1691   18.8211 N   0  0  0  0  0  0  0  0  0  0  0  0
    7.4808  -14.4472   18.5401 C   0  0  0  0  0  0  0  0  0  0  0  0
    8.3566  -14.9220   19.4402 N   0  0  0  0  0  0  0  0  0  0  0  0
   10.3395  -15.5092   23.3146 C   0  0  0  0  0  0  0  0  0  0  0  0
   10.8163  -14.5049   23.8835 O   0  0  0  0  0  0  0  0  0  0  0  0
   10.5376  -20.0551   27.2446 N   0  0  0  0  0  0  0  0  0  0  0  0
   11.7441  -19.3941   27.5942 C   0  0  0  0  0  0  0  0  0  0  0  0
   12.4243  -19.6699   28.6141 O   0  0  0  0  0  0  0  0  0  0  0  0
   12.2270  -18.3149   26.7003 C   0  0  0  0  0  0  0  0  0  0  0  0
   11.2156  -18.0569   25.5867 C   0  0  0  0  0  0  0  0  0  0  0  0
   11.8386  -17.0330   24.6395 C   0  0  2  0  0  0  0  0  0  0  0  0
   10.8439  -16.7971   23.6028 N   0  0  0  0  0  0  0  0  0  0  0  0
   13.0920  -17.5933   24.1043 C   0  0  0  0  0  0  0  0  0  0  0  0
   14.2695  -17.5067   24.7942 O   0  0  0  0  0  0  0  0  0  0  0  0
   13.0503  -18.1574   22.9875 O   0  0  0  0  0  0  0  0  0  0  0  0
  2  1  1  1
  2  3  1  0
  3  4  1  0
  4  9  1  0
  4  5  2  0
  5  6  1  0
  6  7  2  0
  8  7  1  0
  9  8  2  0
 10  2  1  0
 10 11  2  0
 12 10  1  0
 13 12  1  0
 13 14  1  1
 15 14  1  0
 15 16  2  0
 17 16  1  0
 18 17  1  0
 19 18  2  0
 19 15  1  0
 20 13  1  0
 21 20  2  0
 23 22  1  0
 23 25  1  0
 24 23  2  0
 26 25  1  0
 27 26  1  1
 27 28  1  0
 28 20  1  0
 29 27  1  0
 29 30  1  0
 31 29  2  0
M  END
$$$$
