FHQ.pdb
     RDKit          3D

 31 32  0  0  1  0  0  0  0  0999 V2000
    6.3869  -16.1192   25.5520 N   0  0  0  0  0  0  0  0  0  0  0  0
    6.5609  -15.7499   24.1678 C   0  0  1  0  0  0  0  0  0  0  0  0
    6.5608  -14.2359   23.9760 C   0  0  0  0  0  0  0  0  0  0  0  0
    6.6414  -13.5307   25.2780 C   0  0  0  0  0  0  0  0  0  0  0  0
    7.8742  -13.1097   25.7453 C   0  0  0  0  0  0  0  0  0  0  0  0
    7.9939  -12.4472   26.9723 C   0  0  0  0  0  0  0  0  0  0  0  0
    6.8753  -12.1997   27.7444 C   0  0  0  0  0  0  0  0  0  0  0  0
    5.6478  -12.6167   27.2832 C   0  0  0  0  0  0  0  0  0  0  0  0
    5.5392  -13.2713   26.0679 C   0  0  0  0  0  0  0  0  0  0  0  0
    7.8325  -16.3378   23.6792 C   0  0  0  0  0  0  0  0  0  0  0  0
    8.2550  -17.4386   24.1293 O   0  0  0  0  0  0  0  0  0  0  0  0
    8.6115  -15.6778   22.6896 N   0  0  0  0  0  0  0  0  0  0  0  0
    9.7638  -16.2129   22.0311 C   0  0  1  0  0  0  0  0  0  0  0  0
   10.2256  -15.5056   20.8152 C   0  0  0  0  0  0  0  0  0  0  0  0
    9.2773  -15.4936   19.7278 C   0  0  0  0  0  0  0  0  0  0  0  0
    8.0770  -16.1055   19.5935 C   0  0  0  0  0  0  0  0  0  0  0  0
    7.5242  -15.8216   18.3689 N   0  0  0  0  0  0  0  0  0  0  0  0
    8.4202  -15.0212   17.7619 C   0  0  0  0  0  0  0  0  0  0  0  0
    9.4787  -14.8130   18.5612 N   0  0  0  0  0  0  0  0  0  0  0  0
   10.8974  -16.4007   23.0169 C   0  0  0  0  0  0  0  0  0  0  0  0
   11.2709  -15.3828   23.6366 O   0  0  0  0  0  0  0  0  0  0  0  0
   10.7326  -17.3947   28.0110 N   0  0  0  0  0  0  0  0  0  0  0  0
   10.2091  -18.4002   27.1568 C   0  0  0  0  0  0  0  0  0  0  0  0
    9.3174  -19.2166   27.4996 O   0  0  0  0  0  0  0  0  0  0  0  0
   10.7490  -18.4893   25.7793 C   0  0  0  0  0  0  0  0  0  0  0  0
   11.8978  -17.5014   25.5955 C   0  0  0  0  0  0  0  0  0  0  0  0
   12.5599  -17.8230   24.2568 C   0  0  2  0  0  0  0  0  0  0  0  0
   11.5230  -17.6458   23.2503 N   0  0  0  0  0  0  0  0  0  0  0  0
   13.0695  -19.2047   24.3074 C   0  0  0  0  0  0  0  0  0  0  0  0
   12.5606  -20.1876   23.5043 O   0  0  0  0  0  0  0  0  0  0  0  0
   13.9917  -19.4586   25.1149 O   0  0  0  0  0  0  0  0  0  0  0  0
  2  1  1  1
  2  3  1  0
  3  4  1  0
  4  9  1  0
  4  5  2  0
  5  6  1  0
  6  7  2  0
  8  7  1  0
  9  8  2  0
 10  2  1  0
 10 11  2  0
 12 10  1  0
 13 12  1  0
 13 14  1  6
 15 14  1  0
 15 16  2  0
 17 16  1  0
 18 17  1  0
 19 18  2  0
 19 15  1  0
 20 13  1  0
 21 20  2  0
 23 22  1  0
 23 25  1  0
 24 23  2  0
 26 25  1  0
 27 26  1  1
 27 28  1  0
 28 20  1  0
 29 27  1  0
 29 30  1  0
 31 29  2  0
M  END
$$$$
