FHQ.pdb
     RDKit          3D

 31 32  0  0  1  0  0  0  0  0999 V2000
    6.0817  -18.1203   25.5901 N   0  0  0  0  0  0  0  0  0  0  0  0
    6.2615  -16.6965   25.4376 C   0  0  1  0  0  0  0  0  0  0  0  0
    6.7852  -16.0465   26.7153 C   0  0  0  0  0  0  0  0  0  0  0  0
    6.5663  -14.5799   26.6989 C   0  0  0  0  0  0  0  0  0  0  0  0
    7.6445  -13.7319   26.8827 C   0  0  0  0  0  0  0  0  0  0  0  0
    7.4791  -12.3422   26.8811 C   0  0  0  0  0  0  0  0  0  0  0  0
    6.2274  -11.7881   26.6945 C   0  0  0  0  0  0  0  0  0  0  0  0
    5.1529  -12.6279   26.5113 C   0  0  0  0  0  0  0  0  0  0  0  0
    5.3264  -14.0016   26.5143 C   0  0  0  0  0  0  0  0  0  0  0  0
    7.1954  -16.4573   24.3098 C   0  0  0  0  0  0  0  0  0  0  0  0
    8.2243  -17.1716   24.1551 O   0  0  0  0  0  0  0  0  0  0  0  0
    6.9576  -15.4166   23.3706 N   0  0  0  0  0  0  0  0  0  0  0  0
    7.7124  -15.1690   22.1802 C   0  0  1  0  0  0  0  0  0  0  0  0
    7.1900  -14.1306   21.2633 C   0  0  0  0  0  0  0  0  0  0  0  0
    7.8266  -14.0935   19.9691 C   0  0  0  0  0  0  0  0  0  0  0  0
    8.8147  -14.8576   19.4465 C   0  0  0  0  0  0  0  0  0  0  0  0
    9.1182  -14.4493   18.1710 N   0  0  0  0  0  0  0  0  0  0  0  0
    8.2889  -13.4163   17.9319 C   0  0  0  0  0  0  0  0  0  0  0  0
    7.5065  -13.1875   18.9987 N   0  0  0  0  0  0  0  0  0  0  0  0
    9.1665  -14.9172   22.5182 C   0  0  0  0  0  0  0  0  0  0  0  0
    9.3905  -14.1465   23.4750 O   0  0  0  0  0  0  0  0  0  0  0  0
   10.8696  -18.8827   25.3190 N   0  0  0  0  0  0  0  0  0  0  0  0
   12.1306  -18.2316   25.3443 C   0  0  0  0  0  0  0  0  0  0  0  0
   13.0322  -18.4822   26.1830 O   0  0  0  0  0  0  0  0  0  0  0  0
   12.3959  -17.1949   24.3187 C   0  0  0  0  0  0  0  0  0  0  0  0
   11.1277  -16.9009   23.5221 C   0  0  0  0  0  0  0  0  0  0  0  0
   11.4932  -15.8696   22.4560 C   0  0  2  0  0  0  0  0  0  0  0  0
   10.2393  -15.5056   21.8118 N   0  0  0  0  0  0  0  0  0  0  0  0
   12.4524  -16.4837   21.5210 C   0  0  0  0  0  0  0  0  0  0  0  0
   12.0365  -17.1909   20.4270 O   0  0  0  0  0  0  0  0  0  0  0  0
   13.6732  -16.3396   21.7575 O   0  0  0  0  0  0  0  0  0  0  0  0
  2  1  1  1
  2  3  1  0
  3  4  1  0
  4  9  1  0
  4  5  2  0
  5  6  1  0
  6  7  2  0
  8  7  1  0
  9  8  2  0
 10  2  1  0
 10 11  2  0
 12 10  1  0
 13 12  1  0
 13 14  1  1
 15 14  1  0
 15 16  2  0
 17 16  1  0
 18 17  1  0
 19 18  2  0
 19 15  1  0
 20 13  1  0
 21 20  2  0
 23 22  1  0
 23 25  1  0
 24 23  2  0
 26 25  1  0
 27 26  1  1
 27 28  1  0
 28 20  1  0
 29 27  1  0
 29 30  1  0
 31 29  2  0
M  END
$$$$
