FHQ.pdb
     RDKit          3D

 31 32  0  0  1  0  0  0  0  0999 V2000
    6.1738  -17.7599   25.7166 N   0  0  0  0  0  0  0  0  0  0  0  0
    6.3499  -16.3634   25.3981 C   0  0  1  0  0  0  0  0  0  0  0  0
    6.9953  -15.5924   26.5462 C   0  0  0  0  0  0  0  0  0  0  0  0
    6.5897  -14.1661   26.5288 C   0  0  0  0  0  0  0  0  0  0  0  0
    7.5628  -13.1859   26.4423 C   0  0  0  0  0  0  0  0  0  0  0  0
    7.2220  -11.8286   26.4301 C   0  0  0  0  0  0  0  0  0  0  0  0
    5.8983  -11.4402   26.5045 C   0  0  0  0  0  0  0  0  0  0  0  0
    4.9277  -12.4119   26.5905 C   0  0  0  0  0  0  0  0  0  0  0  0
    5.2746  -13.7523   26.6017 C   0  0  0  0  0  0  0  0  0  0  0  0
    7.1768  -16.2605   24.1704 C   0  0  0  0  0  0  0  0  0  0  0  0
    8.1420  -17.0481   23.9689 O   0  0  0  0  0  0  0  0  0  0  0  0
    6.9051  -15.2715   23.1856 N   0  0  0  0  0  0  0  0  0  0  0  0
    7.6166  -15.0895   21.9575 C   0  0  1  0  0  0  0  0  0  0  0  0
    7.2067  -13.9448   21.1126 C   0  0  0  0  0  0  0  0  0  0  0  0
    7.8487  -13.8877   19.8218 C   0  0  0  0  0  0  0  0  0  0  0  0
    8.4330  -12.8556   19.1689 C   0  0  0  0  0  0  0  0  0  0  0  0
    8.9033  -13.2624   17.9445 N   0  0  0  0  0  0  0  0  0  0  0  0
    8.5890  -14.5692   17.8699 C   0  0  0  0  0  0  0  0  0  0  0  0
    7.9558  -14.9627   18.9865 N   0  0  0  0  0  0  0  0  0  0  0  0
    9.1096  -15.0761   22.2076 C   0  0  0  0  0  0  0  0  0  0  0  0
    9.5520  -14.1265   22.8874 O   0  0  0  0  0  0  0  0  0  0  0  0
   12.0365  -19.5873   24.1583 N   0  0  0  0  0  0  0  0  0  0  0  0
   11.5027  -18.4851   24.8759 C   0  0  0  0  0  0  0  0  0  0  0  0
   11.2012  -18.5223   26.0953 O   0  0  0  0  0  0  0  0  0  0  0  0
   11.2895  -17.2165   24.1397 C   0  0  0  0  0  0  0  0  0  0  0  0
   11.7276  -17.3678   22.6855 C   0  0  0  0  0  0  0  0  0  0  0  0
   11.4180  -16.0480   21.9811 C   0  0  2  0  0  0  0  0  0  0  0  0
    9.9867  -16.0682   21.7150 N   0  0  0  0  0  0  0  0  0  0  0  0
   12.2219  -15.9765   20.7482 C   0  0  0  0  0  0  0  0  0  0  0  0
   11.6459  -16.0491   19.5101 O   0  0  0  0  0  0  0  0  0  0  0  0
   13.4614  -15.8460   20.8652 O   0  0  0  0  0  0  0  0  0  0  0  0
  2  1  1  1
  2  3  1  0
  3  4  1  0
  4  9  1  0
  4  5  2  0
  5  6  1  0
  6  7  2  0
  8  7  1  0
  9  8  2  0
 10  2  1  0
 10 11  2  0
 12 10  1  0
 13 12  1  0
 13 14  1  1
 15 14  1  0
 15 16  2  0
 17 16  1  0
 18 17  1  0
 19 18  2  0
 19 15  1  0
 20 13  1  0
 21 20  2  0
 23 22  1  0
 23 25  1  0
 24 23  2  0
 26 25  1  0
 27 26  1  6
 27 28  1  0
 28 20  1  0
 29 27  1  0
 29 30  1  0
 31 29  2  0
M  END
$$$$
