FHQ.pdb
     RDKit          3D

 31 32  0  0  1  0  0  0  0  0999 V2000
    7.8102  -15.2323   25.2933 N   0  0  0  0  0  0  0  0  0  0  0  0
    7.0366  -15.0767   24.0850 C   0  0  1  0  0  0  0  0  0  0  0  0
    6.4597  -13.6699   23.9530 C   0  0  0  0  0  0  0  0  0  0  0  0
    6.5622  -12.9266   25.2321 C   0  0  0  0  0  0  0  0  0  0  0  0
    5.4795  -12.9085   26.0939 C   0  0  0  0  0  0  0  0  0  0  0  0
    5.5334  -12.2130   27.3072 C   0  0  0  0  0  0  0  0  0  0  0  0
    6.6768  -11.5273   27.6689 C   0  0  0  0  0  0  0  0  0  0  0  0
    7.7556  -11.5429   26.8147 C   0  0  0  0  0  0  0  0  0  0  0  0
    7.6929  -12.2340   25.6165 C   0  0  0  0  0  0  0  0  0  0  0  0
    7.9050  -15.3956   22.9250 C   0  0  0  0  0  0  0  0  0  0  0  0
    7.4689  -15.3102   21.7437 O   0  0  0  0  0  0  0  0  0  0  0  0
    9.2535  -15.8062   23.1110 N   0  0  0  0  0  0  0  0  0  0  0  0
   10.1799  -16.1463   22.0747 C   0  0  1  0  0  0  0  0  0  0  0  0
   10.5882  -15.0554   21.1608 C   0  0  0  0  0  0  0  0  0  0  0  0
    9.5139  -14.4849   20.3850 C   0  0  0  0  0  0  0  0  0  0  0  0
    8.9239  -13.2680   20.4510 C   0  0  0  0  0  0  0  0  0  0  0  0
    7.9211  -13.1659   19.5184 N   0  0  0  0  0  0  0  0  0  0  0  0
    7.9164  -14.3530   18.8839 C   0  0  0  0  0  0  0  0  0  0  0  0
    8.8647  -15.1577   19.3898 N   0  0  0  0  0  0  0  0  0  0  0  0
   11.3868  -16.8530   22.6545 C   0  0  0  0  0  0  0  0  0  0  0  0
   12.5056  -16.4227   22.3044 O   0  0  0  0  0  0  0  0  0  0  0  0
    9.9083  -15.0663   27.2143 N   0  0  0  0  0  0  0  0  0  0  0  0
   10.9967  -15.7374   27.8306 C   0  0  0  0  0  0  0  0  0  0  0  0
   11.3171  -15.5925   29.0370 O   0  0  0  0  0  0  0  0  0  0  0  0
   11.8009  -16.6633   26.9982 C   0  0  0  0  0  0  0  0  0  0  0  0
   11.2697  -16.6866   25.5675 C   0  0  0  0  0  0  0  0  0  0  0  0
   11.8698  -17.9135   24.8831 C   0  0  2  0  0  0  0  0  0  0  0  0
   11.2911  -17.9437   23.5475 N   0  0  0  0  0  0  0  0  0  0  0  0
   11.5251  -19.1065   25.6764 C   0  0  0  0  0  0  0  0  0  0  0  0
   10.5235  -19.9566   25.2968 O   0  0  0  0  0  0  0  0  0  0  0  0
   12.1812  -19.3242   26.7200 O   0  0  0  0  0  0  0  0  0  0  0  0
  2  1  1  1
  2  3  1  0
  3  4  1  0
  4  9  1  0
  4  5  2  0
  5  6  1  0
  6  7  2  0
  8  7  1  0
  9  8  2  0
 10  2  1  0
 10 11  2  0
 12 10  1  0
 13 12  1  0
 13 14  1  1
 15 14  1  0
 15 16  2  0
 17 16  1  0
 18 17  1  0
 19 18  2  0
 19 15  1  0
 20 13  1  0
 21 20  2  0
 23 22  1  0
 23 25  1  0
 24 23  2  0
 26 25  1  0
 27 26  1  1
 27 28  1  0
 28 20  1  0
 29 27  1  0
 29 30  1  0
 31 29  2  0
M  END
$$$$
