FHQ.pdb
     RDKit          3D

 31 32  0  0  1  0  0  0  0  0999 V2000
    5.6279  -16.1450   25.3779 N   0  0  0  0  0  0  0  0  0  0  0  0
    6.4750  -15.2979   24.5732 C   0  0  1  0  0  0  0  0  0  0  0  0
    7.4789  -14.5224   25.4217 C   0  0  0  0  0  0  0  0  0  0  0  0
    6.8242  -13.3971   26.1317 C   0  0  0  0  0  0  0  0  0  0  0  0
    7.5146  -12.2098   26.3019 C   0  0  0  0  0  0  0  0  0  0  0  0
    6.9349  -11.1266   26.9722 C   0  0  0  0  0  0  0  0  0  0  0  0
    5.6537  -11.2240   27.4797 C   0  0  0  0  0  0  0  0  0  0  0  0
    4.9639  -12.4029   27.3125 C   0  0  0  0  0  0  0  0  0  0  0  0
    5.5456  -13.4691   26.6476 C   0  0  0  0  0  0  0  0  0  0  0  0
    7.1771  -16.1436   23.5766 C   0  0  0  0  0  0  0  0  0  0  0  0
    6.6876  -17.2431   23.1970 O   0  0  0  0  0  0  0  0  0  0  0  0
    8.4216  -15.7391   23.0205 N   0  0  0  0  0  0  0  0  0  0  0  0
    8.6519  -15.3616   21.6594 C   0  0  1  0  0  0  0  0  0  0  0  0
    7.6657  -14.4433   21.0461 C   0  0  0  0  0  0  0  0  0  0  0  0
    7.8663  -14.1955   19.6390 C   0  0  0  0  0  0  0  0  0  0  0  0
    8.3046  -13.0920   18.9884 C   0  0  0  0  0  0  0  0  0  0  0  0
    8.3219  -13.3057   17.6319 N   0  0  0  0  0  0  0  0  0  0  0  0
    7.8820  -14.5681   17.4749 C   0  0  0  0  0  0  0  0  0  0  0  0
    7.6034  -15.1184   18.6674 N   0  0  0  0  0  0  0  0  0  0  0  0
   10.0631  -14.8418   21.4857 C   0  0  0  0  0  0  0  0  0  0  0  0
   10.2359  -13.6214   21.6867 O   0  0  0  0  0  0  0  0  0  0  0  0
   10.4392  -18.8691   24.7420 N   0  0  0  0  0  0  0  0  0  0  0  0
   11.7848  -18.4956   24.9960 C   0  0  0  0  0  0  0  0  0  0  0  0
   12.4681  -18.9426   25.9512 O   0  0  0  0  0  0  0  0  0  0  0  0
   12.4183  -17.5197   24.0776 C   0  0  0  0  0  0  0  0  0  0  0  0
   11.3936  -16.9906   23.0779 C   0  0  0  0  0  0  0  0  0  0  0  0
   12.1484  -16.1171   22.0773 C   0  0  2  0  0  0  0  0  0  0  0  0
   11.1518  -15.6638   21.1176 N   0  0  0  0  0  0  0  0  0  0  0  0
   13.2069  -16.9300   21.4527 C   0  0  0  0  0  0  0  0  0  0  0  0
   12.9637  -17.7013   20.3500 O   0  0  0  0  0  0  0  0  0  0  0  0
   14.3489  -16.8958   21.9644 O   0  0  0  0  0  0  0  0  0  0  0  0
  2  1  1  1
  2  3  1  0
  3  4  1  0
  4  9  1  0
  4  5  2  0
  5  6  1  0
  6  7  2  0
  8  7  1  0
  9  8  2  0
 10  2  1  0
 10 11  2  0
 12 10  1  0
 13 12  1  0
 13 14  1  1
 15 14  1  0
 15 16  2  0
 17 16  1  0
 18 17  1  0
 19 18  2  0
 19 15  1  0
 20 13  1  0
 21 20  2  0
 23 22  1  0
 23 25  1  0
 24 23  2  0
 26 25  1  0
 27 26  1  1
 27 28  1  0
 28 20  1  0
 29 27  1  0
 29 30  1  0
 31 29  2  0
M  END
$$$$
