FHQ.pdb
     RDKit          3D

 31 32  0  0  1  0  0  0  0  0999 V2000
    8.0788  -16.6395   21.4743 N   0  0  0  0  0  0  0  0  0  0  0  0
    7.9191  -15.6930   22.5519 C   0  0  1  0  0  0  0  0  0  0  0  0
    6.8840  -14.6210   22.2222 C   0  0  0  0  0  0  0  0  0  0  0  0
    7.2487  -13.8859   20.9870 C   0  0  0  0  0  0  0  0  0  0  0  0
    8.4807  -14.1163   20.4001 C   0  0  0  0  0  0  0  0  0  0  0  0
    8.8656  -13.4381   19.2380 C   0  0  0  0  0  0  0  0  0  0  0  0
    8.0162  -12.5199   18.6516 C   0  0  0  0  0  0  0  0  0  0  0  0
    6.7903  -12.2880   19.2320 C   0  0  0  0  0  0  0  0  0  0  0  0
    6.4181  -12.9641   20.3816 C   0  0  0  0  0  0  0  0  0  0  0  0
    7.5305  -16.4344   23.7769 C   0  0  0  0  0  0  0  0  0  0  0  0
    7.1941  -15.8222   24.8281 O   0  0  0  0  0  0  0  0  0  0  0  0
    7.5257  -17.8560   23.8016 N   0  0  0  0  0  0  0  0  0  0  0  0
    7.4898  -18.6770   24.9731 C   0  0  1  0  0  0  0  0  0  0  0  0
    7.0398  -20.0760   24.7936 C   0  0  0  0  0  0  0  0  0  0  0  0
    7.1179  -20.8917   25.9811 C   0  0  0  0  0  0  0  0  0  0  0  0
    8.1282  -21.6492   26.4695 C   0  0  0  0  0  0  0  0  0  0  0  0
    7.7467  -22.2720   27.6325 N   0  0  0  0  0  0  0  0  0  0  0  0
    6.4774  -21.8735   27.8380 C   0  0  0  0  0  0  0  0  0  0  0  0
    6.0824  -21.0453   26.8579 N   0  0  0  0  0  0  0  0  0  0  0  0
    8.8162  -18.6195   25.7007 C   0  0  0  0  0  0  0  0  0  0  0  0
    9.7993  -19.1089   25.1060 O   0  0  0  0  0  0  0  0  0  0  0  0
   10.5888  -13.9597   27.5113 N   0  0  0  0  0  0  0  0  0  0  0  0
    9.3686  -14.4408   28.0539 C   0  0  0  0  0  0  0  0  0  0  0  0
    8.3902  -13.7056   28.3394 O   0  0  0  0  0  0  0  0  0  0  0  0
    9.2449  -15.8978   28.2968 C   0  0  0  0  0  0  0  0  0  0  0  0
   10.5658  -16.5995   27.9932 C   0  0  0  0  0  0  0  0  0  0  0  0
   10.2418  -18.0627   27.6962 C   0  0  2  0  0  0  0  0  0  0  0  0
    8.9719  -18.0498   26.9842 N   0  0  0  0  0  0  0  0  0  0  0  0
   10.1670  -18.7934   28.9737 C   0  0  0  0  0  0  0  0  0  0  0  0
   11.2779  -19.0172   29.7390 O   0  0  0  0  0  0  0  0  0  0  0  0
    9.0460  -19.2093   29.3445 O   0  0  0  0  0  0  0  0  0  0  0  0
  2  1  1  6
  2  3  1  0
  3  4  1  0
  4  9  1  0
  4  5  2  0
  5  6  1  0
  6  7  2  0
  8  7  1  0
  9  8  2  0
 10  2  1  0
 10 11  2  0
 12 10  1  0
 13 12  1  0
 13 14  1  6
 15 14  1  0
 15 16  2  0
 17 16  1  0
 18 17  1  0
 19 18  2  0
 19 15  1  0
 20 13  1  0
 21 20  2  0
 23 22  1  0
 23 25  1  0
 24 23  2  0
 26 25  1  0
 27 26  1  1
 27 28  1  0
 28 20  1  0
 29 27  1  0
 29 30  1  0
 31 29  2  0
M  END
$$$$
