FHQ.pdb
     RDKit          3D

 31 32  0  0  1  0  0  0  0  0999 V2000
    5.2545  -17.4410   24.0562 N   0  0  0  0  0  0  0  0  0  0  0  0
    5.9944  -16.2525   24.4063 C   0  0  1  0  0  0  0  0  0  0  0  0
    6.2375  -16.1529   25.9097 C   0  0  0  0  0  0  0  0  0  0  0  0
    6.9373  -14.8924   26.2570 C   0  0  0  0  0  0  0  0  0  0  0  0
    6.2568  -13.6911   26.1614 C   0  0  0  0  0  0  0  0  0  0  0  0
    6.8833  -12.4791   26.4733 C   0  0  0  0  0  0  0  0  0  0  0  0
    8.2018  -12.4602   26.8853 C   0  0  0  0  0  0  0  0  0  0  0  0
    8.8818  -13.6526   26.9817 C   0  0  0  0  0  0  0  0  0  0  0  0
    8.2535  -14.8468   26.6712 C   0  0  0  0  0  0  0  0  0  0  0  0
    7.2819  -16.2644   23.6691 C   0  0  0  0  0  0  0  0  0  0  0  0
    7.9904  -17.3074   23.6149 O   0  0  0  0  0  0  0  0  0  0  0  0
    7.7544  -15.1008   23.0022 N   0  0  0  0  0  0  0  0  0  0  0  0
    9.0071  -14.9708   22.3228 C   0  0  1  0  0  0  0  0  0  0  0  0
    9.1390  -13.8387   21.3778 C   0  0  0  0  0  0  0  0  0  0  0  0
    8.3507  -13.9618   20.1757 C   0  0  0  0  0  0  0  0  0  0  0  0
    7.3840  -13.1628   19.6656 C   0  0  0  0  0  0  0  0  0  0  0  0
    6.8920  -13.6864   18.4953 N   0  0  0  0  0  0  0  0  0  0  0  0
    7.5847  -14.8251   18.3074 C   0  0  0  0  0  0  0  0  0  0  0  0
    8.4645  -15.0077   19.3051 N   0  0  0  0  0  0  0  0  0  0  0  0
   10.1514  -14.9906   23.3139 C   0  0  0  0  0  0  0  0  0  0  0  0
   10.1468  -14.0985   24.1878 O   0  0  0  0  0  0  0  0  0  0  0  0
    9.6474  -19.0259   26.9239 N   0  0  0  0  0  0  0  0  0  0  0  0
   10.6962  -18.2674   27.5063 C   0  0  0  0  0  0  0  0  0  0  0  0
   10.8759  -18.1551   28.7450 O   0  0  0  0  0  0  0  0  0  0  0  0
   11.6334  -17.5674   26.5960 C   0  0  0  0  0  0  0  0  0  0  0  0
   10.8782  -16.9830   25.4053 C   0  0  0  0  0  0  0  0  0  0  0  0
   11.9159  -16.3532   24.4777 C   0  0  2  0  0  0  0  0  0  0  0  0
   11.1865  -15.9518   23.2833 N   0  0  0  0  0  0  0  0  0  0  0  0
   12.9586  -17.3551   24.1941 C   0  0  0  0  0  0  0  0  0  0  0  0
   13.0571  -17.9632   22.9733 O   0  0  0  0  0  0  0  0  0  0  0  0
   13.7617  -17.6388   25.1115 O   0  0  0  0  0  0  0  0  0  0  0  0
  2  1  1  1
  2  3  1  0
  3  4  1  0
  4  9  1  0
  4  5  2  0
  5  6  1  0
  6  7  2  0
  8  7  1  0
  9  8  2  0
 10  2  1  0
 10 11  2  0
 12 10  1  0
 13 12  1  0
 13 14  1  1
 15 14  1  0
 15 16  2  0
 17 16  1  0
 18 17  1  0
 19 18  2  0
 19 15  1  0
 20 13  1  0
 21 20  2  0
 23 22  1  0
 23 25  1  0
 24 23  2  0
 26 25  1  0
 27 26  1  1
 27 28  1  0
 28 20  1  0
 29 27  1  0
 29 30  1  0
 31 29  2  0
M  END
$$$$
