FHQ.pdb
     RDKit          3D

 31 32  0  0  1  0  0  0  0  0999 V2000
    5.7733  -17.9940   25.6349 N   0  0  0  0  0  0  0  0  0  0  0  0
    6.1142  -16.5971   25.5118 C   0  0  1  0  0  0  0  0  0  0  0  0
    6.7594  -16.0522   26.7830 C   0  0  0  0  0  0  0  0  0  0  0  0
    6.9759  -14.5882   26.6889 C   0  0  0  0  0  0  0  0  0  0  0  0
    8.2620  -14.1023   26.5302 C   0  0  0  0  0  0  0  0  0  0  0  0
    8.5094  -12.7275   26.4442 C   0  0  0  0  0  0  0  0  0  0  0  0
    7.4665  -11.8243   26.5166 C   0  0  0  0  0  0  0  0  0  0  0  0
    6.1863  -12.3035   26.6743 C   0  0  0  0  0  0  0  0  0  0  0  0
    5.9513  -13.6655   26.7582 C   0  0  0  0  0  0  0  0  0  0  0  0
    7.0261  -16.4346   24.3528 C   0  0  0  0  0  0  0  0  0  0  0  0
    8.0052  -17.2123   24.1820 O   0  0  0  0  0  0  0  0  0  0  0  0
    6.8227  -15.3980   23.4010 N   0  0  0  0  0  0  0  0  0  0  0  0
    7.6169  -15.1590   22.2348 C   0  0  1  0  0  0  0  0  0  0  0  0
    7.1035  -14.1583   21.2720 C   0  0  0  0  0  0  0  0  0  0  0  0
    7.7485  -14.1770   19.9815 C   0  0  0  0  0  0  0  0  0  0  0  0
    8.8094  -14.8884   19.5325 C   0  0  0  0  0  0  0  0  0  0  0  0
    9.0879  -14.5685   18.2264 N   0  0  0  0  0  0  0  0  0  0  0  0
    8.1687  -13.6434   17.8931 C   0  0  0  0  0  0  0  0  0  0  0  0
    7.3563  -13.3951   18.9329 N   0  0  0  0  0  0  0  0  0  0  0  0
    9.0493  -14.8588   22.6222 C   0  0  0  0  0  0  0  0  0  0  0  0
    9.2159  -14.0237   23.5357 O   0  0  0  0  0  0  0  0  0  0  0  0
   10.9428  -18.9386   25.3611 N   0  0  0  0  0  0  0  0  0  0  0  0
   12.2120  -18.3032   25.3557 C   0  0  0  0  0  0  0  0  0  0  0  0
   13.1697  -18.6440   26.0945 O   0  0  0  0  0  0  0  0  0  0  0  0
   12.4160  -17.1705   24.4217 C   0  0  0  0  0  0  0  0  0  0  0  0
   11.0987  -16.7953   23.7482 C   0  0  0  0  0  0  0  0  0  0  0  0
   11.4120  -15.7154   22.7140 C   0  0  2  0  0  0  0  0  0  0  0  0
   10.1633  -15.4717   22.0061 N   0  0  0  0  0  0  0  0  0  0  0  0
   12.4779  -16.2132   21.8266 C   0  0  0  0  0  0  0  0  0  0  0  0
   13.8006  -16.0688   22.1420 O   0  0  0  0  0  0  0  0  0  0  0  0
   12.1367  -16.7785   20.7631 O   0  0  0  0  0  0  0  0  0  0  0  0
  2  1  1  1
  2  3  1  0
  3  4  1  0
  4  9  1  0
  4  5  2  0
  5  6  1  0
  6  7  2  0
  8  7  1  0
  9  8  2  0
 10  2  1  0
 10 11  2  0
 12 10  1  0
 13 12  1  0
 13 14  1  1
 15 14  1  0
 15 16  2  0
 17 16  1  0
 18 17  1  0
 19 18  2  0
 19 15  1  0
 20 13  1  0
 21 20  2  0
 23 22  1  0
 23 25  1  0
 24 23  2  0
 26 25  1  0
 27 26  1  1
 27 28  1  0
 28 20  1  0
 29 27  1  0
 29 30  1  0
 31 29  2  0
M  END
$$$$
