FHQ.pdb
     RDKit          3D

 31 32  0  0  1  0  0  0  0  0999 V2000
    5.7696  -18.0495   25.5662 N   0  0  0  0  0  0  0  0  0  0  0  0
    6.0690  -16.6436   25.4378 C   0  0  1  0  0  0  0  0  0  0  0  0
    6.6857  -16.0720   26.7115 C   0  0  0  0  0  0  0  0  0  0  0  0
    6.8105  -14.5965   26.6311 C   0  0  0  0  0  0  0  0  0  0  0  0
    8.0696  -14.0252   26.5720 C   0  0  0  0  0  0  0  0  0  0  0  0
    8.2304  -12.6367   26.5024 C   0  0  0  0  0  0  0  0  0  0  0  0
    7.1270  -11.8056   26.4911 C   0  0  0  0  0  0  0  0  0  0  0  0
    5.8733  -12.3698   26.5496 C   0  0  0  0  0  0  0  0  0  0  0  0
    5.7241  -13.7446   26.6181 C   0  0  0  0  0  0  0  0  0  0  0  0
    6.9861  -16.4601   24.2861 C   0  0  0  0  0  0  0  0  0  0  0  0
    7.9637  -17.2371   24.1033 O   0  0  0  0  0  0  0  0  0  0  0  0
    6.7896  -15.4036   23.3550 N   0  0  0  0  0  0  0  0  0  0  0  0
    7.5686  -15.1630   22.1789 C   0  0  1  0  0  0  0  0  0  0  0  0
    7.1206  -14.0623   21.2958 C   0  0  0  0  0  0  0  0  0  0  0  0
    7.7653  -14.0239   20.0057 C   0  0  0  0  0  0  0  0  0  0  0  0
    8.1861  -12.9769   19.2574 C   0  0  0  0  0  0  0  0  0  0  0  0
    8.7350  -13.4158   18.0776 N   0  0  0  0  0  0  0  0  0  0  0  0
    8.6364  -14.7573   18.1279 C   0  0  0  0  0  0  0  0  0  0  0  0
    8.0572  -15.1412   19.2768 N   0  0  0  0  0  0  0  0  0  0  0  0
    9.0328  -15.0155   22.5348 C   0  0  0  0  0  0  0  0  0  0  0  0
    9.3078  -14.1898   23.4304 O   0  0  0  0  0  0  0  0  0  0  0  0
   11.8295  -16.9282   26.1588 N   0  0  0  0  0  0  0  0  0  0  0  0
   11.6866  -17.9155   25.1491 C   0  0  0  0  0  0  0  0  0  0  0  0
   11.6224  -19.1493   25.3791 O   0  0  0  0  0  0  0  0  0  0  0  0
   11.6087  -17.4602   23.7407 C   0  0  0  0  0  0  0  0  0  0  0  0
   11.6466  -15.9359   23.6738 C   0  0  0  0  0  0  0  0  0  0  0  0
   11.4697  -15.5438   22.2079 C   0  0  2  0  0  0  0  0  0  0  0  0
   10.0606  -15.7560   21.9091 N   0  0  0  0  0  0  0  0  0  0  0  0
   12.3556  -16.3889   21.3879 C   0  0  0  0  0  0  0  0  0  0  0  0
   11.8581  -17.3338   20.5337 O   0  0  0  0  0  0  0  0  0  0  0  0
   13.5910  -16.2173   21.4951 O   0  0  0  0  0  0  0  0  0  0  0  0
  2  1  1  1
  2  3  1  0
  3  4  1  0
  4  9  1  0
  4  5  2  0
  5  6  1  0
  6  7  2  0
  8  7  1  0
  9  8  2  0
 10  2  1  0
 10 11  2  0
 12 10  1  0
 13 12  1  0
 13 14  1  1
 15 14  1  0
 15 16  2  0
 17 16  1  0
 18 17  1  0
 19 18  2  0
 19 15  1  0
 20 13  1  0
 21 20  2  0
 23 22  1  0
 23 25  1  0
 24 23  2  0
 26 25  1  0
 27 26  1  1
 27 28  1  0
 28 20  1  0
 29 27  1  0
 29 30  1  0
 31 29  2  0
M  END
$$$$
