FHQ.pdb
     RDKit          3D

 31 32  0  0  1  0  0  0  0  0999 V2000
    5.5004  -16.9382   24.4134 N   0  0  0  0  0  0  0  0  0  0  0  0
    6.6746  -16.1022   24.4839 C   0  0  1  0  0  0  0  0  0  0  0  0
    6.8355  -15.4576   25.8580 C   0  0  0  0  0  0  0  0  0  0  0  0
    6.7445  -13.9801   25.7707 C   0  0  0  0  0  0  0  0  0  0  0  0
    7.7154  -13.2814   25.0746 C   0  0  0  0  0  0  0  0  0  0  0  0
    7.6695  -11.8862   24.9747 C   0  0  0  0  0  0  0  0  0  0  0  0
    6.6466  -11.1764   25.5735 C   0  0  0  0  0  0  0  0  0  0  0  0
    5.6794  -11.8675   26.2665 C   0  0  0  0  0  0  0  0  0  0  0  0
    5.7330  -13.2479   26.3597 C   0  0  0  0  0  0  0  0  0  0  0  0
    7.8619  -16.9279   24.1526 C   0  0  0  0  0  0  0  0  0  0  0  0
    7.9922  -18.0946   24.6160 O   0  0  0  0  0  0  0  0  0  0  0  0
    8.8870  -16.4285   23.3031 N   0  0  0  0  0  0  0  0  0  0  0  0
   10.1020  -17.1041   22.9639 C   0  0  1  0  0  0  0  0  0  0  0  0
   10.8411  -16.5960   21.7860 C   0  0  0  0  0  0  0  0  0  0  0  0
   11.9953  -17.3782   21.4149 C   0  0  0  0  0  0  0  0  0  0  0  0
   13.3180  -17.1099   21.5226 C   0  0  0  0  0  0  0  0  0  0  0  0
   14.0641  -18.1478   21.0205 N   0  0  0  0  0  0  0  0  0  0  0  0
   13.1600  -19.0541   20.6042 C   0  0  0  0  0  0  0  0  0  0  0  0
   11.9135  -18.6104   20.8321 N   0  0  0  0  0  0  0  0  0  0  0  0
   11.0066  -17.2057   24.1736 C   0  0  0  0  0  0  0  0  0  0  0  0
   11.3262  -16.1303   24.7221 O   0  0  0  0  0  0  0  0  0  0  0  0
   10.2922  -20.8814   28.7603 N   0  0  0  0  0  0  0  0  0  0  0  0
   11.5305  -20.3097   29.1534 C   0  0  0  0  0  0  0  0  0  0  0  0
   12.0252  -20.4304   30.3023 O   0  0  0  0  0  0  0  0  0  0  0  0
   12.2821  -19.5242   28.1458 C   0  0  0  0  0  0  0  0  0  0  0  0
   11.4687  -19.3945   26.8609 C   0  0  0  0  0  0  0  0  0  0  0  0
   12.2750  -18.5197   25.9025 C   0  0  2  0  0  0  0  0  0  0  0  0
   11.4830  -18.4341   24.6839 N   0  0  0  0  0  0  0  0  0  0  0  0
   13.5865  -19.1543   25.6817 C   0  0  0  0  0  0  0  0  0  0  0  0
   13.7153  -20.2999   24.9463 O   0  0  0  0  0  0  0  0  0  0  0  0
   14.5923  -18.6106   26.1916 O   0  0  0  0  0  0  0  0  0  0  0  0
  2  1  1  1
  2  3  1  0
  3  4  1  0
  4  9  1  0
  4  5  2  0
  5  6  1  0
  6  7  2  0
  8  7  1  0
  9  8  2  0
 10  2  1  0
 10 11  2  0
 12 10  1  0
 13 12  1  0
 13 14  1  6
 15 14  1  0
 15 16  2  0
 17 16  1  0
 18 17  1  0
 19 18  2  0
 19 15  1  0
 20 13  1  0
 21 20  2  0
 23 22  1  0
 23 25  1  0
 24 23  2  0
 26 25  1  0
 27 26  1  1
 27 28  1  0
 28 20  1  0
 29 27  1  0
 29 30  1  0
 31 29  2  0
M  END
$$$$
