FHQ.pdb
     RDKit          3D

 31 32  0  0  1  0  0  0  0  0999 V2000
    5.1392  -17.0908   23.9913 N   0  0  0  0  0  0  0  0  0  0  0  0
    6.0846  -16.0222   24.2082 C   0  0  1  0  0  0  0  0  0  0  0  0
    6.2195  -15.6699   25.6870 C   0  0  0  0  0  0  0  0  0  0  0  0
    6.4802  -14.2218   25.8713 C   0  0  0  0  0  0  0  0  0  0  0  0
    5.4172  -13.3356   25.8643 C   0  0  0  0  0  0  0  0  0  0  0  0
    5.6216  -11.9608   26.0279 C   0  0  0  0  0  0  0  0  0  0  0  0
    6.8975  -11.4602   26.2008 C   0  0  0  0  0  0  0  0  0  0  0  0
    7.9571  -12.3380   26.2084 C   0  0  0  0  0  0  0  0  0  0  0  0
    7.7450  -13.6966   26.0460 C   0  0  0  0  0  0  0  0  0  0  0  0
    7.3959  -16.4318   23.6476 C   0  0  0  0  0  0  0  0  0  0  0  0
    7.7555  -17.6415   23.6521 O   0  0  0  0  0  0  0  0  0  0  0  0
    8.2848  -15.4729   23.0890 N   0  0  0  0  0  0  0  0  0  0  0  0
    9.5245  -15.7569   22.4329 C   0  0  1  0  0  0  0  0  0  0  0  0
    9.9574  -14.8056   21.3843 C   0  0  0  0  0  0  0  0  0  0  0  0
    8.8978  -14.3266   20.5302 C   0  0  0  0  0  0  0  0  0  0  0  0
    8.3709  -13.0881   20.3835 C   0  0  0  0  0  0  0  0  0  0  0  0
    7.3562  -13.1011   19.4582 N   0  0  0  0  0  0  0  0  0  0  0  0
    7.2797  -14.3804   19.0465 C   0  0  0  0  0  0  0  0  0  0  0  0
    8.1963  -15.1309   19.6783 N   0  0  0  0  0  0  0  0  0  0  0  0
   10.6222  -15.9839   23.4506 C   0  0  0  0  0  0  0  0  0  0  0  0
   11.4261  -15.0437   23.6218 O   0  0  0  0  0  0  0  0  0  0  0  0
    8.3046  -19.2934   27.5704 N   0  0  0  0  0  0  0  0  0  0  0  0
    9.5759  -18.7367   27.8680 C   0  0  0  0  0  0  0  0  0  0  0  0
   10.2356  -19.0089   28.9023 O   0  0  0  0  0  0  0  0  0  0  0  0
   10.1566  -17.7776   26.8985 C   0  0  0  0  0  0  0  0  0  0  0  0
   11.3114  -18.4254   26.1393 C   0  0  0  0  0  0  0  0  0  0  0  0
   11.8359  -17.3899   25.1461 C   0  0  2  0  0  0  0  0  0  0  0  0
   10.7605  -17.1818   24.1870 N   0  0  0  0  0  0  0  0  0  0  0  0
   13.0588  -17.9214   24.5188 C   0  0  0  0  0  0  0  0  0  0  0  0
   13.0056  -18.7849   23.4598 O   0  0  0  0  0  0  0  0  0  0  0  0
   14.1614  -17.5576   24.9867 O   0  0  0  0  0  0  0  0  0  0  0  0
  2  1  1  1
  2  3  1  0
  3  4  1  0
  4  9  1  0
  4  5  2  0
  5  6  1  0
  6  7  2  0
  8  7  1  0
  9  8  2  0
 10  2  1  0
 10 11  2  0
 12 10  1  0
 13 12  1  0
 13 14  1  6
 15 14  1  0
 15 16  2  0
 17 16  1  0
 18 17  1  0
 19 18  2  0
 19 15  1  0
 20 13  1  0
 21 20  2  0
 23 22  1  0
 23 25  1  0
 24 23  2  0
 26 25  1  0
 27 26  1  1
 27 28  1  0
 28 20  1  0
 29 27  1  0
 29 30  1  0
 31 29  2  0
M  END
$$$$
