FHQ.pdb
     RDKit          3D

 31 32  0  0  1  0  0  0  0  0999 V2000
    6.1651  -15.5598   23.2385 N   0  0  0  0  0  0  0  0  0  0  0  0
    7.4059  -14.8527   23.4459 C   0  0  1  0  0  0  0  0  0  0  0  0
    7.7650  -14.7507   24.9258 C   0  0  0  0  0  0  0  0  0  0  0  0
    7.1302  -13.5652   25.5507 C   0  0  0  0  0  0  0  0  0  0  0  0
    6.3861  -13.7254   26.7066 C   0  0  0  0  0  0  0  0  0  0  0  0
    5.7653  -12.6332   27.3234 C   0  0  0  0  0  0  0  0  0  0  0  0
    5.8853  -11.3664   26.7855 C   0  0  0  0  0  0  0  0  0  0  0  0
    6.6244  -11.2029   25.6364 C   0  0  0  0  0  0  0  0  0  0  0  0
    7.2352  -12.2895   25.0334 C   0  0  0  0  0  0  0  0  0  0  0  0
    8.4781  -15.5520   22.6957 C   0  0  0  0  0  0  0  0  0  0  0  0
    8.7705  -16.7535   22.9479 O   0  0  0  0  0  0  0  0  0  0  0  0
    9.2068  -14.8883   21.6709 N   0  0  0  0  0  0  0  0  0  0  0  0
   10.2388  -15.4646   20.8643 C   0  0  1  0  0  0  0  0  0  0  0  0
   10.6319  -14.7158   19.6491 C   0  0  0  0  0  0  0  0  0  0  0  0
    9.5363  -14.3541   18.7829 C   0  0  0  0  0  0  0  0  0  0  0  0
    8.9324  -13.1610   18.5708 C   0  0  0  0  0  0  0  0  0  0  0  0
    7.9112  -13.2910   17.6619 N   0  0  0  0  0  0  0  0  0  0  0  0
    7.9097  -14.5948   17.3272 C   0  0  0  0  0  0  0  0  0  0  0  0
    8.8772  -15.2491   17.9894 N   0  0  0  0  0  0  0  0  0  0  0  0
   11.4469  -15.8022   21.7120 C   0  0  0  0  0  0  0  0  0  0  0  0
   12.2905  -14.8943   21.8661 O   0  0  0  0  0  0  0  0  0  0  0  0
   11.0650  -19.8095   26.0964 N   0  0  0  0  0  0  0  0  0  0  0  0
   10.6544  -18.4509   26.0787 C   0  0  0  0  0  0  0  0  0  0  0  0
    9.8280  -17.9577   26.8867 O   0  0  0  0  0  0  0  0  0  0  0  0
   11.2374  -17.5641   25.0438 C   0  0  0  0  0  0  0  0  0  0  0  0
   12.2877  -18.3170   24.2316 C   0  0  0  0  0  0  0  0  0  0  0  0
   12.7949  -17.3611   23.1532 C   0  0  2  0  0  0  0  0  0  0  0  0
   11.6430  -17.0656   22.3132 N   0  0  0  0  0  0  0  0  0  0  0  0
   13.8803  -18.0268   22.4115 C   0  0  0  0  0  0  0  0  0  0  0  0
   13.7018  -18.4866   21.1361 O   0  0  0  0  0  0  0  0  0  0  0  0
   14.9839  -18.1625   22.9867 O   0  0  0  0  0  0  0  0  0  0  0  0
  2  1  1  1
  2  3  1  0
  3  4  1  0
  4  9  1  0
  4  5  2  0
  5  6  1  0
  6  7  2  0
  8  7  1  0
  9  8  2  0
 10  2  1  0
 10 11  2  0
 12 10  1  0
 13 12  1  0
 13 14  1  6
 15 14  1  0
 15 16  2  0
 17 16  1  0
 18 17  1  0
 19 18  2  0
 19 15  1  0
 20 13  1  0
 21 20  2  0
 23 22  1  0
 23 25  1  0
 24 23  2  0
 26 25  1  0
 27 26  1  1
 27 28  1  0
 28 20  1  0
 29 27  1  0
 29 30  1  0
 31 29  2  0
M  END
$$$$
