FHQ.pdb
     RDKit          3D

 31 32  0  0  1  0  0  0  0  0999 V2000
    7.3327  -16.0222   25.6688 N   0  0  0  0  0  0  0  0  0  0  0  0
    6.9305  -14.9748   24.7612 C   0  0  1  0  0  0  0  0  0  0  0  0
    7.6397  -13.6568   25.0593 C   0  0  0  0  0  0  0  0  0  0  0  0
    7.1611  -13.0668   26.3329 C   0  0  0  0  0  0  0  0  0  0  0  0
    7.8898  -13.2733   27.4913 C   0  0  0  0  0  0  0  0  0  0  0  0
    7.4684  -12.7396   28.7145 C   0  0  0  0  0  0  0  0  0  0  0  0
    6.3093  -11.9916   28.7880 C   0  0  0  0  0  0  0  0  0  0  0  0
    5.5820  -11.7840   27.6384 C   0  0  0  0  0  0  0  0  0  0  0  0
    6.0070  -12.3159   26.4327 C   0  0  0  0  0  0  0  0  0  0  0  0
    7.2145  -15.4182   23.3741 C   0  0  0  0  0  0  0  0  0  0  0  0
    7.2702  -16.6447   23.0822 O   0  0  0  0  0  0  0  0  0  0  0  0
    7.4318  -14.4736   22.3337 N   0  0  0  0  0  0  0  0  0  0  0  0
    7.8352  -14.7753   20.9943 C   0  0  1  0  0  0  0  0  0  0  0  0
    7.5048  -13.7725   19.9564 C   0  0  0  0  0  0  0  0  0  0  0  0
    7.9755  -14.0980   18.6320 C   0  0  0  0  0  0  0  0  0  0  0  0
    8.5014  -13.3133   17.6620 C   0  0  0  0  0  0  0  0  0  0  0  0
    8.7964  -14.0570   16.5458 N   0  0  0  0  0  0  0  0  0  0  0  0
    8.4354  -15.3145   16.8625 C   0  0  0  0  0  0  0  0  0  0  0  0
    7.9406  -15.3593   18.1098 N   0  0  0  0  0  0  0  0  0  0  0  0
    9.3041  -15.1396   20.9532 C   0  0  0  0  0  0  0  0  0  0  0  0
   10.0671  -14.4590   21.6703 O   0  0  0  0  0  0  0  0  0  0  0  0
   12.2925  -18.0795   23.8403 N   0  0  0  0  0  0  0  0  0  0  0  0
   11.1516  -18.6432   23.2116 C   0  0  0  0  0  0  0  0  0  0  0  0
   10.4948  -19.6051   23.6833 O   0  0  0  0  0  0  0  0  0  0  0  0
   10.7119  -18.0598   21.9219 C   0  0  0  0  0  0  0  0  0  0  0  0
   11.6344  -16.9132   21.5172 C   0  0  0  0  0  0  0  0  0  0  0  0
   11.2421  -16.4968   20.1006 C   0  0  2  0  0  0  0  0  0  0  0  0
    9.8206  -16.1877   20.1588 N   0  0  0  0  0  0  0  0  0  0  0  0
   11.5418  -17.6122   19.1856 C   0  0  0  0  0  0  0  0  0  0  0  0
   10.5497  -18.3042   18.5477 O   0  0  0  0  0  0  0  0  0  0  0  0
   12.7433  -17.9138   19.0053 O   0  0  0  0  0  0  0  0  0  0  0  0
  2  1  1  1
  2  3  1  0
  3  4  1  0
  4  9  1  0
  4  5  2  0
  5  6  1  0
  6  7  2  0
  8  7  1  0
  9  8  2  0
 10  2  1  0
 10 11  2  0
 12 10  1  0
 13 12  1  0
 13 14  1  6
 15 14  1  0
 15 16  2  0
 17 16  1  0
 18 17  1  0
 19 18  2  0
 19 15  1  0
 20 13  1  0
 21 20  2  0
 23 22  1  0
 23 25  1  0
 24 23  2  0
 26 25  1  0
 27 26  1  1
 27 28  1  0
 28 20  1  0
 29 27  1  0
 29 30  1  0
 31 29  2  0
M  END
$$$$
