NQF.pdb
     RDKit          3D

 29 29  0  0  1  0  0  0  0  0999 V2000
    8.7434  -12.4832   17.8047 N   0  0  0  0  0  0  0  0  0  0  0  0
    7.9487  -13.6112   17.4879 C   0  0  0  0  0  0  0  0  0  0  0  0
    7.5497  -13.7584   16.3146 O   0  0  0  0  0  0  0  0  0  0  0  0
    7.5901  -14.6045   18.5169 C   0  0  0  0  0  0  0  0  0  0  0  0
    8.0670  -14.1146   19.8497 C   0  0  2  0  0  0  0  0  0  0  0  0
    9.4015  -13.6098   19.8367 N   0  0  0  0  0  0  0  0  0  0  0  0
    7.9522  -15.1572   20.9102 C   0  0  0  0  0  0  0  0  0  0  0  0
    6.8453  -15.7181   21.1597 O   0  0  0  0  0  0  0  0  0  0  0  0
   11.5403  -19.7434   21.4306 N   0  0  0  0  0  0  0  0  0  0  0  0
   10.3282  -19.6572   20.7041 C   0  0  0  0  0  0  0  0  0  0  0  0
   10.0556  -20.4773   19.8004 O   0  0  0  0  0  0  0  0  0  0  0  0
    9.3669  -18.5478   21.0461 C   0  0  0  0  0  0  0  0  0  0  0  0
    9.9410  -17.7463   22.1815 C   0  0  0  0  0  0  0  0  0  0  0  0
    9.0834  -16.6212   22.6358 C   0  0  2  0  0  0  0  0  0  0  0  0
    9.0780  -15.5294   21.6472 N   0  0  0  0  0  0  0  0  0  0  0  0
    9.4384  -16.0817   23.9527 C   0  0  0  0  0  0  0  0  0  0  0  0
   10.4528  -15.3318   24.0876 O   0  0  0  0  0  0  0  0  0  0  0  0
    8.6359  -16.4079   25.0705 N   0  0  0  0  0  0  0  0  0  0  0  0
    8.9752  -15.8945   26.3714 C   0  0  1  0  0  0  0  0  0  0  0  0
    7.6512  -15.4553   26.9859 C   0  0  0  0  0  0  0  0  0  0  0  0
    7.2332  -14.1327   26.5390 C   0  0  0  0  0  0  0  0  0  0  0  0
    6.0564  -13.9717   25.8627 C   0  0  0  0  0  0  0  0  0  0  0  0
    5.6234  -12.7139   25.4275 C   0  0  0  0  0  0  0  0  0  0  0  0
    6.4049  -11.6073   25.6875 C   0  0  0  0  0  0  0  0  0  0  0  0
    7.6037  -11.7626   26.3748 C   0  0  0  0  0  0  0  0  0  0  0  0
    8.0144  -13.0319   26.7996 C   0  0  0  0  0  0  0  0  0  0  0  0
    9.5686  -17.0009   27.1566 C   0  0  0  0  0  0  0  0  0  0  0  0
    9.7080  -18.3016   26.6846 O   0  0  0  0  0  0  0  0  0  0  0  0
    9.9974  -16.8199   28.3456 O   0  0  0  0  0  0  0  0  0  0  0  0
  2  1  1  0
  2  3  2  0
  4  2  1  0
  4  5  1  0
  5  6  1  6
  5  7  1  0
  7  8  2  0
  9 10  1  0
 10 11  2  0
 10 12  1  0
 12 13  1  0
 14 13  1  6
 15  7  1  0
 15 14  1  0
 16 17  2  0
 16 14  1  0
 18 16  1  0
 19 18  1  0
 19 20  1  1
 21 22  2  0
 21 20  1  0
 23 22  1  0
 24 23  2  0
 25 24  1  0
 25 26  2  0
 26 21  1  0
 27 28  1  0
 27 19  1  0
 29 27  2  0
M  END
$$$$
