NQF.pdb
     RDKit          3D

 29 29  0  0  1  0  0  0  0  0999 V2000
    6.5229  -12.6948   19.5061 N   0  0  0  0  0  0  0  0  0  0  0  0
    7.6119  -13.5972   19.5710 C   0  0  0  0  0  0  0  0  0  0  0  0
    8.4315  -13.6231   18.6302 O   0  0  0  0  0  0  0  0  0  0  0  0
    7.7879  -14.4980   20.7250 C   0  0  0  0  0  0  0  0  0  0  0  0
    8.3368  -15.8045   20.2399 C   0  0  2  0  0  0  0  0  0  0  0  0
    7.7800  -16.2416   19.0010 N   0  0  0  0  0  0  0  0  0  0  0  0
    8.1869  -16.8915   21.2503 C   0  0  0  0  0  0  0  0  0  0  0  0
    7.6503  -17.9972   20.9477 O   0  0  0  0  0  0  0  0  0  0  0  0
   13.3396  -18.6875   21.2027 N   0  0  0  0  0  0  0  0  0  0  0  0
   12.8284  -17.4256   20.8144 C   0  0  0  0  0  0  0  0  0  0  0  0
   13.5871  -16.5140   20.4186 O   0  0  0  0  0  0  0  0  0  0  0  0
   11.3394  -17.2036   20.8890 C   0  0  0  0  0  0  0  0  0  0  0  0
   11.0300  -16.4302   22.1408 C   0  0  0  0  0  0  0  0  0  0  0  0
    9.9979  -17.0528   23.0095 C   0  0  2  0  0  0  0  0  0  0  0  0
    8.6423  -16.6980   22.5558 N   0  0  0  0  0  0  0  0  0  0  0  0
   10.1318  -16.7331   24.4347 C   0  0  0  0  0  0  0  0  0  0  0  0
   11.2453  -16.8812   25.0245 O   0  0  0  0  0  0  0  0  0  0  0  0
    9.0043  -16.2576   25.1436 N   0  0  0  0  0  0  0  0  0  0  0  0
    8.9663  -16.3539   26.5789 C   0  0  1  0  0  0  0  0  0  0  0  0
    7.6672  -15.6716   26.9914 C   0  0  0  0  0  0  0  0  0  0  0  0
    7.6449  -14.2530   26.6585 C   0  0  0  0  0  0  0  0  0  0  0  0
    8.2470  -13.3410   27.4795 C   0  0  0  0  0  0  0  0  0  0  0  0
    8.2499  -11.9731   27.1836 C   0  0  0  0  0  0  0  0  0  0  0  0
    7.6287  -11.5332   26.0332 C   0  0  0  0  0  0  0  0  0  0  0  0
    7.0136  -12.4545   25.1927 C   0  0  0  0  0  0  0  0  0  0  0  0
    7.0248  -13.8178   25.5112 C   0  0  0  0  0  0  0  0  0  0  0  0
    8.9333  -17.7903   26.9378 C   0  0  0  0  0  0  0  0  0  0  0  0
    9.3345  -18.2931   28.1707 O   0  0  0  0  0  0  0  0  0  0  0  0
    8.5243  -18.6747   26.1126 O   0  0  0  0  0  0  0  0  0  0  0  0
  2  1  1  0
  2  3  2  0
  4  2  1  0
  4  5  1  0
  5  6  1  6
  5  7  1  0
  7  8  2  0
  9 10  1  0
 10 11  2  0
 10 12  1  0
 12 13  1  0
 14 13  1  6
 15  7  1  0
 15 14  1  0
 16 17  2  0
 16 14  1  0
 18 16  1  0
 19 18  1  0
 19 20  1  6
 21 22  2  0
 21 20  1  0
 23 22  1  0
 24 23  2  0
 25 24  1  0
 25 26  2  0
 26 21  1  0
 27 28  1  0
 27 19  1  0
 29 27  2  0
M  END
$$$$
