NQF.pdb
     RDKit          3D

 29 29  0  0  1  0  0  0  0  0999 V2000
    7.5825  -12.4159   17.6738 N   0  0  0  0  0  0  0  0  0  0  0  0
    7.9702  -13.5576   18.4160 C   0  0  0  0  0  0  0  0  0  0  0  0
    8.6473  -14.4421   17.8534 O   0  0  0  0  0  0  0  0  0  0  0  0
    7.5875  -13.7129   19.8315 C   0  0  0  0  0  0  0  0  0  0  0  0
    8.3403  -14.8703   20.4122 C   0  0  2  0  0  0  0  0  0  0  0  0
    8.3727  -16.0210   19.5690 N   0  0  0  0  0  0  0  0  0  0  0  0
    7.8231  -15.2659   21.7542 C   0  0  0  0  0  0  0  0  0  0  0  0
    7.5564  -14.3970   22.6352 O   0  0  0  0  0  0  0  0  0  0  0  0
    6.4417  -21.1834   23.1816 N   0  0  0  0  0  0  0  0  0  0  0  0
    6.1153  -20.6017   24.4306 C   0  0  0  0  0  0  0  0  0  0  0  0
    5.6383  -21.2891   25.3596 O   0  0  0  0  0  0  0  0  0  0  0  0
    6.3570  -19.1257   24.6168 C   0  0  0  0  0  0  0  0  0  0  0  0
    6.8884  -18.5586   23.3297 C   0  0  0  0  0  0  0  0  0  0  0  0
    7.1698  -17.1001   23.3695 C   0  0  2  0  0  0  0  0  0  0  0  0
    7.6257  -16.6146   22.0558 N   0  0  0  0  0  0  0  0  0  0  0  0
    8.1350  -16.6968   24.3976 C   0  0  0  0  0  0  0  0  0  0  0  0
    9.3757  -16.6604   24.1352 O   0  0  0  0  0  0  0  0  0  0  0  0
    7.6655  -16.3489   25.6855 N   0  0  0  0  0  0  0  0  0  0  0  0
    8.5884  -15.8695   26.6802 C   0  0  1  0  0  0  0  0  0  0  0  0
    7.7652  -14.9587   27.5836 C   0  0  0  0  0  0  0  0  0  0  0  0
    7.4339  -13.6878   26.9521 C   0  0  0  0  0  0  0  0  0  0  0  0
    6.1295  -13.3491   26.7236 C   0  0  0  0  0  0  0  0  0  0  0  0
    5.7783  -12.1330   26.1265 C   0  0  0  0  0  0  0  0  0  0  0  0
    6.7747  -11.2528   25.7585 C   0  0  0  0  0  0  0  0  0  0  0  0
    8.1042  -11.5899   25.9873 C   0  0  0  0  0  0  0  0  0  0  0  0
    8.4292  -12.8129   26.5864 C   0  0  0  0  0  0  0  0  0  0  0  0
    9.0868  -17.0390   27.4397 C   0  0  0  0  0  0  0  0  0  0  0  0
    8.6816  -18.3485   27.2051 O   0  0  0  0  0  0  0  0  0  0  0  0
    9.9400  -16.9089   28.3807 O   0  0  0  0  0  0  0  0  0  0  0  0
  2  1  1  0
  2  3  2  0
  4  2  1  0
  4  5  1  0
  5  6  1  6
  5  7  1  0
  7  8  2  0
  9 10  1  0
 10 11  2  0
 10 12  1  0
 12 13  1  0
 14 13  1  6
 15  7  1  0
 15 14  1  0
 16 17  2  0
 16 14  1  0
 18 16  1  0
 19 18  1  0
 19 20  1  1
 21 22  2  0
 21 20  1  0
 23 22  1  0
 24 23  2  0
 25 24  1  0
 25 26  2  0
 26 21  1  0
 27 28  1  0
 27 19  1  0
 29 27  2  0
M  END
$$$$
