NQF.pdb
     RDKit          3D

 29 29  0  0  1  0  0  0  0  0999 V2000
   12.1718  -19.6660   18.3958 N   0  0  0  0  0  0  0  0  0  0  0  0
   10.9400  -18.9898   18.2226 C   0  0  0  0  0  0  0  0  0  0  0  0
    9.9824  -19.6022   17.7073 O   0  0  0  0  0  0  0  0  0  0  0  0
   10.7761  -17.5850   18.6393 C   0  0  0  0  0  0  0  0  0  0  0  0
   10.0587  -17.5506   19.9537 C   0  0  2  0  0  0  0  0  0  0  0  0
    8.6871  -17.9357   19.8745 N   0  0  0  0  0  0  0  0  0  0  0  0
   10.1512  -16.2163   20.6142 C   0  0  0  0  0  0  0  0  0  0  0  0
   11.2722  -15.6723   20.8368 O   0  0  0  0  0  0  0  0  0  0  0  0
    6.8302  -15.1397   19.2495 N   0  0  0  0  0  0  0  0  0  0  0  0
    7.4671  -14.0261   18.6503 C   0  0  0  0  0  0  0  0  0  0  0  0
    7.5477  -13.9182   17.4073 O   0  0  0  0  0  0  0  0  0  0  0  0
    8.0498  -12.9664   19.5499 C   0  0  0  0  0  0  0  0  0  0  0  0
    7.8540  -13.3878   20.9799 C   0  0  0  0  0  0  0  0  0  0  0  0
    8.9761  -14.1794   21.5473 C   0  0  2  0  0  0  0  0  0  0  0  0
    8.9883  -15.5460   20.9982 N   0  0  0  0  0  0  0  0  0  0  0  0
    8.9919  -14.2449   23.0125 C   0  0  0  0  0  0  0  0  0  0  0  0
    9.0721  -13.1831   23.7022 O   0  0  0  0  0  0  0  0  0  0  0  0
    8.9165  -15.5064   23.6471 N   0  0  0  0  0  0  0  0  0  0  0  0
    8.7551  -15.5827   25.0751 C   0  0  1  0  0  0  0  0  0  0  0  0
    7.2960  -15.2245   25.3323 C   0  0  0  0  0  0  0  0  0  0  0  0
    7.1370  -13.9114   25.9441 C   0  0  0  0  0  0  0  0  0  0  0  0
    8.2315  -13.1403   26.2195 C   0  0  0  0  0  0  0  0  0  0  0  0
    8.1117  -11.8721   26.7991 C   0  0  0  0  0  0  0  0  0  0  0  0
    6.8559  -11.3873   27.1008 C   0  0  0  0  0  0  0  0  0  0  0  0
    5.7374  -12.1656   26.8241 C   0  0  0  0  0  0  0  0  0  0  0  0
    5.8842  -13.4312   26.2437 C   0  0  0  0  0  0  0  0  0  0  0  0
    9.0266  -16.9781   25.4897 C   0  0  0  0  0  0  0  0  0  0  0  0
    9.2402  -17.3703   26.8068 O   0  0  0  0  0  0  0  0  0  0  0  0
    9.0829  -17.9280   24.6383 O   0  0  0  0  0  0  0  0  0  0  0  0
  2  1  1  0
  2  3  2  0
  4  2  1  0
  4  5  1  0
  5  6  1  6
  5  7  1  0
  7  8  2  0
  9 10  1  0
 10 11  2  0
 10 12  1  0
 12 13  1  0
 14 13  1  1
 15  7  1  0
 15 14  1  0
 16 17  2  0
 16 14  1  0
 18 16  1  0
 19 18  1  0
 19 20  1  6
 21 22  2  0
 21 20  1  0
 23 22  1  0
 24 23  2  0
 25 24  1  0
 25 26  2  0
 26 21  1  0
 27 28  1  0
 27 19  1  0
 29 27  2  0
M  END
$$$$
