NQF.pdb
     RDKit          3D

 29 29  0  0  1  0  0  0  0  0999 V2000
    5.0913  -20.1326   18.1645 N   0  0  0  0  0  0  0  0  0  0  0  0
    5.3388  -19.2772   19.2652 C   0  0  0  0  0  0  0  0  0  0  0  0
    4.6363  -19.3934   20.2901 O   0  0  0  0  0  0  0  0  0  0  0  0
    6.4058  -18.2607   19.2161 C   0  0  0  0  0  0  0  0  0  0  0  0
    7.3162  -18.4576   20.3892 C   0  0  2  0  0  0  0  0  0  0  0  0
    6.6437  -18.4711   21.6475 N   0  0  0  0  0  0  0  0  0  0  0  0
    8.4095  -17.4438   20.4335 C   0  0  0  0  0  0  0  0  0  0  0  0
    9.0712  -17.1488   19.3957 O   0  0  0  0  0  0  0  0  0  0  0  0
    8.4472  -12.1665   19.2862 N   0  0  0  0  0  0  0  0  0  0  0  0
    8.5035  -13.4447   18.6799 C   0  0  0  0  0  0  0  0  0  0  0  0
    7.9812  -13.6550   17.5635 O   0  0  0  0  0  0  0  0  0  0  0  0
    9.2116  -14.5540   19.4146 C   0  0  0  0  0  0  0  0  0  0  0  0
    8.8283  -14.4908   20.8672 C   0  0  0  0  0  0  0  0  0  0  0  0
    9.4606  -15.5333   21.7164 C   0  0  2  0  0  0  0  0  0  0  0  0
    8.7177  -16.8025   21.6347 N   0  0  0  0  0  0  0  0  0  0  0  0
    9.6200  -15.1540   23.1242 C   0  0  0  0  0  0  0  0  0  0  0  0
   10.4008  -14.2088   23.4505 O   0  0  0  0  0  0  0  0  0  0  0  0
    8.8923  -15.8549   24.1137 N   0  0  0  0  0  0  0  0  0  0  0  0
    9.1190  -15.5717   25.5063 C   0  0  1  0  0  0  0  0  0  0  0  0
    7.7364  -15.5868   26.1479 C   0  0  0  0  0  0  0  0  0  0  0  0
    7.0581  -14.3002   26.0564 C   0  0  0  0  0  0  0  0  0  0  0  0
    7.7802  -13.1411   25.9980 C   0  0  0  0  0  0  0  0  0  0  0  0
    7.1588  -11.8907   25.9016 C   0  0  0  0  0  0  0  0  0  0  0  0
    5.7814  -11.8261   25.8649 C   0  0  0  0  0  0  0  0  0  0  0  0
    5.0395  -13.0007   25.9242 C   0  0  0  0  0  0  0  0  0  0  0  0
    5.6852  -14.2392   26.0202 C   0  0  0  0  0  0  0  0  0  0  0  0
    9.9589  -16.6581   26.0607 C   0  0  0  0  0  0  0  0  0  0  0  0
   10.4445  -17.7246   25.3118 O   0  0  0  0  0  0  0  0  0  0  0  0
   10.2942  -16.6795   27.2925 O   0  0  0  0  0  0  0  0  0  0  0  0
  2  1  1  0
  2  3  2  0
  4  2  1  0
  4  5  1  0
  5  6  1  1
  5  7  1  0
  7  8  2  0
  9 10  1  0
 10 11  2  0
 10 12  1  0
 12 13  1  0
 14 13  1  6
 15  7  1  0
 15 14  1  0
 16 17  2  0
 16 14  1  0
 18 16  1  0
 19 18  1  0
 19 20  1  1
 21 22  2  0
 21 20  1  0
 23 22  1  0
 24 23  2  0
 25 24  1  0
 25 26  2  0
 26 21  1  0
 27 28  1  0
 27 19  1  0
 29 27  2  0
M  END
$$$$
