NQF.pdb
     RDKit          3D

 29 29  0  0  1  0  0  0  0  0999 V2000
    8.0796  -12.7036   16.1208 N   0  0  0  0  0  0  0  0  0  0  0  0
    7.9841  -14.1161   16.1319 C   0  0  0  0  0  0  0  0  0  0  0  0
    8.1936  -14.7438   15.0738 O   0  0  0  0  0  0  0  0  0  0  0  0
    7.6435  -14.8476   17.3660 C   0  0  0  0  0  0  0  0  0  0  0  0
    8.8796  -14.9925   18.1996 C   0  0  2  0  0  0  0  0  0  0  0  0
    9.9237  -15.7276   17.5630 N   0  0  0  0  0  0  0  0  0  0  0  0
    8.5964  -15.6042   19.5302 C   0  0  0  0  0  0  0  0  0  0  0  0
    7.6687  -15.1627   20.2697 O   0  0  0  0  0  0  0  0  0  0  0  0
   11.4797  -20.7805   21.4854 N   0  0  0  0  0  0  0  0  0  0  0  0
   10.8169  -20.4652   22.6962 C   0  0  0  0  0  0  0  0  0  0  0  0
   10.9519  -21.1801   23.7130 O   0  0  0  0  0  0  0  0  0  0  0  0
    9.9391  -19.2404   22.7328 C   0  0  0  0  0  0  0  0  0  0  0  0
    9.9903  -18.5710   21.3874 C   0  0  0  0  0  0  0  0  0  0  0  0
    9.1513  -17.3498   21.2754 C   0  0  2  0  0  0  0  0  0  0  0  0
    9.3608  -16.6827   19.9790 N   0  0  0  0  0  0  0  0  0  0  0  0
    9.3460  -16.3792   22.3577 C   0  0  0  0  0  0  0  0  0  0  0  0
   10.4408  -15.7472   22.4647 O   0  0  0  0  0  0  0  0  0  0  0  0
    8.2980  -16.1564   23.2807 N   0  0  0  0  0  0  0  0  0  0  0  0
    8.4463  -15.1589   24.3075 C   0  0  1  0  0  0  0  0  0  0  0  0
    7.2624  -14.2166   24.1237 C   0  0  0  0  0  0  0  0  0  0  0  0
    7.1751  -13.2092   25.1732 C   0  0  0  0  0  0  0  0  0  0  0  0
    6.1917  -13.2810   26.1198 C   0  0  0  0  0  0  0  0  0  0  0  0
    6.0860  -12.3340   27.1449 C   0  0  0  0  0  0  0  0  0  0  0  0
    6.9981  -11.3006   27.2015 C   0  0  0  0  0  0  0  0  0  0  0  0
    8.0014  -11.2203   26.2421 C   0  0  0  0  0  0  0  0  0  0  0  0
    8.0855  -12.1805   25.2267 C   0  0  0  0  0  0  0  0  0  0  0  0
    8.3663  -15.8411   25.6194 C   0  0  0  0  0  0  0  0  0  0  0  0
    9.0880  -15.4529   26.7429 O   0  0  0  0  0  0  0  0  0  0  0  0
    7.6098  -16.8539   25.7995 O   0  0  0  0  0  0  0  0  0  0  0  0
  2  1  1  0
  2  3  2  0
  4  2  1  0
  4  5  1  0
  5  6  1  6
  5  7  1  0
  7  8  2  0
  9 10  1  0
 10 11  2  0
 10 12  1  0
 12 13  1  0
 14 13  1  1
 15  7  1  0
 15 14  1  0
 16 17  2  0
 16 14  1  0
 18 16  1  0
 19 18  1  0
 19 20  1  1
 21 22  2  0
 21 20  1  0
 23 22  1  0
 24 23  2  0
 25 24  1  0
 25 26  2  0
 26 21  1  0
 27 28  1  0
 27 19  1  0
 29 27  2  0
M  END
$$$$
