NQF.pdb
     RDKit          3D

 29 29  0  0  1  0  0  0  0  0999 V2000
    9.0848  -15.8625   16.1162 N   0  0  0  0  0  0  0  0  0  0  0  0
    8.1046  -16.6901   16.7152 C   0  0  0  0  0  0  0  0  0  0  0  0
    7.6948  -17.6898   16.0905 O   0  0  0  0  0  0  0  0  0  0  0  0
    7.5672  -16.3886   18.0547 C   0  0  0  0  0  0  0  0  0  0  0  0
    8.4521  -17.0206   19.0848 C   0  0  2  0  0  0  0  0  0  0  0  0
    8.5576  -18.4386   18.9654 N   0  0  0  0  0  0  0  0  0  0  0  0
    8.0344  -16.6800   20.4756 C   0  0  0  0  0  0  0  0  0  0  0  0
    7.9754  -15.4772   20.8655 O   0  0  0  0  0  0  0  0  0  0  0  0
    3.7572  -20.6741   23.0013 N   0  0  0  0  0  0  0  0  0  0  0  0
    5.1707  -20.6006   22.9652 C   0  0  0  0  0  0  0  0  0  0  0  0
    5.8784  -21.4931   23.4808 O   0  0  0  0  0  0  0  0  0  0  0  0
    5.8079  -19.4150   22.2870 C   0  0  0  0  0  0  0  0  0  0  0  0
    6.5521  -18.6129   23.3184 C   0  0  0  0  0  0  0  0  0  0  0  0
    7.3069  -17.4560   22.7712 C   0  0  2  0  0  0  0  0  0  0  0  0
    7.7002  -17.6966   21.3723 N   0  0  0  0  0  0  0  0  0  0  0  0
    8.4915  -17.0815   23.5508 C   0  0  0  0  0  0  0  0  0  0  0  0
    9.6352  -17.5335   23.2388 O   0  0  0  0  0  0  0  0  0  0  0  0
    8.3432  -16.2102   24.6547 N   0  0  0  0  0  0  0  0  0  0  0  0
    9.4883  -15.8652   25.4553 C   0  0  1  0  0  0  0  0  0  0  0  0
    9.7173  -14.3790   25.2063 C   0  0  0  0  0  0  0  0  0  0  0  0
    8.5655  -13.5626   25.5677 C   0  0  0  0  0  0  0  0  0  0  0  0
    7.5721  -13.3280   24.6585 C   0  0  0  0  0  0  0  0  0  0  0  0
    6.4497  -12.5552   24.9772 C   0  0  0  0  0  0  0  0  0  0  0  0
    6.3428  -12.0155   26.2423 C   0  0  0  0  0  0  0  0  0  0  0  0
    7.3492  -12.2492   27.1730 C   0  0  0  0  0  0  0  0  0  0  0  0
    8.4620  -13.0260   26.8292 C   0  0  0  0  0  0  0  0  0  0  0  0
    9.1400  -16.1048   26.8745 C   0  0  0  0  0  0  0  0  0  0  0  0
    7.9002  -16.5660   27.3037 O   0  0  0  0  0  0  0  0  0  0  0  0
    9.9808  -15.8949   27.8122 O   0  0  0  0  0  0  0  0  0  0  0  0
  2  1  1  0
  2  3  2  0
  4  2  1  0
  4  5  1  0
  5  6  1  1
  5  7  1  0
  7  8  2  0
  9 10  1  0
 10 11  2  0
 10 12  1  0
 12 13  1  0
 14 13  1  1
 15  7  1  0
 15 14  1  0
 16 17  2  0
 16 14  1  0
 18 16  1  0
 19 18  1  0
 19 20  1  1
 21 22  2  0
 21 20  1  0
 23 22  1  0
 24 23  2  0
 25 24  1  0
 25 26  2  0
 26 21  1  0
 27 28  1  0
 27 19  1  0
 29 27  2  0
M  END
$$$$
