NQF.pdb
     RDKit          3D

 29 29  0  0  1  0  0  0  0  0999 V2000
    7.2909  -13.1391   16.1108 N   0  0  0  0  0  0  0  0  0  0  0  0
    8.4270  -13.7723   16.6702 C   0  0  0  0  0  0  0  0  0  0  0  0
    9.3904  -14.0502   15.9271 O   0  0  0  0  0  0  0  0  0  0  0  0
    8.4855  -14.1041   18.1056 C   0  0  0  0  0  0  0  0  0  0  0  0
    8.9886  -15.5067   18.2581 C   0  0  2  0  0  0  0  0  0  0  0  0
    8.4197  -16.4294   17.3302 N   0  0  0  0  0  0  0  0  0  0  0  0
    8.7974  -16.0293   19.6420 C   0  0  0  0  0  0  0  0  0  0  0  0
    7.7539  -15.7592   20.3055 O   0  0  0  0  0  0  0  0  0  0  0  0
   12.8111  -20.0498   21.6214 N   0  0  0  0  0  0  0  0  0  0  0  0
   11.6478  -20.5587   20.9951 C   0  0  0  0  0  0  0  0  0  0  0  0
   11.6527  -21.6734   20.4288 O   0  0  0  0  0  0  0  0  0  0  0  0
   10.3948  -19.7216   21.0261 C   0  0  0  0  0  0  0  0  0  0  0  0
   10.6751  -18.4637   21.8007 C   0  0  0  0  0  0  0  0  0  0  0  0
    9.6829  -17.3778   21.5909 C   0  0  2  0  0  0  0  0  0  0  0  0
    9.7794  -16.8312   20.2266 N   0  0  0  0  0  0  0  0  0  0  0  0
    9.7706  -16.2808   22.5606 C   0  0  0  0  0  0  0  0  0  0  0  0
   10.7388  -15.4621   22.5186 O   0  0  0  0  0  0  0  0  0  0  0  0
    8.7623  -16.1469   23.5431 N   0  0  0  0  0  0  0  0  0  0  0  0
    8.8195  -15.0615   24.4864 C   0  0  1  0  0  0  0  0  0  0  0  0
    7.4135  -14.4731   24.5048 C   0  0  0  0  0  0  0  0  0  0  0  0
    7.2479  -13.4396   25.5188 C   0  0  0  0  0  0  0  0  0  0  0  0
    7.6826  -13.6501   26.7975 C   0  0  0  0  0  0  0  0  0  0  0  0
    7.5455  -12.6747   27.7918 C   0  0  0  0  0  0  0  0  0  0  0  0
    6.9558  -11.4690   27.4733 C   0  0  0  0  0  0  0  0  0  0  0  0
    6.5106  -11.2470   26.1748 C   0  0  0  0  0  0  0  0  0  0  0  0
    6.6596  -12.2391   25.1982 C   0  0  0  0  0  0  0  0  0  0  0  0
    9.1612  -15.6278   25.8113 C   0  0  0  0  0  0  0  0  0  0  0  0
    8.9280  -16.9495   26.1756 O   0  0  0  0  0  0  0  0  0  0  0  0
    9.7036  -14.9151   26.7215 O   0  0  0  0  0  0  0  0  0  0  0  0
  2  1  1  0
  2  3  2  0
  4  2  1  0
  4  5  1  0
  5  6  1  6
  5  7  1  0
  7  8  2  0
  9 10  1  0
 10 11  2  0
 10 12  1  0
 12 13  1  0
 14 13  1  1
 15  7  1  0
 15 14  1  0
 16 17  2  0
 16 14  1  0
 18 16  1  0
 19 18  1  0
 19 20  1  1
 21 22  2  0
 21 20  1  0
 23 22  1  0
 24 23  2  0
 25 24  1  0
 25 26  2  0
 26 21  1  0
 27 28  1  0
 27 19  1  0
 29 27  2  0
M  END
$$$$
