NQF.pdb
     RDKit          3D

 29 29  0  0  1  0  0  0  0  0999 V2000
    7.7115  -12.0210   17.7089 N   0  0  0  0  0  0  0  0  0  0  0  0
    7.7939  -13.4289   17.8338 C   0  0  0  0  0  0  0  0  0  0  0  0
    8.2443  -14.0944   16.8791 O   0  0  0  0  0  0  0  0  0  0  0  0
    7.3584  -14.1118   19.0659 C   0  0  0  0  0  0  0  0  0  0  0  0
    8.4827  -14.0888   20.0553 C   0  0  2  0  0  0  0  0  0  0  0  0
    9.7490  -14.4415   19.5004 N   0  0  0  0  0  0  0  0  0  0  0  0
    8.2128  -14.9553   21.2391 C   0  0  0  0  0  0  0  0  0  0  0  0
    7.1465  -14.8335   21.9101 O   0  0  0  0  0  0  0  0  0  0  0  0
    8.0029  -21.3354   21.9349 N   0  0  0  0  0  0  0  0  0  0  0  0
    8.9891  -20.4352   21.4638 C   0  0  0  0  0  0  0  0  0  0  0  0
   10.1247  -20.8368   21.1288 O   0  0  0  0  0  0  0  0  0  0  0  0
    8.6375  -18.9723   21.3743 C   0  0  0  0  0  0  0  0  0  0  0  0
    9.4594  -18.2170   22.3817 C   0  0  0  0  0  0  0  0  0  0  0  0
    8.9278  -16.8730   22.7263 C   0  0  2  0  0  0  0  0  0  0  0  0
    9.1448  -15.9211   21.6235 N   0  0  0  0  0  0  0  0  0  0  0  0
    9.4664  -16.3081   23.9681 C   0  0  0  0  0  0  0  0  0  0  0  0
   10.6110  -15.7612   23.9817 O   0  0  0  0  0  0  0  0  0  0  0  0
    8.6940  -16.3807   25.1505 N   0  0  0  0  0  0  0  0  0  0  0  0
    9.2557  -15.9462   26.4022 C   0  0  1  0  0  0  0  0  0  0  0  0
    8.1019  -15.2912   27.1525 C   0  0  0  0  0  0  0  0  0  0  0  0
    7.8038  -13.9493   26.6684 C   0  0  0  0  0  0  0  0  0  0  0  0
    6.5512  -13.6399   26.2173 C   0  0  0  0  0  0  0  0  0  0  0  0
    6.2312  -12.3587   25.7537 C   0  0  0  0  0  0  0  0  0  0  0  0
    7.2056  -11.3822   25.7516 C   0  0  0  0  0  0  0  0  0  0  0  0
    8.4826  -11.6890   26.2086 C   0  0  0  0  0  0  0  0  0  0  0  0
    8.7772  -12.9785   26.6674 C   0  0  0  0  0  0  0  0  0  0  0  0
    9.7309  -17.1460   27.1285 C   0  0  0  0  0  0  0  0  0  0  0  0
   10.5312  -17.1008   28.2649 O   0  0  0  0  0  0  0  0  0  0  0  0
    9.4257  -18.3241   26.7419 O   0  0  0  0  0  0  0  0  0  0  0  0
  2  1  1  0
  2  3  2  0
  4  2  1  0
  4  5  1  0
  5  6  1  6
  5  7  1  0
  7  8  2  0
  9 10  1  0
 10 11  2  0
 10 12  1  0
 12 13  1  0
 14 13  1  6
 15  7  1  0
 15 14  1  0
 16 17  2  0
 16 14  1  0
 18 16  1  0
 19 18  1  0
 19 20  1  1
 21 22  2  0
 21 20  1  0
 23 22  1  0
 24 23  2  0
 25 24  1  0
 25 26  2  0
 26 21  1  0
 27 28  1  0
 27 19  1  0
 29 27  2  0
M  END
$$$$
