NQF.pdb
     RDKit          3D

 29 29  0  0  1  0  0  0  0  0999 V2000
    9.3615  -13.7469   17.1355 N   0  0  0  0  0  0  0  0  0  0  0  0
    7.9523  -13.6859   17.2586 C   0  0  0  0  0  0  0  0  0  0  0  0
    7.2580  -13.6228   16.2236 O   0  0  0  0  0  0  0  0  0  0  0  0
    7.3014  -13.6961   18.5816 C   0  0  0  0  0  0  0  0  0  0  0  0
    8.3593  -13.7381   19.6412 C   0  0  2  0  0  0  0  0  0  0  0  0
    9.6669  -14.0160   19.1425 N   0  0  0  0  0  0  0  0  0  0  0  0
    8.0361  -14.7102   20.7254 C   0  0  0  0  0  0  0  0  0  0  0  0
    6.9398  -14.6482   21.3550 O   0  0  0  0  0  0  0  0  0  0  0  0
    9.4677  -21.6303   22.8069 N   0  0  0  0  0  0  0  0  0  0  0  0
    9.6966  -20.4102   22.1259 C   0  0  0  0  0  0  0  0  0  0  0  0
   10.4251  -20.3625   21.1109 O   0  0  0  0  0  0  0  0  0  0  0  0
    9.0383  -19.1618   22.6548 C   0  0  0  0  0  0  0  0  0  0  0  0
    9.3514  -18.0217   21.7257 C   0  0  0  0  0  0  0  0  0  0  0  0
    8.6998  -16.7363   22.0874 C   0  0  2  0  0  0  0  0  0  0  0  0
    8.9506  -15.7104   21.0608 N   0  0  0  0  0  0  0  0  0  0  0  0
    9.0832  -16.2112   23.4022 C   0  0  0  0  0  0  0  0  0  0  0  0
   10.1114  -15.4783   23.5264 O   0  0  0  0  0  0  0  0  0  0  0  0
    8.2925  -16.5318   24.5299 N   0  0  0  0  0  0  0  0  0  0  0  0
    8.6709  -16.0495   25.8320 C   0  0  1  0  0  0  0  0  0  0  0  0
    7.3639  -15.6461   26.5046 C   0  0  0  0  0  0  0  0  0  0  0  0
    7.0569  -14.2313   26.3374 C   0  0  0  0  0  0  0  0  0  0  0  0
    6.0751  -13.8347   25.4730 C   0  0  0  0  0  0  0  0  0  0  0  0
    5.7511  -12.4847   25.2962 C   0  0  0  0  0  0  0  0  0  0  0  0
    6.4407  -11.5288   26.0129 C   0  0  0  0  0  0  0  0  0  0  0  0
    7.4411  -11.9240   26.8942 C   0  0  0  0  0  0  0  0  0  0  0  0
    7.7461  -13.2811   27.0531 C   0  0  0  0  0  0  0  0  0  0  0  0
    9.3064  -17.1686   26.5646 C   0  0  0  0  0  0  0  0  0  0  0  0
   10.1225  -17.0047   27.6787 O   0  0  0  0  0  0  0  0  0  0  0  0
    9.1380  -18.3822   26.2051 O   0  0  0  0  0  0  0  0  0  0  0  0
  2  1  1  0
  2  3  2  0
  4  2  1  0
  4  5  1  0
  5  6  1  6
  5  7  1  0
  7  8  2  0
  9 10  1  0
 10 11  2  0
 10 12  1  0
 12 13  1  0
 14 13  1  6
 15  7  1  0
 15 14  1  0
 16 17  2  0
 16 14  1  0
 18 16  1  0
 19 18  1  0
 19 20  1  1
 21 22  2  0
 21 20  1  0
 23 22  1  0
 24 23  2  0
 25 24  1  0
 25 26  2  0
 26 21  1  0
 27 28  1  0
 27 19  1  0
 29 27  2  0
M  END
$$$$
