NQF.pdb
     RDKit          3D

 29 29  0  0  1  0  0  0  0  0999 V2000
    7.4009  -12.6777   17.0752 N   0  0  0  0  0  0  0  0  0  0  0  0
    8.1099  -13.3767   18.0818 C   0  0  0  0  0  0  0  0  0  0  0  0
    9.2839  -13.7345   17.8555 O   0  0  0  0  0  0  0  0  0  0  0  0
    7.4846  -13.6841   19.3812 C   0  0  0  0  0  0  0  0  0  0  0  0
    8.2639  -14.7765   20.0470 C   0  0  2  0  0  0  0  0  0  0  0  0
    8.3700  -15.9680   19.2693 N   0  0  0  0  0  0  0  0  0  0  0  0
    7.7193  -15.1211   21.3922 C   0  0  0  0  0  0  0  0  0  0  0  0
    7.3873  -14.2184   22.2150 O   0  0  0  0  0  0  0  0  0  0  0  0
    5.5622  -20.7893   22.8550 N   0  0  0  0  0  0  0  0  0  0  0  0
    6.9006  -20.6468   22.4158 C   0  0  0  0  0  0  0  0  0  0  0  0
    7.5464  -21.6248   21.9803 O   0  0  0  0  0  0  0  0  0  0  0  0
    7.5343  -19.2810   22.4852 C   0  0  0  0  0  0  0  0  0  0  0  0
    6.5031  -18.2954   22.9607 C   0  0  0  0  0  0  0  0  0  0  0  0
    6.9849  -16.8922   23.0428 C   0  0  2  0  0  0  0  0  0  0  0  0
    7.5686  -16.4589   21.7618 N   0  0  0  0  0  0  0  0  0  0  0  0
    7.9456  -16.6433   24.1228 C   0  0  0  0  0  0  0  0  0  0  0  0
    9.1928  -16.7187   23.9032 O   0  0  0  0  0  0  0  0  0  0  0  0
    7.4644  -16.3181   25.4122 N   0  0  0  0  0  0  0  0  0  0  0  0
    8.3933  -16.0696   26.4830 C   0  0  1  0  0  0  0  0  0  0  0  0
    7.6525  -15.1541   27.4507 C   0  0  0  0  0  0  0  0  0  0  0  0
    7.3855  -13.8365   26.8881 C   0  0  0  0  0  0  0  0  0  0  0  0
    6.1288  -13.5089   26.4618 C   0  0  0  0  0  0  0  0  0  0  0  0
    5.8386  -12.2496   25.9246 C   0  0  0  0  0  0  0  0  0  0  0  0
    6.8472  -11.3142   25.8222 C   0  0  0  0  0  0  0  0  0  0  0  0
    8.1285  -11.6396   26.2534 C   0  0  0  0  0  0  0  0  0  0  0  0
    8.3930  -12.9065   26.7873 C   0  0  0  0  0  0  0  0  0  0  0  0
    8.7002  -17.3663   27.1290 C   0  0  0  0  0  0  0  0  0  0  0  0
    9.7464  -17.5604   28.0244 O   0  0  0  0  0  0  0  0  0  0  0  0
    8.0034  -18.4101   26.8939 O   0  0  0  0  0  0  0  0  0  0  0  0
  2  1  1  0
  2  3  2  0
  4  2  1  0
  4  5  1  0
  5  6  1  6
  5  7  1  0
  7  8  2  0
  9 10  1  0
 10 11  2  0
 10 12  1  0
 12 13  1  0
 14 13  1  6
 15  7  1  0
 15 14  1  0
 16 17  2  0
 16 14  1  0
 18 16  1  0
 19 18  1  0
 19 20  1  1
 21 22  2  0
 21 20  1  0
 23 22  1  0
 24 23  2  0
 25 24  1  0
 25 26  2  0
 26 21  1  0
 27 28  1  0
 27 19  1  0
 29 27  2  0
M  END
$$$$
