NQF.pdb
     RDKit          3D

 29 29  0  0  1  0  0  0  0  0999 V2000
    7.4866  -12.3012   18.1371 N   0  0  0  0  0  0  0  0  0  0  0  0
    7.7232  -13.6957   18.1998 C   0  0  0  0  0  0  0  0  0  0  0  0
    8.2274  -14.2676   17.2118 O   0  0  0  0  0  0  0  0  0  0  0  0
    7.3845  -14.4730   19.4061 C   0  0  0  0  0  0  0  0  0  0  0  0
    8.4949  -14.3307   20.4012 C   0  0  2  0  0  0  0  0  0  0  0  0
    9.7841  -14.6488   19.8790 N   0  0  0  0  0  0  0  0  0  0  0  0
    8.2574  -15.1371   21.6334 C   0  0  0  0  0  0  0  0  0  0  0  0
    7.1331  -15.1288   22.2148 O   0  0  0  0  0  0  0  0  0  0  0  0
   10.7488  -20.5691   22.6840 N   0  0  0  0  0  0  0  0  0  0  0  0
   11.2188  -19.5799   21.7866 C   0  0  0  0  0  0  0  0  0  0  0  0
   12.0832  -19.8473   20.9236 O   0  0  0  0  0  0  0  0  0  0  0  0
   10.6506  -18.1881   21.8950 C   0  0  0  0  0  0  0  0  0  0  0  0
    9.7179  -18.1393   23.0734 C   0  0  0  0  0  0  0  0  0  0  0  0
    9.1204  -16.8033   23.3304 C   0  0  2  0  0  0  0  0  0  0  0  0
    9.2853  -15.9186   22.1644 N   0  0  0  0  0  0  0  0  0  0  0  0
    9.6343  -16.1295   24.5275 C   0  0  0  0  0  0  0  0  0  0  0  0
   10.7301  -15.4916   24.4852 O   0  0  0  0  0  0  0  0  0  0  0  0
    8.8930  -16.1995   25.7298 N   0  0  0  0  0  0  0  0  0  0  0  0
    9.4022  -15.5780   26.9238 C   0  0  1  0  0  0  0  0  0  0  0  0
    8.2046  -14.8727   27.5495 C   0  0  0  0  0  0  0  0  0  0  0  0
    7.7656  -13.7161   26.7793 C   0  0  0  0  0  0  0  0  0  0  0  0
    8.5333  -12.5862   26.7309 C   0  0  0  0  0  0  0  0  0  0  0  0
    8.1433  -11.4621   25.9939 C   0  0  0  0  0  0  0  0  0  0  0  0
    6.9527  -11.4949   25.2980 C   0  0  0  0  0  0  0  0  0  0  0  0
    6.1658  -12.6405   25.3422 C   0  0  0  0  0  0  0  0  0  0  0  0
    6.5784  -13.7519   26.0869 C   0  0  0  0  0  0  0  0  0  0  0  0
    9.8978  -16.6491   27.8183 C   0  0  0  0  0  0  0  0  0  0  0  0
    9.7950  -18.0071   27.5363 O   0  0  0  0  0  0  0  0  0  0  0  0
   10.4626  -16.3804   28.9314 O   0  0  0  0  0  0  0  0  0  0  0  0
  2  1  1  0
  2  3  2  0
  4  2  1  0
  4  5  1  0
  5  6  1  6
  5  7  1  0
  7  8  2  0
  9 10  1  0
 10 11  2  0
 10 12  1  0
 12 13  1  0
 14 13  1  6
 15  7  1  0
 15 14  1  0
 16 17  2  0
 16 14  1  0
 18 16  1  0
 19 18  1  0
 19 20  1  1
 21 22  2  0
 21 20  1  0
 23 22  1  0
 24 23  2  0
 25 24  1  0
 25 26  2  0
 26 21  1  0
 27 28  1  0
 27 19  1  0
 29 27  2  0
M  END
$$$$
