NQF.pdb
     RDKit          3D

 29 29  0  0  1  0  0  0  0  0999 V2000
    8.7650  -12.6330   16.9140 N   0  0  0  0  0  0  0  0  0  0  0  0
    7.8706  -13.7120   16.7131 C   0  0  0  0  0  0  0  0  0  0  0  0
    7.2556  -13.7929   15.6302 O   0  0  0  0  0  0  0  0  0  0  0  0
    7.6589  -14.7314   17.7572 C   0  0  0  0  0  0  0  0  0  0  0  0
    8.3683  -14.3014   19.0044 C   0  0  2  0  0  0  0  0  0  0  0  0
    9.7810  -14.1724   18.8513 N   0  0  0  0  0  0  0  0  0  0  0  0
    8.0851  -15.2051   20.1568 C   0  0  0  0  0  0  0  0  0  0  0  0
    6.8977  -15.4493   20.5210 O   0  0  0  0  0  0  0  0  0  0  0  0
   11.3368  -20.1052   21.2745 N   0  0  0  0  0  0  0  0  0  0  0  0
   10.2870  -19.9565   20.3361 C   0  0  0  0  0  0  0  0  0  0  0  0
   10.1232  -20.7827   19.4121 O   0  0  0  0  0  0  0  0  0  0  0  0
    9.3651  -18.7724   20.4765 C   0  0  0  0  0  0  0  0  0  0  0  0
    9.7595  -17.9977   21.7034 C   0  0  0  0  0  0  0  0  0  0  0  0
    8.9541  -16.7723   21.9427 C   0  0  2  0  0  0  0  0  0  0  0  0
    9.1395  -15.7980   20.8538 N   0  0  0  0  0  0  0  0  0  0  0  0
    9.2141  -16.1176   23.2293 C   0  0  0  0  0  0  0  0  0  0  0  0
   10.3116  -15.5149   23.4332 O   0  0  0  0  0  0  0  0  0  0  0  0
    8.2260  -16.1666   24.2398 N   0  0  0  0  0  0  0  0  0  0  0  0
    8.4919  -15.5905   25.5316 C   0  0  1  0  0  0  0  0  0  0  0  0
    7.1318  -15.1507   26.0610 C   0  0  0  0  0  0  0  0  0  0  0  0
    6.9475  -13.7060   26.0110 C   0  0  0  0  0  0  0  0  0  0  0  0
    7.9594  -12.8948   25.5790 C   0  0  0  0  0  0  0  0  0  0  0  0
    7.8109  -11.5048   25.5117 C   0  0  0  0  0  0  0  0  0  0  0  0
    6.6120  -10.9380   25.8916 C   0  0  0  0  0  0  0  0  0  0  0  0
    5.5777  -11.7562   26.3325 C   0  0  0  0  0  0  0  0  0  0  0  0
    5.7515  -13.1442   26.3904 C   0  0  0  0  0  0  0  0  0  0  0  0
    9.0648  -16.6501   26.3930 C   0  0  0  0  0  0  0  0  0  0  0  0
    9.8288  -16.4008   27.5280 O   0  0  0  0  0  0  0  0  0  0  0  0
    8.8866  -17.8879   26.1356 O   0  0  0  0  0  0  0  0  0  0  0  0
  2  1  1  0
  2  3  2  0
  4  2  1  0
  4  5  1  0
  5  6  1  6
  5  7  1  0
  7  8  2  0
  9 10  1  0
 10 11  2  0
 10 12  1  0
 12 13  1  0
 14 13  1  6
 15  7  1  0
 15 14  1  0
 16 17  2  0
 16 14  1  0
 18 16  1  0
 19 18  1  0
 19 20  1  1
 21 22  2  0
 21 20  1  0
 23 22  1  0
 24 23  2  0
 25 24  1  0
 25 26  2  0
 26 21  1  0
 27 28  1  0
 27 19  1  0
 29 27  2  0
M  END
$$$$
