NQF.pdb
     RDKit          3D

 29 29  0  0  1  0  0  0  0  0999 V2000
    7.7381  -12.8606   15.2710 N   0  0  0  0  0  0  0  0  0  0  0  0
    8.0019  -14.0068   16.0593 C   0  0  0  0  0  0  0  0  0  0  0  0
    8.8626  -14.8223   15.6699 O   0  0  0  0  0  0  0  0  0  0  0  0
    7.2795  -14.2464   17.3222 C   0  0  0  0  0  0  0  0  0  0  0  0
    8.2243  -14.0423   18.4664 C   0  0  2  0  0  0  0  0  0  0  0  0
    9.5980  -14.0035   18.0826 N   0  0  0  0  0  0  0  0  0  0  0  0
    8.0475  -15.0668   19.5360 C   0  0  0  0  0  0  0  0  0  0  0  0
    6.9098  -15.2965   20.0410 O   0  0  0  0  0  0  0  0  0  0  0  0
   11.3542  -20.5899   20.3022 N   0  0  0  0  0  0  0  0  0  0  0  0
    9.9699  -20.3215   20.4299 C   0  0  0  0  0  0  0  0  0  0  0  0
    9.1903  -21.1644   20.9248 O   0  0  0  0  0  0  0  0  0  0  0  0
    9.4531  -18.9884   19.9528 C   0  0  0  0  0  0  0  0  0  0  0  0
   10.0079  -17.9106   20.8424 C   0  0  0  0  0  0  0  0  0  0  0  0
    9.0792  -16.7773   21.0887 C   0  0  2  0  0  0  0  0  0  0  0  0
    9.1484  -15.7915   19.9965 N   0  0  0  0  0  0  0  0  0  0  0  0
    9.2814  -16.0954   22.3714 C   0  0  0  0  0  0  0  0  0  0  0  0
   10.3562  -15.4610   22.5994 O   0  0  0  0  0  0  0  0  0  0  0  0
    8.2635  -16.1539   23.3513 N   0  0  0  0  0  0  0  0  0  0  0  0
    8.3360  -15.3069   24.5126 C   0  0  1  0  0  0  0  0  0  0  0  0
    7.3222  -14.1966   24.2619 C   0  0  0  0  0  0  0  0  0  0  0  0
    7.2200  -13.2640   25.3770 C   0  0  0  0  0  0  0  0  0  0  0  0
    6.0848  -13.2174   26.1370 C   0  0  0  0  0  0  0  0  0  0  0  0
    5.9588  -12.3389   27.2192 C   0  0  0  0  0  0  0  0  0  0  0  0
    7.0077  -11.4974   27.5270 C   0  0  0  0  0  0  0  0  0  0  0  0
    8.1659  -11.5383   26.7586 C   0  0  0  0  0  0  0  0  0  0  0  0
    8.2670  -12.4266   25.6811 C   0  0  0  0  0  0  0  0  0  0  0  0
    7.9400  -16.1137   25.6895 C   0  0  0  0  0  0  0  0  0  0  0  0
    8.5061  -15.9765   26.9524 O   0  0  0  0  0  0  0  0  0  0  0  0
    7.0314  -17.0074   25.6104 O   0  0  0  0  0  0  0  0  0  0  0  0
  2  1  1  0
  2  3  2  0
  4  2  1  0
  4  5  1  0
  5  6  1  6
  5  7  1  0
  7  8  2  0
  9 10  1  0
 10 11  2  0
 10 12  1  0
 12 13  1  0
 14 13  1  6
 15  7  1  0
 15 14  1  0
 16 17  2  0
 16 14  1  0
 18 16  1  0
 19 18  1  0
 19 20  1  6
 21 22  2  0
 21 20  1  0
 23 22  1  0
 24 23  2  0
 25 24  1  0
 25 26  2  0
 26 21  1  0
 27 28  1  0
 27 19  1  0
 29 27  2  0
M  END
$$$$
