NQF.pdb
     RDKit          3D

 29 29  0  0  1  0  0  0  0  0999 V2000
    7.7649  -12.1829   17.9505 N   0  0  0  0  0  0  0  0  0  0  0  0
    8.6881  -12.9715   18.6787 C   0  0  0  0  0  0  0  0  0  0  0  0
    9.8117  -13.1966   18.1842 O   0  0  0  0  0  0  0  0  0  0  0  0
    8.3421  -13.5246   20.0009 C   0  0  0  0  0  0  0  0  0  0  0  0
    8.2068  -15.0117   19.8832 C   0  0  2  0  0  0  0  0  0  0  0  0
    7.1623  -15.4299   19.0057 N   0  0  0  0  0  0  0  0  0  0  0  0
    8.0203  -15.6698   21.2087 C   0  0  0  0  0  0  0  0  0  0  0  0
    6.8901  -15.6858   21.7785 O   0  0  0  0  0  0  0  0  0  0  0  0
   11.0233  -20.6671   22.5369 N   0  0  0  0  0  0  0  0  0  0  0  0
    9.9337  -20.4949   21.6492 C   0  0  0  0  0  0  0  0  0  0  0  0
    9.6393  -21.3720   20.8083 O   0  0  0  0  0  0  0  0  0  0  0  0
    9.1311  -19.2224   21.7408 C   0  0  0  0  0  0  0  0  0  0  0  0
    9.6441  -18.4118   22.8987 C   0  0  0  0  0  0  0  0  0  0  0  0
    8.9832  -17.0917   23.0666 C   0  0  2  0  0  0  0  0  0  0  0  0
    9.1034  -16.2820   21.8421 N   0  0  0  0  0  0  0  0  0  0  0  0
    9.4657  -16.3134   24.2123 C   0  0  0  0  0  0  0  0  0  0  0  0
   10.5267  -15.6240   24.1196 O   0  0  0  0  0  0  0  0  0  0  0  0
    8.7336  -16.3409   25.4219 N   0  0  0  0  0  0  0  0  0  0  0  0
    9.2408  -15.6587   26.5831 C   0  0  1  0  0  0  0  0  0  0  0  0
    8.0055  -15.1808   27.3376 C   0  0  0  0  0  0  0  0  0  0  0  0
    7.3587  -14.0427   26.6971 C   0  0  0  0  0  0  0  0  0  0  0  0
    8.0077  -12.8437   26.6001 C   0  0  0  0  0  0  0  0  0  0  0  0
    7.4171  -11.7345   25.9839 C   0  0  0  0  0  0  0  0  0  0  0  0
    6.1462  -11.8542   25.4609 C   0  0  0  0  0  0  0  0  0  0  0  0
    5.4790  -13.0705   25.5557 C   0  0  0  0  0  0  0  0  0  0  0  0
    6.0921  -14.1652   26.1770 C   0  0  0  0  0  0  0  0  0  0  0  0
    9.9953  -16.6411   27.3946 C   0  0  0  0  0  0  0  0  0  0  0  0
   10.1250  -17.9859   27.0648 O   0  0  0  0  0  0  0  0  0  0  0  0
   10.5857  -16.3011   28.4745 O   0  0  0  0  0  0  0  0  0  0  0  0
  2  1  1  0
  2  3  2  0
  4  2  1  0
  4  5  1  0
  5  6  1  6
  5  7  1  0
  7  8  2  0
  9 10  1  0
 10 11  2  0
 10 12  1  0
 12 13  1  0
 14 13  1  6
 15  7  1  0
 15 14  1  0
 16 17  2  0
 16 14  1  0
 18 16  1  0
 19 18  1  0
 19 20  1  1
 21 22  2  0
 21 20  1  0
 23 22  1  0
 24 23  2  0
 25 24  1  0
 25 26  2  0
 26 21  1  0
 27 28  1  0
 27 19  1  0
 29 27  2  0
M  END
$$$$
