CDF.pdb
     RDKit          3D

 26 26  0  0  1  0  0  0  0  0999 V2000
    7.2437  -15.2809   18.3496 N   0  0  0  0  0  0  0  0  0  0  0  0
    8.1583  -14.7592   19.3447 C   0  0  1  0  0  0  0  0  0  0  0  0
    7.7949  -13.3205   19.6521 C   0  0  0  0  0  0  0  0  0  0  0  0
    8.8102  -12.6107   20.9553 S   0  0  0  0  0  0  0  0  0  0  0  0
    8.1738  -15.6021   20.5688 C   0  0  0  0  0  0  0  0  0  0  0  0
    7.0969  -15.8864   21.1518 O   0  0  0  0  0  0  0  0  0  0  0  0
    9.4251  -16.0702   21.0531 N   0  0  0  0  0  0  0  0  0  0  0  0
    9.4845  -16.8785   22.2607 C   0  0  1  0  0  0  0  0  0  0  0  0
   10.3822  -18.0780   22.0835 C   0  0  0  0  0  0  0  0  0  0  0  0
    9.9974  -18.8959   20.9071 C   0  0  0  0  0  0  0  0  0  0  0  0
    8.8380  -19.3782   20.9039 O   0  0  0  0  0  0  0  0  0  0  0  0
   10.0813  -16.0368   23.3282 C   0  0  0  0  0  0  0  0  0  0  0  0
   11.1266  -15.3824   23.1315 O   0  0  0  0  0  0  0  0  0  0  0  0
   10.8096  -19.1573   19.8385 O   0  0  0  0  0  0  0  0  0  0  0  0
    9.4929  -15.9407   24.6097 N   0  0  0  0  0  0  0  0  0  0  0  0
   10.1877  -15.4525   25.7957 C   0  0  1  0  0  0  0  0  0  0  0  0
   10.1243  -13.9488   25.8681 C   0  0  0  0  0  0  0  0  0  0  0  0
    8.7406  -13.4734   26.0099 C   0  0  0  0  0  0  0  0  0  0  0  0
    7.8440  -13.5688   24.9426 C   0  0  0  0  0  0  0  0  0  0  0  0
    6.5390  -13.1521   25.0710 C   0  0  0  0  0  0  0  0  0  0  0  0
    6.0650  -12.6255   26.2534 C   0  0  0  0  0  0  0  0  0  0  0  0
    6.9427  -12.5267   27.3147 C   0  0  0  0  0  0  0  0  0  0  0  0
    8.2643  -12.9509   27.1782 C   0  0  0  0  0  0  0  0  0  0  0  0
    9.6730  -16.0489   27.0227 C   0  0  0  0  0  0  0  0  0  0  0  0
    8.6783  -16.7830   27.0478 O   0  0  0  0  0  0  0  0  0  0  0  0
   10.3221  -15.7888   28.2338 O   0  0  0  0  0  0  0  0  0  0  0  0
  2  1  1  6
  3  4  1  0
  3  2  1  0
  5  2  1  0
  5  6  2  0
  7  5  1  0
  8  7  1  0
  8 12  1  0
  8  9  1  6
 10 11  2  0
 10  9  1  0
 12 15  1  0
 13 12  2  0
 14 10  1  0
 15 16  1  0
 16 24  1  0
 17 18  1  0
 16 17  1  1
 18 23  2  0
 19 18  1  0
 19 20  2  0
 20 21  1  0
 21 22  2  0
 23 22  1  0
 24 25  2  0
 24 26  1  0
M  END
$$$$
