CDF.pdb
     RDKit          3D

 26 26  0  0  1  0  0  0  0  0999 V2000
    8.2113  -17.3564   20.8843 N   0  0  0  0  0  0  0  0  0  0  0  0
    8.6568  -18.6871   21.2449 C   0  0  1  0  0  0  0  0  0  0  0  0
    8.2943  -19.6532   20.1350 C   0  0  0  0  0  0  0  0  0  0  0  0
    6.5736  -19.5181   19.6308 S   0  0  0  0  0  0  0  0  0  0  0  0
   10.1110  -18.7129   21.5511 C   0  0  0  0  0  0  0  0  0  0  0  0
   10.6693  -19.7941   21.8673 O   0  0  0  0  0  0  0  0  0  0  0  0
   10.8407  -17.4958   21.4765 N   0  0  0  0  0  0  0  0  0  0  0  0
   12.2454  -17.4625   21.8518 C   0  0  1  0  0  0  0  0  0  0  0  0
   13.0186  -16.4657   21.0244 C   0  0  0  0  0  0  0  0  0  0  0  0
   13.1462  -16.8923   19.6093 C   0  0  0  0  0  0  0  0  0  0  0  0
   13.0368  -15.9992   18.7334 O   0  0  0  0  0  0  0  0  0  0  0  0
   12.3159  -17.0102   23.2641 C   0  0  0  0  0  0  0  0  0  0  0  0
   13.4117  -16.8013   23.8255 O   0  0  0  0  0  0  0  0  0  0  0  0
   13.3723  -18.1769   19.1985 O   0  0  0  0  0  0  0  0  0  0  0  0
   11.1482  -16.7974   24.0315 N   0  0  0  0  0  0  0  0  0  0  0  0
   11.1494  -16.3214   25.4103 C   0  0  1  0  0  0  0  0  0  0  0  0
    9.8322  -15.6735   25.7505 C   0  0  0  0  0  0  0  0  0  0  0  0
    9.8468  -15.1001   27.1039 C   0  0  0  0  0  0  0  0  0  0  0  0
    9.9710  -15.9262   28.2239 C   0  0  0  0  0  0  0  0  0  0  0  0
   10.0128  -15.3998   29.4944 C   0  0  0  0  0  0  0  0  0  0  0  0
    9.9339  -14.0410   29.7131 C   0  0  0  0  0  0  0  0  0  0  0  0
    9.8110  -13.2154   28.6132 C   0  0  0  0  0  0  0  0  0  0  0  0
    9.7693  -13.7552   27.3278 C   0  0  0  0  0  0  0  0  0  0  0  0
   11.4620  -17.3818   26.3609 C   0  0  0  0  0  0  0  0  0  0  0  0
   10.9650  -18.5122   26.2950 O   0  0  0  0  0  0  0  0  0  0  0  0
   12.3625  -17.1251   27.3997 O   0  0  0  0  0  0  0  0  0  0  0  0
  2  1  1  6
  3  4  1  0
  3  2  1  0
  5  2  1  0
  5  6  2  0
  7  5  1  0
  8  7  1  0
  8 12  1  0
  8  9  1  6
 10 11  2  0
 10  9  1  0
 12 15  1  0
 13 12  2  0
 14 10  1  0
 15 16  1  0
 16 24  1  0
 17 18  1  0
 16 17  1  1
 18 23  2  0
 19 18  1  0
 19 20  2  0
 20 21  1  0
 21 22  2  0
 23 22  1  0
 24 25  2  0
 24 26  1  0
M  END
$$$$
