CDF.pdb
     RDKit          3D

 26 26  0  0  1  0  0  0  0  0999 V2000
    7.7265  -15.0704   17.7656 N   0  0  0  0  0  0  0  0  0  0  0  0
    8.6831  -14.7257   18.7977 C   0  0  1  0  0  0  0  0  0  0  0  0
    8.3498  -13.3545   19.3502 C   0  0  0  0  0  0  0  0  0  0  0  0
    8.5015  -12.0535   18.1182 S   0  0  0  0  0  0  0  0  0  0  0  0
    8.7314  -15.7583   19.8657 C   0  0  0  0  0  0  0  0  0  0  0  0
    7.6692  -16.2920   20.2748 O   0  0  0  0  0  0  0  0  0  0  0  0
    9.9968  -16.1186   20.4027 N   0  0  0  0  0  0  0  0  0  0  0  0
   10.0764  -17.0084   21.5504 C   0  0  1  0  0  0  0  0  0  0  0  0
   11.4412  -17.6396   21.6712 C   0  0  0  0  0  0  0  0  0  0  0  0
   11.7499  -18.5289   20.5245 C   0  0  0  0  0  0  0  0  0  0  0  0
   10.9226  -19.4388   20.2710 O   0  0  0  0  0  0  0  0  0  0  0  0
    9.8646  -16.1830   22.7662 C   0  0  0  0  0  0  0  0  0  0  0  0
   10.6455  -15.2557   23.0660 O   0  0  0  0  0  0  0  0  0  0  0  0
   12.8610  -18.4263   19.7339 O   0  0  0  0  0  0  0  0  0  0  0  0
    8.7726  -16.4115   23.6340 N   0  0  0  0  0  0  0  0  0  0  0  0
    8.4245  -15.5487   24.7574 C   0  0  1  0  0  0  0  0  0  0  0  0
    7.4086  -14.5169   24.3408 C   0  0  0  0  0  0  0  0  0  0  0  0
    7.1030  -13.5872   25.4376 C   0  0  0  0  0  0  0  0  0  0  0  0
    7.9528  -12.5138   25.7164 C   0  0  0  0  0  0  0  0  0  0  0  0
    7.6642  -11.6213   26.7229 C   0  0  0  0  0  0  0  0  0  0  0  0
    6.5291  -11.7494   27.4944 C   0  0  0  0  0  0  0  0  0  0  0  0
    5.6821  -12.8067   27.2275 C   0  0  0  0  0  0  0  0  0  0  0  0
    5.9803  -13.7080   26.2057 C   0  0  0  0  0  0  0  0  0  0  0  0
    7.9470  -16.3056   25.9085 C   0  0  0  0  0  0  0  0  0  0  0  0
    7.1531  -17.2487   25.8110 O   0  0  0  0  0  0  0  0  0  0  0  0
    8.3974  -15.9622   27.1871 O   0  0  0  0  0  0  0  0  0  0  0  0
  2  1  1  6
  3  4  1  0
  3  2  1  0
  5  2  1  0
  5  6  2  0
  7  5  1  0
  8  7  1  0
  8 12  1  0
  8  9  1  1
 10 11  2  0
 10  9  1  0
 12 15  1  0
 13 12  2  0
 14 10  1  0
 15 16  1  0
 16 24  1  0
 17 18  1  0
 16 17  1  6
 18 23  2  0
 19 18  1  0
 19 20  2  0
 20 21  1  0
 21 22  2  0
 23 22  1  0
 24 25  2  0
 24 26  1  0
M  END
$$$$
