CDF.pdb
     RDKit          3D

 26 26  0  0  1  0  0  0  0  0999 V2000
    9.8817  -17.1881   18.4629 N   0  0  0  0  0  0  0  0  0  0  0  0
   10.2149  -17.7256   19.7665 C   0  0  1  0  0  0  0  0  0  0  0  0
   11.7172  -17.6742   19.9590 C   0  0  0  0  0  0  0  0  0  0  0  0
   12.2335  -18.2970   21.5649 S   0  0  0  0  0  0  0  0  0  0  0  0
    9.4909  -17.0149   20.8526 C   0  0  0  0  0  0  0  0  0  0  0  0
    9.5070  -15.7589   20.9039 O   0  0  0  0  0  0  0  0  0  0  0  0
    8.7899  -17.7874   21.8176 N   0  0  0  0  0  0  0  0  0  0  0  0
    8.0090  -17.1287   22.8528 C   0  0  1  0  0  0  0  0  0  0  0  0
    6.8649  -17.9934   23.3213 C   0  0  0  0  0  0  0  0  0  0  0  0
    5.9142  -18.3053   22.2260 C   0  0  0  0  0  0  0  0  0  0  0  0
    5.5649  -17.3523   21.4868 O   0  0  0  0  0  0  0  0  0  0  0  0
    8.9056  -16.9173   24.0170 C   0  0  0  0  0  0  0  0  0  0  0  0
    9.6432  -17.8304   24.4433 O   0  0  0  0  0  0  0  0  0  0  0  0
    5.3983  -19.5455   21.9695 O   0  0  0  0  0  0  0  0  0  0  0  0
    8.9623  -15.6761   24.6907 N   0  0  0  0  0  0  0  0  0  0  0  0
    9.8126  -15.4087   25.8454 C   0  0  1  0  0  0  0  0  0  0  0  0
    9.8328  -13.9356   26.1613 C   0  0  0  0  0  0  0  0  0  0  0  0
    8.4733  -13.3822   26.2401 C   0  0  0  0  0  0  0  0  0  0  0  0
    7.8790  -13.1320   27.4796 C   0  0  0  0  0  0  0  0  0  0  0  0
    6.6176  -12.5894   27.5668 C   0  0  0  0  0  0  0  0  0  0  0  0
    5.8916  -12.2717   26.4389 C   0  0  0  0  0  0  0  0  0  0  0  0
    6.4695  -12.5148   25.2086 C   0  0  0  0  0  0  0  0  0  0  0  0
    7.7485  -13.0649   25.1270 C   0  0  0  0  0  0  0  0  0  0  0  0
    9.4139  -16.1808   27.0162 C   0  0  0  0  0  0  0  0  0  0  0  0
    8.3715  -16.8445   27.0611 O   0  0  0  0  0  0  0  0  0  0  0  0
   10.2363  -16.1812   28.1473 O   0  0  0  0  0  0  0  0  0  0  0  0
  2  1  1  6
  3  4  1  0
  3  2  1  0
  5  2  1  0
  5  6  2  0
  7  5  1  0
  8  7  1  0
  8 12  1  0
  8  9  1  1
 10 11  2  0
 10  9  1  0
 12 15  1  0
 13 12  2  0
 14 10  1  0
 15 16  1  0
 16 24  1  0
 17 18  1  0
 16 17  1  1
 18 23  2  0
 19 18  1  0
 19 20  2  0
 20 21  1  0
 21 22  2  0
 23 22  1  0
 24 25  2  0
 24 26  1  0
M  END
$$$$
