CDF.pdb
     RDKit          3D

 26 26  0  0  1  0  0  0  0  0999 V2000
    7.9669  -14.7790   18.0719 N   0  0  0  0  0  0  0  0  0  0  0  0
    8.4506  -14.3442   19.3666 C   0  0  1  0  0  0  0  0  0  0  0  0
    8.1336  -12.8737   19.5503 C   0  0  0  0  0  0  0  0  0  0  0  0
    8.5926  -12.2622   21.1777 S   0  0  0  0  0  0  0  0  0  0  0  0
    7.8929  -15.1744   20.4659 C   0  0  0  0  0  0  0  0  0  0  0  0
    6.8696  -15.8774   20.2680 O   0  0  0  0  0  0  0  0  0  0  0  0
    8.5423  -15.1499   21.7297 N   0  0  0  0  0  0  0  0  0  0  0  0
    8.5413  -16.3339   22.5743 C   0  0  1  0  0  0  0  0  0  0  0  0
    9.2819  -17.4785   21.9282 C   0  0  0  0  0  0  0  0  0  0  0  0
    9.2443  -18.7082   22.7573 C   0  0  0  0  0  0  0  0  0  0  0  0
    8.1135  -19.1146   23.1218 O   0  0  0  0  0  0  0  0  0  0  0  0
    9.2681  -15.9886   23.8219 C   0  0  0  0  0  0  0  0  0  0  0  0
   10.4763  -15.6729   23.8040 O   0  0  0  0  0  0  0  0  0  0  0  0
   10.3443  -19.4211   23.1471 O   0  0  0  0  0  0  0  0  0  0  0  0
    8.6247  -16.0024   25.0803 N   0  0  0  0  0  0  0  0  0  0  0  0
    9.2623  -15.6058   26.3309 C   0  0  1  0  0  0  0  0  0  0  0  0
    8.2541  -15.0012   27.2735 C   0  0  0  0  0  0  0  0  0  0  0  0
    7.5629  -13.8568   26.6625 C   0  0  0  0  0  0  0  0  0  0  0  0
    8.2080  -12.6242   26.5327 C   0  0  0  0  0  0  0  0  0  0  0  0
    7.5815  -11.5530   25.9386 C   0  0  0  0  0  0  0  0  0  0  0  0
    6.2967  -11.6519   25.4490 C   0  0  0  0  0  0  0  0  0  0  0  0
    5.6498  -12.8656   25.5720 C   0  0  0  0  0  0  0  0  0  0  0  0
    6.2904  -13.9477   26.1752 C   0  0  0  0  0  0  0  0  0  0  0  0
    9.9642  -16.7130   26.9691 C   0  0  0  0  0  0  0  0  0  0  0  0
   10.6339  -16.5797   28.0001 O   0  0  0  0  0  0  0  0  0  0  0  0
    9.8866  -17.9891   26.4024 O   0  0  0  0  0  0  0  0  0  0  0  0
  2  1  1  6
  3  4  1  0
  3  2  1  0
  5  2  1  0
  5  6  2  0
  7  5  1  0
  8  7  1  0
  8 12  1  0
  8  9  1  6
 10 11  2  0
 10  9  1  0
 12 15  1  0
 13 12  2  0
 14 10  1  0
 15 16  1  0
 16 24  1  0
 17 18  1  0
 16 17  1  1
 18 23  2  0
 19 18  1  0
 19 20  2  0
 20 21  1  0
 21 22  2  0
 23 22  1  0
 24 25  2  0
 24 26  1  0
M  END
$$$$
