CDF.pdb
     RDKit          3D

 26 26  0  0  1  0  0  0  0  0999 V2000
    6.3448  -14.9552   20.0825 N   0  0  0  0  0  0  0  0  0  0  0  0
    7.6937  -14.7077   20.5496 C   0  0  1  0  0  0  0  0  0  0  0  0
    7.7757  -13.3060   21.1199 C   0  0  0  0  0  0  0  0  0  0  0  0
    6.8404  -13.1204   22.6443 S   0  0  0  0  0  0  0  0  0  0  0  0
    8.1293  -15.7338   21.5326 C   0  0  0  0  0  0  0  0  0  0  0  0
    7.2798  -16.4774   22.0856 O   0  0  0  0  0  0  0  0  0  0  0  0
    9.5155  -15.8472   21.8241 N   0  0  0  0  0  0  0  0  0  0  0  0
    9.9920  -16.8990   22.7083 C   0  0  1  0  0  0  0  0  0  0  0  0
   11.4251  -17.2668   22.4134 C   0  0  0  0  0  0  0  0  0  0  0  0
   11.7981  -18.5780   22.9986 C   0  0  0  0  0  0  0  0  0  0  0  0
   12.9799  -18.9644   22.8227 O   0  0  0  0  0  0  0  0  0  0  0  0
    9.9512  -16.3658   24.0932 C   0  0  0  0  0  0  0  0  0  0  0  0
   10.6335  -15.3750   24.4284 O   0  0  0  0  0  0  0  0  0  0  0  0
   10.9526  -19.3852   23.7082 O   0  0  0  0  0  0  0  0  0  0  0  0
    9.1399  -16.9557   25.0891 N   0  0  0  0  0  0  0  0  0  0  0  0
    9.1817  -16.5924   26.5011 C   0  0  1  0  0  0  0  0  0  0  0  0
    7.8333  -16.1060   26.9653 C   0  0  0  0  0  0  0  0  0  0  0  0
    7.6614  -14.6685   26.7104 C   0  0  0  0  0  0  0  0  0  0  0  0
    8.6577  -13.7587   27.0736 C   0  0  0  0  0  0  0  0  0  0  0  0
    8.5205  -12.4141   26.8164 C   0  0  0  0  0  0  0  0  0  0  0  0
    7.3988  -11.9117   26.1924 C   0  0  0  0  0  0  0  0  0  0  0  0
    6.4079  -12.8021   25.8291 C   0  0  0  0  0  0  0  0  0  0  0  0
    6.5530  -14.1640   26.0925 C   0  0  0  0  0  0  0  0  0  0  0  0
    9.6502  -17.6889   27.3404 C   0  0  0  0  0  0  0  0  0  0  0  0
    9.8116  -17.5795   28.5615 O   0  0  0  0  0  0  0  0  0  0  0  0
    9.9340  -18.9260   26.7534 O   0  0  0  0  0  0  0  0  0  0  0  0
  2  1  1  1
  3  4  1  0
  3  2  1  0
  5  2  1  0
  5  6  2  0
  7  5  1  0
  8  7  1  0
  8 12  1  0
  8  9  1  6
 10 11  2  0
 10  9  1  0
 12 15  1  0
 13 12  2  0
 14 10  1  0
 15 16  1  0
 16 24  1  0
 17 18  1  0
 16 17  1  1
 18 23  2  0
 19 18  1  0
 19 20  2  0
 20 21  1  0
 21 22  2  0
 23 22  1  0
 24 25  2  0
 24 26  1  0
M  END
$$$$
