CDF.pdb
     RDKit          3D

 26 26  0  0  1  0  0  0  0  0999 V2000
    7.6418  -15.1804   17.0223 N   0  0  0  0  0  0  0  0  0  0  0  0
    8.4617  -14.6362   18.0857 C   0  0  1  0  0  0  0  0  0  0  0  0
    7.9432  -13.2634   18.4638 C   0  0  0  0  0  0  0  0  0  0  0  0
    8.7314  -12.6054   19.9399 S   0  0  0  0  0  0  0  0  0  0  0  0
    8.5176  -15.5508   19.2559 C   0  0  0  0  0  0  0  0  0  0  0  0
    7.4872  -16.1725   19.6197 O   0  0  0  0  0  0  0  0  0  0  0  0
    9.7535  -15.6990   19.9414 N   0  0  0  0  0  0  0  0  0  0  0  0
    9.8326  -16.5291   21.1330 C   0  0  1  0  0  0  0  0  0  0  0  0
   11.1192  -17.3157   21.1785 C   0  0  0  0  0  0  0  0  0  0  0  0
   11.2206  -18.1524   22.3993 C   0  0  0  0  0  0  0  0  0  0  0  0
   10.1757  -18.7379   22.7765 O   0  0  0  0  0  0  0  0  0  0  0  0
    9.8314  -15.6202   22.3069 C   0  0  0  0  0  0  0  0  0  0  0  0
   10.0271  -14.3934   22.1790 O   0  0  0  0  0  0  0  0  0  0  0  0
   12.3610  -18.3276   23.1334 O   0  0  0  0  0  0  0  0  0  0  0  0
    9.6091  -16.1038   23.6162 N   0  0  0  0  0  0  0  0  0  0  0  0
    9.1842  -15.2713   24.7360 C   0  0  1  0  0  0  0  0  0  0  0  0
    7.9669  -14.4637   24.3665 C   0  0  0  0  0  0  0  0  0  0  0  0
    7.6084  -13.5120   25.4279 C   0  0  0  0  0  0  0  0  0  0  0  0
    6.4002  -12.8121   25.3759 C   0  0  0  0  0  0  0  0  0  0  0  0
    6.0410  -11.9387   26.3764 C   0  0  0  0  0  0  0  0  0  0  0  0
    6.8553  -11.7194   27.4667 C   0  0  0  0  0  0  0  0  0  0  0  0
    8.0517  -12.4060   27.5283 C   0  0  0  0  0  0  0  0  0  0  0  0
    8.4102  -13.2901   26.5109 C   0  0  0  0  0  0  0  0  0  0  0  0
    8.9372  -16.0517   25.9427 C   0  0  0  0  0  0  0  0  0  0  0  0
    8.3650  -17.1478   25.9293 O   0  0  0  0  0  0  0  0  0  0  0  0
    9.3601  -15.5520   27.1785 O   0  0  0  0  0  0  0  0  0  0  0  0
  2  1  1  6
  3  4  1  0
  3  2  1  0
  5  2  1  0
  5  6  2  0
  7  5  1  0
  8  7  1  0
  8 12  1  0
  8  9  1  6
 10 11  2  0
 10  9  1  0
 12 15  1  0
 13 12  2  0
 14 10  1  0
 15 16  1  0
 16 24  1  0
 17 18  1  0
 16 17  1  6
 18 23  2  0
 19 18  1  0
 19 20  2  0
 20 21  1  0
 21 22  2  0
 23 22  1  0
 24 25  2  0
 24 26  1  0
M  END
$$$$
