CDF.pdb
     RDKit          3D

 26 26  0  0  1  0  0  0  0  0999 V2000
    6.2735  -16.0378   19.9976 N   0  0  0  0  0  0  0  0  0  0  0  0
    7.4679  -15.3708   20.4747 C   0  0  1  0  0  0  0  0  0  0  0  0
    7.0873  -14.0311   21.0719 C   0  0  0  0  0  0  0  0  0  0  0  0
    6.2441  -14.1892   22.6521 S   0  0  0  0  0  0  0  0  0  0  0  0
    8.2182  -16.2163   21.4397 C   0  0  0  0  0  0  0  0  0  0  0  0
    7.7081  -17.2795   21.8755 O   0  0  0  0  0  0  0  0  0  0  0  0
    9.5114  -15.7924   21.8488 N   0  0  0  0  0  0  0  0  0  0  0  0
   10.3233  -16.6454   22.7023 C   0  0  1  0  0  0  0  0  0  0  0  0
   11.7861  -16.5611   22.3428 C   0  0  0  0  0  0  0  0  0  0  0  0
   12.6025  -17.5537   23.0838 C   0  0  0  0  0  0  0  0  0  0  0  0
   13.5641  -17.1099   23.7584 O   0  0  0  0  0  0  0  0  0  0  0  0
   10.1827  -16.1436   24.0924 C   0  0  0  0  0  0  0  0  0  0  0  0
   10.7008  -15.0649   24.4493 O   0  0  0  0  0  0  0  0  0  0  0  0
   12.3819  -18.9033   23.0822 O   0  0  0  0  0  0  0  0  0  0  0  0
    9.4579  -16.8641   25.0688 N   0  0  0  0  0  0  0  0  0  0  0  0
    9.3375  -16.4585   26.4647 C   0  0  1  0  0  0  0  0  0  0  0  0
    7.9076  -16.1207   26.7990 C   0  0  0  0  0  0  0  0  0  0  0  0
    7.5591  -14.7603   26.3647 C   0  0  0  0  0  0  0  0  0  0  0  0
    7.9030  -13.6551   27.1472 C   0  0  0  0  0  0  0  0  0  0  0  0
    7.6061  -12.3751   26.7391 C   0  0  0  0  0  0  0  0  0  0  0  0
    6.9597  -12.1320   25.5461 C   0  0  0  0  0  0  0  0  0  0  0  0
    6.6153  -13.2172   24.7649 C   0  0  0  0  0  0  0  0  0  0  0  0
    6.9190  -14.5123   25.1842 C   0  0  0  0  0  0  0  0  0  0  0  0
    9.8554  -17.4680   27.3805 C   0  0  0  0  0  0  0  0  0  0  0  0
    9.9121  -17.3002   28.6043 O   0  0  0  0  0  0  0  0  0  0  0  0
   10.3124  -18.6862   26.8676 O   0  0  0  0  0  0  0  0  0  0  0  0
  2  1  1  1
  3  4  1  0
  3  2  1  0
  5  2  1  0
  5  6  2  0
  7  5  1  0
  8  7  1  0
  8 12  1  0
  8  9  1  6
 10 11  2  0
 10  9  1  0
 12 15  1  0
 13 12  2  0
 14 10  1  0
 15 16  1  0
 16 24  1  0
 17 18  1  0
 16 17  1  1
 18 23  2  0
 19 18  1  0
 19 20  2  0
 20 21  1  0
 21 22  2  0
 23 22  1  0
 24 25  2  0
 24 26  1  0
M  END
$$$$
