CDF.pdb
     RDKit          3D

 26 26  0  0  1  0  0  0  0  0999 V2000
    7.8412  -20.3371   20.3791 N   0  0  0  0  0  0  0  0  0  0  0  0
    7.4985  -19.2409   21.2624 C   0  0  1  0  0  0  0  0  0  0  0  0
    6.4321  -19.6991   22.2368 C   0  0  0  0  0  0  0  0  0  0  0  0
    5.8563  -18.3757   23.3094 S   0  0  0  0  0  0  0  0  0  0  0  0
    8.6964  -18.7061   21.9608 C   0  0  0  0  0  0  0  0  0  0  0  0
    9.5487  -19.4942   22.4437 O   0  0  0  0  0  0  0  0  0  0  0  0
    8.8471  -17.2969   22.0647 N   0  0  0  0  0  0  0  0  0  0  0  0
    9.8727  -16.7339   22.9286 C   0  0  1  0  0  0  0  0  0  0  0  0
   10.3092  -15.3688   22.4573 C   0  0  0  0  0  0  0  0  0  0  0  0
   11.1440  -15.4401   21.2331 C   0  0  0  0  0  0  0  0  0  0  0  0
   12.2923  -15.9334   21.3551 O   0  0  0  0  0  0  0  0  0  0  0  0
    9.2722  -16.5626   24.2756 C   0  0  0  0  0  0  0  0  0  0  0  0
    8.1012  -16.9240   24.5156 O   0  0  0  0  0  0  0  0  0  0  0  0
   10.7530  -15.0102   19.9952 O   0  0  0  0  0  0  0  0  0  0  0  0
    9.9991  -15.9845   25.3410 N   0  0  0  0  0  0  0  0  0  0  0  0
    9.4908  -15.8499   26.7016 C   0  0  1  0  0  0  0  0  0  0  0  0
    7.9878  -15.7428   26.6997 C   0  0  0  0  0  0  0  0  0  0  0  0
    7.5462  -14.3550   26.5009 C   0  0  0  0  0  0  0  0  0  0  0  0
    6.2775  -14.0805   25.9838 C   0  0  0  0  0  0  0  0  0  0  0  0
    5.8422  -12.7859   25.8179 C   0  0  0  0  0  0  0  0  0  0  0  0
    6.6371  -11.7110   26.1539 C   0  0  0  0  0  0  0  0  0  0  0  0
    7.8928  -11.9708   26.6660 C   0  0  0  0  0  0  0  0  0  0  0  0
    8.3282  -13.2855   26.8317 C   0  0  0  0  0  0  0  0  0  0  0  0
    9.9279  -16.9402   27.5655 C   0  0  0  0  0  0  0  0  0  0  0  0
    9.6918  -16.9728   28.7789 O   0  0  0  0  0  0  0  0  0  0  0  0
   10.6475  -18.0041   27.0125 O   0  0  0  0  0  0  0  0  0  0  0  0
  2  1  1  1
  3  4  1  0
  3  2  1  0
  5  2  1  0
  5  6  2  0
  7  5  1  0
  8  7  1  0
  8 12  1  0
  8  9  1  6
 10 11  2  0
 10  9  1  0
 12 15  1  0
 13 12  2  0
 14 10  1  0
 15 16  1  0
 16 24  1  0
 17 18  1  0
 16 17  1  6
 18 23  2  0
 19 18  1  0
 19 20  2  0
 20 21  1  0
 21 22  2  0
 23 22  1  0
 24 25  2  0
 24 26  1  0
M  END
$$$$
