CDF.pdb
     RDKit          3D

 26 26  0  0  1  0  0  0  0  0999 V2000
    7.3736  -16.2414   19.4510 N   0  0  0  0  0  0  0  0  0  0  0  0
    7.6292  -15.5241   20.6836 C   0  0  1  0  0  0  0  0  0  0  0  0
    6.3209  -15.3097   21.4175 C   0  0  0  0  0  0  0  0  0  0  0  0
    6.5486  -14.5781   23.0442 S   0  0  0  0  0  0  0  0  0  0  0  0
    8.6311  -16.2263   21.5275 C   0  0  0  0  0  0  0  0  0  0  0  0
    8.4723  -17.4395   21.8165 O   0  0  0  0  0  0  0  0  0  0  0  0
    9.7579  -15.4951   21.9912 N   0  0  0  0  0  0  0  0  0  0  0  0
   10.7363  -16.1332   22.8576 C   0  0  1  0  0  0  0  0  0  0  0  0
   12.1316  -15.6263   22.5889 C   0  0  0  0  0  0  0  0  0  0  0  0
   13.1665  -16.4604   23.2478 C   0  0  0  0  0  0  0  0  0  0  0  0
   12.8211  -17.6100   23.6166 O   0  0  0  0  0  0  0  0  0  0  0  0
   10.3967  -15.7658   24.2553 C   0  0  0  0  0  0  0  0  0  0  0  0
   10.7969  -14.6966   24.7616 O   0  0  0  0  0  0  0  0  0  0  0  0
   14.4559  -16.0674   23.4782 O   0  0  0  0  0  0  0  0  0  0  0  0
    9.6077  -16.6088   25.0706 N   0  0  0  0  0  0  0  0  0  0  0  0
    9.4398  -16.4342   26.5090 C   0  0  1  0  0  0  0  0  0  0  0  0
    7.9971  -16.1602   26.8467 C   0  0  0  0  0  0  0  0  0  0  0  0
    7.6081  -14.7909   26.4804 C   0  0  0  0  0  0  0  0  0  0  0  0
    6.4938  -14.5621   25.6690 C   0  0  0  0  0  0  0  0  0  0  0  0
    6.1037  -13.2841   25.3409 C   0  0  0  0  0  0  0  0  0  0  0  0
    6.7936  -12.1816   25.7977 C   0  0  0  0  0  0  0  0  0  0  0  0
    7.8964  -12.3963   26.6004 C   0  0  0  0  0  0  0  0  0  0  0  0
    8.2868  -13.6942   26.9294 C   0  0  0  0  0  0  0  0  0  0  0  0
    9.9377  -17.5763   27.2664 C   0  0  0  0  0  0  0  0  0  0  0  0
   10.3503  -18.6110   26.7295 O   0  0  0  0  0  0  0  0  0  0  0  0
    9.9559  -17.5147   28.6633 O   0  0  0  0  0  0  0  0  0  0  0  0
  2  1  1  6
  3  4  1  0
  3  2  1  0
  5  2  1  0
  5  6  2  0
  7  5  1  0
  8  7  1  0
  8 12  1  0
  8  9  1  6
 10 11  2  0
 10  9  1  0
 12 15  1  0
 13 12  2  0
 14 10  1  0
 15 16  1  0
 16 24  1  0
 17 18  1  0
 16 17  1  6
 18 23  2  0
 19 18  1  0
 19 20  2  0
 20 21  1  0
 21 22  2  0
 23 22  1  0
 24 25  2  0
 24 26  1  0
M  END
$$$$
