IKP.pdb
     RDKit          3D

 25 25  0  0  1  0  0  0  0  0999 V2000
   28.7284  -20.1080  -15.5049 C   0  0  0  0  0  0  0  0  0  0  0  0
   28.1616  -20.9091  -14.3589 C   0  0  0  0  0  0  0  0  0  0  0  0
   26.9756  -20.2048  -13.7685 C   0  0  2  0  0  0  0  0  0  0  0  0
   27.3547  -18.7939  -13.3680 C   0  0  0  0  0  0  0  0  0  0  0  0
   26.3789  -20.9673  -12.6194 C   0  0  2  0  0  0  0  0  0  0  0  0
   26.3351  -22.3862  -12.8842 N   0  0  0  0  0  0  0  0  0  0  0  0
   25.0172  -20.4604  -12.2976 C   0  0  0  0  0  0  0  0  0  0  0  0
   24.9290  -19.4999  -11.4827 O   0  0  0  0  0  0  0  0  0  0  0  0
   23.8535  -21.0127  -12.8654 N   0  0  0  0  0  0  0  0  0  0  0  0
   22.5155  -20.4328  -12.6444 C   0  0  1  0  0  0  0  0  0  0  0  0
   21.8886  -20.2204  -14.0048 C   0  0  0  0  0  0  0  0  0  0  0  0
   22.2439  -18.8950  -14.5783 C   0  0  0  0  0  0  0  0  0  0  0  0
   21.5646  -18.6836  -15.9384 C   0  0  0  0  0  0  0  0  0  0  0  0
   22.0324  -17.3569  -16.4617 C   0  0  0  0  0  0  0  0  0  0  0  0
   21.5024  -17.0768  -17.7765 N   0  0  0  0  0  0  0  0  0  0  0  0
   21.7662  -21.4435  -11.8840 C   0  0  0  0  0  0  0  0  0  0  0  0
   21.7178  -22.6227  -12.4045 O   0  0  0  0  0  0  0  0  0  0  0  0
   21.1087  -21.2905  -10.6667 N   0  0  0  0  0  0  0  0  0  0  0  0
   21.0579  -20.0613   -9.8667 C   0  0  0  0  0  0  0  0  0  0  0  0
   21.1249  -20.5788   -8.4347 C   0  0  0  0  0  0  0  0  0  0  0  0
   20.2879  -21.8420   -8.5156 C   0  0  0  0  0  0  0  0  0  0  0  0
   20.3777  -22.3235   -9.9531 C   0  0  1  0  0  0  0  0  0  0  0  0
   19.0426  -22.5016  -10.5398 C   0  0  0  0  0  0  0  0  0  0  0  0
   18.2955  -23.6054  -10.1235 O   0  0  0  0  0  0  0  0  0  0  0  0
   18.5060  -21.7548  -11.3825 O   0  0  0  0  0  0  0  0  0  0  0  0
  1  2  1  0
  3  5  1  0
  3  2  1  0
  3  4  1  1
  5  6  1  6
  7  5  1  0
  8  7  2  0
  9  7  1  0
 10 11  1  6
 10  9  1  0
 11 12  1  0
 13 12  1  0
 13 14  1  0
 14 15  1  0
 16 17  2  0
 16 10  1  0
 18 16  1  0
 19 18  1  0
 20 21  1  0
 20 19  1  0
 21 22  1  0
 22 18  1  0
 22 23  1  6
 24 23  1  0
 25 23  2  0
M  END
$$$$
