IKP.pdb
     RDKit          3D

 25 25  0  0  1  0  0  0  0  0999 V2000
   23.3811  -10.3340    7.1042 C   0  0  0  0  0  0  0  0  0  0  0  0
   21.9600   -9.8313    7.1671 C   0  0  0  0  0  0  0  0  0  0  0  0
   21.0296  -10.9476    7.5407 C   0  0  2  0  0  0  0  0  0  0  0  0
   21.1454  -12.0784    6.5395 C   0  0  0  0  0  0  0  0  0  0  0  0
   19.6100  -10.4767    7.6854 C   0  0  2  0  0  0  0  0  0  0  0  0
   19.4835   -9.4656    8.7088 N   0  0  0  0  0  0  0  0  0  0  0  0
   18.6999  -11.6184    7.9731 C   0  0  0  0  0  0  0  0  0  0  0  0
   18.8994  -12.2710    9.0355 O   0  0  0  0  0  0  0  0  0  0  0  0
   17.6478  -11.9798    7.1104 N   0  0  0  0  0  0  0  0  0  0  0  0
   16.6831  -13.0440    7.4447 C   0  0  1  0  0  0  0  0  0  0  0  0
   15.4554  -12.8212    6.5892 C   0  0  0  0  0  0  0  0  0  0  0  0
   14.4154  -13.8565    6.8312 C   0  0  0  0  0  0  0  0  0  0  0  0
   13.5967  -13.5312    8.0881 C   0  0  0  0  0  0  0  0  0  0  0  0
   12.6144  -14.6506    8.2746 C   0  0  0  0  0  0  0  0  0  0  0  0
   11.7751  -14.4463    9.4330 N   0  0  0  0  0  0  0  0  0  0  0  0
   17.3430  -14.3061    7.0800 C   0  0  0  0  0  0  0  0  0  0  0  0
   18.0090  -14.2981    5.9754 O   0  0  0  0  0  0  0  0  0  0  0  0
   17.3473  -15.5081    7.7820 N   0  0  0  0  0  0  0  0  0  0  0  0
   16.6997  -15.7486    9.0767 C   0  0  0  0  0  0  0  0  0  0  0  0
   17.6773  -16.6802    9.7834 C   0  0  0  0  0  0  0  0  0  0  0  0
   18.1564  -17.5596    8.6432 C   0  0  0  0  0  0  0  0  0  0  0  0
   18.0144  -16.7334    7.3769 C   0  0  1  0  0  0  0  0  0  0  0  0
   17.2150  -17.4396    6.3667 C   0  0  0  0  0  0  0  0  0  0  0  0
   17.8255  -18.4893    5.6773 O   0  0  0  0  0  0  0  0  0  0  0  0
   16.0316  -17.1901    6.0617 O   0  0  0  0  0  0  0  0  0  0  0  0
  1  2  1  0
  3  5  1  0
  3  2  1  0
  3  4  1  6
  5  6  1  1
  7  5  1  0
  8  7  2  0
  9  7  1  0
 10 11  1  6
 10  9  1  0
 11 12  1  0
 13 12  1  0
 13 14  1  0
 14 15  1  0
 16 17  2  0
 16 10  1  0
 18 16  1  0
 19 18  1  0
 20 21  1  0
 20 19  1  0
 21 22  1  0
 22 18  1  0
 22 23  1  6
 24 23  1  0
 25 23  2  0
M  END
$$$$
