IKP.pdb
     RDKit          3D

 25 25  0  0  1  0  0  0  0  0999 V2000
   26.1994  -21.1483   -8.8770 C   0  0  0  0  0  0  0  0  0  0  0  0
   25.6887  -21.3640  -10.2802 C   0  0  0  0  0  0  0  0  0  0  0  0
   24.4425  -20.5604  -10.5092 C   0  0  2  0  0  0  0  0  0  0  0  0
   23.3360  -21.0446   -9.5950 C   0  0  0  0  0  0  0  0  0  0  0  0
   24.0179  -20.5729  -11.9506 C   0  0  2  0  0  0  0  0  0  0  0  0
   23.6823  -21.9044  -12.3978 N   0  0  0  0  0  0  0  0  0  0  0  0
   25.0752  -19.9882  -12.8194 C   0  0  0  0  0  0  0  0  0  0  0  0
   25.4584  -18.8129  -12.5624 O   0  0  0  0  0  0  0  0  0  0  0  0
   25.6444  -20.6964  -13.8947 N   0  0  0  0  0  0  0  0  0  0  0  0
   26.6753  -20.1080  -14.7700 C   0  0  1  0  0  0  0  0  0  0  0  0
   27.2488  -21.2314  -15.6052 C   0  0  0  0  0  0  0  0  0  0  0  0
   28.3376  -20.7569  -16.5004 C   0  0  0  0  0  0  0  0  0  0  0  0
   28.8431  -21.8916  -17.4019 C   0  0  0  0  0  0  0  0  0  0  0  0
   29.7883  -21.2775  -18.3930 C   0  0  0  0  0  0  0  0  0  0  0  0
   30.3850  -22.2696  -19.2577 N   0  0  0  0  0  0  0  0  0  0  0  0
   25.9671  -19.1420  -15.6225 C   0  0  0  0  0  0  0  0  0  0  0  0
   24.8224  -19.5227  -16.0792 O   0  0  0  0  0  0  0  0  0  0  0  0
   26.3726  -17.8628  -15.9924 N   0  0  0  0  0  0  0  0  0  0  0  0
   27.6068  -17.1954  -15.5625 C   0  0  0  0  0  0  0  0  0  0  0  0
   27.1737  -15.7436  -15.3962 C   0  0  0  0  0  0  0  0  0  0  0  0
   26.2052  -15.5683  -16.5512 C   0  0  0  0  0  0  0  0  0  0  0  0
   25.6381  -16.9458  -16.8468 C   0  0  1  0  0  0  0  0  0  0  0  0
   25.8221  -17.3059  -18.2592 C   0  0  0  0  0  0  0  0  0  0  0  0
   25.0143  -16.6647  -19.2005 O   0  0  0  0  0  0  0  0  0  0  0  0
   26.6385  -18.1376  -18.7039 O   0  0  0  0  0  0  0  0  0  0  0  0
  1  2  1  0
  3  5  1  0
  3  2  1  0
  3  4  1  1
  5  6  1  6
  7  5  1  0
  8  7  2  0
  9  7  1  0
 10 11  1  6
 10  9  1  0
 11 12  1  0
 13 12  1  0
 13 14  1  0
 14 15  1  0
 16 17  2  0
 16 10  1  0
 18 16  1  0
 19 18  1  0
 20 21  1  0
 20 19  1  0
 21 22  1  0
 22 18  1  0
 22 23  1  6
 24 23  1  0
 25 23  2  0
M  END
$$$$
