IKP.pdb
     RDKit          3D

 25 25  0  0  1  0  0  0  0  0999 V2000
   20.4661  -19.0213  -20.6063 C   0  0  0  0  0  0  0  0  0  0  0  0
   21.0380  -17.6291  -20.5014 C   0  0  0  0  0  0  0  0  0  0  0  0
   22.0821  -17.5756  -19.4252 C   0  0  2  0  0  0  0  0  0  0  0  0
   23.1676  -18.5951  -19.7023 C   0  0  0  0  0  0  0  0  0  0  0  0
   21.4917  -17.7511  -18.0546 C   0  0  2  0  0  0  0  0  0  0  0  0
   20.5115  -16.7323  -17.7599 N   0  0  0  0  0  0  0  0  0  0  0  0
   22.5571  -17.7576  -17.0156 C   0  0  0  0  0  0  0  0  0  0  0  0
   23.2243  -16.6975  -16.8566 O   0  0  0  0  0  0  0  0  0  0  0  0
   22.8325  -18.8895  -16.2253 N   0  0  0  0  0  0  0  0  0  0  0  0
   23.8910  -18.8966  -15.1983 C   0  0  1  0  0  0  0  0  0  0  0  0
   23.3198  -19.5706  -13.9703 C   0  0  0  0  0  0  0  0  0  0  0  0
   24.3379  -19.7224  -12.8968 C   0  0  0  0  0  0  0  0  0  0  0  0
   23.7254  -20.3630  -11.6436 C   0  0  0  0  0  0  0  0  0  0  0  0
   24.8057  -20.4126  -10.6028 C   0  0  0  0  0  0  0  0  0  0  0  0
   24.3119  -20.8949   -9.3333 N   0  0  0  0  0  0  0  0  0  0  0  0
   24.9862  -19.6983  -15.7635 C   0  0  0  0  0  0  0  0  0  0  0  0
   24.6370  -20.7631  -16.4023 O   0  0  0  0  0  0  0  0  0  0  0  0
   26.3541  -19.4480  -15.7038 N   0  0  0  0  0  0  0  0  0  0  0  0
   26.9898  -18.3058  -15.0369 C   0  0  0  0  0  0  0  0  0  0  0  0
   28.1530  -17.9696  -15.9627 C   0  0  0  0  0  0  0  0  0  0  0  0
   28.6132  -19.3464  -16.4049 C   0  0  0  0  0  0  0  0  0  0  0  0
   27.3989  -20.2538  -16.3120 C   0  0  1  0  0  0  0  0  0  0  0  0
   27.6786  -21.4354  -15.4850 C   0  0  0  0  0  0  0  0  0  0  0  0
   28.5576  -22.3909  -15.9990 O   0  0  0  0  0  0  0  0  0  0  0  0
   27.2021  -21.6705  -14.3565 O   0  0  0  0  0  0  0  0  0  0  0  0
  1  2  1  0
  3  5  1  0
  3  2  1  0
  3  4  1  6
  5  6  1  1
  7  5  1  0
  8  7  2  0
  9  7  1  0
 10 11  1  1
 10  9  1  0
 11 12  1  0
 13 12  1  0
 13 14  1  0
 14 15  1  0
 16 17  2  0
 16 10  1  0
 18 16  1  0
 19 18  1  0
 20 21  1  0
 20 19  1  0
 21 22  1  0
 22 18  1  0
 22 23  1  1
 24 23  1  0
 25 23  2  0
M  END
$$$$
