IKP.pdb
     RDKit          3D

 25 25  0  0  1  0  0  0  0  0999 V2000
   19.7176  -17.6363  -19.0934 C   0  0  0  0  0  0  0  0  0  0  0  0
   20.3626  -16.3800  -18.5625 C   0  0  0  0  0  0  0  0  0  0  0  0
   19.3341  -15.3016  -18.3870 C   0  0  2  0  0  0  0  0  0  0  0  0
   18.6386  -15.0268  -19.7043 C   0  0  0  0  0  0  0  0  0  0  0  0
   19.9210  -14.0505  -17.7968 C   0  0  2  0  0  0  0  0  0  0  0  0
   20.5066  -14.2947  -16.4996 N   0  0  0  0  0  0  0  0  0  0  0  0
   18.8953  -12.9762  -17.7057 C   0  0  0  0  0  0  0  0  0  0  0  0
   18.3418  -12.6046  -18.7781 O   0  0  0  0  0  0  0  0  0  0  0  0
   18.5361  -12.3785  -16.4828 N   0  0  0  0  0  0  0  0  0  0  0  0
   17.4934  -11.3398  -16.3880 C   0  0  1  0  0  0  0  0  0  0  0  0
   16.7045  -11.6103  -15.1259 C   0  0  0  0  0  0  0  0  0  0  0  0
   15.5833  -12.5578  -15.3650 C   0  0  0  0  0  0  0  0  0  0  0  0
   14.7699  -12.7832  -14.0831 C   0  0  0  0  0  0  0  0  0  0  0  0
   13.6277  -13.6888  -14.4409 C   0  0  0  0  0  0  0  0  0  0  0  0
   12.8179  -14.0184  -13.2904 N   0  0  0  0  0  0  0  0  0  0  0  0
   18.2144  -10.0630  -16.2812 C   0  0  0  0  0  0  0  0  0  0  0  0
   19.3605  -10.1077  -15.6912 O   0  0  0  0  0  0  0  0  0  0  0  0
   17.8195   -8.8114  -16.7451 N   0  0  0  0  0  0  0  0  0  0  0  0
   16.5994   -8.5242  -17.5081 C   0  0  0  0  0  0  0  0  0  0  0  0
   17.0523   -7.4514  -18.4916 C   0  0  0  0  0  0  0  0  0  0  0  0
   18.0074   -6.6299  -17.6456 C   0  0  0  0  0  0  0  0  0  0  0  0
   18.5537   -7.5682  -16.5837 C   0  0  1  0  0  0  0  0  0  0  0  0
   18.3464   -7.0246  -15.2347 C   0  0  0  0  0  0  0  0  0  0  0  0
   19.0953   -5.9050  -14.8666 O   0  0  0  0  0  0  0  0  0  0  0  0
   17.5582   -7.4708  -14.3770 O   0  0  0  0  0  0  0  0  0  0  0  0
  1  2  1  0
  3  5  1  0
  3  2  1  0
  3  4  1  6
  5  6  1  1
  7  5  1  0
  8  7  2  0
  9  7  1  0
 10 11  1  1
 10  9  1  0
 11 12  1  0
 13 12  1  0
 13 14  1  0
 14 15  1  0
 16 17  2  0
 16 10  1  0
 18 16  1  0
 19 18  1  0
 20 21  1  0
 20 19  1  0
 21 22  1  0
 22 18  1  0
 22 23  1  1
 24 23  1  0
 25 23  2  0
M  END
$$$$
