IKP.pdb
     RDKit          3D

 25 25  0  0  1  0  0  0  0  0999 V2000
   28.6055  -20.0002   -3.7816 C   0  0  0  0  0  0  0  0  0  0  0  0
   28.1645  -19.1384   -4.9388 C   0  0  0  0  0  0  0  0  0  0  0  0
   27.8025  -19.9947   -6.1165 C   0  0  2  0  0  0  0  0  0  0  0  0
   28.9148  -20.9821   -6.4033 C   0  0  0  0  0  0  0  0  0  0  0  0
   27.4610  -19.1748   -7.3286 C   0  0  2  0  0  0  0  0  0  0  0  0
   26.4670  -18.1700   -7.0321 N   0  0  0  0  0  0  0  0  0  0  0  0
   26.9980  -20.0450   -8.4435 C   0  0  0  0  0  0  0  0  0  0  0  0
   27.8148  -20.8923   -8.9011 O   0  0  0  0  0  0  0  0  0  0  0  0
   25.7031  -19.9487   -8.9873 N   0  0  0  0  0  0  0  0  0  0  0  0
   25.3305  -20.5972  -10.2584 C   0  0  1  0  0  0  0  0  0  0  0  0
   23.8512  -20.3585  -10.4668 C   0  0  0  0  0  0  0  0  0  0  0  0
   23.4326  -20.6563  -11.8625 C   0  0  0  0  0  0  0  0  0  0  0  0
   22.2682  -21.6561  -11.8868 C   0  0  0  0  0  0  0  0  0  0  0  0
   21.9038  -21.8714  -13.3268 C   0  0  0  0  0  0  0  0  0  0  0  0
   20.8623  -22.8614  -13.4789 N   0  0  0  0  0  0  0  0  0  0  0  0
   26.1141  -19.9128  -11.2972 C   0  0  0  0  0  0  0  0  0  0  0  0
   26.1512  -18.6257  -11.2224 O   0  0  0  0  0  0  0  0  0  0  0  0
   26.8297  -20.4802  -12.3477 N   0  0  0  0  0  0  0  0  0  0  0  0
   27.0297  -21.9163  -12.5738 C   0  0  0  0  0  0  0  0  0  0  0  0
   28.4559  -21.9861  -13.1066 C   0  0  0  0  0  0  0  0  0  0  0  0
   28.5308  -20.7426  -13.9732 C   0  0  0  0  0  0  0  0  0  0  0  0
   27.5308  -19.7569  -13.3946 C   0  0  1  0  0  0  0  0  0  0  0  0
   26.5837  -19.2957  -14.4185 C   0  0  0  0  0  0  0  0  0  0  0  0
   27.0451  -18.3689  -15.3555 O   0  0  0  0  0  0  0  0  0  0  0  0
   25.3948  -19.6553  -14.5334 O   0  0  0  0  0  0  0  0  0  0  0  0
  1  2  1  0
  3  5  1  0
  3  2  1  0
  3  4  1  6
  5  6  1  1
  7  5  1  0
  8  7  2  0
  9  7  1  0
 10 11  1  6
 10  9  1  0
 11 12  1  0
 13 12  1  0
 13 14  1  0
 14 15  1  0
 16 17  2  0
 16 10  1  0
 18 16  1  0
 19 18  1  0
 20 21  1  0
 20 19  1  0
 21 22  1  0
 22 18  1  0
 22 23  1  6
 24 23  1  0
 25 23  2  0
M  END
$$$$
