IKP.pdb
     RDKit          3D

 25 25  0  0  1  0  0  0  0  0999 V2000
   28.1864  -26.9372  -16.7234 C   0  0  0  0  0  0  0  0  0  0  0  0
   28.1396  -25.6234  -17.4636 C   0  0  0  0  0  0  0  0  0  0  0  0
   27.7946  -24.5077  -16.5215 C   0  0  2  0  0  0  0  0  0  0  0  0
   26.4498  -24.7695  -15.8755 C   0  0  0  0  0  0  0  0  0  0  0  0
   27.8356  -23.1652  -17.1951 C   0  0  2  0  0  0  0  0  0  0  0  0
   29.1575  -22.8529  -17.6856 N   0  0  0  0  0  0  0  0  0  0  0  0
   27.3611  -22.0961  -16.2750 C   0  0  0  0  0  0  0  0  0  0  0  0
   28.1609  -21.6948  -15.3841 O   0  0  0  0  0  0  0  0  0  0  0  0
   26.0735  -21.5353  -16.3712 N   0  0  0  0  0  0  0  0  0  0  0  0
   25.6208  -20.4420  -15.4909 C   0  0  1  0  0  0  0  0  0  0  0  0
   24.6803  -19.5757  -16.2993 C   0  0  0  0  0  0  0  0  0  0  0  0
   24.0244  -18.5370  -15.4610 C   0  0  0  0  0  0  0  0  0  0  0  0
   23.0048  -17.7323  -16.2788 C   0  0  0  0  0  0  0  0  0  0  0  0
   22.5038  -16.6290  -15.3932 C   0  0  0  0  0  0  0  0  0  0  0  0
   21.5856  -15.7542  -16.0858 N   0  0  0  0  0  0  0  0  0  0  0  0
   24.9005  -21.0941  -14.3876 C   0  0  0  0  0  0  0  0  0  0  0  0
   24.1109  -22.0587  -14.7188 O   0  0  0  0  0  0  0  0  0  0  0  0
   24.9700  -20.8071  -13.0273 N   0  0  0  0  0  0  0  0  0  0  0  0
   25.8540  -19.8161  -12.4028 C   0  0  0  0  0  0  0  0  0  0  0  0
   26.2488  -20.4843  -11.0911 C   0  0  0  0  0  0  0  0  0  0  0  0
   24.9601  -21.1774  -10.6889 C   0  0  0  0  0  0  0  0  0  0  0  0
   24.2028  -21.4529  -11.9762 C   0  0  1  0  0  0  0  0  0  0  0  0
   22.8430  -20.8992  -11.9233 C   0  0  0  0  0  0  0  0  0  0  0  0
   21.9109  -21.5502  -11.1126 O   0  0  0  0  0  0  0  0  0  0  0  0
   22.4359  -19.8935  -12.5387 O   0  0  0  0  0  0  0  0  0  0  0  0
  1  2  1  0
  3  5  1  0
  3  2  1  0
  3  4  1  6
  5  6  1  1
  7  5  1  0
  8  7  2  0
  9  7  1  0
 10 11  1  6
 10  9  1  0
 11 12  1  0
 13 12  1  0
 13 14  1  0
 14 15  1  0
 16 17  2  0
 16 10  1  0
 18 16  1  0
 19 18  1  0
 20 21  1  0
 20 19  1  0
 21 22  1  0
 22 18  1  0
 22 23  1  1
 24 23  1  0
 25 23  2  0
M  END
$$$$
