IKP.pdb
     RDKit          3D

 25 25  0  0  1  0  0  0  0  0999 V2000
   20.9738  -20.7767  -10.3307 C   0  0  0  0  0  0  0  0  0  0  0  0
   22.2950  -21.2725   -9.7968 C   0  0  0  0  0  0  0  0  0  0  0  0
   23.4284  -20.6757  -10.5781 C   0  0  2  0  0  0  0  0  0  0  0  0
   23.2764  -21.0047  -12.0489 C   0  0  0  0  0  0  0  0  0  0  0  0
   24.7679  -21.1036  -10.0485 C   0  0  2  0  0  0  0  0  0  0  0  0
   24.9056  -20.8094   -8.6414 N   0  0  0  0  0  0  0  0  0  0  0  0
   25.8703  -20.4665  -10.8189 C   0  0  0  0  0  0  0  0  0  0  0  0
   26.0951  -19.2413  -10.6122 O   0  0  0  0  0  0  0  0  0  0  0  0
   26.6493  -21.1793  -11.7499 N   0  0  0  0  0  0  0  0  0  0  0  0
   27.6899  -20.5306  -12.5693 C   0  0  1  0  0  0  0  0  0  0  0  0
   28.8332  -21.5124  -12.7015 C   0  0  0  0  0  0  0  0  0  0  0  0
   29.8674  -21.3039  -11.6532 C   0  0  0  0  0  0  0  0  0  0  0  0
   31.0317  -22.2892  -11.8244 C   0  0  0  0  0  0  0  0  0  0  0  0
   32.0720  -21.9214  -10.8070 C   0  0  0  0  0  0  0  0  0  0  0  0
   33.2097  -22.8111  -10.8508 N   0  0  0  0  0  0  0  0  0  0  0  0
   27.0677  -20.2851  -13.8786 C   0  0  0  0  0  0  0  0  0  0  0  0
   26.2077  -21.1631  -14.2701 O   0  0  0  0  0  0  0  0  0  0  0  0
   27.2833  -19.2183  -14.7463 N   0  0  0  0  0  0  0  0  0  0  0  0
   28.2236  -18.1125  -14.5305 C   0  0  0  0  0  0  0  0  0  0  0  0
   27.4816  -16.9118  -15.1057 C   0  0  0  0  0  0  0  0  0  0  0  0
   26.7943  -17.5154  -16.3166 C   0  0  0  0  0  0  0  0  0  0  0  0
   26.5998  -18.9895  -16.0076 C   0  0  1  0  0  0  0  0  0  0  0  0
   27.1766  -19.8353  -17.0613 C   0  0  0  0  0  0  0  0  0  0  0  0
   28.4001  -20.4540  -16.7965 O   0  0  0  0  0  0  0  0  0  0  0  0
   26.6744  -20.0568  -18.1814 O   0  0  0  0  0  0  0  0  0  0  0  0
  1  2  1  0
  3  5  1  0
  3  2  1  0
  3  4  1  6
  5  6  1  1
  7  5  1  0
  8  7  2  0
  9  7  1  0
 10 11  1  6
 10  9  1  0
 11 12  1  0
 13 12  1  0
 13 14  1  0
 14 15  1  0
 16 17  2  0
 16 10  1  0
 18 16  1  0
 19 18  1  0
 20 21  1  0
 20 19  1  0
 21 22  1  0
 22 18  1  0
 22 23  1  6
 24 23  1  0
 25 23  2  0
M  END
$$$$
