IKP.pdb
     RDKit          3D

 25 25  0  0  1  0  0  0  0  0999 V2000
   26.2780  -19.9180   -7.5415 C   0  0  0  0  0  0  0  0  0  0  0  0
   26.7269  -20.8694   -8.6230 C   0  0  0  0  0  0  0  0  0  0  0  0
   25.9437  -20.6338   -9.8808 C   0  0  2  0  0  0  0  0  0  0  0  0
   24.4681  -20.8609   -9.6251 C   0  0  0  0  0  0  0  0  0  0  0  0
   26.4447  -21.4699  -11.0244 C   0  0  2  0  0  0  0  0  0  0  0  0
   27.8780  -21.3721  -11.1710 N   0  0  0  0  0  0  0  0  0  0  0  0
   25.7692  -21.0894  -12.2947 C   0  0  0  0  0  0  0  0  0  0  0  0
   26.0273  -19.9506  -12.7750 O   0  0  0  0  0  0  0  0  0  0  0  0
   24.8711  -21.9473  -12.9573 N   0  0  0  0  0  0  0  0  0  0  0  0
   24.2955  -21.6217  -14.2756 C   0  0  1  0  0  0  0  0  0  0  0  0
   24.4138  -22.8612  -15.1349 C   0  0  0  0  0  0  0  0  0  0  0  0
   25.8130  -23.0948  -15.5817 C   0  0  0  0  0  0  0  0  0  0  0  0
   26.3844  -21.8508  -16.2757 C   0  0  0  0  0  0  0  0  0  0  0  0
   27.7657  -22.2046  -16.7445 C   0  0  0  0  0  0  0  0  0  0  0  0
   28.4037  -21.1028  -17.4279 N   0  0  0  0  0  0  0  0  0  0  0  0
   22.8826  -21.3027  -14.0233 C   0  0  0  0  0  0  0  0  0  0  0  0
   22.3094  -21.9756  -13.0841 O   0  0  0  0  0  0  0  0  0  0  0  0
   22.0868  -20.3582  -14.6653 N   0  0  0  0  0  0  0  0  0  0  0  0
   22.5312  -19.4281  -15.7097 C   0  0  0  0  0  0  0  0  0  0  0  0
   21.7496  -18.1579  -15.3955 C   0  0  0  0  0  0  0  0  0  0  0  0
   20.4086  -18.7133  -14.9528 C   0  0  0  0  0  0  0  0  0  0  0  0
   20.6815  -20.1016  -14.4011 C   0  0  1  0  0  0  0  0  0  0  0  0
   19.8450  -21.1119  -15.0629 C   0  0  0  0  0  0  0  0  0  0  0  0
   20.4462  -21.9119  -16.0368 O   0  0  0  0  0  0  0  0  0  0  0  0
   18.6373  -21.3267  -14.8371 O   0  0  0  0  0  0  0  0  0  0  0  0
  1  2  1  0
  3  5  1  0
  3  2  1  0
  3  4  1  1
  5  6  1  6
  7  5  1  0
  8  7  2  0
  9  7  1  0
 10 11  1  6
 10  9  1  0
 11 12  1  0
 13 12  1  0
 13 14  1  0
 14 15  1  0
 16 17  2  0
 16 10  1  0
 18 16  1  0
 19 18  1  0
 20 21  1  0
 20 19  1  0
 21 22  1  0
 22 18  1  0
 22 23  1  6
 24 23  1  0
 25 23  2  0
M  END
$$$$
