IKP.pdb
     RDKit          3D

 25 25  0  0  1  0  0  0  0  0999 V2000
   13.8300  -11.2391  -18.2942 C   0  0  0  0  0  0  0  0  0  0  0  0
   14.9462  -12.2265  -18.5296 C   0  0  0  0  0  0  0  0  0  0  0  0
   16.0762  -11.9710  -17.5762 C   0  0  2  0  0  0  0  0  0  0  0  0
   16.5675  -10.5455  -17.7219 C   0  0  0  0  0  0  0  0  0  0  0  0
   17.1924  -12.9632  -17.7426 C   0  0  2  0  0  0  0  0  0  0  0  0
   16.7339  -14.3200  -17.5575 N   0  0  0  0  0  0  0  0  0  0  0  0
   18.3105  -12.6644  -16.8071 C   0  0  0  0  0  0  0  0  0  0  0  0
   18.3047  -13.2449  -15.6857 O   0  0  0  0  0  0  0  0  0  0  0  0
   19.3490  -11.7720  -17.1339 N   0  0  0  0  0  0  0  0  0  0  0  0
   20.5160  -11.5635  -16.2566 C   0  0  1  0  0  0  0  0  0  0  0  0
   21.7420  -11.9940  -17.0313 C   0  0  0  0  0  0  0  0  0  0  0  0
   22.9878  -11.8255  -16.2366 C   0  0  0  0  0  0  0  0  0  0  0  0
   24.2100  -12.3323  -17.0146 C   0  0  0  0  0  0  0  0  0  0  0  0
   25.4048  -12.1466  -16.1253 C   0  0  0  0  0  0  0  0  0  0  0  0
   26.6359  -12.5053  -16.7916 N   0  0  0  0  0  0  0  0  0  0  0  0
   20.5572  -10.1185  -15.9885 C   0  0  0  0  0  0  0  0  0  0  0  0
   20.3452   -9.3486  -17.0014 O   0  0  0  0  0  0  0  0  0  0  0  0
   20.7875   -9.4755  -14.7757 N   0  0  0  0  0  0  0  0  0  0  0  0
   21.1326  -10.1303  -13.5085 C   0  0  0  0  0  0  0  0  0  0  0  0
   20.3875   -9.2946  -12.4744 C   0  0  0  0  0  0  0  0  0  0  0  0
   20.5382   -7.8919  -13.0335 C   0  0  0  0  0  0  0  0  0  0  0  0
   20.7018   -8.0453  -14.5355 C   0  0  1  0  0  0  0  0  0  0  0  0
   21.9196   -7.3744  -15.0100 C   0  0  0  0  0  0  0  0  0  0  0  0
   22.9688   -8.1796  -15.4579 O   0  0  0  0  0  0  0  0  0  0  0  0
   22.1095   -6.1423  -15.0521 O   0  0  0  0  0  0  0  0  0  0  0  0
  1  2  1  0
  3  5  1  0
  3  2  1  0
  3  4  1  6
  5  6  1  1
  7  5  1  0
  8  7  2  0
  9  7  1  0
 10 11  1  6
 10  9  1  0
 11 12  1  0
 13 12  1  0
 13 14  1  0
 14 15  1  0
 16 17  2  0
 16 10  1  0
 18 16  1  0
 19 18  1  0
 20 21  1  0
 20 19  1  0
 21 22  1  0
 22 18  1  0
 22 23  1  1
 24 23  1  0
 25 23  2  0
M  END
$$$$
