IKP.pdb
     RDKit          3D

 25 25  0  0  1  0  0  0  0  0999 V2000
   21.0010  -18.9801  -21.7458 C   0  0  0  0  0  0  0  0  0  0  0  0
   21.2469  -18.1272  -20.5257 C   0  0  0  0  0  0  0  0  0  0  0  0
   22.0765  -18.8773  -19.5255 C   0  0  2  0  0  0  0  0  0  0  0  0
   21.4136  -20.1959  -19.1842 C   0  0  0  0  0  0  0  0  0  0  0  0
   22.3552  -18.0607  -18.2953 C   0  0  2  0  0  0  0  0  0  0  0  0
   23.1368  -16.8851  -18.5995 N   0  0  0  0  0  0  0  0  0  0  0  0
   23.0391  -18.8808  -17.2588 C   0  0  0  0  0  0  0  0  0  0  0  0
   24.2511  -19.1764  -17.4539 O   0  0  0  0  0  0  0  0  0  0  0  0
   22.3836  -19.3244  -16.0947 N   0  0  0  0  0  0  0  0  0  0  0  0
   23.0813  -20.0721  -15.0321 C   0  0  1  0  0  0  0  0  0  0  0  0
   22.3649  -19.7779  -13.7325 C   0  0  0  0  0  0  0  0  0  0  0  0
   22.7014  -20.7701  -12.6769 C   0  0  0  0  0  0  0  0  0  0  0  0
   23.2480  -20.0752  -11.4222 C   0  0  0  0  0  0  0  0  0  0  0  0
   23.7494  -21.1532  -10.5060 C   0  0  0  0  0  0  0  0  0  0  0  0
   24.3674  -20.6094   -9.3184 N   0  0  0  0  0  0  0  0  0  0  0  0
   22.9403  -21.4915  -15.3882 C   0  0  0  0  0  0  0  0  0  0  0  0
   21.8572  -21.8143  -16.0097 O   0  0  0  0  0  0  0  0  0  0  0  0
   23.8339  -22.5311  -15.1469 N   0  0  0  0  0  0  0  0  0  0  0  0
   25.1178  -22.4146  -14.4457 C   0  0  0  0  0  0  0  0  0  0  0  0
   26.0175  -23.3773  -15.2116 C   0  0  0  0  0  0  0  0  0  0  0  0
   25.0660  -24.5169  -15.5261 C   0  0  0  0  0  0  0  0  0  0  0  0
   23.6734  -23.9124  -15.5672 C   0  0  1  0  0  0  0  0  0  0  0  0
   22.7589  -24.6189  -14.6601 C   0  0  0  0  0  0  0  0  0  0  0  0
   22.3161  -23.9346  -13.5263 O   0  0  0  0  0  0  0  0  0  0  0  0
   22.3352  -25.7831  -14.8056 O   0  0  0  0  0  0  0  0  0  0  0  0
  1  2  1  0
  3  5  1  0
  3  2  1  0
  3  4  1  1
  5  6  1  6
  7  5  1  0
  8  7  2  0
  9  7  1  0
 10 11  1  1
 10  9  1  0
 11 12  1  0
 13 12  1  0
 13 14  1  0
 14 15  1  0
 16 17  2  0
 16 10  1  0
 18 16  1  0
 19 18  1  0
 20 21  1  0
 20 19  1  0
 21 22  1  0
 22 18  1  0
 22 23  1  1
 24 23  1  0
 25 23  2  0
M  END
$$$$
