IKP.pdb
     RDKit          3D

 25 25  0  0  1  0  0  0  0  0999 V2000
   13.0580  -11.2720  -16.2423 C   0  0  0  0  0  0  0  0  0  0  0  0
   14.1527  -12.2003  -16.7075 C   0  0  0  0  0  0  0  0  0  0  0  0
   15.4934  -11.6771  -16.2833 C   0  0  2  0  0  0  0  0  0  0  0  0
   15.6863  -10.2646  -16.7951 C   0  0  0  0  0  0  0  0  0  0  0  0
   16.6148  -12.5812  -16.7109 C   0  0  2  0  0  0  0  0  0  0  0  0
   16.4913  -13.8979  -16.1308 N   0  0  0  0  0  0  0  0  0  0  0  0
   17.9350  -11.9873  -16.3658 C   0  0  0  0  0  0  0  0  0  0  0  0
   18.3503  -12.1346  -15.1825 O   0  0  0  0  0  0  0  0  0  0  0  0
   18.7129  -11.2823  -17.3037 N   0  0  0  0  0  0  0  0  0  0  0  0
   20.0581  -10.7678  -16.9861 C   0  0  1  0  0  0  0  0  0  0  0  0
   20.8125  -10.6490  -18.2919 C   0  0  0  0  0  0  0  0  0  0  0  0
   22.1774  -10.0918  -18.0952 C   0  0  0  0  0  0  0  0  0  0  0  0
   22.9191   -9.9665  -19.4331 C   0  0  0  0  0  0  0  0  0  0  0  0
   24.2799   -9.4103  -19.1307 C   0  0  0  0  0  0  0  0  0  0  0  0
   25.0229   -9.1143  -20.3342 N   0  0  0  0  0  0  0  0  0  0  0  0
   19.8445   -9.4402  -16.3919 C   0  0  0  0  0  0  0  0  0  0  0  0
   18.9028   -8.7307  -16.9149 O   0  0  0  0  0  0  0  0  0  0  0  0
   20.5256   -8.8547  -15.3284 N   0  0  0  0  0  0  0  0  0  0  0  0
   21.6209   -9.4680  -14.5683 C   0  0  0  0  0  0  0  0  0  0  0  0
   21.3640   -8.9878  -13.1448 C   0  0  0  0  0  0  0  0  0  0  0  0
   20.8792   -7.5679  -13.3728 C   0  0  0  0  0  0  0  0  0  0  0  0
   20.2599   -7.5447  -14.7593 C   0  0  1  0  0  0  0  0  0  0  0  0
   20.8602   -6.4948  -15.5934 C   0  0  0  0  0  0  0  0  0  0  0  0
   21.7148   -6.8960  -16.6223 O   0  0  0  0  0  0  0  0  0  0  0  0
   20.6787   -5.2668  -15.4705 O   0  0  0  0  0  0  0  0  0  0  0  0
  1  2  1  0
  3  5  1  0
  3  2  1  0
  3  4  1  6
  5  6  1  1
  7  5  1  0
  8  7  2  0
  9  7  1  0
 10 11  1  6
 10  9  1  0
 11 12  1  0
 13 12  1  0
 13 14  1  0
 14 15  1  0
 16 17  2  0
 16 10  1  0
 18 16  1  0
 19 18  1  0
 20 21  1  0
 20 19  1  0
 21 22  1  0
 22 18  1  0
 22 23  1  6
 24 23  1  0
 25 23  2  0
M  END
$$$$
