IKP.pdb
     RDKit          3D

 25 25  0  0  1  0  0  0  0  0999 V2000
   15.4674  -12.5323  -18.6441 C   0  0  0  0  0  0  0  0  0  0  0  0
   16.7114  -13.3858  -18.6196 C   0  0  0  0  0  0  0  0  0  0  0  0
   17.7737  -12.7328  -17.7852 C   0  0  2  0  0  0  0  0  0  0  0  0
   18.0887  -11.3547  -18.3294 C   0  0  0  0  0  0  0  0  0  0  0  0
   19.0083  -13.5822  -17.6746 C   0  0  2  0  0  0  0  0  0  0  0  0
   18.7167  -14.8788  -17.1096 N   0  0  0  0  0  0  0  0  0  0  0  0
   20.0550  -12.8934  -16.8719 C   0  0  0  0  0  0  0  0  0  0  0  0
   19.9220  -12.8928  -15.6162 O   0  0  0  0  0  0  0  0  0  0  0  0
   21.1627  -12.2577  -17.4640 N   0  0  0  0  0  0  0  0  0  0  0  0
   22.2314  -11.6284  -16.6659 C   0  0  1  0  0  0  0  0  0  0  0  0
   23.4682  -11.5752  -17.5355 C   0  0  0  0  0  0  0  0  0  0  0  0
   24.5840  -10.8521  -16.8692 C   0  0  0  0  0  0  0  0  0  0  0  0
   25.7795  -10.6897  -17.8181 C   0  0  0  0  0  0  0  0  0  0  0  0
   26.8870  -10.0587  -17.0256 C   0  0  0  0  0  0  0  0  0  0  0  0
   28.0754   -9.8572  -17.8226 N   0  0  0  0  0  0  0  0  0  0  0  0
   21.7543  -10.2707  -16.3652 C   0  0  0  0  0  0  0  0  0  0  0  0
   21.1648   -9.6511  -17.3307 O   0  0  0  0  0  0  0  0  0  0  0  0
   21.8508   -9.5718  -15.1654 N   0  0  0  0  0  0  0  0  0  0  0  0
   22.4544  -10.0735  -13.9254 C   0  0  0  0  0  0  0  0  0  0  0  0
   21.5542   -9.4899  -12.8429 C   0  0  0  0  0  0  0  0  0  0  0  0
   21.2371   -8.1154  -13.4025 C   0  0  0  0  0  0  0  0  0  0  0  0
   21.3488   -8.2321  -14.9126 C   0  0  1  0  0  0  0  0  0  0  0  0
   22.2740   -7.2293  -15.4575 C   0  0  0  0  0  0  0  0  0  0  0  0
   21.8539   -5.8976  -15.4632 O   0  0  0  0  0  0  0  0  0  0  0  0
   23.4102   -7.4542  -15.9205 O   0  0  0  0  0  0  0  0  0  0  0  0
  1  2  1  0
  3  5  1  0
  3  2  1  0
  3  4  1  6
  5  6  1  1
  7  5  1  0
  8  7  2  0
  9  7  1  0
 10 11  1  6
 10  9  1  0
 11 12  1  0
 13 12  1  0
 13 14  1  0
 14 15  1  0
 16 17  2  0
 16 10  1  0
 18 16  1  0
 19 18  1  0
 20 21  1  0
 20 19  1  0
 21 22  1  0
 22 18  1  0
 22 23  1  1
 24 23  1  0
 25 23  2  0
M  END
$$$$
