IKP.pdb
     RDKit          3D

 25 25  0  0  1  0  0  0  0  0999 V2000
   25.1117  -19.3473  -14.9919 C   0  0  0  0  0  0  0  0  0  0  0  0
   25.6570  -20.1139  -13.8123 C   0  0  0  0  0  0  0  0  0  0  0  0
   27.1288  -19.8627  -13.6644 C   0  0  2  0  0  0  0  0  0  0  0  0
   27.8575  -20.2830  -14.9241 C   0  0  0  0  0  0  0  0  0  0  0  0
   27.6972  -20.5311  -12.4445 C   0  0  2  0  0  0  0  0  0  0  0  0
   27.4363  -21.9515  -12.4422 N   0  0  0  0  0  0  0  0  0  0  0  0
   27.1656  -19.9071  -11.2024 C   0  0  0  0  0  0  0  0  0  0  0  0
   27.2577  -18.6525  -11.0935 O   0  0  0  0  0  0  0  0  0  0  0  0
   26.5772  -20.6632  -10.1710 N   0  0  0  0  0  0  0  0  0  0  0  0
   26.0882  -20.0492   -8.9224 C   0  0  1  0  0  0  0  0  0  0  0  0
   24.7097  -20.6127   -8.6557 C   0  0  0  0  0  0  0  0  0  0  0  0
   23.6938  -20.0583   -9.5897 C   0  0  0  0  0  0  0  0  0  0  0  0
   22.5068  -21.0188   -9.7456 C   0  0  0  0  0  0  0  0  0  0  0  0
   21.3369  -20.3885   -9.0478 C   0  0  0  0  0  0  0  0  0  0  0  0
   20.1170  -21.1346   -9.2558 N   0  0  0  0  0  0  0  0  0  0  0  0
   27.0297  -20.4744   -7.8764 C   0  0  0  0  0  0  0  0  0  0  0  0
   27.5196  -21.6607   -8.0039 O   0  0  0  0  0  0  0  0  0  0  0  0
   27.4668  -19.7536   -6.7688 N   0  0  0  0  0  0  0  0  0  0  0  0
   27.1358  -18.3557   -6.4687 C   0  0  0  0  0  0  0  0  0  0  0  0
   28.4282  -17.8169   -5.8668 C   0  0  0  0  0  0  0  0  0  0  0  0
   28.9170  -19.0022   -5.0549 C   0  0  0  0  0  0  0  0  0  0  0  0
   28.3502  -20.2421   -5.7240 C   0  0  1  0  0  0  0  0  0  0  0  0
   27.6014  -21.0685   -4.7677 C   0  0  0  0  0  0  0  0  0  0  0  0
   26.2202  -21.1712   -4.9447 O   0  0  0  0  0  0  0  0  0  0  0  0
   28.0847  -21.6939   -3.8027 O   0  0  0  0  0  0  0  0  0  0  0  0
  1  2  1  0
  3  5  1  0
  3  2  1  0
  3  4  1  6
  5  6  1  6
  7  5  1  0
  8  7  2  0
  9  7  1  0
 10 11  1  1
 10  9  1  0
 11 12  1  0
 13 12  1  0
 13 14  1  0
 14 15  1  0
 16 17  2  0
 16 10  1  0
 18 16  1  0
 19 18  1  0
 20 21  1  0
 20 19  1  0
 21 22  1  0
 22 18  1  0
 22 23  1  1
 24 23  1  0
 25 23  2  0
M  END
$$$$
