IKP.pdb
     RDKit          3D

 25 25  0  0  1  0  0  0  0  0999 V2000
-298454.6562-628623.1250393917.5000 C   0  0  0  0  0  0  0  0  0  0  0  0
-298455.1250-628622.5625393916.0000 C   0  0  0  0  0  0  0  0  0  0  0  0
-298456.0312-628621.5000393915.8750 C   0  0  2  0  0  0  0  0  0  0  0  0
-298456.7812-628621.1250393914.5625 C   0  0  0  0  0  0  0  0  0  0  0  0
-298455.3438-628620.3750393916.3125 C   0  0  2  0  0  0  0  0  0  0  0  0
-298454.2500-628620.8125393917.2188 N   0  0  0  0  0  0  0  0  0  0  0  0
-298456.0625-628619.7500393917.1875 C   0  0  0  0  0  0  0  0  0  0  0  0
-298457.0625-628620.1250393917.8750 O   0  0  0  0  0  0  0  0  0  0  0  0
-298455.5938-628618.1875393917.8438 N   0  0  0  0  0  0  0  0  0  0  0  0
-298456.2188-628617.5625393918.6562 C   0  0  1  0  0  0  0  0  0  0  0  0
-298455.3438-628616.3125393919.0938 C   0  0  0  0  0  0  0  0  0  0  0  0
-298455.7812-628615.1250393918.7812 C   0  0  0  0  0  0  0  0  0  0  0  0
-298457.5000-628614.8125393919.3438 C   0  0  0  0  0  0  0  0  0  0  0  0
-298457.4688-628614.6875393920.5625 C   0  0  0  0  0  0  0  0  0  0  0  0
-298458.1875-628615.2500393921.2188 N   0  0  0  0  0  0  0  0  0  0  0  0
-298457.2812-628616.9375393917.8750 C   0  0  0  0  0  0  0  0  0  0  0  0
-298458.0625-628617.8125393917.2812 O   0  0  0  0  0  0  0  0  0  0  0  0
-298458.0625-628615.8750393917.9688 N   0  0  0  0  0  0  0  0  0  0  0  0
-298458.0312-628614.6875393919.0312 C   0  0  0  0  0  0  0  0  0  0  0  0
-298459.6562-628614.3125393918.8438 C   0  0  0  0  0  0  0  0  0  0  0  0
-298459.5625-628613.9375393917.5312 C   0  0  0  0  0  0  0  0  0  0  0  0
-298458.6562-628615.3125393916.8125 C   0  0  1  0  0  0  0  0  0  0  0  0
-298457.8438-628614.5000393915.9062 C   0  0  0  0  0  0  0  0  0  0  0  0
-298458.2188-628613.6875393914.8438 O   0  0  0  0  0  0  0  0  0  0  0  0
-298456.5000-628614.8125393915.9375 O   0  0  0  0  0  0  0  0  0  0  0  0
  1  2  1  0
  3  5  1  0
  3  2  1  0
  3  4  1  6
  5  6  1  1
  7  5  1  0
  8  7  2  0
  9  7  1  0
 10 11  1  6
 10  9  1  0
 11 12  1  0
 13 12  1  0
 13 14  1  0
 14 15  1  0
 16 17  2  0
 16 10  1  0
 18 16  1  0
 19 18  1  0
 20 21  1  0
 20 19  1  0
 21 22  1  0
 22 18  1  0
 22 23  1  6
 24 23  1  0
 25 23  2  0
M  END
$$$$
