IKP.pdb
     RDKit          3D

 25 25  0  0  1  0  0  0  0  0999 V2000
   29.1504  -21.6181   -9.1139 C   0  0  0  0  0  0  0  0  0  0  0  0
   27.9302  -20.7425   -9.2583 C   0  0  0  0  0  0  0  0  0  0  0  0
   27.1230  -21.1678  -10.4493 C   0  0  2  0  0  0  0  0  0  0  0  0
   28.0041  -21.2288  -11.6800 C   0  0  0  0  0  0  0  0  0  0  0  0
   25.9261  -20.2856  -10.6660 C   0  0  2  0  0  0  0  0  0  0  0  0
   25.0223  -20.3240   -9.5403 N   0  0  0  0  0  0  0  0  0  0  0  0
   25.2100  -20.6616  -11.9152 C   0  0  0  0  0  0  0  0  0  0  0  0
   25.8959  -20.7785  -12.9690 O   0  0  0  0  0  0  0  0  0  0  0  0
   23.8205  -20.8844  -11.9499 N   0  0  0  0  0  0  0  0  0  0  0  0
   23.1129  -21.2673  -13.1860 C   0  0  1  0  0  0  0  0  0  0  0  0
   21.7899  -21.8752  -12.7753 C   0  0  0  0  0  0  0  0  0  0  0  0
   20.9900  -22.3091  -13.9517 C   0  0  0  0  0  0  0  0  0  0  0  0
   19.6880  -22.9920  -13.5107 C   0  0  0  0  0  0  0  0  0  0  0  0
   18.9922  -23.4575  -14.7564 C   0  0  0  0  0  0  0  0  0  0  0  0
   17.7374  -24.1112  -14.4629 N   0  0  0  0  0  0  0  0  0  0  0  0
   22.8971  -20.0139  -13.9235 C   0  0  0  0  0  0  0  0  0  0  0  0
   22.5772  -18.9865  -13.2124 O   0  0  0  0  0  0  0  0  0  0  0  0
   23.0034  -19.7937  -15.2939 N   0  0  0  0  0  0  0  0  0  0  0  0
   23.4579  -20.7727  -16.2882 C   0  0  0  0  0  0  0  0  0  0  0  0
   24.2521  -19.9215  -17.2720 C   0  0  0  0  0  0  0  0  0  0  0  0
   23.4324  -18.6453  -17.3192 C   0  0  0  0  0  0  0  0  0  0  0  0
   22.7114  -18.5503  -15.9860 C   0  0  1  0  0  0  0  0  0  0  0  0
   21.2621  -18.3989  -16.1736 C   0  0  0  0  0  0  0  0  0  0  0  0
   20.7837  -17.1338  -16.5206 O   0  0  0  0  0  0  0  0  0  0  0  0
   20.4085  -19.3002  -16.0517 O   0  0  0  0  0  0  0  0  0  0  0  0
  1  2  1  0
  3  5  1  0
  3  2  1  0
  3  4  1  6
  5  6  1  1
  7  5  1  0
  8  7  2  0
  9  7  1  0
 10 11  1  1
 10  9  1  0
 11 12  1  0
 13 12  1  0
 13 14  1  0
 14 15  1  0
 16 17  2  0
 16 10  1  0
 18 16  1  0
 19 18  1  0
 20 21  1  0
 20 19  1  0
 21 22  1  0
 22 18  1  0
 22 23  1  6
 24 23  1  0
 25 23  2  0
M  END
$$$$
