SIW.pdb
     RDKit          3D

 29 30  0  0  1  0  0  0  0  0999 V2000
   29.4987  -19.6035  -17.7135 O   0  0  0  0  0  0  0  0  0  0  0  0
   28.8556  -20.2689  -16.6762 C   0  0  0  0  0  0  0  0  0  0  0  0
   29.8356  -21.2516  -16.0926 C   0  0  2  0  0  0  0  0  0  0  0  0
   29.9719  -22.3547  -17.0108 N   0  0  0  0  0  0  0  0  0  0  0  0
   29.3811  -21.7132  -14.7333 C   0  0  0  0  0  0  0  0  0  0  0  0
   28.5191  -22.6066  -14.7221 O   0  0  0  0  0  0  0  0  0  0  0  0
   32.5841  -21.6340  -10.2562 C   0  0  0  0  0  0  0  0  0  0  0  0
   31.4808  -22.0021  -11.1839 C   0  0  0  0  0  0  0  0  0  0  0  0
   30.2896  -21.0567  -11.1423 C   0  0  2  0  0  0  0  0  0  0  0  0
   29.6166  -21.4110   -9.8081 C   0  0  0  0  0  0  0  0  0  0  0  0
   29.3661  -21.4854  -12.2408 C   0  0  2  0  0  0  0  0  0  0  0  0
   29.8758  -21.1924  -13.5521 N   0  0  0  0  0  0  0  0  0  0  0  0
   28.0413  -20.9012  -12.1361 C   0  0  0  0  0  0  0  0  0  0  0  0
   27.9185  -19.6449  -12.4505 O   0  0  0  0  0  0  0  0  0  0  0  0
   26.8240  -21.5035  -11.7380 N   0  0  0  0  0  0  0  0  0  0  0  0
   25.5594  -20.7430  -11.7660 C   0  0  1  0  0  0  0  0  0  0  0  0
   24.8610  -21.1297  -13.0571 C   0  0  0  0  0  0  0  0  0  0  0  0
   23.6235  -20.3436  -13.2511 C   0  0  0  0  0  0  0  0  0  0  0  0
   23.5588  -19.0119  -13.6043 C   0  0  0  0  0  0  0  0  0  0  0  0
   22.2548  -18.6665  -13.6805 N   0  0  0  0  0  0  0  0  0  0  0  0
   21.4841  -19.7333  -13.3877 C   0  0  0  0  0  0  0  0  0  0  0  0
   20.1085  -19.8493  -13.3404 C   0  0  0  0  0  0  0  0  0  0  0  0
   19.5914  -21.0834  -13.0062 C   0  0  0  0  0  0  0  0  0  0  0  0
   20.4373  -22.1575  -12.7308 C   0  0  0  0  0  0  0  0  0  0  0  0
   21.8008  -22.0290  -12.7813 C   0  0  0  0  0  0  0  0  0  0  0  0
   22.3306  -20.8019  -13.1138 C   0  0  0  0  0  0  0  0  0  0  0  0
   24.7249  -21.1537  -10.6174 C   0  0  0  0  0  0  0  0  0  0  0  0
   24.8366  -22.2758  -10.0635 O   0  0  0  0  0  0  0  0  0  0  0  0
   23.7659  -20.2748  -10.1100 O   0  0  0  0  0  0  0  0  0  0  0  0
  2  1  1  0
  2  3  1  0
  3  4  1  6
  5  6  2  0
  5  3  1  0
  8  7  1  0
  8  9  1  0
  9 11  1  0
  9 10  1  1
 11 12  1  6
 12  5  1  0
 13 11  1  0
 14 13  2  0
 15 13  1  0
 16 27  1  0
 16 15  1  0
 16 17  1  6
 18 17  1  0
 18 19  2  0
 20 19  1  0
 21 20  1  0
 22 21  2  0
 23 22  1  0
 24 23  2  0
 24 25  1  0
 25 26  2  0
 26 21  1  0
 26 18  1  0
 27 29  1  0
 28 27  2  0
M  END
$$$$
