SIW.pdb
     RDKit          3D

 29 30  0  0  1  0  0  0  0  0999 V2000
   29.9715  -20.5511  -16.5152 O   0  0  0  0  0  0  0  0  0  0  0  0
   29.8094  -19.3206  -15.8890 C   0  0  0  0  0  0  0  0  0  0  0  0
   28.4239  -18.8278  -16.2116 C   0  0  2  0  0  0  0  0  0  0  0  0
   28.5405  -17.5628  -16.8931 N   0  0  0  0  0  0  0  0  0  0  0  0
   27.5958  -18.7100  -14.9594 C   0  0  0  0  0  0  0  0  0  0  0  0
   27.7468  -17.6668  -14.3033 O   0  0  0  0  0  0  0  0  0  0  0  0
   22.5413  -18.5584  -14.8628 C   0  0  0  0  0  0  0  0  0  0  0  0
   23.9662  -18.5357  -14.4356 C   0  0  0  0  0  0  0  0  0  0  0  0
   24.4159  -19.7874  -13.6971 C   0  0  2  0  0  0  0  0  0  0  0  0
   23.6407  -19.7025  -12.3741 C   0  0  0  0  0  0  0  0  0  0  0  0
   25.8678  -19.5983  -13.3817 C   0  0  2  0  0  0  0  0  0  0  0  0
   26.7126  -19.6877  -14.5407 N   0  0  0  0  0  0  0  0  0  0  0  0
   26.3662  -20.5370  -12.3928 C   0  0  0  0  0  0  0  0  0  0  0  0
   26.5579  -21.7638  -12.7805 O   0  0  0  0  0  0  0  0  0  0  0  0
   26.6906  -20.3192  -11.0325 N   0  0  0  0  0  0  0  0  0  0  0  0
   26.7093  -21.4388  -10.0709 C   0  0  1  0  0  0  0  0  0  0  0  0
   27.9589  -21.2536   -9.2291 C   0  0  0  0  0  0  0  0  0  0  0  0
   27.7330  -20.2717   -8.1467 C   0  0  0  0  0  0  0  0  0  0  0  0
   26.8486  -19.2139   -8.1864 C   0  0  0  0  0  0  0  0  0  0  0  0
   26.9368  -18.5559   -7.0097 N   0  0  0  0  0  0  0  0  0  0  0  0
   27.8483  -19.1579   -6.2194 C   0  0  0  0  0  0  0  0  0  0  0  0
   28.2661  -18.8384   -4.9422 C   0  0  0  0  0  0  0  0  0  0  0  0
   29.2280  -19.6465   -4.3732 C   0  0  0  0  0  0  0  0  0  0  0  0
   29.7455  -20.7362   -5.0732 C   0  0  0  0  0  0  0  0  0  0  0  0
   29.3221  -21.0425   -6.3402 C   0  0  0  0  0  0  0  0  0  0  0  0
   28.3618  -20.2436   -6.9202 C   0  0  0  0  0  0  0  0  0  0  0  0
   25.5173  -21.3475   -9.2021 C   0  0  0  0  0  0  0  0  0  0  0  0
   24.7015  -20.3942   -9.2662 O   0  0  0  0  0  0  0  0  0  0  0  0
   25.2670  -22.3507   -8.2637 O   0  0  0  0  0  0  0  0  0  0  0  0
  2  1  1  0
  2  3  1  0
  3  4  1  1
  5  6  2  0
  5  3  1  0
  8  7  1  0
  8  9  1  0
  9 11  1  0
  9 10  1  1
 11 12  1  6
 12  5  1  0
 13 11  1  0
 14 13  2  0
 15 13  1  0
 16 27  1  0
 16 15  1  0
 16 17  1  1
 18 17  1  0
 18 19  2  0
 20 19  1  0
 21 20  1  0
 22 21  2  0
 23 22  1  0
 24 23  2  0
 24 25  1  0
 25 26  2  0
 26 21  1  0
 26 18  1  0
 27 29  1  0
 28 27  2  0
M  END
$$$$
