SIW.pdb
     RDKit          3D

 29 30  0  0  1  0  0  0  0  0999 V2000
   26.3172  -25.2663  -18.5326 O   0  0  0  0  0  0  0  0  0  0  0  0
   26.6103  -24.8175  -17.2500 C   0  0  0  0  0  0  0  0  0  0  0  0
   27.8967  -24.0390  -17.3260 C   0  0  2  0  0  0  0  0  0  0  0  0
   28.9945  -24.9652  -17.2007 N   0  0  0  0  0  0  0  0  0  0  0  0
   27.9407  -22.9778  -16.2586 C   0  0  0  0  0  0  0  0  0  0  0  0
   28.6490  -23.2289  -15.2705 O   0  0  0  0  0  0  0  0  0  0  0  0
   28.8924  -17.9533  -17.4023 C   0  0  0  0  0  0  0  0  0  0  0  0
   28.7024  -19.2227  -16.6500 C   0  0  0  0  0  0  0  0  0  0  0  0
   27.3340  -19.3637  -16.0004 C   0  0  2  0  0  0  0  0  0  0  0  0
   27.3876  -18.3360  -14.8604 C   0  0  0  0  0  0  0  0  0  0  0  0
   27.2953  -20.7255  -15.3781 C   0  0  2  0  0  0  0  0  0  0  0  0
   27.2450  -21.7863  -16.3463 N   0  0  0  0  0  0  0  0  0  0  0  0
   26.1842  -20.9051  -14.4612 C   0  0  0  0  0  0  0  0  0  0  0  0
   24.9850  -20.7613  -14.9443 O   0  0  0  0  0  0  0  0  0  0  0  0
   26.2013  -21.2265  -13.0830 N   0  0  0  0  0  0  0  0  0  0  0  0
   24.9430  -21.3909  -12.3293 C   0  0  1  0  0  0  0  0  0  0  0  0
   25.3021  -22.1520  -11.0659 C   0  0  0  0  0  0  0  0  0  0  0  0
   26.1154  -21.3192  -10.1538 C   0  0  0  0  0  0  0  0  0  0  0  0
   25.6378  -20.3263   -9.3239 C   0  0  0  0  0  0  0  0  0  0  0  0
   26.6893  -19.8042   -8.6552 N   0  0  0  0  0  0  0  0  0  0  0  0
   27.8229  -20.4303   -9.0302 C   0  0  0  0  0  0  0  0  0  0  0  0
   29.1256  -20.2328   -8.6159 C   0  0  0  0  0  0  0  0  0  0  0  0
   30.0952  -21.0342   -9.1815 C   0  0  0  0  0  0  0  0  0  0  0  0
   29.7555  -21.9982  -10.1305 C   0  0  0  0  0  0  0  0  0  0  0  0
   28.4587  -22.1841  -10.5330 C   0  0  0  0  0  0  0  0  0  0  0  0
   27.4806  -21.3904   -9.9760 C   0  0  0  0  0  0  0  0  0  0  0  0
   24.4222  -20.0568  -11.9644 C   0  0  0  0  0  0  0  0  0  0  0  0
   23.2728  -19.8834  -11.4878 O   0  0  0  0  0  0  0  0  0  0  0  0
   25.2231  -18.9279  -12.1481 O   0  0  0  0  0  0  0  0  0  0  0  0
  2  1  1  0
  2  3  1  0
  3  4  1  1
  5  6  2  0
  5  3  1  0
  8  7  1  0
  8  9  1  0
  9 11  1  0
  9 10  1  1
 11 12  1  6
 12  5  1  0
 13 11  1  0
 14 13  2  0
 15 13  1  0
 16 27  1  0
 16 15  1  0
 16 17  1  1
 18 17  1  0
 18 19  2  0
 20 19  1  0
 21 20  1  0
 22 21  2  0
 23 22  1  0
 24 23  2  0
 24 25  1  0
 25 26  2  0
 26 21  1  0
 26 18  1  0
 27 29  1  0
 28 27  2  0
M  END
$$$$
