SIW.pdb
     RDKit          3D

 29 30  0  0  1  0  0  0  0  0999 V2000
   29.3302  -17.4342  -15.2367 O   0  0  0  0  0  0  0  0  0  0  0  0
   28.6058  -18.0526  -14.2241 C   0  0  0  0  0  0  0  0  0  0  0  0
   27.3392  -18.5886  -14.8365 C   0  0  2  0  0  0  0  0  0  0  0  0
   26.9295  -17.6912  -15.8879 N   0  0  0  0  0  0  0  0  0  0  0  0
   26.2671  -18.7453  -13.7908 C   0  0  0  0  0  0  0  0  0  0  0  0
   25.2315  -18.0843  -13.9698 O   0  0  0  0  0  0  0  0  0  0  0  0
   24.4989  -22.3702  -15.4746 C   0  0  0  0  0  0  0  0  0  0  0  0
   24.5724  -21.3424  -14.4014 C   0  0  0  0  0  0  0  0  0  0  0  0
   25.4169  -21.7508  -13.2037 C   0  0  2  0  0  0  0  0  0  0  0  0
   24.5599  -22.8342  -12.5327 C   0  0  0  0  0  0  0  0  0  0  0  0
   25.4517  -20.5695  -12.2835 C   0  0  2  0  0  0  0  0  0  0  0  0
   26.3997  -19.5680  -12.6876 N   0  0  0  0  0  0  0  0  0  0  0  0
   25.7382  -20.9251  -10.9055 C   0  0  0  0  0  0  0  0  0  0  0  0
   26.9705  -21.2201  -10.6111 O   0  0  0  0  0  0  0  0  0  0  0  0
   24.8614  -20.9988   -9.7970 N   0  0  0  0  0  0  0  0  0  0  0  0
   25.3862  -21.0161   -8.4176 C   0  0  1  0  0  0  0  0  0  0  0  0
   25.6719  -19.5701   -8.0547 C   0  0  0  0  0  0  0  0  0  0  0  0
   27.0686  -19.3996   -7.5995 C   0  0  0  0  0  0  0  0  0  0  0  0
   28.1397  -19.0446   -8.3928 C   0  0  0  0  0  0  0  0  0  0  0  0
   29.2379  -18.9943   -7.6074 N   0  0  0  0  0  0  0  0  0  0  0  0
   28.9043  -19.3054   -6.3387 C   0  0  0  0  0  0  0  0  0  0  0  0
   29.6913  -19.3811   -5.2062 C   0  0  0  0  0  0  0  0  0  0  0  0
   29.0667  -19.7288   -4.0268 C   0  0  0  0  0  0  0  0  0  0  0  0
   27.6968  -19.9894   -3.9982 C   0  0  0  0  0  0  0  0  0  0  0  0
   26.9271  -19.9107   -5.1293 C   0  0  0  0  0  0  0  0  0  0  0  0
   27.5383  -19.5645   -6.3140 C   0  0  0  0  0  0  0  0  0  0  0  0
   24.3463  -21.5502   -7.5133 C   0  0  0  0  0  0  0  0  0  0  0  0
   23.1200  -21.3422   -7.6906 O   0  0  0  0  0  0  0  0  0  0  0  0
   24.7186  -22.3204   -6.4098 O   0  0  0  0  0  0  0  0  0  0  0  0
  2  1  1  0
  2  3  1  0
  3  4  1  6
  5  6  2  0
  5  3  1  0
  8  7  1  0
  8  9  1  0
  9 11  1  0
  9 10  1  1
 11 12  1  6
 12  5  1  0
 13 11  1  0
 14 13  2  0
 15 13  1  0
 16 27  1  0
 16 15  1  0
 16 17  1  1
 18 17  1  0
 18 19  2  0
 20 19  1  0
 21 20  1  0
 22 21  2  0
 23 22  1  0
 24 23  2  0
 24 25  1  0
 25 26  2  0
 26 21  1  0
 26 18  1  0
 27 29  1  0
 28 27  2  0
M  END
$$$$
