SIW.pdb
     RDKit          3D

 29 30  0  0  1  0  0  0  0  0999 V2000
   29.3508  -24.4670  -17.4234 O   0  0  0  0  0  0  0  0  0  0  0  0
   28.2459  -23.7026  -17.7804 C   0  0  0  0  0  0  0  0  0  0  0  0
   28.6907  -22.2655  -17.8418 C   0  0  2  0  0  0  0  0  0  0  0  0
   29.9309  -22.2063  -18.5745 N   0  0  0  0  0  0  0  0  0  0  0  0
   28.8360  -21.6936  -16.4564 C   0  0  0  0  0  0  0  0  0  0  0  0
   29.9918  -21.4089  -16.1038 O   0  0  0  0  0  0  0  0  0  0  0  0
   27.0751  -16.7050  -14.4777 C   0  0  0  0  0  0  0  0  0  0  0  0
   27.2109  -18.1299  -14.0719 C   0  0  0  0  0  0  0  0  0  0  0  0
   27.4340  -19.0897  -15.2310 C   0  0  2  0  0  0  0  0  0  0  0  0
   26.0587  -19.1296  -15.9132 C   0  0  0  0  0  0  0  0  0  0  0  0
   27.6768  -20.4387  -14.6272 C   0  0  2  0  0  0  0  0  0  0  0  0
   27.7656  -21.4868  -15.6064 N   0  0  0  0  0  0  0  0  0  0  0  0
   26.6692  -20.8208  -13.6545 C   0  0  0  0  0  0  0  0  0  0  0  0
   25.5294  -21.2466  -14.1146 O   0  0  0  0  0  0  0  0  0  0  0  0
   26.7359  -20.8069  -12.2409 N   0  0  0  0  0  0  0  0  0  0  0  0
   25.7347  -21.5264  -11.4295 C   0  0  1  0  0  0  0  0  0  0  0  0
   26.4676  -22.0265  -10.1978 C   0  0  0  0  0  0  0  0  0  0  0  0
   26.5921  -20.9602   -9.1807 C   0  0  0  0  0  0  0  0  0  0  0  0
   25.7043  -19.9230   -8.9840 C   0  0  0  0  0  0  0  0  0  0  0  0
   26.1700  -19.1668   -7.9658 N   0  0  0  0  0  0  0  0  0  0  0  0
   27.3257  -19.6863   -7.5053 C   0  0  0  0  0  0  0  0  0  0  0  0
   28.1497  -19.2538   -6.4846 C   0  0  0  0  0  0  0  0  0  0  0  0
   29.2843  -19.9965   -6.2331 C   0  0  0  0  0  0  0  0  0  0  0  0
   29.5712  -21.1335   -6.9882 C   0  0  0  0  0  0  0  0  0  0  0  0
   28.7450  -21.5519   -7.9985 C   0  0  0  0  0  0  0  0  0  0  0  0
   27.6085  -20.8193   -8.2601 C   0  0  0  0  0  0  0  0  0  0  0  0
   24.6776  -20.5791  -11.0177 C   0  0  0  0  0  0  0  0  0  0  0  0
   24.8313  -19.3327  -11.0528 O   0  0  0  0  0  0  0  0  0  0  0  0
   23.4491  -21.0667  -10.5676 O   0  0  0  0  0  0  0  0  0  0  0  0
  2  1  1  0
  2  3  1  0
  3  4  1  1
  5  6  2  0
  5  3  1  0
  8  7  1  0
  8  9  1  0
  9 11  1  0
  9 10  1  6
 11 12  1  6
 12  5  1  0
 13 11  1  0
 14 13  2  0
 15 13  1  0
 16 27  1  0
 16 15  1  0
 16 17  1  1
 18 17  1  0
 18 19  2  0
 20 19  1  0
 21 20  1  0
 22 21  2  0
 23 22  1  0
 24 23  2  0
 24 25  1  0
 25 26  2  0
 26 21  1  0
 26 18  1  0
 27 29  1  0
 28 27  2  0
M  END
$$$$
