SIW.pdb
     RDKit          3D

 29 30  0  0  1  0  0  0  0  0999 V2000
   21.9147  -16.9970  -14.3245 O   0  0  0  0  0  0  0  0  0  0  0  0
   22.5758  -18.0995  -13.7955 C   0  0  0  0  0  0  0  0  0  0  0  0
   23.7441  -18.4015  -14.6958 C   0  0  2  0  0  0  0  0  0  0  0  0
   23.2343  -18.7368  -16.0020 N   0  0  0  0  0  0  0  0  0  0  0  0
   24.5829  -19.5139  -14.1244 C   0  0  0  0  0  0  0  0  0  0  0  0
   24.2494  -20.6662  -14.4442 O   0  0  0  0  0  0  0  0  0  0  0  0
   29.4251  -20.1066  -15.0369 C   0  0  0  0  0  0  0  0  0  0  0  0
   28.0433  -20.3019  -14.5212 C   0  0  0  0  0  0  0  0  0  0  0  0
   27.9224  -20.2005  -13.0081 C   0  0  2  0  0  0  0  0  0  0  0  0
   28.6137  -21.4827  -12.5218 C   0  0  0  0  0  0  0  0  0  0  0  0
   26.4647  -20.3250  -12.6872 C   0  0  2  0  0  0  0  0  0  0  0  0
   25.6646  -19.2956  -13.2917 N   0  0  0  0  0  0  0  0  0  0  0  0
   26.1897  -20.3247  -11.2618 C   0  0  0  0  0  0  0  0  0  0  0  0
   26.3658  -19.2057  -10.6222 O   0  0  0  0  0  0  0  0  0  0  0  0
   25.7420  -21.3818  -10.4342 N   0  0  0  0  0  0  0  0  0  0  0  0
   25.4604  -21.1546   -9.0033 C   0  0  1  0  0  0  0  0  0  0  0  0
   26.0457  -19.7950   -8.6669 C   0  0  0  0  0  0  0  0  0  0  0  0
   27.3701  -19.9281   -8.0226 C   0  0  0  0  0  0  0  0  0  0  0  0
   28.5777  -20.0578   -8.6764 C   0  0  0  0  0  0  0  0  0  0  0  0
   29.5474  -20.1520   -7.7404 N   0  0  0  0  0  0  0  0  0  0  0  0
   28.9997  -20.0868   -6.5102 C   0  0  0  0  0  0  0  0  0  0  0  0
   29.5990  -20.1405   -5.2669 C   0  0  0  0  0  0  0  0  0  0  0  0
   28.7743  -20.0475   -4.1653 C   0  0  0  0  0  0  0  0  0  0  0  0
   27.3955  -19.9055   -4.3198 C   0  0  0  0  0  0  0  0  0  0  0  0
   26.8133  -19.8536   -5.5594 C   0  0  0  0  0  0  0  0  0  0  0  0
   27.6254  -19.9454   -6.6680 C   0  0  0  0  0  0  0  0  0  0  0  0
   23.9970  -21.1203   -8.7999 C   0  0  0  0  0  0  0  0  0  0  0  0
   23.1895  -20.8433   -9.7216 O   0  0  0  0  0  0  0  0  0  0  0  0
   23.4671  -21.4039   -7.5396 O   0  0  0  0  0  0  0  0  0  0  0  0
  2  1  1  0
  2  3  1  0
  3  4  1  6
  5  6  2  0
  5  3  1  0
  8  7  1  0
  8  9  1  0
  9 11  1  0
  9 10  1  1
 11 12  1  6
 12  5  1  0
 13 11  1  0
 14 13  2  0
 15 13  1  0
 16 27  1  0
 16 15  1  0
 16 17  1  6
 18 17  1  0
 18 19  2  0
 20 19  1  0
 21 20  1  0
 22 21  2  0
 23 22  1  0
 24 23  2  0
 24 25  1  0
 25 26  2  0
 26 21  1  0
 26 18  1  0
 27 29  1  0
 28 27  2  0
M  END
$$$$
