SIW.pdb
     RDKit          3D

 29 30  0  0  1  0  0  0  0  0999 V2000
   26.6835  -24.3633  -16.7053 O   0  0  0  0  0  0  0  0  0  0  0  0
   26.6666  -23.1742  -17.4252 C   0  0  0  0  0  0  0  0  0  0  0  0
   28.0145  -22.5247  -17.2578 C   0  0  2  0  0  0  0  0  0  0  0  0
   29.0262  -23.5455  -17.3715 N   0  0  0  0  0  0  0  0  0  0  0  0
   28.0981  -21.8042  -15.9383 C   0  0  0  0  0  0  0  0  0  0  0  0
   28.9342  -22.2417  -15.1314 O   0  0  0  0  0  0  0  0  0  0  0  0
   27.7248  -16.5315  -16.0339 C   0  0  0  0  0  0  0  0  0  0  0  0
   28.0930  -17.8679  -15.4937 C   0  0  0  0  0  0  0  0  0  0  0  0
   27.0244  -18.5014  -14.6154 C   0  0  2  0  0  0  0  0  0  0  0  0
   27.2129  -17.7813  -13.2722 C   0  0  0  0  0  0  0  0  0  0  0  0
   27.4251  -19.9313  -14.4203 C   0  0  2  0  0  0  0  0  0  0  0  0
   27.3050  -20.7185  -15.6166 N   0  0  0  0  0  0  0  0  0  0  0  0
   26.6764  -20.5979  -13.3704 C   0  0  0  0  0  0  0  0  0  0  0  0
   25.5062  -21.0722  -13.6833 O   0  0  0  0  0  0  0  0  0  0  0  0
   27.0326  -20.8239  -12.0194 N   0  0  0  0  0  0  0  0  0  0  0  0
   26.1870  -21.6589  -11.1440 C   0  0  1  0  0  0  0  0  0  0  0  0
   27.0302  -21.9826   -9.9239 C   0  0  0  0  0  0  0  0  0  0  0  0
   26.8462  -20.9687   -8.8632 C   0  0  0  0  0  0  0  0  0  0  0  0
   25.7625  -20.1259   -8.7298 C   0  0  0  0  0  0  0  0  0  0  0  0
   25.9704  -19.3532   -7.6411 N   0  0  0  0  0  0  0  0  0  0  0  0
   27.1509  -19.6741   -7.0745 C   0  0  0  0  0  0  0  0  0  0  0  0
   27.7699  -19.1529   -5.9552 C   0  0  0  0  0  0  0  0  0  0  0  0
   28.9934  -19.6854   -5.6063 C   0  0  0  0  0  0  0  0  0  0  0  0
   29.5660  -20.7069   -6.3639 C   0  0  0  0  0  0  0  0  0  0  0  0
   28.9411  -21.2153   -7.4726 C   0  0  0  0  0  0  0  0  0  0  0  0
   27.7187  -20.6925   -7.8323 C   0  0  0  0  0  0  0  0  0  0  0  0
   25.0050  -20.8760  -10.7269 C   0  0  0  0  0  0  0  0  0  0  0  0
   24.9676  -19.6214  -10.7813 O   0  0  0  0  0  0  0  0  0  0  0  0
   23.8713  -21.5366  -10.2494 O   0  0  0  0  0  0  0  0  0  0  0  0
  2  1  1  0
  2  3  1  0
  3  4  1  1
  5  6  2  0
  5  3  1  0
  8  7  1  0
  8  9  1  0
  9 11  1  0
  9 10  1  1
 11 12  1  6
 12  5  1  0
 13 11  1  0
 14 13  2  0
 15 13  1  0
 16 27  1  0
 16 15  1  0
 16 17  1  1
 18 17  1  0
 18 19  2  0
 20 19  1  0
 21 20  1  0
 22 21  2  0
 23 22  1  0
 24 23  2  0
 24 25  1  0
 25 26  2  0
 26 21  1  0
 26 18  1  0
 27 29  1  0
 28 27  2  0
M  END
$$$$
