PQI.pdb
     RDKit          3D

 25 25  0  0  1  0  0  0  0  0999 V2000
    8.2259  -15.4753   19.1367 N   0  0  0  0  0  0  0  0  0  0  0  0
    8.3833  -14.8582   17.8332 C   0  0  0  0  0  0  0  0  0  0  0  0
    7.6490  -13.5440   17.8717 C   0  0  0  0  0  0  0  0  0  0  0  0
    7.1268  -13.4678   19.3126 C   0  0  0  0  0  0  0  0  0  0  0  0
    8.1518  -14.3395   20.0175 C   0  0  1  0  0  0  0  0  0  0  0  0
    7.7056  -14.7173   21.3828 C   0  0  0  0  0  0  0  0  0  0  0  0
    7.5403  -13.7880   22.2150 O   0  0  0  0  0  0  0  0  0  0  0  0
    6.7225  -20.5856   23.1622 N   0  0  0  0  0  0  0  0  0  0  0  0
    6.5074  -19.9542   24.4034 C   0  0  0  0  0  0  0  0  0  0  0  0
    6.2464  -20.6182   25.4223 O   0  0  0  0  0  0  0  0  0  0  0  0
    6.5893  -18.4601   24.5218 C   0  0  0  0  0  0  0  0  0  0  0  0
    6.8634  -17.8442   23.1972 C   0  0  0  0  0  0  0  0  0  0  0  0
    6.9555  -16.3455   23.1601 C   0  0  2  0  0  0  0  0  0  0  0  0
    7.4618  -16.0357   21.7890 N   0  0  0  0  0  0  0  0  0  0  0  0
    7.8565  -15.7429   24.1518 C   0  0  0  0  0  0  0  0  0  0  0  0
    9.1263  -15.9204   24.0677 O   0  0  0  0  0  0  0  0  0  0  0  0
    6.2224  -11.2254   26.2044 C   0  0  0  0  0  0  0  0  0  0  0  0
    7.0855  -12.3514   25.6996 C   0  0  0  0  0  0  0  0  0  0  0  0
    7.6921  -13.1613   26.8226 C   0  0  2  0  0  0  0  0  0  0  0  0
    8.7019  -12.4065   27.6230 C   0  0  0  0  0  0  0  0  0  0  0  0
    8.4123  -14.3402   26.1471 C   0  0  2  0  0  0  0  0  0  0  0  0
    7.4436  -14.9417   25.2421 N   0  0  0  0  0  0  0  0  0  0  0  0
    8.8387  -15.3282   27.1506 C   0  0  0  0  0  0  0  0  0  0  0  0
    8.0363  -16.2119   27.5775 O   0  0  0  0  0  0  0  0  0  0  0  0
   10.1297  -15.2995   27.6397 O   0  0  0  0  0  0  0  0  0  0  0  0
  1  2  1  0
  1  5  1  0
  2  3  1  0
  3  4  1  0
  5  4  1  0
  5  6  1  1
  6 14  1  0
  7  6  2  0
  9 11  1  0
  9  8  1  0
 10  9  2  0
 13 12  1  1
 12 11  1  0
 14 13  1  0
 15 16  2  0
 15 13  1  0
 18 17  1  0
 18 19  1  0
 19 21  1  0
 19 20  1  6
 21 22  1  6
 21 23  1  0
 22 15  1  0
 23 25  1  0
 24 23  2  0
M  END
$$$$
