PQI.pdb
     RDKit          3D

 25 25  0  0  1  0  0  0  0  0999 V2000
    8.6039  -15.0014   18.6080 N   0  0  0  0  0  0  0  0  0  0  0  0
    8.8375  -14.3157   17.3511 C   0  0  0  0  0  0  0  0  0  0  0  0
    8.0934  -13.0079   17.4129 C   0  0  0  0  0  0  0  0  0  0  0  0
    7.4824  -13.0099   18.8205 C   0  0  0  0  0  0  0  0  0  0  0  0
    8.4677  -13.9141   19.5410 C   0  0  1  0  0  0  0  0  0  0  0  0
    7.9403  -14.3653   20.8541 C   0  0  0  0  0  0  0  0  0  0  0  0
    7.6896  -13.4792   21.7119 O   0  0  0  0  0  0  0  0  0  0  0  0
    7.8689  -20.6070   21.3633 N   0  0  0  0  0  0  0  0  0  0  0  0
    7.5719  -19.8937   22.5417 C   0  0  0  0  0  0  0  0  0  0  0  0
    6.9848  -20.4426   23.4910 O   0  0  0  0  0  0  0  0  0  0  0  0
    7.9600  -18.4500   22.6759 C   0  0  0  0  0  0  0  0  0  0  0  0
    6.8114  -17.5663   22.3458 C   0  0  0  0  0  0  0  0  0  0  0  0
    7.0455  -16.0877   22.4681 C   0  0  2  0  0  0  0  0  0  0  0  0
    7.7098  -15.7068   21.1852 N   0  0  0  0  0  0  0  0  0  0  0  0
    7.8975  -15.6734   23.5910 C   0  0  0  0  0  0  0  0  0  0  0  0
    9.1686  -15.5668   23.4366 O   0  0  0  0  0  0  0  0  0  0  0  0
    6.9448  -11.0892   27.2298 C   0  0  0  0  0  0  0  0  0  0  0  0
    7.8065  -12.2807   26.9049 C   0  0  0  0  0  0  0  0  0  0  0  0
    7.0722  -13.3173   26.0855 C   0  0  2  0  0  0  0  0  0  0  0  0
    5.9700  -13.9946   26.8314 C   0  0  0  0  0  0  0  0  0  0  0  0
    8.1197  -14.3831   25.7225 C   0  0  2  0  0  0  0  0  0  0  0  0
    7.4324  -15.3593   24.8895 N   0  0  0  0  0  0  0  0  0  0  0  0
    8.6337  -15.0362   26.9366 C   0  0  0  0  0  0  0  0  0  0  0  0
    9.3380  -14.3953   27.7734 O   0  0  0  0  0  0  0  0  0  0  0  0
    8.3494  -16.3661   27.1759 O   0  0  0  0  0  0  0  0  0  0  0  0
  1  2  1  0
  1  5  1  0
  2  3  1  0
  3  4  1  0
  5  4  1  0
  5  6  1  1
  6 14  1  0
  7  6  2  0
  9 11  1  0
  9  8  1  0
 10  9  2  0
 13 12  1  6
 12 11  1  0
 14 13  1  0
 15 16  2  0
 15 13  1  0
 18 17  1  0
 18 19  1  0
 19 21  1  0
 19 20  1  1
 21 22  1  6
 21 23  1  0
 22 15  1  0
 23 25  1  0
 24 23  2  0
M  END
$$$$
