PQI.pdb
     RDKit          3D

 25 25  0  0  1  0  0  0  0  0999 V2000
    8.2883  -15.6161   19.7350 N   0  0  0  0  0  0  0  0  0  0  0  0
    8.4262  -15.0382   18.4115 C   0  0  0  0  0  0  0  0  0  0  0  0
    7.6109  -13.7723   18.3917 C   0  0  0  0  0  0  0  0  0  0  0  0
    7.0636  -13.6767   19.8220 C   0  0  0  0  0  0  0  0  0  0  0  0
    8.1304  -14.4559   20.5718 C   0  0  1  0  0  0  0  0  0  0  0  0
    7.6883  -14.8111   21.9445 C   0  0  0  0  0  0  0  0  0  0  0  0
    7.4794  -13.8650   22.7477 O   0  0  0  0  0  0  0  0  0  0  0  0
    6.5349  -20.6338   23.7589 N   0  0  0  0  0  0  0  0  0  0  0  0
    6.3518  -19.9957   25.0019 C   0  0  0  0  0  0  0  0  0  0  0  0
    6.0487  -20.6475   26.0171 O   0  0  0  0  0  0  0  0  0  0  0  0
    6.5195  -18.5094   25.1267 C   0  0  0  0  0  0  0  0  0  0  0  0
    6.8360  -17.9056   23.8059 C   0  0  0  0  0  0  0  0  0  0  0  0
    7.0298  -16.4164   23.7779 C   0  0  2  0  0  0  0  0  0  0  0  0
    7.4938  -16.1257   22.3879 N   0  0  0  0  0  0  0  0  0  0  0  0
    8.0143  -15.8891   24.7326 C   0  0  0  0  0  0  0  0  0  0  0  0
    9.2722  -16.0316   24.5130 O   0  0  0  0  0  0  0  0  0  0  0  0
    6.3759  -11.7164   27.4767 C   0  0  0  0  0  0  0  0  0  0  0  0
    7.2578  -12.6845   26.7330 C   0  0  0  0  0  0  0  0  0  0  0  0
    8.0358  -13.5874   27.6630 C   0  0  2  0  0  0  0  0  0  0  0  0
    9.0870  -12.8720   28.4461 C   0  0  0  0  0  0  0  0  0  0  0  0
    8.7386  -14.6139   26.7591 C   0  0  2  0  0  0  0  0  0  0  0  0
    7.6979  -15.2006   25.9271 N   0  0  0  0  0  0  0  0  0  0  0  0
    9.3801  -15.6613   27.5692 C   0  0  0  0  0  0  0  0  0  0  0  0
    8.7460  -16.7066   27.9042 O   0  0  0  0  0  0  0  0  0  0  0  0
   10.6917  -15.5117   27.9744 O   0  0  0  0  0  0  0  0  0  0  0  0
  1  2  1  0
  1  5  1  0
  2  3  1  0
  3  4  1  0
  5  4  1  0
  5  6  1  1
  6 14  1  0
  7  6  2  0
  9 11  1  0
  9  8  1  0
 10  9  2  0
 13 12  1  6
 12 11  1  0
 14 13  1  0
 15 16  2  0
 15 13  1  0
 18 17  1  0
 18 19  1  0
 19 21  1  0
 19 20  1  6
 21 22  1  6
 21 23  1  0
 22 15  1  0
 23 25  1  0
 24 23  2  0
M  END
$$$$
