PQI.pdb
     RDKit          3D

 25 25  0  0  1  0  0  0  0  0999 V2000
    8.2818  -15.2870   19.2278 N   0  0  0  0  0  0  0  0  0  0  0  0
    8.4913  -14.6371   17.9477 C   0  0  0  0  0  0  0  0  0  0  0  0
    7.7994  -13.3010   18.0087 C   0  0  0  0  0  0  0  0  0  0  0  0
    7.2444  -13.2502   19.4384 C   0  0  0  0  0  0  0  0  0  0  0  0
    8.2228  -14.1759   20.1406 C   0  0  1  0  0  0  0  0  0  0  0  0
    7.7309  -14.5790   21.4829 C   0  0  0  0  0  0  0  0  0  0  0  0
    7.5969  -13.6729   22.3457 O   0  0  0  0  0  0  0  0  0  0  0  0
    7.8601  -20.0078   23.8084 N   0  0  0  0  0  0  0  0  0  0  0  0
    6.8385  -19.5695   24.6742 C   0  0  0  0  0  0  0  0  0  0  0  0
    6.5710  -20.1944   25.7160 O   0  0  0  0  0  0  0  0  0  0  0  0
    6.0486  -18.3336   24.3556 C   0  0  0  0  0  0  0  0  0  0  0  0
    6.5499  -17.6990   23.1085 C   0  0  0  0  0  0  0  0  0  0  0  0
    6.8251  -16.2237   23.1701 C   0  0  2  0  0  0  0  0  0  0  0  0
    7.4121  -15.8968   21.8356 N   0  0  0  0  0  0  0  0  0  0  0  0
    7.7584  -15.7983   24.2220 C   0  0  0  0  0  0  0  0  0  0  0  0
    9.0244  -15.9564   24.0694 O   0  0  0  0  0  0  0  0  0  0  0  0
    6.4745  -11.2871   26.1557 C   0  0  0  0  0  0  0  0  0  0  0  0
    7.2529  -12.5068   25.7383 C   0  0  0  0  0  0  0  0  0  0  0  0
    7.7007  -13.3374   26.9194 C   0  0  2  0  0  0  0  0  0  0  0  0
    8.7042  -12.6492   27.7850 C   0  0  0  0  0  0  0  0  0  0  0  0
    8.3707  -14.5864   26.3229 C   0  0  2  0  0  0  0  0  0  0  0  0
    7.3820  -15.1966   25.4457 N   0  0  0  0  0  0  0  0  0  0  0  0
    8.7436  -15.5306   27.3881 C   0  0  0  0  0  0  0  0  0  0  0  0
    7.9342  -16.4239   27.7803 O   0  0  0  0  0  0  0  0  0  0  0  0
    9.9913  -15.4495   27.9742 O   0  0  0  0  0  0  0  0  0  0  0  0
  1  2  1  0
  1  5  1  0
  2  3  1  0
  3  4  1  0
  5  4  1  0
  5  6  1  1
  6 14  1  0
  7  6  2  0
  9 11  1  0
  9  8  1  0
 10  9  2  0
 13 12  1  6
 12 11  1  0
 14 13  1  0
 15 16  2  0
 15 13  1  0
 18 17  1  0
 18 19  1  0
 19 21  1  0
 19 20  1  6
 21 22  1  6
 21 23  1  0
 22 15  1  0
 23 25  1  0
 24 23  2  0
M  END
$$$$
