PQI.pdb
     RDKit          3D

 25 25  0  0  1  0  0  0  0  0999 V2000
    8.3051  -15.5783   19.1264 N   0  0  0  0  0  0  0  0  0  0  0  0
    8.4625  -14.9497   17.8284 C   0  0  0  0  0  0  0  0  0  0  0  0
    7.7478  -13.6254   17.8860 C   0  0  0  0  0  0  0  0  0  0  0  0
    7.2367  -13.5570   19.3312 C   0  0  0  0  0  0  0  0  0  0  0  0
    8.2538  -14.4510   20.0196 C   0  0  1  0  0  0  0  0  0  0  0  0
    7.8114  -14.8369   21.3840 C   0  0  0  0  0  0  0  0  0  0  0  0
    7.6992  -13.9184   22.2369 O   0  0  0  0  0  0  0  0  0  0  0  0
    6.2307  -20.6170   23.0501 N   0  0  0  0  0  0  0  0  0  0  0  0
    6.1835  -20.0061   24.3190 C   0  0  0  0  0  0  0  0  0  0  0  0
    5.7971  -20.6371   25.3189 O   0  0  0  0  0  0  0  0  0  0  0  0
    6.6006  -18.5744   24.4907 C   0  0  0  0  0  0  0  0  0  0  0  0
    6.9274  -17.9631   23.1760 C   0  0  0  0  0  0  0  0  0  0  0  0
    6.9857  -16.4630   23.1293 C   0  0  2  0  0  0  0  0  0  0  0  0
    7.5163  -16.1514   21.7678 N   0  0  0  0  0  0  0  0  0  0  0  0
    7.8495  -15.8325   24.1367 C   0  0  0  0  0  0  0  0  0  0  0  0
    9.1281  -15.9002   24.0294 O   0  0  0  0  0  0  0  0  0  0  0  0
    5.6935  -11.7681   26.7368 C   0  0  0  0  0  0  0  0  0  0  0  0
    6.6958  -12.6612   26.0545 C   0  0  0  0  0  0  0  0  0  0  0  0
    7.4771  -13.5059   27.0349 C   0  0  2  0  0  0  0  0  0  0  0  0
    8.4128  -12.7151   27.8888 C   0  0  0  0  0  0  0  0  0  0  0  0
    8.3186  -14.4686   26.1805 C   0  0  2  0  0  0  0  0  0  0  0  0
    7.3891  -15.1176   25.2673 N   0  0  0  0  0  0  0  0  0  0  0  0
    8.9705  -15.4775   27.0302 C   0  0  0  0  0  0  0  0  0  0  0  0
    8.3433  -16.5098   27.4147 O   0  0  0  0  0  0  0  0  0  0  0  0
   10.2844  -15.3054   27.4188 O   0  0  0  0  0  0  0  0  0  0  0  0
  1  2  1  0
  1  5  1  0
  2  3  1  0
  3  4  1  0
  5  4  1  0
  5  6  1  1
  6 14  1  0
  7  6  2  0
  9 11  1  0
  9  8  1  0
 10  9  2  0
 13 12  1  1
 12 11  1  0
 14 13  1  0
 15 16  2  0
 15 13  1  0
 18 17  1  0
 18 19  1  0
 19 21  1  0
 19 20  1  6
 21 22  1  6
 21 23  1  0
 22 15  1  0
 23 25  1  0
 24 23  2  0
M  END
$$$$
