PQI.pdb
     RDKit          3D

 25 25  0  0  1  0  0  0  0  0999 V2000
    8.3164  -15.5050   19.1258 N   0  0  0  0  0  0  0  0  0  0  0  0
    8.5013  -14.9001   17.8201 C   0  0  0  0  0  0  0  0  0  0  0  0
    7.7592  -13.5898   17.8278 C   0  0  0  0  0  0  0  0  0  0  0  0
    7.2025  -13.5021   19.2550 C   0  0  0  0  0  0  0  0  0  0  0  0
    8.2152  -14.3608   19.9929 C   0  0  1  0  0  0  0  0  0  0  0  0
    7.7388  -14.7273   21.3511 C   0  0  0  0  0  0  0  0  0  0  0  0
    7.5634  -13.7919   22.1744 O   0  0  0  0  0  0  0  0  0  0  0  0
    7.1014  -20.7074   25.2997 N   0  0  0  0  0  0  0  0  0  0  0  0
    6.4007  -19.9367   24.3507 C   0  0  0  0  0  0  0  0  0  0  0  0
    5.7768  -20.4788   23.4211 O   0  0  0  0  0  0  0  0  0  0  0  0
    6.3929  -18.4386   24.4428 C   0  0  0  0  0  0  0  0  0  0  0  0
    6.7656  -17.8320   23.1380 C   0  0  0  0  0  0  0  0  0  0  0  0
    6.9085  -16.3371   23.1093 C   0  0  2  0  0  0  0  0  0  0  0  0
    7.4774  -16.0415   21.7598 N   0  0  0  0  0  0  0  0  0  0  0  0
    7.7899  -15.7666   24.1371 C   0  0  0  0  0  0  0  0  0  0  0  0
    9.0639  -15.9110   24.0524 O   0  0  0  0  0  0  0  0  0  0  0  0
    6.0288  -11.3537   26.2652 C   0  0  0  0  0  0  0  0  0  0  0  0
    6.9305  -12.4438   25.7490 C   0  0  0  0  0  0  0  0  0  0  0  0
    7.5434  -13.2612   26.8631 C   0  0  2  0  0  0  0  0  0  0  0  0
    8.5229  -12.4977   27.6924 C   0  0  0  0  0  0  0  0  0  0  0  0
    8.3025  -14.4069   26.1732 C   0  0  2  0  0  0  0  0  0  0  0  0
    7.3527  -15.0326   25.2645 N   0  0  0  0  0  0  0  0  0  0  0  0
    8.7664  -15.3897   27.1651 C   0  0  0  0  0  0  0  0  0  0  0  0
    8.0202  -16.3458   27.5341 O   0  0  0  0  0  0  0  0  0  0  0  0
   10.0316  -15.2767   27.7067 O   0  0  0  0  0  0  0  0  0  0  0  0
  1  2  1  0
  1  5  1  0
  2  3  1  0
  3  4  1  0
  5  4  1  0
  5  6  1  1
  6 14  1  0
  7  6  2  0
  9 11  1  0
  9  8  1  0
 10  9  2  0
 13 12  1  1
 12 11  1  0
 14 13  1  0
 15 16  2  0
 15 13  1  0
 18 17  1  0
 18 19  1  0
 19 21  1  0
 19 20  1  6
 21 22  1  6
 21 23  1  0
 22 15  1  0
 23 25  1  0
 24 23  2  0
M  END
$$$$
