PQI.pdb
     RDKit          3D

 25 25  0  0  1  0  0  0  0  0999 V2000
    8.2975  -15.4478   19.9564 N   0  0  0  0  0  0  0  0  0  0  0  0
    8.3346  -14.7609   18.6791 C   0  0  0  0  0  0  0  0  0  0  0  0
    7.6472  -13.4344   18.8674 C   0  0  0  0  0  0  0  0  0  0  0  0
    7.2822  -13.4287   20.3578 C   0  0  0  0  0  0  0  0  0  0  0  0
    8.3499  -14.3629   20.9006 C   0  0  1  0  0  0  0  0  0  0  0  0
    8.0392  -14.8079   22.2832 C   0  0  0  0  0  0  0  0  0  0  0  0
    7.9972  -13.9251   23.1791 O   0  0  0  0  0  0  0  0  0  0  0  0
    5.9804  -20.4610   23.6828 N   0  0  0  0  0  0  0  0  0  0  0  0
    6.1242  -19.9780   24.9986 C   0  0  0  0  0  0  0  0  0  0  0  0
    5.8047  -20.6783   25.9758 O   0  0  0  0  0  0  0  0  0  0  0  0
    6.6687  -18.6018   25.2492 C   0  0  0  0  0  0  0  0  0  0  0  0
    6.9060  -17.8911   23.9656 C   0  0  0  0  0  0  0  0  0  0  0  0
    7.5361  -16.5308   24.0582 C   0  0  2  0  0  0  0  0  0  0  0  0
    7.7934  -16.1403   22.6392 N   0  0  0  0  0  0  0  0  0  0  0  0
    8.7974  -16.4683   24.8092 C   0  0  0  0  0  0  0  0  0  0  0  0
    9.9110  -16.7473   24.2321 O   0  0  0  0  0  0  0  0  0  0  0  0
    9.1102  -13.6075   29.5808 C   0  0  0  0  0  0  0  0  0  0  0  0
    9.1951  -14.8191   28.6906 C   0  0  0  0  0  0  0  0  0  0  0  0
   10.1904  -14.6405   27.5667 C   0  0  2  0  0  0  0  0  0  0  0  0
    9.8056  -13.5744   26.5944 C   0  0  0  0  0  0  0  0  0  0  0  0
   10.2145  -15.9801   26.8119 C   0  0  2  0  0  0  0  0  0  0  0  0
    8.9130  -16.1080   26.1722 N   0  0  0  0  0  0  0  0  0  0  0  0
   10.4229  -17.0963   27.7477 C   0  0  0  0  0  0  0  0  0  0  0  0
    9.4947  -17.9244   27.9918 O   0  0  0  0  0  0  0  0  0  0  0  0
   11.6442  -17.2514   28.3732 O   0  0  0  0  0  0  0  0  0  0  0  0
  1  2  1  0
  1  5  1  0
  2  3  1  0
  3  4  1  0
  5  4  1  0
  5  6  1  1
  6 14  1  0
  7  6  2  0
  9 11  1  0
  9  8  1  0
 10  9  2  0
 13 12  1  6
 12 11  1  0
 14 13  1  0
 15 16  2  0
 15 13  1  0
 18 17  1  0
 18 19  1  0
 19 21  1  0
 19 20  1  6
 21 22  1  1
 21 23  1  0
 22 15  1  0
 23 25  1  0
 24 23  2  0
M  END
$$$$
