PQI.pdb
     RDKit          3D

 25 25  0  0  1  0  0  0  0  0999 V2000
    8.3027  -15.3727   19.0627 N   0  0  0  0  0  0  0  0  0  0  0  0
    8.5776  -14.7340   17.7895 C   0  0  0  0  0  0  0  0  0  0  0  0
    7.9037  -13.3876   17.8126 C   0  0  0  0  0  0  0  0  0  0  0  0
    7.2876  -13.3197   19.2163 C   0  0  0  0  0  0  0  0  0  0  0  0
    8.2206  -14.2552   19.9659 C   0  0  1  0  0  0  0  0  0  0  0  0
    7.6645  -14.6426   21.2875 C   0  0  0  0  0  0  0  0  0  0  0  0
    7.4750  -13.7243   22.1268 O   0  0  0  0  0  0  0  0  0  0  0  0
    7.0681  -20.7596   24.9211 N   0  0  0  0  0  0  0  0  0  0  0  0
    6.2444  -19.9103   24.1557 C   0  0  0  0  0  0  0  0  0  0  0  0
    5.4248  -20.3755   23.3439 O   0  0  0  0  0  0  0  0  0  0  0  0
    6.3397  -18.4198   24.3054 C   0  0  0  0  0  0  0  0  0  0  0  0
    6.7131  -17.7868   23.0135 C   0  0  0  0  0  0  0  0  0  0  0  0
    6.8288  -16.2893   23.0086 C   0  0  2  0  0  0  0  0  0  0  0  0
    7.3437  -15.9584   21.6457 N   0  0  0  0  0  0  0  0  0  0  0  0
    7.7365  -15.7223   24.0152 C   0  0  0  0  0  0  0  0  0  0  0  0
    9.0091  -15.8341   23.8781 O   0  0  0  0  0  0  0  0  0  0  0  0
    5.8747  -11.5194   26.5019 C   0  0  0  0  0  0  0  0  0  0  0  0
    6.8096  -12.5129   25.8640 C   0  0  0  0  0  0  0  0  0  0  0  0
    7.5332  -13.3615   26.8845 C   0  0  2  0  0  0  0  0  0  0  0  0
    8.5281  -12.5985   27.6956 C   0  0  0  0  0  0  0  0  0  0  0  0
    8.2984  -14.4243   26.0784 C   0  0  2  0  0  0  0  0  0  0  0  0
    7.3269  -15.0255   25.1762 N   0  0  0  0  0  0  0  0  0  0  0  0
    8.8513  -15.4525   26.9741 C   0  0  0  0  0  0  0  0  0  0  0  0
    8.1520  -16.4457   27.3368 O   0  0  0  0  0  0  0  0  0  0  0  0
   10.1498  -15.3418   27.4306 O   0  0  0  0  0  0  0  0  0  0  0  0
  1  2  1  0
  1  5  1  0
  2  3  1  0
  3  4  1  0
  5  4  1  0
  5  6  1  1
  6 14  1  0
  7  6  2  0
  9 11  1  0
  9  8  1  0
 10  9  2  0
 13 12  1  6
 12 11  1  0
 14 13  1  0
 15 16  2  0
 15 13  1  0
 18 17  1  0
 18 19  1  0
 19 21  1  0
 19 20  1  6
 21 22  1  6
 21 23  1  0
 22 15  1  0
 23 25  1  0
 24 23  2  0
M  END
$$$$
