PQI.pdb
     RDKit          3D

 25 25  0  0  1  0  0  0  0  0999 V2000
    8.0216  -15.5097   19.2398 N   0  0  0  0  0  0  0  0  0  0  0  0
    8.0862  -14.8683   17.9402 C   0  0  0  0  0  0  0  0  0  0  0  0
    7.4353  -13.5174   18.0780 C   0  0  0  0  0  0  0  0  0  0  0  0
    7.0611  -13.4504   19.5647 C   0  0  0  0  0  0  0  0  0  0  0  0
    8.0986  -14.3949   20.1468 C   0  0  1  0  0  0  0  0  0  0  0  0
    7.7666  -14.7833   21.5415 C   0  0  0  0  0  0  0  0  0  0  0  0
    7.7177  -13.8657   22.4012 O   0  0  0  0  0  0  0  0  0  0  0  0
    6.7513  -20.6445   23.3243 N   0  0  0  0  0  0  0  0  0  0  0  0
    6.4437  -20.0048   24.5416 C   0  0  0  0  0  0  0  0  0  0  0  0
    6.0959  -20.6613   25.5392 O   0  0  0  0  0  0  0  0  0  0  0  0
    6.5300  -18.5110   24.6597 C   0  0  0  0  0  0  0  0  0  0  0  0
    6.8857  -17.9021   23.3514 C   0  0  0  0  0  0  0  0  0  0  0  0
    6.9935  -16.4044   23.3153 C   0  0  2  0  0  0  0  0  0  0  0  0
    7.5083  -16.0993   21.9463 N   0  0  0  0  0  0  0  0  0  0  0  0
    7.8969  -15.8117   24.3108 C   0  0  0  0  0  0  0  0  0  0  0  0
    9.1704  -15.8797   24.1536 O   0  0  0  0  0  0  0  0  0  0  0  0
    6.1952  -11.4246   26.4644 C   0  0  0  0  0  0  0  0  0  0  0  0
    7.0820  -12.5255   25.9454 C   0  0  0  0  0  0  0  0  0  0  0  0
    7.6941  -13.3459   27.0579 C   0  0  2  0  0  0  0  0  0  0  0  0
    8.6797  -12.5871   27.8844 C   0  0  0  0  0  0  0  0  0  0  0  0
    8.4456  -14.4953   26.3659 C   0  0  2  0  0  0  0  0  0  0  0  0
    7.4821  -15.1347   25.4816 N   0  0  0  0  0  0  0  0  0  0  0  0
    8.9324  -15.4656   27.3591 C   0  0  0  0  0  0  0  0  0  0  0  0
    8.2110  -16.4415   27.7253 O   0  0  0  0  0  0  0  0  0  0  0  0
   10.1923  -15.3185   27.9051 O   0  0  0  0  0  0  0  0  0  0  0  0
  1  2  1  0
  1  5  1  0
  2  3  1  0
  3  4  1  0
  5  4  1  0
  5  6  1  1
  6 14  1  0
  7  6  2  0
  9 11  1  0
  9  8  1  0
 10  9  2  0
 13 12  1  1
 12 11  1  0
 14 13  1  0
 15 16  2  0
 15 13  1  0
 18 17  1  0
 18 19  1  0
 19 21  1  0
 19 20  1  6
 21 22  1  6
 21 23  1  0
 22 15  1  0
 23 25  1  0
 24 23  2  0
M  END
$$$$
