PQI.pdb
     RDKit          3D

 25 25  0  0  1  0  0  0  0  0999 V2000
    8.2811  -15.4120   19.1647 N   0  0  0  0  0  0  0  0  0  0  0  0
    8.5175  -14.7986   17.8714 C   0  0  0  0  0  0  0  0  0  0  0  0
    7.9089  -13.4219   17.9142 C   0  0  0  0  0  0  0  0  0  0  0  0
    7.3719  -13.3122   19.3474 C   0  0  0  0  0  0  0  0  0  0  0  0
    8.2988  -14.2835   20.0578 C   0  0  1  0  0  0  0  0  0  0  0  0
    7.7962  -14.6322   21.4113 C   0  0  0  0  0  0  0  0  0  0  0  0
    7.7924  -13.7210   22.2792 O   0  0  0  0  0  0  0  0  0  0  0  0
    5.5587  -20.1108   23.9118 N   0  0  0  0  0  0  0  0  0  0  0  0
    6.9466  -19.8676   23.9075 C   0  0  0  0  0  0  0  0  0  0  0  0
    7.7505  -20.7423   24.2761 O   0  0  0  0  0  0  0  0  0  0  0  0
    7.4858  -18.5416   23.4557 C   0  0  0  0  0  0  0  0  0  0  0  0
    6.3763  -17.6219   23.0919 C   0  0  0  0  0  0  0  0  0  0  0  0
    6.6929  -16.1537   23.0966 C   0  0  2  0  0  0  0  0  0  0  0  0
    7.3320  -15.9046   21.7693 N   0  0  0  0  0  0  0  0  0  0  0  0
    7.6039  -15.7070   24.1592 C   0  0  0  0  0  0  0  0  0  0  0  0
    8.8763  -15.7932   24.0021 O   0  0  0  0  0  0  0  0  0  0  0  0
    5.9934  -11.3842   26.3052 C   0  0  0  0  0  0  0  0  0  0  0  0
    6.8774  -12.5033   25.8216 C   0  0  0  0  0  0  0  0  0  0  0  0
    7.4051  -13.3525   26.9555 C   0  0  2  0  0  0  0  0  0  0  0  0
    8.3706  -12.6331   27.8389 C   0  0  0  0  0  0  0  0  0  0  0  0
    8.1542  -14.5196   26.2910 C   0  0  2  0  0  0  0  0  0  0  0  0
    7.1981  -15.1588   25.3985 N   0  0  0  0  0  0  0  0  0  0  0  0
    8.6123  -15.4828   27.3046 C   0  0  0  0  0  0  0  0  0  0  0  0
    7.9108  -16.4946   27.6066 O   0  0  0  0  0  0  0  0  0  0  0  0
    9.8226  -15.2896   27.9408 O   0  0  0  0  0  0  0  0  0  0  0  0
  1  2  1  0
  1  5  1  0
  2  3  1  0
  3  4  1  0
  5  4  1  0
  5  6  1  1
  6 14  1  0
  7  6  2  0
  9 11  1  0
  9  8  1  0
 10  9  2  0
 13 12  1  1
 12 11  1  0
 14 13  1  0
 15 16  2  0
 15 13  1  0
 18 17  1  0
 18 19  1  0
 19 21  1  0
 19 20  1  1
 21 22  1  6
 21 23  1  0
 22 15  1  0
 23 25  1  0
 24 23  2  0
M  END
$$$$
