PQI.pdb
     RDKit          3D

 25 25  0  0  1  0  0  0  0  0999 V2000
    7.8139  -14.8234   18.2195 N   0  0  0  0  0  0  0  0  0  0  0  0
    7.9516  -13.7229   17.2843 C   0  0  0  0  0  0  0  0  0  0  0  0
    7.9309  -12.4502   18.0890 C   0  0  0  0  0  0  0  0  0  0  0  0
    7.8269  -12.9445   19.5380 C   0  0  0  0  0  0  0  0  0  0  0  0
    8.4619  -14.3176   19.4008 C   0  0  1  0  0  0  0  0  0  0  0  0
    8.1985  -15.1659   20.5912 C   0  0  0  0  0  0  0  0  0  0  0  0
    7.0558  -15.6835   20.6910 O   0  0  0  0  0  0  0  0  0  0  0  0
   10.7699  -19.9636   22.3126 N   0  0  0  0  0  0  0  0  0  0  0  0
    9.7186  -19.6988   21.4126 C   0  0  0  0  0  0  0  0  0  0  0  0
    9.3801  -20.5383   20.5594 O   0  0  0  0  0  0  0  0  0  0  0  0
    8.9823  -18.3919   21.4653 C   0  0  0  0  0  0  0  0  0  0  0  0
    9.4960  -17.5460   22.5742 C   0  0  0  0  0  0  0  0  0  0  0  0
    8.7969  -16.2356   22.7980 C   0  0  2  0  0  0  0  0  0  0  0  0
    9.1415  -15.4178   21.5961 N   0  0  0  0  0  0  0  0  0  0  0  0
    9.1978  -15.5039   24.0073 C   0  0  0  0  0  0  0  0  0  0  0  0
   10.4099  -15.1027   24.1513 O   0  0  0  0  0  0  0  0  0  0  0  0
    6.0162  -11.9391   25.8514 C   0  0  0  0  0  0  0  0  0  0  0  0
    7.2029  -12.8143   25.5456 C   0  0  0  0  0  0  0  0  0  0  0  0
    7.6671  -13.5987   26.7517 C   0  0  2  0  0  0  0  0  0  0  0  0
    8.1817  -12.7391   27.8591 C   0  0  0  0  0  0  0  0  0  0  0  0
    8.8290  -14.4769   26.2582 C   0  0  2  0  0  0  0  0  0  0  0  0
    8.3363  -15.1763   25.0804 N   0  0  0  0  0  0  0  0  0  0  0  0
    9.2154  -15.4503   27.2918 C   0  0  0  0  0  0  0  0  0  0  0  0
    8.6200  -16.5648   27.3930 O   0  0  0  0  0  0  0  0  0  0  0  0
   10.2406  -15.1536   28.1680 O   0  0  0  0  0  0  0  0  0  0  0  0
  1  2  1  0
  1  5  1  0
  2  3  1  0
  3  4  1  0
  5  4  1  0
  5  6  1  1
  6 14  1  0
  7  6  2  0
  9 11  1  0
  9  8  1  0
 10  9  2  0
 13 12  1  6
 12 11  1  0
 14 13  1  0
 15 16  2  0
 15 13  1  0
 18 17  1  0
 18 19  1  0
 19 21  1  0
 19 20  1  1
 21 22  1  6
 21 23  1  0
 22 15  1  0
 23 25  1  0
 24 23  2  0
M  END
$$$$
