PQI.pdb
     RDKit          3D

 25 25  0  0  1  0  0  0  0  0999 V2000
    8.0977  -15.4074   18.9731 N   0  0  0  0  0  0  0  0  0  0  0  0
    8.2808  -14.7432   17.6964 C   0  0  0  0  0  0  0  0  0  0  0  0
    7.7675  -13.3359   17.8495 C   0  0  0  0  0  0  0  0  0  0  0  0
    7.3421  -13.2682   19.3223 C   0  0  0  0  0  0  0  0  0  0  0  0
    8.2522  -14.3302   19.9150 C   0  0  1  0  0  0  0  0  0  0  0  0
    7.8256  -14.7174   21.2840 C   0  0  0  0  0  0  0  0  0  0  0  0
    7.5843  -13.7892   22.0987 O   0  0  0  0  0  0  0  0  0  0  0  0
    6.9824  -20.6088   23.0227 N   0  0  0  0  0  0  0  0  0  0  0  0
    6.4354  -19.9858   24.1622 C   0  0  0  0  0  0  0  0  0  0  0  0
    5.9882  -20.6598   25.1071 O   0  0  0  0  0  0  0  0  0  0  0  0
    6.3811  -18.4890   24.2592 C   0  0  0  0  0  0  0  0  0  0  0  0
    6.9187  -17.8644   23.0223 C   0  0  0  0  0  0  0  0  0  0  0  0
    7.0687  -16.3699   23.0357 C   0  0  2  0  0  0  0  0  0  0  0  0
    7.6791  -16.0434   21.7117 N   0  0  0  0  0  0  0  0  0  0  0  0
    7.9213  -15.8299   24.1034 C   0  0  0  0  0  0  0  0  0  0  0  0
    9.1937  -16.0056   24.0695 O   0  0  0  0  0  0  0  0  0  0  0  0
    6.2487  -11.3349   26.1196 C   0  0  0  0  0  0  0  0  0  0  0  0
    7.1329  -12.4634   25.6589 C   0  0  0  0  0  0  0  0  0  0  0  0
    7.6308  -13.3116   26.8069 C   0  0  2  0  0  0  0  0  0  0  0  0
    8.5839  -12.5958   27.7066 C   0  0  0  0  0  0  0  0  0  0  0  0
    8.3839  -14.4876   26.1629 C   0  0  2  0  0  0  0  0  0  0  0  0
    7.4567  -15.0939   25.2186 N   0  0  0  0  0  0  0  0  0  0  0  0
    8.7724  -15.4731   27.1841 C   0  0  0  0  0  0  0  0  0  0  0  0
    7.9560  -16.3585   27.5797 O   0  0  0  0  0  0  0  0  0  0  0  0
   10.0428  -15.4404   27.7244 O   0  0  0  0  0  0  0  0  0  0  0  0
  1  2  1  0
  1  5  1  0
  2  3  1  0
  3  4  1  0
  5  4  1  0
  5  6  1  1
  6 14  1  0
  7  6  2  0
  9 11  1  0
  9  8  1  0
 10  9  2  0
 13 12  1  1
 12 11  1  0
 14 13  1  0
 15 16  2  0
 15 13  1  0
 18 17  1  0
 18 19  1  0
 19 21  1  0
 19 20  1  1
 21 22  1  6
 21 23  1  0
 22 15  1  0
 23 25  1  0
 24 23  2  0
M  END
$$$$
