VYE.pdb
     RDKit          3D

 29 29  0  0  1  0  0  0  0  0999 V2000
    8.9391  -17.3363   19.9483 C   0  0  0  0  0  0  0  0  0  0  0  0
    7.4931  -16.9066   20.2084 C   0  0  2  0  0  0  0  0  0  0  0  0
    6.7285  -17.2355   18.9355 C   0  0  0  0  0  0  0  0  0  0  0  0
    7.5412  -15.4127   20.4625 C   0  0  2  0  0  0  0  0  0  0  0  0
    8.0900  -14.7943   19.2850 N   0  0  0  0  0  0  0  0  0  0  0  0
    8.2951  -15.0791   21.6899 C   0  0  0  0  0  0  0  0  0  0  0  0
    9.5086  -14.7754   21.5549 O   0  0  0  0  0  0  0  0  0  0  0  0
   10.5832  -14.4929   30.2268 O   0  0  0  0  0  0  0  0  0  0  0  0
    9.8452  -14.5573   29.0335 C   0  0  0  0  0  0  0  0  0  0  0  0
    9.5847  -13.4243   28.2958 C   0  0  0  0  0  0  0  0  0  0  0  0
    8.8444  -13.5267   27.1090 C   0  0  0  0  0  0  0  0  0  0  0  0
    8.3756  -14.7420   26.6725 C   0  0  0  0  0  0  0  0  0  0  0  0
    7.5995  -14.8274   25.4225 C   0  0  0  0  0  0  0  0  0  0  0  0
    8.5249  -14.8911   24.2000 C   0  0  2  0  0  0  0  0  0  0  0  0
    7.7559  -15.0771   22.9902 N   0  0  0  0  0  0  0  0  0  0  0  0
    9.3309  -16.1498   24.3934 C   0  0  0  0  0  0  0  0  0  0  0  0
    8.7626  -17.2612   24.2889 O   0  0  0  0  0  0  0  0  0  0  0  0
    8.6434  -15.8629   27.4189 C   0  0  0  0  0  0  0  0  0  0  0  0
    9.3804  -15.7787   28.6052 C   0  0  0  0  0  0  0  0  0  0  0  0
   10.6978  -16.1199   24.6869 N   0  0  0  0  0  0  0  0  0  0  0  0
   11.4223  -17.3977   24.7840 C   0  0  1  0  0  0  0  0  0  0  0  0
   12.7472  -17.2737   24.0839 C   0  0  0  0  0  0  0  0  0  0  0  0
   12.6912  -17.9242   22.7367 C   0  0  0  0  0  0  0  0  0  0  0  0
   13.9726  -17.6889   21.9823 C   0  0  0  0  0  0  0  0  0  0  0  0
   15.0515  -18.0411   22.4974 O   0  0  0  0  0  0  0  0  0  0  0  0
   11.5049  -17.7131   26.2158 C   0  0  0  0  0  0  0  0  0  0  0  0
   11.3810  -18.8910   26.6085 O   0  0  0  0  0  0  0  0  0  0  0  0
   13.9685  -17.0946   20.7412 O   0  0  0  0  0  0  0  0  0  0  0  0
   11.7191  -16.7222   27.1448 O   0  0  0  0  0  0  0  0  0  0  0  0
  2  1  1  6
  2  3  1  0
  4  2  1  0
  4  5  1  6
  6  4  1  0
  7  6  2  0
  8  9  1  0
  9 10  2  0
  9 19  1  0
 10 11  1  0
 11 12  2  0
 12 13  1  0
 14 13  1  1
 14 15  1  0
 15  6  1  0
 16 14  1  0
 16 17  2  0
 18 12  1  0
 19 18  2  0
 20 21  1  0
 20 16  1  0
 21 22  1  1
 22 23  1  0
 23 24  1  0
 24 28  1  0
 24 25  2  0
 26 21  1  0
 27 26  2  0
 29 26  1  0
M  END
$$$$
