VYE.pdb
     RDKit          3D

 29 29  0  0  1  0  0  0  0  0999 V2000
    6.4874  -14.3615   18.5840 C   0  0  0  0  0  0  0  0  0  0  0  0
    7.4609  -14.6522   19.7290 C   0  0  2  0  0  0  0  0  0  0  0  0
    6.8284  -15.7766   20.5343 C   0  0  0  0  0  0  0  0  0  0  0  0
    7.5531  -13.3704   20.5336 C   0  0  2  0  0  0  0  0  0  0  0  0
    8.0682  -12.3506   19.6591 N   0  0  0  0  0  0  0  0  0  0  0  0
    8.3630  -13.5377   21.7593 C   0  0  0  0  0  0  0  0  0  0  0  0
    9.6122  -13.5921   21.6203 O   0  0  0  0  0  0  0  0  0  0  0  0
   10.5825  -15.6193   30.0767 O   0  0  0  0  0  0  0  0  0  0  0  0
    9.8734  -15.1973   28.9401 C   0  0  0  0  0  0  0  0  0  0  0  0
    9.0899  -16.0742   28.2238 C   0  0  0  0  0  0  0  0  0  0  0  0
    8.3960  -15.6171   27.0939 C   0  0  0  0  0  0  0  0  0  0  0  0
    8.4872  -14.3067   26.6922 C   0  0  0  0  0  0  0  0  0  0  0  0
    7.7497  -13.8472   25.5018 C   0  0  0  0  0  0  0  0  0  0  0  0
    8.6195  -13.9422   24.2411 C   0  0  2  0  0  0  0  0  0  0  0  0
    7.8397  -13.6397   23.0621 N   0  0  0  0  0  0  0  0  0  0  0  0
    8.9971  -15.3980   24.1436 C   0  0  0  0  0  0  0  0  0  0  0  0
    8.1070  -16.2448   23.8989 O   0  0  0  0  0  0  0  0  0  0  0  0
    9.2724  -13.4441   27.4166 C   0  0  0  0  0  0  0  0  0  0  0  0
    9.9714  -13.8832   28.5462 C   0  0  0  0  0  0  0  0  0  0  0  0
   10.3127  -15.8384   24.3177 N   0  0  0  0  0  0  0  0  0  0  0  0
   10.6046  -17.2686   24.1263 C   0  0  1  0  0  0  0  0  0  0  0  0
   11.4707  -17.4417   22.9094 C   0  0  0  0  0  0  0  0  0  0  0  0
   11.9719  -18.8496   22.8187 C   0  0  0  0  0  0  0  0  0  0  0  0
   12.8960  -19.0068   21.6406 C   0  0  0  0  0  0  0  0  0  0  0  0
   13.5333  -18.0156   21.2348 O   0  0  0  0  0  0  0  0  0  0  0  0
   11.2018  -17.7359   25.3838 C   0  0  0  0  0  0  0  0  0  0  0  0
   10.9217  -18.8666   25.8310 O   0  0  0  0  0  0  0  0  0  0  0  0
   13.0452  -20.2212   21.0108 O   0  0  0  0  0  0  0  0  0  0  0  0
   12.0756  -16.9409   26.0875 O   0  0  0  0  0  0  0  0  0  0  0  0
  2  1  1  6
  2  3  1  0
  4  2  1  0
  4  5  1  6
  6  4  1  0
  7  6  2  0
  8  9  1  0
  9 10  2  0
  9 19  1  0
 10 11  1  0
 11 12  2  0
 12 13  1  0
 14 13  1  1
 14 15  1  0
 15  6  1  0
 16 14  1  0
 16 17  2  0
 18 12  1  0
 19 18  2  0
 20 21  1  0
 20 16  1  0
 21 22  1  6
 22 23  1  0
 23 24  1  0
 24 28  1  0
 24 25  2  0
 26 21  1  0
 27 26  2  0
 29 26  1  0
M  END
$$$$
