VYE.pdb
     RDKit          3D

 29 29  0  0  1  0  0  0  0  0999 V2000
    9.1455  -15.8621   19.3319 C   0  0  0  0  0  0  0  0  0  0  0  0
    7.6597  -15.6339   19.6208 C   0  0  2  0  0  0  0  0  0  0  0  0
    6.9794  -15.5686   18.2621 C   0  0  0  0  0  0  0  0  0  0  0  0
    7.5759  -14.3090   20.3533 C   0  0  2  0  0  0  0  0  0  0  0  0
    8.1014  -13.2984   19.4743 N   0  0  0  0  0  0  0  0  0  0  0  0
    8.2671  -14.3487   21.6598 C   0  0  0  0  0  0  0  0  0  0  0  0
    9.4313  -13.8743   21.7092 O   0  0  0  0  0  0  0  0  0  0  0  0
    5.9148   -9.9007   27.2597 O   0  0  0  0  0  0  0  0  0  0  0  0
    6.2556  -11.1688   26.7611 C   0  0  0  0  0  0  0  0  0  0  0  0
    5.2958  -12.0154   26.2533 C   0  0  0  0  0  0  0  0  0  0  0  0
    5.6731  -13.2744   25.7640 C   0  0  0  0  0  0  0  0  0  0  0  0
    6.9871  -13.6745   25.7844 C   0  0  0  0  0  0  0  0  0  0  0  0
    7.3620  -15.0019   25.2652 C   0  0  0  0  0  0  0  0  0  0  0  0
    8.3850  -14.8823   24.1276 C   0  0  2  0  0  0  0  0  0  0  0  0
    7.7192  -14.8758   22.8445 N   0  0  0  0  0  0  0  0  0  0  0  0
    9.1813  -16.1604   24.1910 C   0  0  0  0  0  0  0  0  0  0  0  0
    8.6554  -17.2278   23.7997 O   0  0  0  0  0  0  0  0  0  0  0  0
    7.9329  -12.8193   26.2938 C   0  0  0  0  0  0  0  0  0  0  0  0
    7.5739  -11.5598   26.7860 C   0  0  0  0  0  0  0  0  0  0  0  0
   10.4931  -16.1961   24.6738 N   0  0  0  0  0  0  0  0  0  0  0  0
   11.1763  -17.4978   24.7522 C   0  0  1  0  0  0  0  0  0  0  0  0
   12.6347  -17.3149   24.4347 C   0  0  0  0  0  0  0  0  0  0  0  0
   12.8279  -17.0944   22.9665 C   0  0  0  0  0  0  0  0  0  0  0  0
   14.2878  -16.9119   22.6471 C   0  0  0  0  0  0  0  0  0  0  0  0
   15.1399  -17.4386   23.3884 O   0  0  0  0  0  0  0  0  0  0  0  0
   10.8954  -18.0270   26.0928 C   0  0  0  0  0  0  0  0  0  0  0  0
   10.2813  -17.3318   26.9274 O   0  0  0  0  0  0  0  0  0  0  0  0
   14.6905  -16.1768   21.5557 O   0  0  0  0  0  0  0  0  0  0  0  0
   11.3015  -19.2909   26.4512 O   0  0  0  0  0  0  0  0  0  0  0  0
  2  1  1  6
  2  3  1  0
  4  2  1  0
  4  5  1  6
  6  4  1  0
  7  6  2  0
  8  9  1  0
  9 10  2  0
  9 19  1  0
 10 11  1  0
 11 12  2  0
 12 13  1  0
 14 13  1  1
 14 15  1  0
 15  6  1  0
 16 14  1  0
 16 17  2  0
 18 12  1  0
 19 18  2  0
 20 21  1  0
 20 16  1  0
 21 22  1  1
 22 23  1  0
 23 24  1  0
 24 28  1  0
 24 25  2  0
 26 21  1  0
 27 26  2  0
 29 26  1  0
M  END
$$$$
