VYE.pdb
     RDKit          3D

 29 29  0  0  1  0  0  0  0  0999 V2000
    6.4823  -13.3887   18.9135 C   0  0  0  0  0  0  0  0  0  0  0  0
    7.0785  -13.2019   20.3110 C   0  0  2  0  0  0  0  0  0  0  0  0
    8.1097  -12.0922   20.1757 C   0  0  0  0  0  0  0  0  0  0  0  0
    7.7246  -14.5260   20.6691 C   0  0  2  0  0  0  0  0  0  0  0  0
    6.6806  -15.5150   20.7140 N   0  0  0  0  0  0  0  0  0  0  0  0
    8.4958  -14.4484   21.9283 C   0  0  0  0  0  0  0  0  0  0  0  0
    9.6118  -13.8691   21.8845 O   0  0  0  0  0  0  0  0  0  0  0  0
   10.7119  -14.5543   30.4862 O   0  0  0  0  0  0  0  0  0  0  0  0
   10.0133  -14.7075   29.2773 C   0  0  0  0  0  0  0  0  0  0  0  0
    9.7506  -15.9563   28.7604 C   0  0  0  0  0  0  0  0  0  0  0  0
    9.0504  -16.0708   27.5506 C   0  0  0  0  0  0  0  0  0  0  0  0
    8.6231  -14.9541   26.8743 C   0  0  0  0  0  0  0  0  0  0  0  0
    7.8889  -15.0968   25.6044 C   0  0  0  0  0  0  0  0  0  0  0  0
    8.8124  -14.8611   24.4018 C   0  0  2  0  0  0  0  0  0  0  0  0
    8.0734  -14.9729   23.1644 N   0  0  0  0  0  0  0  0  0  0  0  0
    9.7807  -16.0157   24.4287 C   0  0  0  0  0  0  0  0  0  0  0  0
    9.3621  -17.1699   24.1802 O   0  0  0  0  0  0  0  0  0  0  0  0
    8.8926  -13.7155   27.4022 C   0  0  0  0  0  0  0  0  0  0  0  0
    9.5899  -13.5832   28.6080 C   0  0  0  0  0  0  0  0  0  0  0  0
   11.1367  -15.8425   24.7228 N   0  0  0  0  0  0  0  0  0  0  0  0
   12.0653  -16.9454   24.4255 C   0  0  1  0  0  0  0  0  0  0  0  0
   13.2911  -16.3962   23.7498 C   0  0  0  0  0  0  0  0  0  0  0  0
   14.2904  -17.4850   23.5111 C   0  0  0  0  0  0  0  0  0  0  0  0
   15.5133  -16.9388   22.8235 C   0  0  0  0  0  0  0  0  0  0  0  0
   16.1408  -17.6702   22.0332 O   0  0  0  0  0  0  0  0  0  0  0  0
   12.3139  -17.6262   25.7026 C   0  0  0  0  0  0  0  0  0  0  0  0
   12.3953  -18.8706   25.7466 O   0  0  0  0  0  0  0  0  0  0  0  0
   15.9442  -15.6524   23.0544 O   0  0  0  0  0  0  0  0  0  0  0  0
   12.4610  -16.9093   26.8668 O   0  0  0  0  0  0  0  0  0  0  0  0
  2  1  1  6
  2  3  1  0
  4  2  1  0
  4  5  1  1
  6  4  1  0
  7  6  2  0
  8  9  1  0
  9 10  2  0
  9 19  1  0
 10 11  1  0
 11 12  2  0
 12 13  1  0
 14 13  1  1
 14 15  1  0
 15  6  1  0
 16 14  1  0
 16 17  2  0
 18 12  1  0
 19 18  2  0
 20 21  1  0
 20 16  1  0
 21 22  1  1
 22 23  1  0
 23 24  1  0
 24 28  1  0
 24 25  2  0
 26 21  1  0
 27 26  2  0
 29 26  1  0
M  END
$$$$
