VYE.pdb
     RDKit          3D

 29 29  0  0  1  0  0  0  0  0999 V2000
    9.4121  -18.8872   20.1329 C   0  0  0  0  0  0  0  0  0  0  0  0
    8.0739  -18.3911   19.5793 C   0  0  2  0  0  0  0  0  0  0  0  0
    7.8004  -19.2329   18.3425 C   0  0  0  0  0  0  0  0  0  0  0  0
    8.2834  -16.9312   19.2279 C   0  0  2  0  0  0  0  0  0  0  0  0
    9.3267  -16.8730   18.2389 N   0  0  0  0  0  0  0  0  0  0  0  0
    8.5762  -16.1065   20.4198 C   0  0  0  0  0  0  0  0  0  0  0  0
    9.7842  -15.9767   20.7467 O   0  0  0  0  0  0  0  0  0  0  0  0
    7.3118  -12.2959   28.3059 O   0  0  0  0  0  0  0  0  0  0  0  0
    7.1483  -12.7209   26.9772 C   0  0  0  0  0  0  0  0  0  0  0  0
    7.5811  -11.9468   25.9239 C   0  0  0  0  0  0  0  0  0  0  0  0
    7.4009  -12.4035   24.6102 C   0  0  0  0  0  0  0  0  0  0  0  0
    6.7986  -13.6124   24.3598 C   0  0  0  0  0  0  0  0  0  0  0  0
    6.6191  -14.0735   22.9715 C   0  0  0  0  0  0  0  0  0  0  0  0
    7.8793  -14.7815   22.4563 C   0  0  2  0  0  0  0  0  0  0  0  0
    7.6065  -15.4606   21.2096 N   0  0  0  0  0  0  0  0  0  0  0  0
    8.1613  -15.8547   23.4763 C   0  0  0  0  0  0  0  0  0  0  0  0
    7.4861  -16.9096   23.4557 O   0  0  0  0  0  0  0  0  0  0  0  0
    6.3723  -14.3732   25.4204 C   0  0  0  0  0  0  0  0  0  0  0  0
    6.5440  -13.9328   26.7372 C   0  0  0  0  0  0  0  0  0  0  0  0
    9.1553  -15.7130   24.4495 N   0  0  0  0  0  0  0  0  0  0  0  0
    9.7420  -16.9296   25.0349 C   0  0  1  0  0  0  0  0  0  0  0  0
   10.7136  -17.5335   24.0589 C   0  0  0  0  0  0  0  0  0  0  0  0
   12.1165  -17.1423   24.4058 C   0  0  0  0  0  0  0  0  0  0  0  0
   13.1024  -18.0653   23.7407 C   0  0  0  0  0  0  0  0  0  0  0  0
   13.0304  -18.2418   22.5090 O   0  0  0  0  0  0  0  0  0  0  0  0
   10.3254  -16.5246   26.3201 C   0  0  0  0  0  0  0  0  0  0  0  0
   10.6421  -15.3343   26.5199 O   0  0  0  0  0  0  0  0  0  0  0  0
   14.0747  -18.7117   24.4690 O   0  0  0  0  0  0  0  0  0  0  0  0
   10.5323  -17.4441   27.3215 O   0  0  0  0  0  0  0  0  0  0  0  0
  2  1  1  6
  2  3  1  0
  4  2  1  0
  4  5  1  6
  6  4  1  0
  7  6  2  0
  8  9  1  0
  9 10  2  0
  9 19  1  0
 10 11  1  0
 11 12  2  0
 12 13  1  0
 14 13  1  1
 14 15  1  0
 15  6  1  0
 16 14  1  0
 16 17  2  0
 18 12  1  0
 19 18  2  0
 20 21  1  0
 20 16  1  0
 21 22  1  6
 22 23  1  0
 23 24  1  0
 24 28  1  0
 24 25  2  0
 26 21  1  0
 27 26  2  0
 29 26  1  0
M  END
$$$$
