VYE.pdb
     RDKit          3D

 29 29  0  0  1  0  0  0  0  0999 V2000
    7.8025  -14.0039   17.2345 C   0  0  0  0  0  0  0  0  0  0  0  0
    7.8957  -13.7296   18.7376 C   0  0  2  0  0  0  0  0  0  0  0  0
    8.8492  -12.5540   18.8851 C   0  0  0  0  0  0  0  0  0  0  0  0
    8.4628  -14.9917   19.3574 C   0  0  2  0  0  0  0  0  0  0  0  0
    7.5075  -16.0448   19.1374 N   0  0  0  0  0  0  0  0  0  0  0  0
    8.7976  -14.8103   20.7861 C   0  0  0  0  0  0  0  0  0  0  0  0
    9.9577  -14.4063   21.0582 O   0  0  0  0  0  0  0  0  0  0  0  0
    7.7345  -11.9930   28.9913 O   0  0  0  0  0  0  0  0  0  0  0  0
    7.5099  -12.6145   27.7519 C   0  0  0  0  0  0  0  0  0  0  0  0
    6.7609  -12.0006   26.7732 C   0  0  0  0  0  0  0  0  0  0  0  0
    6.5576  -12.6514   25.5476 C   0  0  0  0  0  0  0  0  0  0  0  0
    7.0955  -13.8929   25.3102 C   0  0  0  0  0  0  0  0  0  0  0  0
    6.8696  -14.5593   24.0152 C   0  0  0  0  0  0  0  0  0  0  0  0
    8.1824  -14.7134   23.2358 C   0  0  2  0  0  0  0  0  0  0  0  0
    7.9171  -15.0557   21.8566 N   0  0  0  0  0  0  0  0  0  0  0  0
    8.8571  -15.9116   23.8527 C   0  0  0  0  0  0  0  0  0  0  0  0
    8.2644  -17.0152   23.8500 O   0  0  0  0  0  0  0  0  0  0  0  0
    7.8401  -14.4925   26.2958 C   0  0  0  0  0  0  0  0  0  0  0  0
    8.0528  -13.8575   27.5243 C   0  0  0  0  0  0  0  0  0  0  0  0
   10.1280  -15.8339   24.4308 N   0  0  0  0  0  0  0  0  0  0  0  0
   10.7553  -17.0746   24.9149 C   0  0  1  0  0  0  0  0  0  0  0  0
   12.2152  -17.0681   24.5548 C   0  0  0  0  0  0  0  0  0  0  0  0
   12.3884  -17.0926   23.0679 C   0  0  0  0  0  0  0  0  0  0  0  0
   13.8498  -17.0923   22.7060 C   0  0  0  0  0  0  0  0  0  0  0  0
   14.1760  -17.1752   21.5060 O   0  0  0  0  0  0  0  0  0  0  0  0
   10.4722  -17.1413   26.3542 C   0  0  0  0  0  0  0  0  0  0  0  0
   10.0898  -16.1243   26.9678 O   0  0  0  0  0  0  0  0  0  0  0  0
   14.8226  -17.0022   23.6751 O   0  0  0  0  0  0  0  0  0  0  0  0
   10.6222  -18.3188   27.0484 O   0  0  0  0  0  0  0  0  0  0  0  0
  2  1  1  6
  2  3  1  0
  4  2  1  0
  4  5  1  1
  6  4  1  0
  7  6  2  0
  8  9  1  0
  9 10  2  0
  9 19  1  0
 10 11  1  0
 11 12  2  0
 12 13  1  0
 14 13  1  1
 14 15  1  0
 15  6  1  0
 16 14  1  0
 16 17  2  0
 18 12  1  0
 19 18  2  0
 20 21  1  0
 20 16  1  0
 21 22  1  1
 22 23  1  0
 23 24  1  0
 24 28  1  0
 24 25  2  0
 26 21  1  0
 27 26  2  0
 29 26  1  0
M  END
$$$$
