VYE.pdb
     RDKit          3D

 29 29  0  0  1  0  0  0  0  0999 V2000
    8.4638  -17.9103   20.2185 C   0  0  0  0  0  0  0  0  0  0  0  0
    7.1481  -17.1339   20.3156 C   0  0  2  0  0  0  0  0  0  0  0  0
    6.3837  -17.4544   19.0405 C   0  0  0  0  0  0  0  0  0  0  0  0
    7.5325  -15.6689   20.3848 C   0  0  2  0  0  0  0  0  0  0  0  0
    8.2458  -15.3545   19.1754 N   0  0  0  0  0  0  0  0  0  0  0  0
    8.3047  -15.3513   21.6051 C   0  0  0  0  0  0  0  0  0  0  0  0
    9.5571  -15.4472   21.5345 O   0  0  0  0  0  0  0  0  0  0  0  0
   10.3774  -13.9867   30.1016 O   0  0  0  0  0  0  0  0  0  0  0  0
    9.6703  -14.1133   28.8946 C   0  0  0  0  0  0  0  0  0  0  0  0
    9.0614  -15.2985   28.5474 C   0  0  0  0  0  0  0  0  0  0  0  0
    8.3639  -15.3881   27.3340 C   0  0  0  0  0  0  0  0  0  0  0  0
    8.2798  -14.3097   26.4872 C   0  0  0  0  0  0  0  0  0  0  0  0
    7.5418  -14.4254   25.2167 C   0  0  0  0  0  0  0  0  0  0  0  0
    8.4879  -14.7595   24.0557 C   0  0  2  0  0  0  0  0  0  0  0  0
    7.7423  -14.9519   22.8322 N   0  0  0  0  0  0  0  0  0  0  0  0
    9.0773  -16.0996   24.4138 C   0  0  0  0  0  0  0  0  0  0  0  0
    8.3581  -17.1226   24.3403 O   0  0  0  0  0  0  0  0  0  0  0  0
    8.8921  -13.1346   26.8471 C   0  0  0  0  0  0  0  0  0  0  0  0
    9.5920  -13.0278   28.0538 C   0  0  0  0  0  0  0  0  0  0  0  0
   10.4056  -16.2414   24.8272 N   0  0  0  0  0  0  0  0  0  0  0  0
   10.9323  -17.5992   25.0414 C   0  0  1  0  0  0  0  0  0  0  0  0
   12.2346  -17.7504   24.3051 C   0  0  0  0  0  0  0  0  0  0  0  0
   12.0262  -18.4834   23.0165 C   0  0  0  0  0  0  0  0  0  0  0  0
   13.0670  -18.0817   22.0055 C   0  0  0  0  0  0  0  0  0  0  0  0
   12.6992  -17.6962   20.8789 O   0  0  0  0  0  0  0  0  0  0  0  0
   11.0181  -17.7797   26.4962 C   0  0  0  0  0  0  0  0  0  0  0  0
   11.5749  -18.7896   26.9728 O   0  0  0  0  0  0  0  0  0  0  0  0
   14.4087  -18.1342   22.3068 O   0  0  0  0  0  0  0  0  0  0  0  0
   10.4898  -16.8448   27.3550 O   0  0  0  0  0  0  0  0  0  0  0  0
  2  1  1  6
  2  3  1  0
  4  2  1  0
  4  5  1  6
  6  4  1  0
  7  6  2  0
  8  9  1  0
  9 10  2  0
  9 19  1  0
 10 11  1  0
 11 12  2  0
 12 13  1  0
 14 13  1  1
 14 15  1  0
 15  6  1  0
 16 14  1  0
 16 17  2  0
 18 12  1  0
 19 18  2  0
 20 21  1  0
 20 16  1  0
 21 22  1  6
 22 23  1  0
 23 24  1  0
 24 28  1  0
 24 25  2  0
 26 21  1  0
 27 26  2  0
 29 26  1  0
M  END
$$$$
