VYE.pdb
     RDKit          3D

 29 29  0  0  1  0  0  0  0  0999 V2000
    9.8196  -19.0302   20.5022 C   0  0  0  0  0  0  0  0  0  0  0  0
    8.5283  -18.5172   19.8598 C   0  0  2  0  0  0  0  0  0  0  0  0
    8.3237  -19.3611   18.6113 C   0  0  0  0  0  0  0  0  0  0  0  0
    8.7825  -17.0623   19.5168 C   0  0  2  0  0  0  0  0  0  0  0  0
    9.9214  -17.0209   18.6386 N   0  0  0  0  0  0  0  0  0  0  0  0
    8.9583  -16.2266   20.7239 C   0  0  0  0  0  0  0  0  0  0  0  0
   10.1342  -16.0503   21.1351 O   0  0  0  0  0  0  0  0  0  0  0  0
    7.1786  -11.8933   28.2407 O   0  0  0  0  0  0  0  0  0  0  0  0
    7.0819  -12.4604   26.9593 C   0  0  0  0  0  0  0  0  0  0  0  0
    7.6107  -11.8252   25.8581 C   0  0  0  0  0  0  0  0  0  0  0  0
    7.4953  -12.4215   24.5940 C   0  0  0  0  0  0  0  0  0  0  0  0
    6.8618  -13.6305   24.4394 C   0  0  0  0  0  0  0  0  0  0  0  0
    6.7514  -14.2396   23.1019 C   0  0  0  0  0  0  0  0  0  0  0  0
    8.0753  -14.8905   22.6793 C   0  0  2  0  0  0  0  0  0  0  0  0
    7.9110  -15.6182   21.4411 N   0  0  0  0  0  0  0  0  0  0  0  0
    8.3564  -15.9174   23.7461 C   0  0  0  0  0  0  0  0  0  0  0  0
    7.5907  -16.9019   23.8632 O   0  0  0  0  0  0  0  0  0  0  0  0
    6.3394  -14.2519   25.5468 C   0  0  0  0  0  0  0  0  0  0  0  0
    6.4457  -13.6712   26.8153 C   0  0  0  0  0  0  0  0  0  0  0  0
    9.4474  -15.8088   24.6139 N   0  0  0  0  0  0  0  0  0  0  0  0
    9.7093  -16.9121   25.5527 C   0  0  1  0  0  0  0  0  0  0  0  0
   10.8468  -17.7478   25.0343 C   0  0  0  0  0  0  0  0  0  0  0  0
   12.0896  -16.9224   24.9101 C   0  0  0  0  0  0  0  0  0  0  0  0
   13.2023  -17.7309   24.2979 C   0  0  0  0  0  0  0  0  0  0  0  0
   13.3944  -18.8958   24.6973 O   0  0  0  0  0  0  0  0  0  0  0  0
    9.9443  -16.2886   26.8612 C   0  0  0  0  0  0  0  0  0  0  0  0
   10.0069  -15.0466   26.9639 O   0  0  0  0  0  0  0  0  0  0  0  0
   14.0037  -17.2049   23.3106 O   0  0  0  0  0  0  0  0  0  0  0  0
   10.0987  -17.0573   27.9909 O   0  0  0  0  0  0  0  0  0  0  0  0
  2  1  1  6
  2  3  1  0
  4  2  1  0
  4  5  1  6
  6  4  1  0
  7  6  2  0
  8  9  1  0
  9 10  2  0
  9 19  1  0
 10 11  1  0
 11 12  2  0
 12 13  1  0
 14 13  1  1
 14 15  1  0
 15  6  1  0
 16 14  1  0
 16 17  2  0
 18 12  1  0
 19 18  2  0
 20 21  1  0
 20 16  1  0
 21 22  1  6
 22 23  1  0
 23 24  1  0
 24 28  1  0
 24 25  2  0
 26 21  1  0
 27 26  2  0
 29 26  1  0
M  END
$$$$
