VYE.pdb
     RDKit          3D

 29 29  0  0  1  0  0  0  0  0999 V2000
    9.1273  -19.1860   18.3711 C   0  0  0  0  0  0  0  0  0  0  0  0
    9.4200  -18.4884   19.7019 C   0  0  2  0  0  0  0  0  0  0  0  0
    8.4446  -19.0850   20.7049 C   0  0  0  0  0  0  0  0  0  0  0  0
    9.1514  -17.0146   19.4682 C   0  0  2  0  0  0  0  0  0  0  0  0
   10.0661  -16.5674   18.4516 N   0  0  0  0  0  0  0  0  0  0  0  0
    9.2482  -16.2250   20.7145 C   0  0  0  0  0  0  0  0  0  0  0  0
   10.3944  -16.0701   21.2097 O   0  0  0  0  0  0  0  0  0  0  0  0
    7.0602  -11.9059   28.1296 O   0  0  0  0  0  0  0  0  0  0  0  0
    7.0259  -12.4877   26.8516 C   0  0  0  0  0  0  0  0  0  0  0  0
    7.5734  -11.8468   25.7629 C   0  0  0  0  0  0  0  0  0  0  0  0
    7.5206  -12.4582   24.5018 C   0  0  0  0  0  0  0  0  0  0  0  0
    6.9301  -13.6877   24.3379 C   0  0  0  0  0  0  0  0  0  0  0  0
    6.8854  -14.3124   23.0039 C   0  0  0  0  0  0  0  0  0  0  0  0
    8.2501  -14.9019   22.6229 C   0  0  2  0  0  0  0  0  0  0  0  0
    8.1569  -15.6380   21.3822 N   0  0  0  0  0  0  0  0  0  0  0  0
    8.5461  -15.9134   23.7003 C   0  0  0  0  0  0  0  0  0  0  0  0
    7.7642  -16.8784   23.8637 O   0  0  0  0  0  0  0  0  0  0  0  0
    6.3885  -14.3145   25.4330 C   0  0  0  0  0  0  0  0  0  0  0  0
    6.4324  -13.7188   26.6982 C   0  0  0  0  0  0  0  0  0  0  0  0
    9.6685  -15.8115   24.5279 N   0  0  0  0  0  0  0  0  0  0  0  0
    9.9135  -16.8788   25.5118 C   0  0  1  0  0  0  0  0  0  0  0  0
   11.2104  -17.5673   25.1875 C   0  0  0  0  0  0  0  0  0  0  0  0
   12.0134  -16.7469   24.2266 C   0  0  0  0  0  0  0  0  0  0  0  0
   13.3105  -17.4368   23.8979 C   0  0  0  0  0  0  0  0  0  0  0  0
   14.2868  -17.2836   24.6574 O   0  0  0  0  0  0  0  0  0  0  0  0
    9.8656  -16.2370   26.8317 C   0  0  0  0  0  0  0  0  0  0  0  0
    9.6953  -15.0045   26.9259 O   0  0  0  0  0  0  0  0  0  0  0  0
   13.4316  -18.2283   22.7787 O   0  0  0  0  0  0  0  0  0  0  0  0
   10.0066  -16.9780   27.9815 O   0  0  0  0  0  0  0  0  0  0  0  0
  2  1  1  6
  2  3  1  0
  4  2  1  0
  4  5  1  6
  6  4  1  0
  7  6  2  0
  8  9  1  0
  9 10  2  0
  9 19  1  0
 10 11  1  0
 11 12  2  0
 12 13  1  0
 14 13  1  1
 14 15  1  0
 15  6  1  0
 16 14  1  0
 16 17  2  0
 18 12  1  0
 19 18  2  0
 20 21  1  0
 20 16  1  0
 21 22  1  6
 22 23  1  0
 23 24  1  0
 24 28  1  0
 24 25  2  0
 26 21  1  0
 27 26  2  0
 29 26  1  0
M  END
$$$$
