VYE.pdb
     RDKit          3D

 29 29  0  0  1  0  0  0  0  0999 V2000
    7.5804  -18.0469   17.9393 C   0  0  0  0  0  0  0  0  0  0  0  0
    8.0624  -17.6300   19.3311 C   0  0  2  0  0  0  0  0  0  0  0  0
    7.0822  -18.2541   20.3123 C   0  0  0  0  0  0  0  0  0  0  0  0
    7.9954  -16.1156   19.3594 C   0  0  2  0  0  0  0  0  0  0  0  0
    8.8438  -15.6284   18.3044 N   0  0  0  0  0  0  0  0  0  0  0  0
    8.3541  -15.5655   20.6841 C   0  0  0  0  0  0  0  0  0  0  0  0
    9.5723  -15.5711   20.9985 O   0  0  0  0  0  0  0  0  0  0  0  0
    7.8047  -12.3081   28.9017 O   0  0  0  0  0  0  0  0  0  0  0  0
    7.4865  -12.7462   27.6057 C   0  0  0  0  0  0  0  0  0  0  0  0
    7.0072  -14.0174   27.3818 C   0  0  0  0  0  0  0  0  0  0  0  0
    6.7000  -14.4204   26.0740 C   0  0  0  0  0  0  0  0  0  0  0  0
    6.8707  -13.5642   25.0135 C   0  0  0  0  0  0  0  0  0  0  0  0
    6.5418  -14.0078   23.6471 C   0  0  0  0  0  0  0  0  0  0  0  0
    7.7852  -14.5435   22.9248 C   0  0  2  0  0  0  0  0  0  0  0  0
    7.4361  -15.0396   21.6127 N   0  0  0  0  0  0  0  0  0  0  0  0
    8.2148  -15.7396   23.7350 C   0  0  0  0  0  0  0  0  0  0  0  0
    7.4502  -16.7284   23.8169 O   0  0  0  0  0  0  0  0  0  0  0  0
    7.3495  -12.2997   25.2525 C   0  0  0  0  0  0  0  0  0  0  0  0
    7.6610  -11.8813   26.5507 C   0  0  0  0  0  0  0  0  0  0  0  0
    9.4431  -15.7840   24.4018 N   0  0  0  0  0  0  0  0  0  0  0  0
    9.8169  -17.0242   25.1012 C   0  0  1  0  0  0  0  0  0  0  0  0
   11.1652  -17.4818   24.6177 C   0  0  0  0  0  0  0  0  0  0  0  0
   11.1243  -17.7741   23.1500 C   0  0  0  0  0  0  0  0  0  0  0  0
   12.4895  -18.1663   22.6509 C   0  0  0  0  0  0  0  0  0  0  0  0
   13.4054  -18.3508   23.4758 O   0  0  0  0  0  0  0  0  0  0  0  0
    9.7426  -16.7226   26.5364 C   0  0  0  0  0  0  0  0  0  0  0  0
    9.8749  -17.6341   27.3783 O   0  0  0  0  0  0  0  0  0  0  0  0
   12.7374  -18.3227   21.3064 O   0  0  0  0  0  0  0  0  0  0  0  0
    9.5272  -15.4378   26.9766 O   0  0  0  0  0  0  0  0  0  0  0  0
  2  1  1  6
  2  3  1  0
  4  2  1  0
  4  5  1  6
  6  4  1  0
  7  6  2  0
  8  9  1  0
  9 10  2  0
  9 19  1  0
 10 11  1  0
 11 12  2  0
 12 13  1  0
 14 13  1  1
 14 15  1  0
 15  6  1  0
 16 14  1  0
 16 17  2  0
 18 12  1  0
 19 18  2  0
 20 21  1  0
 20 16  1  0
 21 22  1  6
 22 23  1  0
 23 24  1  0
 24 28  1  0
 24 25  2  0
 26 21  1  0
 27 26  2  0
 29 26  1  0
M  END
$$$$
