DHP.pdb
     RDKit          3D

 26 27  0  0  1  0  0  0  0  0999 V2000
   16.3393  -12.3068  -16.1280 N   0  0  0  0  0  0  0  0  0  0  0  0
   16.3296  -10.9796  -15.5695 C   0  0  1  0  0  0  0  0  0  0  0  0
   15.6882  -10.9367  -14.2055 C   0  0  0  0  0  0  0  0  0  0  0  0
   14.2306  -10.9380  -14.3924 C   0  0  0  0  0  0  0  0  0  0  0  0
   13.7425  -10.5842  -15.5155 O   0  0  0  0  0  0  0  0  0  0  0  0
   17.6925  -10.4069  -15.4679 C   0  0  0  0  0  0  0  0  0  0  0  0
   18.5767  -10.9219  -14.7046 O   0  0  0  0  0  0  0  0  0  0  0  0
   13.4158  -11.3247  -13.3338 O   0  0  0  0  0  0  0  0  0  0  0  0
   18.1088   -9.2601  -16.2029 N   0  0  0  0  0  0  0  0  0  0  0  0
   19.4714   -8.7232  -16.0248 C   0  0  1  0  0  0  0  0  0  0  0  0
   20.0775   -8.7061  -17.4360 C   0  0  0  0  0  0  0  0  0  0  0  0
   20.3467  -10.0737  -17.9035 C   0  0  0  0  0  0  0  0  0  0  0  0
   19.6911  -10.7756  -18.8907 C   0  0  0  0  0  0  0  0  0  0  0  0
   20.2478  -11.9884  -18.9908 N   0  0  0  0  0  0  0  0  0  0  0  0
   21.2522  -12.0756  -18.0817 C   0  0  0  0  0  0  0  0  0  0  0  0
   21.2864  -10.8933  -17.4354 N   0  0  0  0  0  0  0  0  0  0  0  0
   19.3682   -7.3201  -15.5737 C   0  0  0  0  0  0  0  0  0  0  0  0
   18.2727   -6.6639  -15.6733 O   0  0  0  0  0  0  0  0  0  0  0  0
   20.4658   -6.6197  -15.0048 N   0  0  0  0  0  0  0  0  0  0  0  0
   21.8243   -7.0897  -14.8385 C   0  0  0  0  0  0  0  0  0  0  0  0
   22.2291   -6.5220  -13.4910 C   0  0  0  0  0  0  0  0  0  0  0  0
   21.2453   -5.4461  -13.1700 C   0  0  0  0  0  0  0  0  0  0  0  0
   20.4754   -5.2695  -14.4545 C   0  0  1  0  0  0  0  0  0  0  0  0
   21.1625   -4.3137  -15.3657 C   0  0  0  0  0  0  0  0  0  0  0  0
   21.0511   -2.9337  -15.2288 O   0  0  0  0  0  0  0  0  0  0  0  0
   21.8754   -4.7315  -16.3000 O   0  0  0  0  0  0  0  0  0  0  0  0
  2  3  1  0
  2  1  1  1
  4  3  1  0
  4  8  1  0
  5  4  2  0
  6  2  1  0
  7  6  2  0
  9  6  1  0
 10  9  1  0
 11 12  1  0
 10 11  1  6
 12 16  1  0
 13 14  1  0
 13 12  2  0
 14 15  1  0
 15 16  2  0
 17 19  1  0
 17 10  1  0
 18 17  2  0
 19 20  1  0
 20 21  1  0
 22 21  1  0
 23 22  1  0
 23 19  1  0
 23 24  1  6
 24 25  1  0
 26 24  2  0
M  END
$$$$
