DHP.pdb
     RDKit          3D

 26 27  0  0  1  0  0  0  0  0999 V2000
   19.5327  -13.0365  -17.8758 N   0  0  0  0  0  0  0  0  0  0  0  0
   20.3611  -12.4423  -16.8587 C   0  0  1  0  0  0  0  0  0  0  0  0
   21.8103  -12.8348  -16.9985 C   0  0  0  0  0  0  0  0  0  0  0  0
   21.9149  -14.2760  -16.7309 C   0  0  0  0  0  0  0  0  0  0  0  0
   20.8816  -14.9200  -16.3537 O   0  0  0  0  0  0  0  0  0  0  0  0
   20.2711  -10.9632  -16.8594 C   0  0  0  0  0  0  0  0  0  0  0  0
   20.7771  -10.2651  -17.8008 O   0  0  0  0  0  0  0  0  0  0  0  0
   23.1448  -14.9042  -16.8942 O   0  0  0  0  0  0  0  0  0  0  0  0
   19.6233  -10.2250  -15.8278 N   0  0  0  0  0  0  0  0  0  0  0  0
   19.5562   -8.7532  -15.9033 C   0  0  1  0  0  0  0  0  0  0  0  0
   18.2268   -8.3826  -15.2292 C   0  0  0  0  0  0  0  0  0  0  0  0
   17.0893   -8.7419  -16.0887 C   0  0  0  0  0  0  0  0  0  0  0  0
   16.6887   -8.1375  -17.2596 C   0  0  0  0  0  0  0  0  0  0  0  0
   15.6020   -8.7720  -17.7150 N   0  0  0  0  0  0  0  0  0  0  0  0
   15.2988   -9.7759  -16.8529 C   0  0  0  0  0  0  0  0  0  0  0  0
   16.2234   -9.7306  -15.8732 N   0  0  0  0  0  0  0  0  0  0  0  0
   20.6415   -8.1902  -15.0740 C   0  0  0  0  0  0  0  0  0  0  0  0
   21.1480   -8.8476  -14.0984 O   0  0  0  0  0  0  0  0  0  0  0  0
   21.1869   -6.8990  -15.3065 N   0  0  0  0  0  0  0  0  0  0  0  0
   20.7778   -5.9324  -16.3029 C   0  0  0  0  0  0  0  0  0  0  0  0
   22.0900   -5.3233  -16.7598 C   0  0  0  0  0  0  0  0  0  0  0  0
   23.1064   -5.6776  -15.7255 C   0  0  0  0  0  0  0  0  0  0  0  0
   22.2856   -6.2525  -14.5987 C   0  0  1  0  0  0  0  0  0  0  0  0
   21.7940   -5.1803  -13.6906 C   0  0  0  0  0  0  0  0  0  0  0  0
   22.5734   -4.6449  -12.6700 O   0  0  0  0  0  0  0  0  0  0  0  0
   20.6425   -4.7192  -13.8213 O   0  0  0  0  0  0  0  0  0  0  0  0
  2  3  1  0
  2  1  1  6
  4  3  1  0
  4  8  1  0
  5  4  2  0
  6  2  1  0
  7  6  2  0
  9  6  1  0
 10  9  1  0
 11 12  1  0
 10 11  1  1
 12 16  1  0
 13 14  1  0
 13 12  2  0
 14 15  1  0
 15 16  2  0
 17 19  1  0
 17 10  1  0
 18 17  2  0
 19 20  1  0
 20 21  1  0
 22 21  1  0
 23 22  1  0
 23 19  1  0
 23 24  1  1
 24 25  1  0
 26 24  2  0
M  END
$$$$
