DHP.pdb
     RDKit          3D

 26 27  0  0  1  0  0  0  0  0999 V2000
   16.6966  -11.8407  -17.1658 N   0  0  0  0  0  0  0  0  0  0  0  0
   17.6764  -11.4703  -16.1777 C   0  0  1  0  0  0  0  0  0  0  0  0
   18.8339  -12.4356  -16.1287 C   0  0  0  0  0  0  0  0  0  0  0  0
   18.3533  -13.6855  -15.5234 C   0  0  0  0  0  0  0  0  0  0  0  0
   17.1804  -13.7307  -15.0264 O   0  0  0  0  0  0  0  0  0  0  0  0
   18.2094  -10.1064  -16.4040 C   0  0  0  0  0  0  0  0  0  0  0  0
   18.6987   -9.7604  -17.5312 O   0  0  0  0  0  0  0  0  0  0  0  0
   19.1946  -14.7927  -15.5057 O   0  0  0  0  0  0  0  0  0  0  0  0
   18.2134   -9.0983  -15.3978 N   0  0  0  0  0  0  0  0  0  0  0  0
   18.7401   -7.7540  -15.7010 C   0  0  1  0  0  0  0  0  0  0  0  0
   17.5697   -6.7986  -15.4244 C   0  0  0  0  0  0  0  0  0  0  0  0
   16.5994   -6.8307  -16.5285 C   0  0  0  0  0  0  0  0  0  0  0  0
   16.6268   -6.1086  -17.7010 C   0  0  0  0  0  0  0  0  0  0  0  0
   15.5483   -6.4321  -18.4244 N   0  0  0  0  0  0  0  0  0  0  0  0
   14.8284   -7.3521  -17.7329 C   0  0  0  0  0  0  0  0  0  0  0  0
   15.4951   -7.5733  -16.5826 N   0  0  0  0  0  0  0  0  0  0  0  0
   19.8059   -7.4366  -14.7283 C   0  0  0  0  0  0  0  0  0  0  0  0
   19.8676   -8.0191  -13.5893 O   0  0  0  0  0  0  0  0  0  0  0  0
   20.8197   -6.4772  -14.9945 N   0  0  0  0  0  0  0  0  0  0  0  0
   20.9524   -5.6313  -16.1611 C   0  0  0  0  0  0  0  0  0  0  0  0
   22.4494   -5.6045  -16.4061 C   0  0  0  0  0  0  0  0  0  0  0  0
   23.0947   -6.0876  -15.1496 C   0  0  0  0  0  0  0  0  0  0  0  0
   21.9606   -6.1273  -14.1566 C   0  0  1  0  0  0  0  0  0  0  0  0
   21.7720   -4.8032  -13.5031 C   0  0  0  0  0  0  0  0  0  0  0  0
   22.5536   -4.3751  -12.4347 O   0  0  0  0  0  0  0  0  0  0  0  0
   20.8877   -4.0201  -13.9037 O   0  0  0  0  0  0  0  0  0  0  0  0
  2  3  1  0
  2  1  1  6
  4  3  1  0
  4  8  1  0
  5  4  2  0
  6  2  1  0
  7  6  2  0
  9  6  1  0
 10  9  1  0
 11 12  1  0
 10 11  1  1
 12 16  1  0
 13 14  1  0
 13 12  2  0
 14 15  1  0
 15 16  2  0
 17 19  1  0
 17 10  1  0
 18 17  2  0
 19 20  1  0
 20 21  1  0
 22 21  1  0
 23 22  1  0
 23 19  1  0
 23 24  1  6
 24 25  1  0
 26 24  2  0
M  END
$$$$
