DHP.pdb
     RDKit          3D

 26 27  0  0  1  0  0  0  0  0999 V2000
   19.9220  -15.2340  -16.3191 N   0  0  0  0  0  0  0  0  0  0  0  0
   20.7060  -14.7553  -17.4280 C   0  0  1  0  0  0  0  0  0  0  0  0
   20.4323  -15.5228  -18.6969 C   0  0  0  0  0  0  0  0  0  0  0  0
   20.7999  -16.9263  -18.4631 C   0  0  0  0  0  0  0  0  0  0  0  0
   20.2972  -17.5488  -17.4708 O   0  0  0  0  0  0  0  0  0  0  0  0
   20.4801  -13.3146  -17.6905 C   0  0  0  0  0  0  0  0  0  0  0  0
   21.1226  -12.6944  -18.6028 O   0  0  0  0  0  0  0  0  0  0  0  0
   21.6929  -17.5429  -19.3327 O   0  0  0  0  0  0  0  0  0  0  0  0
   19.5444  -12.5300  -16.9573 N   0  0  0  0  0  0  0  0  0  0  0  0
   19.4363  -11.0807  -17.2111 C   0  0  1  0  0  0  0  0  0  0  0  0
   17.9579  -10.7449  -16.9647 C   0  0  0  0  0  0  0  0  0  0  0  0
   17.1318  -11.1626  -18.1069 C   0  0  0  0  0  0  0  0  0  0  0  0
   16.9679  -10.5191  -19.3136 C   0  0  0  0  0  0  0  0  0  0  0  0
   16.1230  -11.2347  -20.0653 N   0  0  0  0  0  0  0  0  0  0  0  0
   15.7419  -12.3292  -19.3584 C   0  0  0  0  0  0  0  0  0  0  0  0
   16.3735  -12.2557  -18.1700 N   0  0  0  0  0  0  0  0  0  0  0  0
   20.2261  -10.3644  -16.1884 C   0  0  0  0  0  0  0  0  0  0  0  0
   20.4760  -10.8892  -15.0471 O   0  0  0  0  0  0  0  0  0  0  0  0
   20.7541   -9.0634  -16.4063 N   0  0  0  0  0  0  0  0  0  0  0  0
   20.6251   -8.2438  -17.5919 C   0  0  0  0  0  0  0  0  0  0  0  0
   21.9836   -7.5781  -17.7073 C   0  0  0  0  0  0  0  0  0  0  0  0
   22.6488   -7.7363  -16.3803 C   0  0  0  0  0  0  0  0  0  0  0  0
   21.5500   -8.2571  -15.4884 C   0  0  1  0  0  0  0  0  0  0  0  0
   20.7526   -7.1409  -14.9106 C   0  0  0  0  0  0  0  0  0  0  0  0
   21.1966   -6.3796  -13.8340 O   0  0  0  0  0  0  0  0  0  0  0  0
   19.6372   -6.8479  -15.3858 O   0  0  0  0  0  0  0  0  0  0  0  0
  2  3  1  0
  2  1  1  1
  4  3  1  0
  4  8  1  0
  5  4  2  0
  6  2  1  0
  7  6  2  0
  9  6  1  0
 10  9  1  0
 11 12  1  0
 10 11  1  1
 12 16  1  0
 13 14  1  0
 13 12  2  0
 14 15  1  0
 15 16  2  0
 17 19  1  0
 17 10  1  0
 18 17  2  0
 19 20  1  0
 20 21  1  0
 22 21  1  0
 23 22  1  0
 23 19  1  0
 23 24  1  6
 24 25  1  0
 26 24  2  0
M  END
$$$$
