DHP.pdb
     RDKit          3D

 26 27  0  0  1  0  0  0  0  0999 V2000
   22.4106  -18.0096  -17.3498 N   0  0  0  0  0  0  0  0  0  0  0  0
   22.4625  -19.4342  -17.1463 C   0  0  1  0  0  0  0  0  0  0  0  0
   22.5581  -20.1953  -18.4445 C   0  0  0  0  0  0  0  0  0  0  0  0
   21.4097  -19.8120  -19.2775 C   0  0  0  0  0  0  0  0  0  0  0  0
   20.2959  -19.5381  -18.7215 O   0  0  0  0  0  0  0  0  0  0  0  0
   23.5973  -19.8334  -16.2812 C   0  0  0  0  0  0  0  0  0  0  0  0
   23.8647  -21.0613  -16.0567 O   0  0  0  0  0  0  0  0  0  0  0  0
   21.5664  -19.7595  -20.6583 O   0  0  0  0  0  0  0  0  0  0  0  0
   24.4589  -18.8921  -15.6485 N   0  0  0  0  0  0  0  0  0  0  0  0
   25.5192  -19.3588  -14.7350 C   0  0  1  0  0  0  0  0  0  0  0  0
   26.4591  -18.1550  -14.5717 C   0  0  0  0  0  0  0  0  0  0  0  0
   27.3186  -18.0014  -15.7545 C   0  0  0  0  0  0  0  0  0  0  0  0
   27.8995  -18.9929  -16.5137 C   0  0  0  0  0  0  0  0  0  0  0  0
   28.6104  -18.4182  -17.4910 N   0  0  0  0  0  0  0  0  0  0  0  0
   28.4944  -17.0711  -17.3704 C   0  0  0  0  0  0  0  0  0  0  0  0
   27.7015  -16.8498  -16.3032 N   0  0  0  0  0  0  0  0  0  0  0  0
   24.9159  -19.6279  -13.4135 C   0  0  0  0  0  0  0  0  0  0  0  0
   23.7407  -19.2135  -13.1174 O   0  0  0  0  0  0  0  0  0  0  0  0
   25.5940  -20.3579  -12.4005 N   0  0  0  0  0  0  0  0  0  0  0  0
   26.9922  -20.7295  -12.3637 C   0  0  0  0  0  0  0  0  0  0  0  0
   26.9688  -22.1231  -11.7645 C   0  0  0  0  0  0  0  0  0  0  0  0
   25.6281  -22.2906  -11.1297 C   0  0  0  0  0  0  0  0  0  0  0  0
   25.0375  -20.9037  -11.1682 C   0  0  1  0  0  0  0  0  0  0  0  0
   25.4556  -20.1085   -9.9814 C   0  0  0  0  0  0  0  0  0  0  0  0
   24.8414  -20.2338   -8.7393 O   0  0  0  0  0  0  0  0  0  0  0  0
   26.3908  -19.2877  -10.0672 O   0  0  0  0  0  0  0  0  0  0  0  0
  2  3  1  0
  2  1  1  6
  4  3  1  0
  4  8  1  0
  5  4  2  0
  6  2  1  0
  7  6  2  0
  9  6  1  0
 10  9  1  0
 11 12  1  0
 10 11  1  1
 12 16  1  0
 13 14  1  0
 13 12  2  0
 14 15  1  0
 15 16  2  0
 17 19  1  0
 17 10  1  0
 18 17  2  0
 19 20  1  0
 20 21  1  0
 22 21  1  0
 23 22  1  0
 23 19  1  0
 23 24  1  1
 24 25  1  0
 26 24  2  0
M  END
$$$$
