DHP.pdb
     RDKit          3D

 26 27  0  0  1  0  0  0  0  0999 V2000
   17.5331  -15.4441  -16.4734 N   0  0  0  0  0  0  0  0  0  0  0  0
   17.3954  -14.4263  -15.4640 C   0  0  1  0  0  0  0  0  0  0  0  0
   18.1336  -14.7736  -14.1958 C   0  0  0  0  0  0  0  0  0  0  0  0
   17.5137  -15.9794  -13.6290 C   0  0  0  0  0  0  0  0  0  0  0  0
   16.2581  -15.9948  -13.4101 O   0  0  0  0  0  0  0  0  0  0  0  0
   17.8672  -13.1037  -15.9370 C   0  0  0  0  0  0  0  0  0  0  0  0
   18.9608  -12.9782  -16.5834 O   0  0  0  0  0  0  0  0  0  0  0  0
   18.3163  -17.0783  -13.3419 O   0  0  0  0  0  0  0  0  0  0  0  0
   17.1464  -11.8964  -15.7099 N   0  0  0  0  0  0  0  0  0  0  0  0
   17.6934  -10.6098  -16.1811 C   0  0  1  0  0  0  0  0  0  0  0  0
   16.4825   -9.6677  -16.2536 C   0  0  0  0  0  0  0  0  0  0  0  0
   16.8954   -8.3206  -16.6734 C   0  0  0  0  0  0  0  0  0  0  0  0
   17.0223   -7.1923  -15.8938 C   0  0  0  0  0  0  0  0  0  0  0  0
   17.4124   -6.1779  -16.6746 N   0  0  0  0  0  0  0  0  0  0  0  0
   17.5380   -6.6388  -17.9454 C   0  0  0  0  0  0  0  0  0  0  0  0
   17.2158   -7.9471  -17.9111 N   0  0  0  0  0  0  0  0  0  0  0  0
   18.6025  -10.0781  -15.1449 C   0  0  0  0  0  0  0  0  0  0  0  0
   18.4063  -10.3085  -13.9003 O   0  0  0  0  0  0  0  0  0  0  0  0
   19.7406   -9.2886  -15.4617 N   0  0  0  0  0  0  0  0  0  0  0  0
   20.1583   -8.8228  -16.7666 C   0  0  0  0  0  0  0  0  0  0  0  0
   21.6697   -8.9433  -16.7145 C   0  0  0  0  0  0  0  0  0  0  0  0
   22.0364   -9.0755  -15.2734 C   0  0  0  0  0  0  0  0  0  0  0  0
   20.7507   -8.7699  -14.5471 C   0  0  1  0  0  0  0  0  0  0  0  0
   20.5907   -7.3059  -14.3306 C   0  0  0  0  0  0  0  0  0  0  0  0
   21.3736   -6.5900  -13.4305 O   0  0  0  0  0  0  0  0  0  0  0  0
   19.7307   -6.6628  -14.9649 O   0  0  0  0  0  0  0  0  0  0  0  0
  2  3  1  0
  2  1  1  6
  4  3  1  0
  4  8  1  0
  5  4  2  0
  6  2  1  0
  7  6  2  0
  9  6  1  0
 10  9  1  0
 11 12  1  0
 10 11  1  1
 12 16  1  0
 13 14  1  0
 13 12  2  0
 14 15  1  0
 15 16  2  0
 17 19  1  0
 17 10  1  0
 18 17  2  0
 19 20  1  0
 20 21  1  0
 22 21  1  0
 23 22  1  0
 23 19  1  0
 23 24  1  6
 24 25  1  0
 26 24  2  0
M  END
$$$$
