DHP.pdb
     RDKit          3D

 26 27  0  0  1  0  0  0  0  0999 V2000
   26.6084  -20.6442  -19.5966 N   0  0  0  0  0  0  0  0  0  0  0  0
   25.9594  -21.4493  -18.5945 C   0  0  1  0  0  0  0  0  0  0  0  0
   26.5151  -22.8500  -18.5366 C   0  0  0  0  0  0  0  0  0  0  0  0
   26.1106  -23.5466  -19.7657 C   0  0  0  0  0  0  0  0  0  0  0  0
   24.9884  -23.2692  -20.3029 O   0  0  0  0  0  0  0  0  0  0  0  0
   26.0585  -20.8467  -17.2444 C   0  0  0  0  0  0  0  0  0  0  0  0
   27.1808  -20.4809  -16.7584 O   0  0  0  0  0  0  0  0  0  0  0  0
   26.9649  -24.4973  -20.3137 O   0  0  0  0  0  0  0  0  0  0  0  0
   24.9276  -20.6342  -16.4050 N   0  0  0  0  0  0  0  0  0  0  0  0
   25.0992  -20.0140  -15.0774 C   0  0  1  0  0  0  0  0  0  0  0  0
   24.3054  -18.7010  -15.1483 C   0  0  0  0  0  0  0  0  0  0  0  0
   22.8600  -18.9678  -15.1822 C   0  0  0  0  0  0  0  0  0  0  0  0
   22.1104  -19.4394  -16.2370 C   0  0  0  0  0  0  0  0  0  0  0  0
   20.8340  -19.5285  -15.8448 N   0  0  0  0  0  0  0  0  0  0  0  0
   20.7530  -19.1208  -14.5525 C   0  0  0  0  0  0  0  0  0  0  0  0
   22.0038  -18.7858  -14.1783 N   0  0  0  0  0  0  0  0  0  0  0  0
   24.4416  -20.8713  -14.0698 C   0  0  0  0  0  0  0  0  0  0  0  0
   23.6916  -21.8516  -14.4120 O   0  0  0  0  0  0  0  0  0  0  0  0
   24.6009  -20.6653  -12.6730 N   0  0  0  0  0  0  0  0  0  0  0  0
   25.3612  -19.6255  -12.0134 C   0  0  0  0  0  0  0  0  0  0  0  0
   25.9780  -20.3416  -10.8266 C   0  0  0  0  0  0  0  0  0  0  0  0
   25.2166  -21.6141  -10.6549 C   0  0  0  0  0  0  0  0  0  0  0  0
   24.0393  -21.4552  -11.5836 C   0  0  1  0  0  0  0  0  0  0  0  0
   22.9184  -20.7411  -10.9131 C   0  0  0  0  0  0  0  0  0  0  0  0
   22.0459  -21.3723  -10.0323 O   0  0  0  0  0  0  0  0  0  0  0  0
   22.7243  -19.5275  -11.1256 O   0  0  0  0  0  0  0  0  0  0  0  0
  2  3  1  0
  2  1  1  6
  4  3  1  0
  4  8  1  0
  5  4  2  0
  6  2  1  0
  7  6  2  0
  9  6  1  0
 10  9  1  0
 11 12  1  0
 10 11  1  6
 12 16  1  0
 13 14  1  0
 13 12  2  0
 14 15  1  0
 15 16  2  0
 17 19  1  0
 17 10  1  0
 18 17  2  0
 19 20  1  0
 20 21  1  0
 22 21  1  0
 23 22  1  0
 23 19  1  0
 23 24  1  1
 24 25  1  0
 26 24  2  0
M  END
$$$$
