DHP.pdb
     RDKit          3D

 26 27  0  0  1  0  0  0  0  0999 V2000
   16.5401  -13.6862  -17.0158 N   0  0  0  0  0  0  0  0  0  0  0  0
   17.4535  -14.2007  -16.0285 C   0  0  1  0  0  0  0  0  0  0  0  0
   17.6490  -15.6909  -16.1503 C   0  0  0  0  0  0  0  0  0  0  0  0
   16.4370  -16.3478  -15.6413 C   0  0  0  0  0  0  0  0  0  0  0  0
   15.3575  -16.2805  -16.3157 O   0  0  0  0  0  0  0  0  0  0  0  0
   18.7798  -13.5438  -16.0993 C   0  0  0  0  0  0  0  0  0  0  0  0
   19.7745  -13.9759  -15.4258 O   0  0  0  0  0  0  0  0  0  0  0  0
   16.4973  -17.0279  -14.4297 O   0  0  0  0  0  0  0  0  0  0  0  0
   19.0377  -12.4023  -16.9112 N   0  0  0  0  0  0  0  0  0  0  0  0
   20.3340  -11.7045  -16.8142 C   0  0  1  0  0  0  0  0  0  0  0  0
   20.5620  -11.0977  -18.2066 C   0  0  0  0  0  0  0  0  0  0  0  0
   20.9248  -12.1416  -19.1763 C   0  0  0  0  0  0  0  0  0  0  0  0
   20.1355  -12.6947  -20.1602 C   0  0  0  0  0  0  0  0  0  0  0  0
   20.8529  -13.6177  -20.8115 N   0  0  0  0  0  0  0  0  0  0  0  0
   22.0924  -13.6653  -20.2599 C   0  0  0  0  0  0  0  0  0  0  0  0
   22.1039  -12.7545  -19.2665 N   0  0  0  0  0  0  0  0  0  0  0  0
   20.1934  -10.5824  -15.8634 C   0  0  0  0  0  0  0  0  0  0  0  0
   19.0552  -10.0454  -15.6254 O   0  0  0  0  0  0  0  0  0  0  0  0
   21.3004  -10.0368  -15.1593 N   0  0  0  0  0  0  0  0  0  0  0  0
   22.7009  -10.3613  -15.3251 C   0  0  0  0  0  0  0  0  0  0  0  0
   23.2376  -10.3330  -13.9064 C   0  0  0  0  0  0  0  0  0  0  0  0
   22.2262   -9.6061  -13.0835 C   0  0  0  0  0  0  0  0  0  0  0  0
   21.2803   -9.0287  -14.1060 C   0  0  1  0  0  0  0  0  0  0  0  0
   21.7643   -7.7113  -14.6022 C   0  0  0  0  0  0  0  0  0  0  0  0
   21.6518   -6.5412  -13.8579 O   0  0  0  0  0  0  0  0  0  0  0  0
   22.2979   -7.6155  -15.7255 O   0  0  0  0  0  0  0  0  0  0  0  0
  2  3  1  0
  2  1  1  6
  4  3  1  0
  4  8  1  0
  5  4  2  0
  6  2  1  0
  7  6  2  0
  9  6  1  0
 10  9  1  0
 11 12  1  0
 10 11  1  6
 12 16  1  0
 13 14  1  0
 13 12  2  0
 14 15  1  0
 15 16  2  0
 17 19  1  0
 17 10  1  0
 18 17  2  0
 19 20  1  0
 20 21  1  0
 22 21  1  0
 23 22  1  0
 23 19  1  0
 23 24  1  6
 24 25  1  0
 26 24  2  0
M  END
$$$$
