DHP.pdb
     RDKit          3D

 26 27  0  0  1  0  0  0  0  0999 V2000
   38.8265   -8.4167  -14.1477 N   0  0  0  0  0  0  0  0  0  0  0  0
   38.9458   -8.6399  -12.7301 C   0  0  1  0  0  0  0  0  0  0  0  0
   40.0206   -9.6436  -12.3965 C   0  0  0  0  0  0  0  0  0  0  0  0
   39.6096  -10.9434  -12.9453 C   0  0  0  0  0  0  0  0  0  0  0  0
   38.5354  -11.0246  -13.6268 O   0  0  0  0  0  0  0  0  0  0  0  0
   39.2244   -7.3871  -11.9894 C   0  0  0  0  0  0  0  0  0  0  0  0
   40.1425   -6.5824  -12.3623 O   0  0  0  0  0  0  0  0  0  0  0  0
   40.4050  -12.0585  -12.7045 O   0  0  0  0  0  0  0  0  0  0  0  0
   38.4996   -6.9954  -10.8275 N   0  0  0  0  0  0  0  0  0  0  0  0
   38.8974   -5.7864  -10.0814 C   0  0  1  0  0  0  0  0  0  0  0  0
   37.6269   -5.3421   -9.3415 C   0  0  0  0  0  0  0  0  0  0  0  0
   37.8763   -4.1164   -8.5687 C   0  0  0  0  0  0  0  0  0  0  0  0
   37.8106   -2.8119   -9.0055 C   0  0  0  0  0  0  0  0  0  0  0  0
   38.1204   -2.0055   -7.9834 N   0  0  0  0  0  0  0  0  0  0  0  0
   38.3841   -2.7739   -6.8957 C   0  0  0  0  0  0  0  0  0  0  0  0
   38.2268   -4.0546   -7.2853 N   0  0  0  0  0  0  0  0  0  0  0  0
   39.8903   -6.1718   -9.0574 C   0  0  0  0  0  0  0  0  0  0  0  0
   39.8283   -7.3014   -8.4568 O   0  0  0  0  0  0  0  0  0  0  0  0
   40.9659   -5.3230   -8.6813 N   0  0  0  0  0  0  0  0  0  0  0  0
   41.2841   -4.0129   -9.2069 C   0  0  0  0  0  0  0  0  0  0  0  0
   42.8003   -4.0155   -9.2605 C   0  0  0  0  0  0  0  0  0  0  0  0
   43.2545   -5.1439   -8.3951 C   0  0  0  0  0  0  0  0  0  0  0  0
   41.9980   -5.5778   -7.6832 C   0  0  1  0  0  0  0  0  0  0  0  0
   41.7745   -4.7747   -6.4499 C   0  0  0  0  0  0  0  0  0  0  0  0
   40.8768   -3.7131   -6.3975 O   0  0  0  0  0  0  0  0  0  0  0  0
   42.3995   -5.0364   -5.4027 O   0  0  0  0  0  0  0  0  0  0  0  0
  2  3  1  0
  2  1  1  6
  4  3  1  0
  4  8  1  0
  5  4  2  0
  6  2  1  0
  7  6  2  0
  9  6  1  0
 10  9  1  0
 11 12  1  0
 10 11  1  1
 12 16  1  0
 13 14  1  0
 13 12  2  0
 14 15  1  0
 15 16  2  0
 17 19  1  0
 17 10  1  0
 18 17  2  0
 19 20  1  0
 20 21  1  0
 22 21  1  0
 23 22  1  0
 23 19  1  0
 23 24  1  1
 24 25  1  0
 26 24  2  0
M  END
$$$$
