DHP.pdb
     RDKit          3D

 26 27  0  0  1  0  0  0  0  0999 V2000
   15.4693  -17.6236    4.0908 N   0  0  0  0  0  0  0  0  0  0  0  0
   16.4001  -18.2836    4.9693 C   0  0  1  0  0  0  0  0  0  0  0  0
   17.1252  -19.4170    4.2886 C   0  0  0  0  0  0  0  0  0  0  0  0
   16.1306  -20.4374    3.9293 C   0  0  0  0  0  0  0  0  0  0  0  0
   16.0416  -20.8270    2.7188 O   0  0  0  0  0  0  0  0  0  0  0  0
   17.4051  -17.3462    5.5234 C   0  0  0  0  0  0  0  0  0  0  0  0
   18.4431  -17.7674    6.1357 O   0  0  0  0  0  0  0  0  0  0  0  0
   15.3056  -20.9536    4.9227 O   0  0  0  0  0  0  0  0  0  0  0  0
   17.2889  -15.9309    5.4141 N   0  0  0  0  0  0  0  0  0  0  0  0
   18.3126  -15.0569    6.0181 C   0  0  1  0  0  0  0  0  0  0  0  0
   18.0719  -13.6748    5.3928 C   0  0  0  0  0  0  0  0  0  0  0  0
   19.0811  -12.7111    5.8557 C   0  0  0  0  0  0  0  0  0  0  0  0
   18.9841  -11.8200    6.9014 C   0  0  0  0  0  0  0  0  0  0  0  0
   20.1245  -11.1234    6.9731 N   0  0  0  0  0  0  0  0  0  0  0  0
   20.9530  -11.5545    5.9880 C   0  0  0  0  0  0  0  0  0  0  0  0
   20.2880  -12.5215    5.3252 N   0  0  0  0  0  0  0  0  0  0  0  0
   18.0357  -14.9391    7.4646 C   0  0  0  0  0  0  0  0  0  0  0  0
   16.8399  -14.9740    7.9221 O   0  0  0  0  0  0  0  0  0  0  0  0
   19.0684  -14.7840    8.4281 N   0  0  0  0  0  0  0  0  0  0  0  0
   20.4765  -14.5541    8.1861 C   0  0  0  0  0  0  0  0  0  0  0  0
   21.1565  -15.3825    9.2600 C   0  0  0  0  0  0  0  0  0  0  0  0
   20.1126  -15.6960   10.2800 C   0  0  0  0  0  0  0  0  0  0  0  0
   18.9483  -14.8249    9.8807 C   0  0  1  0  0  0  0  0  0  0  0  0
   19.0650  -13.4657   10.4764 C   0  0  0  0  0  0  0  0  0  0  0  0
   18.8257  -13.2132   11.8235 O   0  0  0  0  0  0  0  0  0  0  0  0
   19.3887  -12.4906    9.7692 O   0  0  0  0  0  0  0  0  0  0  0  0
  2  3  1  0
  2  1  1  6
  4  3  1  0
  4  8  1  0
  5  4  2  0
  6  2  1  0
  7  6  2  0
  9  6  1  0
 10  9  1  0
 11 12  1  0
 10 11  1  6
 12 16  1  0
 13 14  1  0
 13 12  2  0
 14 15  1  0
 15 16  2  0
 17 19  1  0
 17 10  1  0
 18 17  2  0
 19 20  1  0
 20 21  1  0
 22 21  1  0
 23 22  1  0
 23 19  1  0
 23 24  1  1
 24 25  1  0
 26 24  2  0
M  END
$$$$
