DHP.pdb
     RDKit          3D

 26 27  0  0  1  0  0  0  0  0999 V2000
   23.4273  -15.4646  -18.1154 N   0  0  0  0  0  0  0  0  0  0  0  0
   23.6680  -16.8705  -18.3137 C   0  0  1  0  0  0  0  0  0  0  0  0
   24.4482  -17.1460  -19.5744 C   0  0  0  0  0  0  0  0  0  0  0  0
   23.7626  -16.4713  -20.6854 C   0  0  0  0  0  0  0  0  0  0  0  0
   24.4328  -15.7335  -21.4799 O   0  0  0  0  0  0  0  0  0  0  0  0
   24.3880  -17.4800  -17.1710 C   0  0  0  0  0  0  0  0  0  0  0  0
   25.6530  -17.3659  -17.0428 O   0  0  0  0  0  0  0  0  0  0  0  0
   22.3928  -16.6534  -20.8421 O   0  0  0  0  0  0  0  0  0  0  0  0
   23.7321  -18.2242  -16.1489 N   0  0  0  0  0  0  0  0  0  0  0  0
   24.5256  -18.9431  -15.1339 C   0  0  1  0  0  0  0  0  0  0  0  0
   23.4883  -19.5459  -14.1748 C   0  0  0  0  0  0  0  0  0  0  0  0
   24.1481  -20.3285  -13.1195 C   0  0  0  0  0  0  0  0  0  0  0  0
   24.4153  -21.6796  -13.1088 C   0  0  0  0  0  0  0  0  0  0  0  0
   25.0187  -21.9843  -11.9539 N   0  0  0  0  0  0  0  0  0  0  0  0
   25.1432  -20.8476  -11.2222 C   0  0  0  0  0  0  0  0  0  0  0  0
   24.6031  -19.8572  -11.9599 N   0  0  0  0  0  0  0  0  0  0  0  0
   25.2217  -20.0679  -15.7919 C   0  0  0  0  0  0  0  0  0  0  0  0
   24.7232  -20.6577  -16.8137 O   0  0  0  0  0  0  0  0  0  0  0  0
   26.4757  -20.5583  -15.3381 N   0  0  0  0  0  0  0  0  0  0  0  0
   27.2041  -20.1611  -14.1525 C   0  0  0  0  0  0  0  0  0  0  0  0
   28.6503  -20.1673  -14.6111 C   0  0  0  0  0  0  0  0  0  0  0  0
   28.6900  -20.9489  -15.8823 C   0  0  0  0  0  0  0  0  0  0  0  0
   27.3185  -21.5704  -15.9638 C   0  0  1  0  0  0  0  0  0  0  0  0
   27.2674  -22.8589  -15.2201 C   0  0  0  0  0  0  0  0  0  0  0  0
   27.8629  -24.0235  -15.6941 O   0  0  0  0  0  0  0  0  0  0  0  0
   26.6761  -22.9341  -14.1245 O   0  0  0  0  0  0  0  0  0  0  0  0
  2  3  1  0
  2  1  1  1
  4  3  1  0
  4  8  1  0
  5  4  2  0
  6  2  1  0
  7  6  2  0
  9  6  1  0
 10  9  1  0
 11 12  1  0
 10 11  1  1
 12 16  1  0
 13 14  1  0
 13 12  2  0
 14 15  1  0
 15 16  2  0
 17 19  1  0
 17 10  1  0
 18 17  2  0
 19 20  1  0
 20 21  1  0
 22 21  1  0
 23 22  1  0
 23 19  1  0
 23 24  1  1
 24 25  1  0
 26 24  2  0
M  END
$$$$
