DHP.pdb
     RDKit          3D

 26 27  0  0  1  0  0  0  0  0999 V2000
   27.6838  -21.4890  -18.7840 N   0  0  0  0  0  0  0  0  0  0  0  0
   28.8317  -21.6719  -17.9340 C   0  0  1  0  0  0  0  0  0  0  0  0
   30.0773  -21.0479  -18.5113 C   0  0  0  0  0  0  0  0  0  0  0  0
   30.1829  -21.4683  -19.9155 C   0  0  0  0  0  0  0  0  0  0  0  0
   29.1765  -21.3365  -20.6865 O   0  0  0  0  0  0  0  0  0  0  0  0
   28.6141  -21.1204  -16.5760 C   0  0  0  0  0  0  0  0  0  0  0  0
   29.5468  -21.1077  -15.7044 O   0  0  0  0  0  0  0  0  0  0  0  0
   31.3831  -22.0041  -20.3700 O   0  0  0  0  0  0  0  0  0  0  0  0
   27.3699  -20.5725  -16.1515 N   0  0  0  0  0  0  0  0  0  0  0  0
   27.1838  -20.1633  -14.7463 C   0  0  1  0  0  0  0  0  0  0  0  0
   26.8804  -18.6590  -14.8090 C   0  0  0  0  0  0  0  0  0  0  0  0
   26.5146  -18.2582  -16.1754 C   0  0  0  0  0  0  0  0  0  0  0  0
   26.5315  -19.0285  -17.3170 C   0  0  0  0  0  0  0  0  0  0  0  0
   26.1340  -18.2714  -18.3463 N   0  0  0  0  0  0  0  0  0  0  0  0
   25.8618  -17.0251  -17.8820 C   0  0  0  0  0  0  0  0  0  0  0  0
   26.1038  -17.0499  -16.5563 N   0  0  0  0  0  0  0  0  0  0  0  0
   25.9779  -20.8334  -14.2177 C   0  0  0  0  0  0  0  0  0  0  0  0
   25.2224  -21.5431  -14.9701 O   0  0  0  0  0  0  0  0  0  0  0  0
   25.5869  -20.7352  -12.8552 N   0  0  0  0  0  0  0  0  0  0  0  0
   26.1437  -19.8727  -11.8353 C   0  0  0  0  0  0  0  0  0  0  0  0
   26.1342  -20.7457  -10.5945 C   0  0  0  0  0  0  0  0  0  0  0  0
   25.2125  -21.8841  -10.8825 C   0  0  0  0  0  0  0  0  0  0  0  0
   24.5388  -21.4827  -12.1704 C   0  0  1  0  0  0  0  0  0  0  0  0
   23.3441  -20.6336  -11.9101 C   0  0  0  0  0  0  0  0  0  0  0  0
   23.3411  -19.2579  -12.1174 O   0  0  0  0  0  0  0  0  0  0  0  0
   22.2859  -21.1423  -11.4893 O   0  0  0  0  0  0  0  0  0  0  0  0
  2  3  1  0
  2  1  1  6
  4  3  1  0
  4  8  1  0
  5  4  2  0
  6  2  1  0
  7  6  2  0
  9  6  1  0
 10  9  1  0
 11 12  1  0
 10 11  1  6
 12 16  1  0
 13 14  1  0
 13 12  2  0
 14 15  1  0
 15 16  2  0
 17 19  1  0
 17 10  1  0
 18 17  2  0
 19 20  1  0
 20 21  1  0
 22 21  1  0
 23 22  1  0
 23 19  1  0
 23 24  1  1
 24 25  1  0
 26 24  2  0
M  END
$$$$
