DHP.pdb
     RDKit          3D

 26 27  0  0  1  0  0  0  0  0999 V2000
   23.2552  -20.3299  -19.4498 N   0  0  0  0  0  0  0  0  0  0  0  0
   23.7886  -19.0724  -18.9939 C   0  0  1  0  0  0  0  0  0  0  0  0
   22.9770  -17.8969  -19.4772 C   0  0  0  0  0  0  0  0  0  0  0  0
   23.2434  -17.7245  -20.9121 C   0  0  0  0  0  0  0  0  0  0  0  0
   23.9632  -18.5808  -21.5231 O   0  0  0  0  0  0  0  0  0  0  0  0
   23.8789  -19.0073  -17.5163 C   0  0  0  0  0  0  0  0  0  0  0  0
   24.3681  -17.9886  -16.9226 O   0  0  0  0  0  0  0  0  0  0  0  0
   22.7031  -16.6252  -21.5705 O   0  0  0  0  0  0  0  0  0  0  0  0
   23.4328  -20.0584  -16.6649 N   0  0  0  0  0  0  0  0  0  0  0  0
   23.4392  -19.8762  -15.2009 C   0  0  1  0  0  0  0  0  0  0  0  0
   22.0404  -20.3139  -14.7416 C   0  0  0  0  0  0  0  0  0  0  0  0
   21.0618  -19.2377  -14.9555 C   0  0  0  0  0  0  0  0  0  0  0  0
   20.6641  -18.2654  -14.0648 C   0  0  0  0  0  0  0  0  0  0  0  0
   19.7486  -17.4922  -14.6606 N   0  0  0  0  0  0  0  0  0  0  0  0
   19.5525  -17.9542  -15.9219 C   0  0  0  0  0  0  0  0  0  0  0  0
   20.3669  -19.0179  -16.0703 N   0  0  0  0  0  0  0  0  0  0  0  0
   24.4105  -20.8221  -14.6139 C   0  0  0  0  0  0  0  0  0  0  0  0
   24.5669  -22.0014  -15.0886 O   0  0  0  0  0  0  0  0  0  0  0  0
   25.2249  -20.4847  -13.4996 N   0  0  0  0  0  0  0  0  0  0  0  0
   25.2472  -19.2376  -12.7658 C   0  0  0  0  0  0  0  0  0  0  0  0
   26.7195  -19.0378  -12.4589 C   0  0  0  0  0  0  0  0  0  0  0  0
   27.3814  -20.3588  -12.6717 C   0  0  0  0  0  0  0  0  0  0  0  0
   26.2275  -21.3145  -12.8420 C   0  0  1  0  0  0  0  0  0  0  0  0
   25.7444  -21.8138  -11.5255 C   0  0  0  0  0  0  0  0  0  0  0  0
   26.4167  -22.7932  -10.8013 O   0  0  0  0  0  0  0  0  0  0  0  0
   24.6990  -21.3578  -11.0208 O   0  0  0  0  0  0  0  0  0  0  0  0
  2  3  1  0
  2  1  1  1
  4  3  1  0
  4  8  1  0
  5  4  2  0
  6  2  1  0
  7  6  2  0
  9  6  1  0
 10  9  1  0
 11 12  1  0
 10 11  1  1
 12 16  1  0
 13 14  1  0
 13 12  2  0
 14 15  1  0
 15 16  2  0
 17 19  1  0
 17 10  1  0
 18 17  2  0
 19 20  1  0
 20 21  1  0
 22 21  1  0
 23 22  1  0
 23 19  1  0
 23 24  1  1
 24 25  1  0
 26 24  2  0
M  END
$$$$
