DHP.pdb
     RDKit          3D

 26 27  0  0  1  0  0  0  0  0999 V2000
   21.5487   -9.5400  -16.9998 N   0  0  0  0  0  0  0  0  0  0  0  0
   20.1439   -9.2318  -17.0720 C   0  0  1  0  0  0  0  0  0  0  0  0
   19.2867  -10.3239  -16.4833 C   0  0  0  0  0  0  0  0  0  0  0  0
   19.5307  -11.5524  -17.2520 C   0  0  0  0  0  0  0  0  0  0  0  0
   20.1483  -11.4830  -18.3648 O   0  0  0  0  0  0  0  0  0  0  0  0
   19.8165   -7.9570  -16.3914 C   0  0  0  0  0  0  0  0  0  0  0  0
   18.6154   -7.5311  -16.3156 O   0  0  0  0  0  0  0  0  0  0  0  0
   19.0776  -12.7656  -16.7452 O   0  0  0  0  0  0  0  0  0  0  0  0
   20.8012   -7.1282  -15.7813 N   0  0  0  0  0  0  0  0  0  0  0  0
   20.3958   -5.9025  -15.0673 C   0  0  1  0  0  0  0  0  0  0  0  0
   20.9262   -6.0837  -13.6373 C   0  0  0  0  0  0  0  0  0  0  0  0
   20.0584   -6.9900  -12.8711 C   0  0  0  0  0  0  0  0  0  0  0  0
   20.3484   -8.2575  -12.4171 C   0  0  0  0  0  0  0  0  0  0  0  0
   19.2762   -8.7339  -11.7734 N   0  0  0  0  0  0  0  0  0  0  0  0
   18.3012   -7.7899  -11.8074 C   0  0  0  0  0  0  0  0  0  0  0  0
   18.8090   -6.7401  -12.4832 N   0  0  0  0  0  0  0  0  0  0  0  0
   21.1127   -4.7547  -15.6599 C   0  0  0  0  0  0  0  0  0  0  0  0
   22.2855   -4.8832  -16.1586 O   0  0  0  0  0  0  0  0  0  0  0  0
   20.5504   -3.4510  -15.7153 N   0  0  0  0  0  0  0  0  0  0  0  0
   19.2798   -3.0124  -15.1792 C   0  0  0  0  0  0  0  0  0  0  0  0
   18.7725   -2.0420  -16.2294 C   0  0  0  0  0  0  0  0  0  0  0  0
   19.9466   -1.6819  -17.0781 C   0  0  0  0  0  0  0  0  0  0  0  0
   21.1212   -2.2571  -16.3276 C   0  0  1  0  0  0  0  0  0  0  0  0
   21.6220   -1.3032  -15.3005 C   0  0  0  0  0  0  0  0  0  0  0  0
   22.4871   -0.2572  -15.6056 O   0  0  0  0  0  0  0  0  0  0  0  0
   21.2722   -1.4156  -14.1086 O   0  0  0  0  0  0  0  0  0  0  0  0
  2  3  1  0
  2  1  1  1
  4  3  1  0
  4  8  1  0
  5  4  2  0
  6  2  1  0
  7  6  2  0
  9  6  1  0
 10  9  1  0
 11 12  1  0
 10 11  1  1
 12 16  1  0
 13 14  1  0
 13 12  2  0
 14 15  1  0
 15 16  2  0
 17 19  1  0
 17 10  1  0
 18 17  2  0
 19 20  1  0
 20 21  1  0
 22 21  1  0
 23 22  1  0
 23 19  1  0
 23 24  1  1
 24 25  1  0
 26 24  2  0
M  END
$$$$
