DHP.pdb
     RDKit          3D

 26 27  0  0  1  0  0  0  0  0999 V2000
   27.3064  -35.4201   -3.6819 N   0  0  0  0  0  0  0  0  0  0  0  0
   28.4334  -35.2230   -2.8074 C   0  0  1  0  0  0  0  0  0  0  0  0
   29.3958  -34.1899   -3.3370 C   0  0  0  0  0  0  0  0  0  0  0  0
   30.0252  -34.7381   -4.5465 C   0  0  0  0  0  0  0  0  0  0  0  0
   30.5815  -35.8840   -4.4990 O   0  0  0  0  0  0  0  0  0  0  0  0
   28.0175  -34.8240   -1.4423 C   0  0  0  0  0  0  0  0  0  0  0  0
   27.0890  -33.9689   -1.2517 O   0  0  0  0  0  0  0  0  0  0  0  0
   30.0004  -33.9889   -5.7178 O   0  0  0  0  0  0  0  0  0  0  0  0
   28.6125  -35.3572   -0.2632 N   0  0  0  0  0  0  0  0  0  0  0  0
   28.1179  -34.9460    1.0646 C   0  0  1  0  0  0  0  0  0  0  0  0
   27.5744  -36.2340    1.7007 C   0  0  0  0  0  0  0  0  0  0  0  0
   26.2232  -36.5305    1.2028 C   0  0  0  0  0  0  0  0  0  0  0  0
   25.0439  -35.8958    1.5246 C   0  0  0  0  0  0  0  0  0  0  0  0
   24.0470  -36.4869    0.8556 N   0  0  0  0  0  0  0  0  0  0  0  0
   24.5693  -37.4926    0.1082 C   0  0  0  0  0  0  0  0  0  0  0  0
   25.8967  -37.4930    0.3421 N   0  0  0  0  0  0  0  0  0  0  0  0
   29.2692  -34.5055    1.8789 C   0  0  0  0  0  0  0  0  0  0  0  0
   30.4728  -34.7893    1.5451 O   0  0  0  0  0  0  0  0  0  0  0  0
   29.1144  -33.7453    3.0693 N   0  0  0  0  0  0  0  0  0  0  0  0
   27.8795  -33.3479    3.7105 C   0  0  0  0  0  0  0  0  0  0  0  0
   28.1766  -31.9444    4.2041 C   0  0  0  0  0  0  0  0  0  0  0  0
   29.6612  -31.7897    4.1777 C   0  0  0  0  0  0  0  0  0  0  0  0
   30.1625  -33.1875    3.9158 C   0  0  1  0  0  0  0  0  0  0  0  0
   30.3051  -33.9537    5.1840 C   0  0  0  0  0  0  0  0  0  0  0  0
   31.3781  -33.7763    6.0518 O   0  0  0  0  0  0  0  0  0  0  0  0
   29.4469  -34.7963    5.5142 O   0  0  0  0  0  0  0  0  0  0  0  0
  2  3  1  0
  2  1  1  6
  4  3  1  0
  4  8  1  0
  5  4  2  0
  6  2  1  0
  7  6  2  0
  9  6  1  0
 10  9  1  0
 11 12  1  0
 10 11  1  1
 12 16  1  0
 13 14  1  0
 13 12  2  0
 14 15  1  0
 15 16  2  0
 17 19  1  0
 17 10  1  0
 18 17  2  0
 19 20  1  0
 20 21  1  0
 22 21  1  0
 23 22  1  0
 23 19  1  0
 23 24  1  1
 24 25  1  0
 26 24  2  0
M  END
$$$$
