DHP.pdb
     RDKit          3D

 26 27  0  0  1  0  0  0  0  0999 V2000
   20.7754  -16.6355  -16.6137 N   0  0  0  0  0  0  0  0  0  0  0  0
   20.4588  -15.2974  -17.0414 C   0  0  1  0  0  0  0  0  0  0  0  0
   18.9779  -15.0166  -16.9958 C   0  0  0  0  0  0  0  0  0  0  0  0
   18.3248  -15.8781  -17.9913 C   0  0  0  0  0  0  0  0  0  0  0  0
   17.8528  -17.0059  -17.6308 O   0  0  0  0  0  0  0  0  0  0  0  0
   21.1580  -14.2725  -16.2313 C   0  0  0  0  0  0  0  0  0  0  0  0
   21.1235  -14.2936  -14.9554 O   0  0  0  0  0  0  0  0  0  0  0  0
   18.2396  -15.4407  -19.3087 O   0  0  0  0  0  0  0  0  0  0  0  0
   21.9082  -13.2075  -16.8074 N   0  0  0  0  0  0  0  0  0  0  0  0
   22.5403  -12.1955  -15.9398 C   0  0  1  0  0  0  0  0  0  0  0  0
   23.9731  -12.0547  -16.4751 C   0  0  0  0  0  0  0  0  0  0  0  0
   24.7607  -13.2600  -16.1779 C   0  0  0  0  0  0  0  0  0  0  0  0
   25.3896  -13.5910  -14.9981 C   0  0  0  0  0  0  0  0  0  0  0  0
   26.0023  -14.7698  -15.1595 N   0  0  0  0  0  0  0  0  0  0  0  0
   25.7757  -15.2009  -16.4267 C   0  0  0  0  0  0  0  0  0  0  0  0
   25.0166  -14.2589  -17.0209 N   0  0  0  0  0  0  0  0  0  0  0  0
   21.8612  -10.9013  -16.1558 C   0  0  0  0  0  0  0  0  0  0  0  0
   21.2243  -10.6522  -17.2387 O   0  0  0  0  0  0  0  0  0  0  0  0
   21.8703   -9.8644  -15.1843 N   0  0  0  0  0  0  0  0  0  0  0  0
   22.5616   -9.8495  -13.9131 C   0  0  0  0  0  0  0  0  0  0  0  0
   21.5790   -9.1565  -12.9879 C   0  0  0  0  0  0  0  0  0  0  0  0
   20.5850   -8.4670  -13.8625 C   0  0  0  0  0  0  0  0  0  0  0  0
   21.1827   -8.5799  -15.2424 C   0  0  1  0  0  0  0  0  0  0  0  0
   22.1315   -7.4646  -15.5098 C   0  0  0  0  0  0  0  0  0  0  0  0
   23.5074   -7.6532  -15.5941 O   0  0  0  0  0  0  0  0  0  0  0  0
   21.7114   -6.3013  -15.6707 O   0  0  0  0  0  0  0  0  0  0  0  0
  2  3  1  0
  2  1  1  1
  4  3  1  0
  4  8  1  0
  5  4  2  0
  6  2  1  0
  7  6  2  0
  9  6  1  0
 10  9  1  0
 11 12  1  0
 10 11  1  6
 12 16  1  0
 13 14  1  0
 13 12  2  0
 14 15  1  0
 15 16  2  0
 17 19  1  0
 17 10  1  0
 18 17  2  0
 19 20  1  0
 20 21  1  0
 22 21  1  0
 23 22  1  0
 23 19  1  0
 23 24  1  1
 24 25  1  0
 26 24  2  0
M  END
$$$$
