HQT.pdb
     RDKit          3D

 27 27  0  0  1  0  0  0  0  0999 V2000
   13.9061  -15.5902   16.9691 N   0  0  0  0  0  0  0  0  0  0  0  0
   14.1351  -15.4402   18.3973 C   0  0  1  0  0  0  0  0  0  0  0  0
   14.5153  -13.9918   18.6255 C   0  0  0  0  0  0  0  0  0  0  0  0
   15.8713  -13.6966   18.0948 C   0  0  0  0  0  0  0  0  0  0  0  0
   17.0980  -13.9898   18.6470 C   0  0  0  0  0  0  0  0  0  0  0  0
   18.0985  -13.5582   17.8623 N   0  0  0  0  0  0  0  0  0  0  0  0
   17.5117  -12.9843   16.7995 C   0  0  0  0  0  0  0  0  0  0  0  0
   16.1622  -13.0588   16.9233 N   0  0  0  0  0  0  0  0  0  0  0  0
   12.9085  -15.8149   19.1311 C   0  0  0  0  0  0  0  0  0  0  0  0
   11.8462  -16.0644   18.5060 O   0  0  0  0  0  0  0  0  0  0  0  0
   12.0361  -21.4319   19.7963 N   0  0  0  0  0  0  0  0  0  0  0  0
   12.6726  -20.8196   20.9433 C   0  0  0  0  0  0  0  0  0  0  0  0
   13.5859  -21.4764   21.4633 O   0  0  0  0  0  0  0  0  0  0  0  0
   12.1705  -19.5090   21.3520 C   0  0  0  0  0  0  0  0  0  0  0  0
   12.8660  -18.3483   20.7388 C   0  0  0  0  0  0  0  0  0  0  0  0
   12.2917  -17.0570   21.2189 C   0  0  2  0  0  0  0  0  0  0  0  0
   12.8790  -15.9069   20.5480 N   0  0  0  0  0  0  0  0  0  0  0  0
   12.4000  -16.9103   22.6991 C   0  0  0  0  0  0  0  0  0  0  0  0
   12.9217  -15.8572   23.1353 O   0  0  0  0  0  0  0  0  0  0  0  0
   10.3661  -15.4530   23.6928 C   0  0  0  0  0  0  0  0  0  0  0  0
   10.0620  -16.6558   24.5569 C   0  0  1  0  0  0  0  0  0  0  0  0
    9.1217  -17.4691   23.9006 O   0  0  0  0  0  0  0  0  0  0  0  0
   11.3305  -17.4515   24.8462 C   0  0  2  0  0  0  0  0  0  0  0  0
   11.9529  -17.8794   23.6068 N   0  0  0  0  0  0  0  0  0  0  0  0
   10.9978  -18.6176   25.7051 C   0  0  0  0  0  0  0  0  0  0  0  0
   10.8887  -19.7673   25.2121 O   0  0  0  0  0  0  0  0  0  0  0  0
   10.7921  -18.4999   27.0831 O   0  0  0  0  0  0  0  0  0  0  0  0
  2  1  1  6
  2  3  1  0
  3  4  1  0
  4  8  1  0
  5  4  2  0
  5  6  1  0
  6  7  1  0
  8  7  2  0
  9 10  2  0
  9  2  1  0
 11 12  1  0
 12 13  2  0
 12 14  1  0
 14 15  1  0
 16 15  1  6
 16 17  1  0
 17  9  1  0
 18 24  1  0
 18 16  1  0
 19 18  2  0
 21 20  1  6
 21 22  1  0
 21 23  1  0
 23 24  1  6
 23 25  1  0
 25 27  1  0
 26 25  2  0
M  END
$$$$
