HQT.pdb
     RDKit          3D

 27 27  0  0  1  0  0  0  0  0999 V2000
    7.5253  -17.2971   19.9120 N   0  0  0  0  0  0  0  0  0  0  0  0
    8.0754  -16.1083   20.5434 C   0  0  1  0  0  0  0  0  0  0  0  0
    7.3159  -14.9262   19.9775 C   0  0  0  0  0  0  0  0  0  0  0  0
    7.8904  -14.4824   18.6811 C   0  0  0  0  0  0  0  0  0  0  0  0
    8.9647  -14.9969   17.9908 C   0  0  0  0  0  0  0  0  0  0  0  0
    9.1775  -14.3203   16.8506 N   0  0  0  0  0  0  0  0  0  0  0  0
    8.2344  -13.3653   16.8076 C   0  0  0  0  0  0  0  0  0  0  0  0
    7.4453  -13.4483   17.9088 N   0  0  0  0  0  0  0  0  0  0  0  0
    7.9213  -16.2175   22.0090 C   0  0  0  0  0  0  0  0  0  0  0  0
    6.7755  -16.2677   22.5247 O   0  0  0  0  0  0  0  0  0  0  0  0
   11.8651  -18.6626   26.3127 N   0  0  0  0  0  0  0  0  0  0  0  0
   10.8418  -18.0340   27.1210 C   0  0  0  0  0  0  0  0  0  0  0  0
   10.9945  -18.1286   28.3472 O   0  0  0  0  0  0  0  0  0  0  0  0
    9.7568  -17.3655   26.4050 C   0  0  0  0  0  0  0  0  0  0  0  0
    9.9690  -17.2087   24.9430 C   0  0  0  0  0  0  0  0  0  0  0  0
    8.8741  -16.4086   24.3193 C   0  0  2  0  0  0  0  0  0  0  0  0
    9.0414  -16.2693   22.8805 N   0  0  0  0  0  0  0  0  0  0  0  0
    8.7217  -15.0705   24.9599 C   0  0  0  0  0  0  0  0  0  0  0  0
    9.4788  -14.1538   24.5624 O   0  0  0  0  0  0  0  0  0  0  0  0
    6.0181  -11.6809   27.1709 C   0  0  0  0  0  0  0  0  0  0  0  0
    6.1773  -13.1026   26.6820 C   0  0  1  0  0  0  0  0  0  0  0  0
    5.4523  -13.2638   25.4884 O   0  0  0  0  0  0  0  0  0  0  0  0
    7.6474  -13.4360   26.4502 C   0  0  2  0  0  0  0  0  0  0  0  0
    7.7873  -14.7976   25.9675 N   0  0  0  0  0  0  0  0  0  0  0  0
    8.4045  -13.2386   27.7135 C   0  0  0  0  0  0  0  0  0  0  0  0
    8.9073  -14.2166   28.3199 O   0  0  0  0  0  0  0  0  0  0  0  0
    8.5945  -11.9767   28.2850 O   0  0  0  0  0  0  0  0  0  0  0  0
  2  1  1  6
  2  3  1  0
  3  4  1  0
  4  8  1  0
  5  4  2  0
  5  6  1  0
  6  7  1  0
  8  7  2  0
  9 10  2  0
  9  2  1  0
 11 12  1  0
 12 13  2  0
 12 14  1  0
 14 15  1  0
 16 15  1  1
 16 17  1  0
 17  9  1  0
 18 24  1  0
 18 16  1  0
 19 18  2  0
 21 20  1  6
 21 22  1  0
 21 23  1  0
 23 24  1  1
 23 25  1  0
 25 27  1  0
 26 25  2  0
M  END
$$$$
