HQT.pdb
     RDKit          3D

 27 27  0  0  1  0  0  0  0  0999 V2000
    7.4063  -17.0926   19.4756 N   0  0  0  0  0  0  0  0  0  0  0  0
    8.0715  -15.9560   20.0922 C   0  0  1  0  0  0  0  0  0  0  0  0
    7.3855  -14.7132   19.5637 C   0  0  0  0  0  0  0  0  0  0  0  0
    7.8313  -14.3928   18.1829 C   0  0  0  0  0  0  0  0  0  0  0  0
    8.6911  -15.0944   17.3680 C   0  0  0  0  0  0  0  0  0  0  0  0
    8.8464  -14.4802   16.1841 N   0  0  0  0  0  0  0  0  0  0  0  0
    8.0820  -13.3774   16.2382 C   0  0  0  0  0  0  0  0  0  0  0  0
    7.4594  -13.3081   17.4422 N   0  0  0  0  0  0  0  0  0  0  0  0
    7.9662  -16.0661   21.5620 C   0  0  0  0  0  0  0  0  0  0  0  0
    6.8408  -16.1854   22.1104 O   0  0  0  0  0  0  0  0  0  0  0  0
   11.9789  -18.7987   25.4857 N   0  0  0  0  0  0  0  0  0  0  0  0
   10.9442  -18.3173   26.3763 C   0  0  0  0  0  0  0  0  0  0  0  0
   11.0390  -18.6853   27.5560 O   0  0  0  0  0  0  0  0  0  0  0  0
    9.9168  -17.4600   25.7880 C   0  0  0  0  0  0  0  0  0  0  0  0
   10.1010  -17.1542   24.3459 C   0  0  0  0  0  0  0  0  0  0  0  0
    9.0048  -16.2807   23.8329 C   0  0  2  0  0  0  0  0  0  0  0  0
    9.1115  -16.0423   22.4014 N   0  0  0  0  0  0  0  0  0  0  0  0
    8.9236  -14.9886   24.5734 C   0  0  0  0  0  0  0  0  0  0  0  0
    9.6716  -14.0588   24.1899 O   0  0  0  0  0  0  0  0  0  0  0  0
    6.2270  -12.4953   24.8412 C   0  0  0  0  0  0  0  0  0  0  0  0
    6.6141  -12.8944   26.2471 C   0  0  1  0  0  0  0  0  0  0  0  0
    5.7001  -13.8507   26.7232 O   0  0  0  0  0  0  0  0  0  0  0  0
    8.0295  -13.4614   26.2807 C   0  0  2  0  0  0  0  0  0  0  0  0
    8.0641  -14.7722   25.6585 N   0  0  0  0  0  0  0  0  0  0  0  0
    8.5027  -13.5272   27.6877 C   0  0  0  0  0  0  0  0  0  0  0  0
    8.8229  -14.6251   28.2064 O   0  0  0  0  0  0  0  0  0  0  0  0
    8.6151  -12.3914   28.4954 O   0  0  0  0  0  0  0  0  0  0  0  0
  2  1  1  6
  2  3  1  0
  3  4  1  0
  4  8  1  0
  5  4  2  0
  5  6  1  0
  6  7  1  0
  8  7  2  0
  9 10  2  0
  9  2  1  0
 11 12  1  0
 12 13  2  0
 12 14  1  0
 14 15  1  0
 16 15  1  1
 16 17  1  0
 17  9  1  0
 18 24  1  0
 18 16  1  0
 19 18  2  0
 21 20  1  6
 21 22  1  0
 21 23  1  0
 23 24  1  1
 23 25  1  0
 25 27  1  0
 26 25  2  0
M  END
$$$$
