HQT.pdb
     RDKit          3D

 27 27  0  0  1  0  0  0  0  0999 V2000
    8.6875  -17.1242   18.7055 N   0  0  0  0  0  0  0  0  0  0  0  0
    9.0831  -16.4368   19.9243 C   0  0  1  0  0  0  0  0  0  0  0  0
    7.9069  -15.5767   20.3382 C   0  0  0  0  0  0  0  0  0  0  0  0
    7.9308  -14.2586   19.6527 C   0  0  0  0  0  0  0  0  0  0  0  0
    8.8680  -13.7565   18.7780 C   0  0  0  0  0  0  0  0  0  0  0  0
    8.5369  -12.5210   18.3695 N   0  0  0  0  0  0  0  0  0  0  0  0
    7.3802  -12.2270   18.9851 C   0  0  0  0  0  0  0  0  0  0  0  0
    6.9978  -13.2685   19.7668 N   0  0  0  0  0  0  0  0  0  0  0  0
    9.4321  -17.4345   20.9570 C   0  0  0  0  0  0  0  0  0  0  0  0
    9.0201  -18.6187   20.8603 O   0  0  0  0  0  0  0  0  0  0  0  0
   13.2916  -20.9739   21.3654 N   0  0  0  0  0  0  0  0  0  0  0  0
   13.6472  -19.5780   21.2221 C   0  0  0  0  0  0  0  0  0  0  0  0
   14.7165  -19.3550   20.6365 O   0  0  0  0  0  0  0  0  0  0  0  0
   12.7129  -18.6010   21.7781 C   0  0  0  0  0  0  0  0  0  0  0  0
   11.4939  -19.1781   22.4009 C   0  0  0  0  0  0  0  0  0  0  0  0
   10.6556  -18.1183   23.0349 C   0  0  2  0  0  0  0  0  0  0  0  0
   10.2334  -17.1030   22.0817 N   0  0  0  0  0  0  0  0  0  0  0  0
   11.3361  -17.4882   24.2028 C   0  0  0  0  0  0  0  0  0  0  0  0
   12.0523  -16.4844   23.9774 O   0  0  0  0  0  0  0  0  0  0  0  0
    8.5245  -16.1494   27.3844 C   0  0  0  0  0  0  0  0  0  0  0  0
    9.2937  -16.5887   26.1593 C   0  0  1  0  0  0  0  0  0  0  0  0
    9.3838  -15.5114   25.2605 O   0  0  0  0  0  0  0  0  0  0  0  0
   10.6896  -17.0719   26.5385 C   0  0  2  0  0  0  0  0  0  0  0  0
   11.2126  -17.9597   25.5163 N   0  0  0  0  0  0  0  0  0  0  0  0
   10.6358  -17.7527   27.8582 C   0  0  0  0  0  0  0  0  0  0  0  0
   10.2543  -18.9456   27.9499 O   0  0  0  0  0  0  0  0  0  0  0  0
   11.0003  -17.1139   29.0474 O   0  0  0  0  0  0  0  0  0  0  0  0
  2  1  1  6
  2  3  1  0
  3  4  1  0
  4  8  1  0
  5  4  2  0
  5  6  1  0
  6  7  1  0
  8  7  2  0
  9 10  2  0
  9  2  1  0
 11 12  1  0
 12 13  2  0
 12 14  1  0
 14 15  1  0
 16 15  1  6
 16 17  1  0
 17  9  1  0
 18 24  1  0
 18 16  1  0
 19 18  2  0
 21 20  1  1
 21 22  1  0
 21 23  1  0
 23 24  1  6
 23 25  1  0
 25 27  1  0
 26 25  2  0
M  END
$$$$
