HQT.pdb
     RDKit          3D

 27 27  0  0  1  0  0  0  0  0999 V2000
   11.1239  -15.5621   17.8723 N   0  0  0  0  0  0  0  0  0  0  0  0
   11.6106  -15.5928   19.2423 C   0  0  1  0  0  0  0  0  0  0  0  0
   12.3328  -14.2819   19.4752 C   0  0  0  0  0  0  0  0  0  0  0  0
   13.7388  -14.3448   18.9986 C   0  0  0  0  0  0  0  0  0  0  0  0
   14.4220  -15.4126   18.4614 C   0  0  0  0  0  0  0  0  0  0  0  0
   15.6836  -15.0740   18.1504 N   0  0  0  0  0  0  0  0  0  0  0  0
   15.8122  -13.7810   18.4896 C   0  0  0  0  0  0  0  0  0  0  0  0
   14.6435  -13.3225   19.0053 N   0  0  0  0  0  0  0  0  0  0  0  0
   10.4683  -15.7689   20.1630 C   0  0  0  0  0  0  0  0  0  0  0  0
    9.3535  -15.2509   19.8977 O   0  0  0  0  0  0  0  0  0  0  0  0
    6.6213  -18.9202   22.0165 N   0  0  0  0  0  0  0  0  0  0  0  0
    7.5160  -19.2927   20.9411 C   0  0  0  0  0  0  0  0  0  0  0  0
    6.9772  -19.8030   19.9485 O   0  0  0  0  0  0  0  0  0  0  0  0
    8.9383  -19.0258   21.1469 C   0  0  0  0  0  0  0  0  0  0  0  0
    9.2692  -18.3060   22.4036 C   0  0  0  0  0  0  0  0  0  0  0  0
    9.4094  -16.8389   22.1670 C   0  0  2  0  0  0  0  0  0  0  0  0
   10.5802  -16.5174   21.3647 N   0  0  0  0  0  0  0  0  0  0  0  0
    9.4196  -16.0634   23.4408 C   0  0  0  0  0  0  0  0  0  0  0  0
   10.5364  -15.8144   23.9528 O   0  0  0  0  0  0  0  0  0  0  0  0
    7.2441  -12.8568   24.6604 C   0  0  0  0  0  0  0  0  0  0  0  0
    7.1918  -14.0311   25.6112 C   0  0  1  0  0  0  0  0  0  0  0  0
    5.9802  -14.7200   25.4270 O   0  0  0  0  0  0  0  0  0  0  0  0
    8.3693  -14.9719   25.3779 C   0  0  2  0  0  0  0  0  0  0  0  0
    8.2578  -15.6092   24.0787 N   0  0  0  0  0  0  0  0  0  0  0  0
    8.4168  -15.9839   26.4650 C   0  0  0  0  0  0  0  0  0  0  0  0
    8.2995  -17.2075   26.2083 O   0  0  0  0  0  0  0  0  0  0  0  0
    8.5914  -15.6350   27.8077 O   0  0  0  0  0  0  0  0  0  0  0  0
  2  1  1  6
  2  3  1  0
  3  4  1  0
  4  8  1  0
  5  4  2  0
  5  6  1  0
  6  7  1  0
  8  7  2  0
  9 10  2  0
  9  2  1  0
 11 12  1  0
 12 13  2  0
 12 14  1  0
 14 15  1  0
 16 15  1  1
 16 17  1  0
 17  9  1  0
 18 24  1  0
 18 16  1  0
 19 18  2  0
 21 20  1  6
 21 22  1  0
 21 23  1  0
 23 24  1  6
 23 25  1  0
 25 27  1  0
 26 25  2  0
M  END
$$$$
