HQT.pdb
     RDKit          3D

 27 27  0  0  1  0  0  0  0  0999 V2000
    8.5361  -17.3305   20.0845 N   0  0  0  0  0  0  0  0  0  0  0  0
    9.0076  -16.2685   20.9588 C   0  0  1  0  0  0  0  0  0  0  0  0
    7.9328  -15.2011   20.9629 C   0  0  0  0  0  0  0  0  0  0  0  0
    7.9662  -14.3927   19.7166 C   0  0  0  0  0  0  0  0  0  0  0  0
    8.8029  -14.5144   18.6300 C   0  0  0  0  0  0  0  0  0  0  0  0
    8.5206  -13.5927   17.6952 N   0  0  0  0  0  0  0  0  0  0  0  0
    7.4966  -12.8743   18.1837 C   0  0  0  0  0  0  0  0  0  0  0  0
    7.1473  -13.3449   19.4078 N   0  0  0  0  0  0  0  0  0  0  0  0
    9.2496  -16.8182   22.3090 C   0  0  0  0  0  0  0  0  0  0  0  0
    8.3349  -17.4287   22.9190 O   0  0  0  0  0  0  0  0  0  0  0  0
   13.5627  -20.2648   24.0162 N   0  0  0  0  0  0  0  0  0  0  0  0
   12.7702  -20.2394   25.2274 C   0  0  0  0  0  0  0  0  0  0  0  0
   12.9125  -21.2128   25.9812 O   0  0  0  0  0  0  0  0  0  0  0  0
   11.9024  -19.0792   25.4210 C   0  0  0  0  0  0  0  0  0  0  0  0
   11.9837  -18.0465   24.3563 C   0  0  0  0  0  0  0  0  0  0  0  0
   10.7300  -17.2395   24.2871 C   0  0  2  0  0  0  0  0  0  0  0  0
   10.5033  -16.6821   22.9621 N   0  0  0  0  0  0  0  0  0  0  0  0
   10.6972  -16.1637   25.3194 C   0  0  0  0  0  0  0  0  0  0  0  0
   11.1448  -15.0395   24.9919 O   0  0  0  0  0  0  0  0  0  0  0  0
    8.7535  -13.3956   28.4793 C   0  0  0  0  0  0  0  0  0  0  0  0
    8.7988  -14.5592   27.5151 C   0  0  1  0  0  0  0  0  0  0  0  0
    8.5007  -14.0976   26.2210 O   0  0  0  0  0  0  0  0  0  0  0  0
   10.1712  -15.2242   27.5302 C   0  0  2  0  0  0  0  0  0  0  0  0
   10.1976  -16.3504   26.6150 N   0  0  0  0  0  0  0  0  0  0  0  0
   10.4967  -15.6554   28.9145 C   0  0  0  0  0  0  0  0  0  0  0  0
   10.4030  -16.8620   29.2495 O   0  0  0  0  0  0  0  0  0  0  0  0
   10.9171  -14.7576   29.9006 O   0  0  0  0  0  0  0  0  0  0  0  0
  2  1  1  6
  2  3  1  0
  3  4  1  0
  4  8  1  0
  5  4  2  0
  5  6  1  0
  6  7  1  0
  8  7  2  0
  9 10  2  0
  9  2  1  0
 11 12  1  0
 12 13  2  0
 12 14  1  0
 14 15  1  0
 16 15  1  6
 16 17  1  0
 17  9  1  0
 18 24  1  0
 18 16  1  0
 19 18  2  0
 21 20  1  1
 21 22  1  0
 21 23  1  0
 23 24  1  6
 23 25  1  0
 25 27  1  0
 26 25  2  0
M  END
$$$$
