HQT.pdb
     RDKit          3D

 27 27  0  0  1  0  0  0  0  0999 V2000
    9.7038  -15.4179   19.9651 N   0  0  0  0  0  0  0  0  0  0  0  0
    8.4854  -14.7965   20.4588 C   0  0  1  0  0  0  0  0  0  0  0  0
    7.3818  -15.1798   19.4946 C   0  0  0  0  0  0  0  0  0  0  0  0
    7.6144  -14.6013   18.1459 C   0  0  0  0  0  0  0  0  0  0  0  0
    8.6767  -13.8469   17.7009 C   0  0  0  0  0  0  0  0  0  0  0  0
    8.5236  -13.5078   16.4107 N   0  0  0  0  0  0  0  0  0  0  0  0
    7.3563  -14.0474   16.0240 C   0  0  0  0  0  0  0  0  0  0  0  0
    6.7913  -14.7138   17.0626 N   0  0  0  0  0  0  0  0  0  0  0  0
    8.2147  -15.2736   21.8309 C   0  0  0  0  0  0  0  0  0  0  0  0
    7.0760  -15.1216   22.3426 O   0  0  0  0  0  0  0  0  0  0  0  0
   11.4688  -19.2783   25.6023 N   0  0  0  0  0  0  0  0  0  0  0  0
   10.5336  -18.6427   26.5062 C   0  0  0  0  0  0  0  0  0  0  0  0
   10.5590  -19.0498   27.6765 O   0  0  0  0  0  0  0  0  0  0  0  0
    9.6758  -17.6030   25.9406 C   0  0  0  0  0  0  0  0  0  0  0  0
    9.9068  -17.3083   24.5030 C   0  0  0  0  0  0  0  0  0  0  0  0
    8.9741  -16.2526   24.0097 C   0  0  2  0  0  0  0  0  0  0  0  0
    9.2118  -15.9123   22.6149 N   0  0  0  0  0  0  0  0  0  0  0  0
    9.0120  -15.0280   24.8602 C   0  0  0  0  0  0  0  0  0  0  0  0
   10.0256  -14.2963   24.7688 O   0  0  0  0  0  0  0  0  0  0  0  0
    6.6764  -12.0358   24.9579 C   0  0  0  0  0  0  0  0  0  0  0  0
    6.8102  -12.6103   26.3500 C   0  0  1  0  0  0  0  0  0  0  0  0
    5.6955  -13.4223   26.6229 O   0  0  0  0  0  0  0  0  0  0  0  0
    8.0941  -13.4229   26.4813 C   0  0  2  0  0  0  0  0  0  0  0  0
    7.9838  -14.6661   25.7404 N   0  0  0  0  0  0  0  0  0  0  0  0
    8.3707  -13.6822   27.9181 C   0  0  0  0  0  0  0  0  0  0  0  0
    8.3684  -14.8534   28.3709 O   0  0  0  0  0  0  0  0  0  0  0  0
    8.6434  -12.6551   28.8268 O   0  0  0  0  0  0  0  0  0  0  0  0
  2  1  1  6
  2  3  1  0
  3  4  1  0
  4  8  1  0
  5  4  2  0
  5  6  1  0
  6  7  1  0
  8  7  2  0
  9 10  2  0
  9  2  1  0
 11 12  1  0
 12 13  2  0
 12 14  1  0
 14 15  1  0
 16 15  1  1
 16 17  1  0
 17  9  1  0
 18 24  1  0
 18 16  1  0
 19 18  2  0
 21 20  1  6
 21 22  1  0
 21 23  1  0
 23 24  1  6
 23 25  1  0
 25 27  1  0
 26 25  2  0
M  END
$$$$
