HQT.pdb
     RDKit          3D

 27 27  0  0  1  0  0  0  0  0999 V2000
    8.3131  -17.4539   19.1168 N   0  0  0  0  0  0  0  0  0  0  0  0
    8.9121  -16.6651   20.1814 C   0  0  1  0  0  0  0  0  0  0  0  0
    7.8490  -15.6942   20.6521 C   0  0  0  0  0  0  0  0  0  0  0  0
    7.9554  -14.3899   19.9483 C   0  0  0  0  0  0  0  0  0  0  0  0
    8.8085  -14.0238   18.9316 C   0  0  0  0  0  0  0  0  0  0  0  0
    8.5989  -12.7514   18.5574 N   0  0  0  0  0  0  0  0  0  0  0  0
    7.6052  -12.2968   19.3380 C   0  0  0  0  0  0  0  0  0  0  0  0
    7.2028  -13.2761   20.1871 N   0  0  0  0  0  0  0  0  0  0  0  0
    9.3606  -17.5654   21.2639 C   0  0  0  0  0  0  0  0  0  0  0  0
    8.7354  -18.6298   21.5040 O   0  0  0  0  0  0  0  0  0  0  0  0
   15.0403  -19.0902   22.7885 N   0  0  0  0  0  0  0  0  0  0  0  0
   14.1474  -19.6514   21.7969 C   0  0  0  0  0  0  0  0  0  0  0  0
   14.6806  -20.3774   20.9456 O   0  0  0  0  0  0  0  0  0  0  0  0
   12.7328  -19.3017   21.9129 C   0  0  0  0  0  0  0  0  0  0  0  0
   12.3879  -18.4492   23.0795 C   0  0  0  0  0  0  0  0  0  0  0  0
   10.9233  -18.1657   23.1293 C   0  0  2  0  0  0  0  0  0  0  0  0
   10.4965  -17.2711   22.0638 N   0  0  0  0  0  0  0  0  0  0  0  0
   10.4987  -17.6367   24.4575 C   0  0  0  0  0  0  0  0  0  0  0  0
   10.3641  -16.3950   24.5649 O   0  0  0  0  0  0  0  0  0  0  0  0
    8.5144  -16.0964   25.4794 C   0  0  0  0  0  0  0  0  0  0  0  0
    8.3848  -17.1859   26.5195 C   0  0  1  0  0  0  0  0  0  0  0  0
    7.4583  -18.1436   26.0712 O   0  0  0  0  0  0  0  0  0  0  0  0
    9.7334  -17.8468   26.7849 C   0  0  2  0  0  0  0  0  0  0  0  0
   10.2484  -18.4509   25.5699 N   0  0  0  0  0  0  0  0  0  0  0  0
    9.5843  -18.8602   27.8615 C   0  0  0  0  0  0  0  0  0  0  0  0
    9.3121  -18.5123   29.0370 O   0  0  0  0  0  0  0  0  0  0  0  0
    9.7361  -20.2304   27.6282 O   0  0  0  0  0  0  0  0  0  0  0  0
  2  1  1  6
  2  3  1  0
  3  4  1  0
  4  8  1  0
  5  4  2  0
  5  6  1  0
  6  7  1  0
  8  7  2  0
  9 10  2  0
  9  2  1  0
 11 12  1  0
 12 13  2  0
 12 14  1  0
 14 15  1  0
 16 15  1  1
 16 17  1  0
 17  9  1  0
 18 24  1  0
 18 16  1  0
 19 18  2  0
 21 20  1  6
 21 22  1  0
 21 23  1  0
 23 24  1  6
 23 25  1  0
 25 27  1  0
 26 25  2  0
M  END
$$$$
