HQT.pdb
     RDKit          3D

 27 27  0  0  1  0  0  0  0  0999 V2000
    7.7968  -17.3321   20.3859 N   0  0  0  0  0  0  0  0  0  0  0  0
    8.2544  -16.1418   21.0847 C   0  0  1  0  0  0  0  0  0  0  0  0
    7.3063  -15.0238   20.7032 C   0  0  0  0  0  0  0  0  0  0  0  0
    7.7662  -14.3159   19.4804 C   0  0  0  0  0  0  0  0  0  0  0  0
    8.8599  -14.5822   18.6877 C   0  0  0  0  0  0  0  0  0  0  0  0
    8.9413  -13.7143   17.6663 N   0  0  0  0  0  0  0  0  0  0  0  0
    7.8938  -12.8853   17.8031 C   0  0  0  0  0  0  0  0  0  0  0  0
    7.1706  -13.2348   18.8972 N   0  0  0  0  0  0  0  0  0  0  0  0
    8.2534  -16.3986   22.5399 C   0  0  0  0  0  0  0  0  0  0  0  0
    7.1814  -16.6806   23.1339 O   0  0  0  0  0  0  0  0  0  0  0  0
   12.4896  -19.1637   26.1551 N   0  0  0  0  0  0  0  0  0  0  0  0
   11.4913  -18.7327   27.1107 C   0  0  0  0  0  0  0  0  0  0  0  0
   11.6402  -19.1527   28.2672 O   0  0  0  0  0  0  0  0  0  0  0  0
   10.4330  -17.8591   26.6072 C   0  0  0  0  0  0  0  0  0  0  0  0
   10.4892  -17.5764   25.1498 C   0  0  0  0  0  0  0  0  0  0  0  0
    9.4277  -16.6086   24.7443 C   0  0  2  0  0  0  0  0  0  0  0  0
    9.4423  -16.3386   23.3144 N   0  0  0  0  0  0  0  0  0  0  0  0
    9.5036  -15.3356   25.5174 C   0  0  0  0  0  0  0  0  0  0  0  0
   10.4237  -14.5375   25.2210 O   0  0  0  0  0  0  0  0  0  0  0  0
    7.2156  -12.3504   25.9802 C   0  0  0  0  0  0  0  0  0  0  0  0
    7.5242  -12.9550   27.3311 C   0  0  1  0  0  0  0  0  0  0  0  0
    6.4529  -13.7760   27.7246 O   0  0  0  0  0  0  0  0  0  0  0  0
    8.8144  -13.7667   27.2811 C   0  0  2  0  0  0  0  0  0  0  0  0
    8.6087  -14.9984   26.5414 N   0  0  0  0  0  0  0  0  0  0  0  0
    9.2759  -14.0478   28.6653 C   0  0  0  0  0  0  0  0  0  0  0  0
    9.3601  -15.2278   29.0866 O   0  0  0  0  0  0  0  0  0  0  0  0
    9.6348  -13.0325   29.5572 O   0  0  0  0  0  0  0  0  0  0  0  0
  2  1  1  6
  2  3  1  0
  3  4  1  0
  4  8  1  0
  5  4  2  0
  5  6  1  0
  6  7  1  0
  8  7  2  0
  9 10  2  0
  9  2  1  0
 11 12  1  0
 12 13  2  0
 12 14  1  0
 14 15  1  0
 16 15  1  6
 16 17  1  0
 17  9  1  0
 18 24  1  0
 18 16  1  0
 19 18  2  0
 21 20  1  6
 21 22  1  0
 21 23  1  0
 23 24  1  1
 23 25  1  0
 25 27  1  0
 26 25  2  0
M  END
$$$$
