HQT.pdb
     RDKit          3D

 27 27  0  0  1  0  0  0  0  0999 V2000
    9.7725  -14.9251   19.9913 N   0  0  0  0  0  0  0  0  0  0  0  0
    8.4435  -14.5998   20.4837 C   0  0  1  0  0  0  0  0  0  0  0  0
    7.4593  -15.1629   19.4793 C   0  0  0  0  0  0  0  0  0  0  0  0
    7.6447  -14.5527   18.1372 C   0  0  0  0  0  0  0  0  0  0  0  0
    8.6168  -13.6743   17.7143 C   0  0  0  0  0  0  0  0  0  0  0  0
    8.4469  -13.3482   16.4228 N   0  0  0  0  0  0  0  0  0  0  0  0
    7.3593  -14.0209   16.0131 C   0  0  0  0  0  0  0  0  0  0  0  0
    6.8599  -14.7562   17.0388 N   0  0  0  0  0  0  0  0  0  0  0  0
    8.2628  -15.1870   21.8276 C   0  0  0  0  0  0  0  0  0  0  0  0
    7.1627  -15.0748   22.4266 O   0  0  0  0  0  0  0  0  0  0  0  0
   11.8921  -19.3261   25.1029 N   0  0  0  0  0  0  0  0  0  0  0  0
   10.9308  -18.8571   26.0783 C   0  0  0  0  0  0  0  0  0  0  0  0
   11.0199  -19.3648   27.2053 O   0  0  0  0  0  0  0  0  0  0  0  0
    9.9752  -17.8474   25.6266 C   0  0  0  0  0  0  0  0  0  0  0  0
   10.1382  -17.4116   24.2158 C   0  0  0  0  0  0  0  0  0  0  0  0
    9.1629  -16.3378   23.8641 C   0  0  2  0  0  0  0  0  0  0  0  0
    9.3058  -15.8901   22.4869 N   0  0  0  0  0  0  0  0  0  0  0  0
    9.2409  -15.1800   24.8009 C   0  0  0  0  0  0  0  0  0  0  0  0
   10.2361  -14.4247   24.6990 O   0  0  0  0  0  0  0  0  0  0  0  0
    7.0604  -12.1692   25.2209 C   0  0  0  0  0  0  0  0  0  0  0  0
    7.1732  -12.8656   26.5580 C   0  0  1  0  0  0  0  0  0  0  0  0
    6.0292  -13.6566   26.7640 O   0  0  0  0  0  0  0  0  0  0  0  0
    8.4262  -13.7332   26.6147 C   0  0  2  0  0  0  0  0  0  0  0  0
    8.2691  -14.9042   25.7718 N   0  0  0  0  0  0  0  0  0  0  0  0
    8.6944  -14.1232   28.0233 C   0  0  0  0  0  0  0  0  0  0  0  0
    8.6722  -15.3298   28.3704 O   0  0  0  0  0  0  0  0  0  0  0  0
    8.9808  -13.1853   29.0199 O   0  0  0  0  0  0  0  0  0  0  0  0
  2  1  1  6
  2  3  1  0
  3  4  1  0
  4  8  1  0
  5  4  2  0
  5  6  1  0
  6  7  1  0
  8  7  2  0
  9 10  2  0
  9  2  1  0
 11 12  1  0
 12 13  2  0
 12 14  1  0
 14 15  1  0
 16 15  1  1
 16 17  1  0
 17  9  1  0
 18 24  1  0
 18 16  1  0
 19 18  2  0
 21 20  1  6
 21 22  1  0
 21 23  1  0
 23 24  1  6
 23 25  1  0
 25 27  1  0
 26 25  2  0
M  END
$$$$
