HQT.pdb
     RDKit          3D

 27 27  0  0  1  0  0  0  0  0999 V2000
    8.2048  -17.7229   19.7021 N   0  0  0  0  0  0  0  0  0  0  0  0
    8.2488  -16.4264   20.3592 C   0  0  1  0  0  0  0  0  0  0  0  0
    7.1567  -15.5851   19.7314 C   0  0  0  0  0  0  0  0  0  0  0  0
    7.7144  -14.6094   18.7594 C   0  0  0  0  0  0  0  0  0  0  0  0
    9.0285  -14.3915   18.4114 C   0  0  0  0  0  0  0  0  0  0  0  0
    9.1316  -13.4182   17.4921 N   0  0  0  0  0  0  0  0  0  0  0  0
    7.8765  -13.0081   17.2476 C   0  0  0  0  0  0  0  0  0  0  0  0
    7.0044  -13.7189   18.0067 N   0  0  0  0  0  0  0  0  0  0  0  0
    8.0451  -16.6072   21.8116 C   0  0  0  0  0  0  0  0  0  0  0  0
    7.1040  -17.3253   22.2359 O   0  0  0  0  0  0  0  0  0  0  0  0
   11.5017  -19.0359   25.8100 N   0  0  0  0  0  0  0  0  0  0  0  0
   10.5921  -18.3880   26.7311 C   0  0  0  0  0  0  0  0  0  0  0  0
   10.7169  -18.7086   27.9217 O   0  0  0  0  0  0  0  0  0  0  0  0
    9.6406  -17.4384   26.1569 C   0  0  0  0  0  0  0  0  0  0  0  0
    9.7529  -17.2435   24.6885 C   0  0  0  0  0  0  0  0  0  0  0  0
    8.7441  -16.2612   24.1935 C   0  0  2  0  0  0  0  0  0  0  0  0
    8.8891  -15.9882   22.7715 N   0  0  0  0  0  0  0  0  0  0  0  0
    8.7672  -14.9909   24.9746 C   0  0  0  0  0  0  0  0  0  0  0  0
    9.7515  -14.2325   24.8088 O   0  0  0  0  0  0  0  0  0  0  0  0
    5.9686  -12.2482   25.2601 C   0  0  0  0  0  0  0  0  0  0  0  0
    6.4571  -12.6861   26.6222 C   0  0  1  0  0  0  0  0  0  0  0  0
    5.5414  -13.6029   27.1676 O   0  0  0  0  0  0  0  0  0  0  0  0
    7.8396  -13.3226   26.5248 C   0  0  2  0  0  0  0  0  0  0  0  0
    7.7565  -14.6147   25.8689 N   0  0  0  0  0  0  0  0  0  0  0  0
    8.4211  -13.4530   27.8860 C   0  0  0  0  0  0  0  0  0  0  0  0
    8.6937  -14.5826   28.3619 O   0  0  0  0  0  0  0  0  0  0  0  0
    8.6913  -12.3454   28.6956 O   0  0  0  0  0  0  0  0  0  0  0  0
  2  1  1  6
  2  3  1  0
  3  4  1  0
  4  8  1  0
  5  4  2  0
  5  6  1  0
  6  7  1  0
  8  7  2  0
  9 10  2  0
  9  2  1  0
 11 12  1  0
 12 13  2  0
 12 14  1  0
 14 15  1  0
 16 15  1  1
 16 17  1  0
 17  9  1  0
 18 24  1  0
 18 16  1  0
 19 18  2  0
 21 20  1  6
 21 22  1  0
 21 23  1  0
 23 24  1  1
 23 25  1  0
 25 27  1  0
 26 25  2  0
M  END
$$$$
