HQT.pdb
     RDKit          3D

 27 27  0  0  1  0  0  0  0  0999 V2000
    8.3600  -17.5002   19.3767 N   0  0  0  0  0  0  0  0  0  0  0  0
    8.4154  -16.2547   20.1252 C   0  0  1  0  0  0  0  0  0  0  0  0
    7.2833  -15.3895   19.6113 C   0  0  0  0  0  0  0  0  0  0  0  0
    7.7115  -14.5702   18.4480 C   0  0  0  0  0  0  0  0  0  0  0  0
    8.9406  -14.5238   17.8295 C   0  0  0  0  0  0  0  0  0  0  0  0
    8.9359  -13.6544   16.8062 N   0  0  0  0  0  0  0  0  0  0  0  0
    7.6965  -13.1389   16.7666 C   0  0  0  0  0  0  0  0  0  0  0  0
    6.9407  -13.6823   17.7543 N   0  0  0  0  0  0  0  0  0  0  0  0
    8.2819  -16.5451   21.5679 C   0  0  0  0  0  0  0  0  0  0  0  0
    7.4071  -17.3518   21.9747 O   0  0  0  0  0  0  0  0  0  0  0  0
   11.8335  -18.9610   25.5134 N   0  0  0  0  0  0  0  0  0  0  0  0
   10.9648  -18.2916   26.4584 C   0  0  0  0  0  0  0  0  0  0  0  0
   11.1514  -18.5741   27.6506 O   0  0  0  0  0  0  0  0  0  0  0  0
    9.9777  -17.3674   25.9035 C   0  0  0  0  0  0  0  0  0  0  0  0
   10.0333  -17.1964   24.4288 C   0  0  0  0  0  0  0  0  0  0  0  0
    8.9875  -16.2432   23.9539 C   0  0  2  0  0  0  0  0  0  0  0  0
    9.1213  -15.9356   22.5379 N   0  0  0  0  0  0  0  0  0  0  0  0
    8.9625  -14.9894   24.7612 C   0  0  0  0  0  0  0  0  0  0  0  0
    9.9461  -14.2193   24.6567 O   0  0  0  0  0  0  0  0  0  0  0  0
    6.1803  -12.1467   25.2325 C   0  0  0  0  0  0  0  0  0  0  0  0
    6.6245  -12.7743   26.5342 C   0  0  1  0  0  0  0  0  0  0  0  0
    5.6819  -13.7413   26.9252 O   0  0  0  0  0  0  0  0  0  0  0  0
    8.0007  -13.4148   26.3867 C   0  0  2  0  0  0  0  0  0  0  0  0
    7.9080  -14.6407   25.6152 N   0  0  0  0  0  0  0  0  0  0  0  0
    8.5719  -13.6753   27.7335 C   0  0  0  0  0  0  0  0  0  0  0  0
    8.8666  -14.8426   28.0908 O   0  0  0  0  0  0  0  0  0  0  0  0
    8.8079  -12.6539   28.6588 O   0  0  0  0  0  0  0  0  0  0  0  0
  2  1  1  6
  2  3  1  0
  3  4  1  0
  4  8  1  0
  5  4  2  0
  5  6  1  0
  6  7  1  0
  8  7  2  0
  9 10  2  0
  9  2  1  0
 11 12  1  0
 12 13  2  0
 12 14  1  0
 14 15  1  0
 16 15  1  1
 16 17  1  0
 17  9  1  0
 18 24  1  0
 18 16  1  0
 19 18  2  0
 21 20  1  6
 21 22  1  0
 21 23  1  0
 23 24  1  1
 23 25  1  0
 25 27  1  0
 26 25  2  0
M  END
$$$$
