NHM.pdb
     RDKit          3D

 27 27  0  0  1  0  0  0  0  0999 V2000
   26.1938  -24.8230  -13.2250 N   0  0  0  0  0  0  0  0  0  0  0  0
   25.9772  -24.7108  -14.6141 C   0  0  0  0  0  0  0  0  0  0  0  0
   26.5625  -25.4640  -15.4091 O   0  0  0  0  0  0  0  0  0  0  0  0
   25.0379  -23.6765  -15.1004 C   0  0  0  0  0  0  0  0  0  0  0  0
   24.5963  -22.7884  -13.9592 C   0  0  2  0  0  0  0  0  0  0  0  0
   23.9921  -23.4922  -12.9119 N   0  0  0  0  0  0  0  0  0  0  0  0
   23.6585  -21.7785  -14.5187 C   0  0  0  0  0  0  0  0  0  0  0  0
   24.0957  -21.0586  -15.4653 O   0  0  0  0  0  0  0  0  0  0  0  0
   22.3553  -21.6656  -13.9874 N   0  0  0  0  0  0  0  0  0  0  0  0
   21.4613  -20.6416  -14.5014 C   0  0  1  0  0  0  0  0  0  0  0  0
   20.0775  -20.8028  -13.9657 C   0  0  0  0  0  0  0  0  0  0  0  0
   19.4013  -21.9537  -14.5941 C   0  0  0  0  0  0  0  0  0  0  0  0
   19.8163  -22.7316  -15.6638 C   0  0  0  0  0  0  0  0  0  0  0  0
   18.9055  -23.6738  -15.9661 N   0  0  0  0  0  0  0  0  0  0  0  0
   17.9084  -23.4911  -15.0834 C   0  0  0  0  0  0  0  0  0  0  0  0
   18.1811  -22.4774  -14.2613 N   0  0  0  0  0  0  0  0  0  0  0  0
   22.0120  -19.3296  -14.1145 C   0  0  0  0  0  0  0  0  0  0  0  0
   22.6776  -19.1553  -13.0838 O   0  0  0  0  0  0  0  0  0  0  0  0
   28.0789  -16.3608  -16.1782 C   0  0  0  0  0  0  0  0  0  0  0  0
   26.6981  -17.5078  -16.1049 S   0  0  0  0  0  0  0  0  0  0  0  0
   25.1645  -16.7089  -15.5967 C   0  0  0  0  0  0  0  0  0  0  0  0
   24.0859  -17.7294  -15.4187 C   0  0  0  0  0  0  0  0  0  0  0  0
   22.7470  -17.1123  -15.0828 C   0  0  2  0  0  0  0  0  0  0  0  0
   21.7860  -18.1898  -14.9422 N   0  0  0  0  0  0  0  0  0  0  0  0
   22.2993  -16.1392  -16.0720 C   0  0  0  0  0  0  0  0  0  0  0  0
   21.8679  -16.5641  -17.3136 O   0  0  0  0  0  0  0  0  0  0  0  0
   22.2962  -14.9136  -15.8210 O   0  0  0  0  0  0  0  0  0  0  0  0
  1  2  1  0
  2  3  2  0
  4  2  1  0
  5  4  1  0
  5  6  1  1
  7  5  1  0
  7  8  2  0
  9  7  1  0
 10  9  1  0
 10 11  1  1
 11 12  1  0
 12 16  1  0
 13 12  2  0
 13 14  1  0
 14 15  1  0
 16 15  2  0
 17 10  1  0
 18 17  2  0
 20 19  1  0
 21 20  1  0
 22 21  1  0
 23 22  1  6
 23 24  1  0
 24 17  1  0
 25 23  1  0
 26 25  1  0
 27 25  2  0
M  END
$$$$
