NHM.pdb
     RDKit          3D

 27 27  0  0  1  0  0  0  0  0999 V2000
   19.9709  -15.2018  -16.3665 N   0  0  0  0  0  0  0  0  0  0  0  0
   19.1639  -14.1873  -15.8108 C   0  0  0  0  0  0  0  0  0  0  0  0
   18.2503  -14.4679  -15.0182 O   0  0  0  0  0  0  0  0  0  0  0  0
   19.4316  -12.7838  -16.1941 C   0  0  0  0  0  0  0  0  0  0  0  0
   18.1443  -11.9911  -16.2217 C   0  0  2  0  0  0  0  0  0  0  0  0
   17.2888  -12.3609  -17.2650 N   0  0  0  0  0  0  0  0  0  0  0  0
   18.5095  -10.5533  -16.3308 C   0  0  0  0  0  0  0  0  0  0  0  0
   19.3285  -10.2419  -17.2458 O   0  0  0  0  0  0  0  0  0  0  0  0
   17.9445   -9.6194  -15.4353 N   0  0  0  0  0  0  0  0  0  0  0  0
   18.2156   -8.2031  -15.6161 C   0  0  1  0  0  0  0  0  0  0  0  0
   17.1639   -7.3578  -14.9782 C   0  0  0  0  0  0  0  0  0  0  0  0
   17.4170   -5.9259  -15.2283 C   0  0  0  0  0  0  0  0  0  0  0  0
   18.4396   -5.3347  -15.9537 C   0  0  0  0  0  0  0  0  0  0  0  0
   18.3476   -3.9932  -15.9252 N   0  0  0  0  0  0  0  0  0  0  0  0
   17.2612   -3.7339  -15.1774 C   0  0  0  0  0  0  0  0  0  0  0  0
   16.6946   -4.8642  -14.7541 N   0  0  0  0  0  0  0  0  0  0  0  0
   19.5341   -7.9188  -15.0203 C   0  0  0  0  0  0  0  0  0  0  0  0
   19.8548   -8.2929  -13.8832 O   0  0  0  0  0  0  0  0  0  0  0  0
   25.2433  -10.1184  -14.8388 C   0  0  0  0  0  0  0  0  0  0  0  0
   25.3984   -8.6022  -15.7901 S   0  0  0  0  0  0  0  0  0  0  0  0
   24.2174   -7.3417  -15.2753 C   0  0  0  0  0  0  0  0  0  0  0  0
   22.8419   -7.7049  -15.7364 C   0  0  0  0  0  0  0  0  0  0  0  0
   21.7801   -6.7712  -15.2005 C   0  0  2  0  0  0  0  0  0  0  0  0
   20.5064   -7.1820  -15.7600 N   0  0  0  0  0  0  0  0  0  0  0  0
   22.0500   -5.3681  -15.4915 C   0  0  0  0  0  0  0  0  0  0  0  0
   22.6888   -4.5785  -14.5552 O   0  0  0  0  0  0  0  0  0  0  0  0
   21.7131   -4.8554  -16.5817 O   0  0  0  0  0  0  0  0  0  0  0  0
  1  2  1  0
  2  3  2  0
  4  2  1  0
  5  4  1  0
  5  6  1  6
  7  5  1  0
  7  8  2  0
  9  7  1  0
 10  9  1  0
 10 11  1  1
 11 12  1  0
 12 16  1  0
 13 12  2  0
 13 14  1  0
 14 15  1  0
 16 15  2  0
 17 10  1  0
 18 17  2  0
 20 19  1  0
 21 20  1  0
 22 21  1  0
 23 22  1  6
 23 24  1  0
 24 17  1  0
 25 23  1  0
 26 25  1  0
 27 25  2  0
M  END
$$$$
