NHM.pdb
     RDKit          3D

 27 27  0  0  1  0  0  0  0  0999 V2000
   26.0827  -12.5447  -17.7568 N   0  0  0  0  0  0  0  0  0  0  0  0
   25.1110  -12.1759  -16.8034 C   0  0  0  0  0  0  0  0  0  0  0  0
   25.0269  -12.7764  -15.7199 O   0  0  0  0  0  0  0  0  0  0  0  0
   24.1962  -11.0585  -17.1246 C   0  0  0  0  0  0  0  0  0  0  0  0
   22.7573  -11.4909  -16.9548 C   0  0  2  0  0  0  0  0  0  0  0  0
   22.2790  -12.2549  -18.0247 N   0  0  0  0  0  0  0  0  0  0  0  0
   21.9398  -10.2598  -16.7859 C   0  0  0  0  0  0  0  0  0  0  0  0
   21.4665   -9.7417  -17.8407 O   0  0  0  0  0  0  0  0  0  0  0  0
   21.7300   -9.7328  -15.4930 N   0  0  0  0  0  0  0  0  0  0  0  0
   20.8166   -8.6162  -15.3171 C   0  0  1  0  0  0  0  0  0  0  0  0
   19.7052   -8.9592  -14.3817 C   0  0  0  0  0  0  0  0  0  0  0  0
   18.7394   -9.8707  -15.0246 C   0  0  0  0  0  0  0  0  0  0  0  0
   17.8600   -9.6166  -16.0655 C   0  0  0  0  0  0  0  0  0  0  0  0
   17.1150  -10.6990  -16.3521 N   0  0  0  0  0  0  0  0  0  0  0  0
   17.5248  -11.6432  -15.4878 C   0  0  0  0  0  0  0  0  0  0  0  0
   18.4864  -11.1743  -14.6920 N   0  0  0  0  0  0  0  0  0  0  0  0
   21.5946   -7.4779  -14.7944 C   0  0  0  0  0  0  0  0  0  0  0  0
   22.4279   -7.5920  -13.8843 O   0  0  0  0  0  0  0  0  0  0  0  0
   23.0115    0.2242  -16.3264 C   0  0  0  0  0  0  0  0  0  0  0  0
   22.1712   -1.3214  -16.6908 S   0  0  0  0  0  0  0  0  0  0  0  0
   22.5296   -2.6038  -15.4760 C   0  0  0  0  0  0  0  0  0  0  0  0
   21.8386   -3.8762  -15.8504 C   0  0  0  0  0  0  0  0  0  0  0  0
   22.1795   -5.0212  -14.9235 C   0  0  2  0  0  0  0  0  0  0  0  0
   21.4027   -6.1735  -15.3394 N   0  0  0  0  0  0  0  0  0  0  0  0
   21.9432   -4.7117  -13.5184 C   0  0  0  0  0  0  0  0  0  0  0  0
   20.7170   -4.9896  -12.9461 O   0  0  0  0  0  0  0  0  0  0  0  0
   22.8346   -4.1942  -12.8094 O   0  0  0  0  0  0  0  0  0  0  0  0
  1  2  1  0
  2  3  2  0
  4  2  1  0
  5  4  1  0
  5  6  1  6
  7  5  1  0
  7  8  2  0
  9  7  1  0
 10  9  1  0
 10 11  1  1
 11 12  1  0
 12 16  1  0
 13 12  2  0
 13 14  1  0
 14 15  1  0
 16 15  2  0
 17 10  1  0
 18 17  2  0
 20 19  1  0
 21 20  1  0
 22 21  1  0
 23 22  1  6
 23 24  1  0
 24 17  1  0
 25 23  1  0
 26 25  1  0
 27 25  2  0
M  END
$$$$
