NHM.pdb
     RDKit          3D

 27 27  0  0  1  0  0  0  0  0999 V2000
   13.5624  -11.8052  -14.4421 N   0  0  0  0  0  0  0  0  0  0  0  0
   13.1555  -11.4351  -13.1434 C   0  0  0  0  0  0  0  0  0  0  0  0
   12.0224  -11.7266  -12.7276 O   0  0  0  0  0  0  0  0  0  0  0  0
   14.1092  -10.6928  -12.2902 C   0  0  0  0  0  0  0  0  0  0  0  0
   15.3788  -10.3954  -13.0555 C   0  0  2  0  0  0  0  0  0  0  0  0
   16.1937  -11.5185  -13.2335 N   0  0  0  0  0  0  0  0  0  0  0  0
   16.1083   -9.3338  -12.3116 C   0  0  0  0  0  0  0  0  0  0  0  0
   16.7918   -9.7063  -11.3120 O   0  0  0  0  0  0  0  0  0  0  0  0
   16.0125   -7.9911  -12.7374 N   0  0  0  0  0  0  0  0  0  0  0  0
   16.7670   -6.9649  -12.0377 C   0  0  1  0  0  0  0  0  0  0  0  0
   17.7451   -6.2912  -12.9417 C   0  0  0  0  0  0  0  0  0  0  0  0
   18.8378   -7.2106  -13.3126 C   0  0  0  0  0  0  0  0  0  0  0  0
   20.0208   -7.4755  -12.6404 C   0  0  0  0  0  0  0  0  0  0  0  0
   20.7813   -8.3549  -13.3163 N   0  0  0  0  0  0  0  0  0  0  0  0
   20.0762   -8.6481  -14.4224 C   0  0  0  0  0  0  0  0  0  0  0  0
   18.9217   -7.9813  -14.4408 N   0  0  0  0  0  0  0  0  0  0  0  0
   15.8033   -5.9854  -11.5028 C   0  0  0  0  0  0  0  0  0  0  0  0
   14.8678   -5.5251  -12.1728 O   0  0  0  0  0  0  0  0  0  0  0  0
   12.7807   -3.5176   -4.6340 C   0  0  0  0  0  0  0  0  0  0  0  0
   13.8366   -4.5929   -5.6120 S   0  0  0  0  0  0  0  0  0  0  0  0
   13.9124   -4.0958   -7.3429 C   0  0  0  0  0  0  0  0  0  0  0  0
   14.7844   -5.0366   -8.1117 C   0  0  0  0  0  0  0  0  0  0  0  0
   14.9848   -4.6067   -9.5475 C   0  0  2  0  0  0  0  0  0  0  0  0
   15.9259   -5.5267  -10.1575 N   0  0  0  0  0  0  0  0  0  0  0  0
   15.4443   -3.2288   -9.6750 C   0  0  0  0  0  0  0  0  0  0  0  0
   14.5294   -2.1940   -9.6942 O   0  0  0  0  0  0  0  0  0  0  0  0
   16.6619   -2.9572   -9.7685 O   0  0  0  0  0  0  0  0  0  0  0  0
  1  2  1  0
  2  3  2  0
  4  2  1  0
  5  4  1  0
  5  6  1  1
  7  5  1  0
  7  8  2  0
  9  7  1  0
 10  9  1  0
 10 11  1  6
 11 12  1  0
 12 16  1  0
 13 12  2  0
 13 14  1  0
 14 15  1  0
 16 15  2  0
 17 10  1  0
 18 17  2  0
 20 19  1  0
 21 20  1  0
 22 21  1  0
 23 22  1  1
 23 24  1  0
 24 17  1  0
 25 23  1  0
 26 25  1  0
 27 25  2  0
M  END
$$$$
