NHM.pdb
     RDKit          3D

 27 27  0  0  1  0  0  0  0  0999 V2000
   29.4673  -22.2367  -16.8717 N   0  0  0  0  0  0  0  0  0  0  0  0
   28.8842  -21.0720  -17.4127 C   0  0  0  0  0  0  0  0  0  0  0  0
   29.2660  -20.6213  -18.5049 O   0  0  0  0  0  0  0  0  0  0  0  0
   27.8090  -20.4015  -16.6493 C   0  0  0  0  0  0  0  0  0  0  0  0
   26.5284  -21.2013  -16.7308 C   0  0  2  0  0  0  0  0  0  0  0  0
   26.1906  -21.5739  -18.0362 N   0  0  0  0  0  0  0  0  0  0  0  0
   25.4486  -20.3747  -16.1279 C   0  0  0  0  0  0  0  0  0  0  0  0
   25.7224  -19.7864  -15.0397 O   0  0  0  0  0  0  0  0  0  0  0  0
   24.1969  -20.2817  -16.7743 N   0  0  0  0  0  0  0  0  0  0  0  0
   23.0865  -19.6401  -16.0905 C   0  0  1  0  0  0  0  0  0  0  0  0
   21.8931  -19.5171  -16.9785 C   0  0  0  0  0  0  0  0  0  0  0  0
   20.8525  -18.6827  -16.3480 C   0  0  0  0  0  0  0  0  0  0  0  0
   20.8559  -18.0791  -15.1002 C   0  0  0  0  0  0  0  0  0  0  0  0
   19.7045  -17.4231  -14.8707 N   0  0  0  0  0  0  0  0  0  0  0  0
   18.9681  -17.6128  -15.9790 C   0  0  0  0  0  0  0  0  0  0  0  0
   19.6286  -18.3562  -16.8672 N   0  0  0  0  0  0  0  0  0  0  0  0
   22.7613  -20.4516  -14.9030 C   0  0  0  0  0  0  0  0  0  0  0  0
   22.6286  -21.6831  -14.9438 O   0  0  0  0  0  0  0  0  0  0  0  0
   26.2684  -20.7773  -10.0283 C   0  0  0  0  0  0  0  0  0  0  0  0
   24.7389  -20.6547   -9.0938 S   0  0  0  0  0  0  0  0  0  0  0  0
   23.2807  -20.9115  -10.1216 C   0  0  0  0  0  0  0  0  0  0  0  0
   23.4849  -20.2958  -11.4691 C   0  0  0  0  0  0  0  0  0  0  0  0
   22.3338  -20.5605  -12.4132 C   0  0  2  0  0  0  0  0  0  0  0  0
   22.5851  -19.8210  -13.6356 N   0  0  0  0  0  0  0  0  0  0  0  0
   21.0361  -20.2099  -11.8482 C   0  0  0  0  0  0  0  0  0  0  0  0
   20.3241  -21.1435  -11.1204 O   0  0  0  0  0  0  0  0  0  0  0  0
   20.5455  -19.0702  -12.0083 O   0  0  0  0  0  0  0  0  0  0  0  0
  1  2  1  0
  2  3  2  0
  4  2  1  0
  5  4  1  0
  5  6  1  6
  7  5  1  0
  7  8  2  0
  9  7  1  0
 10  9  1  0
 10 11  1  6
 11 12  1  0
 12 16  1  0
 13 12  2  0
 13 14  1  0
 14 15  1  0
 16 15  2  0
 17 10  1  0
 18 17  2  0
 20 19  1  0
 21 20  1  0
 22 21  1  0
 23 22  1  1
 23 24  1  0
 24 17  1  0
 25 23  1  0
 26 25  1  0
 27 25  2  0
M  END
$$$$
