NHM.pdb
     RDKit          3D

 27 27  0  0  1  0  0  0  0  0999 V2000
   13.8270  -15.8585  -14.3045 N   0  0  0  0  0  0  0  0  0  0  0  0
   14.5346  -15.4825  -15.4651 C   0  0  0  0  0  0  0  0  0  0  0  0
   14.0694  -15.7129  -16.5930 O   0  0  0  0  0  0  0  0  0  0  0  0
   15.8419  -14.8082  -15.3068 C   0  0  0  0  0  0  0  0  0  0  0  0
   16.8356  -15.3438  -16.3127 C   0  0  2  0  0  0  0  0  0  0  0  0
   17.1937  -16.6763  -16.0814 N   0  0  0  0  0  0  0  0  0  0  0  0
   18.0348  -14.4651  -16.2646 C   0  0  0  0  0  0  0  0  0  0  0  0
   18.8862  -14.7131  -15.3598 O   0  0  0  0  0  0  0  0  0  0  0  0
   18.1722  -13.4192  -17.2029 N   0  0  0  0  0  0  0  0  0  0  0  0
   19.4295  -12.6951  -17.2856 C   0  0  1  0  0  0  0  0  0  0  0  0
   20.0322  -12.7965  -18.6473 C   0  0  0  0  0  0  0  0  0  0  0  0
   20.5777  -14.1473  -18.8815 C   0  0  0  0  0  0  0  0  0  0  0  0
   21.7782  -14.6898  -18.4506 C   0  0  0  0  0  0  0  0  0  0  0  0
   21.9344  -15.9488  -18.8968 N   0  0  0  0  0  0  0  0  0  0  0  0
   20.8271  -16.2045  -19.6144 C   0  0  0  0  0  0  0  0  0  0  0  0
   20.0097  -15.1511  -19.6188 N   0  0  0  0  0  0  0  0  0  0  0  0
   19.1588  -11.2856  -16.9476 C   0  0  0  0  0  0  0  0  0  0  0  0
   18.1016  -10.7119  -17.2457 O   0  0  0  0  0  0  0  0  0  0  0  0
   22.5670   -5.0838  -13.2496 C   0  0  0  0  0  0  0  0  0  0  0  0
   22.5632   -6.8119  -13.7408 S   0  0  0  0  0  0  0  0  0  0  0  0
   21.0689   -7.2701  -14.6383 C   0  0  0  0  0  0  0  0  0  0  0  0
   21.1170   -8.7165  -15.0153 C   0  0  0  0  0  0  0  0  0  0  0  0
   19.9173   -9.1491  -15.8277 C   0  0  2  0  0  0  0  0  0  0  0  0
   20.1377  -10.5203  -16.2465 N   0  0  0  0  0  0  0  0  0  0  0  0
   19.6607   -8.2873  -16.9756 C   0  0  0  0  0  0  0  0  0  0  0  0
   20.4527   -8.3841  -18.1033 O   0  0  0  0  0  0  0  0  0  0  0  0
   18.7295   -7.4520  -16.9643 O   0  0  0  0  0  0  0  0  0  0  0  0
  1  2  1  0
  2  3  2  0
  4  2  1  0
  5  4  1  0
  5  6  1  1
  7  5  1  0
  7  8  2  0
  9  7  1  0
 10  9  1  0
 10 11  1  6
 11 12  1  0
 12 16  1  0
 13 12  2  0
 13 14  1  0
 14 15  1  0
 16 15  2  0
 17 10  1  0
 18 17  2  0
 20 19  1  0
 21 20  1  0
 22 21  1  0
 23 22  1  6
 23 24  1  0
 24 17  1  0
 25 23  1  0
 26 25  1  0
 27 25  2  0
M  END
$$$$
