NHM.pdb
     RDKit          3D

 27 27  0  0  1  0  0  0  0  0999 V2000
   16.9460  -14.9067  -16.1554 N   0  0  0  0  0  0  0  0  0  0  0  0
   17.3289  -13.8922  -15.2536 C   0  0  0  0  0  0  0  0  0  0  0  0
   16.5961  -13.5826  -14.3003 O   0  0  0  0  0  0  0  0  0  0  0  0
   18.6221  -13.2072  -15.4702 C   0  0  0  0  0  0  0  0  0  0  0  0
   19.2761  -13.7063  -16.7388 C   0  0  2  0  0  0  0  0  0  0  0  0
   19.8107  -14.9933  -16.6166 N   0  0  0  0  0  0  0  0  0  0  0  0
   20.3390  -12.7321  -17.1044 C   0  0  0  0  0  0  0  0  0  0  0  0
   21.5318  -13.0631  -16.8345 O   0  0  0  0  0  0  0  0  0  0  0  0
   19.9859  -11.5117  -17.7202 N   0  0  0  0  0  0  0  0  0  0  0  0
   21.0322  -10.6343  -18.2178 C   0  0  1  0  0  0  0  0  0  0  0  0
   20.5621   -9.8247  -19.3802 C   0  0  0  0  0  0  0  0  0  0  0  0
   20.5261  -10.6407  -20.6090 C   0  0  0  0  0  0  0  0  0  0  0  0
   21.2119  -11.8096  -20.9001 C   0  0  0  0  0  0  0  0  0  0  0  0
   20.9381  -12.2408  -22.1442 N   0  0  0  0  0  0  0  0  0  0  0  0
   20.0747  -11.3397  -22.6434 C   0  0  0  0  0  0  0  0  0  0  0  0
   19.8168  -10.3832  -21.7511 N   0  0  0  0  0  0  0  0  0  0  0  0
   21.4425   -9.7519  -17.1099 C   0  0  0  0  0  0  0  0  0  0  0  0
   20.6330   -9.2159  -16.3398 O   0  0  0  0  0  0  0  0  0  0  0  0
   27.6648  -11.9288  -15.1649 C   0  0  0  0  0  0  0  0  0  0  0  0
   27.0479  -10.3006  -15.6077 S   0  0  0  0  0  0  0  0  0  0  0  0
   25.2640  -10.1576  -15.3932 C   0  0  0  0  0  0  0  0  0  0  0  0
   24.8107   -8.7782  -15.7513 C   0  0  0  0  0  0  0  0  0  0  0  0
   23.3047   -8.6519  -15.7998 C   0  0  2  0  0  0  0  0  0  0  0  0
   22.8258   -9.4829  -16.8882 N   0  0  0  0  0  0  0  0  0  0  0  0
   22.8490   -7.2755  -15.9543 C   0  0  0  0  0  0  0  0  0  0  0  0
   22.5922   -6.7697  -17.2139 O   0  0  0  0  0  0  0  0  0  0  0  0
   22.6827   -6.5321  -14.9620 O   0  0  0  0  0  0  0  0  0  0  0  0
  1  2  1  0
  2  3  2  0
  4  2  1  0
  5  4  1  0
  5  6  1  1
  7  5  1  0
  7  8  2  0
  9  7  1  0
 10  9  1  0
 10 11  1  6
 11 12  1  0
 12 16  1  0
 13 12  2  0
 13 14  1  0
 14 15  1  0
 16 15  2  0
 17 10  1  0
 18 17  2  0
 20 19  1  0
 21 20  1  0
 22 21  1  0
 23 22  1  6
 23 24  1  0
 24 17  1  0
 25 23  1  0
 26 25  1  0
 27 25  2  0
M  END
$$$$
