NHM.pdb
     RDKit          3D

 27 27  0  0  1  0  0  0  0  0999 V2000
   14.5952  -11.1772  -11.8526 N   0  0  0  0  0  0  0  0  0  0  0  0
   15.8007  -10.7215  -11.2796 C   0  0  0  0  0  0  0  0  0  0  0  0
   16.1249  -11.0635  -10.1308 O   0  0  0  0  0  0  0  0  0  0  0  0
   16.6680   -9.8281  -12.0785 C   0  0  0  0  0  0  0  0  0  0  0  0
   15.9654   -9.4128  -13.3513 C   0  0  2  0  0  0  0  0  0  0  0  0
   15.6345  -10.4917  -14.1782 N   0  0  0  0  0  0  0  0  0  0  0  0
   16.8615   -8.4639  -14.0648 C   0  0  0  0  0  0  0  0  0  0  0  0
   17.7352   -8.9714  -14.8292 O   0  0  0  0  0  0  0  0  0  0  0  0
   16.7070   -7.0746  -13.8670 N   0  0  0  0  0  0  0  0  0  0  0  0
   17.6283   -6.1548  -14.5130 C   0  0  1  0  0  0  0  0  0  0  0  0
   17.1333   -4.7482  -14.4497 C   0  0  0  0  0  0  0  0  0  0  0  0
   16.0265   -4.5370  -15.4022 C   0  0  0  0  0  0  0  0  0  0  0  0
   15.5427   -5.3915  -16.3806 C   0  0  0  0  0  0  0  0  0  0  0  0
   14.5382   -4.8247  -17.0723 N   0  0  0  0  0  0  0  0  0  0  0  0
   14.3856   -3.6047  -16.5292 C   0  0  0  0  0  0  0  0  0  0  0  0
   15.2570   -3.4130  -15.5383 N   0  0  0  0  0  0  0  0  0  0  0  0
   18.9308   -6.2719  -13.8319 C   0  0  0  0  0  0  0  0  0  0  0  0
   19.1245   -7.0338  -12.8738 O   0  0  0  0  0  0  0  0  0  0  0  0
   25.1664   -9.6885  -14.9522 C   0  0  0  0  0  0  0  0  0  0  0  0
   23.4585   -9.1570  -15.1204 S   0  0  0  0  0  0  0  0  0  0  0  0
   23.1558   -7.5561  -14.3496 C   0  0  0  0  0  0  0  0  0  0  0  0
   21.7161   -7.1782  -14.4944 C   0  0  0  0  0  0  0  0  0  0  0  0
   21.4136   -5.8046  -13.9392 C   0  0  2  0  0  0  0  0  0  0  0  0
   20.0378   -5.4864  -14.2711 N   0  0  0  0  0  0  0  0  0  0  0  0
   22.3209   -4.7745  -14.4309 C   0  0  0  0  0  0  0  0  0  0  0  0
   22.0936   -4.1813  -15.6575 O   0  0  0  0  0  0  0  0  0  0  0  0
   23.3126   -4.4101  -13.7608 O   0  0  0  0  0  0  0  0  0  0  0  0
  1  2  1  0
  2  3  2  0
  4  2  1  0
  5  4  1  0
  5  6  1  6
  7  5  1  0
  7  8  2  0
  9  7  1  0
 10  9  1  0
 10 11  1  1
 11 12  1  0
 12 16  1  0
 13 12  2  0
 13 14  1  0
 14 15  1  0
 16 15  2  0
 17 10  1  0
 18 17  2  0
 20 19  1  0
 21 20  1  0
 22 21  1  0
 23 22  1  6
 23 24  1  0
 24 17  1  0
 25 23  1  0
 26 25  1  0
 27 25  2  0
M  END
$$$$
