NHM.pdb
     RDKit          3D

 27 27  0  0  1  0  0  0  0  0999 V2000
   14.6624  -11.9475  -15.1200 N   0  0  0  0  0  0  0  0  0  0  0  0
   15.6192  -11.4343  -14.2197 C   0  0  0  0  0  0  0  0  0  0  0  0
   15.5240  -11.6538  -13.0014 O   0  0  0  0  0  0  0  0  0  0  0  0
   16.7366  -10.6298  -14.7608 C   0  0  0  0  0  0  0  0  0  0  0  0
   16.5380  -10.3802  -16.2388 C   0  0  2  0  0  0  0  0  0  0  0  0
   16.5634  -11.5498  -17.0059 N   0  0  0  0  0  0  0  0  0  0  0  0
   17.6065   -9.4438  -16.6793 C   0  0  0  0  0  0  0  0  0  0  0  0
   18.5667   -9.9445  -17.3368 O   0  0  0  0  0  0  0  0  0  0  0  0
   17.5104   -8.0729  -16.3559 N   0  0  0  0  0  0  0  0  0  0  0  0
   18.5765   -7.1691  -16.7545 C   0  0  1  0  0  0  0  0  0  0  0  0
   18.0698   -5.7804  -16.9602 C   0  0  0  0  0  0  0  0  0  0  0  0
   17.3469   -5.6689  -18.2416 C   0  0  0  0  0  0  0  0  0  0  0  0
   17.6944   -6.1719  -19.4856 C   0  0  0  0  0  0  0  0  0  0  0  0
   16.7897   -5.8321  -20.4209 N   0  0  0  0  0  0  0  0  0  0  0  0
   15.8649   -5.1098  -19.7655 C   0  0  0  0  0  0  0  0  0  0  0  0
   16.1750   -5.0005  -18.4734 N   0  0  0  0  0  0  0  0  0  0  0  0
   19.6020   -7.1899  -15.6951 C   0  0  0  0  0  0  0  0  0  0  0  0
   19.3326   -7.0524  -14.4933 O   0  0  0  0  0  0  0  0  0  0  0  0
   26.9901   -9.6200  -14.2327 C   0  0  0  0  0  0  0  0  0  0  0  0
   25.5637   -9.4582  -15.3130 S   0  0  0  0  0  0  0  0  0  0  0  0
   24.2849   -8.3988  -14.6122 C   0  0  0  0  0  0  0  0  0  0  0  0
   23.1009   -8.3475  -15.5244 C   0  0  0  0  0  0  0  0  0  0  0  0
   22.0398   -7.3799  -15.0510 C   0  0  2  0  0  0  0  0  0  0  0  0
   20.9749   -7.3743  -16.0360 N   0  0  0  0  0  0  0  0  0  0  0  0
   22.5507   -6.0327  -14.8267 C   0  0  0  0  0  0  0  0  0  0  0  0
   22.8439   -5.6092  -13.5449 O   0  0  0  0  0  0  0  0  0  0  0  0
   22.7324   -5.2412  -15.7783 O   0  0  0  0  0  0  0  0  0  0  0  0
  1  2  1  0
  2  3  2  0
  4  2  1  0
  5  4  1  0
  5  6  1  6
  7  5  1  0
  7  8  2  0
  9  7  1  0
 10  9  1  0
 10 11  1  1
 11 12  1  0
 12 16  1  0
 13 12  2  0
 13 14  1  0
 14 15  1  0
 16 15  2  0
 17 10  1  0
 18 17  2  0
 20 19  1  0
 21 20  1  0
 22 21  1  0
 23 22  1  6
 23 24  1  0
 24 17  1  0
 25 23  1  0
 26 25  1  0
 27 25  2  0
M  END
$$$$
