NHM.pdb
     RDKit          3D

 27 27  0  0  1  0  0  0  0  0999 V2000
   17.5299  -20.6935  -14.3373 N   0  0  0  0  0  0  0  0  0  0  0  0
   17.8528  -22.0664  -14.3215 C   0  0  0  0  0  0  0  0  0  0  0  0
   17.0483  -22.9110  -14.7471 O   0  0  0  0  0  0  0  0  0  0  0  0
   19.1702  -22.4750  -13.7868 C   0  0  0  0  0  0  0  0  0  0  0  0
   20.2363  -21.4864  -14.2018 C   0  0  2  0  0  0  0  0  0  0  0  0
   20.3686  -21.3650  -15.5892 N   0  0  0  0  0  0  0  0  0  0  0  0
   21.5178  -21.9321  -13.5922 C   0  0  0  0  0  0  0  0  0  0  0  0
   21.4865  -22.2425  -12.3643 O   0  0  0  0  0  0  0  0  0  0  0  0
   22.6851  -21.9897  -14.3843 N   0  0  0  0  0  0  0  0  0  0  0  0
   23.9113  -22.5188  -13.8110 C   0  0  1  0  0  0  0  0  0  0  0  0
   24.7617  -23.1762  -14.8465 C   0  0  0  0  0  0  0  0  0  0  0  0
   24.1038  -24.3858  -15.3765 C   0  0  0  0  0  0  0  0  0  0  0  0
   24.1245  -25.6792  -14.8782 C   0  0  0  0  0  0  0  0  0  0  0  0
   23.4251  -26.5174  -15.6635 N   0  0  0  0  0  0  0  0  0  0  0  0
   22.9594  -25.7507  -16.6645 C   0  0  0  0  0  0  0  0  0  0  0  0
   23.3496  -24.4846  -16.5146 N   0  0  0  0  0  0  0  0  0  0  0  0
   24.6365  -21.3961  -13.1882 C   0  0  0  0  0  0  0  0  0  0  0  0
   24.6348  -20.2491  -13.6576 O   0  0  0  0  0  0  0  0  0  0  0  0
   26.1210  -21.1774   -7.0210 C   0  0  0  0  0  0  0  0  0  0  0  0
   27.2519  -19.9224   -7.6324 S   0  0  0  0  0  0  0  0  0  0  0  0
   27.6282  -20.1278   -9.3831 C   0  0  0  0  0  0  0  0  0  0  0  0
   26.6192  -21.0254  -10.0255 C   0  0  0  0  0  0  0  0  0  0  0  0
   26.2985  -20.6216  -11.4469 C   0  0  2  0  0  0  0  0  0  0  0  0
   25.3832  -21.6067  -11.9910 N   0  0  0  0  0  0  0  0  0  0  0  0
   27.4830  -20.4893  -12.2869 C   0  0  0  0  0  0  0  0  0  0  0  0
   28.1186  -19.2679  -12.3981 O   0  0  0  0  0  0  0  0  0  0  0  0
   27.9436  -21.4669  -12.9172 O   0  0  0  0  0  0  0  0  0  0  0  0
  1  2  1  0
  2  3  2  0
  4  2  1  0
  5  4  1  0
  5  6  1  6
  7  5  1  0
  7  8  2  0
  9  7  1  0
 10  9  1  0
 10 11  1  6
 11 12  1  0
 12 16  1  0
 13 12  2  0
 13 14  1  0
 14 15  1  0
 16 15  2  0
 17 10  1  0
 18 17  2  0
 20 19  1  0
 21 20  1  0
 22 21  1  0
 23 22  1  1
 23 24  1  0
 24 17  1  0
 25 23  1  0
 26 25  1  0
 27 25  2  0
M  END
$$$$
