CNH.pdb
     RDKit          3D

 25 25  0  0  1  0  0  0  0  0999 V2000
   28.1877  -21.1246  -10.7514 N   0  0  0  0  0  0  0  0  0  0  0  0
   26.7793  -21.2240  -10.5127 C   0  0  1  0  0  0  0  0  0  0  0  0
   26.3088  -20.3854   -9.3477 C   0  0  0  0  0  0  0  0  0  0  0  0
   27.2209  -20.7545   -7.8407 S   0  0  0  0  0  0  0  0  0  0  0  0
   25.9808  -20.9030  -11.7149 C   0  0  0  0  0  0  0  0  0  0  0  0
   26.1552  -19.8707  -12.4125 O   0  0  0  0  0  0  0  0  0  0  0  0
   26.2029  -22.0376  -15.3861 N   0  0  0  0  0  0  0  0  0  0  0  0
   25.4144  -23.1926  -15.0242 C   0  0  0  0  0  0  0  0  0  0  0  0
   25.6858  -24.2436  -15.5912 O   0  0  0  0  0  0  0  0  0  0  0  0
   24.3887  -23.0011  -14.0361 C   0  0  0  0  0  0  0  0  0  0  0  0
   24.2181  -21.6334  -13.3993 C   0  0  2  0  0  0  0  0  0  0  0  0
   24.9673  -21.7949  -12.1087 N   0  0  0  0  0  0  0  0  0  0  0  0
   22.8507  -21.2413  -13.1183 C   0  0  0  0  0  0  0  0  0  0  0  0
   22.5895  -20.9277  -11.8990 O   0  0  0  0  0  0  0  0  0  0  0  0
   21.7542  -21.1457  -13.9932 N   0  0  0  0  0  0  0  0  0  0  0  0
   20.7614  -20.0589  -13.8769 C   0  0  1  0  0  0  0  0  0  0  0  0
   21.3497  -18.7120  -13.8206 C   0  0  0  0  0  0  0  0  0  0  0  0
   20.4565  -17.5640  -13.8292 C   0  0  0  0  0  0  0  0  0  0  0  0
   19.0941  -17.4514  -13.8966 C   0  0  0  0  0  0  0  0  0  0  0  0
   18.7299  -16.1490  -13.8439 N   0  0  0  0  0  0  0  0  0  0  0  0
   19.8684  -15.4565  -13.7431 C   0  0  0  0  0  0  0  0  0  0  0  0
   20.9059  -16.2830  -13.7328 N   0  0  0  0  0  0  0  0  0  0  0  0
   19.7657  -20.2587  -14.9501 C   0  0  0  0  0  0  0  0  0  0  0  0
   20.1417  -20.4362  -16.1332 O   0  0  0  0  0  0  0  0  0  0  0  0
   18.3975  -20.2606  -14.7117 O   0  0  0  0  0  0  0  0  0  0  0  0
  2  1  1  6
  3  4  1  0
  3  2  1  0
  5  6  2  0
  5  2  1  0
  7  8  1  0
  8  9  2  0
  8 10  1  0
 11 10  1  1
 11 13  1  0
 11 12  1  0
 12  5  1  0
 13 15  1  0
 14 13  2  0
 15 16  1  0
 16 23  1  0
 17 18  1  0
 16 17  1  6
 18 22  1  0
 19 20  1  0
 19 18  2  0
 20 21  1  0
 21 22  2  0
 23 24  2  0
 23 25  1  0
M  END
$$$$
