CNH.pdb
     RDKit          3D

 25 25  0  0  1  0  0  0  0  0999 V2000
   20.9794  -14.5532  -19.0344 N   0  0  0  0  0  0  0  0  0  0  0  0
   21.6500  -13.3519  -18.6374 C   0  0  1  0  0  0  0  0  0  0  0  0
   22.6954  -12.8947  -19.6274 C   0  0  0  0  0  0  0  0  0  0  0  0
   23.6315  -11.4848  -19.0150 S   0  0  0  0  0  0  0  0  0  0  0  0
   20.7078  -12.2472  -18.3589 C   0  0  0  0  0  0  0  0  0  0  0  0
   19.9996  -11.6959  -19.2405 O   0  0  0  0  0  0  0  0  0  0  0  0
   17.5306   -9.1927  -15.5167 N   0  0  0  0  0  0  0  0  0  0  0  0
   17.8633  -10.4510  -14.8902 C   0  0  0  0  0  0  0  0  0  0  0  0
   17.2080  -10.7650  -13.9044 O   0  0  0  0  0  0  0  0  0  0  0  0
   18.9284  -11.2144  -15.4802 C   0  0  0  0  0  0  0  0  0  0  0  0
   19.6782  -10.6443  -16.6711 C   0  0  2  0  0  0  0  0  0  0  0  0
   20.5893  -11.7793  -17.0380 N   0  0  0  0  0  0  0  0  0  0  0  0
   20.4678   -9.4582  -16.4026 C   0  0  0  0  0  0  0  0  0  0  0  0
   21.5827   -9.6455  -15.7901 O   0  0  0  0  0  0  0  0  0  0  0  0
   20.1955   -8.1162  -16.7216 N   0  0  0  0  0  0  0  0  0  0  0  0
   21.1595   -7.0375  -16.4257 C   0  0  1  0  0  0  0  0  0  0  0  0
   21.1645   -5.9490  -17.4148 C   0  0  0  0  0  0  0  0  0  0  0  0
   22.0111   -4.7920  -17.1685 C   0  0  0  0  0  0  0  0  0  0  0  0
   23.3555   -4.5806  -17.3142 C   0  0  0  0  0  0  0  0  0  0  0  0
   23.6677   -3.3082  -16.9747 N   0  0  0  0  0  0  0  0  0  0  0  0
   22.5149   -2.7329  -16.6197 C   0  0  0  0  0  0  0  0  0  0  0  0
   21.5185   -3.6017  -16.7292 N   0  0  0  0  0  0  0  0  0  0  0  0
   20.9235   -6.6101  -15.0310 C   0  0  0  0  0  0  0  0  0  0  0  0
   21.6284   -5.7069  -14.5212 O   0  0  0  0  0  0  0  0  0  0  0  0
   19.9351   -7.1710  -14.2328 O   0  0  0  0  0  0  0  0  0  0  0  0
  2  1  1  6
  3  4  1  0
  3  2  1  0
  5  6  2  0
  5  2  1  0
  7  8  1  0
  8  9  2  0
  8 10  1  0
 11 10  1  1
 11 13  1  0
 11 12  1  0
 12  5  1  0
 13 15  1  0
 14 13  2  0
 15 16  1  0
 16 23  1  0
 17 18  1  0
 16 17  1  6
 18 22  1  0
 19 20  1  0
 19 18  2  0
 20 21  1  0
 21 22  2  0
 23 24  2  0
 23 25  1  0
M  END
$$$$
