CNH.pdb
     RDKit          3D

 25 25  0  0  1  0  0  0  0  0999 V2000
   31.5609  -17.2385  -18.5806 N   0  0  0  0  0  0  0  0  0  0  0  0
   32.3927  -16.1457  -18.9859 C   0  0  1  0  0  0  0  0  0  0  0  0
   33.4168  -16.5274  -20.0287 C   0  0  0  0  0  0  0  0  0  0  0  0
   34.5479  -17.7927  -19.4300 S   0  0  0  0  0  0  0  0  0  0  0  0
   31.6072  -14.9854  -19.4575 C   0  0  0  0  0  0  0  0  0  0  0  0
   30.8284  -15.0255  -20.4447 O   0  0  0  0  0  0  0  0  0  0  0  0
   28.7587  -10.7396  -19.4115 N   0  0  0  0  0  0  0  0  0  0  0  0
   28.4295  -12.0623  -18.9331 C   0  0  0  0  0  0  0  0  0  0  0  0
   27.2472  -12.2867  -18.7060 O   0  0  0  0  0  0  0  0  0  0  0  0
   29.5163  -12.9881  -18.7690 C   0  0  0  0  0  0  0  0  0  0  0  0
   30.9229  -12.5543  -19.1415 C   0  0  2  0  0  0  0  0  0  0  0  0
   31.7304  -13.7642  -18.7710 N   0  0  0  0  0  0  0  0  0  0  0  0
   31.4296  -11.3982  -18.4280 C   0  0  0  0  0  0  0  0  0  0  0  0
   31.8776  -11.6146  -17.2424 O   0  0  0  0  0  0  0  0  0  0  0  0
   31.5110  -10.0585  -18.8471 N   0  0  0  0  0  0  0  0  0  0  0  0
   32.1406   -9.0199  -18.0073 C   0  0  1  0  0  0  0  0  0  0  0  0
   33.0302   -8.1097  -18.7445 C   0  0  0  0  0  0  0  0  0  0  0  0
   34.3199   -8.6118  -19.1920 C   0  0  0  0  0  0  0  0  0  0  0  0
   35.2936   -9.3465  -18.5711 C   0  0  0  0  0  0  0  0  0  0  0  0
   36.3124   -9.5905  -19.4279 N   0  0  0  0  0  0  0  0  0  0  0  0
   35.9674   -9.0065  -20.5793 C   0  0  0  0  0  0  0  0  0  0  0  0
   34.7842   -8.4194  -20.4568 N   0  0  0  0  0  0  0  0  0  0  0  0
   31.0601   -8.3556  -17.2492 C   0  0  0  0  0  0  0  0  0  0  0  0
   29.8601   -8.6179  -17.5017 O   0  0  0  0  0  0  0  0  0  0  0  0
   31.3099   -7.4306  -16.2438 O   0  0  0  0  0  0  0  0  0  0  0  0
  2  1  1  6
  3  4  1  0
  3  2  1  0
  5  6  2  0
  5  2  1  0
  7  8  1  0
  8  9  2  0
  8 10  1  0
 11 10  1  1
 11 13  1  0
 11 12  1  0
 12  5  1  0
 13 15  1  0
 14 13  2  0
 15 16  1  0
 16 23  1  0
 17 18  1  0
 16 17  1  6
 18 22  1  0
 19 20  1  0
 19 18  2  0
 20 21  1  0
 21 22  2  0
 23 24  2  0
 23 25  1  0
M  END
$$$$
