CNH.pdb
     RDKit          3D

 25 25  0  0  1  0  0  0  0  0999 V2000
   31.3399  -26.1804  -19.8935 N   0  0  0  0  0  0  0  0  0  0  0  0
   30.8922  -26.2412  -18.5347 C   0  0  1  0  0  0  0  0  0  0  0  0
   30.9600  -24.9110  -17.8219 C   0  0  0  0  0  0  0  0  0  0  0  0
   32.6569  -24.3616  -17.5819 S   0  0  0  0  0  0  0  0  0  0  0  0
   29.5302  -26.8037  -18.4156 C   0  0  0  0  0  0  0  0  0  0  0  0
   28.6361  -26.6559  -19.2882 O   0  0  0  0  0  0  0  0  0  0  0  0
   26.0058  -30.3146  -16.8823 N   0  0  0  0  0  0  0  0  0  0  0  0
   27.2426  -30.4690  -16.1520 C   0  0  0  0  0  0  0  0  0  0  0  0
   27.3843  -31.5106  -15.5239 O   0  0  0  0  0  0  0  0  0  0  0  0
   28.1880  -29.3895  -16.2307 C   0  0  0  0  0  0  0  0  0  0  0  0
   27.8548  -28.1715  -17.0739 C   0  0  2  0  0  0  0  0  0  0  0  0
   29.2060  -27.5469  -17.2665 N   0  0  0  0  0  0  0  0  0  0  0  0
   26.9617  -27.2102  -16.4571 C   0  0  0  0  0  0  0  0  0  0  0  0
   27.5135  -26.3207  -15.7104 O   0  0  0  0  0  0  0  0  0  0  0  0
   25.5637  -27.1001  -16.5599 N   0  0  0  0  0  0  0  0  0  0  0  0
   24.8800  -25.7941  -16.4748 C   0  0  1  0  0  0  0  0  0  0  0  0
   25.5055  -24.7355  -17.2819 C   0  0  0  0  0  0  0  0  0  0  0  0
   24.8326  -23.4497  -17.3810 C   0  0  0  0  0  0  0  0  0  0  0  0
   23.6991  -22.9505  -16.7984 C   0  0  0  0  0  0  0  0  0  0  0  0
   23.4962  -21.6715  -17.1916 N   0  0  0  0  0  0  0  0  0  0  0  0
   24.5056  -21.3802  -18.0175 C   0  0  0  0  0  0  0  0  0  0  0  0
   25.3106  -22.4272  -18.1415 N   0  0  0  0  0  0  0  0  0  0  0  0
   23.4492  -26.0297  -16.7585 C   0  0  0  0  0  0  0  0  0  0  0  0
   22.6240  -25.0908  -16.6575 O   0  0  0  0  0  0  0  0  0  0  0  0
   22.9559  -27.2700  -17.1418 O   0  0  0  0  0  0  0  0  0  0  0  0
  2  1  1  6
  3  4  1  0
  3  2  1  0
  5  6  2  0
  5  2  1  0
  7  8  1  0
  8  9  2  0
  8 10  1  0
 11 10  1  1
 11 13  1  0
 11 12  1  0
 12  5  1  0
 13 15  1  0
 14 13  2  0
 15 16  1  0
 16 23  1  0
 17 18  1  0
 16 17  1  6
 18 22  1  0
 19 20  1  0
 19 18  2  0
 20 21  1  0
 21 22  2  0
 23 24  2  0
 23 25  1  0
M  END
$$$$
