CNH.pdb
     RDKit          3D

 25 25  0  0  1  0  0  0  0  0999 V2000
   17.8435  -14.0289  -17.9862 N   0  0  0  0  0  0  0  0  0  0  0  0
   17.7603  -13.1867  -16.8311 C   0  0  1  0  0  0  0  0  0  0  0  0
   18.9010  -13.3863  -15.8611 C   0  0  0  0  0  0  0  0  0  0  0  0
   18.6768  -14.8596  -14.8521 S   0  0  0  0  0  0  0  0  0  0  0  0
   17.6493  -11.7555  -17.1850 C   0  0  0  0  0  0  0  0  0  0  0  0
   18.4963  -11.1427  -17.8847 O   0  0  0  0  0  0  0  0  0  0  0  0
   13.0180   -7.8431  -16.1907 N   0  0  0  0  0  0  0  0  0  0  0  0
   14.3537   -8.0243  -16.7100 C   0  0  0  0  0  0  0  0  0  0  0  0
   14.9144   -7.0269  -17.1464 O   0  0  0  0  0  0  0  0  0  0  0  0
   14.8981   -9.3536  -16.6659 C   0  0  0  0  0  0  0  0  0  0  0  0
   16.3632   -9.5668  -17.0029 C   0  0  2  0  0  0  0  0  0  0  0  0
   16.5386  -11.0301  -16.7183 N   0  0  0  0  0  0  0  0  0  0  0  0
   17.3046   -8.8035  -16.2070 C   0  0  0  0  0  0  0  0  0  0  0  0
   17.6378   -9.3161  -15.0758 O   0  0  0  0  0  0  0  0  0  0  0  0
   17.9207   -7.5727  -16.4940 N   0  0  0  0  0  0  0  0  0  0  0  0
   18.8376   -6.9222  -15.5366 C   0  0  1  0  0  0  0  0  0  0  0  0
   20.0751   -7.6758  -15.2839 C   0  0  0  0  0  0  0  0  0  0  0  0
   21.1389   -7.0301  -14.5307 C   0  0  0  0  0  0  0  0  0  0  0  0
   21.9465   -5.9588  -14.8016 C   0  0  0  0  0  0  0  0  0  0  0  0
   22.7757   -5.7233  -13.7582 N   0  0  0  0  0  0  0  0  0  0  0  0
   22.4796   -6.6497  -12.8417 C   0  0  0  0  0  0  0  0  0  0  0  0
   21.5074   -7.4358  -13.2849 N   0  0  0  0  0  0  0  0  0  0  0  0
   19.0382   -5.5327  -15.9976 C   0  0  0  0  0  0  0  0  0  0  0  0
   18.6288   -5.1790  -17.1289 O   0  0  0  0  0  0  0  0  0  0  0  0
   19.6737   -4.5710  -15.2230 O   0  0  0  0  0  0  0  0  0  0  0  0
  2  1  1  6
  3  4  1  0
  3  2  1  0
  5  6  2  0
  5  2  1  0
  7  8  1  0
  8  9  2  0
  8 10  1  0
 11 10  1  1
 11 13  1  0
 11 12  1  0
 12  5  1  0
 13 15  1  0
 14 13  2  0
 15 16  1  0
 16 23  1  0
 17 18  1  0
 16 17  1  6
 18 22  1  0
 19 20  1  0
 19 18  2  0
 20 21  1  0
 21 22  2  0
 23 24  2  0
 23 25  1  0
M  END
$$$$
