CNH.pdb
     RDKit          3D

 25 25  0  0  1  0  0  0  0  0999 V2000
   19.6067  -22.3158  -12.7250 N   0  0  0  0  0  0  0  0  0  0  0  0
   19.5854  -21.2485  -13.6795 C   0  0  1  0  0  0  0  0  0  0  0  0
   18.3147  -20.4328  -13.6372 C   0  0  0  0  0  0  0  0  0  0  0  0
   17.1309  -21.0913  -12.4524 S   0  0  0  0  0  0  0  0  0  0  0  0
   20.7573  -20.3562  -13.5520 C   0  0  0  0  0  0  0  0  0  0  0  0
   21.3212  -20.0980  -12.4575 O   0  0  0  0  0  0  0  0  0  0  0  0
   25.3882  -18.6359  -14.2917 N   0  0  0  0  0  0  0  0  0  0  0  0
   24.9536  -20.0134  -14.3071 C   0  0  0  0  0  0  0  0  0  0  0  0
   25.8053  -20.8617  -14.0734 O   0  0  0  0  0  0  0  0  0  0  0  0
   23.5670  -20.2589  -14.5942 C   0  0  0  0  0  0  0  0  0  0  0  0
   22.6181  -19.0816  -14.7313 C   0  0  2  0  0  0  0  0  0  0  0  0
   21.2781  -19.7577  -14.7132 N   0  0  0  0  0  0  0  0  0  0  0  0
   22.7531  -18.3092  -15.9510 C   0  0  0  0  0  0  0  0  0  0  0  0
   22.3050  -18.8592  -17.0234 O   0  0  0  0  0  0  0  0  0  0  0  0
   23.3029  -17.0287  -16.1377 N   0  0  0  0  0  0  0  0  0  0  0  0
   23.3258  -16.3802  -17.4641 C   0  0  1  0  0  0  0  0  0  0  0  0
   24.2043  -17.0418  -18.4407 C   0  0  0  0  0  0  0  0  0  0  0  0
   25.6042  -17.2341  -18.0957 C   0  0  0  0  0  0  0  0  0  0  0  0
   26.3522  -16.8530  -17.0146 C   0  0  0  0  0  0  0  0  0  0  0  0
   27.6229  -17.3002  -17.1448 N   0  0  0  0  0  0  0  0  0  0  0  0
   27.6597  -17.9588  -18.3070 C   0  0  0  0  0  0  0  0  0  0  0  0
   26.4667  -17.9295  -18.8862 N   0  0  0  0  0  0  0  0  0  0  0  0
   21.9222  -16.2205  -17.8976 C   0  0  0  0  0  0  0  0  0  0  0  0
   21.0329  -16.9803  -17.4454 O   0  0  0  0  0  0  0  0  0  0  0  0
   21.5245  -15.2466  -18.8043 O   0  0  0  0  0  0  0  0  0  0  0  0
  2  1  1  1
  3  4  1  0
  3  2  1  0
  5  6  2  0
  5  2  1  0
  7  8  1  0
  8  9  2  0
  8 10  1  0
 11 10  1  6
 11 13  1  0
 11 12  1  0
 12  5  1  0
 13 15  1  0
 14 13  2  0
 15 16  1  0
 16 23  1  0
 17 18  1  0
 16 17  1  6
 18 22  1  0
 19 20  1  0
 19 18  2  0
 20 21  1  0
 21 22  2  0
 23 24  2  0
 23 25  1  0
M  END
$$$$
