CNH.pdb
     RDKit          3D

 25 25  0  0  1  0  0  0  0  0999 V2000
   19.4559  -11.5943  -16.1609 N   0  0  0  0  0  0  0  0  0  0  0  0
   19.2980  -10.4721  -17.0363 C   0  0  1  0  0  0  0  0  0  0  0  0
   17.8568  -10.1817  -17.3833 C   0  0  0  0  0  0  0  0  0  0  0  0
   17.0628  -11.5819  -18.1883 S   0  0  0  0  0  0  0  0  0  0  0  0
   19.9410   -9.2507  -16.5068 C   0  0  0  0  0  0  0  0  0  0  0  0
   19.5505   -8.6493  -15.4731 O   0  0  0  0  0  0  0  0  0  0  0  0
   22.8651   -9.0208  -14.5135 N   0  0  0  0  0  0  0  0  0  0  0  0
   23.7482   -8.8102  -15.6372 C   0  0  0  0  0  0  0  0  0  0  0  0
   24.8586   -9.3218  -15.5677 O   0  0  0  0  0  0  0  0  0  0  0  0
   23.2427   -8.0228  -16.7280 C   0  0  0  0  0  0  0  0  0  0  0  0
   21.8075   -7.5294  -16.6841 C   0  0  2  0  0  0  0  0  0  0  0  0
   21.0518   -8.7237  -17.1896 N   0  0  0  0  0  0  0  0  0  0  0  0
   21.5153   -6.3826  -17.5220 C   0  0  0  0  0  0  0  0  0  0  0  0
   21.6087   -6.5685  -18.7908 O   0  0  0  0  0  0  0  0  0  0  0  0
   21.1340   -5.0816  -17.1493 N   0  0  0  0  0  0  0  0  0  0  0  0
   20.7901   -4.0561  -18.1545 C   0  0  1  0  0  0  0  0  0  0  0  0
   19.7949   -3.0753  -17.6952 C   0  0  0  0  0  0  0  0  0  0  0  0
   19.4091   -2.0032  -18.5994 C   0  0  0  0  0  0  0  0  0  0  0  0
   20.0919   -0.9335  -19.1121 C   0  0  0  0  0  0  0  0  0  0  0  0
   19.2936   -0.2252  -19.9444 N   0  0  0  0  0  0  0  0  0  0  0  0
   18.1168   -0.8583  -19.9463 C   0  0  0  0  0  0  0  0  0  0  0  0
   18.1678   -1.9189  -19.1512 N   0  0  0  0  0  0  0  0  0  0  0  0
   22.0593   -3.4748  -18.6387 C   0  0  0  0  0  0  0  0  0  0  0  0
   23.1246   -3.6738  -18.0077 O   0  0  0  0  0  0  0  0  0  0  0  0
   22.1374   -2.6983  -19.7875 O   0  0  0  0  0  0  0  0  0  0  0  0
  2  1  1  1
  3  4  1  0
  3  2  1  0
  5  6  2  0
  5  2  1  0
  7  8  1  0
  8  9  2  0
  8 10  1  0
 11 10  1  6
 11 13  1  0
 11 12  1  0
 12  5  1  0
 13 15  1  0
 14 13  2  0
 15 16  1  0
 16 23  1  0
 17 18  1  0
 16 17  1  1
 18 22  1  0
 19 20  1  0
 19 18  2  0
 20 21  1  0
 21 22  2  0
 23 24  2  0
 23 25  1  0
M  END
$$$$
