CNH.pdb
     RDKit          3D

 25 25  0  0  1  0  0  0  0  0999 V2000
   24.0877  -23.7472  -14.8931 N   0  0  0  0  0  0  0  0  0  0  0  0
   24.1843  -24.0033  -16.2987 C   0  0  1  0  0  0  0  0  0  0  0  0
   24.1656  -22.7480  -17.1387 C   0  0  0  0  0  0  0  0  0  0  0  0
   24.0264  -21.2645  -16.1294 S   0  0  0  0  0  0  0  0  0  0  0  0
   25.3697  -24.8174  -16.6421 C   0  0  0  0  0  0  0  0  0  0  0  0
   26.5539  -24.4470  -16.4339 O   0  0  0  0  0  0  0  0  0  0  0  0
   27.8200  -29.4928  -15.6410 N   0  0  0  0  0  0  0  0  0  0  0  0
   28.0479  -28.1398  -16.0929 C   0  0  0  0  0  0  0  0  0  0  0  0
   29.2054  -27.8330  -16.3491 O   0  0  0  0  0  0  0  0  0  0  0  0
   26.8989  -27.2832  -16.1993 C   0  0  0  0  0  0  0  0  0  0  0  0
   26.3170  -26.9895  -17.5707 C   0  0  2  0  0  0  0  0  0  0  0  0
   25.1732  -26.0774  -17.2350 N   0  0  0  0  0  0  0  0  0  0  0  0
   25.8193  -28.1411  -18.2977 C   0  0  0  0  0  0  0  0  0  0  0  0
   24.6315  -28.0382  -18.7792 O   0  0  0  0  0  0  0  0  0  0  0  0
   26.4525  -29.3680  -18.5637 N   0  0  0  0  0  0  0  0  0  0  0  0
   25.7873  -30.4314  -19.3428 C   0  0  1  0  0  0  0  0  0  0  0  0
   26.1466  -30.4449  -20.7690 C   0  0  0  0  0  0  0  0  0  0  0  0
   27.5559  -30.4552  -21.1291 C   0  0  0  0  0  0  0  0  0  0  0  0
   28.6084  -31.2329  -20.7280 C   0  0  0  0  0  0  0  0  0  0  0  0
   29.7356  -30.8662  -21.3811 N   0  0  0  0  0  0  0  0  0  0  0  0
   29.3789  -29.8616  -22.1869 C   0  0  0  0  0  0  0  0  0  0  0  0
   28.0849  -29.6040  -22.0499 N   0  0  0  0  0  0  0  0  0  0  0  0
   26.0183  -31.7054  -18.6307 C   0  0  0  0  0  0  0  0  0  0  0  0
   26.8145  -31.7508  -17.6629 O   0  0  0  0  0  0  0  0  0  0  0  0
   25.3827  -32.8880  -18.9861 O   0  0  0  0  0  0  0  0  0  0  0  0
  2  1  1  1
  3  4  1  0
  3  2  1  0
  5  6  2  0
  5  2  1  0
  7  8  1  0
  8  9  2  0
  8 10  1  0
 11 10  1  1
 11 13  1  0
 11 12  1  0
 12  5  1  0
 13 15  1  0
 14 13  2  0
 15 16  1  0
 16 23  1  0
 17 18  1  0
 16 17  1  6
 18 22  1  0
 19 20  1  0
 19 18  2  0
 20 21  1  0
 21 22  2  0
 23 24  2  0
 23 25  1  0
M  END
$$$$
