CNH.pdb
     RDKit          3D

 25 25  0  0  1  0  0  0  0  0999 V2000
   25.7366  -15.3318  -16.9221 N   0  0  0  0  0  0  0  0  0  0  0  0
   25.4032  -14.3852  -15.9006 C   0  0  1  0  0  0  0  0  0  0  0  0
   26.5756  -13.5393  -15.4625 C   0  0  0  0  0  0  0  0  0  0  0  0
   27.9505  -14.5442  -14.8804 S   0  0  0  0  0  0  0  0  0  0  0  0
   24.2743  -13.5129  -16.2886 C   0  0  0  0  0  0  0  0  0  0  0  0
   23.9762  -13.2477  -17.4817 O   0  0  0  0  0  0  0  0  0  0  0  0
   18.8088  -13.0608  -15.6215 N   0  0  0  0  0  0  0  0  0  0  0  0
   19.8381  -12.2835  -14.9710 C   0  0  0  0  0  0  0  0  0  0  0  0
   19.4962  -11.2100  -14.4911 O   0  0  0  0  0  0  0  0  0  0  0  0
   21.1626  -12.8407  -14.9478 C   0  0  0  0  0  0  0  0  0  0  0  0
   22.3049  -12.0651  -15.5793 C   0  0  2  0  0  0  0  0  0  0  0  0
   23.4836  -12.9431  -15.2748 N   0  0  0  0  0  0  0  0  0  0  0  0
   22.5359  -10.7406  -15.0364 C   0  0  0  0  0  0  0  0  0  0  0  0
   23.6123  -10.5887  -14.3497 O   0  0  0  0  0  0  0  0  0  0  0  0
   21.7510   -9.5801  -15.1555 N   0  0  0  0  0  0  0  0  0  0  0  0
   22.3125   -8.3126  -15.6640 C   0  0  1  0  0  0  0  0  0  0  0  0
   23.1510   -8.4657  -16.8627 C   0  0  0  0  0  0  0  0  0  0  0  0
   23.7163   -7.2714  -17.4709 C   0  0  0  0  0  0  0  0  0  0  0  0
   24.2415   -6.1232  -16.9425 C   0  0  0  0  0  0  0  0  0  0  0  0
   24.6692   -5.3062  -17.9330 N   0  0  0  0  0  0  0  0  0  0  0  0
   24.4086   -5.9506  -19.0743 C   0  0  0  0  0  0  0  0  0  0  0  0
   23.8415   -7.1220  -18.8178 N   0  0  0  0  0  0  0  0  0  0  0  0
   21.1899   -7.3626  -15.8070 C   0  0  0  0  0  0  0  0  0  0  0  0
   20.1796   -7.6779  -16.4798 O   0  0  0  0  0  0  0  0  0  0  0  0
   21.1940   -6.1042  -15.2194 O   0  0  0  0  0  0  0  0  0  0  0  0
  2  1  1  6
  3  4  1  0
  3  2  1  0
  5  6  2  0
  5  2  1  0
  7  8  1  0
  8  9  2  0
  8 10  1  0
 11 10  1  1
 11 13  1  0
 11 12  1  0
 12  5  1  0
 13 15  1  0
 14 13  2  0
 15 16  1  0
 16 23  1  0
 17 18  1  0
 16 17  1  6
 18 22  1  0
 19 20  1  0
 19 18  2  0
 20 21  1  0
 21 22  2  0
 23 24  2  0
 23 25  1  0
M  END
$$$$
