KGG.pdb
     RDKit          3D

 18 17  0  0  1  0  0  0  0  0999 V2000
   29.0796  -20.4666  -13.1330 N   0  0  0  0  0  0  0  0  0  0  0  0
   28.7887  -20.9245  -11.8402 C   0  0  1  0  0  0  0  0  0  0  0  0
   29.6825  -20.5616  -10.7169 C   0  0  0  0  0  0  0  0  0  0  0  0
   30.9233  -21.3136  -10.5225 C   0  0  0  0  0  0  0  0  0  0  0  0
   31.4949  -22.2290  -11.4896 C   0  0  0  0  0  0  0  0  0  0  0  0
   32.7154  -23.0090  -11.2833 C   0  0  0  0  0  0  0  0  0  0  0  0
   33.1852  -23.7882  -12.4003 N   0  0  0  0  0  0  0  0  0  0  0  0
   27.3619  -20.5696  -11.4367 C   0  0  0  0  0  0  0  0  0  0  0  0
   27.0732  -19.3958  -11.0913 O   0  0  0  0  0  0  0  0  0  0  0  0
   26.3244  -21.5339  -11.4359 N   0  0  0  0  0  0  0  0  0  0  0  0
   24.9767  -21.1926  -11.0294 C   0  0  0  0  0  0  0  0  0  0  0  0
   24.1853  -20.6438  -12.1596 C   0  0  0  0  0  0  0  0  0  0  0  0
   24.7481  -19.8183  -12.9223 O   0  0  0  0  0  0  0  0  0  0  0  0
   22.8498  -20.9934  -12.4229 N   0  0  0  0  0  0  0  0  0  0  0  0
   22.1399  -20.6321  -13.6290 C   0  0  0  0  0  0  0  0  0  0  0  0
   20.8041  -21.2454  -13.5913 C   0  0  0  0  0  0  0  0  0  0  0  0
   20.5625  -22.2932  -12.7300 O   0  0  0  0  0  0  0  0  0  0  0  0
   19.8880  -20.8323  -14.3259 O   0  0  0  0  0  0  0  0  0  0  0  0
  2  1  1  6
  3  2  1  0
  4  3  1  0
  5  6  1  0
  5  4  1  0
  7  6  1  0
  8  2  1  0
  8  9  2  0
 10  8  1  0
 11 10  1  0
 11 12  1  0
 12 14  1  0
 13 12  2  0
 14 15  1  0
 15 16  1  0
 16 17  1  0
 18 16  2  0
M  END
$$$$
