KGG.pdb
     RDKit          3D

 18 17  0  0  1  0  0  0  0  0999 V2000
   19.6261  -11.9330  -19.3558 N   0  0  0  0  0  0  0  0  0  0  0  0
   20.0100  -12.2602  -18.0476 C   0  0  1  0  0  0  0  0  0  0  0  0
   20.7756  -13.5029  -17.7989 C   0  0  0  0  0  0  0  0  0  0  0  0
   20.2586  -14.7726  -18.3120 C   0  0  0  0  0  0  0  0  0  0  0  0
   21.0137  -16.0081  -18.3732 C   0  0  0  0  0  0  0  0  0  0  0  0
   20.5574  -17.2359  -19.0250 C   0  0  0  0  0  0  0  0  0  0  0  0
   21.4835  -18.3390  -19.0538 N   0  0  0  0  0  0  0  0  0  0  0  0
   20.7597  -11.1083  -17.3877 C   0  0  0  0  0  0  0  0  0  0  0  0
   21.2444  -11.2436  -16.2357 O   0  0  0  0  0  0  0  0  0  0  0  0
   20.9355   -9.8622  -18.0376 N   0  0  0  0  0  0  0  0  0  0  0  0
   21.7604   -8.8201  -17.4620 C   0  0  0  0  0  0  0  0  0  0  0  0
   20.9796   -7.9402  -16.5558 C   0  0  0  0  0  0  0  0  0  0  0  0
   19.7257   -8.0083  -16.6104 O   0  0  0  0  0  0  0  0  0  0  0  0
   21.5606   -7.0406  -15.6458 N   0  0  0  0  0  0  0  0  0  0  0  0
   20.8075   -6.1314  -14.8119 C   0  0  0  0  0  0  0  0  0  0  0  0
   21.7466   -5.2241  -14.1360 C   0  0  0  0  0  0  0  0  0  0  0  0
   23.1016   -5.4518  -14.2369 O   0  0  0  0  0  0  0  0  0  0  0  0
   21.3360   -4.2532  -13.4739 O   0  0  0  0  0  0  0  0  0  0  0  0
  2  1  1  6
  3  2  1  0
  4  3  1  0
  5  6  1  0
  5  4  1  0
  7  6  1  0
  8  2  1  0
  8  9  2  0
 10  8  1  0
 11 10  1  0
 11 12  1  0
 12 14  1  0
 13 12  2  0
 14 15  1  0
 15 16  1  0
 16 17  1  0
 18 16  2  0
M  END
$$$$
