KGG.pdb
     RDKit          3D

 18 17  0  0  1  0  0  0  0  0999 V2000
   19.6912  -22.2336  -12.8298 N   0  0  0  0  0  0  0  0  0  0  0  0
   20.3574  -21.8012  -13.9852 C   0  0  1  0  0  0  0  0  0  0  0  0
   20.5652  -22.7454  -15.1067 C   0  0  0  0  0  0  0  0  0  0  0  0
   21.5413  -23.8259  -14.9564 C   0  0  0  0  0  0  0  0  0  0  0  0
   22.9703  -23.6814  -15.1492 C   0  0  0  0  0  0  0  0  0  0  0  0
   23.9392  -24.7752  -15.0748 C   0  0  0  0  0  0  0  0  0  0  0  0
   25.3238  -24.4314  -15.2752 N   0  0  0  0  0  0  0  0  0  0  0  0
   19.7197  -20.5367  -14.5498 C   0  0  0  0  0  0  0  0  0  0  0  0
   18.7517  -20.6159  -15.3480 O   0  0  0  0  0  0  0  0  0  0  0  0
   20.1866  -19.2456  -14.2016 N   0  0  0  0  0  0  0  0  0  0  0  0
   20.7771  -18.3647  -15.1882 C   0  0  0  0  0  0  0  0  0  0  0  0
   22.2586  -18.3443  -15.0885 C   0  0  0  0  0  0  0  0  0  0  0  0
   22.7771  -18.6964  -13.9990 O   0  0  0  0  0  0  0  0  0  0  0  0
   23.1086  -17.9556  -16.1380 N   0  0  0  0  0  0  0  0  0  0  0  0
   24.5465  -18.0997  -16.1122 C   0  0  0  0  0  0  0  0  0  0  0  0
   25.0919  -17.6145  -17.3886 C   0  0  0  0  0  0  0  0  0  0  0  0
   26.4563  -17.5885  -17.5775 O   0  0  0  0  0  0  0  0  0  0  0  0
   24.3394  -17.2266  -18.3012 O   0  0  0  0  0  0  0  0  0  0  0  0
  2  1  1  1
  3  2  1  0
  4  3  1  0
  5  6  1  0
  5  4  1  0
  7  6  1  0
  8  2  1  0
  8  9  2  0
 10  8  1  0
 11 10  1  0
 11 12  1  0
 12 14  1  0
 13 12  2  0
 14 15  1  0
 15 16  1  0
 16 17  1  0
 18 16  2  0
M  END
$$$$
