KGG.pdb
     RDKit          3D

 18 17  0  0  1  0  0  0  0  0999 V2000
   25.3059  -22.6541  -13.3965 N   0  0  0  0  0  0  0  0  0  0  0  0
   25.2715  -21.3445  -12.8969 C   0  0  1  0  0  0  0  0  0  0  0  0
   26.3646  -20.8671  -12.0195 C   0  0  0  0  0  0  0  0  0  0  0  0
   26.1228  -20.7490  -10.5807 C   0  0  0  0  0  0  0  0  0  0  0  0
   24.9130  -21.1780   -9.9080 C   0  0  0  0  0  0  0  0  0  0  0  0
   24.6293  -20.9752   -8.4871 C   0  0  0  0  0  0  0  0  0  0  0  0
   23.3950  -21.5240   -7.9863 N   0  0  0  0  0  0  0  0  0  0  0  0
   25.0956  -20.3292  -14.0206 C   0  0  0  0  0  0  0  0  0  0  0  0
   25.8776  -19.3498  -14.1193 O   0  0  0  0  0  0  0  0  0  0  0  0
   24.0609  -20.4494  -14.9803 N   0  0  0  0  0  0  0  0  0  0  0  0
   23.8939  -19.4728  -16.0368 C   0  0  0  0  0  0  0  0  0  0  0  0
   22.6640  -18.6629  -15.8456 C   0  0  0  0  0  0  0  0  0  0  0  0
   22.0103  -18.8321  -14.7854 O   0  0  0  0  0  0  0  0  0  0  0  0
   22.1927  -17.7230  -16.7780 N   0  0  0  0  0  0  0  0  0  0  0  0
   20.8993  -17.0825  -16.7004 C   0  0  0  0  0  0  0  0  0  0  0  0
   20.7634  -16.1558  -17.8339 C   0  0  0  0  0  0  0  0  0  0  0  0
   20.1555  -14.9344  -17.6427 O   0  0  0  0  0  0  0  0  0  0  0  0
   21.1894  -16.4581  -18.9638 O   0  0  0  0  0  0  0  0  0  0  0  0
  2  1  1  6
  3  2  1  0
  4  3  1  0
  5  6  1  0
  5  4  1  0
  7  6  1  0
  8  2  1  0
  8  9  2  0
 10  8  1  0
 11 10  1  0
 11 12  1  0
 12 14  1  0
 13 12  2  0
 14 15  1  0
 15 16  1  0
 16 17  1  0
 18 16  2  0
M  END
$$$$
