KGG.pdb
     RDKit          3D

 18 17  0  0  1  0  0  0  0  0999 V2000
   25.8727  -21.6531  -13.3656 N   0  0  0  0  0  0  0  0  0  0  0  0
   26.2092  -20.4682  -12.6959 C   0  0  1  0  0  0  0  0  0  0  0  0
   27.1310  -20.5184  -11.5383 C   0  0  0  0  0  0  0  0  0  0  0  0
   26.5812  -20.7344  -10.1990 C   0  0  0  0  0  0  0  0  0  0  0  0
   25.1990  -21.0660   -9.9167 C   0  0  0  0  0  0  0  0  0  0  0  0
   24.6241  -21.1843   -8.5765 C   0  0  0  0  0  0  0  0  0  0  0  0
   23.1972  -21.3655   -8.4952 N   0  0  0  0  0  0  0  0  0  0  0  0
   26.7330  -19.4152  -13.6662 C   0  0  0  0  0  0  0  0  0  0  0  0
   27.4745  -19.7486  -14.6251 O   0  0  0  0  0  0  0  0  0  0  0  0
   26.4089  -18.0436  -13.5259 N   0  0  0  0  0  0  0  0  0  0  0  0
   26.9384  -17.0460  -14.4327 C   0  0  0  0  0  0  0  0  0  0  0  0
   26.0747  -16.8787  -15.6290 C   0  0  0  0  0  0  0  0  0  0  0  0
   24.9129  -17.3563  -15.5839 O   0  0  0  0  0  0  0  0  0  0  0  0
   26.4810  -16.2200  -16.8020 N   0  0  0  0  0  0  0  0  0  0  0  0
   25.6191  -15.9807  -17.9374 C   0  0  0  0  0  0  0  0  0  0  0  0
   26.3711  -15.2234  -18.9487 C   0  0  0  0  0  0  0  0  0  0  0  0
   25.7006  -14.6618  -20.0133 O   0  0  0  0  0  0  0  0  0  0  0  0
   27.6044  -15.0819  -18.8579 O   0  0  0  0  0  0  0  0  0  0  0  0
  2  1  1  6
  3  2  1  0
  4  3  1  0
  5  6  1  0
  5  4  1  0
  7  6  1  0
  8  2  1  0
  8  9  2  0
 10  8  1  0
 11 10  1  0
 11 12  1  0
 12 14  1  0
 13 12  2  0
 14 15  1  0
 15 16  1  0
 16 17  1  0
 18 16  2  0
M  END
$$$$
