KGG.pdb
     RDKit          3D

 18 17  0  0  1  0  0  0  0  0999 V2000
   24.9793  -21.6084  -15.3106 N   0  0  0  0  0  0  0  0  0  0  0  0
   25.1940  -20.2236  -15.3588 C   0  0  1  0  0  0  0  0  0  0  0  0
   24.0673  -19.2990  -15.0980 C   0  0  0  0  0  0  0  0  0  0  0  0
   22.9123  -19.7802  -14.3383 C   0  0  0  0  0  0  0  0  0  0  0  0
   21.6491  -20.1842  -14.9224 C   0  0  0  0  0  0  0  0  0  0  0  0
   20.4641  -20.5800  -14.1611 C   0  0  0  0  0  0  0  0  0  0  0  0
   19.3281  -21.0387  -14.9191 N   0  0  0  0  0  0  0  0  0  0  0  0
   26.3545  -19.8131  -14.4593 C   0  0  0  0  0  0  0  0  0  0  0  0
   26.6069  -18.5971  -14.2639 O   0  0  0  0  0  0  0  0  0  0  0  0
   27.1789  -20.7712  -13.8202 N   0  0  0  0  0  0  0  0  0  0  0  0
   28.1221  -20.3884  -12.7897 C   0  0  0  0  0  0  0  0  0  0  0  0
   27.6861  -20.8515  -11.4478 C   0  0  0  0  0  0  0  0  0  0  0  0
   28.5216  -20.7989  -10.5101 O   0  0  0  0  0  0  0  0  0  0  0  0
   26.3992  -21.3424  -11.1689 N   0  0  0  0  0  0  0  0  0  0  0  0
   25.9492  -21.7358   -9.8528 C   0  0  0  0  0  0  0  0  0  0  0  0
   25.8140  -20.5308   -9.0212 C   0  0  0  0  0  0  0  0  0  0  0  0
   25.3496  -20.6465   -7.7293 O   0  0  0  0  0  0  0  0  0  0  0  0
   26.1126  -19.4074   -9.4667 O   0  0  0  0  0  0  0  0  0  0  0  0
  2  1  1  1
  3  2  1  0
  4  3  1  0
  5  6  1  0
  5  4  1  0
  7  6  1  0
  8  2  1  0
  8  9  2  0
 10  8  1  0
 11 10  1  0
 11 12  1  0
 12 14  1  0
 13 12  2  0
 14 15  1  0
 15 16  1  0
 16 17  1  0
 18 16  2  0
M  END
$$$$
