KGG.pdb
     RDKit          3D

 18 17  0  0  1  0  0  0  0  0999 V2000
   25.6348  -22.3174  -11.2478 N   0  0  0  0  0  0  0  0  0  0  0  0
   25.9122  -20.9431  -11.2628 C   0  0  1  0  0  0  0  0  0  0  0  0
   27.2249  -20.4562  -10.7810 C   0  0  0  0  0  0  0  0  0  0  0  0
   27.5615  -20.6004   -9.3637 C   0  0  0  0  0  0  0  0  0  0  0  0
   27.3366  -19.5859   -8.3536 C   0  0  0  0  0  0  0  0  0  0  0  0
   27.8417  -19.6450   -6.9817 C   0  0  0  0  0  0  0  0  0  0  0  0
   27.4985  -18.5466   -6.1151 N   0  0  0  0  0  0  0  0  0  0  0  0
   25.6696  -20.3459  -12.6444 C   0  0  0  0  0  0  0  0  0  0  0  0
   26.0971  -20.9299  -13.6724 O   0  0  0  0  0  0  0  0  0  0  0  0
   24.9647  -19.1298  -12.8189 N   0  0  0  0  0  0  0  0  0  0  0  0
   24.6971  -18.5948  -14.1381 C   0  0  0  0  0  0  0  0  0  0  0  0
   23.5516  -19.2820  -14.7867 C   0  0  0  0  0  0  0  0  0  0  0  0
   22.7269  -19.8731  -14.0448 O   0  0  0  0  0  0  0  0  0  0  0  0
   23.3391  -19.3086  -16.1756 N   0  0  0  0  0  0  0  0  0  0  0  0
   22.3006  -20.0784  -16.8222 C   0  0  0  0  0  0  0  0  0  0  0  0
   21.0824  -19.2583  -16.8957 C   0  0  0  0  0  0  0  0  0  0  0  0
   20.6207  -18.8376  -18.1237 O   0  0  0  0  0  0  0  0  0  0  0  0
   20.4617  -18.9384  -15.8653 O   0  0  0  0  0  0  0  0  0  0  0  0
  2  1  1  6
  3  2  1  0
  4  3  1  0
  5  6  1  0
  5  4  1  0
  7  6  1  0
  8  2  1  0
  8  9  2  0
 10  8  1  0
 11 10  1  0
 11 12  1  0
 12 14  1  0
 13 12  2  0
 14 15  1  0
 15 16  1  0
 16 17  1  0
 18 16  2  0
M  END
$$$$
