KGG.pdb
     RDKit          3D

 18 17  0  0  1  0  0  0  0  0999 V2000
   27.3682  -19.0890  -12.2522 N   0  0  0  0  0  0  0  0  0  0  0  0
   27.4468  -19.9555  -13.3516 C   0  0  1  0  0  0  0  0  0  0  0  0
   26.5316  -21.1165  -13.4351 C   0  0  0  0  0  0  0  0  0  0  0  0
   25.4422  -21.2358  -12.4648 C   0  0  0  0  0  0  0  0  0  0  0  0
   25.5663  -20.9685  -11.0458 C   0  0  0  0  0  0  0  0  0  0  0  0
   24.4791  -21.0872  -10.0741 C   0  0  0  0  0  0  0  0  0  0  0  0
   24.7753  -20.7034   -8.7175 N   0  0  0  0  0  0  0  0  0  0  0  0
   27.3524  -19.1894  -14.6664 C   0  0  0  0  0  0  0  0  0  0  0  0
   27.3874  -19.8035  -15.7628 O   0  0  0  0  0  0  0  0  0  0  0  0
   27.2238  -17.7793  -14.7013 N   0  0  0  0  0  0  0  0  0  0  0  0
   26.9973  -17.0723  -15.9450 C   0  0  0  0  0  0  0  0  0  0  0  0
   25.5505  -16.9752  -16.2650 C   0  0  0  0  0  0  0  0  0  0  0  0
   25.2026  -16.1697  -17.1651 O   0  0  0  0  0  0  0  0  0  0  0  0
   24.5540  -17.7289  -15.6217 N   0  0  0  0  0  0  0  0  0  0  0  0
   23.1398  -17.6005  -15.8911 C   0  0  0  0  0  0  0  0  0  0  0  0
   22.7337  -18.6804  -16.8027 C   0  0  0  0  0  0  0  0  0  0  0  0
   21.3954  -18.9656  -16.9631 O   0  0  0  0  0  0  0  0  0  0  0  0
   23.5807  -19.3409  -17.4318 O   0  0  0  0  0  0  0  0  0  0  0  0
  2  1  1  1
  3  2  1  0
  4  3  1  0
  5  6  1  0
  5  4  1  0
  7  6  1  0
  8  2  1  0
  8  9  2  0
 10  8  1  0
 11 10  1  0
 11 12  1  0
 12 14  1  0
 13 12  2  0
 14 15  1  0
 15 16  1  0
 16 17  1  0
 18 16  2  0
M  END
$$$$
