KGG.pdb
     RDKit          3D

 18 17  0  0  1  0  0  0  0  0999 V2000
   21.7715  -11.1290  -17.0223 N   0  0  0  0  0  0  0  0  0  0  0  0
   21.0248  -10.3880  -16.0954 C   0  0  1  0  0  0  0  0  0  0  0  0
   20.1953  -11.0940  -15.0924 C   0  0  0  0  0  0  0  0  0  0  0  0
   19.0497  -11.8847  -15.5450 C   0  0  0  0  0  0  0  0  0  0  0  0
   17.7225  -11.3544  -15.7849 C   0  0  0  0  0  0  0  0  0  0  0  0
   16.5616  -12.1525  -16.1794 C   0  0  0  0  0  0  0  0  0  0  0  0
   15.3178  -11.4473  -16.3557 N   0  0  0  0  0  0  0  0  0  0  0  0
   21.9024   -9.3850  -15.3550 C   0  0  0  0  0  0  0  0  0  0  0  0
   22.9498   -9.7659  -14.7734 O   0  0  0  0  0  0  0  0  0  0  0  0
   21.5757   -8.0081  -15.2956 N   0  0  0  0  0  0  0  0  0  0  0  0
   22.4120   -7.0637  -14.5838 C   0  0  0  0  0  0  0  0  0  0  0  0
   21.9571   -5.6650  -14.7889 C   0  0  0  0  0  0  0  0  0  0  0  0
   20.8679   -5.4857  -15.3900 O   0  0  0  0  0  0  0  0  0  0  0  0
   22.6719   -4.5371  -14.3511 N   0  0  0  0  0  0  0  0  0  0  0  0
   22.2531   -3.1728  -14.5801 C   0  0  0  0  0  0  0  0  0  0  0  0
   21.0909   -2.8868  -13.7260 C   0  0  0  0  0  0  0  0  0  0  0  0
   20.5923   -3.8748  -12.9054 O   0  0  0  0  0  0  0  0  0  0  0  0
   20.5506   -1.7654  -13.7329 O   0  0  0  0  0  0  0  0  0  0  0  0
  2  1  1  1
  3  2  1  0
  4  3  1  0
  5  6  1  0
  5  4  1  0
  7  6  1  0
  8  2  1  0
  8  9  2  0
 10  8  1  0
 11 10  1  0
 11 12  1  0
 12 14  1  0
 13 12  2  0
 14 15  1  0
 15 16  1  0
 16 17  1  0
 18 16  2  0
M  END
$$$$
