KGG.pdb
     RDKit          3D

 18 17  0  0  1  0  0  0  0  0999 V2000
   16.1175  -11.0622  -15.4151 N   0  0  0  0  0  0  0  0  0  0  0  0
   17.3332  -11.3452  -16.0537 C   0  0  1  0  0  0  0  0  0  0  0  0
   17.3268  -11.9861  -17.3884 C   0  0  0  0  0  0  0  0  0  0  0  0
   16.6323  -13.2628  -17.5621 C   0  0  0  0  0  0  0  0  0  0  0  0
   17.1107  -14.5379  -17.0667 C   0  0  0  0  0  0  0  0  0  0  0  0
   16.4373  -15.8206  -17.2712 C   0  0  0  0  0  0  0  0  0  0  0  0
   17.1480  -17.0016  -16.8519 N   0  0  0  0  0  0  0  0  0  0  0  0
   18.2165  -10.1051  -16.1339 C   0  0  0  0  0  0  0  0  0  0  0  0
   17.7546   -9.0245  -16.5807 O   0  0  0  0  0  0  0  0  0  0  0  0
   19.5693  -10.1235  -15.7148 N   0  0  0  0  0  0  0  0  0  0  0  0
   20.4484   -8.9969  -15.9509 C   0  0  0  0  0  0  0  0  0  0  0  0
   20.4695   -8.0658  -14.7943 C   0  0  0  0  0  0  0  0  0  0  0  0
   19.6514   -8.2710  -13.8624 O   0  0  0  0  0  0  0  0  0  0  0  0
   21.3477   -6.9743  -14.6838 N   0  0  0  0  0  0  0  0  0  0  0  0
   21.4462   -6.1280  -13.5162 C   0  0  0  0  0  0  0  0  0  0  0  0
   22.4709   -5.1026  -13.7624 C   0  0  0  0  0  0  0  0  0  0  0  0
   22.6910   -4.1230  -12.8189 O   0  0  0  0  0  0  0  0  0  0  0  0
   23.1426   -5.1060  -14.8104 O   0  0  0  0  0  0  0  0  0  0  0  0
  2  1  1  6
  3  2  1  0
  4  3  1  0
  5  6  1  0
  5  4  1  0
  7  6  1  0
  8  2  1  0
  8  9  2  0
 10  8  1  0
 11 10  1  0
 11 12  1  0
 12 14  1  0
 13 12  2  0
 14 15  1  0
 15 16  1  0
 16 17  1  0
 18 16  2  0
M  END
$$$$
