KGG.pdb
     RDKit          3D

 18 17  0  0  1  0  0  0  0  0999 V2000
   24.3165  -22.8899  -14.0106 N   0  0  0  0  0  0  0  0  0  0  0  0
   25.2365  -23.0298  -15.0593 C   0  0  1  0  0  0  0  0  0  0  0  0
   24.7801  -23.5489  -16.3688 C   0  0  0  0  0  0  0  0  0  0  0  0
   23.5005  -24.2553  -16.4480 C   0  0  0  0  0  0  0  0  0  0  0  0
   23.1477  -25.4174  -15.6574 C   0  0  0  0  0  0  0  0  0  0  0  0
   21.8814  -26.1435  -15.7566 C   0  0  0  0  0  0  0  0  0  0  0  0
   21.6913  -27.2453  -14.8481 N   0  0  0  0  0  0  0  0  0  0  0  0
   25.9915  -21.7289  -15.3087 C   0  0  0  0  0  0  0  0  0  0  0  0
   26.9954  -21.7126  -16.0653 O   0  0  0  0  0  0  0  0  0  0  0  0
   25.5965  -20.5092  -14.7067 N   0  0  0  0  0  0  0  0  0  0  0  0
   26.2520  -19.2593  -15.0325 C   0  0  0  0  0  0  0  0  0  0  0  0
   25.3678  -18.3660  -15.8232 C   0  0  0  0  0  0  0  0  0  0  0  0
   25.7864  -17.2102  -16.0853 O   0  0  0  0  0  0  0  0  0  0  0  0
   24.0964  -18.7382  -16.2922 N   0  0  0  0  0  0  0  0  0  0  0  0
   23.2474  -17.8874  -17.0950 C   0  0  0  0  0  0  0  0  0  0  0  0
   22.0554  -17.5351  -16.3095 C   0  0  0  0  0  0  0  0  0  0  0  0
   21.0784  -16.7458  -16.8759 O   0  0  0  0  0  0  0  0  0  0  0  0
   21.9154  -17.9390  -15.1405 O   0  0  0  0  0  0  0  0  0  0  0  0
  2  1  1  1
  3  2  1  0
  4  3  1  0
  5  6  1  0
  5  4  1  0
  7  6  1  0
  8  2  1  0
  8  9  2  0
 10  8  1  0
 11 10  1  0
 11 12  1  0
 12 14  1  0
 13 12  2  0
 14 15  1  0
 15 16  1  0
 16 17  1  0
 18 16  2  0
M  END
$$$$
