KGG.pdb
     RDKit          3D

 18 17  0  0  1  0  0  0  0  0999 V2000
   19.7006  -22.9516   -9.2098 N   0  0  0  0  0  0  0  0  0  0  0  0
   18.7020  -23.8680   -9.5688 C   0  0  1  0  0  0  0  0  0  0  0  0
   17.6897  -24.2763   -8.5684 C   0  0  0  0  0  0  0  0  0  0  0  0
   18.1292  -24.9429   -7.3416 C   0  0  0  0  0  0  0  0  0  0  0  0
   17.2422  -25.4624   -6.3201 C   0  0  0  0  0  0  0  0  0  0  0  0
   17.6759  -26.1870   -5.1253 C   0  0  0  0  0  0  0  0  0  0  0  0
   16.6546  -26.5380   -4.1718 N   0  0  0  0  0  0  0  0  0  0  0  0
   17.9643  -23.4170  -10.8245 C   0  0  0  0  0  0  0  0  0  0  0  0
   17.2307  -22.3964  -10.7976 O   0  0  0  0  0  0  0  0  0  0  0  0
   18.0759  -24.1199  -12.0491 N   0  0  0  0  0  0  0  0  0  0  0  0
   17.4683  -23.6195  -13.2650 C   0  0  0  0  0  0  0  0  0  0  0  0
   18.4263  -22.8168  -14.0668 C   0  0  0  0  0  0  0  0  0  0  0  0
   18.5364  -21.5943  -13.7959 O   0  0  0  0  0  0  0  0  0  0  0  0
   19.2123  -23.3441  -15.1056 N   0  0  0  0  0  0  0  0  0  0  0  0
   20.2732  -22.6193  -15.7675 C   0  0  0  0  0  0  0  0  0  0  0  0
   20.2124  -22.9061  -17.2083 C   0  0  0  0  0  0  0  0  0  0  0  0
   21.1553  -22.3573  -18.0498 O   0  0  0  0  0  0  0  0  0  0  0  0
   19.3219  -23.6371  -17.6795 O   0  0  0  0  0  0  0  0  0  0  0  0
  2  1  1  1
  3  2  1  0
  4  3  1  0
  5  6  1  0
  5  4  1  0
  7  6  1  0
  8  2  1  0
  8  9  2  0
 10  8  1  0
 11 10  1  0
 11 12  1  0
 12 14  1  0
 13 12  2  0
 14 15  1  0
 15 16  1  0
 16 17  1  0
 18 16  2  0
M  END
$$$$
