KGG.pdb
     RDKit          3D

 18 17  0  0  1  0  0  0  0  0999 V2000
   16.4324  -12.2754  -16.3452 N   0  0  0  0  0  0  0  0  0  0  0  0
   17.7771  -11.9703  -16.0911 C   0  0  1  0  0  0  0  0  0  0  0  0
   18.8403  -12.6459  -16.8692 C   0  0  0  0  0  0  0  0  0  0  0  0
   18.8154  -14.1043  -16.9923 C   0  0  0  0  0  0  0  0  0  0  0  0
   19.7524  -14.8836  -17.7763 C   0  0  0  0  0  0  0  0  0  0  0  0
   19.7006  -16.3365  -17.9401 C   0  0  0  0  0  0  0  0  0  0  0  0
   20.6495  -16.9218  -18.8526 N   0  0  0  0  0  0  0  0  0  0  0  0
   18.0259  -10.4679  -16.1644 C   0  0  0  0  0  0  0  0  0  0  0  0
   17.4565   -9.7724  -17.0433 O   0  0  0  0  0  0  0  0  0  0  0  0
   18.8941   -9.8099  -15.2593 N   0  0  0  0  0  0  0  0  0  0  0  0
   19.0094   -8.3662  -15.2379 C   0  0  0  0  0  0  0  0  0  0  0  0
   19.9230   -7.9048  -14.1620 C   0  0  0  0  0  0  0  0  0  0  0  0
   20.1158   -8.6746  -13.1873 O   0  0  0  0  0  0  0  0  0  0  0  0
   20.5805   -6.6628  -14.1724 N   0  0  0  0  0  0  0  0  0  0  0  0
   21.5328   -6.2413  -13.1701 C   0  0  0  0  0  0  0  0  0  0  0  0
   22.0236   -4.9003  -13.5206 C   0  0  0  0  0  0  0  0  0  0  0  0
   21.5949   -4.3041  -14.6864 O   0  0  0  0  0  0  0  0  0  0  0  0
   22.8205   -4.2954  -12.7801 O   0  0  0  0  0  0  0  0  0  0  0  0
  2  1  1  6
  3  2  1  0
  4  3  1  0
  5  6  1  0
  5  4  1  0
  7  6  1  0
  8  2  1  0
  8  9  2  0
 10  8  1  0
 11 10  1  0
 11 12  1  0
 12 14  1  0
 13 12  2  0
 14 15  1  0
 15 16  1  0
 16 17  1  0
 18 16  2  0
M  END
$$$$
