KGG.pdb
     RDKit          3D

 18 17  0  0  1  0  0  0  0  0999 V2000
   24.3868  -20.7214  -10.9104 N   0  0  0  0  0  0  0  0  0  0  0  0
   24.5070  -21.2372  -12.2086 C   0  0  1  0  0  0  0  0  0  0  0  0
   23.3839  -21.0885  -13.1620 C   0  0  0  0  0  0  0  0  0  0  0  0
   22.0418  -21.5045  -12.7518 C   0  0  0  0  0  0  0  0  0  0  0  0
   20.8600  -21.4229  -13.5867 C   0  0  0  0  0  0  0  0  0  0  0  0
   19.5099  -21.7955  -13.1639 C   0  0  0  0  0  0  0  0  0  0  0  0
   18.4547  -21.6180  -14.1285 N   0  0  0  0  0  0  0  0  0  0  0  0
   25.7712  -20.7265  -12.8909 C   0  0  0  0  0  0  0  0  0  0  0  0
   26.0197  -19.4946  -12.9267 O   0  0  0  0  0  0  0  0  0  0  0  0
   26.6984  -21.6068  -13.5004 N   0  0  0  0  0  0  0  0  0  0  0  0
   27.9315  -21.1193  -14.0832 C   0  0  0  0  0  0  0  0  0  0  0  0
   27.7143  -20.5680  -15.4448 C   0  0  0  0  0  0  0  0  0  0  0  0
   27.4778  -21.3802  -16.3745 O   0  0  0  0  0  0  0  0  0  0  0  0
   27.7580  -19.1971  -15.7506 N   0  0  0  0  0  0  0  0  0  0  0  0
   27.4694  -18.6481  -17.0562 C   0  0  0  0  0  0  0  0  0  0  0  0
   28.6417  -18.8474  -17.9210 C   0  0  0  0  0  0  0  0  0  0  0  0
   29.2722  -17.7534  -18.4722 O   0  0  0  0  0  0  0  0  0  0  0  0
   29.0734  -19.9896  -18.1627 O   0  0  0  0  0  0  0  0  0  0  0  0
  2  1  1  1
  3  2  1  0
  4  3  1  0
  5  6  1  0
  5  4  1  0
  7  6  1  0
  8  2  1  0
  8  9  2  0
 10  8  1  0
 11 10  1  0
 11 12  1  0
 12 14  1  0
 13 12  2  0
 14 15  1  0
 15 16  1  0
 16 17  1  0
 18 16  2  0
M  END
$$$$
