KGG.pdb
     RDKit          3D

 18 17  0  0  1  0  0  0  0  0999 V2000
   21.8100  -11.9351  -18.9891 N   0  0  0  0  0  0  0  0  0  0  0  0
   20.9997  -12.0208  -17.8481 C   0  0  1  0  0  0  0  0  0  0  0  0
   20.7738  -13.3368  -17.2082 C   0  0  0  0  0  0  0  0  0  0  0  0
   20.2559  -14.4421  -18.0161 C   0  0  0  0  0  0  0  0  0  0  0  0
   19.9989  -15.7791  -17.5196 C   0  0  0  0  0  0  0  0  0  0  0  0
   19.4927  -16.8886  -18.3278 C   0  0  0  0  0  0  0  0  0  0  0  0
   19.3771  -18.1678  -17.6755 N   0  0  0  0  0  0  0  0  0  0  0  0
   21.4614  -11.0482  -16.7686 C   0  0  0  0  0  0  0  0  0  0  0  0
   20.8240  -10.9482  -15.6896 O   0  0  0  0  0  0  0  0  0  0  0  0
   22.6075  -10.2336  -16.9383 N   0  0  0  0  0  0  0  0  0  0  0  0
   23.0960   -9.3856  -15.8704 C   0  0  0  0  0  0  0  0  0  0  0  0
   22.3857   -8.0821  -15.8366 C   0  0  0  0  0  0  0  0  0  0  0  0
   21.7017   -7.7616  -16.8413 O   0  0  0  0  0  0  0  0  0  0  0  0
   22.4349   -7.1916  -14.7505 N   0  0  0  0  0  0  0  0  0  0  0  0
   21.7833   -5.9016  -14.7297 C   0  0  0  0  0  0  0  0  0  0  0  0
   21.9930   -5.2888  -13.4097 C   0  0  0  0  0  0  0  0  0  0  0  0
   21.5680   -3.9975  -13.1858 O   0  0  0  0  0  0  0  0  0  0  0  0
   22.5487   -5.9190  -12.4913 O   0  0  0  0  0  0  0  0  0  0  0  0
  2  1  1  6
  3  2  1  0
  4  3  1  0
  5  6  1  0
  5  4  1  0
  7  6  1  0
  8  2  1  0
  8  9  2  0
 10  8  1  0
 11 10  1  0
 11 12  1  0
 12 14  1  0
 13 12  2  0
 14 15  1  0
 15 16  1  0
 16 17  1  0
 18 16  2  0
M  END
$$$$
