KGG.pdb
     RDKit          3D

 18 17  0  0  1  0  0  0  0  0999 V2000
   26.5073  -22.1128  -11.1373 N   0  0  0  0  0  0  0  0  0  0  0  0
   25.7185  -20.9740  -11.3533 C   0  0  1  0  0  0  0  0  0  0  0  0
   25.4796  -20.0274  -10.2401 C   0  0  0  0  0  0  0  0  0  0  0  0
   24.8304  -20.5114   -9.0207 C   0  0  0  0  0  0  0  0  0  0  0  0
   23.4750  -21.0196   -8.9520 C   0  0  0  0  0  0  0  0  0  0  0  0
   22.7458  -21.2923   -7.7132 C   0  0  0  0  0  0  0  0  0  0  0  0
   21.4504  -21.9092   -7.8442 N   0  0  0  0  0  0  0  0  0  0  0  0
   26.2210  -20.1731  -12.5494 C   0  0  0  0  0  0  0  0  0  0  0  0
   25.4663  -19.3468  -13.1222 O   0  0  0  0  0  0  0  0  0  0  0  0
   27.5361  -20.3275  -13.0520 N   0  0  0  0  0  0  0  0  0  0  0  0
   28.0211  -19.5263  -14.1570 C   0  0  0  0  0  0  0  0  0  0  0  0
   27.4080  -19.9397  -15.4447 C   0  0  0  0  0  0  0  0  0  0  0  0
   27.8776  -20.9552  -16.0176 O   0  0  0  0  0  0  0  0  0  0  0  0
   26.3384  -19.2631  -16.0555 N   0  0  0  0  0  0  0  0  0  0  0  0
   25.6969  -19.6956  -17.2764 C   0  0  0  0  0  0  0  0  0  0  0  0
   24.6463  -18.7278  -17.6252 C   0  0  0  0  0  0  0  0  0  0  0  0
   24.8772  -17.8057  -18.6225 O   0  0  0  0  0  0  0  0  0  0  0  0
   23.5513  -18.7290  -17.0332 O   0  0  0  0  0  0  0  0  0  0  0  0
  2  1  1  1
  3  2  1  0
  4  3  1  0
  5  6  1  0
  5  4  1  0
  7  6  1  0
  8  2  1  0
  8  9  2  0
 10  8  1  0
 11 10  1  0
 11 12  1  0
 12 14  1  0
 13 12  2  0
 14 15  1  0
 15 16  1  0
 16 17  1  0
 18 16  2  0
M  END
$$$$
