KDH.pdb
     RDKit          3D

 28 28  0  0  1  0  0  0  0  0999 V2000
   27.4554  -19.0685  -16.1978 N   0  0  0  0  0  0  0  0  0  0  0  0
   26.2941  -19.3430  -16.9897 C   0  0  1  0  0  0  0  0  0  0  0  0
   25.8841  -20.7584  -17.0383 C   0  0  0  0  0  0  0  0  0  0  0  0
   26.9400  -21.7276  -16.6430 C   0  0  0  0  0  0  0  0  0  0  0  0
   27.6061  -22.4306  -17.7744 C   0  0  0  0  0  0  0  0  0  0  0  0
   28.6327  -23.4172  -17.2780 C   0  0  0  0  0  0  0  0  0  0  0  0
   29.2526  -24.0940  -18.4265 N   0  0  0  0  0  0  0  0  0  0  0  0
   25.2092  -18.4073  -16.5986 C   0  0  0  0  0  0  0  0  0  0  0  0
   25.0190  -18.2410  -15.3625 O   0  0  0  0  0  0  0  0  0  0  0  0
   24.4613  -17.7634  -17.5947 N   0  0  0  0  0  0  0  0  0  0  0  0
   23.3451  -16.9022  -17.1945 C   0  0  1  0  0  0  0  0  0  0  0  0
   23.0757  -15.9293  -18.2926 C   0  0  0  0  0  0  0  0  0  0  0  0
   22.0036  -15.0074  -17.9616 C   0  0  0  0  0  0  0  0  0  0  0  0
   20.7875  -15.2511  -17.9141 O   0  0  0  0  0  0  0  0  0  0  0  0
   22.1652  -17.7833  -16.8805 C   0  0  0  0  0  0  0  0  0  0  0  0
   22.1252  -19.0070  -17.1016 O   0  0  0  0  0  0  0  0  0  0  0  0
   22.4008  -13.6804  -17.6597 O   0  0  0  0  0  0  0  0  0  0  0  0
   20.9851  -17.2226  -16.2863 N   0  0  0  0  0  0  0  0  0  0  0  0
   20.3688  -17.7963  -15.0776 C   0  0  1  0  0  0  0  0  0  0  0  0
   21.3777  -17.9493  -13.9917 C   0  0  0  0  0  0  0  0  0  0  0  0
   20.7597  -18.5553  -12.7974 C   0  0  0  0  0  0  0  0  0  0  0  0
   19.4232  -18.9026  -12.6350 C   0  0  0  0  0  0  0  0  0  0  0  0
   19.2246  -19.4070  -11.4112 N   0  0  0  0  0  0  0  0  0  0  0  0
   20.3991  -19.3933  -10.7818 C   0  0  0  0  0  0  0  0  0  0  0  0
   21.3462  -18.8765  -11.6141 N   0  0  0  0  0  0  0  0  0  0  0  0
   19.1345  -17.0945  -14.7271 C   0  0  0  0  0  0  0  0  0  0  0  0
   17.9349  -17.7149  -14.3995 O   0  0  0  0  0  0  0  0  0  0  0  0
   19.1244  -15.8431  -14.7118 O   0  0  0  0  0  0  0  0  0  0  0  0
  2  1  1  1
  3  2  1  0
  3  4  1  0
  4  5  1  0
  5  6  1  0
  7  6  1  0
  8  9  2  0
  8  2  1  0
 10  8  1  0
 11 10  1  0
 11 12  1  6
 12 13  1  0
 13 17  1  0
 14 13  2  0
 15 11  1  0
 16 15  2  0
 18 15  1  0
 19 18  1  0
 19 20  1  1
 20 21  1  0
 21 25  1  0
 21 22  2  0
 22 23  1  0
 24 23  1  0
 25 24  2  0
 26 19  1  0
 27 26  1  0
 28 26  2  0
M  END
$$$$
