KDH.pdb
     RDKit          3D

 28 28  0  0  1  0  0  0  0  0999 V2000
   17.7887  -11.1813  -18.0698 N   0  0  0  0  0  0  0  0  0  0  0  0
   19.0243  -10.9725  -17.3766 C   0  0  1  0  0  0  0  0  0  0  0  0
   20.0840  -11.9559  -17.6663 C   0  0  0  0  0  0  0  0  0  0  0  0
   19.6711  -13.0743  -18.5547 C   0  0  0  0  0  0  0  0  0  0  0  0
   20.6867  -14.1497  -18.7280 C   0  0  0  0  0  0  0  0  0  0  0  0
   20.1900  -15.2274  -19.6583 C   0  0  0  0  0  0  0  0  0  0  0  0
   21.2010  -16.2902  -19.7559 N   0  0  0  0  0  0  0  0  0  0  0  0
   19.4423   -9.5577  -17.5478 C   0  0  0  0  0  0  0  0  0  0  0  0
   20.2340   -9.3091  -18.4981 O   0  0  0  0  0  0  0  0  0  0  0  0
   18.9511   -8.5821  -16.6686 N   0  0  0  0  0  0  0  0  0  0  0  0
   19.3871   -7.1934  -16.8391 C   0  0  1  0  0  0  0  0  0  0  0  0
   18.1806   -6.3303  -16.9952 C   0  0  0  0  0  0  0  0  0  0  0  0
   18.5241   -4.9335  -17.1946 C   0  0  0  0  0  0  0  0  0  0  0  0
   19.5065   -4.4778  -17.8008 O   0  0  0  0  0  0  0  0  0  0  0  0
   20.2329   -6.8206  -15.6505 C   0  0  0  0  0  0  0  0  0  0  0  0
   19.8899   -6.9860  -14.4660 O   0  0  0  0  0  0  0  0  0  0  0  0
   17.6295   -3.9903  -16.6289 O   0  0  0  0  0  0  0  0  0  0  0  0
   21.5279   -6.2326  -15.8436 N   0  0  0  0  0  0  0  0  0  0  0  0
   22.3871   -5.8423  -14.7125 C   0  0  1  0  0  0  0  0  0  0  0  0
   23.8034   -6.2297  -14.9664 C   0  0  0  0  0  0  0  0  0  0  0  0
   23.9159   -7.6917  -15.1262 C   0  0  0  0  0  0  0  0  0  0  0  0
   22.8985   -8.6277  -14.9776 C   0  0  0  0  0  0  0  0  0  0  0  0
   23.3763   -9.8618  -15.1776 N   0  0  0  0  0  0  0  0  0  0  0  0
   24.6752   -9.7441  -15.4512 C   0  0  0  0  0  0  0  0  0  0  0  0
   25.0201   -8.4261  -15.4237 N   0  0  0  0  0  0  0  0  0  0  0  0
   22.1510   -4.4529  -14.3215 C   0  0  0  0  0  0  0  0  0  0  0  0
   22.4179   -3.9267  -13.0633 O   0  0  0  0  0  0  0  0  0  0  0  0
   21.6743   -3.6534  -15.1582 O   0  0  0  0  0  0  0  0  0  0  0  0
  2  1  1  6
  3  2  1  0
  3  4  1  0
  4  5  1  0
  5  6  1  0
  7  6  1  0
  8  9  2  0
  8  2  1  0
 10  8  1  0
 11 10  1  0
 11 12  1  1
 12 13  1  0
 13 17  1  0
 14 13  2  0
 15 11  1  0
 16 15  2  0
 18 15  1  0
 19 18  1  0
 19 20  1  6
 20 21  1  0
 21 25  1  0
 21 22  2  0
 22 23  1  0
 24 23  1  0
 25 24  2  0
 26 19  1  0
 27 26  1  0
 28 26  2  0
M  END
$$$$
