KDH.pdb
     RDKit          3D

 28 28  0  0  1  0  0  0  0  0999 V2000
   25.8504  -22.2076  -12.7475 N   0  0  0  0  0  0  0  0  0  0  0  0
   25.1162  -21.0675  -12.2872 C   0  0  1  0  0  0  0  0  0  0  0  0
   25.7362  -20.3255  -11.1741 C   0  0  0  0  0  0  0  0  0  0  0  0
   25.4413  -20.8683   -9.8217 C   0  0  0  0  0  0  0  0  0  0  0  0
   24.0240  -20.7348   -9.3842 C   0  0  0  0  0  0  0  0  0  0  0  0
   23.8503  -21.1683   -7.9504 C   0  0  0  0  0  0  0  0  0  0  0  0
   22.4246  -21.1168   -7.5956 N   0  0  0  0  0  0  0  0  0  0  0  0
   24.7508  -20.2238  -13.4535 C   0  0  0  0  0  0  0  0  0  0  0  0
   24.8163  -18.9740  -13.2947 O   0  0  0  0  0  0  0  0  0  0  0  0
   24.3591  -20.8365  -14.6524 N   0  0  0  0  0  0  0  0  0  0  0  0
   24.0733  -19.9934  -15.8163 C   0  0  1  0  0  0  0  0  0  0  0  0
   24.7561  -20.5766  -17.0073 C   0  0  0  0  0  0  0  0  0  0  0  0
   26.2029  -20.5255  -16.8932 C   0  0  0  0  0  0  0  0  0  0  0  0
   26.9197  -19.5138  -16.8397 O   0  0  0  0  0  0  0  0  0  0  0  0
   22.5783  -19.9064  -15.9737 C   0  0  0  0  0  0  0  0  0  0  0  0
   22.0015  -19.5901  -17.0297 O   0  0  0  0  0  0  0  0  0  0  0  0
   26.8630  -21.7789  -16.8372 O   0  0  0  0  0  0  0  0  0  0  0  0
   21.7185  -20.1980  -14.8620 N   0  0  0  0  0  0  0  0  0  0  0  0
   20.2507  -20.1372  -14.9704 C   0  0  1  0  0  0  0  0  0  0  0  0
   19.8252  -20.1504  -16.3984 C   0  0  0  0  0  0  0  0  0  0  0  0
   18.3710  -19.9273  -16.5038 C   0  0  0  0  0  0  0  0  0  0  0  0
   17.6578  -18.8349  -16.0229 C   0  0  0  0  0  0  0  0  0  0  0  0
   16.3535  -18.9870  -16.2824 N   0  0  0  0  0  0  0  0  0  0  0  0
   16.2091  -20.1492  -16.9182 C   0  0  0  0  0  0  0  0  0  0  0  0
   17.4309  -20.7354  -17.0611 N   0  0  0  0  0  0  0  0  0  0  0  0
   19.6126  -21.1158  -14.0906 C   0  0  0  0  0  0  0  0  0  0  0  0
   19.8747  -22.4805  -14.0999 O   0  0  0  0  0  0  0  0  0  0  0  0
   18.7637  -20.7282  -13.2566 O   0  0  0  0  0  0  0  0  0  0  0  0
  2  1  1  6
  3  2  1  0
  3  4  1  0
  4  5  1  0
  5  6  1  0
  7  6  1  0
  8  9  2  0
  8  2  1  0
 10  8  1  0
 11 10  1  0
 11 12  1  6
 12 13  1  0
 13 17  1  0
 14 13  2  0
 15 11  1  0
 16 15  2  0
 18 15  1  0
 19 18  1  0
 19 20  1  6
 20 21  1  0
 21 25  1  0
 21 22  2  0
 22 23  1  0
 24 23  1  0
 25 24  2  0
 26 19  1  0
 27 26  1  0
 28 26  2  0
M  END
$$$$
