KDH.pdb
     RDKit          3D

 28 28  0  0  1  0  0  0  0  0999 V2000
   15.9600  -12.8311  -14.7008 N   0  0  0  0  0  0  0  0  0  0  0  0
   15.3880  -11.6190  -15.2054 C   0  0  1  0  0  0  0  0  0  0  0  0
   13.9425  -11.4559  -14.9648 C   0  0  0  0  0  0  0  0  0  0  0  0
   13.1850  -12.7282  -14.8307 C   0  0  0  0  0  0  0  0  0  0  0  0
   11.7252  -12.5696  -14.5822 C   0  0  0  0  0  0  0  0  0  0  0  0
   11.0388  -13.9081  -14.4779 C   0  0  0  0  0  0  0  0  0  0  0  0
    9.6121  -13.7023  -14.1890 N   0  0  0  0  0  0  0  0  0  0  0  0
   16.2142  -10.4698  -14.7555 C   0  0  0  0  0  0  0  0  0  0  0  0
   16.0515  -10.0830  -13.5657 O   0  0  0  0  0  0  0  0  0  0  0  0
   17.1185   -9.8786  -15.6493 N   0  0  0  0  0  0  0  0  0  0  0  0
   17.9155   -8.7357  -15.1954 C   0  0  1  0  0  0  0  0  0  0  0  0
   19.2902   -8.8580  -15.7612 C   0  0  0  0  0  0  0  0  0  0  0  0
   20.1267   -7.7186  -15.4283 C   0  0  0  0  0  0  0  0  0  0  0  0
   20.5030   -6.8120  -16.1879 O   0  0  0  0  0  0  0  0  0  0  0  0
   17.2093   -7.4758  -15.6209 C   0  0  0  0  0  0  0  0  0  0  0  0
   16.7145   -7.2957  -16.7481 O   0  0  0  0  0  0  0  0  0  0  0  0
   20.5577   -7.6412  -14.0799 O   0  0  0  0  0  0  0  0  0  0  0  0
   17.0716   -6.3816  -14.7023 N   0  0  0  0  0  0  0  0  0  0  0  0
   16.4540   -5.1031  -15.0945 C   0  0  1  0  0  0  0  0  0  0  0  0
   15.3500   -4.7412  -14.1614 C   0  0  0  0  0  0  0  0  0  0  0  0
   14.7105   -3.4815  -14.5853 C   0  0  0  0  0  0  0  0  0  0  0  0
   14.9636   -2.7691  -15.7522 C   0  0  0  0  0  0  0  0  0  0  0  0
   14.2107   -1.6630  -15.7881 N   0  0  0  0  0  0  0  0  0  0  0  0
   13.4795   -1.6453  -14.6742 C   0  0  0  0  0  0  0  0  0  0  0  0
   13.7727   -2.7481  -13.9295 N   0  0  0  0  0  0  0  0  0  0  0  0
   17.4671   -4.0763  -15.3357 C   0  0  0  0  0  0  0  0  0  0  0  0
   18.5659   -3.8387  -14.5186 O   0  0  0  0  0  0  0  0  0  0  0  0
   17.3663   -3.3407  -16.3432 O   0  0  0  0  0  0  0  0  0  0  0  0
  2  1  1  1
  3  2  1  0
  3  4  1  0
  4  5  1  0
  5  6  1  0
  7  6  1  0
  8  9  2  0
  8  2  1  0
 10  8  1  0
 11 10  1  0
 11 12  1  6
 12 13  1  0
 13 17  1  0
 14 13  2  0
 15 11  1  0
 16 15  2  0
 18 15  1  0
 19 18  1  0
 19 20  1  1
 20 21  1  0
 21 25  1  0
 21 22  2  0
 22 23  1  0
 24 23  1  0
 25 24  2  0
 26 19  1  0
 27 26  1  0
 28 26  2  0
M  END
$$$$
