KDH.pdb
     RDKit          3D

 28 28  0  0  1  0  0  0  0  0999 V2000
   19.4060  -18.9057  -16.0277 N   0  0  0  0  0  0  0  0  0  0  0  0
   19.2600  -20.2856  -15.6738 C   0  0  1  0  0  0  0  0  0  0  0  0
   18.0239  -20.9318  -16.1517 C   0  0  0  0  0  0  0  0  0  0  0  0
   16.9186  -19.9947  -16.4847 C   0  0  0  0  0  0  0  0  0  0  0  0
   16.5456  -19.0480  -15.3972 C   0  0  0  0  0  0  0  0  0  0  0  0
   15.4177  -18.1421  -15.8227 C   0  0  0  0  0  0  0  0  0  0  0  0
   15.1689  -17.1470  -14.7696 N   0  0  0  0  0  0  0  0  0  0  0  0
   20.5050  -21.0116  -16.0321 C   0  0  0  0  0  0  0  0  0  0  0  0
   20.5672  -22.2293  -15.7080 O   0  0  0  0  0  0  0  0  0  0  0  0
   21.5329  -20.3304  -16.6995 N   0  0  0  0  0  0  0  0  0  0  0  0
   22.7450  -21.0667  -17.0687 C   0  0  1  0  0  0  0  0  0  0  0  0
   22.7650  -21.2409  -18.5499 C   0  0  0  0  0  0  0  0  0  0  0  0
   23.9695  -21.9088  -19.0103 C   0  0  0  0  0  0  0  0  0  0  0  0
   24.3499  -23.0561  -18.7286 O   0  0  0  0  0  0  0  0  0  0  0  0
   23.9325  -20.3029  -16.5455 C   0  0  0  0  0  0  0  0  0  0  0  0
   25.0857  -20.4005  -17.0022 O   0  0  0  0  0  0  0  0  0  0  0  0
   24.7989  -21.1570  -19.8802 O   0  0  0  0  0  0  0  0  0  0  0  0
   23.7760  -19.3898  -15.4493 N   0  0  0  0  0  0  0  0  0  0  0  0
   24.4037  -19.6261  -14.1378 C   0  0  1  0  0  0  0  0  0  0  0  0
   23.5147  -20.4447  -13.2661 C   0  0  0  0  0  0  0  0  0  0  0  0
   24.1095  -20.5990  -11.9252 C   0  0  0  0  0  0  0  0  0  0  0  0
   25.3926  -20.2320  -11.5347 C   0  0  0  0  0  0  0  0  0  0  0  0
   25.5884  -20.5440  -10.2479 N   0  0  0  0  0  0  0  0  0  0  0  0
   24.4642  -21.1022   -9.8002 C   0  0  0  0  0  0  0  0  0  0  0  0
   23.5519  -21.1432  -10.8116 N   0  0  0  0  0  0  0  0  0  0  0  0
   25.7819  -20.0927  -14.2855 C   0  0  0  0  0  0  0  0  0  0  0  0
   26.9023  -19.4188  -13.8145 O   0  0  0  0  0  0  0  0  0  0  0  0
   26.0027  -21.1747  -14.8745 O   0  0  0  0  0  0  0  0  0  0  0  0
  2  1  1  6
  3  2  1  0
  3  4  1  0
  4  5  1  0
  5  6  1  0
  7  6  1  0
  8  9  2  0
  8  2  1  0
 10  8  1  0
 11 10  1  0
 11 12  1  6
 12 13  1  0
 13 17  1  0
 14 13  2  0
 15 11  1  0
 16 15  2  0
 18 15  1  0
 19 18  1  0
 19 20  1  6
 20 21  1  0
 21 25  1  0
 21 22  2  0
 22 23  1  0
 24 23  1  0
 25 24  2  0
 26 19  1  0
 27 26  1  0
 28 26  2  0
M  END
$$$$
