KDH.pdb
     RDKit          3D

 28 28  0  0  1  0  0  0  0  0999 V2000
   22.6021  -12.7310  -21.5027 N   0  0  0  0  0  0  0  0  0  0  0  0
   22.0295  -12.8553  -20.1959 C   0  0  1  0  0  0  0  0  0  0  0  0
   22.1209  -14.1975  -19.5925 C   0  0  0  0  0  0  0  0  0  0  0  0
   21.4404  -15.2740  -20.3598 C   0  0  0  0  0  0  0  0  0  0  0  0
   21.5486  -16.6358  -19.7666 C   0  0  0  0  0  0  0  0  0  0  0  0
   20.7923  -17.6514  -20.5854 C   0  0  0  0  0  0  0  0  0  0  0  0
   20.8874  -18.9675  -19.9371 N   0  0  0  0  0  0  0  0  0  0  0  0
   22.5485  -11.7629  -19.3340 C   0  0  0  0  0  0  0  0  0  0  0  0
   22.9606  -12.0897  -18.1872 O   0  0  0  0  0  0  0  0  0  0  0  0
   22.5593  -10.4474  -19.8193 N   0  0  0  0  0  0  0  0  0  0  0  0
   22.9572   -9.3643  -18.9159 C   0  0  1  0  0  0  0  0  0  0  0  0
   23.4122   -8.2033  -19.7344 C   0  0  0  0  0  0  0  0  0  0  0  0
   23.7945   -7.0671  -18.9149 C   0  0  0  0  0  0  0  0  0  0  0  0
   23.7875   -6.9948  -17.6759 O   0  0  0  0  0  0  0  0  0  0  0  0
   21.7838   -9.0411  -18.0294 C   0  0  0  0  0  0  0  0  0  0  0  0
   20.7456   -8.4766  -18.4183 O   0  0  0  0  0  0  0  0  0  0  0  0
   24.2234   -5.9137  -19.6189 O   0  0  0  0  0  0  0  0  0  0  0  0
   21.8162   -9.3866  -16.6367 N   0  0  0  0  0  0  0  0  0  0  0  0
   20.7417   -8.9957  -15.7079 C   0  0  1  0  0  0  0  0  0  0  0  0
   20.7736   -9.8372  -14.4786 C   0  0  0  0  0  0  0  0  0  0  0  0
   19.6637   -9.4737  -13.5777 C   0  0  0  0  0  0  0  0  0  0  0  0
   18.3426   -9.8978  -13.6685 C   0  0  0  0  0  0  0  0  0  0  0  0
   17.6143   -9.3459  -12.6905 N   0  0  0  0  0  0  0  0  0  0  0  0
   18.4328   -8.5775  -11.9725 C   0  0  0  0  0  0  0  0  0  0  0  0
   19.6871   -8.6446  -12.5009 N   0  0  0  0  0  0  0  0  0  0  0  0
   20.7153   -7.5473  -15.5065 C   0  0  0  0  0  0  0  0  0  0  0  0
   21.8189   -6.7733  -15.1685 O   0  0  0  0  0  0  0  0  0  0  0  0
   19.6352   -6.9296  -15.6409 O   0  0  0  0  0  0  0  0  0  0  0  0
  2  1  1  6
  3  2  1  0
  3  4  1  0
  4  5  1  0
  5  6  1  0
  7  6  1  0
  8  9  2  0
  8  2  1  0
 10  8  1  0
 11 10  1  0
 11 12  1  6
 12 13  1  0
 13 17  1  0
 14 13  2  0
 15 11  1  0
 16 15  2  0
 18 15  1  0
 19 18  1  0
 19 20  1  1
 20 21  1  0
 21 25  1  0
 21 22  2  0
 22 23  1  0
 24 23  1  0
 25 24  2  0
 26 19  1  0
 27 26  1  0
 28 26  2  0
M  END
$$$$
