KDH.pdb
     RDKit          3D

 28 28  0  0  1  0  0  0  0  0999 V2000
   21.6717  -14.3321  -17.5098 N   0  0  0  0  0  0  0  0  0  0  0  0
   20.6403  -13.3386  -17.5121 C   0  0  1  0  0  0  0  0  0  0  0  0
   19.3177  -13.8016  -17.0533 C   0  0  0  0  0  0  0  0  0  0  0  0
   18.7850  -14.9851  -17.7786 C   0  0  0  0  0  0  0  0  0  0  0  0
   17.3779  -15.3453  -17.4495 C   0  0  0  0  0  0  0  0  0  0  0  0
   16.8718  -16.4493  -18.3434 C   0  0  0  0  0  0  0  0  0  0  0  0
   15.5339  -16.8629  -17.8961 N   0  0  0  0  0  0  0  0  0  0  0  0
   21.1362  -12.1242  -16.8159 C   0  0  0  0  0  0  0  0  0  0  0  0
   21.8092  -12.3058  -15.7644 O   0  0  0  0  0  0  0  0  0  0  0  0
   20.8437  -10.8586  -17.3439 N   0  0  0  0  0  0  0  0  0  0  0  0
   21.3586   -9.6705  -16.6577 C   0  0  1  0  0  0  0  0  0  0  0  0
   22.1149   -8.8419  -17.6406 C   0  0  0  0  0  0  0  0  0  0  0  0
   22.6160   -7.6114  -17.0544 C   0  0  0  0  0  0  0  0  0  0  0  0
   23.3557   -7.4944  -16.0646 O   0  0  0  0  0  0  0  0  0  0  0  0
   20.1914   -8.9438  -16.0437 C   0  0  0  0  0  0  0  0  0  0  0  0
   19.0947   -8.7763  -16.6067 O   0  0  0  0  0  0  0  0  0  0  0  0
   22.2089   -6.4125  -17.6921 O   0  0  0  0  0  0  0  0  0  0  0  0
   20.3010   -8.3895  -14.7242 N   0  0  0  0  0  0  0  0  0  0  0  0
   19.2024   -7.6330  -14.0991 C   0  0  1  0  0  0  0  0  0  0  0  0
   19.2567   -7.7515  -12.6147 C   0  0  0  0  0  0  0  0  0  0  0  0
   18.6364   -9.0161  -12.1769 C   0  0  0  0  0  0  0  0  0  0  0  0
   18.0368   -9.9750  -12.9858 C   0  0  0  0  0  0  0  0  0  0  0  0
   17.5646  -10.9785  -12.2365 N   0  0  0  0  0  0  0  0  0  0  0  0
   17.8450  -10.6901  -10.9661 C   0  0  0  0  0  0  0  0  0  0  0  0
   18.4989   -9.4958  -10.9127 N   0  0  0  0  0  0  0  0  0  0  0  0
   19.1149   -6.2779  -14.6425 C   0  0  0  0  0  0  0  0  0  0  0  0
   17.9337   -5.5651  -14.8096 O   0  0  0  0  0  0  0  0  0  0  0  0
   20.1624   -5.6891  -14.9922 O   0  0  0  0  0  0  0  0  0  0  0  0
  2  1  1  1
  3  2  1  0
  3  4  1  0
  4  5  1  0
  5  6  1  0
  7  6  1  0
  8  9  2  0
  8  2  1  0
 10  8  1  0
 11 10  1  0
 11 12  1  6
 12 13  1  0
 13 17  1  0
 14 13  2  0
 15 11  1  0
 16 15  2  0
 18 15  1  0
 19 18  1  0
 19 20  1  1
 20 21  1  0
 21 25  1  0
 21 22  2  0
 22 23  1  0
 24 23  1  0
 25 24  2  0
 26 19  1  0
 27 26  1  0
 28 26  2  0
M  END
$$$$
