KDH.pdb
     RDKit          3D

 28 28  0  0  1  0  0  0  0  0999 V2000
   17.5200  -16.0066  -16.4377 N   0  0  0  0  0  0  0  0  0  0  0  0
   18.3431  -15.0890  -15.7087 C   0  0  1  0  0  0  0  0  0  0  0  0
   19.6064  -15.6477  -15.1932 C   0  0  0  0  0  0  0  0  0  0  0  0
   19.6522  -17.1324  -15.1302 C   0  0  0  0  0  0  0  0  0  0  0  0
   20.8272  -17.6969  -14.4100 C   0  0  0  0  0  0  0  0  0  0  0  0
   20.7402  -19.1992  -14.3131 C   0  0  0  0  0  0  0  0  0  0  0  0
   21.8725  -19.7023  -13.5219 N   0  0  0  0  0  0  0  0  0  0  0  0
   18.5063  -13.8466  -16.5058 C   0  0  0  0  0  0  0  0  0  0  0  0
   19.4904  -13.8012  -17.2939 O   0  0  0  0  0  0  0  0  0  0  0  0
   17.5825  -12.8028  -16.3533 N   0  0  0  0  0  0  0  0  0  0  0  0
   17.7517  -11.5869  -17.1536 C   0  0  1  0  0  0  0  0  0  0  0  0
   16.4777  -11.3122  -17.8792 C   0  0  0  0  0  0  0  0  0  0  0  0
   16.5500  -10.1044  -18.6821 C   0  0  0  0  0  0  0  0  0  0  0  0
   17.4078   -9.8133  -19.5306 O   0  0  0  0  0  0  0  0  0  0  0  0
   18.1588  -10.4716  -16.2276 C   0  0  0  0  0  0  0  0  0  0  0  0
   17.5823  -10.2018  -15.1587 O   0  0  0  0  0  0  0  0  0  0  0  0
   15.5191   -9.1556  -18.4654 O   0  0  0  0  0  0  0  0  0  0  0  0
   19.2793   -9.6363  -16.5546 N   0  0  0  0  0  0  0  0  0  0  0  0
   19.6874   -8.5052  -15.7037 C   0  0  1  0  0  0  0  0  0  0  0  0
   21.0024   -7.9600  -16.1441 C   0  0  0  0  0  0  0  0  0  0  0  0
   21.4494   -6.8933  -15.2287 C   0  0  0  0  0  0  0  0  0  0  0  0
   22.0810   -7.0583  -14.0010 C   0  0  0  0  0  0  0  0  0  0  0  0
   22.3179   -5.8654  -13.4419 N   0  0  0  0  0  0  0  0  0  0  0  0
   21.8550   -4.9370  -14.2783 C   0  0  0  0  0  0  0  0  0  0  0  0
   21.3219   -5.5480  -15.3735 N   0  0  0  0  0  0  0  0  0  0  0  0
   18.6002   -7.5396  -15.5473 C   0  0  0  0  0  0  0  0  0  0  0  0
   18.2259   -6.9545  -14.3436 O   0  0  0  0  0  0  0  0  0  0  0  0
   17.9386   -7.1937  -16.5519 O   0  0  0  0  0  0  0  0  0  0  0  0
  2  1  1  6
  3  2  1  0
  3  4  1  0
  4  5  1  0
  5  6  1  0
  7  6  1  0
  8  9  2  0
  8  2  1  0
 10  8  1  0
 11 10  1  0
 11 12  1  1
 12 13  1  0
 13 17  1  0
 14 13  2  0
 15 11  1  0
 16 15  2  0
 18 15  1  0
 19 18  1  0
 19 20  1  6
 20 21  1  0
 21 25  1  0
 21 22  2  0
 22 23  1  0
 24 23  1  0
 25 24  2  0
 26 19  1  0
 27 26  1  0
 28 26  2  0
M  END
$$$$
