KDH.pdb
     RDKit          3D

 28 28  0  0  1  0  0  0  0  0999 V2000
   20.5800  -17.9364  -15.2785 N   0  0  0  0  0  0  0  0  0  0  0  0
   19.7489  -17.0905  -16.0814 C   0  0  1  0  0  0  0  0  0  0  0  0
   18.2980  -17.2526  -15.8751 C   0  0  0  0  0  0  0  0  0  0  0  0
   17.7881  -18.6330  -16.0875 C   0  0  0  0  0  0  0  0  0  0  0  0
   16.3215  -18.8006  -15.8900 C   0  0  0  0  0  0  0  0  0  0  0  0
   15.9109  -20.2442  -16.0352 C   0  0  0  0  0  0  0  0  0  0  0  0
   14.4809  -20.3775  -15.7210 N   0  0  0  0  0  0  0  0  0  0  0  0
   20.2284  -15.6897  -15.9653 C   0  0  0  0  0  0  0  0  0  0  0  0
   20.4397  -15.2551  -14.7999 O   0  0  0  0  0  0  0  0  0  0  0  0
   20.4219  -14.9285  -17.1269 N   0  0  0  0  0  0  0  0  0  0  0  0
   20.8449  -13.5317  -16.9939 C   0  0  1  0  0  0  0  0  0  0  0  0
   21.7440  -13.1947  -18.1353 C   0  0  0  0  0  0  0  0  0  0  0  0
   22.1883  -11.8127  -18.0978 C   0  0  0  0  0  0  0  0  0  0  0  0
   22.2674  -11.0200  -19.0495 O   0  0  0  0  0  0  0  0  0  0  0  0
   19.6091  -12.6731  -16.9393 C   0  0  0  0  0  0  0  0  0  0  0  0
   18.6510  -12.7721  -17.7268 O   0  0  0  0  0  0  0  0  0  0  0  0
   22.5734  -11.3217  -16.8248 O   0  0  0  0  0  0  0  0  0  0  0  0
   19.4797  -11.6597  -15.9312 N   0  0  0  0  0  0  0  0  0  0  0  0
   18.3564  -10.7069  -15.9185 C   0  0  1  0  0  0  0  0  0  0  0  0
   17.6596  -10.7288  -14.6015 C   0  0  0  0  0  0  0  0  0  0  0  0
   16.5384   -9.7705  -14.5968 C   0  0  0  0  0  0  0  0  0  0  0  0
   15.2395  -10.0042  -15.0345 C   0  0  0  0  0  0  0  0  0  0  0  0
   14.5019   -8.8956  -14.8983 N   0  0  0  0  0  0  0  0  0  0  0  0
   15.2929   -7.9544  -14.3841 C   0  0  0  0  0  0  0  0  0  0  0  0
   16.5389   -8.4723  -14.1943 N   0  0  0  0  0  0  0  0  0  0  0  0
   18.7676   -9.3950  -16.4171 C   0  0  0  0  0  0  0  0  0  0  0  0
   19.9981   -8.8005  -16.1646 O   0  0  0  0  0  0  0  0  0  0  0  0
   17.9765   -8.7334  -17.1262 O   0  0  0  0  0  0  0  0  0  0  0  0
  2  1  1  1
  3  2  1  0
  3  4  1  0
  4  5  1  0
  5  6  1  0
  7  6  1  0
  8  9  2  0
  8  2  1  0
 10  8  1  0
 11 10  1  0
 11 12  1  6
 12 13  1  0
 13 17  1  0
 14 13  2  0
 15 11  1  0
 16 15  2  0
 18 15  1  0
 19 18  1  0
 19 20  1  1
 20 21  1  0
 21 25  1  0
 21 22  2  0
 22 23  1  0
 24 23  1  0
 25 24  2  0
 26 19  1  0
 27 26  1  0
 28 26  2  0
M  END
$$$$
