KDH.pdb
     RDKit          3D

 28 28  0  0  1  0  0  0  0  0999 V2000
   19.8038  -11.5535  -16.2617 N   0  0  0  0  0  0  0  0  0  0  0  0
   18.9201  -10.4717  -15.9457 C   0  0  1  0  0  0  0  0  0  0  0  0
   17.4836  -10.8034  -15.9697 C   0  0  0  0  0  0  0  0  0  0  0  0
   17.1718  -12.1959  -16.3870 C   0  0  0  0  0  0  0  0  0  0  0  0
   15.7256  -12.5512  -16.3668 C   0  0  0  0  0  0  0  0  0  0  0  0
   15.5050  -13.9743  -16.8141 C   0  0  0  0  0  0  0  0  0  0  0  0
   14.0669  -14.2774  -16.7814 N   0  0  0  0  0  0  0  0  0  0  0  0
   19.3756   -9.8260  -14.6882 C   0  0  0  0  0  0  0  0  0  0  0  0
   19.7934  -10.5898  -13.7751 O   0  0  0  0  0  0  0  0  0  0  0  0
   19.3242   -8.4296  -14.5721 N   0  0  0  0  0  0  0  0  0  0  0  0
   19.7219   -7.8109  -13.3046 C   0  0  1  0  0  0  0  0  0  0  0  0
   20.6712   -6.6974  -13.5942 C   0  0  0  0  0  0  0  0  0  0  0  0
   21.1339   -6.0389  -12.3854 C   0  0  0  0  0  0  0  0  0  0  0  0
   20.8498   -6.3294  -11.2127 O   0  0  0  0  0  0  0  0  0  0  0  0
   18.4739   -7.3565  -12.5953 C   0  0  0  0  0  0  0  0  0  0  0  0
   17.6287   -6.5870  -13.0867 O   0  0  0  0  0  0  0  0  0  0  0  0
   22.0093   -4.9403  -12.5766 O   0  0  0  0  0  0  0  0  0  0  0  0
   18.1953   -7.8129  -11.2633 N   0  0  0  0  0  0  0  0  0  0  0  0
   16.9608   -7.4413  -10.5505 C   0  0  1  0  0  0  0  0  0  0  0  0
   16.3722   -8.6240   -9.8612 C   0  0  0  0  0  0  0  0  0  0  0  0
   15.1418   -8.2412   -9.1434 C   0  0  0  0  0  0  0  0  0  0  0  0
   14.9949   -7.1951   -8.2393 C   0  0  0  0  0  0  0  0  0  0  0  0
   13.7411   -7.1641   -7.7717 N   0  0  0  0  0  0  0  0  0  0  0  0
   13.0773   -8.1635   -8.3518 C   0  0  0  0  0  0  0  0  0  0  0  0
   13.9180   -8.8304   -9.1916 N   0  0  0  0  0  0  0  0  0  0  0  0
   17.1587   -6.2431   -9.7357 C   0  0  0  0  0  0  0  0  0  0  0  0
   18.2217   -6.0440   -8.8629 O   0  0  0  0  0  0  0  0  0  0  0  0
   16.3278   -5.3098   -9.8064 O   0  0  0  0  0  0  0  0  0  0  0  0
  2  1  1  1
  3  2  1  0
  3  4  1  0
  4  5  1  0
  5  6  1  0
  7  6  1  0
  8  9  2  0
  8  2  1  0
 10  8  1  0
 11 10  1  0
 11 12  1  6
 12 13  1  0
 13 17  1  0
 14 13  2  0
 15 11  1  0
 16 15  2  0
 18 15  1  0
 19 18  1  0
 19 20  1  1
 20 21  1  0
 21 25  1  0
 21 22  2  0
 22 23  1  0
 24 23  1  0
 25 24  2  0
 26 19  1  0
 27 26  1  0
 28 26  2  0
M  END
$$$$
