KDH.pdb
     RDKit          3D

 28 28  0  0  1  0  0  0  0  0999 V2000
   23.8587  -27.2630  -17.8859 N   0  0  0  0  0  0  0  0  0  0  0  0
   23.9698  -26.4717  -16.6974 C   0  0  1  0  0  0  0  0  0  0  0  0
   25.2733  -26.5430  -16.0120 C   0  0  0  0  0  0  0  0  0  0  0  0
   26.4521  -26.5912  -16.9168 C   0  0  0  0  0  0  0  0  0  0  0  0
   27.0814  -27.9332  -17.0614 C   0  0  0  0  0  0  0  0  0  0  0  0
   28.2173  -27.9015  -18.0526 C   0  0  0  0  0  0  0  0  0  0  0  0
   28.8297  -29.2356  -18.1339 N   0  0  0  0  0  0  0  0  0  0  0  0
   23.5101  -25.0903  -16.9907 C   0  0  0  0  0  0  0  0  0  0  0  0
   23.3585  -24.7869  -18.2059 O   0  0  0  0  0  0  0  0  0  0  0  0
   23.2691  -24.2040  -15.9313 N   0  0  0  0  0  0  0  0  0  0  0  0
   22.7945  -22.8514  -16.2357 C   0  0  1  0  0  0  0  0  0  0  0  0
   21.7291  -22.4880  -15.2570 C   0  0  0  0  0  0  0  0  0  0  0  0
   21.2259  -21.1417  -15.4644 C   0  0  0  0  0  0  0  0  0  0  0  0
   21.0496  -20.2623  -14.6066 O   0  0  0  0  0  0  0  0  0  0  0  0
   23.9781  -21.9215  -16.1958 C   0  0  0  0  0  0  0  0  0  0  0  0
   24.9892  -22.1030  -15.4939 O   0  0  0  0  0  0  0  0  0  0  0  0
   20.9018  -20.8023  -16.8022 O   0  0  0  0  0  0  0  0  0  0  0  0
   23.9892  -20.7342  -17.0022 N   0  0  0  0  0  0  0  0  0  0  0  0
   25.2361  -20.0205  -17.3278 C   0  0  1  0  0  0  0  0  0  0  0  0
   26.2733  -20.9683  -17.8241 C   0  0  0  0  0  0  0  0  0  0  0  0
   27.5000  -20.2390  -18.1969 C   0  0  0  0  0  0  0  0  0  0  0  0
   27.7337  -18.8752  -18.0601 C   0  0  0  0  0  0  0  0  0  0  0  0
   28.9507  -18.5684  -18.5251 N   0  0  0  0  0  0  0  0  0  0  0  0
   29.5063  -19.6998  -18.9576 C   0  0  0  0  0  0  0  0  0  0  0  0
   28.6339  -20.7286  -18.7644 N   0  0  0  0  0  0  0  0  0  0  0  0
   24.9738  -18.8465  -18.1595 C   0  0  0  0  0  0  0  0  0  0  0  0
   25.8916  -17.8350  -18.4160 O   0  0  0  0  0  0  0  0  0  0  0  0
   23.8501  -18.7130  -18.6942 O   0  0  0  0  0  0  0  0  0  0  0  0
  2  1  1  6
  3  2  1  0
  3  4  1  0
  4  5  1  0
  5  6  1  0
  7  6  1  0
  8  9  2  0
  8  2  1  0
 10  8  1  0
 11 10  1  0
 11 12  1  1
 12 13  1  0
 13 17  1  0
 14 13  2  0
 15 11  1  0
 16 15  2  0
 18 15  1  0
 19 18  1  0
 19 20  1  6
 20 21  1  0
 21 25  1  0
 21 22  2  0
 22 23  1  0
 24 23  1  0
 25 24  2  0
 26 19  1  0
 27 26  1  0
 28 26  2  0
M  END
$$$$
