KDH.pdb
     RDKit          3D

 28 28  0  0  1  0  0  0  0  0999 V2000
   28.8703  -27.4593  -18.4742 N   0  0  0  0  0  0  0  0  0  0  0  0
   28.0834  -27.9248  -17.3719 C   0  0  1  0  0  0  0  0  0  0  0  0
   28.8475  -28.5041  -16.2519 C   0  0  0  0  0  0  0  0  0  0  0  0
   29.6981  -29.6687  -16.6133 C   0  0  0  0  0  0  0  0  0  0  0  0
   29.2957  -30.9605  -15.9911 C   0  0  0  0  0  0  0  0  0  0  0  0
   30.0738  -32.1141  -16.5722 C   0  0  0  0  0  0  0  0  0  0  0  0
   29.6650  -33.3605  -15.9083 N   0  0  0  0  0  0  0  0  0  0  0  0
   27.1307  -26.8578  -16.9725 C   0  0  0  0  0  0  0  0  0  0  0  0
   26.3627  -27.1135  -16.0048 O   0  0  0  0  0  0  0  0  0  0  0  0
   27.1256  -25.6413  -17.6698 N   0  0  0  0  0  0  0  0  0  0  0  0
   26.1556  -24.6117  -17.2872 C   0  0  1  0  0  0  0  0  0  0  0  0
   26.5989  -23.3047  -17.8530 C   0  0  0  0  0  0  0  0  0  0  0  0
   27.9204  -22.9225  -17.3880 C   0  0  0  0  0  0  0  0  0  0  0  0
   28.2824  -22.7357  -16.2156 O   0  0  0  0  0  0  0  0  0  0  0  0
   24.7995  -25.0417  -17.7806 C   0  0  0  0  0  0  0  0  0  0  0  0
   24.5397  -25.3187  -18.9653 O   0  0  0  0  0  0  0  0  0  0  0  0
   28.9024  -22.7449  -18.3950 O   0  0  0  0  0  0  0  0  0  0  0  0
   23.7015  -25.1551  -16.8631 N   0  0  0  0  0  0  0  0  0  0  0  0
   22.3886  -25.6813  -17.2746 C   0  0  1  0  0  0  0  0  0  0  0  0
   22.5287  -27.0336  -17.8844 C   0  0  0  0  0  0  0  0  0  0  0  0
   21.2082  -27.5592  -18.2787 C   0  0  0  0  0  0  0  0  0  0  0  0
   19.9685  -27.1329  -17.8153 C   0  0  0  0  0  0  0  0  0  0  0  0
   18.9933  -27.8556  -18.3795 N   0  0  0  0  0  0  0  0  0  0  0  0
   19.5737  -28.7361  -19.1942 C   0  0  0  0  0  0  0  0  0  0  0  0
   20.9250  -28.5683  -19.1441 N   0  0  0  0  0  0  0  0  0  0  0  0
   21.4037  -25.5484  -16.2015 C   0  0  0  0  0  0  0  0  0  0  0  0
   21.7038  -25.2145  -14.8863 O   0  0  0  0  0  0  0  0  0  0  0  0
   20.1933  -25.7430  -16.4533 O   0  0  0  0  0  0  0  0  0  0  0  0
  2  1  1  6
  3  2  1  0
  3  4  1  0
  4  5  1  0
  5  6  1  0
  7  6  1  0
  8  9  2  0
  8  2  1  0
 10  8  1  0
 11 10  1  0
 11 12  1  6
 12 13  1  0
 13 17  1  0
 14 13  2  0
 15 11  1  0
 16 15  2  0
 18 15  1  0
 19 18  1  0
 19 20  1  1
 20 21  1  0
 21 25  1  0
 21 22  2  0
 22 23  1  0
 24 23  1  0
 25 24  2  0
 26 19  1  0
 27 26  1  0
 28 26  2  0
M  END
$$$$
