KDH.pdb
     RDKit          3D

 28 28  0  0  1  0  0  0  0  0999 V2000
   28.3586  -21.3828  -10.1679 N   0  0  0  0  0  0  0  0  0  0  0  0
   27.0032  -21.0177   -9.8841 C   0  0  1  0  0  0  0  0  0  0  0  0
   26.8146  -20.1717   -8.6912 C   0  0  0  0  0  0  0  0  0  0  0  0
   27.7473  -20.4585   -7.5694 C   0  0  0  0  0  0  0  0  0  0  0  0
   27.5985  -19.5703   -6.3832 C   0  0  0  0  0  0  0  0  0  0  0  0
   28.6191  -19.8976   -5.3226 C   0  0  0  0  0  0  0  0  0  0  0  0
   28.4480  -18.9836   -4.1839 N   0  0  0  0  0  0  0  0  0  0  0  0
   26.3784  -20.4784  -11.1187 C   0  0  0  0  0  0  0  0  0  0  0  0
   26.8866  -19.4300  -11.6026 O   0  0  0  0  0  0  0  0  0  0  0  0
   25.2780  -21.1411  -11.6810 N   0  0  0  0  0  0  0  0  0  0  0  0
   24.8698  -20.7998  -13.0464 C   0  0  1  0  0  0  0  0  0  0  0  0
   26.0156  -21.0585  -13.9657 C   0  0  0  0  0  0  0  0  0  0  0  0
   25.6914  -20.7576  -15.3489 C   0  0  0  0  0  0  0  0  0  0  0  0
   25.3156  -19.6709  -15.8160 O   0  0  0  0  0  0  0  0  0  0  0  0
   23.6453  -21.6086  -13.3833 C   0  0  0  0  0  0  0  0  0  0  0  0
   23.3236  -22.6655  -12.8112 O   0  0  0  0  0  0  0  0  0  0  0  0
   25.8222  -21.8338  -16.2625 O   0  0  0  0  0  0  0  0  0  0  0  0
   22.7587  -21.1740  -14.4251 N   0  0  0  0  0  0  0  0  0  0  0  0
   21.2939  -21.2195  -14.2763 C   0  0  1  0  0  0  0  0  0  0  0  0
   20.8522  -20.3717  -13.1332 C   0  0  0  0  0  0  0  0  0  0  0  0
   20.2987  -21.2113  -12.0542 C   0  0  0  0  0  0  0  0  0  0  0  0
   20.1580  -22.5946  -12.0624 C   0  0  0  0  0  0  0  0  0  0  0  0
   19.5968  -23.0065  -10.9192 N   0  0  0  0  0  0  0  0  0  0  0  0
   19.3727  -21.9238  -10.1754 C   0  0  0  0  0  0  0  0  0  0  0  0
   19.7954  -20.8201  -10.8538 N   0  0  0  0  0  0  0  0  0  0  0  0
   20.6232  -20.9905  -15.5556 C   0  0  0  0  0  0  0  0  0  0  0  0
   19.4573  -21.6264  -15.9650 O   0  0  0  0  0  0  0  0  0  0  0  0
   21.1093  -20.1675  -16.3637 O   0  0  0  0  0  0  0  0  0  0  0  0
  2  1  1  6
  3  2  1  0
  3  4  1  0
  4  5  1  0
  5  6  1  0
  7  6  1  0
  8  9  2  0
  8  2  1  0
 10  8  1  0
 11 10  1  0
 11 12  1  6
 12 13  1  0
 13 17  1  0
 14 13  2  0
 15 11  1  0
 16 15  2  0
 18 15  1  0
 19 18  1  0
 19 20  1  1
 20 21  1  0
 21 25  1  0
 21 22  2  0
 22 23  1  0
 24 23  1  0
 25 24  2  0
 26 19  1  0
 27 26  1  0
 28 26  2  0
M  END
$$$$
