KDH.pdb
     RDKit          3D

 28 28  0  0  1  0  0  0  0  0999 V2000
   29.7224  -25.8699  -16.7306 N   0  0  0  0  0  0  0  0  0  0  0  0
   28.7194  -26.4165  -17.5944 C   0  0  1  0  0  0  0  0  0  0  0  0
   28.9186  -27.8257  -17.9794 C   0  0  0  0  0  0  0  0  0  0  0  0
   30.2624  -28.1368  -18.5344 C   0  0  0  0  0  0  0  0  0  0  0  0
   30.3459  -28.1360  -20.0213 C   0  0  0  0  0  0  0  0  0  0  0  0
   31.7156  -28.5544  -20.4931 C   0  0  0  0  0  0  0  0  0  0  0  0
   31.7654  -28.4904  -21.9610 N   0  0  0  0  0  0  0  0  0  0  0  0
   27.3790  -26.1235  -17.0259 C   0  0  0  0  0  0  0  0  0  0  0  0
   27.3028  -26.0223  -15.7707 O   0  0  0  0  0  0  0  0  0  0  0  0
   26.2822  -25.9746  -17.8867 N   0  0  0  0  0  0  0  0  0  0  0  0
   24.9768  -25.6328  -17.3153 C   0  0  1  0  0  0  0  0  0  0  0  0
   24.5484  -24.3121  -17.8602 C   0  0  0  0  0  0  0  0  0  0  0  0
   23.2525  -23.8996  -17.3509 C   0  0  0  0  0  0  0  0  0  0  0  0
   22.1526  -24.0025  -17.9165 O   0  0  0  0  0  0  0  0  0  0  0  0
   24.0185  -26.7475  -17.6412 C   0  0  0  0  0  0  0  0  0  0  0  0
   24.2564  -27.6632  -18.4491 O   0  0  0  0  0  0  0  0  0  0  0  0
   23.2538  -23.3139  -16.0598 O   0  0  0  0  0  0  0  0  0  0  0  0
   22.7332  -26.8021  -17.0044 N   0  0  0  0  0  0  0  0  0  0  0  0
   22.0169  -28.0720  -16.7944 C   0  0  1  0  0  0  0  0  0  0  0  0
   22.9137  -29.0887  -16.1759 C   0  0  0  0  0  0  0  0  0  0  0  0
   22.2182  -30.3841  -16.0578 C   0  0  0  0  0  0  0  0  0  0  0  0
   21.2311  -30.8808  -16.9018 C   0  0  0  0  0  0  0  0  0  0  0  0
   20.8172  -32.0783  -16.4705 N   0  0  0  0  0  0  0  0  0  0  0  0
   21.5127  -32.3652  -15.3706 C   0  0  0  0  0  0  0  0  0  0  0  0
   22.3719  -31.3413  -15.1053 N   0  0  0  0  0  0  0  0  0  0  0  0
   20.7289  -27.8523  -16.1373 C   0  0  0  0  0  0  0  0  0  0  0  0
   20.2230  -26.6084  -15.7795 O   0  0  0  0  0  0  0  0  0  0  0  0
   20.0050  -28.8359  -15.8635 O   0  0  0  0  0  0  0  0  0  0  0  0
  2  1  1  1
  3  2  1  0
  3  4  1  0
  4  5  1  0
  5  6  1  0
  7  6  1  0
  8  9  2  0
  8  2  1  0
 10  8  1  0
 11 10  1  0
 11 12  1  6
 12 13  1  0
 13 17  1  0
 14 13  2  0
 15 11  1  0
 16 15  2  0
 18 15  1  0
 19 18  1  0
 19 20  1  1
 20 21  1  0
 21 25  1  0
 21 22  2  0
 22 23  1  0
 24 23  1  0
 25 24  2  0
 26 19  1  0
 27 26  1  0
 28 26  2  0
M  END
$$$$
