VGI.pdb
     RDKit          3D

 20 19  0  0  1  0  0  0  0  0999 V2000
   19.7780  -17.3899  -17.6037 C   0  0  0  0  0  0  0  0  0  0  0  0
   19.0768  -16.0372  -17.7152 C   0  0  1  0  0  0  0  0  0  0  0  0
   17.7177  -16.1246  -17.0683 C   0  0  0  0  0  0  0  0  0  0  0  0
   19.9209  -15.0422  -16.9506 C   0  0  2  0  0  0  0  0  0  0  0  0
   20.0974  -15.4020  -15.5790 N   0  0  0  0  0  0  0  0  0  0  0  0
   19.4166  -13.6625  -17.0631 C   0  0  0  0  0  0  0  0  0  0  0  0
   19.5975  -12.9349  -18.0728 O   0  0  0  0  0  0  0  0  0  0  0  0
   18.6838  -13.1076  -15.9813 N   0  0  0  0  0  0  0  0  0  0  0  0
   18.0869  -11.8077  -16.0346 C   0  0  0  0  0  0  0  0  0  0  0  0
   18.8724  -10.8061  -15.2293 C   0  0  0  0  0  0  0  0  0  0  0  0
   18.4563  -10.5450  -14.0788 O   0  0  0  0  0  0  0  0  0  0  0  0
   23.8697  -11.7536  -14.5768 C   0  0  0  0  0  0  0  0  0  0  0  0
   22.4706  -11.2343  -14.5345 C   0  0  0  0  0  0  0  0  0  0  0  0
   22.2652   -9.7945  -14.8261 C   0  0  2  0  0  0  0  0  0  0  0  0
   23.1079   -8.9247  -13.9042 C   0  0  0  0  0  0  0  0  0  0  0  0
   20.8552   -9.3406  -14.9016 C   0  0  2  0  0  0  0  0  0  0  0  0
   20.0263  -10.1810  -15.7318 N   0  0  0  0  0  0  0  0  0  0  0  0
   20.7791   -7.9039  -15.2255 C   0  0  0  0  0  0  0  0  0  0  0  0
   20.8436   -6.9016  -14.2879 O   0  0  0  0  0  0  0  0  0  0  0  0
   20.6448   -7.5642  -16.4276 O   0  0  0  0  0  0  0  0  0  0  0  0
  2  1  1  1
  2  3  1  0
  4  2  1  0
  4  5  1  1
  6  4  1  0
  6  8  1  0
  7  6  2  0
  9  8  1  0
  9 10  1  0
 10 17  1  0
 11 10  2  0
 12 13  1  0
 14 13  1  0
 14 15  1  1
 16 14  1  0
 16 17  1  6
 18 19  1  0
 18 16  1  0
 20 18  2  0
M  END
$$$$
