VGI.pdb
     RDKit          3D

 20 19  0  0  1  0  0  0  0  0999 V2000
   18.0294  -13.3412  -17.9369 C   0  0  0  0  0  0  0  0  0  0  0  0
   16.7188  -12.5627  -17.8356 C   0  0  1  0  0  0  0  0  0  0  0  0
   15.6135  -13.4983  -17.4160 C   0  0  0  0  0  0  0  0  0  0  0  0
   16.9122  -11.5180  -16.7592 C   0  0  2  0  0  0  0  0  0  0  0  0
   15.7202  -10.7807  -16.4806 N   0  0  0  0  0  0  0  0  0  0  0  0
   18.0310  -10.6039  -17.0473 C   0  0  0  0  0  0  0  0  0  0  0  0
   19.2030  -10.9915  -17.2875 O   0  0  0  0  0  0  0  0  0  0  0  0
   17.7909   -9.2049  -17.0583 N   0  0  0  0  0  0  0  0  0  0  0  0
   18.8170   -8.2439  -17.3277 C   0  0  0  0  0  0  0  0  0  0  0  0
   19.3594   -7.6446  -16.0566 C   0  0  0  0  0  0  0  0  0  0  0  0
   18.6340   -7.7085  -15.0394 O   0  0  0  0  0  0  0  0  0  0  0  0
   23.2165   -9.7835  -13.9528 C   0  0  0  0  0  0  0  0  0  0  0  0
   22.0771   -8.8950  -14.3288 C   0  0  0  0  0  0  0  0  0  0  0  0
   22.2983   -7.4300  -14.2572 C   0  0  2  0  0  0  0  0  0  0  0  0
   22.7796   -7.0171  -12.8735 C   0  0  0  0  0  0  0  0  0  0  0  0
   21.1868   -6.5794  -14.7481 C   0  0  2  0  0  0  0  0  0  0  0  0
   20.6243   -7.0355  -15.9963 N   0  0  0  0  0  0  0  0  0  0  0  0
   21.5678   -5.1548  -14.7389 C   0  0  0  0  0  0  0  0  0  0  0  0
   21.6146   -4.3659  -15.8629 O   0  0  0  0  0  0  0  0  0  0  0  0
   21.8720   -4.6201  -13.6434 O   0  0  0  0  0  0  0  0  0  0  0  0
  2  1  1  1
  2  3  1  0
  4  2  1  0
  4  5  1  6
  6  4  1  0
  6  8  1  0
  7  6  2  0
  9  8  1  0
  9 10  1  0
 10 17  1  0
 11 10  2  0
 12 13  1  0
 14 13  1  0
 14 15  1  1
 16 14  1  0
 16 17  1  6
 18 19  1  0
 18 16  1  0
 20 18  2  0
M  END
$$$$
