VGI.pdb
     RDKit          3D

 20 19  0  0  1  0  0  0  0  0999 V2000
   14.3379  -11.5531  -17.3926 C   0  0  0  0  0  0  0  0  0  0  0  0
   15.6132  -10.7319  -17.2100 C   0  0  1  0  0  0  0  0  0  0  0  0
   15.9528  -10.6570  -15.7429 C   0  0  0  0  0  0  0  0  0  0  0  0
   16.7173  -11.4715  -17.9319 C   0  0  2  0  0  0  0  0  0  0  0  0
   16.7403  -12.8679  -17.6292 N   0  0  0  0  0  0  0  0  0  0  0  0
   18.0443  -10.8716  -17.7097 C   0  0  0  0  0  0  0  0  0  0  0  0
   18.9186  -11.3736  -16.9579 O   0  0  0  0  0  0  0  0  0  0  0  0
   18.3714   -9.6599  -18.3730 N   0  0  0  0  0  0  0  0  0  0  0  0
   19.6671   -9.0569  -18.2927 C   0  0  0  0  0  0  0  0  0  0  0  0
   19.8538   -8.3210  -16.9918 C   0  0  0  0  0  0  0  0  0  0  0  0
   18.8667   -8.2538  -16.2262 O   0  0  0  0  0  0  0  0  0  0  0  0
   23.4750   -9.9682  -14.0079 C   0  0  0  0  0  0  0  0  0  0  0  0
   22.2585   -9.2515  -14.4932 C   0  0  0  0  0  0  0  0  0  0  0  0
   22.3013   -7.7690  -14.5184 C   0  0  2  0  0  0  0  0  0  0  0  0
   22.3688   -7.2003  -13.1082 C   0  0  0  0  0  0  0  0  0  0  0  0
   21.2698   -7.1022  -15.3499 C   0  0  2  0  0  0  0  0  0  0  0  0
   21.0772   -7.7286  -16.6356 N   0  0  0  0  0  0  0  0  0  0  0  0
   21.5008   -5.6471  -15.4125 C   0  0  0  0  0  0  0  0  0  0  0  0
   21.0612   -4.7588  -14.4609 O   0  0  0  0  0  0  0  0  0  0  0  0
   22.1346   -5.1799  -16.3915 O   0  0  0  0  0  0  0  0  0  0  0  0
  2  1  1  1
  2  3  1  0
  4  2  1  0
  4  5  1  1
  6  4  1  0
  6  8  1  0
  7  6  2  0
  9  8  1  0
  9 10  1  0
 10 17  1  0
 11 10  2  0
 12 13  1  0
 14 13  1  0
 14 15  1  1
 16 14  1  0
 16 17  1  6
 18 19  1  0
 18 16  1  0
 20 18  2  0
M  END
$$$$
