VGI.pdb
     RDKit          3D

 20 19  0  0  1  0  0  0  0  0999 V2000
   18.0266  -23.6434  -15.1203 C   0  0  0  0  0  0  0  0  0  0  0  0
   19.1293  -22.5929  -14.9998 C   0  0  1  0  0  0  0  0  0  0  0  0
   18.7102  -21.3429  -15.7311 C   0  0  0  0  0  0  0  0  0  0  0  0
   19.2725  -22.2754  -13.5281 C   0  0  2  0  0  0  0  0  0  0  0  0
   18.0287  -21.9423  -12.9083 N   0  0  0  0  0  0  0  0  0  0  0  0
   20.2776  -21.2307  -13.2661 C   0  0  0  0  0  0  0  0  0  0  0  0
   20.0278  -19.9987  -13.3038 O   0  0  0  0  0  0  0  0  0  0  0  0
   21.6068  -21.6180  -12.9522 N   0  0  0  0  0  0  0  0  0  0  0  0
   22.6755  -20.6768  -12.8082 C   0  0  0  0  0  0  0  0  0  0  0  0
   23.7717  -20.9287  -13.8101 C   0  0  0  0  0  0  0  0  0  0  0  0
   23.5474  -21.7771  -14.7017 O   0  0  0  0  0  0  0  0  0  0  0  0
   26.2443  -16.8080  -16.0850 C   0  0  0  0  0  0  0  0  0  0  0  0
   25.6997  -18.1696  -15.8053 C   0  0  0  0  0  0  0  0  0  0  0  0
   26.6297  -19.1759  -15.2370 C   0  0  2  0  0  0  0  0  0  0  0  0
   27.8133  -19.4113  -16.1647 C   0  0  0  0  0  0  0  0  0  0  0  0
   26.0133  -20.4422  -14.7719 C   0  0  2  0  0  0  0  0  0  0  0  0
   25.0009  -20.2495  -13.7617 N   0  0  0  0  0  0  0  0  0  0  0  0
   27.0457  -21.4328  -14.4149 C   0  0  0  0  0  0  0  0  0  0  0  0
   27.5823  -22.3352  -15.3013 O   0  0  0  0  0  0  0  0  0  0  0  0
   27.4659  -21.4643  -13.2312 O   0  0  0  0  0  0  0  0  0  0  0  0
  2  1  1  1
  2  3  1  0
  4  2  1  0
  4  5  1  6
  6  4  1  0
  6  8  1  0
  7  6  2  0
  9  8  1  0
  9 10  1  0
 10 17  1  0
 11 10  2  0
 12 13  1  0
 14 13  1  0
 14 15  1  6
 16 14  1  0
 16 17  1  1
 18 19  1  0
 18 16  1  0
 20 18  2  0
M  END
$$$$
