VGI.pdb
     RDKit          3D

 20 19  0  0  1  0  0  0  0  0999 V2000
   28.6522  -21.0053  -19.9876 C   0  0  0  0  0  0  0  0  0  0  0  0
   28.8517  -20.5452  -18.5445 C   0  0  1  0  0  0  0  0  0  0  0  0
   28.6890  -19.0481  -18.4708 C   0  0  0  0  0  0  0  0  0  0  0  0
   27.7630  -21.1979  -17.7224 C   0  0  2  0  0  0  0  0  0  0  0  0
   26.4497  -20.8756  -18.1843 N   0  0  0  0  0  0  0  0  0  0  0  0
   27.8894  -20.9143  -16.2823 C   0  0  0  0  0  0  0  0  0  0  0  0
   28.8293  -21.3464  -15.5672 O   0  0  0  0  0  0  0  0  0  0  0  0
   26.9047  -20.1105  -15.6504 N   0  0  0  0  0  0  0  0  0  0  0  0
   27.0133  -19.6763  -14.2908 C   0  0  0  0  0  0  0  0  0  0  0  0
   26.0944  -20.4562  -13.3872 C   0  0  0  0  0  0  0  0  0  0  0  0
   25.5374  -21.4659  -13.8721 O   0  0  0  0  0  0  0  0  0  0  0  0
   26.8403  -20.3153   -7.9307 C   0  0  0  0  0  0  0  0  0  0  0  0
   26.4811  -20.8389   -9.2819 C   0  0  0  0  0  0  0  0  0  0  0  0
   25.1090  -20.5709   -9.7779 C   0  0  2  0  0  0  0  0  0  0  0  0
   24.0711  -21.2948   -8.9320 C   0  0  0  0  0  0  0  0  0  0  0  0
   24.8926  -20.7677  -11.2320 C   0  0  2  0  0  0  0  0  0  0  0  0
   25.8604  -20.0811  -12.0534 N   0  0  0  0  0  0  0  0  0  0  0  0
   23.4890  -20.5026  -11.5981 C   0  0  0  0  0  0  0  0  0  0  0  0
   22.5236  -21.4758  -11.6921 O   0  0  0  0  0  0  0  0  0  0  0  0
   23.1441  -19.3197  -11.8435 O   0  0  0  0  0  0  0  0  0  0  0  0
  2  1  1  6
  2  3  1  0
  4  2  1  0
  4  5  1  6
  6  4  1  0
  6  8  1  0
  7  6  2  0
  9  8  1  0
  9 10  1  0
 10 17  1  0
 11 10  2  0
 12 13  1  0
 14 13  1  0
 14 15  1  1
 16 14  1  0
 16 17  1  6
 18 19  1  0
 18 16  1  0
 20 18  2  0
M  END
$$$$
