VGI.pdb
     RDKit          3D

 20 19  0  0  1  0  0  0  0  0999 V2000
   15.3898  -10.4903  -17.1726 C   0  0  0  0  0  0  0  0  0  0  0  0
   16.8659  -10.4228  -17.5609 C   0  0  1  0  0  0  0  0  0  0  0  0
   17.1845   -9.0413  -18.0738 C   0  0  0  0  0  0  0  0  0  0  0  0
   17.6622  -10.6736  -16.2999 C   0  0  2  0  0  0  0  0  0  0  0  0
   17.3197   -9.7787  -15.2397 N   0  0  0  0  0  0  0  0  0  0  0  0
   19.1166  -10.6663  -16.5340 C   0  0  0  0  0  0  0  0  0  0  0  0
   19.7340  -11.5977  -17.1108 O   0  0  0  0  0  0  0  0  0  0  0  0
   19.8792   -9.5541  -16.0905 N   0  0  0  0  0  0  0  0  0  0  0  0
   21.3076   -9.5102  -16.1736 C   0  0  0  0  0  0  0  0  0  0  0  0
   21.8486   -8.1918  -15.6859 C   0  0  0  0  0  0  0  0  0  0  0  0
   23.0908   -8.0447  -15.6959 O   0  0  0  0  0  0  0  0  0  0  0  0
   19.4235   -3.8723  -17.4495 C   0  0  0  0  0  0  0  0  0  0  0  0
   20.4081   -4.8484  -16.8956 C   0  0  0  0  0  0  0  0  0  0  0  0
   20.7472   -4.7370  -15.4558 C   0  0  2  0  0  0  0  0  0  0  0  0
   21.3617   -3.3802  -15.1425 C   0  0  0  0  0  0  0  0  0  0  0  0
   21.5292   -5.8595  -14.8827 C   0  0  2  0  0  0  0  0  0  0  0  0
   21.0093   -7.1588  -15.2351 N   0  0  0  0  0  0  0  0  0  0  0  0
   21.7504   -5.6661  -13.4376 C   0  0  0  0  0  0  0  0  0  0  0  0
   21.2688   -6.5118  -12.4678 O   0  0  0  0  0  0  0  0  0  0  0  0
   22.4160   -4.6701  -13.0587 O   0  0  0  0  0  0  0  0  0  0  0  0
  2  1  1  1
  2  3  1  0
  4  2  1  0
  4  5  1  1
  6  4  1  0
  6  8  1  0
  7  6  2  0
  9  8  1  0
  9 10  1  0
 10 17  1  0
 11 10  2  0
 12 13  1  0
 14 13  1  0
 14 15  1  6
 16 14  1  0
 16 17  1  1
 18 19  1  0
 18 16  1  0
 20 18  2  0
M  END
$$$$
