VGI.pdb
     RDKit          3D

 20 19  0  0  1  0  0  0  0  0999 V2000
   21.1099   -9.6845  -19.3684 C   0  0  0  0  0  0  0  0  0  0  0  0
   19.9758  -10.6621  -19.0648 C   0  0  1  0  0  0  0  0  0  0  0  0
   19.8169  -11.6170  -20.2206 C   0  0  0  0  0  0  0  0  0  0  0  0
   20.3876  -11.4427  -17.8367 C   0  0  2  0  0  0  0  0  0  0  0  0
   19.5850  -12.6055  -17.6230 N   0  0  0  0  0  0  0  0  0  0  0  0
   20.4289  -10.6116  -16.6210 C   0  0  0  0  0  0  0  0  0  0  0  0
   19.4019  -10.2164  -16.0122 O   0  0  0  0  0  0  0  0  0  0  0  0
   21.6893  -10.2262  -16.0937 N   0  0  0  0  0  0  0  0  0  0  0  0
   21.8263   -9.4675  -14.8876 C   0  0  0  0  0  0  0  0  0  0  0  0
   21.8587   -7.9877  -15.1671 C   0  0  0  0  0  0  0  0  0  0  0  0
   22.2473   -7.6283  -16.3006 O   0  0  0  0  0  0  0  0  0  0  0  0
   17.7837   -5.0964  -15.4094 C   0  0  0  0  0  0  0  0  0  0  0  0
   19.1868   -5.6046  -15.4538 C   0  0  0  0  0  0  0  0  0  0  0  0
   20.1670   -4.9921  -14.5241 C   0  0  2  0  0  0  0  0  0  0  0  0
   20.2355   -3.4840  -14.7183 C   0  0  0  0  0  0  0  0  0  0  0  0
   21.5098   -5.6207  -14.4874 C   0  0  2  0  0  0  0  0  0  0  0  0
   21.4726   -7.0360  -14.2081 N   0  0  0  0  0  0  0  0  0  0  0  0
   22.4281   -4.8557  -13.6236 C   0  0  0  0  0  0  0  0  0  0  0  0
   23.1994   -3.8068  -14.0626 O   0  0  0  0  0  0  0  0  0  0  0  0
   22.5207   -5.1749  -12.4119 O   0  0  0  0  0  0  0  0  0  0  0  0
  2  1  1  6
  2  3  1  0
  4  2  1  0
  4  5  1  1
  6  4  1  0
  6  8  1  0
  7  6  2  0
  9  8  1  0
  9 10  1  0
 10 17  1  0
 11 10  2  0
 12 13  1  0
 14 13  1  0
 14 15  1  6
 16 14  1  0
 16 17  1  1
 18 19  1  0
 18 16  1  0
 20 18  2  0
M  END
$$$$
