VGI.pdb
     RDKit          3D

 20 19  0  0  1  0  0  0  0  0999 V2000
   24.1070  -19.3622  -18.8806 C   0  0  0  0  0  0  0  0  0  0  0  0
   24.0458  -19.0034  -17.3969 C   0  0  1  0  0  0  0  0  0  0  0  0
   23.6960  -20.2344  -16.5996 C   0  0  0  0  0  0  0  0  0  0  0  0
   25.4298  -18.5396  -17.0011 C   0  0  2  0  0  0  0  0  0  0  0  0
   26.4434  -19.5029  -17.2953 N   0  0  0  0  0  0  0  0  0  0  0  0
   25.5081  -18.1198  -15.5912 C   0  0  0  0  0  0  0  0  0  0  0  0
   24.8006  -17.2054  -15.0964 O   0  0  0  0  0  0  0  0  0  0  0  0
   26.4277  -18.7727  -14.7291 N   0  0  0  0  0  0  0  0  0  0  0  0
   26.5403  -18.4618  -13.3364 C   0  0  0  0  0  0  0  0  0  0  0  0
   26.1179  -19.6234  -12.4756 C   0  0  0  0  0  0  0  0  0  0  0  0
   25.7840  -20.6772  -13.0612 O   0  0  0  0  0  0  0  0  0  0  0  0
   27.5247  -19.9169   -6.8714 C   0  0  0  0  0  0  0  0  0  0  0  0
   26.6213  -19.7972   -8.0540 C   0  0  0  0  0  0  0  0  0  0  0  0
   26.7159  -20.8471   -9.0975 C   0  0  2  0  0  0  0  0  0  0  0  0
   28.1609  -21.0664   -9.5225 C   0  0  0  0  0  0  0  0  0  0  0  0
   25.8008  -20.6984  -10.2552 C   0  0  2  0  0  0  0  0  0  0  0  0
   26.0936  -19.5459  -11.0728 N   0  0  0  0  0  0  0  0  0  0  0  0
   24.3919  -20.7997   -9.8317 C   0  0  0  0  0  0  0  0  0  0  0  0
   23.8223  -21.9445   -9.3288 O   0  0  0  0  0  0  0  0  0  0  0  0
   23.6581  -19.7851   -9.9345 O   0  0  0  0  0  0  0  0  0  0  0  0
  2  1  1  6
  2  3  1  0
  4  2  1  0
  4  5  1  1
  6  4  1  0
  6  8  1  0
  7  6  2  0
  9  8  1  0
  9 10  1  0
 10 17  1  0
 11 10  2  0
 12 13  1  0
 14 13  1  0
 14 15  1  6
 16 14  1  0
 16 17  1  1
 18 19  1  0
 18 16  1  0
 20 18  2  0
M  END
$$$$
