VGI.pdb
     RDKit          3D

 20 19  0  0  1  0  0  0  0  0999 V2000
   27.2447  -20.4090  -10.6357 C   0  0  0  0  0  0  0  0  0  0  0  0
   26.4375  -20.8804  -11.8441 C   0  0  1  0  0  0  0  0  0  0  0  0
   26.5823  -22.3741  -11.9893 C   0  0  0  0  0  0  0  0  0  0  0  0
   24.9890  -20.5537  -11.5574 C   0  0  2  0  0  0  0  0  0  0  0  0
   24.5131  -21.1525  -10.3503 N   0  0  0  0  0  0  0  0  0  0  0  0
   24.0977  -20.8808  -12.6838 C   0  0  0  0  0  0  0  0  0  0  0  0
   23.2704  -21.8278  -12.6652 O   0  0  0  0  0  0  0  0  0  0  0  0
   24.1628  -20.0940  -13.8636 N   0  0  0  0  0  0  0  0  0  0  0  0
   23.3798  -20.3758  -15.0282 C   0  0  0  0  0  0  0  0  0  0  0  0
   22.0288  -19.7134  -14.9586 C   0  0  0  0  0  0  0  0  0  0  0  0
   21.7257  -19.1443  -13.8866 O   0  0  0  0  0  0  0  0  0  0  0  0
   20.6538  -17.7794  -19.3183 C   0  0  0  0  0  0  0  0  0  0  0  0
   20.3627  -17.5648  -17.8698 C   0  0  0  0  0  0  0  0  0  0  0  0
   19.3904  -18.4799  -17.2235 C   0  0  2  0  0  0  0  0  0  0  0  0
   18.0209  -17.8263  -17.1047 C   0  0  0  0  0  0  0  0  0  0  0  0
   19.8315  -19.1068  -15.9538 C   0  0  2  0  0  0  0  0  0  0  0  0
   21.1332  -19.7238  -16.0413 N   0  0  0  0  0  0  0  0  0  0  0  0
   18.7805  -19.9829  -15.4038 C   0  0  0  0  0  0  0  0  0  0  0  0
   17.8887  -19.5952  -14.4332 O   0  0  0  0  0  0  0  0  0  0  0  0
   18.6870  -21.1575  -15.8399 O   0  0  0  0  0  0  0  0  0  0  0  0
  2  1  1  1
  2  3  1  0
  4  2  1  0
  4  5  1  1
  6  4  1  0
  6  8  1  0
  7  6  2  0
  9  8  1  0
  9 10  1  0
 10 17  1  0
 11 10  2  0
 12 13  1  0
 14 13  1  0
 14 15  1  1
 16 14  1  0
 16 17  1  6
 18 19  1  0
 18 16  1  0
 20 18  2  0
M  END
$$$$
