VGI.pdb
     RDKit          3D

 20 19  0  0  1  0  0  0  0  0999 V2000
   25.1137  -23.4014  -17.5323 C   0  0  0  0  0  0  0  0  0  0  0  0
   26.3926  -24.2330  -17.4494 C   0  0  1  0  0  0  0  0  0  0  0  0
   26.5511  -25.0329  -18.7176 C   0  0  0  0  0  0  0  0  0  0  0  0
   27.5428  -23.2574  -17.3379 C   0  0  2  0  0  0  0  0  0  0  0  0
   28.8200  -23.8939  -17.4136 N   0  0  0  0  0  0  0  0  0  0  0  0
   27.4568  -22.4107  -16.1354 C   0  0  0  0  0  0  0  0  0  0  0  0
   27.9811  -22.7117  -15.0326 O   0  0  0  0  0  0  0  0  0  0  0  0
   26.7465  -21.1837  -16.2073 N   0  0  0  0  0  0  0  0  0  0  0  0
   26.6530  -20.2758  -15.1046 C   0  0  0  0  0  0  0  0  0  0  0  0
   25.6112  -20.7193  -14.1113 C   0  0  0  0  0  0  0  0  0  0  0  0
   24.7973  -21.5917  -14.4874 O   0  0  0  0  0  0  0  0  0  0  0  0
   26.7199  -20.2157   -8.7308 C   0  0  0  0  0  0  0  0  0  0  0  0
   26.1875  -20.7842  -10.0045 C   0  0  0  0  0  0  0  0  0  0  0  0
   24.8610  -20.3070  -10.4660 C   0  0  2  0  0  0  0  0  0  0  0  0
   23.7620  -20.7314   -9.5022 C   0  0  0  0  0  0  0  0  0  0  0  0
   24.5198  -20.5996  -11.8794 C   0  0  2  0  0  0  0  0  0  0  0  0
   25.5406  -20.1874  -12.8125 N   0  0  0  0  0  0  0  0  0  0  0  0
   23.1663  -20.1149  -12.2077 C   0  0  0  0  0  0  0  0  0  0  0  0
   22.0353  -20.8919  -12.1383 O   0  0  0  0  0  0  0  0  0  0  0  0
   23.0272  -18.9219  -12.5764 O   0  0  0  0  0  0  0  0  0  0  0  0
  2  1  1  6
  2  3  1  0
  4  2  1  0
  4  5  1  1
  6  4  1  0
  6  8  1  0
  7  6  2  0
  9  8  1  0
  9 10  1  0
 10 17  1  0
 11 10  2  0
 12 13  1  0
 14 13  1  0
 14 15  1  1
 16 14  1  0
 16 17  1  6
 18 19  1  0
 18 16  1  0
 20 18  2  0
M  END
$$$$
