VGI.pdb
     RDKit          3D

 20 19  0  0  1  0  0  0  0  0999 V2000
   18.2492  -22.7314  -15.0311 C   0  0  0  0  0  0  0  0  0  0  0  0
   19.7026  -22.2622  -15.0688 C   0  0  1  0  0  0  0  0  0  0  0  0
   20.1742  -22.2125  -16.5000 C   0  0  0  0  0  0  0  0  0  0  0  0
   19.7259  -20.8627  -14.4959 C   0  0  2  0  0  0  0  0  0  0  0  0
   18.6771  -20.0366  -15.0054 N   0  0  0  0  0  0  0  0  0  0  0  0
   21.0321  -20.2016  -14.6606 C   0  0  0  0  0  0  0  0  0  0  0  0
   21.3103  -19.4385  -15.6207 O   0  0  0  0  0  0  0  0  0  0  0  0
   22.0444  -20.4272  -13.6914 N   0  0  0  0  0  0  0  0  0  0  0  0
   23.3694  -19.9004  -13.8167 C   0  0  0  0  0  0  0  0  0  0  0  0
   24.2765  -20.8556  -14.5472 C   0  0  0  0  0  0  0  0  0  0  0  0
   24.1479  -22.0737  -14.2930 O   0  0  0  0  0  0  0  0  0  0  0  0
   25.7075  -19.3180  -19.2923 C   0  0  0  0  0  0  0  0  0  0  0  0
   25.4816  -20.5069  -18.4180 C   0  0  0  0  0  0  0  0  0  0  0  0
   26.5651  -20.8804  -17.4762 C   0  0  2  0  0  0  0  0  0  0  0  0
   27.5477  -21.8430  -18.1280 C   0  0  0  0  0  0  0  0  0  0  0  0
   26.1315  -21.3359  -16.1330 C   0  0  2  0  0  0  0  0  0  0  0  0
   25.2327  -20.4161  -15.4784 N   0  0  0  0  0  0  0  0  0  0  0  0
   27.2885  -21.7407  -15.3131 C   0  0  0  0  0  0  0  0  0  0  0  0
   27.8342  -23.0015  -15.3257 O   0  0  0  0  0  0  0  0  0  0  0  0
   27.8135  -20.8903  -14.5518 O   0  0  0  0  0  0  0  0  0  0  0  0
  2  1  1  6
  2  3  1  0
  4  2  1  0
  4  5  1  6
  6  4  1  0
  6  8  1  0
  7  6  2  0
  9  8  1  0
  9 10  1  0
 10 17  1  0
 11 10  2  0
 12 13  1  0
 14 13  1  0
 14 15  1  6
 16 14  1  0
 16 17  1  1
 18 19  1  0
 18 16  1  0
 20 18  2  0
M  END
$$$$
