VGI.pdb
     RDKit          3D

 20 19  0  0  1  0  0  0  0  0999 V2000
   18.6641  -13.7033  -22.2082 C   0  0  0  0  0  0  0  0  0  0  0  0
   18.4411  -14.1090  -20.7523 C   0  0  1  0  0  0  0  0  0  0  0  0
   18.2824  -15.6061  -20.6699 C   0  0  0  0  0  0  0  0  0  0  0  0
   19.6833  -13.7048  -19.9901 C   0  0  2  0  0  0  0  0  0  0  0  0
   19.6763  -14.1603  -18.6356 N   0  0  0  0  0  0  0  0  0  0  0  0
   19.9402  -12.2554  -20.0475 C   0  0  0  0  0  0  0  0  0  0  0  0
   20.2233  -11.6396  -21.1068 O   0  0  0  0  0  0  0  0  0  0  0  0
   19.8684  -11.4960  -18.8503 N   0  0  0  0  0  0  0  0  0  0  0  0
   20.1168  -10.0869  -18.8093 C   0  0  0  0  0  0  0  0  0  0  0  0
   20.0973   -9.5638  -17.3970 C   0  0  0  0  0  0  0  0  0  0  0  0
   19.0278   -9.6809  -16.7587 O   0  0  0  0  0  0  0  0  0  0  0  0
   23.6585  -11.7552  -14.6581 C   0  0  0  0  0  0  0  0  0  0  0  0
   22.5450  -10.9446  -15.2342 C   0  0  0  0  0  0  0  0  0  0  0  0
   22.3726   -9.5607  -14.7289 C   0  0  2  0  0  0  0  0  0  0  0  0
   22.2705   -9.5422  -13.2104 C   0  0  0  0  0  0  0  0  0  0  0  0
   21.3074   -8.7587  -15.3786 C   0  0  2  0  0  0  0  0  0  0  0  0
   21.2226   -8.9664  -16.8042 N   0  0  0  0  0  0  0  0  0  0  0  0
   21.3919   -7.3426  -14.9758 C   0  0  0  0  0  0  0  0  0  0  0  0
   20.7899   -6.8269  -13.8536 O   0  0  0  0  0  0  0  0  0  0  0  0
   22.0495   -6.5503  -15.6958 O   0  0  0  0  0  0  0  0  0  0  0  0
  2  1  1  6
  2  3  1  0
  4  2  1  0
  4  5  1  1
  6  4  1  0
  6  8  1  0
  7  6  2  0
  9  8  1  0
  9 10  1  0
 10 17  1  0
 11 10  2  0
 12 13  1  0
 14 13  1  0
 14 15  1  1
 16 14  1  0
 16 17  1  6
 18 19  1  0
 18 16  1  0
 20 18  2  0
M  END
$$$$
