CGD.pdb
     RDKit          3D

 19 18  0  0  1  0  0  0  0  0999 V2000
    3.8675  -21.0114   19.7592 N   0  0  0  0  0  0  0  0  0  0  0  0
    4.3401  -20.0230   20.7438 C   0  0  1  0  0  0  0  0  0  0  0  0
    3.1900  -19.8857   21.7237 C   0  0  0  0  0  0  0  0  0  0  0  0
    1.8694  -18.9297   20.9832 S   0  0  0  0  0  0  0  0  0  0  0  0
    5.5438  -20.6242   21.3748 C   0  0  0  0  0  0  0  0  0  0  0  0
    5.4373  -21.5686   22.1854 O   0  0  0  0  0  0  0  0  0  0  0  0
    6.8820  -20.1766   21.1063 N   0  0  0  0  0  0  0  0  0  0  0  0
    8.0457  -20.7804   21.7050 C   0  0  0  0  0  0  0  0  0  0  0  0
    8.2725  -20.3120   23.0985 C   0  0  0  0  0  0  0  0  0  0  0  0
    8.0252  -19.1315   23.4447 O   0  0  0  0  0  0  0  0  0  0  0  0
    8.7799  -21.2150   24.0714 N   0  0  0  0  0  0  0  0  0  0  0  0
    9.1578  -20.8221   25.4185 C   0  0  1  0  0  0  0  0  0  0  0  0
    9.3169  -22.1268   26.2141 C   0  0  0  0  0  0  0  0  0  0  0  0
    8.0020  -22.7499   26.3660 C   0  0  0  0  0  0  0  0  0  0  0  0
    7.0518  -22.0618   26.8742 O   0  0  0  0  0  0  0  0  0  0  0  0
   10.4834  -20.1337   25.4221 C   0  0  0  0  0  0  0  0  0  0  0  0
   10.8223  -19.4318   26.3815 O   0  0  0  0  0  0  0  0  0  0  0  0
    7.7609  -24.0648   25.9761 O   0  0  0  0  0  0  0  0  0  0  0  0
   11.3553  -20.2772   24.3345 O   0  0  0  0  0  0  0  0  0  0  0  0
  2  1  1  6
  2  3  1  0
  4  3  1  0
  5  2  1  0
  6  5  2  0
  7  5  1  0
  8  7  1  0
  9  8  1  0
  9 10  2  0
 11  9  1  0
 12 11  1  0
 12 13  1  1
 14 13  1  0
 15 14  2  0
 16 12  1  0
 17 16  2  0
 18 14  1  0
 19 16  1  0
M  END
$$$$
