CGD.pdb
     RDKit          3D

 19 18  0  0  1  0  0  0  0  0999 V2000
    7.6657  -15.7136   19.8512 N   0  0  0  0  0  0  0  0  0  0  0  0
    8.6745  -14.6499   19.9954 C   0  0  1  0  0  0  0  0  0  0  0  0
    7.8710  -13.3630   19.9871 C   0  0  0  0  0  0  0  0  0  0  0  0
    7.3220  -12.9981   18.3222 S   0  0  0  0  0  0  0  0  0  0  0  0
    9.3316  -14.8906   21.3064 C   0  0  0  0  0  0  0  0  0  0  0  0
   10.3221  -14.2162   21.6591 O   0  0  0  0  0  0  0  0  0  0  0  0
    8.8884  -15.8885   22.2395 N   0  0  0  0  0  0  0  0  0  0  0  0
    9.1018  -17.2997   22.0387 C   0  0  0  0  0  0  0  0  0  0  0  0
   10.3650  -17.7755   22.6638 C   0  0  0  0  0  0  0  0  0  0  0  0
   10.6699  -18.9925   22.6879 O   0  0  0  0  0  0  0  0  0  0  0  0
   11.2576  -16.8380   23.2498 N   0  0  0  0  0  0  0  0  0  0  0  0
   12.4964  -17.2082   23.9134 C   0  0  1  0  0  0  0  0  0  0  0  0
   13.4879  -16.0688   23.6315 C   0  0  0  0  0  0  0  0  0  0  0  0
   14.0131  -16.2255   22.2752 C   0  0  0  0  0  0  0  0  0  0  0  0
   14.7677  -17.2258   22.0210 O   0  0  0  0  0  0  0  0  0  0  0  0
   12.3089  -17.2795   25.3935 C   0  0  0  0  0  0  0  0  0  0  0  0
   11.2216  -16.9847   25.9023 O   0  0  0  0  0  0  0  0  0  0  0  0
   13.7164  -15.3182   21.2613 O   0  0  0  0  0  0  0  0  0  0  0  0
   13.3672  -17.6809   26.2197 O   0  0  0  0  0  0  0  0  0  0  0  0
  2  1  1  1
  2  3  1  0
  4  3  1  0
  5  2  1  0
  6  5  2  0
  7  5  1  0
  8  7  1  0
  9  8  1  0
  9 10  2  0
 11  9  1  0
 12 11  1  0
 12 13  1  1
 14 13  1  0
 15 14  2  0
 16 12  1  0
 17 16  2  0
 18 14  1  0
 19 16  1  0
M  END
$$$$
