CGD.pdb
     RDKit          3D

 19 18  0  0  1  0  0  0  0  0999 V2000
    9.5400  -13.2381   18.2364 N   0  0  0  0  0  0  0  0  0  0  0  0
    9.0725  -13.2544   19.6332 C   0  0  1  0  0  0  0  0  0  0  0  0
    7.7108  -12.5875   19.5840 C   0  0  0  0  0  0  0  0  0  0  0  0
    6.8660  -12.8108   21.1470 S   0  0  0  0  0  0  0  0  0  0  0  0
    8.9795  -14.6885   20.0119 C   0  0  0  0  0  0  0  0  0  0  0  0
    8.9378  -15.5798   19.1377 O   0  0  0  0  0  0  0  0  0  0  0  0
    8.9328  -15.1433   21.3735 N   0  0  0  0  0  0  0  0  0  0  0  0
    8.6994  -16.5194   21.7330 C   0  0  0  0  0  0  0  0  0  0  0  0
    9.8459  -17.1135   22.4715 C   0  0  0  0  0  0  0  0  0  0  0  0
    9.8370  -18.3104   22.8484 O   0  0  0  0  0  0  0  0  0  0  0  0
   10.9859  -16.3165   22.7617 N   0  0  0  0  0  0  0  0  0  0  0  0
   12.1485  -16.8031   23.4853 C   0  0  1  0  0  0  0  0  0  0  0  0
   13.2488  -15.7503   23.2813 C   0  0  0  0  0  0  0  0  0  0  0  0
   13.7601  -15.8610   21.9151 C   0  0  0  0  0  0  0  0  0  0  0  0
   14.0989  -14.7936   21.2983 O   0  0  0  0  0  0  0  0  0  0  0  0
   11.8718  -16.8800   24.9510 C   0  0  0  0  0  0  0  0  0  0  0  0
   10.8827  -16.3160   25.4324 O   0  0  0  0  0  0  0  0  0  0  0  0
   13.8842  -17.0902   21.2727 O   0  0  0  0  0  0  0  0  0  0  0  0
   12.7340  -17.5928   25.7949 O   0  0  0  0  0  0  0  0  0  0  0  0
  2  1  1  6
  2  3  1  0
  4  3  1  0
  5  2  1  0
  6  5  2  0
  7  5  1  0
  8  7  1  0
  9  8  1  0
  9 10  2  0
 11  9  1  0
 12 11  1  0
 12 13  1  1
 14 13  1  0
 15 14  2  0
 16 12  1  0
 17 16  2  0
 18 14  1  0
 19 16  1  0
M  END
$$$$
