CGD.pdb
     RDKit          3D

 19 18  0  0  1  0  0  0  0  0999 V2000
    7.9675  -12.8501   17.9302 N   0  0  0  0  0  0  0  0  0  0  0  0
    8.3109  -13.5746   19.1659 C   0  0  1  0  0  0  0  0  0  0  0  0
    7.5802  -14.8984   19.0436 C   0  0  0  0  0  0  0  0  0  0  0  0
    5.8140  -14.6340   19.1750 S   0  0  0  0  0  0  0  0  0  0  0  0
    9.7869  -13.7457   19.1375 C   0  0  0  0  0  0  0  0  0  0  0  0
   10.4791  -13.1877   18.2601 O   0  0  0  0  0  0  0  0  0  0  0  0
   10.5070  -14.5430   20.0909 N   0  0  0  0  0  0  0  0  0  0  0  0
   11.7820  -14.1510   20.6370 C   0  0  0  0  0  0  0  0  0  0  0  0
   12.2582  -15.0870   21.6904 C   0  0  0  0  0  0  0  0  0  0  0  0
   12.1569  -14.8116   22.9105 O   0  0  0  0  0  0  0  0  0  0  0  0
   12.8424  -16.3278   21.3184 N   0  0  0  0  0  0  0  0  0  0  0  0
   13.3418  -17.3036   22.2726 C   0  0  1  0  0  0  0  0  0  0  0  0
   13.8113  -18.5088   21.4434 C   0  0  0  0  0  0  0  0  0  0  0  0
   12.6663  -19.0546   20.7145 C   0  0  0  0  0  0  0  0  0  0  0  0
   11.7011  -19.5641   21.3804 O   0  0  0  0  0  0  0  0  0  0  0  0
   14.5321  -16.7750   23.0037 C   0  0  0  0  0  0  0  0  0  0  0  0
   15.0571  -15.7102   22.6592 O   0  0  0  0  0  0  0  0  0  0  0  0
   12.6020  -19.0357   19.3236 O   0  0  0  0  0  0  0  0  0  0  0  0
   15.0658  -17.4844   24.0880 O   0  0  0  0  0  0  0  0  0  0  0  0
  2  1  1  6
  2  3  1  0
  4  3  1  0
  5  2  1  0
  6  5  2  0
  7  5  1  0
  8  7  1  0
  9  8  1  0
  9 10  2  0
 11  9  1  0
 12 11  1  0
 12 13  1  6
 14 13  1  0
 15 14  2  0
 16 12  1  0
 17 16  2  0
 18 14  1  0
 19 16  1  0
M  END
$$$$
