CGD.pdb
     RDKit          3D

 19 18  0  0  1  0  0  0  0  0999 V2000
   -2.6993  -21.6526   22.8441 N   0  0  0  0  0  0  0  0  0  0  0  0
   -3.4400  -20.7239   23.7152 C   0  0  1  0  0  0  0  0  0  0  0  0
   -3.2170  -19.3597   23.0901 C   0  0  0  0  0  0  0  0  0  0  0  0
   -1.5438  -18.8086   23.4109 S   0  0  0  0  0  0  0  0  0  0  0  0
   -4.8626  -21.1474   23.6410 C   0  0  0  0  0  0  0  0  0  0  0  0
   -5.4750  -21.1451   22.5522 O   0  0  0  0  0  0  0  0  0  0  0  0
   -5.6177  -21.5794   24.7839 N   0  0  0  0  0  0  0  0  0  0  0  0
   -7.0040  -21.9663   24.7072 C   0  0  0  0  0  0  0  0  0  0  0  0
   -7.5538  -22.3663   26.0302 C   0  0  0  0  0  0  0  0  0  0  0  0
   -8.7844  -22.5356   26.2079 O   0  0  0  0  0  0  0  0  0  0  0  0
   -6.6734  -22.5666   27.1275 N   0  0  0  0  0  0  0  0  0  0  0  0
   -7.0853  -23.1346   28.4002 C   0  0  1  0  0  0  0  0  0  0  0  0
   -5.9370  -24.0513   28.8494 C   0  0  0  0  0  0  0  0  0  0  0  0
   -6.2652  -24.6102   30.1609 C   0  0  0  0  0  0  0  0  0  0  0  0
   -7.4937  -24.6818   30.5075 O   0  0  0  0  0  0  0  0  0  0  0  0
   -7.2365  -22.0696   29.4365 C   0  0  0  0  0  0  0  0  0  0  0  0
   -6.6614  -20.9831   29.3070 O   0  0  0  0  0  0  0  0  0  0  0  0
   -5.2807  -25.0609   31.0365 O   0  0  0  0  0  0  0  0  0  0  0  0
   -8.0325  -22.2945   30.5677 O   0  0  0  0  0  0  0  0  0  0  0  0
  2  1  1  6
  2  3  1  0
  4  3  1  0
  5  2  1  0
  6  5  2  0
  7  5  1  0
  8  7  1  0
  9  8  1  0
  9 10  2  0
 11  9  1  0
 12 11  1  0
 12 13  1  1
 14 13  1  0
 15 14  2  0
 16 12  1  0
 17 16  2  0
 18 14  1  0
 19 16  1  0
M  END
$$$$
