CGD.pdb
     RDKit          3D

 19 18  0  0  1  0  0  0  0  0999 V2000
    6.7165  -14.5731   25.9229 N   0  0  0  0  0  0  0  0  0  0  0  0
    6.9498  -13.2001   25.4430 C   0  0  1  0  0  0  0  0  0  0  0  0
    8.0953  -12.6904   26.2972 C   0  0  0  0  0  0  0  0  0  0  0  0
    7.5202  -12.3772   27.9638 S   0  0  0  0  0  0  0  0  0  0  0  0
    7.3334  -13.3310   24.0133 C   0  0  0  0  0  0  0  0  0  0  0  0
    7.8783  -12.3840   23.4076 O   0  0  0  0  0  0  0  0  0  0  0  0
    7.1127  -14.5232   23.2433 N   0  0  0  0  0  0  0  0  0  0  0  0
    7.5174  -14.6534   21.8661 C   0  0  0  0  0  0  0  0  0  0  0  0
    8.6685  -15.5807   21.6999 C   0  0  0  0  0  0  0  0  0  0  0  0
    9.0092  -16.0116   20.5716 O   0  0  0  0  0  0  0  0  0  0  0  0
    9.4098  -15.9948   22.8393 N   0  0  0  0  0  0  0  0  0  0  0  0
   10.3461  -17.1062   22.8334 C   0  0  1  0  0  0  0  0  0  0  0  0
   11.2878  -16.8763   24.0255 C   0  0  0  0  0  0  0  0  0  0  0  0
   12.4107  -16.0476   23.5865 C   0  0  0  0  0  0  0  0  0  0  0  0
   12.5102  -15.7564   22.3456 O   0  0  0  0  0  0  0  0  0  0  0  0
    9.6395  -18.4012   23.0672 C   0  0  0  0  0  0  0  0  0  0  0  0
   10.0955  -19.4553   22.6099 O   0  0  0  0  0  0  0  0  0  0  0  0
   13.3685  -15.5730   24.4789 O   0  0  0  0  0  0  0  0  0  0  0  0
    8.4501  -18.4317   23.8073 O   0  0  0  0  0  0  0  0  0  0  0  0
  2  1  1  1
  2  3  1  0
  4  3  1  0
  5  2  1  0
  6  5  2  0
  7  5  1  0
  8  7  1  0
  9  8  1  0
  9 10  2  0
 11  9  1  0
 12 11  1  0
 12 13  1  1
 14 13  1  0
 15 14  2  0
 16 12  1  0
 17 16  2  0
 18 14  1  0
 19 16  1  0
M  END
$$$$
