CGD.pdb
     RDKit          3D

 19 18  0  0  1  0  0  0  0  0999 V2000
    6.7765  -19.8480   15.7981 N   0  0  0  0  0  0  0  0  0  0  0  0
    6.5816  -21.1277   16.5011 C   0  0  1  0  0  0  0  0  0  0  0  0
    6.0666  -22.0722   15.4315 C   0  0  0  0  0  0  0  0  0  0  0  0
    4.3155  -22.3630   15.6671 S   0  0  0  0  0  0  0  0  0  0  0  0
    7.9247  -21.5247   16.9983 C   0  0  0  0  0  0  0  0  0  0  0  0
    8.9264  -21.4630   16.2545 O   0  0  0  0  0  0  0  0  0  0  0  0
    8.1640  -21.9952   18.3341 N   0  0  0  0  0  0  0  0  0  0  0  0
    9.4578  -22.4377   18.7897 C   0  0  0  0  0  0  0  0  0  0  0  0
   10.1290  -21.4293   19.6529 C   0  0  0  0  0  0  0  0  0  0  0  0
    9.8340  -20.2110   19.5937 O   0  0  0  0  0  0  0  0  0  0  0  0
   11.1296  -21.8437   20.5728 N   0  0  0  0  0  0  0  0  0  0  0  0
   11.7825  -20.9487   21.5134 C   0  0  1  0  0  0  0  0  0  0  0  0
   12.2915  -21.8343   22.6612 C   0  0  0  0  0  0  0  0  0  0  0  0
   12.6793  -20.9774   23.7817 C   0  0  0  0  0  0  0  0  0  0  0  0
   13.7450  -20.2785   23.6795 O   0  0  0  0  0  0  0  0  0  0  0  0
   12.9739  -20.2970   20.8917 C   0  0  0  0  0  0  0  0  0  0  0  0
   13.5562  -19.3730   21.4707 O   0  0  0  0  0  0  0  0  0  0  0  0
   11.9243  -20.9056   24.9495 O   0  0  0  0  0  0  0  0  0  0  0  0
   13.4419  -20.7278   19.6431 O   0  0  0  0  0  0  0  0  0  0  0  0
  2  1  1  6
  2  3  1  0
  4  3  1  0
  5  2  1  0
  6  5  2  0
  7  5  1  0
  8  7  1  0
  9  8  1  0
  9 10  2  0
 11  9  1  0
 12 11  1  0
 12 13  1  1
 14 13  1  0
 15 14  2  0
 16 12  1  0
 17 16  2  0
 18 14  1  0
 19 16  1  0
M  END
$$$$
