CGD.pdb
     RDKit          3D

 19 18  0  0  1  0  0  0  0  0999 V2000
    5.7616  -13.2568   26.3239 N   0  0  0  0  0  0  0  0  0  0  0  0
    6.9713  -13.0459   25.5103 C   0  0  1  0  0  0  0  0  0  0  0  0
    8.0758  -12.8219   26.5260 C   0  0  0  0  0  0  0  0  0  0  0  0
    7.7750  -11.3050   27.4287 S   0  0  0  0  0  0  0  0  0  0  0  0
    7.1655  -14.3025   24.7409 C   0  0  0  0  0  0  0  0  0  0  0  0
    6.8467  -15.4073   25.2289 O   0  0  0  0  0  0  0  0  0  0  0  0
    7.7181  -14.3385   23.4156 N   0  0  0  0  0  0  0  0  0  0  0  0
    7.7987  -15.5457   22.6323 C   0  0  0  0  0  0  0  0  0  0  0  0
    8.9677  -16.3859   23.0064 C   0  0  0  0  0  0  0  0  0  0  0  0
    9.2039  -17.4775   22.4342 O   0  0  0  0  0  0  0  0  0  0  0  0
    9.8473  -15.9515   24.0344 N   0  0  0  0  0  0  0  0  0  0  0  0
   10.8692  -16.7942   24.6325 C   0  0  1  0  0  0  0  0  0  0  0  0
   12.2154  -16.1326   24.2999 C   0  0  0  0  0  0  0  0  0  0  0  0
   12.4886  -16.3101   22.8737 C   0  0  0  0  0  0  0  0  0  0  0  0
   12.3065  -17.4634   22.3529 O   0  0  0  0  0  0  0  0  0  0  0  0
   10.7395  -16.8168   26.1203 C   0  0  0  0  0  0  0  0  0  0  0  0
    9.9750  -16.0334   26.6946 O   0  0  0  0  0  0  0  0  0  0  0  0
   12.9410  -15.2631   22.0748 O   0  0  0  0  0  0  0  0  0  0  0  0
   11.4863  -17.7278   26.8793 O   0  0  0  0  0  0  0  0  0  0  0  0
  2  1  1  1
  2  3  1  0
  4  3  1  0
  5  2  1  0
  6  5  2  0
  7  5  1  0
  8  7  1  0
  9  8  1  0
  9 10  2  0
 11  9  1  0
 12 11  1  0
 12 13  1  1
 14 13  1  0
 15 14  2  0
 16 12  1  0
 17 16  2  0
 18 14  1  0
 19 16  1  0
M  END
$$$$
