CGD.pdb
     RDKit          3D

 19 18  0  0  1  0  0  0  0  0999 V2000
    5.0569  -18.9113   22.1090 N   0  0  0  0  0  0  0  0  0  0  0  0
    4.5236  -18.4225   20.8259 C   0  0  1  0  0  0  0  0  0  0  0  0
    3.0942  -18.0218   21.1385 C   0  0  0  0  0  0  0  0  0  0  0  0
    2.5149  -18.9078   22.5827 S   0  0  0  0  0  0  0  0  0  0  0  0
    5.3643  -17.2537   20.4573 C   0  0  0  0  0  0  0  0  0  0  0  0
    5.1484  -16.6166   19.4047 O   0  0  0  0  0  0  0  0  0  0  0  0
    6.4567  -16.7827   21.2621 N   0  0  0  0  0  0  0  0  0  0  0  0
    7.2291  -15.6125   20.9283 C   0  0  0  0  0  0  0  0  0  0  0  0
    8.2246  -15.2727   21.9800 C   0  0  0  0  0  0  0  0  0  0  0  0
    9.0449  -14.3347   21.8316 O   0  0  0  0  0  0  0  0  0  0  0  0
    8.2563  -16.0204   23.1880 N   0  0  0  0  0  0  0  0  0  0  0  0
    9.4519  -16.2031   23.9936 C   0  0  1  0  0  0  0  0  0  0  0  0
    9.1237  -17.3203   24.9960 C   0  0  0  0  0  0  0  0  0  0  0  0
   10.2746  -17.5159   25.8778 C   0  0  0  0  0  0  0  0  0  0  0  0
   10.9707  -16.4973   26.2133 O   0  0  0  0  0  0  0  0  0  0  0  0
   10.5934  -16.6778   23.1555 C   0  0  0  0  0  0  0  0  0  0  0  0
   10.4423  -17.6152   22.3639 O   0  0  0  0  0  0  0  0  0  0  0  0
   10.6304  -18.7744   26.3558 O   0  0  0  0  0  0  0  0  0  0  0  0
   11.8486  -16.0639   23.2608 O   0  0  0  0  0  0  0  0  0  0  0  0
  2  1  1  1
  2  3  1  0
  4  3  1  0
  5  2  1  0
  6  5  2  0
  7  5  1  0
  8  7  1  0
  9  8  1  0
  9 10  2  0
 11  9  1  0
 12 11  1  0
 12 13  1  1
 14 13  1  0
 15 14  2  0
 16 12  1  0
 17 16  2  0
 18 14  1  0
 19 16  1  0
M  END
$$$$
