CGD.pdb
     RDKit          3D

 19 18  0  0  1  0  0  0  0  0999 V2000
    7.7040  -13.2939   27.1698 N   0  0  0  0  0  0  0  0  0  0  0  0
    6.7985  -13.2080   26.0112 C   0  0  1  0  0  0  0  0  0  0  0  0
    6.4159  -11.7417   25.9381 C   0  0  0  0  0  0  0  0  0  0  0  0
    5.3839  -11.3108   27.3366 S   0  0  0  0  0  0  0  0  0  0  0  0
    7.6026  -13.6354   24.8367 C   0  0  0  0  0  0  0  0  0  0  0  0
    8.7451  -13.1702   24.6399 O   0  0  0  0  0  0  0  0  0  0  0  0
    7.1388  -14.5891   23.8681 N   0  0  0  0  0  0  0  0  0  0  0  0
    7.9331  -15.0132   22.7426 C   0  0  0  0  0  0  0  0  0  0  0  0
    8.8644  -16.1192   23.0920 C   0  0  0  0  0  0  0  0  0  0  0  0
    8.8852  -17.1924   22.4420 O   0  0  0  0  0  0  0  0  0  0  0  0
    9.7589  -15.9678   24.1857 N   0  0  0  0  0  0  0  0  0  0  0  0
   10.6356  -17.0236   24.6641 C   0  0  1  0  0  0  0  0  0  0  0  0
   12.0679  -16.4875   24.5166 C   0  0  0  0  0  0  0  0  0  0  0  0
   12.4607  -16.5722   23.1099 C   0  0  0  0  0  0  0  0  0  0  0  0
   12.3955  -17.7055   22.5217 O   0  0  0  0  0  0  0  0  0  0  0  0
   10.4072  -17.2908   26.1157 C   0  0  0  0  0  0  0  0  0  0  0  0
    9.6240  -16.5897   26.7663 O   0  0  0  0  0  0  0  0  0  0  0  0
   12.9029  -15.4585   22.4006 O   0  0  0  0  0  0  0  0  0  0  0  0
   11.0817  -18.3402   26.7541 O   0  0  0  0  0  0  0  0  0  0  0  0
  2  1  1  1
  2  3  1  0
  4  3  1  0
  5  2  1  0
  6  5  2  0
  7  5  1  0
  8  7  1  0
  9  8  1  0
  9 10  2  0
 11  9  1  0
 12 11  1  0
 12 13  1  1
 14 13  1  0
 15 14  2  0
 16 12  1  0
 17 16  2  0
 18 14  1  0
 19 16  1  0
M  END
$$$$
