CGD.pdb
     RDKit          3D

 19 18  0  0  1  0  0  0  0  0999 V2000
    5.6108  -13.1880   25.7789 N   0  0  0  0  0  0  0  0  0  0  0  0
    6.9806  -13.2508   25.2409 C   0  0  1  0  0  0  0  0  0  0  0  0
    7.8725  -13.0889   26.4574 C   0  0  0  0  0  0  0  0  0  0  0  0
    7.6373  -11.4647   27.1737 S   0  0  0  0  0  0  0  0  0  0  0  0
    7.1124  -14.5973   24.6260 C   0  0  0  0  0  0  0  0  0  0  0  0
    6.6378  -15.6068   25.1882 O   0  0  0  0  0  0  0  0  0  0  0  0
    7.7763  -14.8311   23.3739 N   0  0  0  0  0  0  0  0  0  0  0  0
    7.8633  -16.1340   22.7638 C   0  0  0  0  0  0  0  0  0  0  0  0
    9.0217  -16.9189   23.2684 C   0  0  0  0  0  0  0  0  0  0  0  0
    9.2315  -18.0979   22.8934 O   0  0  0  0  0  0  0  0  0  0  0  0
    9.9212  -16.3293   24.1971 N   0  0  0  0  0  0  0  0  0  0  0  0
   10.9566  -17.0686   24.8994 C   0  0  1  0  0  0  0  0  0  0  0  0
   12.2391  -16.2324   24.7708 C   0  0  0  0  0  0  0  0  0  0  0  0
   12.8168  -16.4558   23.4454 C   0  0  0  0  0  0  0  0  0  0  0  0
   12.7918  -17.6368   22.9562 O   0  0  0  0  0  0  0  0  0  0  0  0
   10.6406  -17.1785   26.3551 C   0  0  0  0  0  0  0  0  0  0  0  0
    9.8520  -16.3886   26.8864 O   0  0  0  0  0  0  0  0  0  0  0  0
   13.3913  -15.4230   22.7090 O   0  0  0  0  0  0  0  0  0  0  0  0
   11.2381  -18.1794   27.1327 O   0  0  0  0  0  0  0  0  0  0  0  0
  2  1  1  1
  2  3  1  0
  4  3  1  0
  5  2  1  0
  6  5  2  0
  7  5  1  0
  8  7  1  0
  9  8  1  0
  9 10  2  0
 11  9  1  0
 12 11  1  0
 12 13  1  1
 14 13  1  0
 15 14  2  0
 16 12  1  0
 17 16  2  0
 18 14  1  0
 19 16  1  0
M  END
$$$$
