CGD.pdb
     RDKit          3D

 19 18  0  0  1  0  0  0  0  0999 V2000
    2.8265  -20.5611   20.0706 N   0  0  0  0  0  0  0  0  0  0  0  0
    3.3805  -20.9992   18.7779 C   0  0  1  0  0  0  0  0  0  0  0  0
    2.3222  -20.6118   17.7622 C   0  0  0  0  0  0  0  0  0  0  0  0
    2.6752  -21.3886   16.1879 S   0  0  0  0  0  0  0  0  0  0  0  0
    4.6389  -20.2299   18.5956 C   0  0  0  0  0  0  0  0  0  0  0  0
    4.6146  -18.9906   18.4407 O   0  0  0  0  0  0  0  0  0  0  0  0
    5.9403  -20.8375   18.5848 N   0  0  0  0  0  0  0  0  0  0  0  0
    7.1406  -20.1142   18.2480 C   0  0  0  0  0  0  0  0  0  0  0  0
    8.3626  -20.9517   18.3832 C   0  0  0  0  0  0  0  0  0  0  0  0
    8.7301  -21.7319   17.4717 O   0  0  0  0  0  0  0  0  0  0  0  0
    9.1424  -20.8736   19.5685 N   0  0  0  0  0  0  0  0  0  0  0  0
   10.3578  -21.6398   19.7874 C   0  0  1  0  0  0  0  0  0  0  0  0
   11.3086  -20.7174   20.5657 C   0  0  0  0  0  0  0  0  0  0  0  0
   12.1810  -20.0286   19.6146 C   0  0  0  0  0  0  0  0  0  0  0  0
   11.6468  -19.3704   18.6575 O   0  0  0  0  0  0  0  0  0  0  0  0
   10.0903  -22.8315   20.6472 C   0  0  0  0  0  0  0  0  0  0  0  0
    9.1690  -22.8156   21.4713 O   0  0  0  0  0  0  0  0  0  0  0  0
   13.5686  -20.0729   19.7227 O   0  0  0  0  0  0  0  0  0  0  0  0
   10.8845  -23.9799   20.5274 O   0  0  0  0  0  0  0  0  0  0  0  0
  2  1  1  1
  2  3  1  0
  4  3  1  0
  5  2  1  0
  6  5  2  0
  7  5  1  0
  8  7  1  0
  9  8  1  0
  9 10  2  0
 11  9  1  0
 12 11  1  0
 12 13  1  1
 14 13  1  0
 15 14  2  0
 16 12  1  0
 17 16  2  0
 18 14  1  0
 19 16  1  0
M  END
$$$$
