VTQ.pdb
     RDKit          3D

 24 23  0  0  1  0  0  0  0  0999 V2000
   25.6934  -21.8646  -11.7673 C   0  0  0  0  0  0  0  0  0  0  0  0
   26.2308  -21.1099  -12.9613 C   0  0  2  0  0  0  0  0  0  0  0  0
   27.7054  -21.3433  -13.0847 C   0  0  0  0  0  0  0  0  0  0  0  0
   25.9830  -19.6300  -12.8576 C   0  0  2  0  0  0  0  0  0  0  0  0
   24.6074  -19.2945  -12.6138 N   0  0  0  0  0  0  0  0  0  0  0  0
   26.4619  -18.8867  -14.0524 C   0  0  0  0  0  0  0  0  0  0  0  0
   27.6549  -18.9560  -14.4538 O   0  0  0  0  0  0  0  0  0  0  0  0
   25.4463  -19.3566  -17.4553 C   0  0  0  0  0  0  0  0  0  0  0  0
   25.1148  -17.9144  -17.1764 C   0  0  1  0  0  0  0  0  0  0  0  0
   23.7796  -17.8908  -16.7377 O   0  0  0  0  0  0  0  0  0  0  0  0
   25.9771  -17.3817  -16.0383 C   0  0  2  0  0  0  0  0  0  0  0  0
   25.5826  -18.0587  -14.7978 N   0  0  0  0  0  0  0  0  0  0  0  0
   25.7954  -15.9372  -15.7918 C   0  0  0  0  0  0  0  0  0  0  0  0
   25.2014  -15.5943  -14.7074 O   0  0  0  0  0  0  0  0  0  0  0  0
   29.6161  -11.5175  -17.2222 N   0  0  0  0  0  0  0  0  0  0  0  0
   28.5935  -10.6916  -16.7125 C   0  0  0  0  0  0  0  0  0  0  0  0
   28.8140   -9.4643  -16.5666 O   0  0  0  0  0  0  0  0  0  0  0  0
   27.2795  -11.3165  -16.3643 C   0  0  0  0  0  0  0  0  0  0  0  0
   27.4247  -12.8192  -16.6066 C   0  0  0  0  0  0  0  0  0  0  0  0
   26.1151  -13.5253  -16.3249 C   0  0  2  0  0  0  0  0  0  0  0  0
   26.2404  -14.9419  -16.6784 N   0  0  0  0  0  0  0  0  0  0  0  0
   25.0403  -12.9578  -17.1737 C   0  0  0  0  0  0  0  0  0  0  0  0
   24.7419  -13.5179  -18.2784 O   0  0  0  0  0  0  0  0  0  0  0  0
   24.3113  -11.8253  -16.8443 O   0  0  0  0  0  0  0  0  0  0  0  0
  2  1  1  1
  2  3  1  0
  4  6  1  0
  4  2  1  0
  4  5  1  6
  6  7  2  0
  9  8  1  1
 10  9  1  0
 11  9  1  0
 11 12  1  1
 12  6  1  0
 13 21  1  0
 13 11  1  0
 14 13  2  0
 16 15  1  0
 16 17  2  0
 18 16  1  0
 19 18  1  0
 20 19  1  6
 20 21  1  0
 22 20  1  0
 22 24  1  0
 23 22  2  0
M  END
$$$$
