VTQ.pdb
     RDKit          3D

 24 23  0  0  1  0  0  0  0  0999 V2000
   28.2588  -15.4792  -17.8490 C   0  0  0  0  0  0  0  0  0  0  0  0
   26.8979  -15.9418  -17.3821 C   0  0  2  0  0  0  0  0  0  0  0  0
   26.5597  -17.2502  -18.0285 C   0  0  0  0  0  0  0  0  0  0  0  0
   25.8166  -14.9483  -17.7081 C   0  0  2  0  0  0  0  0  0  0  0  0
   25.6882  -14.6810  -19.1139 N   0  0  0  0  0  0  0  0  0  0  0  0
   25.9853  -13.6631  -16.9807 C   0  0  0  0  0  0  0  0  0  0  0  0
   26.0217  -13.6025  -15.7221 O   0  0  0  0  0  0  0  0  0  0  0  0
   28.7704  -11.4743  -16.8809 C   0  0  0  0  0  0  0  0  0  0  0  0
   27.6717  -10.5942  -17.4155 C   0  0  1  0  0  0  0  0  0  0  0  0
   27.7569  -10.6587  -18.8171 O   0  0  0  0  0  0  0  0  0  0  0  0
   26.3079  -11.1455  -17.0168 C   0  0  2  0  0  0  0  0  0  0  0  0
   26.1135  -12.4373  -17.6846 N   0  0  0  0  0  0  0  0  0  0  0  0
   25.1824  -10.2904  -17.4439 C   0  0  0  0  0  0  0  0  0  0  0  0
   24.4943  -10.6825  -18.4534 O   0  0  0  0  0  0  0  0  0  0  0  0
   20.9250   -7.7750  -14.2658 N   0  0  0  0  0  0  0  0  0  0  0  0
   20.6149   -7.0927  -15.4599 C   0  0  0  0  0  0  0  0  0  0  0  0
   19.5446   -6.4404  -15.5315 O   0  0  0  0  0  0  0  0  0  0  0  0
   21.5808   -7.1750  -16.5995 C   0  0  0  0  0  0  0  0  0  0  0  0
   22.7069   -8.1113  -16.1598 C   0  0  0  0  0  0  0  0  0  0  0  0
   23.7099   -8.2883  -17.2804 C   0  0  2  0  0  0  0  0  0  0  0  0
   24.8392   -9.0893  -16.8004 N   0  0  0  0  0  0  0  0  0  0  0  0
   24.2526   -6.9702  -17.6878 C   0  0  0  0  0  0  0  0  0  0  0  0
   25.4156   -6.6173  -17.3056 O   0  0  0  0  0  0  0  0  0  0  0  0
   23.5663   -6.0627  -18.4802 O   0  0  0  0  0  0  0  0  0  0  0  0
  2  1  1  6
  2  3  1  0
  4  6  1  0
  4  2  1  0
  4  5  1  6
  6  7  2  0
  9  8  1  1
 10  9  1  0
 11  9  1  0
 11 12  1  6
 12  6  1  0
 13 21  1  0
 13 11  1  0
 14 13  2  0
 16 15  1  0
 16 17  2  0
 18 16  1  0
 19 18  1  0
 20 19  1  1
 20 21  1  0
 22 20  1  0
 22 24  1  0
 23 22  2  0
M  END
$$$$
