VTQ.pdb
     RDKit          3D

 24 23  0  0  1  0  0  0  0  0999 V2000
   22.1509  -18.4540  -17.9593 C   0  0  0  0  0  0  0  0  0  0  0  0
   23.4398  -17.7291  -18.2713 C   0  0  2  0  0  0  0  0  0  0  0  0
   23.1651  -16.5878  -19.2019 C   0  0  0  0  0  0  0  0  0  0  0  0
   24.4620  -18.6330  -18.9040 C   0  0  2  0  0  0  0  0  0  0  0  0
   24.0600  -19.1456  -20.1846 N   0  0  0  0  0  0  0  0  0  0  0  0
   24.8434  -19.7674  -18.0224 C   0  0  0  0  0  0  0  0  0  0  0  0
   24.4189  -20.9390  -18.2128 O   0  0  0  0  0  0  0  0  0  0  0  0
   27.8484  -21.5202  -14.5050 C   0  0  0  0  0  0  0  0  0  0  0  0
   27.4973  -20.5042  -15.5594 C   0  0  1  0  0  0  0  0  0  0  0  0
   28.2630  -20.8267  -16.6932 O   0  0  0  0  0  0  0  0  0  0  0  0
   26.0297  -20.6303  -15.9508 C   0  0  2  0  0  0  0  0  0  0  0  0
   25.7121  -19.5729  -16.9170 N   0  0  0  0  0  0  0  0  0  0  0  0
   25.1025  -20.4410  -14.8173 C   0  0  0  0  0  0  0  0  0  0  0  0
   24.7866  -19.2362  -14.5090 O   0  0  0  0  0  0  0  0  0  0  0  0
   25.9917  -21.7768   -9.9578 N   0  0  0  0  0  0  0  0  0  0  0  0
   24.8303  -21.0624   -9.5995 C   0  0  0  0  0  0  0  0  0  0  0  0
   24.3105  -21.2642   -8.4748 O   0  0  0  0  0  0  0  0  0  0  0  0
   24.2620  -20.0871  -10.5814 C   0  0  0  0  0  0  0  0  0  0  0  0
   24.8941  -20.4031  -11.9373 C   0  0  0  0  0  0  0  0  0  0  0  0
   23.9629  -21.2665  -12.7622 C   0  0  2  0  0  0  0  0  0  0  0  0
   24.5604  -21.5064  -14.0785 N   0  0  0  0  0  0  0  0  0  0  0  0
   22.6810  -20.5569  -12.9884 C   0  0  0  0  0  0  0  0  0  0  0  0
   22.5132  -19.8730  -14.0500 O   0  0  0  0  0  0  0  0  0  0  0  0
   21.6157  -20.5829  -12.1013 O   0  0  0  0  0  0  0  0  0  0  0  0
  2  1  1  6
  2  3  1  0
  4  6  1  0
  4  2  1  0
  4  5  1  6
  6  7  2  0
  9  8  1  1
 10  9  1  0
 11  9  1  0
 11 12  1  6
 12  6  1  0
 13 21  1  0
 13 11  1  0
 14 13  2  0
 16 15  1  0
 16 17  2  0
 18 16  1  0
 19 18  1  0
 20 19  1  1
 20 21  1  0
 22 20  1  0
 22 24  1  0
 23 22  2  0
M  END
$$$$
