VTQ.pdb
     RDKit          3D

 24 23  0  0  1  0  0  0  0  0999 V2000
   21.8760  -10.0193  -17.9265 C   0  0  0  0  0  0  0  0  0  0  0  0
   21.3456  -11.2067  -17.1566 C   0  0  2  0  0  0  0  0  0  0  0  0
   21.7478  -12.4753  -17.8443 C   0  0  0  0  0  0  0  0  0  0  0  0
   19.8471  -11.1797  -17.0307 C   0  0  2  0  0  0  0  0  0  0  0  0
   19.1629  -11.3896  -18.2766 N   0  0  0  0  0  0  0  0  0  0  0  0
   19.3499   -9.9257  -16.4065 C   0  0  0  0  0  0  0  0  0  0  0  0
   18.9630   -8.9410  -17.0919 O   0  0  0  0  0  0  0  0  0  0  0  0
   17.7391   -7.6121  -12.3410 C   0  0  0  0  0  0  0  0  0  0  0  0
   18.1145   -8.8703  -13.0783 C   0  0  1  0  0  0  0  0  0  0  0  0
   16.9097   -9.4581  -13.5010 O   0  0  0  0  0  0  0  0  0  0  0  0
   18.9193   -8.5335  -14.3280 C   0  0  2  0  0  0  0  0  0  0  0  0
   19.2907   -9.7863  -14.9953 N   0  0  0  0  0  0  0  0  0  0  0  0
   20.1865   -7.8330  -14.0379 C   0  0  0  0  0  0  0  0  0  0  0  0
   21.2550   -8.5419  -13.9927 O   0  0  0  0  0  0  0  0  0  0  0  0
   23.2533   -6.0806  -17.6161 N   0  0  0  0  0  0  0  0  0  0  0  0
   24.0478   -5.3842  -16.6826 C   0  0  0  0  0  0  0  0  0  0  0  0
   25.1812   -4.9719  -17.0309 O   0  0  0  0  0  0  0  0  0  0  0  0
   23.5032   -5.1643  -15.3065 C   0  0  0  0  0  0  0  0  0  0  0  0
   22.1810   -5.9279  -15.2253 C   0  0  0  0  0  0  0  0  0  0  0  0
   21.5659   -5.7677  -13.8509 C   0  0  2  0  0  0  0  0  0  0  0  0
   20.2683   -6.4478  -13.8165 N   0  0  0  0  0  0  0  0  0  0  0  0
   21.3137   -4.3336  -13.5725 C   0  0  0  0  0  0  0  0  0  0  0  0
   20.2121   -3.8022  -13.9291 O   0  0  0  0  0  0  0  0  0  0  0  0
   22.2172   -3.4996  -12.9315 O   0  0  0  0  0  0  0  0  0  0  0  0
  2  1  1  6
  2  3  1  0
  4  6  1  0
  4  2  1  0
  4  5  1  6
  6  7  2  0
  9  8  1  6
 10  9  1  0
 11  9  1  0
 11 12  1  1
 12  6  1  0
 13 21  1  0
 13 11  1  0
 14 13  2  0
 16 15  1  0
 16 17  2  0
 18 16  1  0
 19 18  1  0
 20 19  1  6
 20 21  1  0
 22 20  1  0
 22 24  1  0
 23 22  2  0
M  END
$$$$
