VTQ.pdb
     RDKit          3D

 24 23  0  0  1  0  0  0  0  0999 V2000
   20.4545  -13.7524  -18.1605 C   0  0  0  0  0  0  0  0  0  0  0  0
   19.9629  -12.3427  -17.9261 C   0  0  2  0  0  0  0  0  0  0  0  0
   21.1316  -11.4254  -17.7340 C   0  0  0  0  0  0  0  0  0  0  0  0
   19.0691  -12.2451  -16.7203 C   0  0  2  0  0  0  0  0  0  0  0  0
   17.8724  -13.0331  -16.8281 N   0  0  0  0  0  0  0  0  0  0  0  0
   18.7014  -10.8420  -16.3953 C   0  0  0  0  0  0  0  0  0  0  0  0
   17.9409  -10.1583  -17.1324 O   0  0  0  0  0  0  0  0  0  0  0  0
   17.8508   -7.3426  -13.2092 C   0  0  0  0  0  0  0  0  0  0  0  0
   17.9377   -8.7419  -13.7589 C   0  0  1  0  0  0  0  0  0  0  0  0
   16.6718   -9.0386  -14.2932 O   0  0  0  0  0  0  0  0  0  0  0  0
   18.9405   -8.8010  -14.9051 C   0  0  2  0  0  0  0  0  0  0  0  0
   19.1991  -10.2090  -15.2266 N   0  0  0  0  0  0  0  0  0  0  0  0
   20.2513   -8.2107  -14.5681 C   0  0  0  0  0  0  0  0  0  0  0  0
   21.0533   -8.9205  -13.8614 O   0  0  0  0  0  0  0  0  0  0  0  0
   23.5719   -3.6557  -17.7479 N   0  0  0  0  0  0  0  0  0  0  0  0
   22.2646   -4.1708  -17.6319 C   0  0  0  0  0  0  0  0  0  0  0  0
   21.5613   -4.2928  -18.6647 O   0  0  0  0  0  0  0  0  0  0  0  0
   21.7668   -4.5530  -16.2738 C   0  0  0  0  0  0  0  0  0  0  0  0
   22.6056   -5.7457  -15.8133 C   0  0  0  0  0  0  0  0  0  0  0  0
   21.9652   -6.4040  -14.6092 C   0  0  2  0  0  0  0  0  0  0  0  0
   20.6495   -6.9289  -14.9842 N   0  0  0  0  0  0  0  0  0  0  0  0
   21.7456   -5.4008  -13.5400 C   0  0  0  0  0  0  0  0  0  0  0  0
   20.5851   -4.9059  -13.3631 O   0  0  0  0  0  0  0  0  0  0  0  0
   22.7420   -4.9458  -12.6898 O   0  0  0  0  0  0  0  0  0  0  0  0
  2  1  1  1
  2  3  1  0
  4  6  1  0
  4  2  1  0
  4  5  1  6
  6  7  2  0
  9  8  1  6
 10  9  1  0
 11  9  1  0
 11 12  1  1
 12  6  1  0
 13 21  1  0
 13 11  1  0
 14 13  2  0
 16 15  1  0
 16 17  2  0
 18 16  1  0
 19 18  1  0
 20 19  1  6
 20 21  1  0
 22 20  1  0
 22 24  1  0
 23 22  2  0
M  END
$$$$
