VTQ.pdb
     RDKit          3D

 24 23  0  0  1  0  0  0  0  0999 V2000
   17.5723  -14.4916  -15.7641 C   0  0  0  0  0  0  0  0  0  0  0  0
   18.2657  -14.0559  -17.0342 C   0  0  2  0  0  0  0  0  0  0  0  0
   19.4959  -14.8837  -17.2478 C   0  0  0  0  0  0  0  0  0  0  0  0
   18.6603  -12.6049  -16.9979 C   0  0  2  0  0  0  0  0  0  0  0  0
   19.6986  -12.3165  -16.0475 N   0  0  0  0  0  0  0  0  0  0  0  0
   17.5040  -11.7059  -16.7447 C   0  0  0  0  0  0  0  0  0  0  0  0
   16.5808  -11.5443  -17.5877 O   0  0  0  0  0  0  0  0  0  0  0  0
   14.7756  -11.8064  -14.3250 C   0  0  0  0  0  0  0  0  0  0  0  0
   15.5499  -10.5551  -14.0055 C   0  0  1  0  0  0  0  0  0  0  0  0
   16.5180  -10.9187  -13.0534 O   0  0  0  0  0  0  0  0  0  0  0  0
   16.2912  -10.0590  -15.2413 C   0  0  2  0  0  0  0  0  0  0  0  0
   17.3930  -10.9846  -15.5274 N   0  0  0  0  0  0  0  0  0  0  0  0
   16.9095   -8.7303  -15.0598 C   0  0  0  0  0  0  0  0  0  0  0  0
   18.1592   -8.6201  -15.3286 O   0  0  0  0  0  0  0  0  0  0  0  0
   17.8288   -5.2619  -18.5312 N   0  0  0  0  0  0  0  0  0  0  0  0
   18.0404   -4.2313  -17.5927 C   0  0  0  0  0  0  0  0  0  0  0  0
   18.4805   -3.1242  -17.9886 O   0  0  0  0  0  0  0  0  0  0  0  0
   17.7296   -4.5020  -16.1545 C   0  0  0  0  0  0  0  0  0  0  0  0
   17.1668   -5.9219  -16.0818 C   0  0  0  0  0  0  0  0  0  0  0  0
   16.8165   -6.2751  -14.6516 C   0  0  2  0  0  0  0  0  0  0  0  0
   16.1977   -7.6029  -14.6160 N   0  0  0  0  0  0  0  0  0  0  0  0
   15.8187   -5.3150  -14.1220 C   0  0  0  0  0  0  0  0  0  0  0  0
   14.5747   -5.5596  -14.2465 O   0  0  0  0  0  0  0  0  0  0  0  0
   16.1493   -4.1313  -13.4800 O   0  0  0  0  0  0  0  0  0  0  0  0
  2  1  1  1
  2  3  1  0
  4  6  1  0
  4  2  1  0
  4  5  1  1
  6  7  2  0
  9  8  1  6
 10  9  1  0
 11  9  1  0
 11 12  1  1
 12  6  1  0
 13 21  1  0
 13 11  1  0
 14 13  2  0
 16 15  1  0
 16 17  2  0
 18 16  1  0
 19 18  1  0
 20 19  1  6
 20 21  1  0
 22 20  1  0
 22 24  1  0
 23 22  2  0
M  END
$$$$
