VTQ.pdb
     RDKit          3D

 24 23  0  0  1  0  0  0  0  0999 V2000
   23.7006  -22.5830  -14.6125 C   0  0  0  0  0  0  0  0  0  0  0  0
   24.5766  -23.7870  -14.3535 C   0  0  2  0  0  0  0  0  0  0  0  0
   26.0159  -23.4131  -14.5348 C   0  0  0  0  0  0  0  0  0  0  0  0
   24.2557  -24.9326  -15.2738 C   0  0  2  0  0  0  0  0  0  0  0  0
   24.4693  -24.6302  -16.6621 N   0  0  0  0  0  0  0  0  0  0  0  0
   22.8698  -25.4384  -15.0925 C   0  0  0  0  0  0  0  0  0  0  0  0
   21.8713  -24.8606  -15.6007 O   0  0  0  0  0  0  0  0  0  0  0  0
   19.9430  -29.2459  -14.5309 C   0  0  0  0  0  0  0  0  0  0  0  0
   21.2231  -28.5259  -14.8633 C   0  0  1  0  0  0  0  0  0  0  0  0
   21.1918  -28.2769  -16.2464 O   0  0  0  0  0  0  0  0  0  0  0  0
   21.2713  -27.1753  -14.1589 C   0  0  2  0  0  0  0  0  0  0  0  0
   22.6133  -26.6076  -14.3298 N   0  0  0  0  0  0  0  0  0  0  0  0
   21.0477  -27.2658  -12.7021 C   0  0  0  0  0  0  0  0  0  0  0  0
   22.0109  -27.7175  -11.9848 O   0  0  0  0  0  0  0  0  0  0  0  0
   18.9625  -23.5337   -9.0244 N   0  0  0  0  0  0  0  0  0  0  0  0
   18.8219  -24.5918   -8.1035 C   0  0  0  0  0  0  0  0  0  0  0  0
   18.9057  -24.3486   -6.8747 O   0  0  0  0  0  0  0  0  0  0  0  0
   18.5770  -25.9697   -8.6326 C   0  0  0  0  0  0  0  0  0  0  0  0
   18.7427  -25.8978  -10.1509 C   0  0  0  0  0  0  0  0  0  0  0  0
   19.7067  -26.9651  -10.6248 C   0  0  2  0  0  0  0  0  0  0  0  0
   19.8469  -26.8819  -12.0811 N   0  0  0  0  0  0  0  0  0  0  0  0
   19.1659  -28.3103  -10.3153 C   0  0  0  0  0  0  0  0  0  0  0  0
   18.2739  -28.8237  -11.0661 O   0  0  0  0  0  0  0  0  0  0  0  0
   19.5720  -29.0770   -9.2337 O   0  0  0  0  0  0  0  0  0  0  0  0
  2  1  1  6
  2  3  1  0
  4  6  1  0
  4  2  1  0
  4  5  1  6
  6  7  2  0
  9  8  1  1
 10  9  1  0
 11  9  1  0
 11 12  1  1
 12  6  1  0
 13 21  1  0
 13 11  1  0
 14 13  2  0
 16 15  1  0
 16 17  2  0
 18 16  1  0
 19 18  1  0
 20 19  1  6
 20 21  1  0
 22 20  1  0
 22 24  1  0
 23 22  2  0
M  END
$$$$
