VTQ.pdb
     RDKit          3D

 24 23  0  0  1  0  0  0  0  0999 V2000
   23.5477  -15.3523  -17.2930 C   0  0  0  0  0  0  0  0  0  0  0  0
   24.5683  -14.5113  -18.0245 C   0  0  2  0  0  0  0  0  0  0  0  0
   25.8887  -15.2187  -18.0395 C   0  0  0  0  0  0  0  0  0  0  0  0
   24.7516  -13.1598  -17.3903 C   0  0  2  0  0  0  0  0  0  0  0  0
   25.1618  -13.2227  -16.0148 N   0  0  0  0  0  0  0  0  0  0  0  0
   23.5370  -12.3098  -17.4986 C   0  0  0  0  0  0  0  0  0  0  0  0
   23.0407  -11.9850  -18.6109 O   0  0  0  0  0  0  0  0  0  0  0  0
   20.1469  -12.9291  -16.7937 C   0  0  0  0  0  0  0  0  0  0  0  0
   20.5029  -11.8189  -15.8406 C   0  0  1  0  0  0  0  0  0  0  0  0
   20.9445  -12.4365  -14.6577 O   0  0  0  0  0  0  0  0  0  0  0  0
   21.6665  -11.0011  -16.3885 C   0  0  2  0  0  0  0  0  0  0  0  0
   22.8799  -11.8244  -16.3380 N   0  0  0  0  0  0  0  0  0  0  0  0
   21.9589   -9.7919  -15.5932 C   0  0  0  0  0  0  0  0  0  0  0  0
   23.0784   -9.7543  -14.9674 O   0  0  0  0  0  0  0  0  0  0  0  0
   21.4638   -4.0895  -16.9184 N   0  0  0  0  0  0  0  0  0  0  0  0
   21.6031   -3.8738  -15.5321 C   0  0  0  0  0  0  0  0  0  0  0  0
   21.6810   -2.6974  -15.1008 O   0  0  0  0  0  0  0  0  0  0  0  0
   21.6527   -5.0640  -14.6269 C   0  0  0  0  0  0  0  0  0  0  0  0
   21.4663   -6.2997  -15.5081 C   0  0  0  0  0  0  0  0  0  0  0  0
   21.4147   -7.5497  -14.6550 C   0  0  2  0  0  0  0  0  0  0  0  0
   21.0789   -8.7004  -15.4980 N   0  0  0  0  0  0  0  0  0  0  0  0
   20.3422   -7.4262  -13.6390 C   0  0  0  0  0  0  0  0  0  0  0  0
   19.1579   -7.8041  -13.9175 O   0  0  0  0  0  0  0  0  0  0  0  0
   20.5383   -6.9131  -12.3659 O   0  0  0  0  0  0  0  0  0  0  0  0
  2  1  1  1
  2  3  1  0
  4  6  1  0
  4  2  1  0
  4  5  1  1
  6  7  2  0
  9  8  1  6
 10  9  1  0
 11  9  1  0
 11 12  1  1
 12  6  1  0
 13 21  1  0
 13 11  1  0
 14 13  2  0
 16 15  1  0
 16 17  2  0
 18 16  1  0
 19 18  1  0
 20 19  1  6
 20 21  1  0
 22 20  1  0
 22 24  1  0
 23 22  2  0
M  END
$$$$
