VTQ.pdb
     RDKit          3D

 24 23  0  0  1  0  0  0  0  0999 V2000
   17.4132  -14.0602  -17.9452 C   0  0  0  0  0  0  0  0  0  0  0  0
   17.7296  -12.8533  -17.0924 C   0  0  2  0  0  0  0  0  0  0  0  0
   17.5156  -11.6022  -17.8881 C   0  0  0  0  0  0  0  0  0  0  0  0
   19.1467  -12.8686  -16.5884 C   0  0  2  0  0  0  0  0  0  0  0  0
   19.4733  -14.0449  -15.8308 N   0  0  0  0  0  0  0  0  0  0  0  0
   19.4789  -11.6631  -15.7847 C   0  0  0  0  0  0  0  0  0  0  0  0
   18.9939  -11.4647  -14.6382 O   0  0  0  0  0  0  0  0  0  0  0  0
   22.6607  -10.7604  -14.4070 C   0  0  0  0  0  0  0  0  0  0  0  0
   22.3111   -9.6007  -15.3017 C   0  0  1  0  0  0  0  0  0  0  0  0
   22.8808   -9.8802  -16.5560 O   0  0  0  0  0  0  0  0  0  0  0  0
   20.8019   -9.5160  -15.4963 C   0  0  2  0  0  0  0  0  0  0  0  0
   20.3673  -10.6751  -16.2838 N   0  0  0  0  0  0  0  0  0  0  0  0
   20.3748   -8.3228  -16.2542 C   0  0  0  0  0  0  0  0  0  0  0  0
   20.4029   -8.3967  -17.5348 O   0  0  0  0  0  0  0  0  0  0  0  0
   16.3000   -6.0445  -14.4294 N   0  0  0  0  0  0  0  0  0  0  0  0
   16.1219   -6.5823  -15.7204 C   0  0  0  0  0  0  0  0  0  0  0  0
   15.0947   -7.2619  -15.9636 O   0  0  0  0  0  0  0  0  0  0  0  0
   17.1714   -6.3188  -16.7536 C   0  0  0  0  0  0  0  0  0  0  0  0
   18.2427   -5.4547  -16.0874 C   0  0  0  0  0  0  0  0  0  0  0  0
   19.6239   -5.9564  -16.4530 C   0  0  2  0  0  0  0  0  0  0  0  0
   19.9444   -7.1336  -15.6415 N   0  0  0  0  0  0  0  0  0  0  0  0
   20.6384   -4.9218  -16.1397 C   0  0  0  0  0  0  0  0  0  0  0  0
   21.4633   -5.1101  -15.1873 O   0  0  0  0  0  0  0  0  0  0  0  0
   20.7607   -3.7248  -16.8287 O   0  0  0  0  0  0  0  0  0  0  0  0
  2  1  1  6
  2  3  1  0
  4  6  1  0
  4  2  1  0
  4  5  1  1
  6  7  2  0
  9  8  1  1
 10  9  1  0
 11  9  1  0
 11 12  1  6
 12  6  1  0
 13 21  1  0
 13 11  1  0
 14 13  2  0
 16 15  1  0
 16 17  2  0
 18 16  1  0
 19 18  1  0
 20 19  1  1
 20 21  1  0
 22 20  1  0
 22 24  1  0
 23 22  2  0
M  END
$$$$
