VTQ.pdb
     RDKit          3D

 24 23  0  0  1  0  0  0  0  0999 V2000
   17.9111  -15.3905  -17.3825 C   0  0  0  0  0  0  0  0  0  0  0  0
   18.9083  -14.3578  -17.8547 C   0  0  2  0  0  0  0  0  0  0  0  0
   20.2754  -14.7089  -17.3528 C   0  0  0  0  0  0  0  0  0  0  0  0
   18.5609  -12.9732  -17.3810 C   0  0  2  0  0  0  0  0  0  0  0  0
   17.1985  -12.6014  -17.6457 N   0  0  0  0  0  0  0  0  0  0  0  0
   19.4668  -11.9355  -17.9395 C   0  0  0  0  0  0  0  0  0  0  0  0
   20.7183  -11.9885  -17.7974 O   0  0  0  0  0  0  0  0  0  0  0  0
   19.9264   -8.0055  -20.9380 C   0  0  0  0  0  0  0  0  0  0  0  0
   19.2989   -9.3115  -20.5277 C   0  0  1  0  0  0  0  0  0  0  0  0
   19.7573  -10.2771  -21.4405 O   0  0  0  0  0  0  0  0  0  0  0  0
   19.7882   -9.7246  -19.1446 C   0  0  2  0  0  0  0  0  0  0  0  0
   18.9510  -10.8296  -18.6644 N   0  0  0  0  0  0  0  0  0  0  0  0
   19.6687   -8.6525  -18.1363 C   0  0  0  0  0  0  0  0  0  0  0  0
   18.5555   -8.5581  -17.5053 O   0  0  0  0  0  0  0  0  0  0  0  0
   20.5983   -6.7277  -12.9118 N   0  0  0  0  0  0  0  0  0  0  0  0
   21.9017   -6.5935  -13.4323 C   0  0  0  0  0  0  0  0  0  0  0  0
   22.8235   -6.1962  -12.6784 O   0  0  0  0  0  0  0  0  0  0  0  0
   22.1332   -6.9326  -14.8710 C   0  0  0  0  0  0  0  0  0  0  0  0
   20.7914   -7.3959  -15.4392 C   0  0  0  0  0  0  0  0  0  0  0  0
   20.5404   -6.7500  -16.7856 C   0  0  2  0  0  0  0  0  0  0  0  0
   20.7057   -7.7505  -17.8434 N   0  0  0  0  0  0  0  0  0  0  0  0
   21.5425   -5.6857  -17.0320 C   0  0  0  0  0  0  0  0  0  0  0  0
   22.5108   -5.8989  -17.8320 O   0  0  0  0  0  0  0  0  0  0  0  0
   21.5034   -4.4339  -16.4371 O   0  0  0  0  0  0  0  0  0  0  0  0
  2  1  1  1
  2  3  1  0
  4  6  1  0
  4  2  1  0
  4  5  1  6
  6  7  2  0
  9  8  1  6
 10  9  1  0
 11  9  1  0
 11 12  1  1
 12  6  1  0
 13 21  1  0
 13 11  1  0
 14 13  2  0
 16 15  1  0
 16 17  2  0
 18 16  1  0
 19 18  1  0
 20 19  1  1
 20 21  1  0
 22 20  1  0
 22 24  1  0
 23 22  2  0
M  END
$$$$
