VTQ.pdb
     RDKit          3D

 24 23  0  0  1  0  0  0  0  0999 V2000
   16.9850  -15.4940  -18.0094 C   0  0  0  0  0  0  0  0  0  0  0  0
   18.2871  -15.5751  -17.2464 C   0  0  2  0  0  0  0  0  0  0  0  0
   18.3131  -16.8262  -16.4230 C   0  0  0  0  0  0  0  0  0  0  0  0
   18.4880  -14.3941  -16.3370 C   0  0  2  0  0  0  0  0  0  0  0  0
   17.4525  -14.2460  -15.3519 N   0  0  0  0  0  0  0  0  0  0  0  0
   18.6362  -13.1177  -17.0843 C   0  0  0  0  0  0  0  0  0  0  0  0
   19.5699  -12.9262  -17.9093 O   0  0  0  0  0  0  0  0  0  0  0  0
   16.3754  -11.5590  -19.4914 C   0  0  0  0  0  0  0  0  0  0  0  0
   16.5105  -10.5546  -18.3777 C   0  0  1  0  0  0  0  0  0  0  0  0
   15.4547  -10.8067  -17.4845 O   0  0  0  0  0  0  0  0  0  0  0  0
   17.8125  -10.7766  -17.6172 C   0  0  2  0  0  0  0  0  0  0  0  0
   17.7198  -12.0505  -16.8954 N   0  0  0  0  0  0  0  0  0  0  0  0
   18.0770   -9.7449  -16.5943 C   0  0  0  0  0  0  0  0  0  0  0  0
   18.1881  -10.1362  -15.3774 O   0  0  0  0  0  0  0  0  0  0  0  0
   22.0728   -6.9261  -14.0459 N   0  0  0  0  0  0  0  0  0  0  0  0
   22.2010   -6.9813  -15.4487 C   0  0  0  0  0  0  0  0  0  0  0  0
   23.2928   -6.6567  -15.9765 O   0  0  0  0  0  0  0  0  0  0  0  0
   21.0225   -7.4275  -16.2553 C   0  0  0  0  0  0  0  0  0  0  0  0
   19.9128   -7.7776  -15.2633 C   0  0  0  0  0  0  0  0  0  0  0  0
   18.5598   -7.4203  -15.8417 C   0  0  2  0  0  0  0  0  0  0  0  0
   18.2123   -8.3788  -16.8943 N   0  0  0  0  0  0  0  0  0  0  0  0
   18.6164   -6.0805  -16.4738 C   0  0  0  0  0  0  0  0  0  0  0  0
   18.7644   -5.0430  -15.7494 O   0  0  0  0  0  0  0  0  0  0  0  0
   18.5170   -5.8650  -17.8399 O   0  0  0  0  0  0  0  0  0  0  0  0
  2  1  1  1
  2  3  1  0
  4  6  1  0
  4  2  1  0
  4  5  1  1
  6  7  2  0
  9  8  1  6
 10  9  1  0
 11  9  1  0
 11 12  1  1
 12  6  1  0
 13 21  1  0
 13 11  1  0
 14 13  2  0
 16 15  1  0
 16 17  2  0
 18 16  1  0
 19 18  1  0
 20 19  1  6
 20 21  1  0
 22 20  1  0
 22 24  1  0
 23 22  2  0
M  END
$$$$
