VTQ.pdb
     RDKit          3D

 24 23  0  0  1  0  0  0  0  0999 V2000
   15.3687  -13.4751  -16.6844 C   0  0  0  0  0  0  0  0  0  0  0  0
   16.7783  -13.8283  -16.2693 C   0  0  2  0  0  0  0  0  0  0  0  0
   16.7656  -15.0876  -15.4580 C   0  0  0  0  0  0  0  0  0  0  0  0
   17.4227  -12.7378  -15.4582 C   0  0  2  0  0  0  0  0  0  0  0  0
   16.7387  -12.4592  -14.2258 N   0  0  0  0  0  0  0  0  0  0  0  0
   17.5801  -11.4742  -16.2250 C   0  0  0  0  0  0  0  0  0  0  0  0
   18.2753  -11.4067  -17.2745 O   0  0  0  0  0  0  0  0  0  0  0  0
   15.3283   -9.5527  -18.1893 C   0  0  0  0  0  0  0  0  0  0  0  0
   15.7186   -8.6162  -17.0765 C   0  0  1  0  0  0  0  0  0  0  0  0
   14.7721   -8.7979  -16.0533 O   0  0  0  0  0  0  0  0  0  0  0  0
   17.0801   -9.0019  -16.5106 C   0  0  2  0  0  0  0  0  0  0  0  0
   16.9451  -10.2782  -15.7996 N   0  0  0  0  0  0  0  0  0  0  0  0
   17.5990   -8.0356  -15.5220 C   0  0  0  0  0  0  0  0  0  0  0  0
   18.0015   -8.5023  -14.3966 O   0  0  0  0  0  0  0  0  0  0  0  0
   22.3630   -6.6635  -14.5552 N   0  0  0  0  0  0  0  0  0  0  0  0
   21.9704   -5.5568  -13.7750 C   0  0  0  0  0  0  0  0  0  0  0  0
   22.8392   -4.9323  -13.1183 O   0  0  0  0  0  0  0  0  0  0  0  0
   20.5251   -5.1703  -13.7621 C   0  0  0  0  0  0  0  0  0  0  0  0
   19.8042   -6.1169  -14.7224 C   0  0  0  0  0  0  0  0  0  0  0  0
   18.3324   -5.7686  -14.7965 C   0  0  2  0  0  0  0  0  0  0  0  0
   17.6712   -6.6526  -15.7602 N   0  0  0  0  0  0  0  0  0  0  0  0
   18.1640   -4.3812  -15.2911 C   0  0  0  0  0  0  0  0  0  0  0  0
   18.0211   -4.1653  -16.5385 O   0  0  0  0  0  0  0  0  0  0  0  0
   18.1499   -3.2638  -14.4702 O   0  0  0  0  0  0  0  0  0  0  0  0
  2  1  1  1
  2  3  1  0
  4  6  1  0
  4  2  1  0
  4  5  1  1
  6  7  2  0
  9  8  1  6
 10  9  1  0
 11  9  1  0
 11 12  1  1
 12  6  1  0
 13 21  1  0
 13 11  1  0
 14 13  2  0
 16 15  1  0
 16 17  2  0
 18 16  1  0
 19 18  1  0
 20 19  1  6
 20 21  1  0
 22 20  1  0
 22 24  1  0
 23 22  2  0
M  END
$$$$
