VTQ.pdb
     RDKit          3D

 24 23  0  0  1  0  0  0  0  0999 V2000
   26.4475  -22.1546  -10.5406 C   0  0  0  0  0  0  0  0  0  0  0  0
   25.6497  -20.9256  -10.1704 C   0  0  2  0  0  0  0  0  0  0  0  0
   24.6091  -21.2856   -9.1548 C   0  0  0  0  0  0  0  0  0  0  0  0
   24.9691  -20.3091  -11.3616 C   0  0  2  0  0  0  0  0  0  0  0  0
   23.9870  -21.1650  -11.9677 N   0  0  0  0  0  0  0  0  0  0  0  0
   25.9332  -19.8611  -12.4005 C   0  0  0  0  0  0  0  0  0  0  0  0
   26.9070  -19.1065  -12.1334 O   0  0  0  0  0  0  0  0  0  0  0  0
   28.3458  -21.6551  -14.2403 C   0  0  0  0  0  0  0  0  0  0  0  0
   27.4539  -21.0987  -15.3185 C   0  0  1  0  0  0  0  0  0  0  0  0
   26.4865  -22.0838  -15.5821 O   0  0  0  0  0  0  0  0  0  0  0  0
   26.7186  -19.8626  -14.8143 C   0  0  2  0  0  0  0  0  0  0  0  0
   25.7929  -20.2713  -13.7520 N   0  0  0  0  0  0  0  0  0  0  0  0
   25.8917  -19.2098  -15.8490 C   0  0  0  0  0  0  0  0  0  0  0  0
   24.6668  -19.5795  -15.9445 O   0  0  0  0  0  0  0  0  0  0  0  0
   26.0064  -13.7560  -16.4740 N   0  0  0  0  0  0  0  0  0  0  0  0
   24.7500  -14.3000  -16.1379 C   0  0  0  0  0  0  0  0  0  0  0  0
   24.0073  -13.6773  -15.3400 O   0  0  0  0  0  0  0  0  0  0  0  0
   24.3516  -15.6057  -16.7502 C   0  0  0  0  0  0  0  0  0  0  0  0
   25.5484  -16.0970  -17.5653 C   0  0  0  0  0  0  0  0  0  0  0  0
   25.5008  -17.6034  -17.7119 C   0  0  2  0  0  0  0  0  0  0  0  0
   26.3818  -18.2172  -16.7147 N   0  0  0  0  0  0  0  0  0  0  0  0
   26.0108  -17.9993  -19.0464 C   0  0  0  0  0  0  0  0  0  0  0  0
   27.1842  -18.4822  -19.1595 O   0  0  0  0  0  0  0  0  0  0  0  0
   25.2817  -17.8793  -20.2197 O   0  0  0  0  0  0  0  0  0  0  0  0
  2  1  1  6
  2  3  1  0
  4  6  1  0
  4  2  1  0
  4  5  1  6
  6  7  2  0
  9  8  1  1
 10  9  1  0
 11  9  1  0
 11 12  1  1
 12  6  1  0
 13 21  1  0
 13 11  1  0
 14 13  2  0
 16 15  1  0
 16 17  2  0
 18 16  1  0
 19 18  1  0
 20 19  1  6
 20 21  1  0
 22 20  1  0
 22 24  1  0
 23 22  2  0
M  END
$$$$
