SKR.pdb
     RDKit          3D

 27 26  0  0  1  0  0  0  0  0999 V2000
    7.6819  -20.3501   20.6151 O   0  0  0  0  0  0  0  0  0  0  0  0
    6.5259  -19.6324   20.4301 C   0  0  0  0  0  0  0  0  0  0  0  0
    6.6885  -18.4188   19.5513 C   0  0  2  0  0  0  0  0  0  0  0  0
    6.9957  -18.8938   18.2143 N   0  0  0  0  0  0  0  0  0  0  0  0
    7.7170  -17.4800   19.9996 C   0  0  0  0  0  0  0  0  0  0  0  0
    8.8866  -17.5596   19.5048 O   0  0  0  0  0  0  0  0  0  0  0  0
    7.5292  -16.4620   20.9596 N   0  0  0  0  0  0  0  0  0  0  0  0
    8.6002  -15.5457   21.3679 C   0  0  1  0  0  0  0  0  0  0  0  0
    7.9431  -14.2384   21.7189 C   0  0  0  0  0  0  0  0  0  0  0  0
    7.2806  -13.5650   20.5707 C   0  0  0  0  0  0  0  0  0  0  0  0
    8.1821  -13.3785   19.3848 C   0  0  0  0  0  0  0  0  0  0  0  0
    7.4338  -12.7421   18.2394 C   0  0  0  0  0  0  0  0  0  0  0  0
    8.3561  -12.5844   17.1142 N   0  0  0  0  0  0  0  0  0  0  0  0
    9.3924  -16.1403   22.4796 C   0  0  0  0  0  0  0  0  0  0  0  0
    8.8697  -16.9446   23.2898 O   0  0  0  0  0  0  0  0  0  0  0  0
   16.0316  -19.0951   20.1741 N   0  0  0  0  0  0  0  0  0  0  0  0
   15.5561  -20.4225   20.4026 C   0  0  0  0  0  0  0  0  0  0  0  0
   16.2840  -21.4350   20.1291 N   0  0  0  0  0  0  0  0  0  0  0  0
   14.2528  -20.6351   20.9432 N   0  0  0  0  0  0  0  0  0  0  0  0
   13.1889  -19.6921   20.6904 C   0  0  0  0  0  0  0  0  0  0  0  0
   13.0507  -18.7074   21.8269 C   0  0  0  0  0  0  0  0  0  0  0  0
   11.9395  -17.7342   21.6294 C   0  0  0  0  0  0  0  0  0  0  0  0
   11.8461  -16.7307   22.7243 C   0  0  2  0  0  0  0  0  0  0  0  0
   10.7629  -15.8254   22.6702 N   0  0  0  0  0  0  0  0  0  0  0  0
   13.1627  -16.0571   22.9567 C   0  0  0  0  0  0  0  0  0  0  0  0
   13.9320  -16.5215   23.8187 O   0  0  0  0  0  0  0  0  0  0  0  0
   13.5421  -14.9420   22.2437 O   0  0  0  0  0  0  0  0  0  0  0  0
  1  2  1  0
  3  2  1  0
  3  4  1  6
  5  3  1  0
  6  5  2  0
  7  5  1  0
  8  9  1  1
  8  7  1  0
 10  9  1  0
 11 10  1  0
 12 11  1  0
 13 12  1  0
 14  8  1  0
 15 14  2  0
 17 16  1  0
 17 19  1  0
 18 17  2  0
 20 19  1  0
 20 21  1  0
 21 22  1  0
 23 22  1  6
 23 24  1  0
 24 14  1  0
 25 23  1  0
 25 27  1  0
 26 25  2  0
M  END
$$$$
