SKR.pdb
     RDKit          3D

 27 26  0  0  1  0  0  0  0  0999 V2000
    9.9822  -19.0814   14.8471 O   0  0  0  0  0  0  0  0  0  0  0  0
    9.1251  -18.0088   14.8199 C   0  0  0  0  0  0  0  0  0  0  0  0
    7.7010  -18.3493   15.1773 C   0  0  2  0  0  0  0  0  0  0  0  0
    6.9244  -17.1284   15.0603 N   0  0  0  0  0  0  0  0  0  0  0  0
    7.5328  -18.9259   16.5112 C   0  0  0  0  0  0  0  0  0  0  0  0
    7.3666  -18.1494   17.5054 O   0  0  0  0  0  0  0  0  0  0  0  0
    7.5376  -20.3058   16.8096 N   0  0  0  0  0  0  0  0  0  0  0  0
    7.3803  -20.8258   18.1728 C   0  0  1  0  0  0  0  0  0  0  0  0
    6.4393  -21.9967   18.0850 C   0  0  0  0  0  0  0  0  0  0  0  0
    6.2051  -22.6851   19.3819 C   0  0  0  0  0  0  0  0  0  0  0  0
    5.2326  -23.8250   19.2873 C   0  0  0  0  0  0  0  0  0  0  0  0
    4.9847  -24.4302   20.6473 C   0  0  0  0  0  0  0  0  0  0  0  0
    4.1744  -25.6368   20.4765 N   0  0  0  0  0  0  0  0  0  0  0  0
    8.7094  -21.1623   18.7535 C   0  0  0  0  0  0  0  0  0  0  0  0
    9.4839  -21.9651   18.1772 O   0  0  0  0  0  0  0  0  0  0  0  0
   11.0865  -23.1050   26.8353 N   0  0  0  0  0  0  0  0  0  0  0  0
   12.1819  -23.2931   25.9381 C   0  0  0  0  0  0  0  0  0  0  0  0
   13.3864  -23.1477   26.3356 N   0  0  0  0  0  0  0  0  0  0  0  0
   11.9422  -23.6483   24.5771 N   0  0  0  0  0  0  0  0  0  0  0  0
   10.7477  -23.2015   23.8997 C   0  0  0  0  0  0  0  0  0  0  0  0
   11.0849  -22.2983   22.7374 C   0  0  0  0  0  0  0  0  0  0  0  0
    9.8851  -21.8431   21.9796 C   0  0  0  0  0  0  0  0  0  0  0  0
   10.2300  -21.0350   20.7785 C   0  0  2  0  0  0  0  0  0  0  0  0
    9.1549  -20.5941   19.9752 N   0  0  0  0  0  0  0  0  0  0  0  0
   11.3273  -21.6781   19.9888 C   0  0  0  0  0  0  0  0  0  0  0  0
   11.1283  -21.9444   18.7889 O   0  0  0  0  0  0  0  0  0  0  0  0
   12.5456  -21.9808   20.5544 O   0  0  0  0  0  0  0  0  0  0  0  0
  1  2  1  0
  3  2  1  0
  3  4  1  1
  5  3  1  0
  6  5  2  0
  7  5  1  0
  8  9  1  6
  8  7  1  0
 10  9  1  0
 11 10  1  0
 12 11  1  0
 13 12  1  0
 14  8  1  0
 15 14  2  0
 17 16  1  0
 17 19  1  0
 18 17  2  0
 20 19  1  0
 20 21  1  0
 21 22  1  0
 23 22  1  1
 23 24  1  0
 24 14  1  0
 25 23  1  0
 25 27  1  0
 26 25  2  0
M  END
$$$$
