SKR.pdb
     RDKit          3D

 27 26  0  0  1  0  0  0  0  0999 V2000
   15.7004  -16.5201   19.0717 O   0  0  0  0  0  0  0  0  0  0  0  0
   15.9067  -15.2461   18.6025 C   0  0  0  0  0  0  0  0  0  0  0  0
   14.7082  -14.6402   17.9183 C   0  0  2  0  0  0  0  0  0  0  0  0
   15.0532  -13.2718   17.5780 N   0  0  0  0  0  0  0  0  0  0  0  0
   13.4802  -14.6661   18.7129 C   0  0  0  0  0  0  0  0  0  0  0  0
   13.1798  -13.6534   19.4224 O   0  0  0  0  0  0  0  0  0  0  0  0
   12.5678  -15.7420   18.7692 N   0  0  0  0  0  0  0  0  0  0  0  0
   11.4138  -15.7604   19.6755 C   0  0  1  0  0  0  0  0  0  0  0  0
   10.3683  -16.6288   19.0298 C   0  0  0  0  0  0  0  0  0  0  0  0
    9.5654  -15.9376   17.9866 C   0  0  0  0  0  0  0  0  0  0  0  0
    8.5176  -16.8119   17.3608 C   0  0  0  0  0  0  0  0  0  0  0  0
    9.1317  -17.7297   16.3324 C   0  0  0  0  0  0  0  0  0  0  0  0
    8.0623  -18.5151   15.7150 N   0  0  0  0  0  0  0  0  0  0  0  0
   11.8282  -16.2207   21.0295 C   0  0  0  0  0  0  0  0  0  0  0  0
   12.8033  -16.9972   21.1798 O   0  0  0  0  0  0  0  0  0  0  0  0
    9.5329  -13.8145   29.4845 N   0  0  0  0  0  0  0  0  0  0  0  0
   10.3919  -14.9528   29.5673 C   0  0  0  0  0  0  0  0  0  0  0  0
   10.7147  -15.4487   30.6986 N   0  0  0  0  0  0  0  0  0  0  0  0
   10.9035  -15.5541   28.3787 N   0  0  0  0  0  0  0  0  0  0  0  0
   10.4933  -15.0782   27.0785 C   0  0  0  0  0  0  0  0  0  0  0  0
   11.1138  -15.9015   25.9751 C   0  0  0  0  0  0  0  0  0  0  0  0
   10.7361  -15.4358   24.6109 C   0  0  0  0  0  0  0  0  0  0  0  0
   11.3997  -16.2122   23.5286 C   0  0  2  0  0  0  0  0  0  0  0  0
   11.1431  -15.8046   22.2006 N   0  0  0  0  0  0  0  0  0  0  0  0
   11.2277  -17.6852   23.7339 C   0  0  0  0  0  0  0  0  0  0  0  0
   12.1060  -18.3125   24.3547 O   0  0  0  0  0  0  0  0  0  0  0  0
   10.1271  -18.3599   23.2552 O   0  0  0  0  0  0  0  0  0  0  0  0
  1  2  1  0
  3  2  1  0
  3  4  1  1
  5  3  1  0
  6  5  2  0
  7  5  1  0
  8  9  1  6
  8  7  1  0
 10  9  1  0
 11 10  1  0
 12 11  1  0
 13 12  1  0
 14  8  1  0
 15 14  2  0
 17 16  1  0
 17 19  1  0
 18 17  2  0
 20 19  1  0
 20 21  1  0
 21 22  1  0
 23 22  1  1
 23 24  1  0
 24 14  1  0
 25 23  1  0
 25 27  1  0
 26 25  2  0
M  END
$$$$
