SKR.pdb
     RDKit          3D

 27 26  0  0  1  0  0  0  0  0999 V2000
    6.6942  -21.3834   24.3034 O   0  0  0  0  0  0  0  0  0  0  0  0
    5.7798  -20.3589   24.3088 C   0  0  0  0  0  0  0  0  0  0  0  0
    5.3007  -19.9538   22.9384 C   0  0  2  0  0  0  0  0  0  0  0  0
    4.8202  -21.1542   22.2783 N   0  0  0  0  0  0  0  0  0  0  0  0
    6.3141  -19.2975   22.1123 C   0  0  0  0  0  0  0  0  0  0  0  0
    6.8805  -19.9589   21.1844 O   0  0  0  0  0  0  0  0  0  0  0  0
    6.7368  -17.9576   22.2512 N   0  0  0  0  0  0  0  0  0  0  0  0
    7.8426  -17.3873   21.4733 C   0  0  1  0  0  0  0  0  0  0  0  0
    7.5531  -15.9188   21.3192 C   0  0  0  0  0  0  0  0  0  0  0  0
    8.5351  -15.1927   20.4713 C   0  0  0  0  0  0  0  0  0  0  0  0
    8.1979  -13.7433   20.2723 C   0  0  0  0  0  0  0  0  0  0  0  0
    9.1489  -13.1031   19.2910 C   0  0  0  0  0  0  0  0  0  0  0  0
    8.7670  -11.7003   19.1239 N   0  0  0  0  0  0  0  0  0  0  0  0
    9.1439  -17.6793   22.1354 C   0  0  0  0  0  0  0  0  0  0  0  0
    9.3535  -17.3463   23.3277 O   0  0  0  0  0  0  0  0  0  0  0  0
   14.9542  -13.4603   18.2589 N   0  0  0  0  0  0  0  0  0  0  0  0
   14.6243  -14.7574   17.7597 C   0  0  0  0  0  0  0  0  0  0  0  0
   14.7022  -15.0182   16.5124 N   0  0  0  0  0  0  0  0  0  0  0  0
   14.2007  -15.7847   18.6547 N   0  0  0  0  0  0  0  0  0  0  0  0
   14.0465  -15.5142   20.0648 C   0  0  0  0  0  0  0  0  0  0  0  0
   13.5477  -16.7334   20.8031 C   0  0  0  0  0  0  0  0  0  0  0  0
   12.0636  -16.8672   20.7814 C   0  0  0  0  0  0  0  0  0  0  0  0
   11.5775  -18.0567   21.5320 C   0  0  2  0  0  0  0  0  0  0  0  0
   10.1963  -18.3419   21.4518 N   0  0  0  0  0  0  0  0  0  0  0  0
   12.0972  -18.0618   22.9360 C   0  0  0  0  0  0  0  0  0  0  0  0
   12.9165  -18.9375   23.2709 O   0  0  0  0  0  0  0  0  0  0  0  0
   11.6931  -17.1259   23.8617 O   0  0  0  0  0  0  0  0  0  0  0  0
  1  2  1  0
  3  2  1  0
  3  4  1  6
  5  3  1  0
  6  5  2  0
  7  5  1  0
  8  9  1  1
  8  7  1  0
 10  9  1  0
 11 10  1  0
 12 11  1  0
 13 12  1  0
 14  8  1  0
 15 14  2  0
 17 16  1  0
 17 19  1  0
 18 17  2  0
 20 19  1  0
 20 21  1  0
 21 22  1  0
 23 22  1  1
 23 24  1  0
 24 14  1  0
 25 23  1  0
 25 27  1  0
 26 25  2  0
M  END
$$$$
