SKR.pdb
     RDKit          3D

 27 26  0  0  1  0  0  0  0  0999 V2000
   10.0883  -19.9910   14.9232 O   0  0  0  0  0  0  0  0  0  0  0  0
   10.2467  -20.0700   16.2850 C   0  0  0  0  0  0  0  0  0  0  0  0
    9.2724  -20.9969   16.9656 C   0  0  2  0  0  0  0  0  0  0  0  0
    8.0124  -20.8963   16.2516 N   0  0  0  0  0  0  0  0  0  0  0  0
    9.0675  -20.7218   18.3877 C   0  0  0  0  0  0  0  0  0  0  0  0
    8.2035  -19.8536   18.7326 O   0  0  0  0  0  0  0  0  0  0  0  0
    9.7594  -21.3477   19.4473 N   0  0  0  0  0  0  0  0  0  0  0  0
    9.5236  -21.0164   20.8573 C   0  0  1  0  0  0  0  0  0  0  0  0
   10.1496  -22.1156   21.6722 C   0  0  0  0  0  0  0  0  0  0  0  0
    9.3416  -23.3623   21.7313 C   0  0  0  0  0  0  0  0  0  0  0  0
   10.0547  -24.5069   22.3910 C   0  0  0  0  0  0  0  0  0  0  0  0
    9.1559  -25.7157   22.4815 C   0  0  0  0  0  0  0  0  0  0  0  0
    9.9369  -26.8353   23.0091 N   0  0  0  0  0  0  0  0  0  0  0  0
   10.0551  -19.6600   21.1647 C   0  0  0  0  0  0  0  0  0  0  0  0
   11.1549  -19.2738   20.6981 O   0  0  0  0  0  0  0  0  0  0  0  0
    7.1355  -11.9646   19.6206 N   0  0  0  0  0  0  0  0  0  0  0  0
    8.1255  -12.8445   19.0857 C   0  0  0  0  0  0  0  0  0  0  0  0
    8.4902  -12.7555   17.8655 N   0  0  0  0  0  0  0  0  0  0  0  0
    8.7234  -13.8407   19.9140 N   0  0  0  0  0  0  0  0  0  0  0  0
    8.4007  -13.9194   21.3193 C   0  0  0  0  0  0  0  0  0  0  0  0
    9.2269  -14.9775   22.0107 C   0  0  0  0  0  0  0  0  0  0  0  0
    8.7600  -16.3645   21.7294 C   0  0  0  0  0  0  0  0  0  0  0  0
    9.6800  -17.4055   22.2627 C   0  0  2  0  0  0  0  0  0  0  0  0
    9.3464  -18.7515   21.9931 N   0  0  0  0  0  0  0  0  0  0  0  0
   10.0021  -17.1581   23.7037 C   0  0  0  0  0  0  0  0  0  0  0  0
   10.7466  -16.2045   23.9984 O   0  0  0  0  0  0  0  0  0  0  0  0
    9.4975  -17.9555   24.7063 O   0  0  0  0  0  0  0  0  0  0  0  0
  1  2  1  0
  3  2  1  0
  3  4  1  6
  5  3  1  0
  6  5  2  0
  7  5  1  0
  8  9  1  1
  8  7  1  0
 10  9  1  0
 11 10  1  0
 12 11  1  0
 13 12  1  0
 14  8  1  0
 15 14  2  0
 17 16  1  0
 17 19  1  0
 18 17  2  0
 20 19  1  0
 20 21  1  0
 21 22  1  0
 23 22  1  1
 23 24  1  0
 24 14  1  0
 25 23  1  0
 25 27  1  0
 26 25  2  0
M  END
$$$$
