SKR.pdb
     RDKit          3D

 27 26  0  0  1  0  0  0  0  0999 V2000
   12.5472  -18.7221   18.7834 O   0  0  0  0  0  0  0  0  0  0  0  0
   12.0591  -19.8220   18.1218 C   0  0  0  0  0  0  0  0  0  0  0  0
   10.6580  -19.6512   17.5932 C   0  0  2  0  0  0  0  0  0  0  0  0
   10.6916  -18.5676   16.6277 N   0  0  0  0  0  0  0  0  0  0  0  0
    9.6526  -19.3782   18.6201 C   0  0  0  0  0  0  0  0  0  0  0  0
    9.1959  -18.1968   18.7416 O   0  0  0  0  0  0  0  0  0  0  0  0
    9.1242  -20.3313   19.5177 N   0  0  0  0  0  0  0  0  0  0  0  0
    8.2115  -19.9753   20.6102 C   0  0  1  0  0  0  0  0  0  0  0  0
    7.5556  -21.2521   21.0617 C   0  0  0  0  0  0  0  0  0  0  0  0
    6.6336  -21.0851   22.2161 C   0  0  0  0  0  0  0  0  0  0  0  0
    6.0108  -22.3715   22.6756 C   0  0  0  0  0  0  0  0  0  0  0  0
    5.0458  -22.1232   23.8089 C   0  0  0  0  0  0  0  0  0  0  0  0
    4.4876  -23.4082   24.2319 N   0  0  0  0  0  0  0  0  0  0  0  0
    8.9504  -19.2626   21.6886 C   0  0  0  0  0  0  0  0  0  0  0  0
   10.1440  -19.5476   21.9539 O   0  0  0  0  0  0  0  0  0  0  0  0
    9.3199  -12.7854   28.6757 N   0  0  0  0  0  0  0  0  0  0  0  0
    9.3596  -13.7741   27.6456 C   0  0  0  0  0  0  0  0  0  0  0  0
    9.8321  -14.9382   27.8730 N   0  0  0  0  0  0  0  0  0  0  0  0
    8.8685  -13.4713   26.3405 N   0  0  0  0  0  0  0  0  0  0  0  0
    8.0406  -14.4164   25.6286 C   0  0  0  0  0  0  0  0  0  0  0  0
    8.8699  -15.5314   25.0374 C   0  0  0  0  0  0  0  0  0  0  0  0
    8.1170  -16.3703   24.0626 C   0  0  0  0  0  0  0  0  0  0  0  0
    8.9528  -17.4379   23.4492 C   0  0  2  0  0  0  0  0  0  0  0  0
    8.3412  -18.2375   22.4581 N   0  0  0  0  0  0  0  0  0  0  0  0
    9.6617  -18.2403   24.4956 C   0  0  0  0  0  0  0  0  0  0  0  0
    9.0754  -19.2115   25.0086 O   0  0  0  0  0  0  0  0  0  0  0  0
   10.9405  -17.9319   24.9025 O   0  0  0  0  0  0  0  0  0  0  0  0
  1  2  1  0
  3  2  1  0
  3  4  1  6
  5  3  1  0
  6  5  2  0
  7  5  1  0
  8  9  1  1
  8  7  1  0
 10  9  1  0
 11 10  1  0
 12 11  1  0
 13 12  1  0
 14  8  1  0
 15 14  2  0
 17 16  1  0
 17 19  1  0
 18 17  2  0
 20 19  1  0
 20 21  1  0
 21 22  1  0
 23 22  1  1
 23 24  1  0
 24 14  1  0
 25 23  1  0
 25 27  1  0
 26 25  2  0
M  END
$$$$
