SKR.pdb
     RDKit          3D

 27 26  0  0  1  0  0  0  0  0999 V2000
    7.3778  -18.0190   20.0828 O   0  0  0  0  0  0  0  0  0  0  0  0
    6.8272  -16.9361   19.4427 C   0  0  0  0  0  0  0  0  0  0  0  0
    7.7155  -15.7187   19.4168 C   0  0  2  0  0  0  0  0  0  0  0  0
    8.7630  -15.9711   18.4440 N   0  0  0  0  0  0  0  0  0  0  0  0
    8.3040  -15.3712   20.7102 C   0  0  0  0  0  0  0  0  0  0  0  0
    9.4945  -15.7391   20.9682 O   0  0  0  0  0  0  0  0  0  0  0  0
    7.6561  -14.6433   21.7318 N   0  0  0  0  0  0  0  0  0  0  0  0
    8.2007  -14.5194   23.0887 C   0  0  1  0  0  0  0  0  0  0  0  0
    7.2934  -13.5806   23.8368 C   0  0  0  0  0  0  0  0  0  0  0  0
    7.7343  -13.2898   25.2267 C   0  0  0  0  0  0  0  0  0  0  0  0
    6.7802  -12.4144   25.9864 C   0  0  0  0  0  0  0  0  0  0  0  0
    7.2584  -12.2053   27.4023 C   0  0  0  0  0  0  0  0  0  0  0  0
    6.2275  -11.4697   28.1356 N   0  0  0  0  0  0  0  0  0  0  0  0
    8.3299  -15.8627   23.7179 C   0  0  0  0  0  0  0  0  0  0  0  0
    7.7933  -16.8740   23.2024 O   0  0  0  0  0  0  0  0  0  0  0  0
   16.1129  -18.4446   23.0510 N   0  0  0  0  0  0  0  0  0  0  0  0
   15.4973  -19.5643   23.6894 C   0  0  0  0  0  0  0  0  0  0  0  0
   16.1288  -20.6643   23.8344 N   0  0  0  0  0  0  0  0  0  0  0  0
   14.1597  -19.4669   24.1766 N   0  0  0  0  0  0  0  0  0  0  0  0
   13.3943  -18.2571   23.9873 C   0  0  0  0  0  0  0  0  0  0  0  0
   12.0458  -18.3534   24.6600 C   0  0  0  0  0  0  0  0  0  0  0  0
   11.1060  -17.2719   24.2502 C   0  0  0  0  0  0  0  0  0  0  0  0
    9.9761  -17.0939   25.2022 C   0  0  2  0  0  0  0  0  0  0  0  0
    9.0600  -16.0564   24.9192 N   0  0  0  0  0  0  0  0  0  0  0  0
   10.4578  -17.0809   26.6196 C   0  0  0  0  0  0  0  0  0  0  0  0
   10.2869  -16.0546   27.3036 O   0  0  0  0  0  0  0  0  0  0  0  0
   11.0823  -18.1713   27.1827 O   0  0  0  0  0  0  0  0  0  0  0  0
  1  2  1  0
  3  2  1  0
  3  4  1  6
  5  3  1  0
  6  5  2  0
  7  5  1  0
  8  9  1  1
  8  7  1  0
 10  9  1  0
 11 10  1  0
 12 11  1  0
 13 12  1  0
 14  8  1  0
 15 14  2  0
 17 16  1  0
 17 19  1  0
 18 17  2  0
 20 19  1  0
 20 21  1  0
 21 22  1  0
 23 22  1  6
 23 24  1  0
 24 14  1  0
 25 23  1  0
 25 27  1  0
 26 25  2  0
M  END
$$$$
