SKR.pdb
     RDKit          3D

 27 26  0  0  1  0  0  0  0  0999 V2000
   11.2278  -18.5259   17.9391 O   0  0  0  0  0  0  0  0  0  0  0  0
   10.4339  -19.2969   17.1260 C   0  0  0  0  0  0  0  0  0  0  0  0
    8.9732  -18.9270   17.1616 C   0  0  2  0  0  0  0  0  0  0  0  0
    8.7962  -17.7877   16.2794 N   0  0  0  0  0  0  0  0  0  0  0  0
    8.4602  -18.6143   18.4954 C   0  0  0  0  0  0  0  0  0  0  0  0
    7.7138  -17.5952   18.6489 O   0  0  0  0  0  0  0  0  0  0  0  0
    8.7229  -19.3592   19.6655 N   0  0  0  0  0  0  0  0  0  0  0  0
    8.0963  -19.0585   20.9579 C   0  0  1  0  0  0  0  0  0  0  0  0
    7.7425  -20.3790   21.5867 C   0  0  0  0  0  0  0  0  0  0  0  0
    7.2638  -20.2734   22.9904 C   0  0  0  0  0  0  0  0  0  0  0  0
    6.9867  -21.6032   23.6298 C   0  0  0  0  0  0  0  0  0  0  0  0
    6.6153  -21.4308   25.0822 C   0  0  0  0  0  0  0  0  0  0  0  0
    6.4816  -22.7569   25.6867 N   0  0  0  0  0  0  0  0  0  0  0  0
    9.0029  -18.2186   21.7882 C   0  0  0  0  0  0  0  0  0  0  0  0
   10.1708  -18.5943   22.0551 O   0  0  0  0  0  0  0  0  0  0  0  0
    9.7192  -16.1762   28.5393 N   0  0  0  0  0  0  0  0  0  0  0  0
    9.5951  -14.7664   28.7330 C   0  0  0  0  0  0  0  0  0  0  0  0
    9.9130  -14.2278   29.8459 N   0  0  0  0  0  0  0  0  0  0  0  0
    9.1109  -13.9367   27.6779 N   0  0  0  0  0  0  0  0  0  0  0  0
    8.3038  -14.4919   26.6170 C   0  0  0  0  0  0  0  0  0  0  0  0
    9.1662  -15.0747   25.5229 C   0  0  0  0  0  0  0  0  0  0  0  0
    8.3781  -15.7040   24.4258 C   0  0  0  0  0  0  0  0  0  0  0  0
    9.2303  -16.2063   23.3140 C   0  0  2  0  0  0  0  0  0  0  0  0
    8.5887  -16.9657   22.3104 N   0  0  0  0  0  0  0  0  0  0  0  0
   10.4751  -16.8548   23.8349 C   0  0  0  0  0  0  0  0  0  0  0  0
   10.3827  -17.9490   24.4220 O   0  0  0  0  0  0  0  0  0  0  0  0
   11.7138  -16.2735   23.6813 O   0  0  0  0  0  0  0  0  0  0  0  0
  1  2  1  0
  3  2  1  0
  3  4  1  6
  5  3  1  0
  6  5  2  0
  7  5  1  0
  8  9  1  1
  8  7  1  0
 10  9  1  0
 11 10  1  0
 12 11  1  0
 13 12  1  0
 14  8  1  0
 15 14  2  0
 17 16  1  0
 17 19  1  0
 18 17  2  0
 20 19  1  0
 20 21  1  0
 21 22  1  0
 23 22  1  1
 23 24  1  0
 24 14  1  0
 25 23  1  0
 25 27  1  0
 26 25  2  0
M  END
$$$$
