SKR.pdb
     RDKit          3D

 27 26  0  0  1  0  0  0  0  0999 V2000
    8.6219  -11.4979   17.9359 O   0  0  0  0  0  0  0  0  0  0  0  0
    8.8050  -12.5953   18.7409 C   0  0  0  0  0  0  0  0  0  0  0  0
    8.8914  -13.9006   17.9923 C   0  0  2  0  0  0  0  0  0  0  0  0
    7.5819  -14.1558   17.4199 N   0  0  0  0  0  0  0  0  0  0  0  0
    9.3138  -15.0393   18.8078 C   0  0  0  0  0  0  0  0  0  0  0  0
    8.4332  -15.7222   19.4221 O   0  0  0  0  0  0  0  0  0  0  0  0
   10.6481  -15.4660   18.9836 N   0  0  0  0  0  0  0  0  0  0  0  0
   11.0173  -16.5832   19.8605 C   0  0  1  0  0  0  0  0  0  0  0  0
   11.9106  -17.4891   19.0570 C   0  0  0  0  0  0  0  0  0  0  0  0
   11.1783  -18.4466   18.1866 C   0  0  0  0  0  0  0  0  0  0  0  0
   12.0818  -19.3258   17.3714 C   0  0  0  0  0  0  0  0  0  0  0  0
   11.2768  -20.2880   16.5328 C   0  0  0  0  0  0  0  0  0  0  0  0
   12.1997  -21.0631   15.7026 N   0  0  0  0  0  0  0  0  0  0  0  0
   11.6439  -16.0726   21.1110 C   0  0  0  0  0  0  0  0  0  0  0  0
   12.5902  -15.2483   21.0719 O   0  0  0  0  0  0  0  0  0  0  0  0
   10.6279  -17.5930   29.6534 N   0  0  0  0  0  0  0  0  0  0  0  0
   11.1623  -16.2684   29.6709 C   0  0  0  0  0  0  0  0  0  0  0  0
   11.6836  -15.7866   30.7320 N   0  0  0  0  0  0  0  0  0  0  0  0
   11.1201  -15.4616   28.4947 N   0  0  0  0  0  0  0  0  0  0  0  0
   10.4973  -15.9527   27.2880 C   0  0  0  0  0  0  0  0  0  0  0  0
   11.3914  -15.7452   26.0889 C   0  0  0  0  0  0  0  0  0  0  0  0
   10.7888  -16.2308   24.8154 C   0  0  0  0  0  0  0  0  0  0  0  0
   11.6947  -16.0682   23.6460 C   0  0  2  0  0  0  0  0  0  0  0  0
   11.2016  -16.4930   22.3922 N   0  0  0  0  0  0  0  0  0  0  0  0
   13.0655  -16.5904   23.9450 C   0  0  0  0  0  0  0  0  0  0  0  0
   13.3063  -17.7959   23.7471 O   0  0  0  0  0  0  0  0  0  0  0  0
   14.0619  -15.7740   24.4313 O   0  0  0  0  0  0  0  0  0  0  0  0
  1  2  1  0
  3  2  1  0
  3  4  1  1
  5  3  1  0
  6  5  2  0
  7  5  1  0
  8  9  1  6
  8  7  1  0
 10  9  1  0
 11 10  1  0
 12 11  1  0
 13 12  1  0
 14  8  1  0
 15 14  2  0
 17 16  1  0
 17 19  1  0
 18 17  2  0
 20 19  1  0
 20 21  1  0
 21 22  1  0
 23 22  1  1
 23 24  1  0
 24 14  1  0
 25 23  1  0
 25 27  1  0
 26 25  2  0
M  END
$$$$
