SKR.pdb
     RDKit          3D

 27 26  0  0  1  0  0  0  0  0999 V2000
    8.8408  -12.3915   19.2303 O   0  0  0  0  0  0  0  0  0  0  0  0
    8.3704  -12.9566   18.0705 C   0  0  0  0  0  0  0  0  0  0  0  0
    7.5002  -14.1685   18.2847 C   0  0  2  0  0  0  0  0  0  0  0  0
    6.2296  -13.6988   18.8068 N   0  0  0  0  0  0  0  0  0  0  0  0
    8.0715  -15.1731   19.1816 C   0  0  0  0  0  0  0  0  0  0  0  0
    7.6287  -15.2654   20.3710 O   0  0  0  0  0  0  0  0  0  0  0  0
    9.1001  -16.0787   18.8421 N   0  0  0  0  0  0  0  0  0  0  0  0
    9.5934  -17.1057   19.7668 C   0  0  1  0  0  0  0  0  0  0  0  0
   10.3646  -18.0994   18.9410 C   0  0  0  0  0  0  0  0  0  0  0  0
   10.8966  -19.2503   19.7174 C   0  0  0  0  0  0  0  0  0  0  0  0
   11.6632  -20.2335   18.8810 C   0  0  0  0  0  0  0  0  0  0  0  0
   12.0971  -21.4171   19.7105 C   0  0  0  0  0  0  0  0  0  0  0  0
   12.8018  -22.3592   18.8402 N   0  0  0  0  0  0  0  0  0  0  0  0
   10.3912  -16.4788   20.8566 C   0  0  0  0  0  0  0  0  0  0  0  0
   11.2162  -15.5645   20.6120 O   0  0  0  0  0  0  0  0  0  0  0  0
    9.6318  -16.4163   30.0321 N   0  0  0  0  0  0  0  0  0  0  0  0
   10.2759  -15.2649   29.4845 C   0  0  0  0  0  0  0  0  0  0  0  0
   10.3728  -14.1856   30.1595 N   0  0  0  0  0  0  0  0  0  0  0  0
   10.8228  -15.3068   28.1672 N   0  0  0  0  0  0  0  0  0  0  0  0
   10.1182  -15.9762   27.0993 C   0  0  0  0  0  0  0  0  0  0  0  0
   10.8340  -15.8037   25.7808 C   0  0  0  0  0  0  0  0  0  0  0  0
   10.1492  -16.4861   24.6467 C   0  0  0  0  0  0  0  0  0  0  0  0
   10.8393  -16.2807   23.3443 C   0  0  2  0  0  0  0  0  0  0  0  0
   10.2545  -16.8852   22.2093 N   0  0  0  0  0  0  0  0  0  0  0  0
   12.3078  -16.5478   23.4605 C   0  0  0  0  0  0  0  0  0  0  0  0
   13.0831  -15.5868   23.6205 O   0  0  0  0  0  0  0  0  0  0  0  0
   12.8195  -17.8244   23.3949 O   0  0  0  0  0  0  0  0  0  0  0  0
  1  2  1  0
  3  2  1  0
  3  4  1  1
  5  3  1  0
  6  5  2  0
  7  5  1  0
  8  9  1  6
  8  7  1  0
 10  9  1  0
 11 10  1  0
 12 11  1  0
 13 12  1  0
 14  8  1  0
 15 14  2  0
 17 16  1  0
 17 19  1  0
 18 17  2  0
 20 19  1  0
 20 21  1  0
 21 22  1  0
 23 22  1  1
 23 24  1  0
 24 14  1  0
 25 23  1  0
 25 27  1  0
 26 25  2  0
M  END
$$$$
