SKR.pdb
     RDKit          3D

 27 26  0  0  1  0  0  0  0  0999 V2000
   12.4930  -18.9208   17.4453 O   0  0  0  0  0  0  0  0  0  0  0  0
   12.8568  -20.2436   17.3865 C   0  0  0  0  0  0  0  0  0  0  0  0
   11.8231  -21.1917   17.9380 C   0  0  2  0  0  0  0  0  0  0  0  0
   10.7593  -21.2876   16.9549 N   0  0  0  0  0  0  0  0  0  0  0  0
   11.2738  -20.8002   19.2361 C   0  0  0  0  0  0  0  0  0  0  0  0
   10.1825  -20.1470   19.2756 O   0  0  0  0  0  0  0  0  0  0  0  0
   11.8581  -21.0872   20.4889 N   0  0  0  0  0  0  0  0  0  0  0  0
   11.2916  -20.6160   21.7579 C   0  0  1  0  0  0  0  0  0  0  0  0
   11.9075  -21.4534   22.8459 C   0  0  0  0  0  0  0  0  0  0  0  0
   11.4509  -21.0992   24.2158 C   0  0  0  0  0  0  0  0  0  0  0  0
   12.0469  -21.9649   25.2879 C   0  0  0  0  0  0  0  0  0  0  0  0
   11.4581  -21.6278   26.6358 C   0  0  0  0  0  0  0  0  0  0  0  0
   11.9214  -22.6215   27.6052 N   0  0  0  0  0  0  0  0  0  0  0  0
   11.5255  -19.1541   21.9164 C   0  0  0  0  0  0  0  0  0  0  0  0
   12.6489  -18.6477   21.6757 O   0  0  0  0  0  0  0  0  0  0  0  0
    6.9175  -12.1911   19.7112 N   0  0  0  0  0  0  0  0  0  0  0  0
    7.8693  -13.1065   19.1667 C   0  0  0  0  0  0  0  0  0  0  0  0
    7.9854  -13.2567   17.9042 N   0  0  0  0  0  0  0  0  0  0  0  0
    8.7081  -13.8697   20.0327 N   0  0  0  0  0  0  0  0  0  0  0  0
    8.5321  -13.8131   21.4648 C   0  0  0  0  0  0  0  0  0  0  0  0
    9.5955  -14.6140   22.1776 C   0  0  0  0  0  0  0  0  0  0  0  0
    9.3771  -16.0858   22.0946 C   0  0  0  0  0  0  0  0  0  0  0  0
   10.5769  -16.8733   22.4883 C   0  0  2  0  0  0  0  0  0  0  0  0
   10.4957  -18.2762   22.3438 N   0  0  0  0  0  0  0  0  0  0  0  0
   11.0870  -16.4502   23.8307 C   0  0  0  0  0  0  0  0  0  0  0  0
   10.5700  -16.9397   24.8522 O   0  0  0  0  0  0  0  0  0  0  0  0
   12.1091  -15.5372   23.9627 O   0  0  0  0  0  0  0  0  0  0  0  0
  1  2  1  0
  3  2  1  0
  3  4  1  6
  5  3  1  0
  6  5  2  0
  7  5  1  0
  8  9  1  1
  8  7  1  0
 10  9  1  0
 11 10  1  0
 12 11  1  0
 13 12  1  0
 14  8  1  0
 15 14  2  0
 17 16  1  0
 17 19  1  0
 18 17  2  0
 20 19  1  0
 20 21  1  0
 21 22  1  0
 23 22  1  1
 23 24  1  0
 24 14  1  0
 25 23  1  0
 25 27  1  0
 26 25  2  0
M  END
$$$$
