SKR.pdb
     RDKit          3D

 27 26  0  0  1  0  0  0  0  0999 V2000
    4.6791  -20.4348   24.7586 O   0  0  0  0  0  0  0  0  0  0  0  0
    5.7059  -19.6870   24.2368 C   0  0  0  0  0  0  0  0  0  0  0  0
    5.6439  -19.5150   22.7407 C   0  0  2  0  0  0  0  0  0  0  0  0
    5.7852  -20.8335   22.1498 N   0  0  0  0  0  0  0  0  0  0  0  0
    6.6530  -18.6083   22.1932 C   0  0  0  0  0  0  0  0  0  0  0  0
    7.8052  -19.0649   21.9051 O   0  0  0  0  0  0  0  0  0  0  0  0
    6.4639  -17.2311   21.9466 N   0  0  0  0  0  0  0  0  0  0  0  0
    7.5686  -16.3220   21.6203 C   0  0  1  0  0  0  0  0  0  0  0  0
    6.9507  -15.0776   21.0425 C   0  0  0  0  0  0  0  0  0  0  0  0
    7.9391  -14.0824   20.5493 C   0  0  0  0  0  0  0  0  0  0  0  0
    7.5861  -13.5009   19.2109 C   0  0  0  0  0  0  0  0  0  0  0  0
    8.6989  -12.6182   18.7014 C   0  0  0  0  0  0  0  0  0  0  0  0
    8.2065  -11.8760   17.5401 N   0  0  0  0  0  0  0  0  0  0  0  0
    8.4073  -16.0754   22.8256 C   0  0  0  0  0  0  0  0  0  0  0  0
    7.8863  -15.9267   23.9583 O   0  0  0  0  0  0  0  0  0  0  0  0
   12.0149  -21.4188   27.8581 N   0  0  0  0  0  0  0  0  0  0  0  0
   11.9742  -20.1235   28.4589 C   0  0  0  0  0  0  0  0  0  0  0  0
   12.0504  -19.9867   29.7260 N   0  0  0  0  0  0  0  0  0  0  0  0
   11.8471  -18.9583   27.6452 N   0  0  0  0  0  0  0  0  0  0  0  0
   11.6018  -19.0749   26.2269 C   0  0  0  0  0  0  0  0  0  0  0  0
   11.6707  -17.7276   25.5484 C   0  0  0  0  0  0  0  0  0  0  0  0
   10.6324  -17.5463   24.4950 C   0  0  0  0  0  0  0  0  0  0  0  0
   10.7486  -16.2441   23.7840 C   0  0  2  0  0  0  0  0  0  0  0  0
    9.8221  -15.9980   22.7465 N   0  0  0  0  0  0  0  0  0  0  0  0
   12.1648  -15.9692   23.3836 C   0  0  0  0  0  0  0  0  0  0  0  0
   12.4234  -15.7781   22.1807 O   0  0  0  0  0  0  0  0  0  0  0  0
   13.1834  -15.9227   24.3088 O   0  0  0  0  0  0  0  0  0  0  0  0
  1  2  1  0
  3  2  1  0
  3  4  1  6
  5  3  1  0
  6  5  2  0
  7  5  1  0
  8  9  1  1
  8  7  1  0
 10  9  1  0
 11 10  1  0
 12 11  1  0
 13 12  1  0
 14  8  1  0
 15 14  2  0
 17 16  1  0
 17 19  1  0
 18 17  2  0
 20 19  1  0
 20 21  1  0
 21 22  1  0
 23 22  1  6
 23 24  1  0
 24 14  1  0
 25 23  1  0
 25 27  1  0
 26 25  2  0
M  END
$$$$
