NMI.pdb
     RDKit          3D

 25 24  0  0  1  0  0  0  0  0999 V2000
   10.6788  -18.2626   18.2342 N   0  0  0  0  0  0  0  0  0  0  0  0
   10.3584  -16.8782   18.1346 C   0  0  0  0  0  0  0  0  0  0  0  0
   10.4437  -16.2848   17.0336 O   0  0  0  0  0  0  0  0  0  0  0  0
    9.9218  -16.1150   19.3201 C   0  0  0  0  0  0  0  0  0  0  0  0
    9.8864  -16.8674   20.5982 C   0  0  2  0  0  0  0  0  0  0  0  0
    8.6428  -17.6697   20.5669 N   0  0  0  0  0  0  0  0  0  0  0  0
    9.9100  -16.1078   21.8372 C   0  0  0  0  0  0  0  0  0  0  0  0
   10.9547  -15.4297   22.1114 O   0  0  0  0  0  0  0  0  0  0  0  0
    5.6493  -11.7573   25.2718 C   0  0  0  0  0  0  0  0  0  0  0  0
    5.5146  -13.5502   25.5787 S   0  0  0  0  0  0  0  0  0  0  0  0
    7.2361  -14.2146   25.5524 C   0  0  0  0  0  0  0  0  0  0  0  0
    7.4675  -14.8976   24.2429 C   0  0  0  0  0  0  0  0  0  0  0  0
    8.8834  -15.3218   23.9833 C   0  0  2  0  0  0  0  0  0  0  0  0
    8.8114  -16.1002   22.7323 N   0  0  0  0  0  0  0  0  0  0  0  0
    9.5169  -16.1068   25.0333 C   0  0  0  0  0  0  0  0  0  0  0  0
   10.0331  -17.2280   24.7192 O   0  0  0  0  0  0  0  0  0  0  0  0
   10.3987  -13.5983   29.9351 C   0  0  0  0  0  0  0  0  0  0  0  0
   10.7327  -14.2675   28.6506 C   0  0  0  0  0  0  0  0  0  0  0  0
   10.5651  -15.7593   28.6598 C   0  0  2  0  0  0  0  0  0  0  0  0
   11.6634  -16.3447   29.5168 C   0  0  0  0  0  0  0  0  0  0  0  0
   10.5912  -16.3684   27.2793 C   0  0  2  0  0  0  0  0  0  0  0  0
    9.6154  -15.7190   26.4090 N   0  0  0  0  0  0  0  0  0  0  0  0
   10.1602  -17.7852   27.4430 C   0  0  0  0  0  0  0  0  0  0  0  0
   11.1181  -18.8178   27.5104 O   0  0  0  0  0  0  0  0  0  0  0  0
    8.9734  -18.1505   27.5284 O   0  0  0  0  0  0  0  0  0  0  0  0
  2  1  1  0
  2  3  2  0
  4  2  1  0
  5  4  1  0
  5  6  1  6
  7  5  1  0
  8  7  2  0
  9 10  1  0
 10 11  1  0
 11 12  1  0
 13 12  1  1
 13 14  1  0
 14  7  1  0
 15 13  1  0
 15 16  2  0
 18 19  1  0
 18 17  1  0
 19 21  1  0
 19 20  1  1
 21 22  1  6
 22 15  1  0
 23 21  1  0
 24 23  1  0
 25 23  2  0
M  END
$$$$
