NMI.pdb
     RDKit          3D

 25 24  0  0  1  0  0  0  0  0999 V2000
   11.7075  -16.7159   17.6861 N   0  0  0  0  0  0  0  0  0  0  0  0
   10.3848  -16.7079   18.2149 C   0  0  0  0  0  0  0  0  0  0  0  0
    9.4747  -17.3658   17.6578 O   0  0  0  0  0  0  0  0  0  0  0  0
   10.0578  -15.9275   19.4244 C   0  0  0  0  0  0  0  0  0  0  0  0
    9.9904  -16.6950   20.6922 C   0  0  2  0  0  0  0  0  0  0  0  0
    8.7628  -17.5179   20.6080 N   0  0  0  0  0  0  0  0  0  0  0  0
    9.9569  -15.9493   21.9394 C   0  0  0  0  0  0  0  0  0  0  0  0
   10.9405  -15.1854   22.2141 O   0  0  0  0  0  0  0  0  0  0  0  0
    5.8118  -11.7990   25.5240 C   0  0  0  0  0  0  0  0  0  0  0  0
    5.5094  -13.5896   25.6952 S   0  0  0  0  0  0  0  0  0  0  0  0
    7.1682  -14.3974   25.7322 C   0  0  0  0  0  0  0  0  0  0  0  0
    7.4486  -14.9808   24.3847 C   0  0  0  0  0  0  0  0  0  0  0  0
    8.8905  -15.2932   24.1096 C   0  0  2  0  0  0  0  0  0  0  0  0
    8.8687  -16.0472   22.8418 N   0  0  0  0  0  0  0  0  0  0  0  0
    9.5865  -16.0519   25.1390 C   0  0  0  0  0  0  0  0  0  0  0  0
    9.9460  -17.2438   24.8697 O   0  0  0  0  0  0  0  0  0  0  0  0
   10.9765  -13.4876   29.8519 C   0  0  0  0  0  0  0  0  0  0  0  0
   11.2218  -14.2624   28.6074 C   0  0  0  0  0  0  0  0  0  0  0  0
   10.8591  -15.7165   28.6935 C   0  0  2  0  0  0  0  0  0  0  0  0
   11.9155  -16.4105   29.5216 C   0  0  0  0  0  0  0  0  0  0  0  0
   10.7286  -16.3771   27.3429 C   0  0  2  0  0  0  0  0  0  0  0  0
    9.9112  -15.5648   26.4466 N   0  0  0  0  0  0  0  0  0  0  0  0
    9.9932  -17.6522   27.5742 C   0  0  0  0  0  0  0  0  0  0  0  0
   10.6994  -18.8602   27.7480 O   0  0  0  0  0  0  0  0  0  0  0  0
    8.7532  -17.7451   27.6288 O   0  0  0  0  0  0  0  0  0  0  0  0
  2  1  1  0
  2  3  2  0
  4  2  1  0
  5  4  1  0
  5  6  1  6
  7  5  1  0
  8  7  2  0
  9 10  1  0
 10 11  1  0
 11 12  1  0
 13 12  1  1
 13 14  1  0
 14  7  1  0
 15 13  1  0
 15 16  2  0
 18 19  1  0
 18 17  1  0
 19 21  1  0
 19 20  1  1
 21 22  1  6
 22 15  1  0
 23 21  1  0
 24 23  1  0
 25 23  2  0
M  END
$$$$
