NMI.pdb
     RDKit          3D

 25 24  0  0  1  0  0  0  0  0999 V2000
   12.3770  -17.0017   17.7423 N   0  0  0  0  0  0  0  0  0  0  0  0
   11.1349  -17.2276   18.4020 C   0  0  0  0  0  0  0  0  0  0  0  0
   10.3952  -18.1780   18.0539 O   0  0  0  0  0  0  0  0  0  0  0  0
   10.6927  -16.3511   19.5043 C   0  0  0  0  0  0  0  0  0  0  0  0
   10.5491  -17.0003   20.8305 C   0  0  2  0  0  0  0  0  0  0  0  0
    9.3921  -17.9164   20.7150 N   0  0  0  0  0  0  0  0  0  0  0  0
   10.3430  -16.1464   21.9885 C   0  0  0  0  0  0  0  0  0  0  0  0
   11.2256  -15.2653   22.2554 O   0  0  0  0  0  0  0  0  0  0  0  0
    6.7981  -12.4126   26.0031 C   0  0  0  0  0  0  0  0  0  0  0  0
    5.8075  -13.2959   24.7519 S   0  0  0  0  0  0  0  0  0  0  0  0
    7.0103  -14.0662   23.5832 C   0  0  0  0  0  0  0  0  0  0  0  0
    7.6008  -15.2773   24.2307 C   0  0  0  0  0  0  0  0  0  0  0  0
    9.0788  -15.4507   24.0368 C   0  0  2  0  0  0  0  0  0  0  0  0
    9.1968  -16.2662   22.8132 N   0  0  0  0  0  0  0  0  0  0  0  0
    9.7971  -16.0792   25.1364 C   0  0  0  0  0  0  0  0  0  0  0  0
   10.4564  -17.1422   24.8960 O   0  0  0  0  0  0  0  0  0  0  0  0
   10.0354  -13.3732   29.8934 C   0  0  0  0  0  0  0  0  0  0  0  0
   10.6989  -14.0956   28.7766 C   0  0  0  0  0  0  0  0  0  0  0  0
   10.5486  -15.5886   28.8200 C   0  0  2  0  0  0  0  0  0  0  0  0
   11.5780  -16.1314   29.7840 C   0  0  0  0  0  0  0  0  0  0  0  0
   10.6972  -16.2401   27.4668 C   0  0  2  0  0  0  0  0  0  0  0  0
    9.8308  -15.5954   26.4844 N   0  0  0  0  0  0  0  0  0  0  0  0
   10.2155  -17.6410   27.6259 C   0  0  0  0  0  0  0  0  0  0  0  0
   11.1355  -18.6944   27.8058 O   0  0  0  0  0  0  0  0  0  0  0  0
    9.0165  -17.9748   27.6120 O   0  0  0  0  0  0  0  0  0  0  0  0
  2  1  1  0
  2  3  2  0
  4  2  1  0
  5  4  1  0
  5  6  1  6
  7  5  1  0
  8  7  2  0
  9 10  1  0
 10 11  1  0
 11 12  1  0
 13 12  1  1
 13 14  1  0
 14  7  1  0
 15 13  1  0
 15 16  2  0
 18 19  1  0
 18 17  1  0
 19 21  1  0
 19 20  1  1
 21 22  1  6
 22 15  1  0
 23 21  1  0
 24 23  1  0
 25 23  2  0
M  END
$$$$
