NMI.pdb
     RDKit          3D

 25 24  0  0  1  0  0  0  0  0999 V2000
    8.8036  -16.7438   17.0732 N   0  0  0  0  0  0  0  0  0  0  0  0
    9.8289  -16.8026   18.0605 C   0  0  0  0  0  0  0  0  0  0  0  0
   10.7732  -17.6192   17.9467 O   0  0  0  0  0  0  0  0  0  0  0  0
    9.8016  -15.9083   19.2344 C   0  0  0  0  0  0  0  0  0  0  0  0
   10.0544  -16.5533   20.5463 C   0  0  2  0  0  0  0  0  0  0  0  0
    9.2338  -17.7852   20.5620 N   0  0  0  0  0  0  0  0  0  0  0  0
    9.7595  -15.7915   21.7485 C   0  0  0  0  0  0  0  0  0  0  0  0
   10.4570  -14.7520   21.9924 O   0  0  0  0  0  0  0  0  0  0  0  0
    6.6504  -11.7474   25.2804 C   0  0  0  0  0  0  0  0  0  0  0  0
    5.9936  -13.4323   25.5184 S   0  0  0  0  0  0  0  0  0  0  0  0
    6.1897  -14.3015   23.9022 C   0  0  0  0  0  0  0  0  0  0  0  0
    7.0069  -15.5349   24.1161 C   0  0  0  0  0  0  0  0  0  0  0  0
    8.4779  -15.3805   23.8618 C   0  0  2  0  0  0  0  0  0  0  0  0
    8.7255  -16.1700   22.6404 N   0  0  0  0  0  0  0  0  0  0  0  0
    9.3601  -15.8164   24.9349 C   0  0  0  0  0  0  0  0  0  0  0  0
   10.0776  -16.8510   24.7424 O   0  0  0  0  0  0  0  0  0  0  0  0
   11.4806  -14.4038   30.6736 C   0  0  0  0  0  0  0  0  0  0  0  0
   11.4319  -15.2600   29.4596 C   0  0  0  0  0  0  0  0  0  0  0  0
   10.5933  -14.7131   28.3410 C   0  0  2  0  0  0  0  0  0  0  0  0
    9.2234  -14.4011   28.8971 C   0  0  0  0  0  0  0  0  0  0  0  0
   10.4845  -15.6534   27.1657 C   0  0  2  0  0  0  0  0  0  0  0  0
    9.4963  -15.1697   26.2060 N   0  0  0  0  0  0  0  0  0  0  0  0
    9.9734  -16.9421   27.7115 C   0  0  0  0  0  0  0  0  0  0  0  0
    8.6203  -17.3006   27.5422 O   0  0  0  0  0  0  0  0  0  0  0  0
   10.6709  -17.7650   28.3325 O   0  0  0  0  0  0  0  0  0  0  0  0
  2  1  1  0
  2  3  2  0
  4  2  1  0
  5  4  1  0
  5  6  1  1
  7  5  1  0
  8  7  2  0
  9 10  1  0
 10 11  1  0
 11 12  1  0
 13 12  1  1
 13 14  1  0
 14  7  1  0
 15 13  1  0
 15 16  2  0
 18 19  1  0
 18 17  1  0
 19 21  1  0
 19 20  1  1
 21 22  1  6
 22 15  1  0
 23 21  1  0
 24 23  1  0
 25 23  2  0
M  END
$$$$
