NMI.pdb
     RDKit          3D

 25 24  0  0  1  0  0  0  0  0999 V2000
   14.4419  -18.2079   17.3615 N   0  0  0  0  0  0  0  0  0  0  0  0
   13.1042  -18.4839   17.7661 C   0  0  0  0  0  0  0  0  0  0  0  0
   12.5570  -19.5671   17.4520 O   0  0  0  0  0  0  0  0  0  0  0  0
   12.3360  -17.5047   18.5597 C   0  0  0  0  0  0  0  0  0  0  0  0
   12.2946  -17.7462   20.0228 C   0  0  2  0  0  0  0  0  0  0  0  0
   11.4842  -18.9703   20.2131 N   0  0  0  0  0  0  0  0  0  0  0  0
   11.7491  -16.6997   20.8712 C   0  0  0  0  0  0  0  0  0  0  0  0
   12.3811  -15.5948   20.9512 O   0  0  0  0  0  0  0  0  0  0  0  0
    6.8142  -12.8268   20.4430 C   0  0  0  0  0  0  0  0  0  0  0  0
    6.3962  -14.0100   21.7668 S   0  0  0  0  0  0  0  0  0  0  0  0
    7.9708  -14.3728   22.6583 C   0  0  0  0  0  0  0  0  0  0  0  0
    8.7099  -15.4379   21.9139 C   0  0  0  0  0  0  0  0  0  0  0  0
   10.0513  -15.8015   22.4801 C   0  0  2  0  0  0  0  0  0  0  0  0
   10.5450  -16.8755   21.5974 N   0  0  0  0  0  0  0  0  0  0  0  0
   10.0599  -16.2417   23.8679 C   0  0  0  0  0  0  0  0  0  0  0  0
   10.4898  -17.4125   24.1261 O   0  0  0  0  0  0  0  0  0  0  0  0
   10.4695  -13.4605   29.4433 C   0  0  0  0  0  0  0  0  0  0  0  0
   10.5490  -14.6659   28.5775 C   0  0  0  0  0  0  0  0  0  0  0  0
   10.0030  -14.4785   27.1917 C   0  0  2  0  0  0  0  0  0  0  0  0
    8.5303  -14.1621   27.3115 C   0  0  0  0  0  0  0  0  0  0  0  0
   10.2146  -15.6793   26.3025 C   0  0  2  0  0  0  0  0  0  0  0  0
    9.6246  -15.4581   24.9855 N   0  0  0  0  0  0  0  0  0  0  0  0
    9.4670  -16.8015   26.9364 C   0  0  0  0  0  0  0  0  0  0  0  0
    8.2719  -17.2773   26.3588 O   0  0  0  0  0  0  0  0  0  0  0  0
    9.8240  -17.3795   27.9794 O   0  0  0  0  0  0  0  0  0  0  0  0
  2  1  1  0
  2  3  2  0
  4  2  1  0
  5  4  1  0
  5  6  1  6
  7  5  1  0
  8  7  2  0
  9 10  1  0
 10 11  1  0
 11 12  1  0
 13 12  1  6
 13 14  1  0
 14  7  1  0
 15 13  1  0
 15 16  2  0
 18 19  1  0
 18 17  1  0
 19 21  1  0
 19 20  1  1
 21 22  1  6
 22 15  1  0
 23 21  1  0
 24 23  1  0
 25 23  2  0
M  END
$$$$
