NMI.pdb
     RDKit          3D

 25 24  0  0  1  0  0  0  0  0999 V2000
    9.0650  -19.4323   19.0384 N   0  0  0  0  0  0  0  0  0  0  0  0
   10.3095  -18.7798   19.2719 C   0  0  0  0  0  0  0  0  0  0  0  0
   11.2619  -18.9238   18.4695 O   0  0  0  0  0  0  0  0  0  0  0  0
   10.5047  -17.9243   20.4588 C   0  0  0  0  0  0  0  0  0  0  0  0
    9.5422  -16.8066   20.6173 C   0  0  2  0  0  0  0  0  0  0  0  0
    9.7705  -15.9032   19.4671 N   0  0  0  0  0  0  0  0  0  0  0  0
    9.6067  -16.0193   21.8374 C   0  0  0  0  0  0  0  0  0  0  0  0
   10.6617  -15.3394   22.0637 O   0  0  0  0  0  0  0  0  0  0  0  0
    5.5425  -11.5647   25.2538 C   0  0  0  0  0  0  0  0  0  0  0  0
    5.3765  -13.3326   25.6706 S   0  0  0  0  0  0  0  0  0  0  0  0
    7.0781  -14.0446   25.6104 C   0  0  0  0  0  0  0  0  0  0  0  0
    7.2574  -14.7509   24.3052 C   0  0  0  0  0  0  0  0  0  0  0  0
    8.6584  -15.1982   24.0063 C   0  0  2  0  0  0  0  0  0  0  0  0
    8.5366  -15.9872   22.7657 N   0  0  0  0  0  0  0  0  0  0  0  0
    9.3127  -15.9825   25.0439 C   0  0  0  0  0  0  0  0  0  0  0  0
    9.6475  -17.1811   24.7724 O   0  0  0  0  0  0  0  0  0  0  0  0
   10.5613  -13.4634   29.7598 C   0  0  0  0  0  0  0  0  0  0  0  0
   10.9408  -14.2683   28.5692 C   0  0  0  0  0  0  0  0  0  0  0  0
   10.5190  -15.7078   28.6264 C   0  0  2  0  0  0  0  0  0  0  0  0
   11.5190  -16.4512   29.4813 C   0  0  0  0  0  0  0  0  0  0  0  0
   10.4087  -16.3489   27.2647 C   0  0  2  0  0  0  0  0  0  0  0  0
    9.6215  -15.5140   26.3621 N   0  0  0  0  0  0  0  0  0  0  0  0
    9.6518  -17.6168   27.4633 C   0  0  0  0  0  0  0  0  0  0  0  0
   10.3379  -18.8376   27.6280 O   0  0  0  0  0  0  0  0  0  0  0  0
    8.4098  -17.6927   27.4969 O   0  0  0  0  0  0  0  0  0  0  0  0
  2  1  1  0
  2  3  2  0
  4  2  1  0
  5  4  1  0
  5  6  1  6
  7  5  1  0
  8  7  2  0
  9 10  1  0
 10 11  1  0
 11 12  1  0
 13 12  1  1
 13 14  1  0
 14  7  1  0
 15 13  1  0
 15 16  2  0
 18 19  1  0
 18 17  1  0
 19 21  1  0
 19 20  1  1
 21 22  1  6
 22 15  1  0
 23 21  1  0
 24 23  1  0
 25 23  2  0
M  END
$$$$
