NMI.pdb
     RDKit          3D

 25 24  0  0  1  0  0  0  0  0999 V2000
    6.6046  -16.0442   19.0073 N   0  0  0  0  0  0  0  0  0  0  0  0
    7.9307  -16.3691   18.6010 C   0  0  0  0  0  0  0  0  0  0  0  0
    8.1266  -17.1329   17.6264 O   0  0  0  0  0  0  0  0  0  0  0  0
    9.0982  -15.8170   19.3158 C   0  0  0  0  0  0  0  0  0  0  0  0
    9.4721  -16.5061   20.5753 C   0  0  2  0  0  0  0  0  0  0  0  0
    8.5132  -17.6229   20.7314 N   0  0  0  0  0  0  0  0  0  0  0  0
    9.4729  -15.7285   21.8033 C   0  0  0  0  0  0  0  0  0  0  0  0
   10.3231  -14.7852   21.9215 O   0  0  0  0  0  0  0  0  0  0  0  0
    6.5636  -11.4016   25.1041 C   0  0  0  0  0  0  0  0  0  0  0  0
    5.7326  -12.9457   25.6060 S   0  0  0  0  0  0  0  0  0  0  0  0
    7.0589  -14.2157   25.7901 C   0  0  0  0  0  0  0  0  0  0  0  0
    7.2423  -14.9121   24.4801 C   0  0  0  0  0  0  0  0  0  0  0  0
    8.6622  -15.2420   24.1235 C   0  0  2  0  0  0  0  0  0  0  0  0
    8.5598  -15.9885   22.8552 N   0  0  0  0  0  0  0  0  0  0  0  0
    9.4041  -16.0158   25.1088 C   0  0  0  0  0  0  0  0  0  0  0  0
    9.9522  -17.1025   24.7332 O   0  0  0  0  0  0  0  0  0  0  0  0
   10.2994  -13.4975   29.7794 C   0  0  0  0  0  0  0  0  0  0  0  0
   10.8852  -14.2415   28.6338 C   0  0  0  0  0  0  0  0  0  0  0  0
   10.6627  -15.7256   28.6717 C   0  0  2  0  0  0  0  0  0  0  0  0
   11.7956  -16.3453   29.4566 C   0  0  0  0  0  0  0  0  0  0  0  0
   10.5690  -16.3473   27.2998 C   0  0  2  0  0  0  0  0  0  0  0  0
    9.5775  -15.6527   26.4838 N   0  0  0  0  0  0  0  0  0  0  0  0
   10.0724  -17.7367   27.5072 C   0  0  0  0  0  0  0  0  0  0  0  0
   10.9799  -18.8130   27.5861 O   0  0  0  0  0  0  0  0  0  0  0  0
    8.8709  -18.0410   27.6209 O   0  0  0  0  0  0  0  0  0  0  0  0
  2  1  1  0
  2  3  2  0
  4  2  1  0
  5  4  1  0
  5  6  1  1
  7  5  1  0
  8  7  2  0
  9 10  1  0
 10 11  1  0
 11 12  1  0
 13 12  1  1
 13 14  1  0
 14  7  1  0
 15 13  1  0
 15 16  2  0
 18 19  1  0
 18 17  1  0
 19 21  1  0
 19 20  1  6
 21 22  1  6
 22 15  1  0
 23 21  1  0
 24 23  1  0
 25 23  2  0
M  END
$$$$
