EHV.pdb
     RDKit          3D

 27 27  0  0  1  0  0  0  0  0999 V2000
   11.1494  -18.3516   21.6760 N   0  0  0  0  0  0  0  0  0  0  0  0
   11.8932  -17.2710   22.3216 C   0  0  1  0  0  0  0  0  0  0  0  0
   12.9950  -16.8352   21.4088 C   0  0  0  0  0  0  0  0  0  0  0  0
   13.3172  -17.8068   20.3056 C   0  0  0  0  0  0  0  0  0  0  0  0
   14.5612  -18.5770   20.6294 C   0  0  0  0  0  0  0  0  0  0  0  0
   14.6070  -19.4516   21.5323 O   0  0  0  0  0  0  0  0  0  0  0  0
   10.9783  -16.1224   22.5928 C   0  0  0  0  0  0  0  0  0  0  0  0
   11.3466  -15.0027   23.0117 O   0  0  0  0  0  0  0  0  0  0  0  0
   15.7609  -18.3620   19.9333 O   0  0  0  0  0  0  0  0  0  0  0  0
    9.5593  -16.2479   22.3774 N   0  0  0  0  0  0  0  0  0  0  0  0
    8.6689  -15.1223   22.5644 C   0  0  1  0  0  0  0  0  0  0  0  0
    7.5045  -15.2360   21.6357 C   0  0  0  0  0  0  0  0  0  0  0  0
    7.8082  -14.7102   20.2792 C   0  0  0  0  0  0  0  0  0  0  0  0
    8.9487  -14.1410   19.7726 C   0  0  0  0  0  0  0  0  0  0  0  0
    8.7572  -13.8141   18.4778 N   0  0  0  0  0  0  0  0  0  0  0  0
    7.5178  -14.1658   18.1559 C   0  0  0  0  0  0  0  0  0  0  0  0
    6.9326  -14.7075   19.2309 N   0  0  0  0  0  0  0  0  0  0  0  0
    8.3360  -15.0045   23.9751 C   0  0  0  0  0  0  0  0  0  0  0  0
    8.5656  -15.9678   24.7473 O   0  0  0  0  0  0  0  0  0  0  0  0
    7.3165  -11.3170   25.7451 C   0  0  0  0  0  0  0  0  0  0  0  0
    6.6521  -12.5470   26.2938 C   0  0  2  0  0  0  0  0  0  0  0  0
    6.3747  -12.3994   27.7688 C   0  0  0  0  0  0  0  0  0  0  0  0
    7.4159  -13.8148   25.9755 C   0  0  2  0  0  0  0  0  0  0  0  0
    7.7523  -13.8487   24.5720 N   0  0  0  0  0  0  0  0  0  0  0  0
    6.5913  -14.9717   26.3834 C   0  0  0  0  0  0  0  0  0  0  0  0
    6.7561  -15.6082   27.6038 O   0  0  0  0  0  0  0  0  0  0  0  0
    5.6839  -15.4399   25.6248 O   0  0  0  0  0  0  0  0  0  0  0  0
  2  1  1  6
  2  3  1  0
  4  5  1  0
  4  3  1  0
  5  6  2  0
  7  2  1  0
  7 10  1  0
  8  7  2  0
  9  5  1  0
 11 10  1  0
 12 13  1  0
 11 12  1  6
 13 17  1  0
 13 14  2  0
 14 15  1  0
 16 15  1  0
 17 16  2  0
 18 11  1  0
 19 18  2  0
 21 20  1  1
 21 23  1  0
 22 21  1  0
 23 24  1  6
 23 25  1  0
 24 18  1  0
 25 26  1  0
 27 25  2  0
M  END
$$$$
