EHV.pdb
     RDKit          3D

 27 27  0  0  1  0  0  0  0  0999 V2000
   11.6277  -18.6535   21.0131 N   0  0  0  0  0  0  0  0  0  0  0  0
   12.6350  -17.7905   21.6282 C   0  0  1  0  0  0  0  0  0  0  0  0
   13.3596  -17.0534   20.5471 C   0  0  0  0  0  0  0  0  0  0  0  0
   14.3912  -17.8684   19.8147 C   0  0  0  0  0  0  0  0  0  0  0  0
   15.7544  -17.2708   19.9886 C   0  0  0  0  0  0  0  0  0  0  0  0
   16.5051  -17.5534   20.9575 O   0  0  0  0  0  0  0  0  0  0  0  0
   11.9712  -16.8169   22.5454 C   0  0  0  0  0  0  0  0  0  0  0  0
   12.5476  -15.8555   23.1007 O   0  0  0  0  0  0  0  0  0  0  0  0
   16.2762  -16.3499   19.0669 O   0  0  0  0  0  0  0  0  0  0  0  0
   10.5692  -16.9383   22.8542 N   0  0  0  0  0  0  0  0  0  0  0  0
    9.8745  -15.9153   23.6064 C   0  0  1  0  0  0  0  0  0  0  0  0
    8.4178  -15.9439   23.2774 C   0  0  0  0  0  0  0  0  0  0  0  0
    8.1034  -15.1957   22.0323 C   0  0  0  0  0  0  0  0  0  0  0  0
    8.9109  -14.4698   21.1941 C   0  0  0  0  0  0  0  0  0  0  0  0
    8.1773  -13.9650   20.1805 N   0  0  0  0  0  0  0  0  0  0  0  0
    6.9218  -14.3578   20.3617 C   0  0  0  0  0  0  0  0  0  0  0  0
    6.8607  -15.1005   21.4736 N   0  0  0  0  0  0  0  0  0  0  0  0
   10.2011  -16.0534   25.0168 C   0  0  0  0  0  0  0  0  0  0  0  0
   10.7781  -17.0936   25.4191 O   0  0  0  0  0  0  0  0  0  0  0  0
   10.2331  -12.7396   27.4877 C   0  0  0  0  0  0  0  0  0  0  0  0
    9.9418  -14.0305   28.1976 C   0  0  2  0  0  0  0  0  0  0  0  0
   10.5591  -14.0423   29.5736 C   0  0  0  0  0  0  0  0  0  0  0  0
   10.3292  -15.2459   27.3821 C   0  0  2  0  0  0  0  0  0  0  0  0
    9.9109  -15.0738   26.0113 N   0  0  0  0  0  0  0  0  0  0  0  0
    9.7241  -16.4405   28.0081 C   0  0  0  0  0  0  0  0  0  0  0  0
   10.3699  -17.1704   28.9939 O   0  0  0  0  0  0  0  0  0  0  0  0
    8.5715  -16.8564   27.6666 O   0  0  0  0  0  0  0  0  0  0  0  0
  2  1  1  6
  2  3  1  0
  4  5  1  0
  4  3  1  0
  5  6  2  0
  7  2  1  0
  7 10  1  0
  8  7  2  0
  9  5  1  0
 11 10  1  0
 12 13  1  0
 11 12  1  1
 13 17  1  0
 13 14  2  0
 14 15  1  0
 16 15  1  0
 17 16  2  0
 18 11  1  0
 19 18  2  0
 21 20  1  6
 21 23  1  0
 22 21  1  0
 23 24  1  6
 23 25  1  0
 24 18  1  0
 25 26  1  0
 27 25  2  0
M  END
$$$$
