EHV.pdb
     RDKit          3D

 27 27  0  0  1  0  0  0  0  0999 V2000
   10.8754  -16.5424   20.2412 N   0  0  0  0  0  0  0  0  0  0  0  0
   11.3794  -17.4068   21.3073 C   0  0  1  0  0  0  0  0  0  0  0  0
   12.8152  -17.0713   21.5581 C   0  0  0  0  0  0  0  0  0  0  0  0
   13.0728  -15.6271   21.8940 C   0  0  0  0  0  0  0  0  0  0  0  0
   14.5088  -15.4225   22.2706 C   0  0  0  0  0  0  0  0  0  0  0  0
   15.3308  -14.8257   21.5287 O   0  0  0  0  0  0  0  0  0  0  0  0
   10.5846  -17.1861   22.5521 C   0  0  0  0  0  0  0  0  0  0  0  0
    9.9980  -16.1201   22.8422 O   0  0  0  0  0  0  0  0  0  0  0  0
   15.0230  -15.8919   23.4893 O   0  0  0  0  0  0  0  0  0  0  0  0
   10.4451  -18.2356   23.5292 N   0  0  0  0  0  0  0  0  0  0  0  0
    9.5733  -18.0842   24.6746 C   0  0  1  0  0  0  0  0  0  0  0  0
    9.2071  -19.4276   25.2154 C   0  0  0  0  0  0  0  0  0  0  0  0
    8.2074  -19.3436   26.3120 C   0  0  0  0  0  0  0  0  0  0  0  0
    7.5557  -18.2636   26.8506 C   0  0  0  0  0  0  0  0  0  0  0  0
    6.7319  -18.6750   27.8367 N   0  0  0  0  0  0  0  0  0  0  0  0
    6.8501  -19.9943   27.9317 C   0  0  0  0  0  0  0  0  0  0  0  0
    7.7357  -20.4125   27.0194 N   0  0  0  0  0  0  0  0  0  0  0  0
   10.1872  -17.1718   25.6262 C   0  0  0  0  0  0  0  0  0  0  0  0
   11.4347  -17.1762   25.7708 O   0  0  0  0  0  0  0  0  0  0  0  0
    8.7219  -13.4811   26.5079 C   0  0  0  0  0  0  0  0  0  0  0  0
    9.2467  -14.2007   27.7171 C   0  0  2  0  0  0  0  0  0  0  0  0
    9.9086  -13.2403   28.6731 C   0  0  0  0  0  0  0  0  0  0  0  0
   10.1434  -15.3669   27.3593 C   0  0  2  0  0  0  0  0  0  0  0  0
    9.4665  -16.2436   26.4335 N   0  0  0  0  0  0  0  0  0  0  0  0
   10.5300  -16.0587   28.6071 C   0  0  0  0  0  0  0  0  0  0  0  0
   10.0695  -17.3264   28.9272 O   0  0  0  0  0  0  0  0  0  0  0  0
   11.3110  -15.5159   29.4518 O   0  0  0  0  0  0  0  0  0  0  0  0
  2  1  1  6
  2  3  1  0
  4  5  1  0
  4  3  1  0
  5  6  2  0
  7  2  1  0
  7 10  1  0
  8  7  2  0
  9  5  1  0
 11 10  1  0
 12 13  1  0
 11 12  1  1
 13 17  1  0
 13 14  2  0
 14 15  1  0
 16 15  1  0
 17 16  2  0
 18 11  1  0
 19 18  2  0
 21 20  1  6
 21 23  1  0
 22 21  1  0
 23 24  1  6
 23 25  1  0
 24 18  1  0
 25 26  1  0
 27 25  2  0
M  END
$$$$
