EHV.pdb
     RDKit          3D

 27 27  0  0  1  0  0  0  0  0999 V2000
    8.2498  -18.4842   19.0964 N   0  0  0  0  0  0  0  0  0  0  0  0
    9.0474  -17.6156   19.9609 C   0  0  1  0  0  0  0  0  0  0  0  0
    9.2545  -16.3074   19.2662 C   0  0  0  0  0  0  0  0  0  0  0  0
    9.9532  -16.4064   17.9370 C   0  0  0  0  0  0  0  0  0  0  0  0
   11.3611  -16.8873   18.1170 C   0  0  0  0  0  0  0  0  0  0  0  0
   11.6680  -18.1069   18.1412 O   0  0  0  0  0  0  0  0  0  0  0  0
    8.3295  -17.3938   21.2513 C   0  0  0  0  0  0  0  0  0  0  0  0
    7.1351  -17.0352   21.3488 O   0  0  0  0  0  0  0  0  0  0  0  0
   12.4300  -15.9908   18.2705 O   0  0  0  0  0  0  0  0  0  0  0  0
    9.0042  -17.5891   22.5092 N   0  0  0  0  0  0  0  0  0  0  0  0
    8.2832  -17.5424   23.7634 C   0  0  1  0  0  0  0  0  0  0  0  0
    8.5329  -18.7939   24.5397 C   0  0  0  0  0  0  0  0  0  0  0  0
    7.9142  -18.7555   25.8906 C   0  0  0  0  0  0  0  0  0  0  0  0
    7.0785  -17.8341   26.4684 C   0  0  0  0  0  0  0  0  0  0  0  0
    6.7712  -18.2227   27.7232 N   0  0  0  0  0  0  0  0  0  0  0  0
    7.3964  -19.3723   27.9498 C   0  0  0  0  0  0  0  0  0  0  0  0
    8.0895  -19.7068   26.8548 N   0  0  0  0  0  0  0  0  0  0  0  0
    8.6028  -16.3028   24.4533 C   0  0  0  0  0  0  0  0  0  0  0  0
    9.7784  -15.8625   24.4214 O   0  0  0  0  0  0  0  0  0  0  0  0
    6.1333  -13.0920   24.6760 C   0  0  0  0  0  0  0  0  0  0  0  0
    6.8195  -13.3926   25.9776 C   0  0  2  0  0  0  0  0  0  0  0  0
    7.1308  -12.1235   26.7305 C   0  0  0  0  0  0  0  0  0  0  0  0
    8.0384  -14.2738   25.8054 C   0  0  2  0  0  0  0  0  0  0  0  0
    7.6612  -15.5218   25.1857 N   0  0  0  0  0  0  0  0  0  0  0  0
    8.6629  -14.4711   27.1306 C   0  0  0  0  0  0  0  0  0  0  0  0
    9.5067  -13.5311   27.7017 O   0  0  0  0  0  0  0  0  0  0  0  0
    8.4517  -15.5233   27.8134 O   0  0  0  0  0  0  0  0  0  0  0  0
  2  1  1  6
  2  3  1  0
  4  5  1  0
  4  3  1  0
  5  6  2  0
  7  2  1  0
  7 10  1  0
  8  7  2  0
  9  5  1  0
 11 10  1  0
 12 13  1  0
 11 12  1  1
 13 17  1  0
 13 14  2  0
 14 15  1  0
 16 15  1  0
 17 16  2  0
 18 11  1  0
 19 18  2  0
 21 20  1  6
 21 23  1  0
 22 21  1  0
 23 24  1  1
 23 25  1  0
 24 18  1  0
 25 26  1  0
 27 25  2  0
M  END
$$$$
