EHV.pdb
     RDKit          3D

 27 27  0  0  1  0  0  0  0  0999 V2000
    8.3200  -17.7000   19.5505 N   0  0  0  0  0  0  0  0  0  0  0  0
    8.7111  -17.8448   20.9519 C   0  0  1  0  0  0  0  0  0  0  0  0
   10.1836  -18.0992   21.0149 C   0  0  0  0  0  0  0  0  0  0  0  0
   10.7896  -18.5989   19.7312 C   0  0  0  0  0  0  0  0  0  0  0  0
   12.2502  -18.2684   19.6751 C   0  0  0  0  0  0  0  0  0  0  0  0
   13.0747  -18.6705   20.5357 O   0  0  0  0  0  0  0  0  0  0  0  0
    8.3827  -16.5936   21.6978 C   0  0  0  0  0  0  0  0  0  0  0  0
    9.1170  -15.5822   21.7493 O   0  0  0  0  0  0  0  0  0  0  0  0
   12.7864  -17.4807   18.6445 O   0  0  0  0  0  0  0  0  0  0  0  0
    7.1478  -16.4792   22.4312 N   0  0  0  0  0  0  0  0  0  0  0  0
    7.0841  -16.7781   23.8459 C   0  0  1  0  0  0  0  0  0  0  0  0
    7.5268  -18.1839   24.0885 C   0  0  0  0  0  0  0  0  0  0  0  0
    7.6032  -18.5120   25.5361 C   0  0  0  0  0  0  0  0  0  0  0  0
    7.3372  -17.7484   26.6440 C   0  0  0  0  0  0  0  0  0  0  0  0
    7.5479  -18.4770   27.7597 N   0  0  0  0  0  0  0  0  0  0  0  0
    7.9419  -19.6865   27.3786 C   0  0  0  0  0  0  0  0  0  0  0  0
    7.9802  -19.7237   26.0412 N   0  0  0  0  0  0  0  0  0  0  0  0
    7.8096  -15.7565   24.5842 C   0  0  0  0  0  0  0  0  0  0  0  0
    9.0513  -15.6477   24.4317 O   0  0  0  0  0  0  0  0  0  0  0  0
    5.9318  -12.8283   27.2011 C   0  0  0  0  0  0  0  0  0  0  0  0
    7.1807  -12.5928   26.4010 C   0  0  2  0  0  0  0  0  0  0  0  0
    6.8662  -11.9001   25.0988 C   0  0  0  0  0  0  0  0  0  0  0  0
    7.9927  -13.8548   26.2007 C   0  0  2  0  0  0  0  0  0  0  0  0
    7.2077  -14.8396   25.4951 N   0  0  0  0  0  0  0  0  0  0  0  0
    8.4406  -14.3370   27.5242 C   0  0  0  0  0  0  0  0  0  0  0  0
    9.4281  -13.6939   28.2542 O   0  0  0  0  0  0  0  0  0  0  0  0
    7.9344  -15.3746   28.0583 O   0  0  0  0  0  0  0  0  0  0  0  0
  2  1  1  6
  2  3  1  0
  4  5  1  0
  4  3  1  0
  5  6  2  0
  7  2  1  0
  7 10  1  0
  8  7  2  0
  9  5  1  0
 11 10  1  0
 12 13  1  0
 11 12  1  6
 13 17  1  0
 13 14  2  0
 14 15  1  0
 16 15  1  0
 17 16  2  0
 18 11  1  0
 19 18  2  0
 21 20  1  6
 21 23  1  0
 22 21  1  0
 23 24  1  1
 23 25  1  0
 24 18  1  0
 25 26  1  0
 27 25  2  0
M  END
$$$$
