EHV.pdb
     RDKit          3D

 27 27  0  0  1  0  0  0  0  0999 V2000
   10.0585  -14.9220   18.8953 N   0  0  0  0  0  0  0  0  0  0  0  0
   10.7604  -15.3249   20.1129 C   0  0  1  0  0  0  0  0  0  0  0  0
   11.9230  -14.4075   20.3220 C   0  0  0  0  0  0  0  0  0  0  0  0
   13.0493  -14.5879   19.3402 C   0  0  0  0  0  0  0  0  0  0  0  0
   14.3728  -14.3953   20.0163 C   0  0  0  0  0  0  0  0  0  0  0  0
   14.4822  -14.1472   21.2446 O   0  0  0  0  0  0  0  0  0  0  0  0
    9.8332  -15.2387   21.2802 C   0  0  0  0  0  0  0  0  0  0  0  0
    8.9860  -14.3343   21.4509 O   0  0  0  0  0  0  0  0  0  0  0  0
   15.5804  -14.4824   19.3062 O   0  0  0  0  0  0  0  0  0  0  0  0
    9.8664  -16.2366   22.3189 N   0  0  0  0  0  0  0  0  0  0  0  0
    8.9330  -16.2012   23.4245 C   0  0  1  0  0  0  0  0  0  0  0  0
    8.1612  -17.4789   23.4789 C   0  0  0  0  0  0  0  0  0  0  0  0
    7.1100  -17.5509   22.4306 C   0  0  0  0  0  0  0  0  0  0  0  0
    6.6916  -16.6197   21.5146 C   0  0  0  0  0  0  0  0  0  0  0  0
    5.7006  -17.1376   20.7598 N   0  0  0  0  0  0  0  0  0  0  0  0
    5.4845  -18.3784   21.1808 C   0  0  0  0  0  0  0  0  0  0  0  0
    6.3262  -18.6427   22.1875 N   0  0  0  0  0  0  0  0  0  0  0  0
    9.6459  -15.8476   24.6417 C   0  0  0  0  0  0  0  0  0  0  0  0
   10.8687  -16.1153   24.7422 O   0  0  0  0  0  0  0  0  0  0  0  0
    9.0628  -12.5944   26.9377 C   0  0  0  0  0  0  0  0  0  0  0  0
    9.1897  -13.8412   27.7653 C   0  0  2  0  0  0  0  0  0  0  0  0
    9.9329  -13.5654   29.0483 C   0  0  0  0  0  0  0  0  0  0  0  0
    9.7859  -14.9978   26.9915 C   0  0  2  0  0  0  0  0  0  0  0  0
    9.0519  -15.2014   25.7653 N   0  0  0  0  0  0  0  0  0  0  0  0
    9.7741  -16.1951   27.8583 C   0  0  0  0  0  0  0  0  0  0  0  0
   10.7550  -16.4343   28.8082 O   0  0  0  0  0  0  0  0  0  0  0  0
    8.8536  -17.0685   27.7706 O   0  0  0  0  0  0  0  0  0  0  0  0
  2  1  1  6
  2  3  1  0
  4  5  1  0
  4  3  1  0
  5  6  2  0
  7  2  1  0
  7 10  1  0
  8  7  2  0
  9  5  1  0
 11 10  1  0
 12 13  1  0
 11 12  1  1
 13 17  1  0
 13 14  2  0
 14 15  1  0
 16 15  1  0
 17 16  2  0
 18 11  1  0
 19 18  2  0
 21 20  1  6
 21 23  1  0
 22 21  1  0
 23 24  1  6
 23 25  1  0
 24 18  1  0
 25 26  1  0
 27 25  2  0
M  END
$$$$
