EHV.pdb
     RDKit          3D

 27 27  0  0  1  0  0  0  0  0999 V2000
    8.2890  -12.8170   19.1864 N   0  0  0  0  0  0  0  0  0  0  0  0
    8.3401  -14.2586   19.4249 C   0  0  1  0  0  0  0  0  0  0  0  0
    9.7299  -14.7404   19.1541 C   0  0  0  0  0  0  0  0  0  0  0  0
   10.8153  -13.7658   19.5243 C   0  0  0  0  0  0  0  0  0  0  0  0
   12.1664  -14.3559   19.2560 C   0  0  0  0  0  0  0  0  0  0  0  0
   12.3271  -15.4442   18.6461 O   0  0  0  0  0  0  0  0  0  0  0  0
    7.9731  -14.5473   20.8432 C   0  0  0  0  0  0  0  0  0  0  0  0
    7.7069  -13.6765   21.7009 O   0  0  0  0  0  0  0  0  0  0  0  0
   13.3437  -13.7178   19.6764 O   0  0  0  0  0  0  0  0  0  0  0  0
    7.9034  -15.9046   21.3214 N   0  0  0  0  0  0  0  0  0  0  0  0
    7.3994  -16.2102   22.6433 C   0  0  1  0  0  0  0  0  0  0  0  0
    7.3763  -17.6895   22.8487 C   0  0  0  0  0  0  0  0  0  0  0  0
    6.8705  -18.0669   24.1943 C   0  0  0  0  0  0  0  0  0  0  0  0
    6.4635  -17.2908   25.2495 C   0  0  0  0  0  0  0  0  0  0  0  0
    6.0828  -18.0808   26.2748 N   0  0  0  0  0  0  0  0  0  0  0  0
    6.2411  -19.3414   25.8881 C   0  0  0  0  0  0  0  0  0  0  0  0
    6.7151  -19.3498   24.6363 N   0  0  0  0  0  0  0  0  0  0  0  0
    8.1527  -15.4524   23.6298 C   0  0  0  0  0  0  0  0  0  0  0  0
    8.9116  -14.5264   23.2508 O   0  0  0  0  0  0  0  0  0  0  0  0
    6.5792  -13.4486   26.4031 C   0  0  0  0  0  0  0  0  0  0  0  0
    7.9842  -13.4114   25.8740 C   0  0  2  0  0  0  0  0  0  0  0  0
    8.0207  -12.8481   24.4755 C   0  0  0  0  0  0  0  0  0  0  0  0
    8.6815  -14.7515   25.9734 C   0  0  2  0  0  0  0  0  0  0  0  0
    8.0984  -15.6817   25.0360 N   0  0  0  0  0  0  0  0  0  0  0  0
    8.5838  -15.2263   27.3699 C   0  0  0  0  0  0  0  0  0  0  0  0
    9.3060  -14.6493   28.4030 O   0  0  0  0  0  0  0  0  0  0  0  0
    7.8247  -16.1956   27.6894 O   0  0  0  0  0  0  0  0  0  0  0  0
  2  1  1  1
  2  3  1  0
  4  5  1  0
  4  3  1  0
  5  6  2  0
  7  2  1  0
  7 10  1  0
  8  7  2  0
  9  5  1  0
 11 10  1  0
 12 13  1  0
 11 12  1  1
 13 17  1  0
 13 14  2  0
 14 15  1  0
 16 15  1  0
 17 16  2  0
 18 11  1  0
 19 18  2  0
 21 20  1  6
 21 23  1  0
 22 21  1  0
 23 24  1  6
 23 25  1  0
 24 18  1  0
 25 26  1  0
 27 25  2  0
M  END
$$$$
