EHV.pdb
     RDKit          3D

 27 27  0  0  1  0  0  0  0  0999 V2000
   11.9608  -17.7685   14.8261 N   0  0  0  0  0  0  0  0  0  0  0  0
   11.4894  -18.4504   16.0305 C   0  0  1  0  0  0  0  0  0  0  0  0
   12.6504  -18.6551   16.9510 C   0  0  0  0  0  0  0  0  0  0  0  0
   13.6875  -19.6225   16.4474 C   0  0  0  0  0  0  0  0  0  0  0  0
   14.7819  -19.7935   17.4568 C   0  0  0  0  0  0  0  0  0  0  0  0
   15.9136  -20.2584   17.1646 O   0  0  0  0  0  0  0  0  0  0  0  0
   10.4504  -17.6176   16.7062 C   0  0  0  0  0  0  0  0  0  0  0  0
   10.3361  -16.3787   16.5763 O   0  0  0  0  0  0  0  0  0  0  0  0
   14.6021  -19.4391   18.8029 O   0  0  0  0  0  0  0  0  0  0  0  0
    9.4811  -18.2231   17.5835 N   0  0  0  0  0  0  0  0  0  0  0  0
    8.3929  -17.4525   18.1463 C   0  0  1  0  0  0  0  0  0  0  0  0
    7.2247  -18.3439   18.4143 C   0  0  0  0  0  0  0  0  0  0  0  0
    6.4315  -18.6222   17.1886 C   0  0  0  0  0  0  0  0  0  0  0  0
    6.5750  -18.1633   15.9041 C   0  0  0  0  0  0  0  0  0  0  0  0
    5.6119  -18.6929   15.1217 N   0  0  0  0  0  0  0  0  0  0  0  0
    4.8623  -19.4780   15.8868 C   0  0  0  0  0  0  0  0  0  0  0  0
    5.3435  -19.4461   17.1355 N   0  0  0  0  0  0  0  0  0  0  0  0
    8.8814  -16.6990   19.2903 C   0  0  0  0  0  0  0  0  0  0  0  0
    9.9254  -17.0749   19.8784 O   0  0  0  0  0  0  0  0  0  0  0  0
    6.6311  -13.6094   21.4286 C   0  0  0  0  0  0  0  0  0  0  0  0
    8.1033  -13.5141   21.1475 C   0  0  2  0  0  0  0  0  0  0  0  0
    8.3716  -12.6116   19.9694 C   0  0  0  0  0  0  0  0  0  0  0  0
    8.7578  -14.8706   20.9947 C   0  0  2  0  0  0  0  0  0  0  0  0
    8.2528  -15.5318   19.8150 N   0  0  0  0  0  0  0  0  0  0  0  0
    8.5089  -15.6506   22.2254 C   0  0  0  0  0  0  0  0  0  0  0  0
    7.6512  -16.7393   22.2544 O   0  0  0  0  0  0  0  0  0  0  0  0
    9.0767  -15.3546   23.3245 O   0  0  0  0  0  0  0  0  0  0  0  0
  2  1  1  6
  2  3  1  0
  4  5  1  0
  4  3  1  0
  5  6  2  0
  7  2  1  0
  7 10  1  0
  8  7  2  0
  9  5  1  0
 11 10  1  0
 12 13  1  0
 11 12  1  1
 13 17  1  0
 13 14  2  0
 14 15  1  0
 16 15  1  0
 17 16  2  0
 18 11  1  0
 19 18  2  0
 21 20  1  6
 21 23  1  0
 22 21  1  0
 23 24  1  6
 23 25  1  0
 24 18  1  0
 25 26  1  0
 27 25  2  0
M  END
$$$$
