EHV.pdb
     RDKit          3D

 27 27  0  0  1  0  0  0  0  0999 V2000
    9.1693  -18.4973   19.8766 N   0  0  0  0  0  0  0  0  0  0  0  0
    9.7774  -18.1240   21.1528 C   0  0  1  0  0  0  0  0  0  0  0  0
   10.8507  -17.1147   20.8954 C   0  0  0  0  0  0  0  0  0  0  0  0
   11.5680  -16.6332   22.1277 C   0  0  0  0  0  0  0  0  0  0  0  0
   13.0427  -16.5427   21.8768 C   0  0  0  0  0  0  0  0  0  0  0  0
   13.5596  -15.6468   21.1609 O   0  0  0  0  0  0  0  0  0  0  0  0
    8.7395  -17.5387   22.0526 C   0  0  0  0  0  0  0  0  0  0  0  0
    7.8524  -16.7356   21.6880 O   0  0  0  0  0  0  0  0  0  0  0  0
   13.9411  -17.4655   22.4346 O   0  0  0  0  0  0  0  0  0  0  0  0
    8.7027  -17.8823   23.4513 N   0  0  0  0  0  0  0  0  0  0  0  0
    7.6425  -17.4063   24.3140 C   0  0  1  0  0  0  0  0  0  0  0  0
    7.0609  -18.5481   25.0815 C   0  0  0  0  0  0  0  0  0  0  0  0
    6.2072  -19.4228   24.2359 C   0  0  0  0  0  0  0  0  0  0  0  0
    6.4594  -20.6472   23.6715 C   0  0  0  0  0  0  0  0  0  0  0  0
    5.3769  -21.0614   22.9811 N   0  0  0  0  0  0  0  0  0  0  0  0
    4.4450  -20.1225   23.0982 C   0  0  0  0  0  0  0  0  0  0  0  0
    4.9301  -19.1282   23.8516 N   0  0  0  0  0  0  0  0  0  0  0  0
    8.1390  -16.3000   25.1168 C   0  0  0  0  0  0  0  0  0  0  0  0
    9.3647  -16.2285   25.3806 O   0  0  0  0  0  0  0  0  0  0  0  0
    6.2796  -12.5682   25.2759 C   0  0  0  0  0  0  0  0  0  0  0  0
    6.8523  -13.0684   26.5710 C   0  0  2  0  0  0  0  0  0  0  0  0
    7.3634  -11.9265   27.4131 C   0  0  0  0  0  0  0  0  0  0  0  0
    7.8947  -14.1478   26.3705 C   0  0  2  0  0  0  0  0  0  0  0  0
    7.3228  -15.2572   25.6452 N   0  0  0  0  0  0  0  0  0  0  0  0
    8.4113  -14.5500   27.6958 C   0  0  0  0  0  0  0  0  0  0  0  0
    9.2825  -13.7563   28.4258 O   0  0  0  0  0  0  0  0  0  0  0  0
    8.0760  -15.6540   28.2314 O   0  0  0  0  0  0  0  0  0  0  0  0
  2  1  1  6
  2  3  1  0
  4  5  1  0
  4  3  1  0
  5  6  2  0
  7  2  1  0
  7 10  1  0
  8  7  2  0
  9  5  1  0
 11 10  1  0
 12 13  1  0
 11 12  1  1
 13 17  1  0
 13 14  2  0
 14 15  1  0
 16 15  1  0
 17 16  2  0
 18 11  1  0
 19 18  2  0
 21 20  1  6
 21 23  1  0
 22 21  1  0
 23 24  1  1
 23 25  1  0
 24 18  1  0
 25 26  1  0
 27 25  2  0
M  END
$$$$
