EHV.pdb
     RDKit          3D

 27 27  0  0  1  0  0  0  0  0999 V2000
    8.9267  -13.3595   18.6203 N   0  0  0  0  0  0  0  0  0  0  0  0
    9.2159  -14.6107   19.3193 C   0  0  1  0  0  0  0  0  0  0  0  0
   10.6727  -14.6458   19.6565 C   0  0  0  0  0  0  0  0  0  0  0  0
   11.4879  -13.5452   19.0328 C   0  0  0  0  0  0  0  0  0  0  0  0
   12.9030  -13.9922   18.8239 C   0  0  0  0  0  0  0  0  0  0  0  0
   13.4266  -14.0907   17.6844 O   0  0  0  0  0  0  0  0  0  0  0  0
    8.4060  -14.6864   20.5715 C   0  0  0  0  0  0  0  0  0  0  0  0
    7.7903  -13.7236   21.0802 O   0  0  0  0  0  0  0  0  0  0  0  0
   13.7339  -14.3304   19.9033 O   0  0  0  0  0  0  0  0  0  0  0  0
    8.2853  -15.9274   21.2933 N   0  0  0  0  0  0  0  0  0  0  0  0
    7.6522  -15.9813   22.5938 C   0  0  1  0  0  0  0  0  0  0  0  0
    7.2293  -17.3818   22.8952 C   0  0  0  0  0  0  0  0  0  0  0  0
    8.3865  -18.2994   23.0626 C   0  0  0  0  0  0  0  0  0  0  0  0
    9.7360  -18.0579   23.0201 C   0  0  0  0  0  0  0  0  0  0  0  0
   10.4105  -19.2075   23.2293 N   0  0  0  0  0  0  0  0  0  0  0  0
    9.5134  -20.1711   23.4033 C   0  0  0  0  0  0  0  0  0  0  0  0
    8.2887  -19.6399   23.3058 N   0  0  0  0  0  0  0  0  0  0  0  0
    8.5277  -15.3656   23.5782 C   0  0  0  0  0  0  0  0  0  0  0  0
    9.3844  -14.5266   23.2053 O   0  0  0  0  0  0  0  0  0  0  0  0
    7.3381  -13.0155   24.4577 C   0  0  0  0  0  0  0  0  0  0  0  0
    7.4195  -13.6429   25.8197 C   0  0  2  0  0  0  0  0  0  0  0  0
    7.4015  -12.5920   26.9012 C   0  0  0  0  0  0  0  0  0  0  0  0
    8.5921  -14.5907   25.9571 C   0  0  2  0  0  0  0  0  0  0  0  0
    8.4917  -15.6449   24.9760 N   0  0  0  0  0  0  0  0  0  0  0  0
    8.6123  -15.1112   27.3404 C   0  0  0  0  0  0  0  0  0  0  0  0
    9.5517  -14.7027   28.2744 O   0  0  0  0  0  0  0  0  0  0  0  0
    7.7594  -15.9662   27.7400 O   0  0  0  0  0  0  0  0  0  0  0  0
  2  1  1  1
  2  3  1  0
  4  5  1  0
  4  3  1  0
  5  6  2  0
  7  2  1  0
  7 10  1  0
  8  7  2  0
  9  5  1  0
 11 10  1  0
 12 13  1  0
 11 12  1  1
 13 17  1  0
 13 14  2  0
 14 15  1  0
 16 15  1  0
 17 16  2  0
 18 11  1  0
 19 18  2  0
 21 20  1  6
 21 23  1  0
 22 21  1  0
 23 24  1  6
 23 25  1  0
 24 18  1  0
 25 26  1  0
 27 25  2  0
M  END
$$$$
