EHV.pdb
     RDKit          3D

 27 27  0  0  1  0  0  0  0  0999 V2000
    9.2434  -18.6227   20.4235 N   0  0  0  0  0  0  0  0  0  0  0  0
    8.8660  -17.2101   20.4320 C   0  0  1  0  0  0  0  0  0  0  0  0
    8.0591  -16.9220   19.2060 C   0  0  0  0  0  0  0  0  0  0  0  0
    8.0898  -18.0084   18.1650 C   0  0  0  0  0  0  0  0  0  0  0  0
    9.2784  -17.8436   17.2672 C   0  0  0  0  0  0  0  0  0  0  0  0
   10.4105  -18.3196   17.5392 O   0  0  0  0  0  0  0  0  0  0  0  0
    8.0560  -16.9130   21.6507 C   0  0  0  0  0  0  0  0  0  0  0  0
    6.8862  -16.4699   21.6372 O   0  0  0  0  0  0  0  0  0  0  0  0
    9.1927  -17.1390   16.0563 O   0  0  0  0  0  0  0  0  0  0  0  0
    8.6027  -17.1297   22.9660 N   0  0  0  0  0  0  0  0  0  0  0  0
    7.7877  -16.9778   24.1524 C   0  0  1  0  0  0  0  0  0  0  0  0
    7.8160  -18.2386   24.9529 C   0  0  0  0  0  0  0  0  0  0  0  0
    6.9536  -19.2994   24.3698 C   0  0  0  0  0  0  0  0  0  0  0  0
    6.1110  -19.2762   23.2878 C   0  0  0  0  0  0  0  0  0  0  0  0
    5.5321  -20.4853   23.1363 N   0  0  0  0  0  0  0  0  0  0  0  0
    5.9925  -21.2726   24.1016 C   0  0  0  0  0  0  0  0  0  0  0  0
    6.8505  -20.5725   24.8535 N   0  0  0  0  0  0  0  0  0  0  0  0
    8.1950  -15.7757   24.8623 C   0  0  0  0  0  0  0  0  0  0  0  0
    9.3905  -15.3962   24.8006 O   0  0  0  0  0  0  0  0  0  0  0  0
    5.9886  -12.3791   25.2504 C   0  0  0  0  0  0  0  0  0  0  0  0
    6.6363  -12.8187   26.5321 C   0  0  2  0  0  0  0  0  0  0  0  0
    7.0295  -11.6311   27.3743 C   0  0  0  0  0  0  0  0  0  0  0  0
    7.7904  -13.7722   26.3063 C   0  0  2  0  0  0  0  0  0  0  0  0
    7.3210  -14.9674   25.6468 N   0  0  0  0  0  0  0  0  0  0  0  0
    8.4193  -14.0617   27.6123 C   0  0  0  0  0  0  0  0  0  0  0  0
    9.3052  -13.1861   28.2208 O   0  0  0  0  0  0  0  0  0  0  0  0
    8.1729  -15.1385   28.2430 O   0  0  0  0  0  0  0  0  0  0  0  0
  2  1  1  1
  2  3  1  0
  4  5  1  0
  4  3  1  0
  5  6  2  0
  7  2  1  0
  7 10  1  0
  8  7  2  0
  9  5  1  0
 11 10  1  0
 12 13  1  0
 11 12  1  1
 13 17  1  0
 13 14  2  0
 14 15  1  0
 16 15  1  0
 17 16  2  0
 18 11  1  0
 19 18  2  0
 21 20  1  6
 21 23  1  0
 22 21  1  0
 23 24  1  1
 23 25  1  0
 24 18  1  0
 25 26  1  0
 27 25  2  0
M  END
$$$$
