EHV.pdb
     RDKit          3D

 27 27  0  0  1  0  0  0  0  0999 V2000
    9.5538  -15.4894   18.6353 N   0  0  0  0  0  0  0  0  0  0  0  0
   10.3575  -15.8765   19.7937 C   0  0  1  0  0  0  0  0  0  0  0  0
   11.4946  -14.9146   19.9312 C   0  0  0  0  0  0  0  0  0  0  0  0
   12.4549  -15.2333   21.0454 C   0  0  0  0  0  0  0  0  0  0  0  0
   13.5390  -14.2011   21.1171 C   0  0  0  0  0  0  0  0  0  0  0  0
   13.9342  -13.5553   20.1127 O   0  0  0  0  0  0  0  0  0  0  0  0
    9.5145  -15.8409   21.0257 C   0  0  0  0  0  0  0  0  0  0  0  0
    8.6097  -15.0053   21.2450 O   0  0  0  0  0  0  0  0  0  0  0  0
   14.1822  -13.8936   22.3262 O   0  0  0  0  0  0  0  0  0  0  0  0
    9.7069  -16.8095   22.0746 N   0  0  0  0  0  0  0  0  0  0  0  0
    8.7785  -16.9138   23.1801 C   0  0  1  0  0  0  0  0  0  0  0  0
    8.7976  -18.3023   23.7303 C   0  0  0  0  0  0  0  0  0  0  0  0
    7.9234  -18.4512   24.9231 C   0  0  0  0  0  0  0  0  0  0  0  0
    7.1489  -17.5346   25.5873 C   0  0  0  0  0  0  0  0  0  0  0  0
    6.5245  -18.1324   26.6231 N   0  0  0  0  0  0  0  0  0  0  0  0
    6.8892  -19.4094   26.6265 C   0  0  0  0  0  0  0  0  0  0  0  0
    7.7323  -19.6174   25.6079 N   0  0  0  0  0  0  0  0  0  0  0  0
    9.0553  -15.8561   24.1390 C   0  0  0  0  0  0  0  0  0  0  0  0
   10.2434  -15.5094   24.3517 O   0  0  0  0  0  0  0  0  0  0  0  0
    6.7978  -12.5416   24.8514 C   0  0  0  0  0  0  0  0  0  0  0  0
    7.2444  -13.2338   26.1072 C   0  0  2  0  0  0  0  0  0  0  0  0
    7.5210  -12.2373   27.2049 C   0  0  0  0  0  0  0  0  0  0  0  0
    8.4093  -14.1723   25.8742 C   0  0  2  0  0  0  0  0  0  0  0  0
    8.0572  -15.1584   24.8805 N   0  0  0  0  0  0  0  0  0  0  0  0
    8.7807  -14.7855   27.1669 C   0  0  0  0  0  0  0  0  0  0  0  0
    9.6374  -14.1666   28.0640 O   0  0  0  0  0  0  0  0  0  0  0  0
    8.3258  -15.9205   27.5177 O   0  0  0  0  0  0  0  0  0  0  0  0
  2  1  1  6
  2  3  1  0
  4  5  1  0
  4  3  1  0
  5  6  2  0
  7  2  1  0
  7 10  1  0
  8  7  2  0
  9  5  1  0
 11 10  1  0
 12 13  1  0
 11 12  1  1
 13 17  1  0
 13 14  2  0
 14 15  1  0
 16 15  1  0
 17 16  2  0
 18 11  1  0
 19 18  2  0
 21 20  1  6
 21 23  1  0
 22 21  1  0
 23 24  1  6
 23 25  1  0
 24 18  1  0
 25 26  1  0
 27 25  2  0
M  END
$$$$
