EHV.pdb
     RDKit          3D

 27 27  0  0  1  0  0  0  0  0999 V2000
   12.1345  -16.5782   19.9918 N   0  0  0  0  0  0  0  0  0  0  0  0
   12.0495  -16.5037   21.4496 C   0  0  1  0  0  0  0  0  0  0  0  0
   13.4018  -16.1658   21.9920 C   0  0  0  0  0  0  0  0  0  0  0  0
   14.1005  -17.3024   22.6884 C   0  0  0  0  0  0  0  0  0  0  0  0
   14.9123  -16.7940   23.8410 C   0  0  0  0  0  0  0  0  0  0  0  0
   14.6420  -17.0662   25.0389 O   0  0  0  0  0  0  0  0  0  0  0  0
   11.0696  -15.4480   21.8433 C   0  0  0  0  0  0  0  0  0  0  0  0
   11.2452  -14.2195   21.6855 O   0  0  0  0  0  0  0  0  0  0  0  0
   16.0347  -15.9745   23.6446 O   0  0  0  0  0  0  0  0  0  0  0  0
    9.8138  -15.8034   22.4535 N   0  0  0  0  0  0  0  0  0  0  0  0
    8.8597  -14.7909   22.8528 C   0  0  1  0  0  0  0  0  0  0  0  0
    7.5538  -15.0246   22.1665 C   0  0  0  0  0  0  0  0  0  0  0  0
    7.5500  -14.5197   20.7686 C   0  0  0  0  0  0  0  0  0  0  0  0
    8.5352  -13.9139   20.0313 C   0  0  0  0  0  0  0  0  0  0  0  0
    8.0692  -13.6277   18.7980 N   0  0  0  0  0  0  0  0  0  0  0  0
    6.8084  -14.0410   18.7413 C   0  0  0  0  0  0  0  0  0  0  0  0
    6.4805  -14.5810   19.9213 N   0  0  0  0  0  0  0  0  0  0  0  0
    8.8028  -14.7329   24.3048 C   0  0  0  0  0  0  0  0  0  0  0  0
    9.3791  -15.6195   24.9823 O   0  0  0  0  0  0  0  0  0  0  0  0
    5.8927  -12.4413   26.5124 C   0  0  0  0  0  0  0  0  0  0  0  0
    7.3071  -12.5535   27.0046 C   0  0  2  0  0  0  0  0  0  0  0  0
    8.0800  -11.2898   26.7217 C   0  0  0  0  0  0  0  0  0  0  0  0
    8.0110  -13.7882   26.4829 C   0  0  2  0  0  0  0  0  0  0  0  0
    8.1255  -13.7202   25.0454 N   0  0  0  0  0  0  0  0  0  0  0  0
    7.2584  -14.9790   26.9305 C   0  0  0  0  0  0  0  0  0  0  0  0
    7.4432  -15.5480   28.1811 O   0  0  0  0  0  0  0  0  0  0  0  0
    6.3984  -15.5409   26.1804 O   0  0  0  0  0  0  0  0  0  0  0  0
  2  1  1  6
  2  3  1  0
  4  5  1  0
  4  3  1  0
  5  6  2  0
  7  2  1  0
  7 10  1  0
  8  7  2  0
  9  5  1  0
 11 10  1  0
 12 13  1  0
 11 12  1  6
 13 17  1  0
 13 14  2  0
 14 15  1  0
 16 15  1  0
 17 16  2  0
 18 11  1  0
 19 18  2  0
 21 20  1  6
 21 23  1  0
 22 21  1  0
 23 24  1  6
 23 25  1  0
 24 18  1  0
 25 26  1  0
 27 25  2  0
M  END
$$$$
