EHV.pdb
     RDKit          3D

 27 27  0  0  1  0  0  0  0  0999 V2000
   11.5019  -17.5865   20.1607 N   0  0  0  0  0  0  0  0  0  0  0  0
   12.0967  -17.6866   21.4926 C   0  0  1  0  0  0  0  0  0  0  0  0
   13.3258  -16.8352   21.5341 C   0  0  0  0  0  0  0  0  0  0  0  0
   14.6181  -17.6023   21.6145 C   0  0  0  0  0  0  0  0  0  0  0  0
   15.6510  -16.9886   20.7188 C   0  0  0  0  0  0  0  0  0  0  0  0
   16.8357  -16.7796   21.0861 O   0  0  0  0  0  0  0  0  0  0  0  0
   11.1194  -17.2122   22.5171 C   0  0  0  0  0  0  0  0  0  0  0  0
   10.5489  -16.0992   22.4949 O   0  0  0  0  0  0  0  0  0  0  0  0
   15.3492  -16.6079   19.4020 O   0  0  0  0  0  0  0  0  0  0  0  0
   10.7659  -18.0479   23.6362 N   0  0  0  0  0  0  0  0  0  0  0  0
    9.7488  -17.6440   24.5834 C   0  0  1  0  0  0  0  0  0  0  0  0
    8.8117  -18.7790   24.8374 C   0  0  0  0  0  0  0  0  0  0  0  0
    7.9543  -19.0800   23.6612 C   0  0  0  0  0  0  0  0  0  0  0  0
    7.1841  -18.2576   22.8790 C   0  0  0  0  0  0  0  0  0  0  0  0
    6.5769  -18.9829   21.9171 N   0  0  0  0  0  0  0  0  0  0  0  0
    6.9485  -20.2479   22.0759 C   0  0  0  0  0  0  0  0  0  0  0  0
    7.7788  -20.3229   23.1230 N   0  0  0  0  0  0  0  0  0  0  0  0
   10.3888  -17.0839   25.7631 C   0  0  0  0  0  0  0  0  0  0  0  0
   11.4712  -17.5730   26.1706 O   0  0  0  0  0  0  0  0  0  0  0  0
    8.5341  -14.2100   28.4802 C   0  0  0  0  0  0  0  0  0  0  0  0
    9.9883  -14.1660   28.1079 C   0  0  2  0  0  0  0  0  0  0  0  0
   10.2454  -13.1175   27.0548 C   0  0  0  0  0  0  0  0  0  0  0  0
   10.5318  -15.5230   27.7142 C   0  0  2  0  0  0  0  0  0  0  0  0
    9.8719  -15.9907   26.5185 N   0  0  0  0  0  0  0  0  0  0  0  0
   10.3506  -16.4472   28.8535 C   0  0  0  0  0  0  0  0  0  0  0  0
   11.1309  -16.3785   29.9973 O   0  0  0  0  0  0  0  0  0  0  0  0
    9.4611  -17.3562   28.8353 O   0  0  0  0  0  0  0  0  0  0  0  0
  2  1  1  6
  2  3  1  0
  4  5  1  0
  4  3  1  0
  5  6  2  0
  7  2  1  0
  7 10  1  0
  8  7  2  0
  9  5  1  0
 11 10  1  0
 12 13  1  0
 11 12  1  1
 13 17  1  0
 13 14  2  0
 14 15  1  0
 16 15  1  0
 17 16  2  0
 18 11  1  0
 19 18  2  0
 21 20  1  6
 21 23  1  0
 22 21  1  0
 23 24  1  6
 23 25  1  0
 24 18  1  0
 25 26  1  0
 27 25  2  0
M  END
$$$$
