YMF.pdb
     RDKit          3D

 32 33  0  0  1  0  0  0  0  0999 V2000
   29.3993  -17.1061  -17.9622 O   0  0  0  0  0  0  0  0  0  0  0  0
   28.6495  -17.6378  -16.9159 C   0  0  0  0  0  0  0  0  0  0  0  0
   27.4752  -18.3126  -17.1813 C   0  0  0  0  0  0  0  0  0  0  0  0
   26.7135  -18.8503  -16.1517 C   0  0  0  0  0  0  0  0  0  0  0  0
   27.0936  -18.7335  -14.8462 C   0  0  0  0  0  0  0  0  0  0  0  0
   26.3110  -19.2918  -13.7033 C   0  0  0  0  0  0  0  0  0  0  0  0
   27.0021  -20.5504  -13.2304 C   0  0  2  0  0  0  0  0  0  0  0  0
   27.0122  -21.5003  -14.3143 N   0  0  0  0  0  0  0  0  0  0  0  0
   26.4421  -21.0918  -11.9902 C   0  0  0  0  0  0  0  0  0  0  0  0
   25.4037  -21.8076  -12.0645 O   0  0  0  0  0  0  0  0  0  0  0  0
   28.2816  -18.0504  -14.5817 C   0  0  0  0  0  0  0  0  0  0  0  0
   29.0365  -17.5172  -15.6052 C   0  0  0  0  0  0  0  0  0  0  0  0
   27.7914  -18.7774   -5.7068 C   0  0  0  0  0  0  0  0  0  0  0  0
   27.3906  -20.5480   -5.5943 S   0  0  0  0  0  0  0  0  0  0  0  0
   26.2625  -21.0043   -6.9676 C   0  0  0  0  0  0  0  0  0  0  0  0
   27.0324  -20.8106   -8.2362 C   0  0  0  0  0  0  0  0  0  0  0  0
   26.2113  -21.0338   -9.4827 C   0  0  2  0  0  0  0  0  0  0  0  0
   26.9673  -20.8839  -10.6844 N   0  0  0  0  0  0  0  0  0  0  0  0
   25.0571  -20.1027   -9.4353 C   0  0  0  0  0  0  0  0  0  0  0  0
   25.1592  -18.8715   -9.6308 O   0  0  0  0  0  0  0  0  0  0  0  0
   23.7572  -20.6118   -9.1552 N   0  0  0  0  0  0  0  0  0  0  0  0
   22.6389  -20.2905  -10.0317 C   0  0  1  0  0  0  0  0  0  0  0  0
   22.8832  -20.7036  -11.4342 C   0  0  0  0  0  0  0  0  0  0  0  0
   21.7080  -20.3763  -12.2781 C   0  0  0  0  0  0  0  0  0  0  0  0
   21.6890  -20.7535  -13.6063 C   0  0  0  0  0  0  0  0  0  0  0  0
   20.6054  -20.4893  -14.4050 C   0  0  0  0  0  0  0  0  0  0  0  0
   19.4944  -19.8396  -13.9201 C   0  0  0  0  0  0  0  0  0  0  0  0
   19.5209  -19.4671  -12.5955 C   0  0  0  0  0  0  0  0  0  0  0  0
   20.5980  -19.7242  -11.7817 C   0  0  0  0  0  0  0  0  0  0  0  0
   21.4379  -20.9505   -9.4939 C   0  0  0  0  0  0  0  0  0  0  0  0
   20.2049  -20.2704   -9.5282 O   0  0  0  0  0  0  0  0  0  0  0  0
   21.4088  -22.1089   -8.9872 O   0  0  0  0  0  0  0  0  0  0  0  0
  2  1  1  0
  3  2  2  0
  4  3  1  0
  5 11  1  0
  5  4  2  0
  6  5  1  0
  7  6  1  0
  7  8  1  6
  9  7  1  0
  9 10  2  0
 11 12  2  0
 12  2  1  0
 13 14  1  0
 14 15  1  0
 15 16  1  0
 17 16  1  1
 17 19  1  0
 17 18  1  0
 18  9  1  0
 19 20  2  0
 21 22  1  0
 21 19  1  0
 22 30  1  0
 22 23  1  6
 24 23  1  0
 25 24  2  0
 26 25  1  0
 27 26  2  0
 27 28  1  0
 28 29  2  0
 29 24  1  0
 30 31  1  0
 32 30  2  0
M  END
$$$$
