YMF.pdb
     RDKit          3D

 32 33  0  0  1  0  0  0  0  0999 V2000
   27.7581  -13.2426  -17.6954 O   0  0  0  0  0  0  0  0  0  0  0  0
   27.3809  -14.4446  -17.1017 C   0  0  0  0  0  0  0  0  0  0  0  0
   27.0058  -15.5151  -17.8879 C   0  0  0  0  0  0  0  0  0  0  0  0
   26.6266  -16.7224  -17.3148 C   0  0  0  0  0  0  0  0  0  0  0  0
   26.6102  -16.8963  -15.9613 C   0  0  0  0  0  0  0  0  0  0  0  0
   26.2102  -18.1720  -15.2958 C   0  0  0  0  0  0  0  0  0  0  0  0
   27.4676  -18.9373  -14.9517 C   0  0  2  0  0  0  0  0  0  0  0  0
   28.1751  -19.2258  -16.1739 N   0  0  0  0  0  0  0  0  0  0  0  0
   27.2209  -20.1246  -14.1307 C   0  0  0  0  0  0  0  0  0  0  0  0
   26.8666  -21.1901  -14.7098 O   0  0  0  0  0  0  0  0  0  0  0  0
   26.9901  -15.8116  -15.1696 C   0  0  0  0  0  0  0  0  0  0  0  0
   27.3662  -14.6137  -15.7403 C   0  0  0  0  0  0  0  0  0  0  0  0
   28.3664  -21.8483   -7.8977 C   0  0  0  0  0  0  0  0  0  0  0  0
   29.6752  -21.9576   -9.1561 S   0  0  0  0  0  0  0  0  0  0  0  0
   28.9274  -21.8109  -10.8252 C   0  0  0  0  0  0  0  0  0  0  0  0
   27.4885  -21.4548  -10.6197 C   0  0  0  0  0  0  0  0  0  0  0  0
   26.7386  -21.1995  -11.9044 C   0  0  2  0  0  0  0  0  0  0  0  0
   27.3449  -20.1929  -12.7149 N   0  0  0  0  0  0  0  0  0  0  0  0
   25.3396  -20.8556  -11.5493 C   0  0  0  0  0  0  0  0  0  0  0  0
   25.0315  -19.8618  -10.8551 O   0  0  0  0  0  0  0  0  0  0  0  0
   24.2762  -21.6828  -12.0100 N   0  0  0  0  0  0  0  0  0  0  0  0
   22.8946  -21.3442  -11.6962 C   0  0  1  0  0  0  0  0  0  0  0  0
   22.5247  -19.9875  -12.1651 C   0  0  0  0  0  0  0  0  0  0  0  0
   22.3296  -19.9878  -13.6356 C   0  0  0  0  0  0  0  0  0  0  0  0
   23.4261  -20.0079  -14.4746 C   0  0  0  0  0  0  0  0  0  0  0  0
   23.2778  -20.0361  -15.8381 C   0  0  0  0  0  0  0  0  0  0  0  0
   22.0351  -20.0457  -16.4274 C   0  0  0  0  0  0  0  0  0  0  0  0
   20.9474  -20.0256  -15.5847 C   0  0  0  0  0  0  0  0  0  0  0  0
   21.0783  -19.9974  -14.2170 C   0  0  0  0  0  0  0  0  0  0  0  0
   22.0279  -22.3639  -12.3099 C   0  0  0  0  0  0  0  0  0  0  0  0
   20.6549  -22.3797  -11.9961 O   0  0  0  0  0  0  0  0  0  0  0  0
   22.4136  -23.2563  -13.1188 O   0  0  0  0  0  0  0  0  0  0  0  0
  2  1  1  0
  3  2  2  0
  4  3  1  0
  5 11  1  0
  5  4  2  0
  6  5  1  0
  7  6  1  0
  7  8  1  6
  9  7  1  0
  9 10  2  0
 11 12  2  0
 12  2  1  0
 13 14  1  0
 14 15  1  0
 15 16  1  0
 17 16  1  1
 17 19  1  0
 17 18  1  0
 18  9  1  0
 19 20  2  0
 21 22  1  0
 21 19  1  0
 22 30  1  0
 22 23  1  6
 24 23  1  0
 25 24  2  0
 26 25  1  0
 27 26  2  0
 27 28  1  0
 28 29  2  0
 29 24  1  0
 30 31  1  0
 32 30  2  0
M  END
$$$$
