YMF.pdb
     RDKit          3D

 32 33  0  0  1  0  0  0  0  0999 V2000
   27.2918  -16.9598  -21.3006 O   0  0  0  0  0  0  0  0  0  0  0  0
   26.5870  -17.6137  -20.2931 C   0  0  0  0  0  0  0  0  0  0  0  0
   26.0539  -18.8656  -20.5242 C   0  0  0  0  0  0  0  0  0  0  0  0
   25.3479  -19.5342  -19.5322 C   0  0  0  0  0  0  0  0  0  0  0  0
   25.1550  -18.9835  -18.2984 C   0  0  0  0  0  0  0  0  0  0  0  0
   24.4037  -19.6593  -17.1989 C   0  0  0  0  0  0  0  0  0  0  0  0
   25.3018  -20.7150  -16.5954 C   0  0  2  0  0  0  0  0  0  0  0  0
   25.5879  -21.7026  -17.6055 N   0  0  0  0  0  0  0  0  0  0  0  0
   24.7743  -21.2896  -15.3559 C   0  0  0  0  0  0  0  0  0  0  0  0
   23.7462  -22.0207  -15.4247 O   0  0  0  0  0  0  0  0  0  0  0  0
   25.6956  -17.7175  -18.0685 C   0  0  0  0  0  0  0  0  0  0  0  0
   26.3961  -17.0551  -19.0546 C   0  0  0  0  0  0  0  0  0  0  0  0
   24.9625  -20.9933   -7.3788 C   0  0  0  0  0  0  0  0  0  0  0  0
   25.8119  -20.7665   -8.9712 S   0  0  0  0  0  0  0  0  0  0  0  0
   24.6140  -21.0117  -10.3394 C   0  0  0  0  0  0  0  0  0  0  0  0
   25.3996  -20.9515  -11.6117 C   0  0  0  0  0  0  0  0  0  0  0  0
   24.5749  -21.2256  -12.8458 C   0  0  2  0  0  0  0  0  0  0  0  0
   25.3210  -21.0985  -14.0562 N   0  0  0  0  0  0  0  0  0  0  0  0
   23.4051  -20.3133  -12.8184 C   0  0  0  0  0  0  0  0  0  0  0  0
   23.4838  -19.0880  -13.0571 O   0  0  0  0  0  0  0  0  0  0  0  0
   22.1172  -20.8346  -12.5075 N   0  0  0  0  0  0  0  0  0  0  0  0
   20.9580  -19.9530  -12.4719 C   0  0  1  0  0  0  0  0  0  0  0  0
   20.2657  -19.8766  -13.7805 C   0  0  0  0  0  0  0  0  0  0  0  0
   19.6686  -21.1906  -14.1232 C   0  0  0  0  0  0  0  0  0  0  0  0
   20.3770  -22.0861  -14.8996 C   0  0  0  0  0  0  0  0  0  0  0  0
   19.8631  -23.3194  -15.2105 C   0  0  0  0  0  0  0  0  0  0  0  0
   18.6244  -23.7170  -14.7644 C   0  0  0  0  0  0  0  0  0  0  0  0
   17.9246  -22.8190  -13.9911 C   0  0  0  0  0  0  0  0  0  0  0  0
   18.4248  -21.5799  -13.6702 C   0  0  0  0  0  0  0  0  0  0  0  0
   20.0464  -20.4456  -11.4261 C   0  0  0  0  0  0  0  0  0  0  0  0
   18.9198  -19.6759  -11.0765 O   0  0  0  0  0  0  0  0  0  0  0  0
   20.1849  -21.5308  -10.7914 O   0  0  0  0  0  0  0  0  0  0  0  0
  2  1  1  0
  3  2  2  0
  4  3  1  0
  5 11  1  0
  5  4  2  0
  6  5  1  0
  7  6  1  0
  7  8  1  6
  9  7  1  0
  9 10  2  0
 11 12  2  0
 12  2  1  0
 13 14  1  0
 14 15  1  0
 15 16  1  0
 17 16  1  1
 17 19  1  0
 17 18  1  0
 18  9  1  0
 19 20  2  0
 21 22  1  0
 21 19  1  0
 22 30  1  0
 22 23  1  6
 24 23  1  0
 25 24  2  0
 26 25  1  0
 27 26  2  0
 27 28  1  0
 28 29  2  0
 29 24  1  0
 30 31  1  0
 32 30  2  0
M  END
$$$$
