YMF.pdb
     RDKit          3D

 32 33  0  0  1  0  0  0  0  0999 V2000
   33.0786  -28.0361  -20.3495 O   0  0  0  0  0  0  0  0  0  0  0  0
   32.9926  -29.1087  -19.4652 C   0  0  0  0  0  0  0  0  0  0  0  0
   31.7863  -29.7515  -19.2749 C   0  0  0  0  0  0  0  0  0  0  0  0
   31.6801  -30.8232  -18.3975 C   0  0  0  0  0  0  0  0  0  0  0  0
   32.7569  -31.2796  -17.6941 C   0  0  0  0  0  0  0  0  0  0  0  0
   32.6958  -32.4259  -16.7389 C   0  0  0  0  0  0  0  0  0  0  0  0
   33.0552  -33.6860  -17.4928 C   0  0  2  0  0  0  0  0  0  0  0  0
   31.8973  -34.1209  -18.2329 N   0  0  0  0  0  0  0  0  0  0  0  0
   33.6253  -34.7321  -16.6412 C   0  0  0  0  0  0  0  0  0  0  0  0
   32.9182  -35.7472  -16.3849 O   0  0  0  0  0  0  0  0  0  0  0  0
   33.9750  -30.6270  -17.8892 C   0  0  0  0  0  0  0  0  0  0  0  0
   34.0786  -29.5631  -18.7606 C   0  0  0  0  0  0  0  0  0  0  0  0
   37.2964  -40.5487  -17.5376 C   0  0  0  0  0  0  0  0  0  0  0  0
   36.1580  -39.1315  -17.5987 S   0  0  0  0  0  0  0  0  0  0  0  0
   37.0850  -37.5909  -17.2327 C   0  0  0  0  0  0  0  0  0  0  0  0
   36.0973  -36.4691  -17.3072 C   0  0  0  0  0  0  0  0  0  0  0  0
   35.7768  -35.8547  -15.9664 C   0  0  2  0  0  0  0  0  0  0  0  0
   34.9256  -34.7128  -16.0639 N   0  0  0  0  0  0  0  0  0  0  0  0
   37.0622  -35.5313  -15.2996 C   0  0  0  0  0  0  0  0  0  0  0  0
   37.9315  -34.7887  -15.8069 O   0  0  0  0  0  0  0  0  0  0  0  0
   37.3441  -36.0816  -14.0170 N   0  0  0  0  0  0  0  0  0  0  0  0
   38.6024  -35.7780  -13.3489 C   0  0  1  0  0  0  0  0  0  0  0  0
   38.6196  -34.4139  -12.7688 C   0  0  0  0  0  0  0  0  0  0  0  0
   37.4406  -34.2142  -11.8910 C   0  0  0  0  0  0  0  0  0  0  0  0
   36.3980  -33.4126  -12.3119 C   0  0  0  0  0  0  0  0  0  0  0  0
   35.2825  -33.2306  -11.5346 C   0  0  0  0  0  0  0  0  0  0  0  0
   35.1536  -33.8360  -10.3064 C   0  0  0  0  0  0  0  0  0  0  0  0
   36.1967  -34.6334   -9.8940 C   0  0  0  0  0  0  0  0  0  0  0  0
   37.3210  -34.8266  -10.6603 C   0  0  0  0  0  0  0  0  0  0  0  0
   38.8170  -36.7931  -12.3044 C   0  0  0  0  0  0  0  0  0  0  0  0
   37.8383  -37.7844  -12.0963 O   0  0  0  0  0  0  0  0  0  0  0  0
   39.8313  -36.8603  -11.5518 O   0  0  0  0  0  0  0  0  0  0  0  0
  2  1  1  0
  3  2  2  0
  4  3  1  0
  5 11  1  0
  5  4  2  0
  6  5  1  0
  7  6  1  0
  7  8  1  1
  9  7  1  0
  9 10  2  0
 11 12  2  0
 12  2  1  0
 13 14  1  0
 14 15  1  0
 15 16  1  0
 17 16  1  6
 17 19  1  0
 17 18  1  0
 18  9  1  0
 19 20  2  0
 21 22  1  0
 21 19  1  0
 22 30  1  0
 22 23  1  1
 24 23  1  0
 25 24  2  0
 26 25  1  0
 27 26  2  0
 27 28  1  0
 28 29  2  0
 29 24  1  0
 30 31  1  0
 32 30  2  0
M  END
$$$$
