YMF.pdb
     RDKit          3D

 32 33  0  0  1  0  0  0  0  0999 V2000
   30.6670  -16.6224  -18.6970 O   0  0  0  0  0  0  0  0  0  0  0  0
   29.6930  -17.2955  -17.9635 C   0  0  0  0  0  0  0  0  0  0  0  0
   29.6304  -17.1407  -16.5935 C   0  0  0  0  0  0  0  0  0  0  0  0
   28.6664  -17.8033  -15.8444 C   0  0  0  0  0  0  0  0  0  0  0  0
   27.7494  -18.6276  -16.4294 C   0  0  0  0  0  0  0  0  0  0  0  0
   26.6945  -19.3629  -15.6701 C   0  0  0  0  0  0  0  0  0  0  0  0
   27.3655  -20.4598  -14.8752 C   0  0  2  0  0  0  0  0  0  0  0  0
   27.9432  -21.4043  -15.7981 N   0  0  0  0  0  0  0  0  0  0  0  0
   26.4860  -21.0823  -13.8834 C   0  0  0  0  0  0  0  0  0  0  0  0
   25.7315  -22.0236  -14.2590 O   0  0  0  0  0  0  0  0  0  0  0  0
   27.8159  -18.7816  -17.8149 C   0  0  0  0  0  0  0  0  0  0  0  0
   28.7737  -18.1231  -18.5571 C   0  0  0  0  0  0  0  0  0  0  0  0
   25.4936  -19.8218   -7.4491 C   0  0  0  0  0  0  0  0  0  0  0  0
   27.0688  -20.5653   -7.9729 S   0  0  0  0  0  0  0  0  0  0  0  0
   26.8731  -21.2862   -9.6489 C   0  0  0  0  0  0  0  0  0  0  0  0
   25.5886  -20.7495  -10.1982 C   0  0  0  0  0  0  0  0  0  0  0  0
   25.3429  -21.1248  -11.6394 C   0  0  2  0  0  0  0  0  0  0  0  0
   26.3992  -20.7202  -12.5102 N   0  0  0  0  0  0  0  0  0  0  0  0
   24.0397  -20.5406  -12.0416 C   0  0  0  0  0  0  0  0  0  0  0  0
   23.9041  -19.3539  -12.4127 O   0  0  0  0  0  0  0  0  0  0  0  0
   22.8697  -21.3514  -12.0127 N   0  0  0  0  0  0  0  0  0  0  0  0
   21.7111  -20.9968  -12.8214 C   0  0  1  0  0  0  0  0  0  0  0  0
   22.0347  -20.9112  -14.2655 C   0  0  0  0  0  0  0  0  0  0  0  0
   20.8124  -20.6059  -15.0485 C   0  0  0  0  0  0  0  0  0  0  0  0
   20.4023  -19.2961  -15.2000 C   0  0  0  0  0  0  0  0  0  0  0  0
   19.2919  -18.9799  -15.9408 C   0  0  0  0  0  0  0  0  0  0  0  0
   18.5409  -19.9496  -16.5631 C   0  0  0  0  0  0  0  0  0  0  0  0
   18.9561  -21.2525  -16.4075 C   0  0  0  0  0  0  0  0  0  0  0  0
   20.0659  -21.5865  -15.6691 C   0  0  0  0  0  0  0  0  0  0  0  0
   20.6643  -22.0031  -12.5789 C   0  0  0  0  0  0  0  0  0  0  0  0
   19.3633  -21.5772  -12.2475 O   0  0  0  0  0  0  0  0  0  0  0  0
   20.8295  -23.2554  -12.6422 O   0  0  0  0  0  0  0  0  0  0  0  0
  2  1  1  0
  3  2  2  0
  4  3  1  0
  5 11  1  0
  5  4  2  0
  6  5  1  0
  7  6  1  0
  7  8  1  6
  9  7  1  0
  9 10  2  0
 11 12  2  0
 12  2  1  0
 13 14  1  0
 14 15  1  0
 15 16  1  0
 17 16  1  1
 17 19  1  0
 17 18  1  0
 18  9  1  0
 19 20  2  0
 21 22  1  0
 21 19  1  0
 22 30  1  0
 22 23  1  6
 24 23  1  0
 25 24  2  0
 26 25  1  0
 27 26  2  0
 27 28  1  0
 28 29  2  0
 29 24  1  0
 30 31  1  0
 32 30  2  0
M  END
$$$$
