YMF.pdb
     RDKit          3D

 32 33  0  0  1  0  0  0  0  0999 V2000
   16.7953  -24.0712  -16.2896 O   0  0  0  0  0  0  0  0  0  0  0  0
   17.9747  -23.3994  -15.9776 C   0  0  0  0  0  0  0  0  0  0  0  0
   18.4765  -22.4475  -16.8418 C   0  0  0  0  0  0  0  0  0  0  0  0
   19.6511  -21.7664  -16.5485 C   0  0  0  0  0  0  0  0  0  0  0  0
   20.3504  -22.0100  -15.4021 C   0  0  0  0  0  0  0  0  0  0  0  0
   21.6174  -21.3070  -15.0406 C   0  0  0  0  0  0  0  0  0  0  0  0
   21.3470  -20.4434  -13.8296 C   0  0  2  0  0  0  0  0  0  0  0  0
   20.4210  -19.4053  -14.2069 N   0  0  0  0  0  0  0  0  0  0  0  0
   22.5638  -19.9322  -13.1950 C   0  0  0  0  0  0  0  0  0  0  0  0
   22.9477  -18.7651  -13.4894 O   0  0  0  0  0  0  0  0  0  0  0  0
   19.8400  -22.9732  -14.5307 C   0  0  0  0  0  0  0  0  0  0  0  0
   18.6737  -23.6484  -14.8236 C   0  0  0  0  0  0  0  0  0  0  0  0
   26.4865  -20.3525   -7.5207 C   0  0  0  0  0  0  0  0  0  0  0  0
   24.9936  -21.3111   -7.9219 S   0  0  0  0  0  0  0  0  0  0  0  0
   24.1964  -20.5989   -9.4133 C   0  0  0  0  0  0  0  0  0  0  0  0
   25.1203  -20.8644  -10.5603 C   0  0  0  0  0  0  0  0  0  0  0  0
   24.6759  -20.2287  -11.8551 C   0  0  2  0  0  0  0  0  0  0  0  0
   23.3701  -20.6395  -12.2601 N   0  0  0  0  0  0  0  0  0  0  0  0
   25.6981  -20.5401  -12.8845 C   0  0  0  0  0  0  0  0  0  0  0  0
   25.4837  -21.2935  -13.8596 O   0  0  0  0  0  0  0  0  0  0  0  0
   26.9961  -19.9645  -12.7795 N   0  0  0  0  0  0  0  0  0  0  0  0
   27.9634  -20.1348  -13.8554 C   0  0  1  0  0  0  0  0  0  0  0  0
   29.3116  -19.6412  -13.4867 C   0  0  0  0  0  0  0  0  0  0  0  0
   29.8270  -20.3848  -12.3111 C   0  0  0  0  0  0  0  0  0  0  0  0
   31.0669  -20.0726  -11.7897 C   0  0  0  0  0  0  0  0  0  0  0  0
   31.5588  -20.7236  -10.6870 C   0  0  0  0  0  0  0  0  0  0  0  0
   30.8418  -21.7121  -10.0544 C   0  0  0  0  0  0  0  0  0  0  0  0
   29.6070  -22.0174  -10.5800 C   0  0  0  0  0  0  0  0  0  0  0  0
   29.0993  -21.3750  -11.6836 C   0  0  0  0  0  0  0  0  0  0  0  0
   28.0070  -21.5647  -14.2030 C   0  0  0  0  0  0  0  0  0  0  0  0
   28.7165  -21.9732  -15.3492 O   0  0  0  0  0  0  0  0  0  0  0  0
   27.4486  -22.4908  -13.5473 O   0  0  0  0  0  0  0  0  0  0  0  0
  2  1  1  0
  3  2  2  0
  4  3  1  0
  5 11  1  0
  5  4  2  0
  6  5  1  0
  7  6  1  0
  7  8  1  6
  9  7  1  0
  9 10  2  0
 11 12  2  0
 12  2  1  0
 13 14  1  0
 14 15  1  0
 15 16  1  0
 17 16  1  1
 17 19  1  0
 17 18  1  0
 18  9  1  0
 19 20  2  0
 21 22  1  0
 21 19  1  0
 22 30  1  0
 22 23  1  1
 24 23  1  0
 25 24  2  0
 26 25  1  0
 27 26  2  0
 27 28  1  0
 28 29  2  0
 29 24  1  0
 30 31  1  0
 32 30  2  0
M  END
$$$$
