YMF.pdb
     RDKit          3D

 32 33  0  0  1  0  0  0  0  0999 V2000
   30.0071  -15.6102  -18.7066 O   0  0  0  0  0  0  0  0  0  0  0  0
   29.2256  -16.5053  -17.9801 C   0  0  0  0  0  0  0  0  0  0  0  0
   28.7824  -16.1677  -16.7174 C   0  0  0  0  0  0  0  0  0  0  0  0
   28.0020  -17.0465  -15.9770 C   0  0  0  0  0  0  0  0  0  0  0  0
   27.6450  -18.2698  -16.4656 C   0  0  0  0  0  0  0  0  0  0  0  0
   26.8094  -19.2506  -15.7108 C   0  0  0  0  0  0  0  0  0  0  0  0
   27.7152  -20.0179  -14.7747 C   0  0  2  0  0  0  0  0  0  0  0  0
   28.5326  -20.9090  -15.5590 N   0  0  0  0  0  0  0  0  0  0  0  0
   26.9969  -20.6925  -13.6914 C   0  0  0  0  0  0  0  0  0  0  0  0
   26.5542  -21.8572  -13.9008 O   0  0  0  0  0  0  0  0  0  0  0  0
   28.0950  -18.6076  -17.7428 C   0  0  0  0  0  0  0  0  0  0  0  0
   28.8699  -17.7339  -18.4764 C   0  0  0  0  0  0  0  0  0  0  0  0
   27.4066  -19.8885   -7.4624 C   0  0  0  0  0  0  0  0  0  0  0  0
   25.6374  -20.3075   -7.4078 S   0  0  0  0  0  0  0  0  0  0  0  0
   25.0913  -20.8572   -9.0711 C   0  0  0  0  0  0  0  0  0  0  0  0
   26.0443  -20.2548  -10.0551 C   0  0  0  0  0  0  0  0  0  0  0  0
   25.7882  -20.6762  -11.4816 C   0  0  2  0  0  0  0  0  0  0  0  0
   26.7456  -20.1498  -12.4004 N   0  0  0  0  0  0  0  0  0  0  0  0
   24.4046  -20.2695  -11.8306 C   0  0  0  0  0  0  0  0  0  0  0  0
   24.0652  -19.0807  -12.0203 O   0  0  0  0  0  0  0  0  0  0  0  0
   23.3942  -21.2640  -11.9622 N   0  0  0  0  0  0  0  0  0  0  0  0
   22.0754  -20.9074  -12.4679 C   0  0  1  0  0  0  0  0  0  0  0  0
   22.0082  -20.9467  -13.9483 C   0  0  0  0  0  0  0  0  0  0  0  0
   22.4594  -22.2685  -14.4480 C   0  0  0  0  0  0  0  0  0  0  0  0
   23.7494  -22.4229  -14.9156 C   0  0  0  0  0  0  0  0  0  0  0  0
   24.2043  -23.6389  -15.3586 C   0  0  0  0  0  0  0  0  0  0  0  0
   23.3988  -24.7537  -15.3566 C   0  0  0  0  0  0  0  0  0  0  0  0
   22.1146  -24.5917  -14.8890 C   0  0  0  0  0  0  0  0  0  0  0  0
   21.6431  -23.3810  -14.4414 C   0  0  0  0  0  0  0  0  0  0  0  0
   21.0973  -21.8344  -11.8754 C   0  0  0  0  0  0  0  0  0  0  0  0
   19.7255  -21.6452  -12.1331 O   0  0  0  0  0  0  0  0  0  0  0  0
   21.3829  -22.8171  -11.1320 O   0  0  0  0  0  0  0  0  0  0  0  0
  2  1  1  0
  3  2  2  0
  4  3  1  0
  5 11  1  0
  5  4  2  0
  6  5  1  0
  7  6  1  0
  7  8  1  6
  9  7  1  0
  9 10  2  0
 11 12  2  0
 12  2  1  0
 13 14  1  0
 14 15  1  0
 15 16  1  0
 17 16  1  1
 17 19  1  0
 17 18  1  0
 18  9  1  0
 19 20  2  0
 21 22  1  0
 21 19  1  0
 22 30  1  0
 22 23  1  6
 24 23  1  0
 25 24  2  0
 26 25  1  0
 27 26  2  0
 27 28  1  0
 28 29  2  0
 29 24  1  0
 30 31  1  0
 32 30  2  0
M  END
$$$$
