YMF.pdb
     RDKit          3D

 32 33  0  0  1  0  0  0  0  0999 V2000
   24.9524  -12.9303  -24.1568 O   0  0  0  0  0  0  0  0  0  0  0  0
   25.9295  -12.4077  -23.3130 C   0  0  0  0  0  0  0  0  0  0  0  0
   26.3076  -11.0856  -23.4302 C   0  0  0  0  0  0  0  0  0  0  0  0
   27.2800  -10.5456  -22.5981 C   0  0  0  0  0  0  0  0  0  0  0  0
   27.8954  -11.2959  -21.6385 C   0  0  0  0  0  0  0  0  0  0  0  0
   28.9463  -10.7644  -20.7201 C   0  0  0  0  0  0  0  0  0  0  0  0
   30.2461  -10.6862  -21.4879 C   0  0  2  0  0  0  0  0  0  0  0  0
   30.7211  -12.0273  -21.7190 N   0  0  0  0  0  0  0  0  0  0  0  0
   31.2436   -9.8184  -20.8583 C   0  0  0  0  0  0  0  0  0  0  0  0
   31.9614  -10.3010  -19.9374 O   0  0  0  0  0  0  0  0  0  0  0  0
   27.5104  -12.6324  -21.5230 C   0  0  0  0  0  0  0  0  0  0  0  0
   26.5449  -13.1668  -22.3501 C   0  0  0  0  0  0  0  0  0  0  0  0
   36.0398   -3.5674  -21.4436 C   0  0  0  0  0  0  0  0  0  0  0  0
   34.6246   -4.5128  -22.0857 S   0  0  0  0  0  0  0  0  0  0  0  0
   34.0799   -5.7257  -20.8212 C   0  0  0  0  0  0  0  0  0  0  0  0
   33.0284   -6.5731  -21.4662 C   0  0  0  0  0  0  0  0  0  0  0  0
   32.4652   -7.6366  -20.5552 C   0  0  2  0  0  0  0  0  0  0  0  0
   31.4855   -8.4566  -21.1921 N   0  0  0  0  0  0  0  0  0  0  0  0
   31.9220   -6.9586  -19.3524 C   0  0  0  0  0  0  0  0  0  0  0  0
   30.8700   -6.2821  -19.3614 O   0  0  0  0  0  0  0  0  0  0  0  0
   32.6147   -7.0686  -18.1133 N   0  0  0  0  0  0  0  0  0  0  0  0
   32.0466   -6.4931  -16.9016 C   0  0  1  0  0  0  0  0  0  0  0  0
   31.8552   -7.5022  -15.8327 C   0  0  0  0  0  0  0  0  0  0  0  0
   33.0861   -8.3131  -15.6656 C   0  0  0  0  0  0  0  0  0  0  0  0
   34.0808   -7.8844  -14.8091 C   0  0  0  0  0  0  0  0  0  0  0  0
   35.2182   -8.6257  -14.6128 C   0  0  0  0  0  0  0  0  0  0  0  0
   35.4174   -9.8240  -15.2578 C   0  0  0  0  0  0  0  0  0  0  0  0
   34.4216  -10.2444  -16.1096 C   0  0  0  0  0  0  0  0  0  0  0  0
   33.2761   -9.5143  -16.3174 C   0  0  0  0  0  0  0  0  0  0  0  0
   32.9418   -5.4155  -16.4492 C   0  0  0  0  0  0  0  0  0  0  0  0
   34.1854   -5.2404  -17.0869 O   0  0  0  0  0  0  0  0  0  0  0  0
   32.6903   -4.6059  -15.5107 O   0  0  0  0  0  0  0  0  0  0  0  0
  2  1  1  0
  3  2  2  0
  4  3  1  0
  5 11  1  0
  5  4  2  0
  6  5  1  0
  7  6  1  0
  7  8  1  1
  9  7  1  0
  9 10  2  0
 11 12  2  0
 12  2  1  0
 13 14  1  0
 14 15  1  0
 15 16  1  0
 17 16  1  6
 17 19  1  0
 17 18  1  0
 18  9  1  0
 19 20  2  0
 21 22  1  0
 21 19  1  0
 22 30  1  0
 22 23  1  1
 24 23  1  0
 25 24  2  0
 26 25  1  0
 27 26  2  0
 27 28  1  0
 28 29  2  0
 29 24  1  0
 30 31  1  0
 32 30  2  0
M  END
$$$$
