QVH.pdb
     RDKit          3D

 27 27  0  0  1  0  0  0  0  0999 V2000
    8.1113  -16.0972   14.0759 N   0  0  0  0  0  0  0  0  0  0  0  0
    9.0653  -17.1283   14.2429 C   0  0  0  0  0  0  0  0  0  0  0  0
    9.2691  -17.9149   13.2903 O   0  0  0  0  0  0  0  0  0  0  0  0
    9.7977  -17.2746   15.4965 C   0  0  0  0  0  0  0  0  0  0  0  0
    9.3598  -16.3989   16.6185 C   0  0  0  0  0  0  0  0  0  0  0  0
    9.2558  -17.0607   17.9510 C   0  0  2  0  0  0  0  0  0  0  0  0
    7.9777  -17.7196   18.1384 N   0  0  0  0  0  0  0  0  0  0  0  0
    9.4032  -16.0020   19.0121 C   0  0  0  0  0  0  0  0  0  0  0  0
    9.6969  -14.8218   18.6893 O   0  0  0  0  0  0  0  0  0  0  0  0
    7.7179  -13.9994   22.7152 C   0  0  0  0  0  0  0  0  0  0  0  0
    8.1673  -14.3511   21.3080 C   0  0  2  0  0  0  0  0  0  0  0  0
    6.9991  -14.9447   20.5835 C   0  0  0  0  0  0  0  0  0  0  0  0
    9.3119  -15.3501   21.4523 C   0  0  2  0  0  0  0  0  0  0  0  0
    9.2194  -16.2943   20.3832 N   0  0  0  0  0  0  0  0  0  0  0  0
    9.3080  -15.9843   22.7904 C   0  0  0  0  0  0  0  0  0  0  0  0
    8.3875  -16.7898   23.0829 O   0  0  0  0  0  0  0  0  0  0  0  0
   10.2945  -15.7379   23.7848 N   0  0  0  0  0  0  0  0  0  0  0  0
   10.6679  -16.7493   24.7698 C   0  0  1  0  0  0  0  0  0  0  0  0
   12.1567  -16.7715   24.9887 C   0  0  0  0  0  0  0  0  0  0  0  0
   12.9225  -17.3485   23.8797 C   0  0  0  0  0  0  0  0  0  0  0  0
   12.3332  -18.1062   22.8617 C   0  0  0  0  0  0  0  0  0  0  0  0
   13.3177  -18.4696   22.0248 N   0  0  0  0  0  0  0  0  0  0  0  0
   14.4611  -17.9706   22.4874 C   0  0  0  0  0  0  0  0  0  0  0  0
   14.2555  -17.2808   23.6183 N   0  0  0  0  0  0  0  0  0  0  0  0
    9.9600  -16.5613   26.0401 C   0  0  0  0  0  0  0  0  0  0  0  0
    9.2289  -15.5362   26.1636 O   0  0  0  0  0  0  0  0  0  0  0  0
   10.0587  -17.4470   27.0915 O   0  0  0  0  0  0  0  0  0  0  0  0
  2  1  1  0
  3  2  2  0
  4  2  1  0
  5  4  1  0
  6  8  1  0
  6  5  1  0
  6  7  1  6
  8  9  2  0
 11 10  1  1
 11 12  1  0
 13 11  1  0
 14  8  1  0
 13 14  1  6
 15 17  1  0
 15 13  1  0
 16 15  2  0
 18 25  1  0
 18 17  1  0
 18 19  1  1
 20 24  1  0
 20 19  1  0
 21 20  2  0
 22 21  1  0
 22 23  1  0
 23 24  2  0
 25 27  1  0
 26 25  2  0
M  END
$$$$
