QVH.pdb
     RDKit          3D

 27 27  0  0  1  0  0  0  0  0999 V2000
    8.6882  -18.2748   18.5689 N   0  0  0  0  0  0  0  0  0  0  0  0
    7.6500  -17.4998   18.0006 C   0  0  0  0  0  0  0  0  0  0  0  0
    7.0241  -17.9645   17.0209 O   0  0  0  0  0  0  0  0  0  0  0  0
    7.3132  -16.1874   18.5423 C   0  0  0  0  0  0  0  0  0  0  0  0
    8.0392  -15.7811   19.7773 C   0  0  0  0  0  0  0  0  0  0  0  0
    7.6268  -14.4754   20.3685 C   0  0  2  0  0  0  0  0  0  0  0  0
    7.9008  -13.3607   19.4823 N   0  0  0  0  0  0  0  0  0  0  0  0
    8.4055  -14.2713   21.6414 C   0  0  0  0  0  0  0  0  0  0  0  0
    9.5597  -13.7716   21.6018 O   0  0  0  0  0  0  0  0  0  0  0  0
    6.4023  -14.2857   25.2449 C   0  0  0  0  0  0  0  0  0  0  0  0
    7.7672  -13.6405   25.0819 C   0  0  2  0  0  0  0  0  0  0  0  0
    7.5677  -12.2759   24.4986 C   0  0  0  0  0  0  0  0  0  0  0  0
    8.5684  -14.5441   24.1488 C   0  0  2  0  0  0  0  0  0  0  0  0
    7.8743  -14.6283   22.9022 N   0  0  0  0  0  0  0  0  0  0  0  0
    8.8202  -15.8669   24.7649 C   0  0  0  0  0  0  0  0  0  0  0  0
    7.9131  -16.7375   24.7367 O   0  0  0  0  0  0  0  0  0  0  0  0
   10.0426  -16.2242   25.3981 N   0  0  0  0  0  0  0  0  0  0  0  0
   10.2745  -17.5647   25.9289 C   0  0  1  0  0  0  0  0  0  0  0  0
   11.6989  -17.9978   25.7085 C   0  0  0  0  0  0  0  0  0  0  0  0
   12.1274  -17.9766   24.3066 C   0  0  0  0  0  0  0  0  0  0  0  0
   11.3629  -18.5219   23.2695 C   0  0  0  0  0  0  0  0  0  0  0  0
   12.0506  -18.3280   22.1331 N   0  0  0  0  0  0  0  0  0  0  0  0
   13.1826  -17.6976   22.4354 C   0  0  0  0  0  0  0  0  0  0  0  0
   13.2612  -17.4679   23.7538 N   0  0  0  0  0  0  0  0  0  0  0  0
    9.9179  -17.6589   27.3481 C   0  0  0  0  0  0  0  0  0  0  0  0
    9.4992  -16.6127   27.9233 O   0  0  0  0  0  0  0  0  0  0  0  0
   10.0195  -18.8282   28.0705 O   0  0  0  0  0  0  0  0  0  0  0  0
  2  1  1  0
  3  2  2  0
  4  2  1  0
  5  4  1  0
  6  8  1  0
  6  5  1  0
  6  7  1  6
  8  9  2  0
 11 10  1  6
 11 12  1  0
 13 11  1  0
 14  8  1  0
 13 14  1  6
 15 17  1  0
 15 13  1  0
 16 15  2  0
 18 25  1  0
 18 17  1  0
 18 19  1  1
 20 24  1  0
 20 19  1  0
 21 20  2  0
 22 21  1  0
 22 23  1  0
 23 24  2  0
 25 27  1  0
 26 25  2  0
M  END
$$$$
