QVH.pdb
     RDKit          3D

 27 27  0  0  1  0  0  0  0  0999 V2000
    9.9757  -21.6302   21.0068 N   0  0  0  0  0  0  0  0  0  0  0  0
    9.2692  -21.6517   19.7814 C   0  0  0  0  0  0  0  0  0  0  0  0
    8.8124  -22.7437   19.3732 O   0  0  0  0  0  0  0  0  0  0  0  0
    9.0749  -20.4298   19.0077 C   0  0  0  0  0  0  0  0  0  0  0  0
    9.5830  -19.1739   19.6258 C   0  0  0  0  0  0  0  0  0  0  0  0
    9.3878  -17.9335   18.8211 C   0  0  2  0  0  0  0  0  0  0  0  0
   10.3005  -17.8594   17.6966 N   0  0  0  0  0  0  0  0  0  0  0  0
    9.6422  -16.7497   19.7167 C   0  0  0  0  0  0  0  0  0  0  0  0
   10.7937  -16.2469   19.7861 O   0  0  0  0  0  0  0  0  0  0  0  0
    7.3644  -13.6055   20.0724 C   0  0  0  0  0  0  0  0  0  0  0  0
    7.4762  -14.2818   21.4275 C   0  0  2  0  0  0  0  0  0  0  0  0
    7.4982  -13.2143   22.4773 C   0  0  0  0  0  0  0  0  0  0  0  0
    8.7736  -15.0851   21.4087 C   0  0  2  0  0  0  0  0  0  0  0  0
    8.6129  -16.1736   20.4964 N   0  0  0  0  0  0  0  0  0  0  0  0
    9.1579  -15.5198   22.7710 C   0  0  0  0  0  0  0  0  0  0  0  0
    8.5279  -16.4641   23.3123 O   0  0  0  0  0  0  0  0  0  0  0  0
   10.2119  -14.9291   23.5214 N   0  0  0  0  0  0  0  0  0  0  0  0
   10.4112  -15.2240   24.9376 C   0  0  1  0  0  0  0  0  0  0  0  0
    9.8778  -14.1150   25.8042 C   0  0  0  0  0  0  0  0  0  0  0  0
   10.0202  -14.3511   27.2441 C   0  0  0  0  0  0  0  0  0  0  0  0
   10.6214  -15.4994   27.7707 C   0  0  0  0  0  0  0  0  0  0  0  0
   10.5809  -15.3841   29.1074 N   0  0  0  0  0  0  0  0  0  0  0  0
    9.9888  -14.2308   29.4068 C   0  0  0  0  0  0  0  0  0  0  0  0
    9.6341  -13.5754   28.2925 N   0  0  0  0  0  0  0  0  0  0  0  0
    9.8160  -16.5095   25.3164 C   0  0  0  0  0  0  0  0  0  0  0  0
   10.5632  -17.3663   25.8715 O   0  0  0  0  0  0  0  0  0  0  0  0
    8.4909  -16.8165   25.0943 O   0  0  0  0  0  0  0  0  0  0  0  0
  2  1  1  0
  3  2  2  0
  4  2  1  0
  5  4  1  0
  6  8  1  0
  6  5  1  0
  6  7  1  6
  8  9  2  0
 11 10  1  6
 11 12  1  0
 13 11  1  0
 14  8  1  0
 13 14  1  6
 15 17  1  0
 15 13  1  0
 16 15  2  0
 18 25  1  0
 18 17  1  0
 18 19  1  1
 20 24  1  0
 20 19  1  0
 21 20  2  0
 22 21  1  0
 22 23  1  0
 23 24  2  0
 25 27  1  0
 26 25  2  0
M  END
$$$$
