QVH.pdb
     RDKit          3D

 27 27  0  0  1  0  0  0  0  0999 V2000
    5.4890  -19.5828   17.5304 N   0  0  0  0  0  0  0  0  0  0  0  0
    6.4283  -19.9823   16.5510 C   0  0  0  0  0  0  0  0  0  0  0  0
    6.0632  -20.7885   15.6654 O   0  0  0  0  0  0  0  0  0  0  0  0
    7.7936  -19.4674   16.5693 C   0  0  0  0  0  0  0  0  0  0  0  0
    8.1309  -18.5413   17.6854 C   0  0  0  0  0  0  0  0  0  0  0  0
    8.2544  -17.1019   17.3149 C   0  0  2  0  0  0  0  0  0  0  0  0
    8.9841  -16.9147   16.0757 N   0  0  0  0  0  0  0  0  0  0  0  0
    9.0024  -16.3976   18.4162 C   0  0  0  0  0  0  0  0  0  0  0  0
   10.2606  -16.4034   18.4283 O   0  0  0  0  0  0  0  0  0  0  0  0
    6.7330  -14.4243   21.3595 C   0  0  0  0  0  0  0  0  0  0  0  0
    8.0498  -13.8252   20.8978 C   0  0  2  0  0  0  0  0  0  0  0  0
    7.7688  -12.9373   19.7254 C   0  0  0  0  0  0  0  0  0  0  0  0
    8.9527  -14.9958   20.5187 C   0  0  2  0  0  0  0  0  0  0  0  0
    8.3267  -15.7180   19.4559 N   0  0  0  0  0  0  0  0  0  0  0  0
    9.2603  -15.8417   21.6945 C   0  0  0  0  0  0  0  0  0  0  0  0
    8.3745  -16.6152   22.1402 O   0  0  0  0  0  0  0  0  0  0  0  0
   10.5144  -15.8370   22.3654 N   0  0  0  0  0  0  0  0  0  0  0  0
   10.7854  -16.7120   23.5026 C   0  0  1  0  0  0  0  0  0  0  0  0
   12.2545  -17.0188   23.6145 C   0  0  0  0  0  0  0  0  0  0  0  0
   12.8214  -17.6975   22.4452 C   0  0  0  0  0  0  0  0  0  0  0  0
   12.2316  -18.8227   21.8589 C   0  0  0  0  0  0  0  0  0  0  0  0
   13.0087  -19.1766   20.8232 N   0  0  0  0  0  0  0  0  0  0  0  0
   14.0289  -18.3248   20.7595 C   0  0  0  0  0  0  0  0  0  0  0  0
   13.9451  -17.4093   21.7352 N   0  0  0  0  0  0  0  0  0  0  0  0
   10.2764  -16.1494   24.7574 C   0  0  0  0  0  0  0  0  0  0  0  0
    9.7371  -15.0057   24.7169 O   0  0  0  0  0  0  0  0  0  0  0  0
   10.3613  -16.8101   25.9640 O   0  0  0  0  0  0  0  0  0  0  0  0
  2  1  1  0
  3  2  2  0
  4  2  1  0
  5  4  1  0
  6  8  1  0
  6  5  1  0
  6  7  1  6
  8  9  2  0
 11 10  1  6
 11 12  1  0
 13 11  1  0
 14  8  1  0
 13 14  1  6
 15 17  1  0
 15 13  1  0
 16 15  2  0
 18 25  1  0
 18 17  1  0
 18 19  1  1
 20 24  1  0
 20 19  1  0
 21 20  2  0
 22 21  1  0
 22 23  1  0
 23 24  2  0
 25 27  1  0
 26 25  2  0
M  END
$$$$
