QVH.pdb
     RDKit          3D

 27 27  0  0  1  0  0  0  0  0999 V2000
    9.9729  -21.2937   20.6648 N   0  0  0  0  0  0  0  0  0  0  0  0
    9.8492  -21.3707   19.2577 C   0  0  0  0  0  0  0  0  0  0  0  0
    9.7787  -22.5013   18.7243 O   0  0  0  0  0  0  0  0  0  0  0  0
    9.8040  -20.1610   18.4429 C   0  0  0  0  0  0  0  0  0  0  0  0
    9.8895  -18.8698   19.1797 C   0  0  0  0  0  0  0  0  0  0  0  0
    9.7338  -17.6411   18.3490 C   0  0  2  0  0  0  0  0  0  0  0  0
   10.7800  -17.5158   17.3527 N   0  0  0  0  0  0  0  0  0  0  0  0
    9.8045  -16.4461   19.2630 C   0  0  0  0  0  0  0  0  0  0  0  0
   10.9143  -15.9093   19.5152 O   0  0  0  0  0  0  0  0  0  0  0  0
    7.5001  -13.2757   19.3769 C   0  0  0  0  0  0  0  0  0  0  0  0
    7.3484  -14.0546   20.6716 C   0  0  2  0  0  0  0  0  0  0  0  0
    7.1560  -13.0710   21.7840 C   0  0  0  0  0  0  0  0  0  0  0  0
    8.6301  -14.8644   20.8464 C   0  0  2  0  0  0  0  0  0  0  0  0
    8.6453  -15.8971   19.8583 N   0  0  0  0  0  0  0  0  0  0  0  0
    8.7573  -15.3800   22.2287 C   0  0  0  0  0  0  0  0  0  0  0  0
    8.1842  -16.4567   22.5351 O   0  0  0  0  0  0  0  0  0  0  0  0
    9.4984  -14.7259   23.2513 N   0  0  0  0  0  0  0  0  0  0  0  0
    9.4960  -15.2019   24.6318 C   0  0  1  0  0  0  0  0  0  0  0  0
    9.9744  -14.1325   25.5765 C   0  0  0  0  0  0  0  0  0  0  0  0
   10.0526  -14.5548   26.9783 C   0  0  0  0  0  0  0  0  0  0  0  0
    9.7335  -15.8497   27.4013 C   0  0  0  0  0  0  0  0  0  0  0  0
    9.9158  -15.8828   28.7308 N   0  0  0  0  0  0  0  0  0  0  0  0
   10.3257  -14.6795   29.1237 C   0  0  0  0  0  0  0  0  0  0  0  0
   10.4198  -13.8450   28.0788 N   0  0  0  0  0  0  0  0  0  0  0  0
    8.1764  -15.6978   25.0358 C   0  0  0  0  0  0  0  0  0  0  0  0
    7.1603  -15.0355   24.6759 O   0  0  0  0  0  0  0  0  0  0  0  0
    8.0024  -16.8431   25.7825 O   0  0  0  0  0  0  0  0  0  0  0  0
  2  1  1  0
  3  2  2  0
  4  2  1  0
  5  4  1  0
  6  8  1  0
  6  5  1  0
  6  7  1  6
  8  9  2  0
 11 10  1  6
 11 12  1  0
 13 11  1  0
 14  8  1  0
 13 14  1  6
 15 17  1  0
 15 13  1  0
 16 15  2  0
 18 25  1  0
 18 17  1  0
 18 19  1  1
 20 24  1  0
 20 19  1  0
 21 20  2  0
 22 21  1  0
 22 23  1  0
 23 24  2  0
 25 27  1  0
 26 25  2  0
M  END
$$$$
