QVH.pdb
     RDKit          3D

 27 27  0  0  1  0  0  0  0  0999 V2000
    5.4962  -20.1143   19.1343 N   0  0  0  0  0  0  0  0  0  0  0  0
    6.8938  -20.3189   19.0571 C   0  0  0  0  0  0  0  0  0  0  0  0
    7.3657  -21.3951   19.4895 O   0  0  0  0  0  0  0  0  0  0  0  0
    7.7691  -19.3004   18.4863 C   0  0  0  0  0  0  0  0  0  0  0  0
    7.1055  -18.0523   18.0180 C   0  0  0  0  0  0  0  0  0  0  0  0
    8.0183  -16.9861   17.5138 C   0  0  2  0  0  0  0  0  0  0  0  0
    8.9835  -17.4959   16.5592 N   0  0  0  0  0  0  0  0  0  0  0  0
    8.7692  -16.4184   18.6895 C   0  0  0  0  0  0  0  0  0  0  0  0
    9.9310  -16.8242   18.9518 O   0  0  0  0  0  0  0  0  0  0  0  0
    6.6691  -14.1458   21.4994 C   0  0  0  0  0  0  0  0  0  0  0  0
    8.0200  -13.6037   21.0665 C   0  0  2  0  0  0  0  0  0  0  0  0
    7.7947  -12.6477   19.9363 C   0  0  0  0  0  0  0  0  0  0  0  0
    8.8544  -14.8061   20.6341 C   0  0  2  0  0  0  0  0  0  0  0  0
    8.2029  -15.4270   19.5237 N   0  0  0  0  0  0  0  0  0  0  0  0
    9.0886  -15.7338   21.7642 C   0  0  0  0  0  0  0  0  0  0  0  0
    8.4272  -16.8016   21.8262 O   0  0  0  0  0  0  0  0  0  0  0  0
   10.0293  -15.4924   22.8032 N   0  0  0  0  0  0  0  0  0  0  0  0
   10.5279  -16.5657   23.6585 C   0  0  1  0  0  0  0  0  0  0  0  0
   11.8067  -17.1442   23.1154 C   0  0  0  0  0  0  0  0  0  0  0  0
   11.6173  -18.2474   22.1686 C   0  0  0  0  0  0  0  0  0  0  0  0
   10.3561  -18.7446   21.8229 C   0  0  0  0  0  0  0  0  0  0  0  0
   10.5554  -19.7391   20.9436 N   0  0  0  0  0  0  0  0  0  0  0  0
   11.8654  -19.8623   20.7461 C   0  0  0  0  0  0  0  0  0  0  0  0
   12.5426  -18.9669   21.4787 N   0  0  0  0  0  0  0  0  0  0  0  0
   10.7079  -16.1205   25.0440 C   0  0  0  0  0  0  0  0  0  0  0  0
   11.0937  -16.9743   25.8941 O   0  0  0  0  0  0  0  0  0  0  0  0
   10.4763  -14.8241   25.4509 O   0  0  0  0  0  0  0  0  0  0  0  0
  2  1  1  0
  3  2  2  0
  4  2  1  0
  5  4  1  0
  6  8  1  0
  6  5  1  0
  6  7  1  6
  8  9  2  0
 11 10  1  6
 11 12  1  0
 13 11  1  0
 14  8  1  0
 13 14  1  6
 15 17  1  0
 15 13  1  0
 16 15  2  0
 18 25  1  0
 18 17  1  0
 18 19  1  6
 20 24  1  0
 20 19  1  0
 21 20  2  0
 22 21  1  0
 22 23  1  0
 23 24  2  0
 25 27  1  0
 26 25  2  0
M  END
$$$$
