QVH.pdb
     RDKit          3D

 27 27  0  0  1  0  0  0  0  0999 V2000
    9.4347  -18.5735   15.1927 N   0  0  0  0  0  0  0  0  0  0  0  0
    8.4868  -19.4113   15.8259 C   0  0  0  0  0  0  0  0  0  0  0  0
    7.8318  -20.2128   15.1214 O   0  0  0  0  0  0  0  0  0  0  0  0
    8.2749  -19.3456   17.2681 C   0  0  0  0  0  0  0  0  0  0  0  0
    9.0934  -18.3447   18.0068 C   0  0  0  0  0  0  0  0  0  0  0  0
    8.8708  -18.2899   19.4805 C   0  0  2  0  0  0  0  0  0  0  0  0
    7.4688  -18.4166   19.8289 N   0  0  0  0  0  0  0  0  0  0  0  0
    9.3644  -16.9572   19.9791 C   0  0  0  0  0  0  0  0  0  0  0  0
   10.5713  -16.6347   19.8282 O   0  0  0  0  0  0  0  0  0  0  0  0
    7.5906  -13.5911   19.4982 C   0  0  0  0  0  0  0  0  0  0  0  0
    7.7467  -13.7972   20.9946 C   0  0  2  0  0  0  0  0  0  0  0  0
    8.0481  -12.4687   21.6161 C   0  0  0  0  0  0  0  0  0  0  0  0
    8.8955  -14.7842   21.1817 C   0  0  2  0  0  0  0  0  0  0  0  0
    8.5024  -16.0396   20.6228 N   0  0  0  0  0  0  0  0  0  0  0  0
    9.2966  -14.8807   22.6038 C   0  0  0  0  0  0  0  0  0  0  0  0
    9.9077  -13.9177   23.1337 O   0  0  0  0  0  0  0  0  0  0  0  0
    9.0316  -16.0113   23.4250 N   0  0  0  0  0  0  0  0  0  0  0  0
    9.4525  -16.0670   24.8221 C   0  0  1  0  0  0  0  0  0  0  0  0
    8.2656  -16.0891   25.7472 C   0  0  0  0  0  0  0  0  0  0  0  0
    7.5740  -14.8027   25.8744 C   0  0  0  0  0  0  0  0  0  0  0  0
    8.2105  -13.5736   25.6698 C   0  0  0  0  0  0  0  0  0  0  0  0
    7.2884  -12.6182   25.8667 N   0  0  0  0  0  0  0  0  0  0  0  0
    6.1377  -13.2095   26.1773 C   0  0  0  0  0  0  0  0  0  0  0  0
    6.2770  -14.5427   26.1907 N   0  0  0  0  0  0  0  0  0  0  0  0
   10.3331  -17.2105   25.0816 C   0  0  0  0  0  0  0  0  0  0  0  0
   10.7245  -17.3977   26.2700 O   0  0  0  0  0  0  0  0  0  0  0  0
   10.7454  -18.0784   24.0935 O   0  0  0  0  0  0  0  0  0  0  0  0
  2  1  1  0
  3  2  2  0
  4  2  1  0
  5  4  1  0
  6  8  1  0
  6  5  1  0
  6  7  1  6
  8  9  2  0
 11 10  1  6
 11 12  1  0
 13 11  1  0
 14  8  1  0
 13 14  1  1
 15 17  1  0
 15 13  1  0
 16 15  2  0
 18 25  1  0
 18 17  1  0
 18 19  1  1
 20 24  1  0
 20 19  1  0
 21 20  2  0
 22 21  1  0
 22 23  1  0
 23 24  2  0
 25 27  1  0
 26 25  2  0
M  END
$$$$
