QVH.pdb
     RDKit          3D

 27 27  0  0  1  0  0  0  0  0999 V2000
    6.2139  -19.9410   23.7439 N   0  0  0  0  0  0  0  0  0  0  0  0
    5.3892  -19.2054   22.8607 C   0  0  0  0  0  0  0  0  0  0  0  0
    4.1781  -19.5119   22.7779 O   0  0  0  0  0  0  0  0  0  0  0  0
    5.9349  -18.1124   22.0626 C   0  0  0  0  0  0  0  0  0  0  0  0
    7.0597  -17.3516   22.6735 C   0  0  0  0  0  0  0  0  0  0  0  0
    7.1190  -15.9011   22.3315 C   0  0  2  0  0  0  0  0  0  0  0  0
    7.7367  -15.6663   21.0407 N   0  0  0  0  0  0  0  0  0  0  0  0
    7.9416  -15.2054   23.3840 C   0  0  0  0  0  0  0  0  0  0  0  0
    9.1928  -15.3386   23.3971 O   0  0  0  0  0  0  0  0  0  0  0  0
    5.8879  -12.9979   26.3375 C   0  0  0  0  0  0  0  0  0  0  0  0
    7.2592  -12.5317   25.8812 C   0  0  2  0  0  0  0  0  0  0  0  0
    7.0699  -11.5929   24.7303 C   0  0  0  0  0  0  0  0  0  0  0  0
    8.0312  -13.7827   25.4711 C   0  0  2  0  0  0  0  0  0  0  0  0
    7.3451  -14.3930   24.3757 N   0  0  0  0  0  0  0  0  0  0  0  0
    8.2236  -14.6976   26.6194 C   0  0  0  0  0  0  0  0  0  0  0  0
    7.2935  -15.4811   26.9398 O   0  0  0  0  0  0  0  0  0  0  0  0
    9.4126  -14.7497   27.3980 N   0  0  0  0  0  0  0  0  0  0  0  0
    9.8255  -15.9634   28.0972 C   0  0  1  0  0  0  0  0  0  0  0  0
   10.9136  -16.6810   27.3447 C   0  0  0  0  0  0  0  0  0  0  0  0
   11.4019  -17.8975   28.0013 C   0  0  0  0  0  0  0  0  0  0  0  0
   10.9600  -18.3103   29.2630 C   0  0  0  0  0  0  0  0  0  0  0  0
   11.6084  -19.4498   29.5509 N   0  0  0  0  0  0  0  0  0  0  0  0
   12.4122  -19.7391   28.5308 C   0  0  0  0  0  0  0  0  0  0  0  0
   12.3106  -18.8119   27.5680 N   0  0  0  0  0  0  0  0  0  0  0  0
   10.2454  -15.6838   29.4741 C   0  0  0  0  0  0  0  0  0  0  0  0
   10.3119  -14.4739   29.8379 O   0  0  0  0  0  0  0  0  0  0  0  0
   10.5659  -16.6755   30.3760 O   0  0  0  0  0  0  0  0  0  0  0  0
  2  1  1  0
  3  2  2  0
  4  2  1  0
  5  4  1  0
  6  8  1  0
  6  5  1  0
  6  7  1  6
  8  9  2  0
 11 10  1  6
 11 12  1  0
 13 11  1  0
 14  8  1  0
 13 14  1  6
 15 17  1  0
 15 13  1  0
 16 15  2  0
 18 25  1  0
 18 17  1  0
 18 19  1  6
 20 24  1  0
 20 19  1  0
 21 20  2  0
 22 21  1  0
 22 23  1  0
 23 24  2  0
 25 27  1  0
 26 25  2  0
M  END
$$$$
