QVH.pdb
     RDKit          3D

 27 27  0  0  1  0  0  0  0  0999 V2000
    8.1027  -21.2445   17.8285 N   0  0  0  0  0  0  0  0  0  0  0  0
    8.2294  -20.9066   16.4607 C   0  0  0  0  0  0  0  0  0  0  0  0
    8.2538  -21.8306   15.6160 O   0  0  0  0  0  0  0  0  0  0  0  0
    8.3294  -19.5130   16.0400 C   0  0  0  0  0  0  0  0  0  0  0  0
    8.2577  -18.4937   17.1232 C   0  0  0  0  0  0  0  0  0  0  0  0
    8.2783  -17.0717   16.6738 C   0  0  2  0  0  0  0  0  0  0  0  0
    9.0745  -16.8860   15.4761 N   0  0  0  0  0  0  0  0  0  0  0  0
    8.8804  -16.2412   17.7765 C   0  0  0  0  0  0  0  0  0  0  0  0
   10.1288  -16.1016   17.8516 O   0  0  0  0  0  0  0  0  0  0  0  0
    7.0538  -12.9989   19.3910 C   0  0  0  0  0  0  0  0  0  0  0  0
    7.4057  -14.0415   20.4376 C   0  0  2  0  0  0  0  0  0  0  0  0
    7.7963  -13.3243   21.6925 C   0  0  0  0  0  0  0  0  0  0  0  0
    8.5622  -14.8583   19.8681 C   0  0  2  0  0  0  0  0  0  0  0  0
    8.0764  -15.6013   18.7479 N   0  0  0  0  0  0  0  0  0  0  0  0
    9.1821  -15.7117   20.9074 C   0  0  0  0  0  0  0  0  0  0  0  0
    8.5339  -16.6879   21.3640 O   0  0  0  0  0  0  0  0  0  0  0  0
   10.4860  -15.4961   21.4330 N   0  0  0  0  0  0  0  0  0  0  0  0
   11.0588  -16.3640   22.4580 C   0  0  1  0  0  0  0  0  0  0  0  0
   12.5273  -16.0910   22.6431 C   0  0  0  0  0  0  0  0  0  0  0  0
   13.1997  -17.0041   23.5724 C   0  0  0  0  0  0  0  0  0  0  0  0
   12.7883  -18.3266   23.7703 C   0  0  0  0  0  0  0  0  0  0  0  0
   13.6196  -18.8631   24.6775 N   0  0  0  0  0  0  0  0  0  0  0  0
   14.5036  -17.9339   25.0312 C   0  0  0  0  0  0  0  0  0  0  0  0
   14.2758  -16.7871   24.3753 N   0  0  0  0  0  0  0  0  0  0  0  0
   10.3451  -16.2466   23.7336 C   0  0  0  0  0  0  0  0  0  0  0  0
    9.8676  -15.1164   24.0422 O   0  0  0  0  0  0  0  0  0  0  0  0
   10.1762  -17.3065   24.5983 O   0  0  0  0  0  0  0  0  0  0  0  0
  2  1  1  0
  3  2  2  0
  4  2  1  0
  5  4  1  0
  6  8  1  0
  6  5  1  0
  6  7  1  6
  8  9  2  0
 11 10  1  6
 11 12  1  0
 13 11  1  0
 14  8  1  0
 13 14  1  6
 15 17  1  0
 15 13  1  0
 16 15  2  0
 18 25  1  0
 18 17  1  0
 18 19  1  1
 20 24  1  0
 20 19  1  0
 21 20  2  0
 22 21  1  0
 22 23  1  0
 23 24  2  0
 25 27  1  0
 26 25  2  0
M  END
$$$$
