QVH.pdb
     RDKit          3D

 27 27  0  0  1  0  0  0  0  0999 V2000
    9.2419  -14.0235   14.1111 N   0  0  0  0  0  0  0  0  0  0  0  0
    8.9499  -15.2862   13.5442 C   0  0  0  0  0  0  0  0  0  0  0  0
    8.3110  -15.3256   12.4681 O   0  0  0  0  0  0  0  0  0  0  0  0
    9.3826  -16.5177   14.1964 C   0  0  0  0  0  0  0  0  0  0  0  0
   10.1606  -16.3551   15.4556 C   0  0  0  0  0  0  0  0  0  0  0  0
    9.5821  -17.0152   16.6615 C   0  0  2  0  0  0  0  0  0  0  0  0
    8.1633  -17.2775   16.5162 N   0  0  0  0  0  0  0  0  0  0  0  0
    9.7757  -16.0941   17.8373 C   0  0  0  0  0  0  0  0  0  0  0  0
   10.9351  -15.7514   18.1862 O   0  0  0  0  0  0  0  0  0  0  0  0
    7.7482  -12.9370   18.7663 C   0  0  0  0  0  0  0  0  0  0  0  0
    7.5874  -13.9267   19.9068 C   0  0  2  0  0  0  0  0  0  0  0  0
    7.5932  -13.1576   21.1915 C   0  0  0  0  0  0  0  0  0  0  0  0
    8.7673  -14.8905   19.8179 C   0  0  2  0  0  0  0  0  0  0  0  0
    8.6792  -15.5923   18.5758 N   0  0  0  0  0  0  0  0  0  0  0  0
    8.8173  -15.7908   20.9924 C   0  0  0  0  0  0  0  0  0  0  0  0
    8.1889  -16.8795   20.9559 O   0  0  0  0  0  0  0  0  0  0  0  0
    9.5424  -15.5000   22.1810 N   0  0  0  0  0  0  0  0  0  0  0  0
   10.1136  -16.5541   23.0147 C   0  0  1  0  0  0  0  0  0  0  0  0
   11.1686  -17.3257   22.2687 C   0  0  0  0  0  0  0  0  0  0  0  0
   11.7875  -18.4066   23.0420 C   0  0  0  0  0  0  0  0  0  0  0  0
   12.5405  -18.1790   24.1991 C   0  0  0  0  0  0  0  0  0  0  0  0
   12.9491  -19.3785   24.6419 N   0  0  0  0  0  0  0  0  0  0  0  0
   12.4815  -20.3084   23.8131 C   0  0  0  0  0  0  0  0  0  0  0  0
   11.7682  -19.7491   22.8254 N   0  0  0  0  0  0  0  0  0  0  0  0
   10.6509  -16.0243   24.2721 C   0  0  0  0  0  0  0  0  0  0  0  0
   11.0739  -14.8320   24.2786 O   0  0  0  0  0  0  0  0  0  0  0  0
   10.7117  -16.7655   25.4325 O   0  0  0  0  0  0  0  0  0  0  0  0
  2  1  1  0
  3  2  2  0
  4  2  1  0
  5  4  1  0
  6  8  1  0
  6  5  1  0
  6  7  1  6
  8  9  2  0
 11 10  1  6
 11 12  1  0
 13 11  1  0
 14  8  1  0
 13 14  1  6
 15 17  1  0
 15 13  1  0
 16 15  2  0
 18 25  1  0
 18 17  1  0
 18 19  1  6
 20 24  1  0
 20 19  1  0
 21 20  2  0
 22 21  1  0
 22 23  1  0
 23 24  2  0
 25 27  1  0
 26 25  2  0
M  END
$$$$
