QVH.pdb
     RDKit          3D

 27 27  0  0  1  0  0  0  0  0999 V2000
    5.1847  -20.6949   23.4209 N   0  0  0  0  0  0  0  0  0  0  0  0
    6.3834  -20.3539   24.0902 C   0  0  0  0  0  0  0  0  0  0  0  0
    6.9913  -21.2481   24.7216 O   0  0  0  0  0  0  0  0  0  0  0  0
    6.9030  -18.9910   24.0474 C   0  0  0  0  0  0  0  0  0  0  0  0
    6.0567  -17.9877   23.3441 C   0  0  0  0  0  0  0  0  0  0  0  0
    6.7945  -16.9693   22.5424 C   0  0  2  0  0  0  0  0  0  0  0  0
    7.7228  -17.5744   21.6069 N   0  0  0  0  0  0  0  0  0  0  0  0
    7.5776  -16.1027   23.4933 C   0  0  0  0  0  0  0  0  0  0  0  0
    8.7464  -16.4283   23.8269 O   0  0  0  0  0  0  0  0  0  0  0  0
    7.5652  -11.8933   26.0891 C   0  0  0  0  0  0  0  0  0  0  0  0
    6.7504  -12.8931   25.2875 C   0  0  2  0  0  0  0  0  0  0  0  0
    5.5687  -13.2959   26.1140 C   0  0  0  0  0  0  0  0  0  0  0  0
    7.6710  -14.0760   25.0005 C   0  0  2  0  0  0  0  0  0  0  0  0
    7.0344  -14.9143   24.0336 N   0  0  0  0  0  0  0  0  0  0  0  0
    8.0308  -14.7930   26.2451 C   0  0  0  0  0  0  0  0  0  0  0  0
    7.2972  -15.7337   26.6431 O   0  0  0  0  0  0  0  0  0  0  0  0
    9.1723  -14.4823   27.0346 N   0  0  0  0  0  0  0  0  0  0  0  0
    9.5994  -15.3318   28.1429 C   0  0  1  0  0  0  0  0  0  0  0  0
   10.4322  -16.4859   27.6537 C   0  0  0  0  0  0  0  0  0  0  0  0
   10.8560  -17.4147   28.7060 C   0  0  0  0  0  0  0  0  0  0  0  0
   10.5190  -17.2427   30.0530 C   0  0  0  0  0  0  0  0  0  0  0  0
   11.0671  -18.2661   30.7269 N   0  0  0  0  0  0  0  0  0  0  0  0
   11.7120  -19.0385   29.8564 C   0  0  0  0  0  0  0  0  0  0  0  0
   11.6032  -18.5474   28.6138 N   0  0  0  0  0  0  0  0  0  0  0  0
   10.3205  -14.5701   29.1677 C   0  0  0  0  0  0  0  0  0  0  0  0
   10.6944  -15.1855   30.2080 O   0  0  0  0  0  0  0  0  0  0  0  0
   10.6034  -13.2270   29.0431 O   0  0  0  0  0  0  0  0  0  0  0  0
  2  1  1  0
  3  2  2  0
  4  2  1  0
  5  4  1  0
  6  8  1  0
  6  5  1  0
  6  7  1  6
  8  9  2  0
 11 10  1  1
 11 12  1  0
 13 11  1  0
 14  8  1  0
 13 14  1  6
 15 17  1  0
 15 13  1  0
 16 15  2  0
 18 25  1  0
 18 17  1  0
 18 19  1  6
 20 24  1  0
 20 19  1  0
 21 20  2  0
 22 21  1  0
 22 23  1  0
 23 24  2  0
 25 27  1  0
 26 25  2  0
M  END
$$$$
