QVH.pdb
     RDKit          3D

 27 27  0  0  1  0  0  0  0  0999 V2000
   11.0021  -18.2854   13.7781 N   0  0  0  0  0  0  0  0  0  0  0  0
    9.5972  -18.1241   13.8134 C   0  0  0  0  0  0  0  0  0  0  0  0
    8.9058  -18.7097   12.9492 O   0  0  0  0  0  0  0  0  0  0  0  0
    8.9643  -17.2945   14.8335 C   0  0  0  0  0  0  0  0  0  0  0  0
    9.6258  -17.2757   16.1674 C   0  0  0  0  0  0  0  0  0  0  0  0
    8.7164  -17.4175   17.3409 C   0  0  2  0  0  0  0  0  0  0  0  0
    7.3895  -16.8974   17.0731 N   0  0  0  0  0  0  0  0  0  0  0  0
    9.3074  -16.6402   18.4876 C   0  0  0  0  0  0  0  0  0  0  0  0
   10.4957  -16.8486   18.8452 O   0  0  0  0  0  0  0  0  0  0  0  0
    6.7959  -14.3811   21.0963 C   0  0  0  0  0  0  0  0  0  0  0  0
    8.0469  -13.7419   20.5196 C   0  0  2  0  0  0  0  0  0  0  0  0
    7.6687  -13.0493   19.2472 C   0  0  0  0  0  0  0  0  0  0  0  0
    9.0418  -14.8731   20.2750 C   0  0  2  0  0  0  0  0  0  0  0  0
    8.5590  -15.6667   19.1887 N   0  0  0  0  0  0  0  0  0  0  0  0
    9.2791  -15.6578   21.5082 C   0  0  0  0  0  0  0  0  0  0  0  0
    8.4911  -16.5938   21.7988 O   0  0  0  0  0  0  0  0  0  0  0  0
   10.3593  -15.4184   22.4019 N   0  0  0  0  0  0  0  0  0  0  0  0
   10.8424  -16.4441   23.3221 C   0  0  1  0  0  0  0  0  0  0  0  0
   12.3202  -16.6737   23.1533 C   0  0  0  0  0  0  0  0  0  0  0  0
   12.8680  -17.7360   24.0023 C   0  0  0  0  0  0  0  0  0  0  0  0
   12.0645  -18.6701   24.6652 C   0  0  0  0  0  0  0  0  0  0  0  0
   12.8891  -19.4846   25.3423 N   0  0  0  0  0  0  0  0  0  0  0  0
   14.1394  -19.0878   25.1198 C   0  0  0  0  0  0  0  0  0  0  0  0
   14.1623  -18.0228   24.3060 N   0  0  0  0  0  0  0  0  0  0  0  0
   10.5243  -16.1199   24.7164 C   0  0  0  0  0  0  0  0  0  0  0  0
   10.8905  -16.9355   25.6115 O   0  0  0  0  0  0  0  0  0  0  0  0
    9.8507  -14.9753   25.0849 O   0  0  0  0  0  0  0  0  0  0  0  0
  2  1  1  0
  3  2  2  0
  4  2  1  0
  5  4  1  0
  6  8  1  0
  6  5  1  0
  6  7  1  6
  8  9  2  0
 11 10  1  6
 11 12  1  0
 13 11  1  0
 14  8  1  0
 13 14  1  6
 15 17  1  0
 15 13  1  0
 16 15  2  0
 18 25  1  0
 18 17  1  0
 18 19  1  1
 20 24  1  0
 20 19  1  0
 21 20  2  0
 22 21  1  0
 22 23  1  0
 23 24  2  0
 25 27  1  0
 26 25  2  0
M  END
$$$$
