QVH.pdb
     RDKit          3D

 27 27  0  0  1  0  0  0  0  0999 V2000
    6.4615  -20.7854   19.3606 N   0  0  0  0  0  0  0  0  0  0  0  0
    7.4907  -20.7422   18.3911 C   0  0  0  0  0  0  0  0  0  0  0  0
    8.0536  -21.8129   18.0680 O   0  0  0  0  0  0  0  0  0  0  0  0
    7.8897  -19.4792   17.7787 C   0  0  0  0  0  0  0  0  0  0  0  0
    7.2182  -18.2563   18.2994 C   0  0  0  0  0  0  0  0  0  0  0  0
    7.6203  -16.9741   17.6526 C   0  0  2  0  0  0  0  0  0  0  0  0
    8.3279  -17.1869   16.4048 N   0  0  0  0  0  0  0  0  0  0  0  0
    8.5358  -16.2404   18.5971 C   0  0  0  0  0  0  0  0  0  0  0  0
    9.7818  -16.2787   18.4253 O   0  0  0  0  0  0  0  0  0  0  0  0
    6.7336  -14.1675   21.7393 C   0  0  0  0  0  0  0  0  0  0  0  0
    8.0325  -13.6182   21.1762 C   0  0  2  0  0  0  0  0  0  0  0  0
    7.6923  -12.6644   20.0733 C   0  0  0  0  0  0  0  0  0  0  0  0
    8.8276  -14.8161   20.6646 C   0  0  2  0  0  0  0  0  0  0  0  0
    8.0339  -15.4968   19.6900 N   0  0  0  0  0  0  0  0  0  0  0  0
    9.2588  -15.6918   21.7781 C   0  0  0  0  0  0  0  0  0  0  0  0
    8.5132  -16.6396   22.1350 O   0  0  0  0  0  0  0  0  0  0  0  0
   10.4830  -15.5287   22.4834 N   0  0  0  0  0  0  0  0  0  0  0  0
   10.8558  -16.3991   23.5951 C   0  0  1  0  0  0  0  0  0  0  0  0
   12.3509  -16.4711   23.7515 C   0  0  0  0  0  0  0  0  0  0  0  0
   13.0455  -17.1174   22.6338 C   0  0  0  0  0  0  0  0  0  0  0  0
   12.4090  -17.9924   21.7468 C   0  0  0  0  0  0  0  0  0  0  0  0
   13.3340  -18.3912   20.8596 N   0  0  0  0  0  0  0  0  0  0  0  0
   14.4865  -17.8024   21.1685 C   0  0  0  0  0  0  0  0  0  0  0  0
   14.3454  -17.0180   22.2464 N   0  0  0  0  0  0  0  0  0  0  0  0
   10.2229  -15.9822   24.8505 C   0  0  0  0  0  0  0  0  0  0  0  0
    9.5683  -14.8996   24.8517 O   0  0  0  0  0  0  0  0  0  0  0  0
   10.3121  -16.7151   26.0144 O   0  0  0  0  0  0  0  0  0  0  0  0
  2  1  1  0
  3  2  2  0
  4  2  1  0
  5  4  1  0
  6  8  1  0
  6  5  1  0
  6  7  1  6
  8  9  2  0
 11 10  1  6
 11 12  1  0
 13 11  1  0
 14  8  1  0
 13 14  1  6
 15 17  1  0
 15 13  1  0
 16 15  2  0
 18 25  1  0
 18 17  1  0
 18 19  1  1
 20 24  1  0
 20 19  1  0
 21 20  2  0
 22 21  1  0
 22 23  1  0
 23 24  2  0
 25 27  1  0
 26 25  2  0
M  END
$$$$
