QVH.pdb
     RDKit          3D

 27 27  0  0  1  0  0  0  0  0999 V2000
   11.5611  -17.1109   14.2968 N   0  0  0  0  0  0  0  0  0  0  0  0
   10.4007  -17.2836   13.5064 C   0  0  0  0  0  0  0  0  0  0  0  0
   10.5308  -17.7196   12.3399 O   0  0  0  0  0  0  0  0  0  0  0  0
    9.0795  -16.9620   14.0360 C   0  0  0  0  0  0  0  0  0  0  0  0
    9.0185  -16.6189   15.4837 C   0  0  0  0  0  0  0  0  0  0  0  0
    8.3885  -15.3071   15.8102 C   0  0  2  0  0  0  0  0  0  0  0  0
    8.4153  -14.3905   14.6867 N   0  0  0  0  0  0  0  0  0  0  0  0
    9.1597  -14.6873   16.9457 C   0  0  0  0  0  0  0  0  0  0  0  0
   10.2406  -14.0840   16.7194 O   0  0  0  0  0  0  0  0  0  0  0  0
    7.1939  -14.3346   20.5535 C   0  0  0  0  0  0  0  0  0  0  0  0
    8.3065  -13.3675   20.1890 C   0  0  2  0  0  0  0  0  0  0  0  0
    7.7144  -12.2731   19.3562 C   0  0  0  0  0  0  0  0  0  0  0  0
    9.3463  -14.1710   19.4129 C   0  0  2  0  0  0  0  0  0  0  0  0
    8.7024  -14.7616   18.2817 N   0  0  0  0  0  0  0  0  0  0  0  0
   10.0196  -15.1627   20.2823 C   0  0  0  0  0  0  0  0  0  0  0  0
    9.6017  -16.3487   20.2951 O   0  0  0  0  0  0  0  0  0  0  0  0
   11.1281  -14.8566   21.1192 N   0  0  0  0  0  0  0  0  0  0  0  0
   11.8237  -15.8857   21.8870 C   0  0  1  0  0  0  0  0  0  0  0  0
   13.2651  -15.5155   22.1115 C   0  0  0  0  0  0  0  0  0  0  0  0
   14.0184  -15.2453   20.8831 C   0  0  0  0  0  0  0  0  0  0  0  0
   14.0157  -16.1105   19.7836 C   0  0  0  0  0  0  0  0  0  0  0  0
   14.8025  -15.5561   18.8479 N   0  0  0  0  0  0  0  0  0  0  0  0
   15.2739  -14.4085   19.3287 C   0  0  0  0  0  0  0  0  0  0  0  0
   14.8148  -14.1886   20.5688 N   0  0  0  0  0  0  0  0  0  0  0  0
   11.1545  -16.1605   23.1626 C   0  0  0  0  0  0  0  0  0  0  0  0
   10.1488  -15.4558   23.4665 O   0  0  0  0  0  0  0  0  0  0  0  0
   11.5733  -17.1446   24.0319 O   0  0  0  0  0  0  0  0  0  0  0  0
  2  1  1  0
  3  2  2  0
  4  2  1  0
  5  4  1  0
  6  8  1  0
  6  5  1  0
  6  7  1  6
  8  9  2  0
 11 10  1  6
 11 12  1  0
 13 11  1  0
 14  8  1  0
 13 14  1  6
 15 17  1  0
 15 13  1  0
 16 15  2  0
 18 25  1  0
 18 17  1  0
 18 19  1  1
 20 24  1  0
 20 19  1  0
 21 20  2  0
 22 21  1  0
 22 23  1  0
 23 24  2  0
 25 27  1  0
 26 25  2  0
M  END
$$$$
