SHH.pdb
     RDKit          3D

 27 28  0  0  1  0  0  0  0  0999 V2000
   29.4894  -33.4982  -18.3094 O   0  0  0  0  0  0  0  0  0  0  0  0
   30.8721  -33.5340  -18.4269 C   0  0  0  0  0  0  0  0  0  0  0  0
   31.5356  -33.1259  -17.1052 C   0  0  2  0  0  0  0  0  0  0  0  0
   30.9462  -33.9735  -16.0860 N   0  0  0  0  0  0  0  0  0  0  0  0
   31.1046  -31.7249  -16.8427 C   0  0  0  0  0  0  0  0  0  0  0  0
   30.4359  -31.4227  -15.8010 O   0  0  0  0  0  0  0  0  0  0  0  0
   31.4021  -30.6464  -17.7176 N   0  0  0  0  0  0  0  0  0  0  0  0
   31.0484  -29.2903  -17.4334 C   0  0  1  0  0  0  0  0  0  0  0  0
   31.8267  -28.2819  -18.2515 C   0  0  0  0  0  0  0  0  0  0  0  0
   31.4335  -26.8939  -17.9923 C   0  0  0  0  0  0  0  0  0  0  0  0
   31.9487  -26.1026  -16.9864 C   0  0  0  0  0  0  0  0  0  0  0  0
   31.3681  -24.8840  -17.0324 N   0  0  0  0  0  0  0  0  0  0  0  0
   30.4854  -24.8904  -18.0603 C   0  0  0  0  0  0  0  0  0  0  0  0
   30.5400  -26.1158  -18.6286 N   0  0  0  0  0  0  0  0  0  0  0  0
   29.5740  -29.1078  -17.6813 C   0  0  0  0  0  0  0  0  0  0  0  0
   28.9965  -29.6989  -18.6332 O   0  0  0  0  0  0  0  0  0  0  0  0
   28.7784  -28.2663  -16.8566 N   0  0  0  0  0  0  0  0  0  0  0  0
   27.3270  -28.1290  -17.1284 C   0  0  1  0  0  0  0  0  0  0  0  0
   26.6669  -29.1395  -16.2585 C   0  0  0  0  0  0  0  0  0  0  0  0
   25.2040  -29.1901  -16.3138 C   0  0  0  0  0  0  0  0  0  0  0  0
   24.4844  -28.3370  -17.1397 C   0  0  0  0  0  0  0  0  0  0  0  0
   23.1879  -28.5984  -16.9914 N   0  0  0  0  0  0  0  0  0  0  0  0
   23.0648  -29.5788  -16.1081 C   0  0  0  0  0  0  0  0  0  0  0  0
   24.2873  -29.9440  -15.6913 N   0  0  0  0  0  0  0  0  0  0  0  0
   26.9299  -26.7484  -16.6762 C   0  0  0  0  0  0  0  0  0  0  0  0
   27.3244  -26.2779  -15.5756 O   0  0  0  0  0  0  0  0  0  0  0  0
   26.1182  -25.9552  -17.4601 O   0  0  0  0  0  0  0  0  0  0  0  0
  2  1  1  0
  2  3  1  0
  3  4  1  1
  5  3  1  0
  5  6  2  0
  7  5  1  0
  8  7  1  0
  8  9  1  6
 10  9  1  0
 10 11  2  0
 12 11  1  0
 13 14  2  0
 13 12  1  0
 14 10  1  0
 15  8  1  0
 16 15  2  0
 17 15  1  0
 18 17  1  0
 18 19  1  1
 19 20  1  0
 20 24  1  0
 20 21  2  0
 21 22  1  0
 23 22  1  0
 24 23  2  0
 25 18  1  0
 26 25  2  0
 27 25  1  0
M  END
$$$$
