SHH.pdb
     RDKit          3D

 27 28  0  0  1  0  0  0  0  0999 V2000
   23.7338  -14.9703  -20.6532 O   0  0  0  0  0  0  0  0  0  0  0  0
   22.9094  -13.9159  -20.2846 C   0  0  0  0  0  0  0  0  0  0  0  0
   23.7076  -12.8483  -19.5253 C   0  0  2  0  0  0  0  0  0  0  0  0
   24.5844  -13.5727  -18.6248 N   0  0  0  0  0  0  0  0  0  0  0  0
   22.7175  -12.1020  -18.7005 C   0  0  0  0  0  0  0  0  0  0  0  0
   21.8311  -11.3623  -19.2397 O   0  0  0  0  0  0  0  0  0  0  0  0
   22.6908  -12.1603  -17.2817 N   0  0  0  0  0  0  0  0  0  0  0  0
   21.7621  -11.4179  -16.4873 C   0  0  1  0  0  0  0  0  0  0  0  0
   21.2910  -12.1650  -15.2577 C   0  0  0  0  0  0  0  0  0  0  0  0
   20.3579  -13.2541  -15.5599 C   0  0  0  0  0  0  0  0  0  0  0  0
   20.6961  -14.5906  -15.6143 C   0  0  0  0  0  0  0  0  0  0  0  0
   19.5996  -15.3188  -15.9170 N   0  0  0  0  0  0  0  0  0  0  0  0
   18.5628  -14.4577  -16.0565 C   0  0  0  0  0  0  0  0  0  0  0  0
   19.0424  -13.2131  -15.8364 N   0  0  0  0  0  0  0  0  0  0  0  0
   22.4032  -10.1198  -16.0716 C   0  0  0  0  0  0  0  0  0  0  0  0
   23.6532  -10.0250  -15.9392 O   0  0  0  0  0  0  0  0  0  0  0  0
   21.6290   -8.9558  -15.8132 N   0  0  0  0  0  0  0  0  0  0  0  0
   22.3077   -7.6774  -15.4901 C   0  0  1  0  0  0  0  0  0  0  0  0
   22.6807   -7.0874  -16.8040 C   0  0  0  0  0  0  0  0  0  0  0  0
   23.2215   -5.7263  -16.7765 C   0  0  0  0  0  0  0  0  0  0  0  0
   24.4171   -5.4133  -17.4094 C   0  0  0  0  0  0  0  0  0  0  0  0
   24.6671   -4.1192  -17.2254 N   0  0  0  0  0  0  0  0  0  0  0  0
   23.6792   -3.6083  -16.5044 C   0  0  0  0  0  0  0  0  0  0  0  0
   22.7959   -4.5802  -16.2275 N   0  0  0  0  0  0  0  0  0  0  0  0
   21.2825   -6.7985  -14.8234 C   0  0  0  0  0  0  0  0  0  0  0  0
   21.5894   -5.6702  -14.3532 O   0  0  0  0  0  0  0  0  0  0  0  0
   19.9701   -7.2069  -14.7089 O   0  0  0  0  0  0  0  0  0  0  0  0
  2  1  1  0
  2  3  1  0
  3  4  1  1
  5  3  1  0
  5  6  2  0
  7  5  1  0
  8  7  1  0
  8  9  1  1
 10  9  1  0
 10 11  2  0
 12 11  1  0
 13 14  2  0
 13 12  1  0
 14 10  1  0
 15  8  1  0
 16 15  2  0
 17 15  1  0
 18 17  1  0
 18 19  1  6
 19 20  1  0
 20 24  1  0
 20 21  2  0
 21 22  1  0
 23 22  1  0
 24 23  2  0
 25 18  1  0
 26 25  2  0
 27 25  1  0
M  END
$$$$
