SHH.pdb
     RDKit          3D

 27 28  0  0  1  0  0  0  0  0999 V2000
   33.5965  -29.6942    3.1795 O   0  0  0  0  0  0  0  0  0  0  0  0
   34.5969  -30.3393    3.8937 C   0  0  0  0  0  0  0  0  0  0  0  0
   35.9488  -30.1862    3.1849 C   0  0  2  0  0  0  0  0  0  0  0  0
   36.1318  -28.7616    2.9808 N   0  0  0  0  0  0  0  0  0  0  0  0
   35.7887  -30.8245    1.8491 C   0  0  0  0  0  0  0  0  0  0  0  0
   35.4561  -30.1423    0.8255 O   0  0  0  0  0  0  0  0  0  0  0  0
   35.9912  -32.2122    1.6246 N   0  0  0  0  0  0  0  0  0  0  0  0
   35.8927  -32.8165    0.3324 C   0  0  1  0  0  0  0  0  0  0  0  0
   36.6558  -34.1190    0.2180 C   0  0  0  0  0  0  0  0  0  0  0  0
   38.0810  -33.9355   -0.0709 C   0  0  0  0  0  0  0  0  0  0  0  0
   38.6856  -32.7206   -0.3193 C   0  0  0  0  0  0  0  0  0  0  0  0
   40.0031  -32.9133   -0.5462 N   0  0  0  0  0  0  0  0  0  0  0  0
   40.2451  -34.2425   -0.4446 C   0  0  0  0  0  0  0  0  0  0  0  0
   39.0692  -34.8438   -0.1566 N   0  0  0  0  0  0  0  0  0  0  0  0
   34.4399  -33.0558    0.0146 C   0  0  0  0  0  0  0  0  0  0  0  0
   33.5568  -32.9776    0.9107 O   0  0  0  0  0  0  0  0  0  0  0  0
   34.0083  -33.3777   -1.3012 N   0  0  0  0  0  0  0  0  0  0  0  0
   32.5635  -33.5683   -1.5757 C   0  0  1  0  0  0  0  0  0  0  0  0
   32.4415  -33.5654   -3.0586 C   0  0  0  0  0  0  0  0  0  0  0  0
   31.1219  -33.8925   -3.6039 C   0  0  0  0  0  0  0  0  0  0  0  0
   30.0291  -34.0966   -2.7721 C   0  0  0  0  0  0  0  0  0  0  0  0
   28.9691  -34.3760   -3.5269 N   0  0  0  0  0  0  0  0  0  0  0  0
   29.3514  -34.3555   -4.7958 C   0  0  0  0  0  0  0  0  0  0  0  0
   30.6600  -34.0620   -4.8506 N   0  0  0  0  0  0  0  0  0  0  0  0
   32.1981  -34.9312   -1.0494 C   0  0  0  0  0  0  0  0  0  0  0  0
   33.0216  -35.8851   -1.0660 O   0  0  0  0  0  0  0  0  0  0  0  0
   30.9434  -35.1744   -0.5307 O   0  0  0  0  0  0  0  0  0  0  0  0
  2  1  1  0
  2  3  1  0
  3  4  1  6
  5  3  1  0
  5  6  2  0
  7  5  1  0
  8  7  1  0
  8  9  1  1
 10  9  1  0
 10 11  2  0
 12 11  1  0
 13 14  2  0
 13 12  1  0
 14 10  1  0
 15  8  1  0
 16 15  2  0
 17 15  1  0
 18 17  1  0
 18 19  1  6
 19 20  1  0
 20 24  1  0
 20 21  2  0
 21 22  1  0
 23 22  1  0
 24 23  2  0
 25 18  1  0
 26 25  2  0
 27 25  1  0
M  END
$$$$
