SHH.pdb
     RDKit          3D

 27 28  0  0  1  0  0  0  0  0999 V2000
   27.7298  -10.5442  -15.4099 O   0  0  0  0  0  0  0  0  0  0  0  0
   27.2430  -11.8441  -15.4008 C   0  0  0  0  0  0  0  0  0  0  0  0
   26.7779  -12.2547  -16.8039 C   0  0  2  0  0  0  0  0  0  0  0  0
   27.8522  -11.8809  -17.7043 N   0  0  0  0  0  0  0  0  0  0  0  0
   25.5996  -11.3988  -17.1148 C   0  0  0  0  0  0  0  0  0  0  0  0
   25.6395  -10.5321  -18.0480 O   0  0  0  0  0  0  0  0  0  0  0  0
   24.3713  -11.4855  -16.4073 N   0  0  0  0  0  0  0  0  0  0  0  0
   23.1890  -10.7878  -16.8074 C   0  0  1  0  0  0  0  0  0  0  0  0
   21.9362  -11.6343  -16.7305 C   0  0  0  0  0  0  0  0  0  0  0  0
   21.8292  -12.6159  -17.8137 C   0  0  0  0  0  0  0  0  0  0  0  0
   22.6042  -12.6190  -18.9550 C   0  0  0  0  0  0  0  0  0  0  0  0
   22.2439  -13.6582  -19.7390 N   0  0  0  0  0  0  0  0  0  0  0  0
   21.2443  -14.3195  -19.1072 C   0  0  0  0  0  0  0  0  0  0  0  0
   21.0080  -13.6730  -17.9437 N   0  0  0  0  0  0  0  0  0  0  0  0
   23.0248   -9.5674  -15.9400 C   0  0  0  0  0  0  0  0  0  0  0  0
   23.2917   -9.6041  -14.7086 O   0  0  0  0  0  0  0  0  0  0  0  0
   22.5649   -8.3318  -16.4718 N   0  0  0  0  0  0  0  0  0  0  0  0
   22.3862   -7.1651  -15.5739 C   0  0  1  0  0  0  0  0  0  0  0  0
   22.4606   -5.9722  -16.4599 C   0  0  0  0  0  0  0  0  0  0  0  0
   22.1847   -4.6774  -15.8329 C   0  0  0  0  0  0  0  0  0  0  0  0
   22.2199   -4.5227  -14.4536 C   0  0  0  0  0  0  0  0  0  0  0  0
   21.9331   -3.2562  -14.1623 N   0  0  0  0  0  0  0  0  0  0  0  0
   21.7197   -2.6110  -15.3002 C   0  0  0  0  0  0  0  0  0  0  0  0
   21.8710   -3.4692  -16.3211 N   0  0  0  0  0  0  0  0  0  0  0  0
   20.9991   -7.2703  -14.9970 C   0  0  0  0  0  0  0  0  0  0  0  0
   20.0315   -7.6947  -15.6839 O   0  0  0  0  0  0  0  0  0  0  0  0
   20.7479   -6.9029  -13.6914 O   0  0  0  0  0  0  0  0  0  0  0  0
  2  1  1  0
  2  3  1  0
  3  4  1  6
  5  3  1  0
  5  6  2  0
  7  5  1  0
  8  7  1  0
  8  9  1  1
 10  9  1  0
 10 11  2  0
 12 11  1  0
 13 14  2  0
 13 12  1  0
 14 10  1  0
 15  8  1  0
 16 15  2  0
 17 15  1  0
 18 17  1  0
 18 19  1  6
 19 20  1  0
 20 24  1  0
 20 21  2  0
 21 22  1  0
 23 22  1  0
 24 23  2  0
 25 18  1  0
 26 25  2  0
 27 25  1  0
M  END
$$$$
