SHH.pdb
     RDKit          3D

 27 28  0  0  1  0  0  0  0  0999 V2000
   18.0097  -12.9733  -20.5020 O   0  0  0  0  0  0  0  0  0  0  0  0
   16.9528  -12.0745  -20.5473 C   0  0  0  0  0  0  0  0  0  0  0  0
   17.4727  -10.6312  -20.5416 C   0  0  2  0  0  0  0  0  0  0  0  0
   18.8874  -10.7168  -20.8511 N   0  0  0  0  0  0  0  0  0  0  0  0
   17.3381  -10.1499  -19.1388 C   0  0  0  0  0  0  0  0  0  0  0  0
   16.1942  -10.0030  -18.5968 O   0  0  0  0  0  0  0  0  0  0  0  0
   18.4530   -9.8265  -18.3206 N   0  0  0  0  0  0  0  0  0  0  0  0
   18.3240   -9.2744  -17.0079 C   0  0  1  0  0  0  0  0  0  0  0  0
   19.0574  -10.0676  -15.9473 C   0  0  0  0  0  0  0  0  0  0  0  0
   18.4288  -11.3568  -15.6453 C   0  0  0  0  0  0  0  0  0  0  0  0
   17.1872  -11.5123  -15.0644 C   0  0  0  0  0  0  0  0  0  0  0  0
   16.9168  -12.8288  -14.9297 N   0  0  0  0  0  0  0  0  0  0  0  0
   17.9764  -13.5160  -15.4203 C   0  0  0  0  0  0  0  0  0  0  0  0
   18.8808  -12.6070  -15.8485 N   0  0  0  0  0  0  0  0  0  0  0  0
   18.8370   -7.8583  -17.0209 C   0  0  0  0  0  0  0  0  0  0  0  0
   19.9507   -7.5749  -17.5390 O   0  0  0  0  0  0  0  0  0  0  0  0
   18.0905   -6.7902  -16.4527 N   0  0  0  0  0  0  0  0  0  0  0  0
   18.5917   -5.3992  -16.5678 C   0  0  1  0  0  0  0  0  0  0  0  0
   18.5569   -5.0880  -18.0223 C   0  0  0  0  0  0  0  0  0  0  0  0
   18.8565   -3.7046  -18.3995 C   0  0  0  0  0  0  0  0  0  0  0  0
   17.8422   -2.7963  -18.6713 C   0  0  0  0  0  0  0  0  0  0  0  0
   18.3944   -1.6266  -18.9845 N   0  0  0  0  0  0  0  0  0  0  0  0
   19.7111   -1.7635  -18.9205 C   0  0  0  0  0  0  0  0  0  0  0  0
   19.9998   -3.0253  -18.5651 N   0  0  0  0  0  0  0  0  0  0  0  0
   17.6028   -4.5209  -15.8477 C   0  0  0  0  0  0  0  0  0  0  0  0
   16.3925   -4.8521  -15.7304 O   0  0  0  0  0  0  0  0  0  0  0  0
   17.9975   -3.3217  -15.2923 O   0  0  0  0  0  0  0  0  0  0  0  0
  2  1  1  0
  2  3  1  0
  3  4  1  1
  5  3  1  0
  5  6  2  0
  7  5  1  0
  8  7  1  0
  8  9  1  1
 10  9  1  0
 10 11  2  0
 12 11  1  0
 13 14  2  0
 13 12  1  0
 14 10  1  0
 15  8  1  0
 16 15  2  0
 17 15  1  0
 18 17  1  0
 18 19  1  6
 19 20  1  0
 20 24  1  0
 20 21  2  0
 21 22  1  0
 23 22  1  0
 24 23  2  0
 25 18  1  0
 26 25  2  0
 27 25  1  0
M  END
$$$$
