SHH.pdb
     RDKit          3D

 27 28  0  0  1  0  0  0  0  0999 V2000
   46.5816  -21.5148   -8.2383 O   0  0  0  0  0  0  0  0  0  0  0  0
   46.2355  -20.4970   -9.1166 C   0  0  0  0  0  0  0  0  0  0  0  0
   46.1875  -21.0220  -10.5572 C   0  0  2  0  0  0  0  0  0  0  0  0
   47.5591  -21.3330  -10.9132 N   0  0  0  0  0  0  0  0  0  0  0  0
   45.7433  -19.8767  -11.3990 C   0  0  0  0  0  0  0  0  0  0  0  0
   46.5340  -18.9187  -11.6830 O   0  0  0  0  0  0  0  0  0  0  0  0
   44.4322  -19.7722  -11.9349 N   0  0  0  0  0  0  0  0  0  0  0  0
   44.0174  -18.6951  -12.7789 C   0  0  1  0  0  0  0  0  0  0  0  0
   42.8334  -19.0407  -13.6568 C   0  0  0  0  0  0  0  0  0  0  0  0
   42.4235  -17.9449  -14.5397 C   0  0  0  0  0  0  0  0  0  0  0  0
   43.0639  -16.7267  -14.6348 C   0  0  0  0  0  0  0  0  0  0  0  0
   42.4256  -15.9538  -15.5401 N   0  0  0  0  0  0  0  0  0  0  0  0
   41.3817  -16.6690  -16.0244 C   0  0  0  0  0  0  0  0  0  0  0  0
   41.3977  -17.8712  -15.4064 N   0  0  0  0  0  0  0  0  0  0  0  0
   43.6760  -17.5054  -11.9204 C   0  0  0  0  0  0  0  0  0  0  0  0
   42.8387  -17.5990  -10.9828 O   0  0  0  0  0  0  0  0  0  0  0  0
   44.2807  -16.2363  -12.1316 N   0  0  0  0  0  0  0  0  0  0  0  0
   43.9175  -15.0937  -11.2587 C   0  0  1  0  0  0  0  0  0  0  0  0
   44.9609  -15.0619  -10.1985 C   0  0  0  0  0  0  0  0  0  0  0  0
   44.9428  -13.9038   -9.3017 C   0  0  0  0  0  0  0  0  0  0  0  0
   43.7751  -13.5029   -8.6664 C   0  0  0  0  0  0  0  0  0  0  0  0
   44.0449  -12.4349   -7.9197 N   0  0  0  0  0  0  0  0  0  0  0  0
   45.3316  -12.1497   -8.0602 C   0  0  0  0  0  0  0  0  0  0  0  0
   45.8845  -13.0392   -8.8996 N   0  0  0  0  0  0  0  0  0  0  0  0
   44.0279  -13.8511  -12.1024 C   0  0  0  0  0  0  0  0  0  0  0  0
   44.8190  -13.7891  -13.0815 O   0  0  0  0  0  0  0  0  0  0  0  0
   43.2604  -12.7392  -11.8250 O   0  0  0  0  0  0  0  0  0  0  0  0
  2  1  1  0
  2  3  1  0
  3  4  1  6
  5  3  1  0
  5  6  2  0
  7  5  1  0
  8  7  1  0
  8  9  1  1
 10  9  1  0
 10 11  2  0
 12 11  1  0
 13 14  2  0
 13 12  1  0
 14 10  1  0
 15  8  1  0
 16 15  2  0
 17 15  1  0
 18 17  1  0
 18 19  1  1
 19 20  1  0
 20 24  1  0
 20 21  2  0
 21 22  1  0
 23 22  1  0
 24 23  2  0
 25 18  1  0
 26 25  2  0
 27 25  1  0
M  END
$$$$
