SHH.pdb
     RDKit          3D

 27 28  0  0  1  0  0  0  0  0999 V2000
   27.8251   -9.7183  -16.0344 O   0  0  0  0  0  0  0  0  0  0  0  0
   26.5367   -9.3135  -16.3555 C   0  0  0  0  0  0  0  0  0  0  0  0
   25.5635  -10.4963  -16.2697 C   0  0  2  0  0  0  0  0  0  0  0  0
   25.9043  -11.3727  -17.3743 N   0  0  0  0  0  0  0  0  0  0  0  0
   24.2088   -9.9354  -16.5298 C   0  0  0  0  0  0  0  0  0  0  0  0
   23.7772   -9.7725  -17.7176 O   0  0  0  0  0  0  0  0  0  0  0  0
   23.3183   -9.5494  -15.4930 N   0  0  0  0  0  0  0  0  0  0  0  0
   21.9825   -9.1015  -15.7377 C   0  0  1  0  0  0  0  0  0  0  0  0
   20.9515   -9.7758  -14.8578 C   0  0  0  0  0  0  0  0  0  0  0  0
   20.5814  -11.1174  -15.3176 C   0  0  0  0  0  0  0  0  0  0  0  0
   21.0771  -11.7275  -16.4514 C   0  0  0  0  0  0  0  0  0  0  0  0
   20.5271  -12.9547  -16.5773 N   0  0  0  0  0  0  0  0  0  0  0  0
   19.6835  -13.1337  -15.5323 C   0  0  0  0  0  0  0  0  0  0  0  0
   19.7306  -12.0105  -14.7815 N   0  0  0  0  0  0  0  0  0  0  0  0
   21.9216   -7.6107  -15.5310 C   0  0  0  0  0  0  0  0  0  0  0  0
   22.4106   -7.0768  -14.4991 O   0  0  0  0  0  0  0  0  0  0  0  0
   21.3136   -6.7504  -16.4857 N   0  0  0  0  0  0  0  0  0  0  0  0
   21.2926   -5.2866  -16.2490 C   0  0  1  0  0  0  0  0  0  0  0  0
   20.9457   -4.6810  -17.5630 C   0  0  0  0  0  0  0  0  0  0  0  0
   20.7938   -3.2243  -17.5887 C   0  0  0  0  0  0  0  0  0  0  0  0
   19.5386   -2.6310  -17.6036 C   0  0  0  0  0  0  0  0  0  0  0  0
   19.6954   -1.3096  -17.6261 N   0  0  0  0  0  0  0  0  0  0  0  0
   20.9950   -1.0499  -17.6259 C   0  0  0  0  0  0  0  0  0  0  0  0
   21.6698   -2.2100  -17.6032 N   0  0  0  0  0  0  0  0  0  0  0  0
   20.1794   -5.0215  -15.2700 C   0  0  0  0  0  0  0  0  0  0  0  0
   20.1236   -3.9477  -14.6125 O   0  0  0  0  0  0  0  0  0  0  0  0
   19.1830   -5.9529  -15.0650 O   0  0  0  0  0  0  0  0  0  0  0  0
  2  1  1  0
  2  3  1  0
  3  4  1  6
  5  3  1  0
  5  6  2  0
  7  5  1  0
  8  7  1  0
  8  9  1  1
 10  9  1  0
 10 11  2  0
 12 11  1  0
 13 14  2  0
 13 12  1  0
 14 10  1  0
 15  8  1  0
 16 15  2  0
 17 15  1  0
 18 17  1  0
 18 19  1  6
 19 20  1  0
 20 24  1  0
 20 21  2  0
 21 22  1  0
 23 22  1  0
 24 23  2  0
 25 18  1  0
 26 25  2  0
 27 25  1  0
M  END
$$$$
