SHH.pdb
     RDKit          3D

 27 28  0  0  1  0  0  0  0  0999 V2000
   17.0548  -15.2787  -13.7282 O   0  0  0  0  0  0  0  0  0  0  0  0
   18.1737  -14.5477  -14.1030 C   0  0  0  0  0  0  0  0  0  0  0  0
   18.5879  -14.8953  -15.5387 C   0  0  2  0  0  0  0  0  0  0  0  0
   19.1311  -16.2393  -15.4816 N   0  0  0  0  0  0  0  0  0  0  0  0
   19.6987  -13.9655  -15.8840 C   0  0  0  0  0  0  0  0  0  0  0  0
   20.8647  -14.1166  -15.3929 O   0  0  0  0  0  0  0  0  0  0  0  0
   19.5410  -12.8653  -16.7682 N   0  0  0  0  0  0  0  0  0  0  0  0
   20.6073  -11.9730  -17.1020 C   0  0  1  0  0  0  0  0  0  0  0  0
   20.7277  -11.7092  -18.5879 C   0  0  0  0  0  0  0  0  0  0  0  0
   21.2991  -12.8336  -19.3347 C   0  0  0  0  0  0  0  0  0  0  0  0
   21.8130  -13.9798  -18.7642 C   0  0  0  0  0  0  0  0  0  0  0  0
   22.2546  -14.8060  -19.7372 N   0  0  0  0  0  0  0  0  0  0  0  0
   22.0266  -14.1964  -20.9255 C   0  0  0  0  0  0  0  0  0  0  0  0
   21.4478  -13.0039  -20.6604 N   0  0  0  0  0  0  0  0  0  0  0  0
   20.3995  -10.6700  -16.3756 C   0  0  0  0  0  0  0  0  0  0  0  0
   19.2581  -10.3312  -15.9615 O   0  0  0  0  0  0  0  0  0  0  0  0
   21.4758   -9.7746  -16.1289 N   0  0  0  0  0  0  0  0  0  0  0  0
   21.2092   -8.4598  -15.4969 C   0  0  1  0  0  0  0  0  0  0  0  0
   22.5447   -7.8254  -15.3309 C   0  0  0  0  0  0  0  0  0  0  0  0
   22.5535   -6.4453  -14.8403 C   0  0  0  0  0  0  0  0  0  0  0  0
   21.3751   -5.7932  -14.5026 C   0  0  0  0  0  0  0  0  0  0  0  0
   21.6747   -4.5634  -14.0917 N   0  0  0  0  0  0  0  0  0  0  0  0
   22.9904   -4.4172  -14.1576 C   0  0  0  0  0  0  0  0  0  0  0  0
   23.5319   -5.5582  -14.6122 N   0  0  0  0  0  0  0  0  0  0  0  0
   20.3985   -7.6610  -16.4832 C   0  0  0  0  0  0  0  0  0  0  0  0
   20.6727   -7.6616  -17.7133 O   0  0  0  0  0  0  0  0  0  0  0  0
   19.3257   -6.9019  -16.0644 O   0  0  0  0  0  0  0  0  0  0  0  0
  2  1  1  0
  2  3  1  0
  3  4  1  1
  5  3  1  0
  5  6  2  0
  7  5  1  0
  8  7  1  0
  8  9  1  6
 10  9  1  0
 10 11  2  0
 12 11  1  0
 13 14  2  0
 13 12  1  0
 14 10  1  0
 15  8  1  0
 16 15  2  0
 17 15  1  0
 18 17  1  0
 18 19  1  6
 19 20  1  0
 20 24  1  0
 20 21  2  0
 21 22  1  0
 23 22  1  0
 24 23  2  0
 25 18  1  0
 26 25  2  0
 27 25  1  0
M  END
$$$$
