SHH.pdb
     RDKit          3D

 27 28  0  0  1  0  0  0  0  0999 V2000
   18.3822  -14.8940  -14.0807 O   0  0  0  0  0  0  0  0  0  0  0  0
   19.0589  -13.8612  -14.7150 C   0  0  0  0  0  0  0  0  0  0  0  0
   18.8762  -13.9517  -16.2355 C   0  0  2  0  0  0  0  0  0  0  0  0
   19.6392  -15.1104  -16.6596 N   0  0  0  0  0  0  0  0  0  0  0  0
   19.5295  -12.7394  -16.8023 C   0  0  0  0  0  0  0  0  0  0  0  0
   20.7710  -12.7299  -17.0890 O   0  0  0  0  0  0  0  0  0  0  0  0
   18.8292  -11.5307  -17.0588 N   0  0  0  0  0  0  0  0  0  0  0  0
   19.4573  -10.3634  -17.5951 C   0  0  1  0  0  0  0  0  0  0  0  0
   18.5253   -9.5071  -18.4258 C   0  0  0  0  0  0  0  0  0  0  0  0
   19.1898   -8.3588  -19.0488 C   0  0  0  0  0  0  0  0  0  0  0  0
   20.3991   -8.4107  -19.7109 C   0  0  0  0  0  0  0  0  0  0  0  0
   20.7178   -7.1774  -20.1602 N   0  0  0  0  0  0  0  0  0  0  0  0
   19.7211   -6.3375  -19.7903 C   0  0  0  0  0  0  0  0  0  0  0  0
   18.8060   -7.0717  -19.1188 N   0  0  0  0  0  0  0  0  0  0  0  0
   20.0151   -9.5442  -16.4608 C   0  0  0  0  0  0  0  0  0  0  0  0
   19.4495   -9.5227  -15.3345 O   0  0  0  0  0  0  0  0  0  0  0  0
   21.1953   -8.7664  -16.6137 N   0  0  0  0  0  0  0  0  0  0  0  0
   21.6862   -7.9437  -15.4817 C   0  0  1  0  0  0  0  0  0  0  0  0
   23.1479   -7.7893  -15.7127 C   0  0  0  0  0  0  0  0  0  0  0  0
   23.9766   -8.9683  -15.4505 C   0  0  0  0  0  0  0  0  0  0  0  0
   23.4368  -10.1181  -14.8897 C   0  0  0  0  0  0  0  0  0  0  0  0
   24.4051  -11.0223  -14.7637 N   0  0  0  0  0  0  0  0  0  0  0  0
   25.5283  -10.4880  -15.2215 C   0  0  0  0  0  0  0  0  0  0  0  0
   25.2755   -9.2384  -15.6411 N   0  0  0  0  0  0  0  0  0  0  0  0
   21.0191   -6.5988  -15.6017 C   0  0  0  0  0  0  0  0  0  0  0  0
   21.2659   -5.6674  -14.7894 O   0  0  0  0  0  0  0  0  0  0  0  0
   20.1137   -6.3477  -16.6115 O   0  0  0  0  0  0  0  0  0  0  0  0
  2  1  1  0
  2  3  1  0
  3  4  1  6
  5  3  1  0
  5  6  2  0
  7  5  1  0
  8  7  1  0
  8  9  1  1
 10  9  1  0
 10 11  2  0
 12 11  1  0
 13 14  2  0
 13 12  1  0
 14 10  1  0
 15  8  1  0
 16 15  2  0
 17 15  1  0
 18 17  1  0
 18 19  1  6
 19 20  1  0
 20 24  1  0
 20 21  2  0
 21 22  1  0
 23 22  1  0
 24 23  2  0
 25 18  1  0
 26 25  2  0
 27 25  1  0
M  END
$$$$
