SHH.pdb
     RDKit          3D

 27 28  0  0  1  0  0  0  0  0999 V2000
   17.0883  -13.7833  -16.3035 O   0  0  0  0  0  0  0  0  0  0  0  0
   18.1644  -12.9883  -16.6737 C   0  0  0  0  0  0  0  0  0  0  0  0
   17.7596  -11.5087  -16.6920 C   0  0  2  0  0  0  0  0  0  0  0  0
   17.4263  -11.2045  -18.0707 N   0  0  0  0  0  0  0  0  0  0  0  0
   18.9852  -10.7414  -16.3360 C   0  0  0  0  0  0  0  0  0  0  0  0
   19.6878  -11.0516  -15.3192 O   0  0  0  0  0  0  0  0  0  0  0  0
   19.4496   -9.6307  -17.0895 N   0  0  0  0  0  0  0  0  0  0  0  0
   20.6537   -8.9250  -16.7786 C   0  0  1  0  0  0  0  0  0  0  0  0
   21.3273   -8.3211  -17.9925 C   0  0  0  0  0  0  0  0  0  0  0  0
   21.9973   -9.3118  -18.8399 C   0  0  0  0  0  0  0  0  0  0  0  0
   22.1320  -10.6502  -18.5334 C   0  0  0  0  0  0  0  0  0  0  0  0
   22.7988  -11.2734  -19.5290 N   0  0  0  0  0  0  0  0  0  0  0  0
   23.0914  -10.3432  -20.4697 C   0  0  0  0  0  0  0  0  0  0  0  0
   22.5978   -9.1626  -20.0339 N   0  0  0  0  0  0  0  0  0  0  0  0
   20.3398   -7.8373  -15.7850 C   0  0  0  0  0  0  0  0  0  0  0  0
   19.3575   -7.0657  -15.9542 O   0  0  0  0  0  0  0  0  0  0  0  0
   21.1342   -7.6379  -14.6230 N   0  0  0  0  0  0  0  0  0  0  0  0
   20.7491   -6.5984  -13.6379 C   0  0  1  0  0  0  0  0  0  0  0  0
   20.9775   -7.2170  -12.3041 C   0  0  0  0  0  0  0  0  0  0  0  0
   20.7799   -6.3485  -11.1412 C   0  0  0  0  0  0  0  0  0  0  0  0
   20.2932   -5.0557  -11.2819 C   0  0  0  0  0  0  0  0  0  0  0  0
   20.2144   -4.4996  -10.0754 N   0  0  0  0  0  0  0  0  0  0  0  0
   20.6309   -5.3888   -9.1851 C   0  0  0  0  0  0  0  0  0  0  0  0
   20.9766   -6.5162   -9.8261 N   0  0  0  0  0  0  0  0  0  0  0  0
   21.7051   -5.4496  -13.8234 C   0  0  0  0  0  0  0  0  0  0  0  0
   22.9018   -5.6393  -14.1700 O   0  0  0  0  0  0  0  0  0  0  0  0
   21.2940   -4.1491  -13.6181 O   0  0  0  0  0  0  0  0  0  0  0  0
  2  1  1  0
  2  3  1  0
  3  4  1  6
  5  3  1  0
  5  6  2  0
  7  5  1  0
  8  7  1  0
  8  9  1  6
 10  9  1  0
 10 11  2  0
 12 11  1  0
 13 14  2  0
 13 12  1  0
 14 10  1  0
 15  8  1  0
 16 15  2  0
 17 15  1  0
 18 17  1  0
 18 19  1  1
 19 20  1  0
 20 24  1  0
 20 21  2  0
 21 22  1  0
 23 22  1  0
 24 23  2  0
 25 18  1  0
 26 25  2  0
 27 25  1  0
M  END
$$$$
