SHH.pdb
     RDKit          3D

 27 28  0  0  1  0  0  0  0  0999 V2000
   17.7715  -13.7520  -16.2998 O   0  0  0  0  0  0  0  0  0  0  0  0
   18.7839  -12.9426  -15.8031 C   0  0  0  0  0  0  0  0  0  0  0  0
   18.5951  -11.4945  -16.2730 C   0  0  2  0  0  0  0  0  0  0  0  0
   18.7934  -11.5135  -17.7099 N   0  0  0  0  0  0  0  0  0  0  0  0
   19.7096  -10.7153  -15.6660 C   0  0  0  0  0  0  0  0  0  0  0  0
   19.8728  -10.6683  -14.4032 O   0  0  0  0  0  0  0  0  0  0  0  0
   20.6519   -9.9832  -16.4362 N   0  0  0  0  0  0  0  0  0  0  0  0
   21.7133   -9.2224  -15.8539 C   0  0  1  0  0  0  0  0  0  0  0  0
   23.0834   -9.6101  -16.3681 C   0  0  0  0  0  0  0  0  0  0  0  0
   23.4653  -10.9840  -16.0292 C   0  0  0  0  0  0  0  0  0  0  0  0
   24.1541  -11.3539  -14.8924 C   0  0  0  0  0  0  0  0  0  0  0  0
   24.3391  -12.6919  -14.8955 N   0  0  0  0  0  0  0  0  0  0  0  0
   23.7737  -13.1800  -16.0259 C   0  0  0  0  0  0  0  0  0  0  0  0
   23.2502  -12.1306  -16.6984 N   0  0  0  0  0  0  0  0  0  0  0  0
   21.4709   -7.7603  -16.1229 C   0  0  0  0  0  0  0  0  0  0  0  0
   21.1536   -7.3547  -17.2735 O   0  0  0  0  0  0  0  0  0  0  0  0
   21.5896   -6.7842  -15.0962 N   0  0  0  0  0  0  0  0  0  0  0  0
   21.3306   -5.3569  -15.4043 C   0  0  1  0  0  0  0  0  0  0  0  0
   20.0893   -5.0130  -14.6597 C   0  0  0  0  0  0  0  0  0  0  0  0
   19.6598   -3.6139  -14.7208 C   0  0  0  0  0  0  0  0  0  0  0  0
   20.2843   -2.6347  -13.9598 C   0  0  0  0  0  0  0  0  0  0  0  0
   19.6973   -1.4666  -14.2091 N   0  0  0  0  0  0  0  0  0  0  0  0
   18.7320   -1.6723  -15.0936 C   0  0  0  0  0  0  0  0  0  0  0  0
   18.7031   -2.9764  -15.4098 N   0  0  0  0  0  0  0  0  0  0  0  0
   22.4846   -4.5741  -14.8354 C   0  0  0  0  0  0  0  0  0  0  0  0
   23.1307   -4.9879  -13.8356 O   0  0  0  0  0  0  0  0  0  0  0  0
   22.8690   -3.3745  -15.3973 O   0  0  0  0  0  0  0  0  0  0  0  0
  2  1  1  0
  2  3  1  0
  3  4  1  6
  5  3  1  0
  5  6  2  0
  7  5  1  0
  8  7  1  0
  8  9  1  6
 10  9  1  0
 10 11  2  0
 12 11  1  0
 13 14  2  0
 13 12  1  0
 14 10  1  0
 15  8  1  0
 16 15  2  0
 17 15  1  0
 18 17  1  0
 18 19  1  1
 19 20  1  0
 20 24  1  0
 20 21  2  0
 21 22  1  0
 23 22  1  0
 24 23  2  0
 25 18  1  0
 26 25  2  0
 27 25  1  0
M  END
$$$$
