NMW.pdb
     RDKit          3D

 31 32  0  0  1  0  0  0  0  0999 V2000
   19.1103  -18.3932  -12.5159 N   0  0  0  0  0  0  0  0  0  0  0  0
   19.0515  -19.4131  -11.5386 C   0  0  0  0  0  0  0  0  0  0  0  0
   18.1469  -19.4172  -10.6678 O   0  0  0  0  0  0  0  0  0  0  0  0
   20.0789  -20.4795  -11.5606 C   0  0  0  0  0  0  0  0  0  0  0  0
   21.1188  -20.1383  -12.6081 C   0  0  2  0  0  0  0  0  0  0  0  0
   20.5415  -20.3667  -13.9030 N   0  0  0  0  0  0  0  0  0  0  0  0
   22.2876  -21.0215  -12.3493 C   0  0  0  0  0  0  0  0  0  0  0  0
   22.1256  -22.1576  -11.8313 O   0  0  0  0  0  0  0  0  0  0  0  0
   27.5074  -21.3713  -16.6464 C   0  0  0  0  0  0  0  0  0  0  0  0
   25.7577  -21.6585  -16.7326 S   0  0  0  0  0  0  0  0  0  0  0  0
   24.9603  -22.0278  -15.1893 C   0  0  0  0  0  0  0  0  0  0  0  0
   25.3967  -21.1775  -14.0557 C   0  0  0  0  0  0  0  0  0  0  0  0
   24.7620  -21.4392  -12.7280 C   0  0  2  0  0  0  0  0  0  0  0  0
   23.5684  -20.5684  -12.6913 N   0  0  0  0  0  0  0  0  0  0  0  0
   25.6948  -20.8870  -11.6961 C   0  0  0  0  0  0  0  0  0  0  0  0
   25.7614  -19.6540  -11.5412 O   0  0  0  0  0  0  0  0  0  0  0  0
   26.5066  -21.6727  -10.8841 N   0  0  0  0  0  0  0  0  0  0  0  0
   27.4951  -21.1280   -9.9929 C   0  0  1  0  0  0  0  0  0  0  0  0
   27.5064  -21.6417   -8.6436 C   0  0  0  0  0  0  0  0  0  0  0  0
   27.6020  -20.6046   -7.6045 C   0  0  0  0  0  0  0  0  0  0  0  0
   26.9790  -19.3445   -7.6646 C   0  0  0  0  0  0  0  0  0  0  0  0
   27.2883  -18.6107   -6.5960 N   0  0  0  0  0  0  0  0  0  0  0  0
   28.0902  -19.3463   -5.8394 C   0  0  0  0  0  0  0  0  0  0  0  0
   28.6737  -19.0444   -4.6044 C   0  0  0  0  0  0  0  0  0  0  0  0
   29.4643  -19.9696   -3.9626 C   0  0  0  0  0  0  0  0  0  0  0  0
   29.6637  -21.1919   -4.5653 C   0  0  0  0  0  0  0  0  0  0  0  0
   29.0925  -21.4943   -5.7815 C   0  0  0  0  0  0  0  0  0  0  0  0
   28.3032  -20.5711   -6.4248 C   0  0  0  0  0  0  0  0  0  0  0  0
   28.7847  -21.1890  -10.6563 C   0  0  0  0  0  0  0  0  0  0  0  0
   29.7358  -20.2246  -10.3623 O   0  0  0  0  0  0  0  0  0  0  0  0
   29.1376  -22.0504  -11.4939 O   0  0  0  0  0  0  0  0  0  0  0  0
  2  1  1  0
  3  2  2  0
  4  2  1  0
  5  6  1  6
  5  4  1  0
  7  5  1  0
  8  7  2  0
 10  9  1  0
 11 10  1  0
 12 11  1  0
 13 12  1  6
 13 14  1  0
 14  7  1  0
 15 13  1  0
 15 16  2  0
 17 15  1  0
 18 17  1  0
 18 19  1  1
 20 19  1  0
 20 21  2  0
 22 21  1  0
 23 22  1  0
 24 23  2  0
 25 24  1  0
 26 25  2  0
 26 27  1  0
 27 28  2  0
 28 23  1  0
 28 20  1  0
 29 18  1  0
 30 29  1  0
 31 29  2  0
M  END
$$$$
