NMW.pdb
     RDKit          3D

 31 32  0  0  1  0  0  0  0  0999 V2000
   29.9553  -21.4769  -16.2907 N   0  0  0  0  0  0  0  0  0  0  0  0
   28.9374  -22.4580  -16.2929 C   0  0  0  0  0  0  0  0  0  0  0  0
   29.2073  -23.6644  -16.0734 O   0  0  0  0  0  0  0  0  0  0  0  0
   27.5431  -22.0358  -16.5593 C   0  0  0  0  0  0  0  0  0  0  0  0
   26.7582  -23.2267  -17.0697 C   0  0  2  0  0  0  0  0  0  0  0  0
   26.7950  -23.2053  -18.5050 N   0  0  0  0  0  0  0  0  0  0  0  0
   25.3754  -23.0823  -16.5400 C   0  0  0  0  0  0  0  0  0  0  0  0
   24.5837  -22.2438  -17.0453 O   0  0  0  0  0  0  0  0  0  0  0  0
   20.6037  -26.6674  -17.4107 C   0  0  0  0  0  0  0  0  0  0  0  0
   21.2733  -25.5942  -16.1652 S   0  0  0  0  0  0  0  0  0  0  0  0
   22.7831  -26.1415  -15.4068 C   0  0  0  0  0  0  0  0  0  0  0  0
   23.3327  -25.2088  -14.3938 C   0  0  0  0  0  0  0  0  0  0  0  0
   23.6338  -23.8164  -14.8465 C   0  0  2  0  0  0  0  0  0  0  0  0
   24.9707  -23.8934  -15.4719 N   0  0  0  0  0  0  0  0  0  0  0  0
   23.8158  -22.9977  -13.6070 C   0  0  0  0  0  0  0  0  0  0  0  0
   22.8090  -22.6156  -12.9832 O   0  0  0  0  0  0  0  0  0  0  0  0
   25.0561  -22.6287  -13.0960 N   0  0  0  0  0  0  0  0  0  0  0  0
   25.2170  -21.8742  -11.8824 C   0  0  1  0  0  0  0  0  0  0  0  0
   26.3963  -22.1515  -11.0969 C   0  0  0  0  0  0  0  0  0  0  0  0
   26.5206  -21.3275   -9.8844 C   0  0  0  0  0  0  0  0  0  0  0  0
   25.4591  -20.6446   -9.2626 C   0  0  0  0  0  0  0  0  0  0  0  0
   25.8930  -19.9498   -8.2113 N   0  0  0  0  0  0  0  0  0  0  0  0
   27.1994  -20.1550   -8.1233 C   0  0  0  0  0  0  0  0  0  0  0  0
   28.1155  -19.6711   -7.1834 C   0  0  0  0  0  0  0  0  0  0  0  0
   29.4420  -20.0290   -7.2549 C   0  0  0  0  0  0  0  0  0  0  0  0
   29.8398  -20.8708   -8.2700 C   0  0  0  0  0  0  0  0  0  0  0  0
   28.9425  -21.3495   -9.1988 C   0  0  0  0  0  0  0  0  0  0  0  0
   27.6170  -20.9923   -9.1296 C   0  0  0  0  0  0  0  0  0  0  0  0
   25.0365  -20.4686  -12.1965 C   0  0  0  0  0  0  0  0  0  0  0  0
   24.4020  -19.6518  -11.2738 O   0  0  0  0  0  0  0  0  0  0  0  0
   25.4065  -19.8999  -13.2489 O   0  0  0  0  0  0  0  0  0  0  0  0
  2  1  1  0
  3  2  2  0
  4  2  1  0
  5  6  1  6
  5  4  1  0
  7  5  1  0
  8  7  2  0
 10  9  1  0
 11 10  1  0
 12 11  1  0
 13 12  1  1
 13 14  1  0
 14  7  1  0
 15 13  1  0
 15 16  2  0
 17 15  1  0
 18 17  1  0
 18 19  1  6
 20 19  1  0
 20 21  2  0
 22 21  1  0
 23 22  1  0
 24 23  2  0
 25 24  1  0
 26 25  2  0
 26 27  1  0
 27 28  2  0
 28 23  1  0
 28 20  1  0
 29 18  1  0
 30 29  1  0
 31 29  2  0
M  END
$$$$
