NMW.pdb
     RDKit          3D

 31 32  0  0  1  0  0  0  0  0999 V2000
   16.0816  -24.1424   -1.7100 N   0  0  0  0  0  0  0  0  0  0  0  0
   15.2454  -23.2117   -1.0519 C   0  0  0  0  0  0  0  0  0  0  0  0
   14.9780  -22.1036   -1.5784 O   0  0  0  0  0  0  0  0  0  0  0  0
   14.6889  -23.5684    0.2734 C   0  0  0  0  0  0  0  0  0  0  0  0
   14.6853  -22.3349    1.1529 C   0  0  2  0  0  0  0  0  0  0  0  0
   15.5630  -21.3627    0.5640 N   0  0  0  0  0  0  0  0  0  0  0  0
   15.1497  -22.7709    2.4974 C   0  0  0  0  0  0  0  0  0  0  0  0
   14.5627  -23.7065    3.1019 O   0  0  0  0  0  0  0  0  0  0  0  0
   20.8261  -25.6247    1.9478 C   0  0  0  0  0  0  0  0  0  0  0  0
   20.3794  -24.1585    2.8434 S   0  0  0  0  0  0  0  0  0  0  0  0
   18.6520  -23.9786    3.2150 C   0  0  0  0  0  0  0  0  0  0  0  0
   18.3190  -22.7721    4.0098 C   0  0  0  0  0  0  0  0  0  0  0  0
   16.8780  -22.5560    4.3431 C   0  0  2  0  0  0  0  0  0  0  0  0
   16.2486  -22.1242    3.0775 N   0  0  0  0  0  0  0  0  0  0  0  0
   16.8261  -21.3633    5.2458 C   0  0  0  0  0  0  0  0  0  0  0  0
   17.2195  -20.2637    4.8157 O   0  0  0  0  0  0  0  0  0  0  0  0
   16.3596  -21.4015    6.5560 N   0  0  0  0  0  0  0  0  0  0  0  0
   16.3229  -20.2485    7.4146 C   0  0  1  0  0  0  0  0  0  0  0  0
   15.0203  -19.8089    7.8562 C   0  0  0  0  0  0  0  0  0  0  0  0
   15.0467  -18.6189    8.7207 C   0  0  0  0  0  0  0  0  0  0  0  0
   15.2650  -17.3030    8.2731 C   0  0  0  0  0  0  0  0  0  0  0  0
   15.2751  -16.4492    9.2964 N   0  0  0  0  0  0  0  0  0  0  0  0
   15.0704  -17.1598   10.3963 C   0  0  0  0  0  0  0  0  0  0  0  0
   14.9707  -16.7347   11.7253 C   0  0  0  0  0  0  0  0  0  0  0  0
   14.7258  -17.6418   12.7304 C   0  0  0  0  0  0  0  0  0  0  0  0
   14.5825  -18.9697   12.3941 C   0  0  0  0  0  0  0  0  0  0  0  0
   14.6806  -19.3941   11.0874 C   0  0  0  0  0  0  0  0  0  0  0  0
   14.9262  -18.4896   10.0820 C   0  0  0  0  0  0  0  0  0  0  0  0
   17.2701  -20.4582    8.4942 C   0  0  0  0  0  0  0  0  0  0  0  0
   17.4962  -21.7487    8.9463 O   0  0  0  0  0  0  0  0  0  0  0  0
   17.9248  -19.5646    9.0781 O   0  0  0  0  0  0  0  0  0  0  0  0
  2  1  1  0
  3  2  2  0
  4  2  1  0
  5  6  1  6
  5  4  1  0
  7  5  1  0
  8  7  2  0
 10  9  1  0
 11 10  1  0
 12 11  1  0
 13 12  1  6
 13 14  1  0
 14  7  1  0
 15 13  1  0
 15 16  2  0
 17 15  1  0
 18 17  1  0
 18 19  1  1
 20 19  1  0
 20 21  2  0
 22 21  1  0
 23 22  1  0
 24 23  2  0
 25 24  1  0
 26 25  2  0
 26 27  1  0
 27 28  2  0
 28 23  1  0
 28 20  1  0
 29 18  1  0
 30 29  1  0
 31 29  2  0
M  END
$$$$
