NMW.pdb
     RDKit          3D

 31 32  0  0  1  0  0  0  0  0999 V2000
   30.2621  -22.7761  -17.6937 N   0  0  0  0  0  0  0  0  0  0  0  0
   29.7101  -21.6377  -18.3246 C   0  0  0  0  0  0  0  0  0  0  0  0
   30.1164  -21.2686  -19.4539 O   0  0  0  0  0  0  0  0  0  0  0  0
   28.6410  -20.8865  -17.6275 C   0  0  0  0  0  0  0  0  0  0  0  0
   28.4383  -21.4843  -16.2504 C   0  0  2  0  0  0  0  0  0  0  0  0
   27.8209  -22.7713  -16.4076 N   0  0  0  0  0  0  0  0  0  0  0  0
   27.5752  -20.5343  -15.4981 C   0  0  0  0  0  0  0  0  0  0  0  0
   27.8863  -19.3169  -15.4182 O   0  0  0  0  0  0  0  0  0  0  0  0
   22.4822  -18.4982  -18.5900 C   0  0  0  0  0  0  0  0  0  0  0  0
   22.5645  -19.4358  -17.0849 S   0  0  0  0  0  0  0  0  0  0  0  0
   24.0969  -19.3293  -16.1933 C   0  0  0  0  0  0  0  0  0  0  0  0
   24.1893  -20.2362  -15.0240 C   0  0  0  0  0  0  0  0  0  0  0  0
   25.4309  -20.1510  -14.1961 C   0  0  2  0  0  0  0  0  0  0  0  0
   26.4133  -21.0166  -14.8818 N   0  0  0  0  0  0  0  0  0  0  0  0
   25.1249  -20.8367  -12.9015 C   0  0  0  0  0  0  0  0  0  0  0  0
   24.8813  -22.0572  -12.9081 O   0  0  0  0  0  0  0  0  0  0  0  0
   25.0939  -20.1908  -11.6696 N   0  0  0  0  0  0  0  0  0  0  0  0
   24.6049  -20.8085  -10.4666 C   0  0  1  0  0  0  0  0  0  0  0  0
   25.1665  -20.3402   -9.2216 C   0  0  0  0  0  0  0  0  0  0  0  0
   26.6048  -20.6096   -9.0699 C   0  0  0  0  0  0  0  0  0  0  0  0
   27.3535  -21.4726   -9.8912 C   0  0  0  0  0  0  0  0  0  0  0  0
   28.6183  -21.5428   -9.4772 N   0  0  0  0  0  0  0  0  0  0  0  0
   28.7232  -20.7562   -8.4157 C   0  0  0  0  0  0  0  0  0  0  0  0
   29.8433  -20.4661   -7.6295 C   0  0  0  0  0  0  0  0  0  0  0  0
   29.7451  -19.5903   -6.5731 C   0  0  0  0  0  0  0  0  0  0  0  0
   28.5227  -19.0114   -6.3131 C   0  0  0  0  0  0  0  0  0  0  0  0
   27.4163  -19.2940   -7.0832 C   0  0  0  0  0  0  0  0  0  0  0  0
   27.5120  -20.1694   -8.1385 C   0  0  0  0  0  0  0  0  0  0  0  0
   23.1540  -20.7842  -10.5034 C   0  0  0  0  0  0  0  0  0  0  0  0
   22.4474  -21.4979   -9.5481 O   0  0  0  0  0  0  0  0  0  0  0  0
   22.4527  -20.1656  -11.3361 O   0  0  0  0  0  0  0  0  0  0  0  0
  2  1  1  0
  3  2  2  0
  4  2  1  0
  5  6  1  6
  5  4  1  0
  7  5  1  0
  8  7  2  0
 10  9  1  0
 11 10  1  0
 12 11  1  0
 13 12  1  6
 13 14  1  0
 14  7  1  0
 15 13  1  0
 15 16  2  0
 17 15  1  0
 18 17  1  0
 18 19  1  1
 20 19  1  0
 20 21  2  0
 22 21  1  0
 23 22  1  0
 24 23  2  0
 25 24  1  0
 26 25  2  0
 26 27  1  0
 27 28  2  0
 28 23  1  0
 28 20  1  0
 29 18  1  0
 30 29  1  0
 31 29  2  0
M  END
$$$$
