NMW.pdb
     RDKit          3D

 31 32  0  0  1  0  0  0  0  0999 V2000
   28.7824  -20.3042  -18.7301 N   0  0  0  0  0  0  0  0  0  0  0  0
   27.4146  -19.9568  -18.8144 C   0  0  0  0  0  0  0  0  0  0  0  0
   27.0159  -19.1165  -19.6579 O   0  0  0  0  0  0  0  0  0  0  0  0
   26.4580  -20.6037  -17.8872 C   0  0  0  0  0  0  0  0  0  0  0  0
   27.2260  -21.4907  -16.9289 C   0  0  2  0  0  0  0  0  0  0  0  0
   27.5493  -22.7123  -17.6111 N   0  0  0  0  0  0  0  0  0  0  0  0
   26.3381  -21.7185  -15.7571 C   0  0  0  0  0  0  0  0  0  0  0  0
   25.3572  -22.5031  -15.8438 O   0  0  0  0  0  0  0  0  0  0  0  0
   24.5416  -21.7139   -8.6498 C   0  0  0  0  0  0  0  0  0  0  0  0
   25.3428  -21.8548  -10.2277 S   0  0  0  0  0  0  0  0  0  0  0  0
   25.8970  -20.3297  -10.9496 C   0  0  0  0  0  0  0  0  0  0  0  0
   26.5607  -20.4812  -12.2668 C   0  0  0  0  0  0  0  0  0  0  0  0
   25.7894  -21.1821  -13.3382 C   0  0  2  0  0  0  0  0  0  0  0  0
   26.6117  -21.0466  -14.5587 N   0  0  0  0  0  0  0  0  0  0  0  0
   24.5637  -20.3595  -13.5853 C   0  0  0  0  0  0  0  0  0  0  0  0
   24.6869  -19.1359  -13.7763 O   0  0  0  0  0  0  0  0  0  0  0  0
   23.2736  -20.8793  -13.6165 N   0  0  0  0  0  0  0  0  0  0  0  0
   22.0971  -20.0637  -13.7526 C   0  0  1  0  0  0  0  0  0  0  0  0
   21.7362  -19.6629  -15.0920 C   0  0  0  0  0  0  0  0  0  0  0  0
   21.4772  -20.7848  -16.0078 C   0  0  0  0  0  0  0  0  0  0  0  0
   20.5868  -21.8439  -15.7523 C   0  0  0  0  0  0  0  0  0  0  0  0
   20.6022  -22.7278  -16.7496 N   0  0  0  0  0  0  0  0  0  0  0  0
   21.4699  -22.2840  -17.6478 C   0  0  0  0  0  0  0  0  0  0  0  0
   21.8338  -22.8334  -18.8817 C   0  0  0  0  0  0  0  0  0  0  0  0
   22.7469  -22.1931  -19.6874 C   0  0  0  0  0  0  0  0  0  0  0  0
   23.2885  -21.0052  -19.2486 C   0  0  0  0  0  0  0  0  0  0  0  0
   22.9347  -20.4600  -18.0343 C   0  0  0  0  0  0  0  0  0  0  0  0
   22.0234  -21.0986  -17.2275 C   0  0  0  0  0  0  0  0  0  0  0  0
   21.0186  -20.6993  -13.0181 C   0  0  0  0  0  0  0  0  0  0  0  0
   19.8139  -20.0276  -12.8813 O   0  0  0  0  0  0  0  0  0  0  0  0
   21.0660  -21.8279  -12.4776 O   0  0  0  0  0  0  0  0  0  0  0  0
  2  1  1  0
  3  2  2  0
  4  2  1  0
  5  6  1  6
  5  4  1  0
  7  5  1  0
  8  7  2  0
 10  9  1  0
 11 10  1  0
 12 11  1  0
 13 12  1  1
 13 14  1  0
 14  7  1  0
 15 13  1  0
 15 16  2  0
 17 15  1  0
 18 17  1  0
 18 19  1  6
 20 19  1  0
 20 21  2  0
 22 21  1  0
 23 22  1  0
 24 23  2  0
 25 24  1  0
 26 25  2  0
 26 27  1  0
 27 28  2  0
 28 23  1  0
 28 20  1  0
 29 18  1  0
 30 29  1  0
 31 29  2  0
M  END
$$$$
