NMW.pdb
     RDKit          3D

 31 32  0  0  1  0  0  0  0  0999 V2000
   29.9087  -23.9566  -20.5227 N   0  0  0  0  0  0  0  0  0  0  0  0
   28.7576  -23.2193  -20.1623 C   0  0  0  0  0  0  0  0  0  0  0  0
   27.7376  -23.2217  -20.8947 O   0  0  0  0  0  0  0  0  0  0  0  0
   28.7765  -22.4419  -18.9019 C   0  0  0  0  0  0  0  0  0  0  0  0
   27.6843  -22.9599  -17.9888 C   0  0  2  0  0  0  0  0  0  0  0  0
   26.4170  -22.5742  -18.5430 N   0  0  0  0  0  0  0  0  0  0  0  0
   27.9233  -22.3502  -16.6529 C   0  0  0  0  0  0  0  0  0  0  0  0
   29.0471  -22.4574  -16.0952 O   0  0  0  0  0  0  0  0  0  0  0  0
   26.2524  -16.4038  -14.8468 C   0  0  0  0  0  0  0  0  0  0  0  0
   27.4793  -17.1249  -15.9080 S   0  0  0  0  0  0  0  0  0  0  0  0
   27.8458  -18.8370  -15.6101 C   0  0  0  0  0  0  0  0  0  0  0  0
   26.7715  -19.5801  -14.9087 C   0  0  0  0  0  0  0  0  0  0  0  0
   26.9907  -21.0422  -14.6884 C   0  0  2  0  0  0  0  0  0  0  0  0
   26.8790  -21.6565  -16.0279 N   0  0  0  0  0  0  0  0  0  0  0  0
   25.8064  -21.5371  -13.9187 C   0  0  0  0  0  0  0  0  0  0  0  0
   24.6994  -21.5925  -14.4847 O   0  0  0  0  0  0  0  0  0  0  0  0
   25.8603  -21.9464  -12.5901 N   0  0  0  0  0  0  0  0  0  0  0  0
   25.4489  -21.1155  -11.4909 C   0  0  1  0  0  0  0  0  0  0  0  0
   26.3058  -20.0005  -11.1635 C   0  0  0  0  0  0  0  0  0  0  0  0
   27.4305  -20.3437  -10.2793 C   0  0  0  0  0  0  0  0  0  0  0  0
   28.6564  -20.8845  -10.7087 C   0  0  0  0  0  0  0  0  0  0  0  0
   29.4567  -21.1284   -9.6713 N   0  0  0  0  0  0  0  0  0  0  0  0
   28.7982  -20.7657   -8.5798 C   0  0  0  0  0  0  0  0  0  0  0  0
   29.2055  -20.7985   -7.2419 C   0  0  0  0  0  0  0  0  0  0  0  0
   28.3694  -20.3452   -6.2478 C   0  0  0  0  0  0  0  0  0  0  0  0
   27.1298  -19.8618   -6.6038 C   0  0  0  0  0  0  0  0  0  0  0  0
   26.7232  -19.8279   -7.9193 C   0  0  0  0  0  0  0  0  0  0  0  0
   27.5565  -20.2812   -8.9138 C   0  0  0  0  0  0  0  0  0  0  0  0
   24.0595  -20.7490  -11.6963 C   0  0  0  0  0  0  0  0  0  0  0  0
   23.2434  -20.5691  -10.5905 O   0  0  0  0  0  0  0  0  0  0  0  0
   23.5045  -20.5735  -12.8049 O   0  0  0  0  0  0  0  0  0  0  0  0
  2  1  1  0
  3  2  2  0
  4  2  1  0
  5  6  1  6
  5  4  1  0
  7  5  1  0
  8  7  2  0
 10  9  1  0
 11 10  1  0
 12 11  1  0
 13 12  1  6
 13 14  1  0
 14  7  1  0
 15 13  1  0
 15 16  2  0
 17 15  1  0
 18 17  1  0
 18 19  1  6
 20 19  1  0
 20 21  2  0
 22 21  1  0
 23 22  1  0
 24 23  2  0
 25 24  1  0
 26 25  2  0
 26 27  1  0
 27 28  2  0
 28 23  1  0
 28 20  1  0
 29 18  1  0
 30 29  1  0
 31 29  2  0
M  END
$$$$
