NMW.pdb
     RDKit          3D

 31 32  0  0  1  0  0  0  0  0999 V2000
   29.4124  -18.6970  -16.0171 N   0  0  0  0  0  0  0  0  0  0  0  0
   28.2049  -18.9231  -16.7169 C   0  0  0  0  0  0  0  0  0  0  0  0
   27.9685  -18.3308  -17.7984 O   0  0  0  0  0  0  0  0  0  0  0  0
   27.2214  -19.8740  -16.1496 C   0  0  0  0  0  0  0  0  0  0  0  0
   27.7456  -20.3918  -14.8260 C   0  0  2  0  0  0  0  0  0  0  0  0
   28.8527  -21.2662  -15.0942 N   0  0  0  0  0  0  0  0  0  0  0  0
   26.6145  -21.1011  -14.1696 C   0  0  0  0  0  0  0  0  0  0  0  0
   25.9412  -21.9534  -14.8064 O   0  0  0  0  0  0  0  0  0  0  0  0
   25.4891  -19.5952   -7.8074 C   0  0  0  0  0  0  0  0  0  0  0  0
   26.6846  -20.8341   -8.2402 S   0  0  0  0  0  0  0  0  0  0  0  0
   26.6024  -21.4345   -9.9096 C   0  0  0  0  0  0  0  0  0  0  0  0
   25.4048  -20.9898  -10.6621 C   0  0  0  0  0  0  0  0  0  0  0  0
   25.2574  -21.4938  -12.0615 C   0  0  2  0  0  0  0  0  0  0  0  0
   26.3124  -20.8051  -12.8341 N   0  0  0  0  0  0  0  0  0  0  0  0
   23.9617  -20.9477  -12.5743 C   0  0  0  0  0  0  0  0  0  0  0  0
   23.6960  -19.7467  -12.3846 O   0  0  0  0  0  0  0  0  0  0  0  0
   23.0178  -21.7051  -13.2607 N   0  0  0  0  0  0  0  0  0  0  0  0
   21.8197  -21.1477  -13.8279 C   0  0  1  0  0  0  0  0  0  0  0  0
   21.6312  -21.3233  -15.2486 C   0  0  0  0  0  0  0  0  0  0  0  0
   20.3650  -20.7768  -15.7609 C   0  0  0  0  0  0  0  0  0  0  0  0
   20.1477  -19.4280  -16.0978 C   0  0  0  0  0  0  0  0  0  0  0  0
   18.8889  -19.2338  -16.4900 N   0  0  0  0  0  0  0  0  0  0  0  0
   18.2762  -20.4070  -16.4224 C   0  0  0  0  0  0  0  0  0  0  0  0
   16.9576  -20.7429  -16.7465 C   0  0  0  0  0  0  0  0  0  0  0  0
   16.5205  -22.0421  -16.6288 C   0  0  0  0  0  0  0  0  0  0  0  0
   17.4106  -22.9955  -16.1865 C   0  0  0  0  0  0  0  0  0  0  0  0
   18.7099  -22.6704  -15.8650 C   0  0  0  0  0  0  0  0  0  0  0  0
   19.1482  -21.3729  -15.9810 C   0  0  0  0  0  0  0  0  0  0  0  0
   20.6926  -21.5878  -13.0262 C   0  0  0  0  0  0  0  0  0  0  0  0
   20.6368  -22.9111  -12.6176 O   0  0  0  0  0  0  0  0  0  0  0  0
   19.7346  -20.8723  -12.6542 O   0  0  0  0  0  0  0  0  0  0  0  0
  2  1  1  0
  3  2  2  0
  4  2  1  0
  5  6  1  6
  5  4  1  0
  7  5  1  0
  8  7  2  0
 10  9  1  0
 11 10  1  0
 12 11  1  0
 13 12  1  1
 13 14  1  0
 14  7  1  0
 15 13  1  0
 15 16  2  0
 17 15  1  0
 18 17  1  0
 18 19  1  6
 20 19  1  0
 20 21  2  0
 22 21  1  0
 23 22  1  0
 24 23  2  0
 25 24  1  0
 26 25  2  0
 26 27  1  0
 27 28  2  0
 28 23  1  0
 28 20  1  0
 29 18  1  0
 30 29  1  0
 31 29  2  0
M  END
$$$$
