NMW.pdb
     RDKit          3D

 31 32  0  0  1  0  0  0  0  0999 V2000
   33.9060  -29.8303  -17.4158 N   0  0  0  0  0  0  0  0  0  0  0  0
   33.7895  -30.5275  -18.6402 C   0  0  0  0  0  0  0  0  0  0  0  0
   34.7499  -31.1991  -19.0910 O   0  0  0  0  0  0  0  0  0  0  0  0
   32.5108  -30.4514  -19.3833 C   0  0  0  0  0  0  0  0  0  0  0  0
   31.5131  -29.6584  -18.5643 C   0  0  2  0  0  0  0  0  0  0  0  0
   31.0236  -30.5050  -17.5128 N   0  0  0  0  0  0  0  0  0  0  0  0
   30.4336  -29.2405  -19.4989 C   0  0  0  0  0  0  0  0  0  0  0  0
   30.6191  -28.2891  -20.3024 O   0  0  0  0  0  0  0  0  0  0  0  0
   24.4636  -33.0267  -20.0568 C   0  0  0  0  0  0  0  0  0  0  0  0
   25.2381  -32.3455  -21.5016 S   0  0  0  0  0  0  0  0  0  0  0  0
   26.0378  -30.7754  -21.2796 C   0  0  0  0  0  0  0  0  0  0  0  0
   27.2364  -30.8165  -20.4078 C   0  0  0  0  0  0  0  0  0  0  0  0
   28.0555  -29.5692  -20.3216 C   0  0  2  0  0  0  0  0  0  0  0  0
   29.2102  -29.9225  -19.4696 N   0  0  0  0  0  0  0  0  0  0  0  0
   27.2525  -28.5891  -19.5249 C   0  0  0  0  0  0  0  0  0  0  0  0
   26.2956  -28.0091  -20.0698 O   0  0  0  0  0  0  0  0  0  0  0  0
   27.5080  -28.2772  -18.1934 N   0  0  0  0  0  0  0  0  0  0  0  0
   26.7410  -27.3171  -17.4465 C   0  0  1  0  0  0  0  0  0  0  0  0
   25.9083  -27.8343  -16.3864 C   0  0  0  0  0  0  0  0  0  0  0  0
   24.7609  -28.6277  -16.8536 C   0  0  0  0  0  0  0  0  0  0  0  0
   24.7902  -30.0101  -17.1138 C   0  0  0  0  0  0  0  0  0  0  0  0
   23.6098  -30.4331  -17.5654 N   0  0  0  0  0  0  0  0  0  0  0  0
   22.8101  -29.3770  -17.6088 C   0  0  0  0  0  0  0  0  0  0  0  0
   21.4665  -29.2925  -17.9887 C   0  0  0  0  0  0  0  0  0  0  0  0
   20.8020  -28.0890  -17.9361 C   0  0  0  0  0  0  0  0  0  0  0  0
   21.4911  -26.9782  -17.5021 C   0  0  0  0  0  0  0  0  0  0  0  0
   22.8144  -27.0553  -17.1276 C   0  0  0  0  0  0  0  0  0  0  0  0
   23.4803  -28.2565  -17.1804 C   0  0  0  0  0  0  0  0  0  0  0  0
   27.6342  -26.2527  -17.0267 C   0  0  0  0  0  0  0  0  0  0  0  0
   28.9779  -26.3363  -17.3564 O   0  0  0  0  0  0  0  0  0  0  0  0
   27.3055  -25.2345  -16.3762 O   0  0  0  0  0  0  0  0  0  0  0  0
  2  1  1  0
  3  2  2  0
  4  2  1  0
  5  6  1  1
  5  4  1  0
  7  5  1  0
  8  7  2  0
 10  9  1  0
 11 10  1  0
 12 11  1  0
 13 12  1  1
 13 14  1  0
 14  7  1  0
 15 13  1  0
 15 16  2  0
 17 15  1  0
 18 17  1  0
 18 19  1  1
 20 19  1  0
 20 21  2  0
 22 21  1  0
 23 22  1  0
 24 23  2  0
 25 24  1  0
 26 25  2  0
 26 27  1  0
 27 28  2  0
 28 23  1  0
 28 20  1  0
 29 18  1  0
 30 29  1  0
 31 29  2  0
M  END
$$$$
