NMW.pdb
     RDKit          3D

 31 32  0  0  1  0  0  0  0  0999 V2000
   30.5087  -23.1043  -15.6518 N   0  0  0  0  0  0  0  0  0  0  0  0
   29.9307  -22.0921  -16.4518 C   0  0  0  0  0  0  0  0  0  0  0  0
   30.1558  -22.0416  -17.6860 O   0  0  0  0  0  0  0  0  0  0  0  0
   29.0525  -21.0896  -15.8060 C   0  0  0  0  0  0  0  0  0  0  0  0
   27.8225  -21.7896  -15.2654 C   0  0  2  0  0  0  0  0  0  0  0  0
   27.0738  -22.3022  -16.3783 N   0  0  0  0  0  0  0  0  0  0  0  0
   27.0592  -20.7715  -14.4946 C   0  0  0  0  0  0  0  0  0  0  0  0
   26.8625  -19.6242  -14.9745 O   0  0  0  0  0  0  0  0  0  0  0  0
   20.0227  -19.8401  -12.7765 C   0  0  0  0  0  0  0  0  0  0  0  0
   21.5168  -20.5422  -13.4292 S   0  0  0  0  0  0  0  0  0  0  0  0
   23.0157  -20.0706  -12.6014 C   0  0  0  0  0  0  0  0  0  0  0  0
   24.2466  -20.6607  -13.1802 C   0  0  0  0  0  0  0  0  0  0  0  0
   25.5401  -20.3220  -12.5120 C   0  0  2  0  0  0  0  0  0  0  0  0
   26.5641  -21.1108  -13.2287 N   0  0  0  0  0  0  0  0  0  0  0  0
   25.4721  -20.9066  -11.1360 C   0  0  0  0  0  0  0  0  0  0  0  0
   25.3331  -22.1369  -11.0094 O   0  0  0  0  0  0  0  0  0  0  0  0
   25.5553  -20.1546   -9.9684 N   0  0  0  0  0  0  0  0  0  0  0  0
   25.3040  -20.6972   -8.6606 C   0  0  1  0  0  0  0  0  0  0  0  0
   25.8837  -19.9914   -7.5423 C   0  0  0  0  0  0  0  0  0  0  0  0
   27.3228  -20.2343   -7.3566 C   0  0  0  0  0  0  0  0  0  0  0  0
   28.1524  -20.9009   -8.2770 C   0  0  0  0  0  0  0  0  0  0  0  0
   29.3954  -21.0039   -7.8075 N   0  0  0  0  0  0  0  0  0  0  0  0
   29.4080  -20.4277   -6.6140 C   0  0  0  0  0  0  0  0  0  0  0  0
   30.4706  -20.2520   -5.7212 C   0  0  0  0  0  0  0  0  0  0  0  0
   30.2769  -19.5945   -4.5283 C   0  0  0  0  0  0  0  0  0  0  0  0
   29.0173  -19.1177   -4.2398 C   0  0  0  0  0  0  0  0  0  0  0  0
   27.9672  -19.2886   -5.1146 C   0  0  0  0  0  0  0  0  0  0  0  0
   28.1584  -19.9460   -6.3064 C   0  0  0  0  0  0  0  0  0  0  0  0
   23.8768  -20.9291   -8.5337 C   0  0  0  0  0  0  0  0  0  0  0  0
   23.4210  -21.7711   -7.5315 O   0  0  0  0  0  0  0  0  0  0  0  0
   22.9864  -20.4312   -9.2599 O   0  0  0  0  0  0  0  0  0  0  0  0
  2  1  1  0
  3  2  2  0
  4  2  1  0
  5  6  1  6
  5  4  1  0
  7  5  1  0
  8  7  2  0
 10  9  1  0
 11 10  1  0
 12 11  1  0
 13 12  1  6
 13 14  1  0
 14  7  1  0
 15 13  1  0
 15 16  2  0
 17 15  1  0
 18 17  1  0
 18 19  1  1
 20 19  1  0
 20 21  2  0
 22 21  1  0
 23 22  1  0
 24 23  2  0
 25 24  1  0
 26 25  2  0
 26 27  1  0
 27 28  2  0
 28 23  1  0
 28 20  1  0
 29 18  1  0
 30 29  1  0
 31 29  2  0
M  END
$$$$
