NMW.pdb
     RDKit          3D

 31 32  0  0  1  0  0  0  0  0999 V2000
   29.3812  -17.2062  -19.9959 N   0  0  0  0  0  0  0  0  0  0  0  0
   29.6939  -17.9951  -18.8652 C   0  0  0  0  0  0  0  0  0  0  0  0
   30.4371  -19.0017  -18.9697 O   0  0  0  0  0  0  0  0  0  0  0  0
   29.1275  -17.6117  -17.5516 C   0  0  0  0  0  0  0  0  0  0  0  0
   28.9466  -18.8593  -16.7116 C   0  0  2  0  0  0  0  0  0  0  0  0
   27.9791  -19.6992  -17.3602 N   0  0  0  0  0  0  0  0  0  0  0  0
   28.4890  -18.4054  -15.3707 C   0  0  0  0  0  0  0  0  0  0  0  0
   29.1042  -17.4900  -14.7635 O   0  0  0  0  0  0  0  0  0  0  0  0
   22.4900  -19.0221  -15.1656 C   0  0  0  0  0  0  0  0  0  0  0  0
   23.4191  -17.5499  -15.5134 S   0  0  0  0  0  0  0  0  0  0  0  0
   25.1393  -17.6025  -15.0748 C   0  0  0  0  0  0  0  0  0  0  0  0
   25.4142  -18.1974  -13.7448 C   0  0  0  0  0  0  0  0  0  0  0  0
   26.8167  -18.6388  -13.4762 C   0  0  2  0  0  0  0  0  0  0  0  0
   27.3645  -19.0128  -14.7970 N   0  0  0  0  0  0  0  0  0  0  0  0
   26.7181  -19.9176  -12.7048 C   0  0  0  0  0  0  0  0  0  0  0  0
   26.5161  -20.9798  -13.3211 O   0  0  0  0  0  0  0  0  0  0  0  0
   26.8391  -20.0005  -11.3213 N   0  0  0  0  0  0  0  0  0  0  0  0
   26.6889  -21.2284  -10.5881 C   0  0  1  0  0  0  0  0  0  0  0  0
   27.6665  -21.4942   -9.5593 C   0  0  0  0  0  0  0  0  0  0  0  0
   27.6322  -20.5456   -8.4353 C   0  0  0  0  0  0  0  0  0  0  0  0
   26.8213  -19.3973   -8.3752 C   0  0  0  0  0  0  0  0  0  0  0  0
   27.0456  -18.7163   -7.2518 N   0  0  0  0  0  0  0  0  0  0  0  0
   27.9730  -19.3788   -6.5754 C   0  0  0  0  0  0  0  0  0  0  0  0
   28.5393  -19.0941   -5.3283 C   0  0  0  0  0  0  0  0  0  0  0  0
   29.4813  -19.9353   -4.7825 C   0  0  0  0  0  0  0  0  0  0  0  0
   29.8484  -21.0569   -5.4927 C   0  0  0  0  0  0  0  0  0  0  0  0
   29.2949  -21.3417   -6.7213 C   0  0  0  0  0  0  0  0  0  0  0  0
   28.3544  -20.5021   -7.2688 C   0  0  0  0  0  0  0  0  0  0  0  0
   25.3144  -21.3164  -10.1301 C   0  0  0  0  0  0  0  0  0  0  0  0
   24.4605  -20.2499  -10.3636 O   0  0  0  0  0  0  0  0  0  0  0  0
   24.8043  -22.2876   -9.5261 O   0  0  0  0  0  0  0  0  0  0  0  0
  2  1  1  0
  3  2  2  0
  4  2  1  0
  5  6  1  6
  5  4  1  0
  7  5  1  0
  8  7  2  0
 10  9  1  0
 11 10  1  0
 12 11  1  0
 13 12  1  6
 13 14  1  0
 14  7  1  0
 15 13  1  0
 15 16  2  0
 17 15  1  0
 18 17  1  0
 18 19  1  1
 20 19  1  0
 20 21  2  0
 22 21  1  0
 23 22  1  0
 24 23  2  0
 25 24  1  0
 26 25  2  0
 26 27  1  0
 27 28  2  0
 28 23  1  0
 28 20  1  0
 29 18  1  0
 30 29  1  0
 31 29  2  0
M  END
$$$$
