NMW.pdb
     RDKit          3D

 31 32  0  0  1  0  0  0  0  0999 V2000
   31.2614  -22.7248  -20.3847 N   0  0  0  0  0  0  0  0  0  0  0  0
   30.9252  -22.0059  -19.2147 C   0  0  0  0  0  0  0  0  0  0  0  0
   31.7156  -21.1579  -18.7323 O   0  0  0  0  0  0  0  0  0  0  0  0
   29.6203  -22.2719  -18.5667 C   0  0  0  0  0  0  0  0  0  0  0  0
   29.8623  -22.7127  -17.1377 C   0  0  2  0  0  0  0  0  0  0  0  0
   30.5706  -23.9615  -17.1683 N   0  0  0  0  0  0  0  0  0  0  0  0
   28.5239  -22.8403  -16.5005 C   0  0  0  0  0  0  0  0  0  0  0  0
   27.7685  -23.8044  -16.7922 O   0  0  0  0  0  0  0  0  0  0  0  0
   25.1854  -20.5501   -9.7254 C   0  0  0  0  0  0  0  0  0  0  0  0
   26.4777  -20.5588  -10.9425 S   0  0  0  0  0  0  0  0  0  0  0  0
   26.0173  -21.1542  -12.5512 C   0  0  0  0  0  0  0  0  0  0  0  0
   27.1505  -21.3067  -13.4951 C   0  0  0  0  0  0  0  0  0  0  0  0
   26.8530  -21.9421  -14.8149 C   0  0  2  0  0  0  0  0  0  0  0  0
   28.1199  -21.8715  -15.5727 N   0  0  0  0  0  0  0  0  0  0  0  0
   25.9080  -21.0235  -15.5242 C   0  0  0  0  0  0  0  0  0  0  0  0
   26.3692  -20.0630  -16.1673 O   0  0  0  0  0  0  0  0  0  0  0  0
   24.5249  -21.1734  -15.5130 N   0  0  0  0  0  0  0  0  0  0  0  0
   23.6767  -20.7533  -16.5956 C   0  0  1  0  0  0  0  0  0  0  0  0
   23.9870  -21.2776  -17.9047 C   0  0  0  0  0  0  0  0  0  0  0  0
   23.0850  -20.8124  -18.9698 C   0  0  0  0  0  0  0  0  0  0  0  0
   22.9416  -19.4728  -19.3756 C   0  0  0  0  0  0  0  0  0  0  0  0
   22.0186  -19.3626  -20.3306 N   0  0  0  0  0  0  0  0  0  0  0  0
   21.5545  -20.5819  -20.5640 C   0  0  0  0  0  0  0  0  0  0  0  0
   20.5925  -21.0071  -21.4863 C   0  0  0  0  0  0  0  0  0  0  0  0
   20.2680  -22.3401  -21.5900 C   0  0  0  0  0  0  0  0  0  0  0  0
   20.9118  -23.2373  -20.7669 C   0  0  0  0  0  0  0  0  0  0  0  0
   21.8591  -22.8242  -19.8563 C   0  0  0  0  0  0  0  0  0  0  0  0
   22.1840  -21.4929  -19.7505 C   0  0  0  0  0  0  0  0  0  0  0  0
   22.2967  -20.9547  -16.1933 C   0  0  0  0  0  0  0  0  0  0  0  0
   21.3598  -19.9808  -16.5015 O   0  0  0  0  0  0  0  0  0  0  0  0
   21.8512  -21.9492  -15.5765 O   0  0  0  0  0  0  0  0  0  0  0  0
  2  1  1  0
  3  2  2  0
  4  2  1  0
  5  6  1  6
  5  4  1  0
  7  5  1  0
  8  7  2  0
 10  9  1  0
 11 10  1  0
 12 11  1  0
 13 12  1  1
 13 14  1  0
 14  7  1  0
 15 13  1  0
 15 16  2  0
 17 15  1  0
 18 17  1  0
 18 19  1  6
 20 19  1  0
 20 21  2  0
 22 21  1  0
 23 22  1  0
 24 23  2  0
 25 24  1  0
 26 25  2  0
 26 27  1  0
 27 28  2  0
 28 23  1  0
 28 20  1  0
 29 18  1  0
 30 29  1  0
 31 29  2  0
M  END
$$$$
