NMW.pdb
     RDKit          3D

 31 32  0  0  1  0  0  0  0  0999 V2000
   21.6904  -24.4463  -16.4690 N   0  0  0  0  0  0  0  0  0  0  0  0
   22.5201  -23.3122  -16.3132 C   0  0  0  0  0  0  0  0  0  0  0  0
   22.1571  -22.1875  -16.7371 O   0  0  0  0  0  0  0  0  0  0  0  0
   23.8286  -23.4754  -15.6390 C   0  0  0  0  0  0  0  0  0  0  0  0
   24.8664  -22.6532  -16.3751 C   0  0  2  0  0  0  0  0  0  0  0  0
   25.3346  -23.4214  -17.4944 N   0  0  0  0  0  0  0  0  0  0  0  0
   25.9504  -22.3645  -15.3978 C   0  0  0  0  0  0  0  0  0  0  0  0
   27.0326  -23.0067  -15.4382 O   0  0  0  0  0  0  0  0  0  0  0  0
   27.5126  -16.3133  -14.0014 C   0  0  0  0  0  0  0  0  0  0  0  0
   27.9833  -17.4026  -15.3217 S   0  0  0  0  0  0  0  0  0  0  0  0
   27.8455  -19.1389  -14.9745 C   0  0  0  0  0  0  0  0  0  0  0  0
   26.9932  -19.4640  -13.8056 C   0  0  0  0  0  0  0  0  0  0  0  0
   26.7921  -20.9121  -13.4946 C   0  0  2  0  0  0  0  0  0  0  0  0
   25.7465  -21.3681  -14.4343 N   0  0  0  0  0  0  0  0  0  0  0  0
   26.1660  -20.9709  -12.1365 C   0  0  0  0  0  0  0  0  0  0  0  0
   24.9822  -20.6112  -12.0019 O   0  0  0  0  0  0  0  0  0  0  0  0
   26.8295  -21.4083  -10.9945 N   0  0  0  0  0  0  0  0  0  0  0  0
   26.2681  -21.3210   -9.6734 C   0  0  1  0  0  0  0  0  0  0  0  0
   27.1439  -21.6473   -8.5728 C   0  0  0  0  0  0  0  0  0  0  0  0
   27.2838  -20.5751   -7.5753 C   0  0  0  0  0  0  0  0  0  0  0  0
   26.4383  -19.4551   -7.4729 C   0  0  0  0  0  0  0  0  0  0  0  0
   26.8461  -18.6400   -6.5005 N   0  0  0  0  0  0  0  0  0  0  0  0
   27.9268  -19.1876   -5.9633 C   0  0  0  0  0  0  0  0  0  0  0  0
   28.7163  -18.7402   -4.8987 C   0  0  0  0  0  0  0  0  0  0  0  0
   29.7951  -19.4800   -4.4722 C   0  0  0  0  0  0  0  0  0  0  0  0
   30.0738  -20.6643   -5.1177 C   0  0  0  0  0  0  0  0  0  0  0  0
   29.3005  -21.1094   -6.1670 C   0  0  0  0  0  0  0  0  0  0  0  0
   28.2230  -20.3713   -6.5952 C   0  0  0  0  0  0  0  0  0  0  0  0
   25.6159  -20.0308   -9.5435 C   0  0  0  0  0  0  0  0  0  0  0  0
   26.2499  -18.9056  -10.0466 O   0  0  0  0  0  0  0  0  0  0  0  0
   24.5040  -19.8229   -9.0063 O   0  0  0  0  0  0  0  0  0  0  0  0
  2  1  1  0
  3  2  2  0
  4  2  1  0
  5  6  1  6
  5  4  1  0
  7  5  1  0
  8  7  2  0
 10  9  1  0
 11 10  1  0
 12 11  1  0
 13 12  1  6
 13 14  1  0
 14  7  1  0
 15 13  1  0
 15 16  2  0
 17 15  1  0
 18 17  1  0
 18 19  1  1
 20 19  1  0
 20 21  2  0
 22 21  1  0
 23 22  1  0
 24 23  2  0
 25 24  1  0
 26 25  2  0
 26 27  1  0
 27 28  2  0
 28 23  1  0
 28 20  1  0
 29 18  1  0
 30 29  1  0
 31 29  2  0
M  END
$$$$
