NMW.pdb
     RDKit          3D

 31 32  0  0  1  0  0  0  0  0999 V2000
   17.2721  -12.4047  -18.6777 N   0  0  0  0  0  0  0  0  0  0  0  0
   17.0898  -11.2906  -17.8267 C   0  0  0  0  0  0  0  0  0  0  0  0
   16.0471  -10.5944  -17.8942 O   0  0  0  0  0  0  0  0  0  0  0  0
   18.1539  -10.9588  -16.8515 C   0  0  0  0  0  0  0  0  0  0  0  0
   19.3056  -11.9261  -17.0329 C   0  0  2  0  0  0  0  0  0  0  0  0
   18.9195  -13.1915  -16.4746 N   0  0  0  0  0  0  0  0  0  0  0  0
   20.4734  -11.3326  -16.3276 C   0  0  0  0  0  0  0  0  0  0  0  0
   20.5859  -11.4410  -15.0783 O   0  0  0  0  0  0  0  0  0  0  0  0
   27.4983  -10.5758  -15.2480 C   0  0  0  0  0  0  0  0  0  0  0  0
   25.8413  -11.0303  -15.6943 S   0  0  0  0  0  0  0  0  0  0  0  0
   25.1663  -10.1924  -17.1073 C   0  0  0  0  0  0  0  0  0  0  0  0
   23.7747  -10.5796  -17.4418 C   0  0  0  0  0  0  0  0  0  0  0  0
   22.7017  -10.1309  -16.5030 C   0  0  2  0  0  0  0  0  0  0  0  0
   21.4432  -10.6528  -17.0759 N   0  0  0  0  0  0  0  0  0  0  0  0
   22.6174   -8.6426  -16.6358 C   0  0  0  0  0  0  0  0  0  0  0  0
   22.2770   -8.1527  -17.7281 O   0  0  0  0  0  0  0  0  0  0  0  0
   22.8988   -7.7542  -15.6027 N   0  0  0  0  0  0  0  0  0  0  0  0
   22.8301   -6.3253  -15.7498 C   0  0  1  0  0  0  0  0  0  0  0  0
   22.9879   -5.5405  -14.5482 C   0  0  0  0  0  0  0  0  0  0  0  0
   22.7884   -4.0957  -14.7412 C   0  0  0  0  0  0  0  0  0  0  0  0
   21.6299   -3.3866  -14.3739 C   0  0  0  0  0  0  0  0  0  0  0  0
   21.7310   -2.1026  -14.7164 N   0  0  0  0  0  0  0  0  0  0  0  0
   22.9141   -1.9471  -15.2932 C   0  0  0  0  0  0  0  0  0  0  0  0
   23.5088   -0.7901  -15.8075 C   0  0  0  0  0  0  0  0  0  0  0  0
   24.7730   -0.8379  -16.3483 C   0  0  0  0  0  0  0  0  0  0  0  0
   25.4316   -2.0474  -16.3690 C   0  0  0  0  0  0  0  0  0  0  0  0
   24.8506   -3.1900  -15.8650 C   0  0  0  0  0  0  0  0  0  0  0  0
   23.5874   -3.1445  -15.3252 C   0  0  0  0  0  0  0  0  0  0  0  0
   23.7230   -5.9382  -16.8266 C   0  0  0  0  0  0  0  0  0  0  0  0
   23.2129   -5.2137  -17.8925 O   0  0  0  0  0  0  0  0  0  0  0  0
   24.9457   -6.1999  -16.8942 O   0  0  0  0  0  0  0  0  0  0  0  0
  2  1  1  0
  3  2  2  0
  4  2  1  0
  5  6  1  1
  5  4  1  0
  7  5  1  0
  8  7  2  0
 10  9  1  0
 11 10  1  0
 12 11  1  0
 13 12  1  6
 13 14  1  0
 14  7  1  0
 15 13  1  0
 15 16  2  0
 17 15  1  0
 18 17  1  0
 18 19  1  1
 20 19  1  0
 20 21  2  0
 22 21  1  0
 23 22  1  0
 24 23  2  0
 25 24  1  0
 26 25  2  0
 26 27  1  0
 27 28  2  0
 28 23  1  0
 28 20  1  0
 29 18  1  0
 30 29  1  0
 31 29  2  0
M  END
$$$$
