NMW.pdb
     RDKit          3D

 31 32  0  0  1  0  0  0  0  0999 V2000
   27.5442  -18.6105  -17.5945 N   0  0  0  0  0  0  0  0  0  0  0  0
   27.8995  -18.7554  -16.2338 C   0  0  0  0  0  0  0  0  0  0  0  0
   28.9606  -18.2520  -15.7896 O   0  0  0  0  0  0  0  0  0  0  0  0
   26.9948  -19.5136  -15.3393 C   0  0  0  0  0  0  0  0  0  0  0  0
   27.8115  -20.5157  -14.5495 C   0  0  2  0  0  0  0  0  0  0  0  0
   28.3467  -21.4806  -15.4685 N   0  0  0  0  0  0  0  0  0  0  0  0
   26.8861  -21.1326  -13.5613 C   0  0  0  0  0  0  0  0  0  0  0  0
   26.0622  -22.0132  -13.9231 O   0  0  0  0  0  0  0  0  0  0  0  0
   28.3020  -20.0968   -7.1322 C   0  0  0  0  0  0  0  0  0  0  0  0
   26.5357  -20.2692   -7.1767 S   0  0  0  0  0  0  0  0  0  0  0  0
   25.8712  -21.0187   -8.6433 C   0  0  0  0  0  0  0  0  0  0  0  0
   26.5813  -20.6542   -9.8928 C   0  0  0  0  0  0  0  0  0  0  0  0
   26.0534  -21.2323  -11.1661 C   0  0  2  0  0  0  0  0  0  0  0  0
   26.9474  -20.7177  -12.2246 N   0  0  0  0  0  0  0  0  0  0  0  0
   24.7271  -20.5827  -11.4087 C   0  0  0  0  0  0  0  0  0  0  0  0
   24.6311  -19.3469  -11.2964 O   0  0  0  0  0  0  0  0  0  0  0  0
   23.5742  -21.2790  -11.7573 N   0  0  0  0  0  0  0  0  0  0  0  0
   22.2924  -20.6493  -11.9258 C   0  0  1  0  0  0  0  0  0  0  0  0
   22.2118  -19.5928  -12.9066 C   0  0  0  0  0  0  0  0  0  0  0  0
   22.6151  -19.9968  -14.2625 C   0  0  0  0  0  0  0  0  0  0  0  0
   22.3130  -21.2358  -14.8570 C   0  0  0  0  0  0  0  0  0  0  0  0
   22.8518  -21.3227  -16.0729 N   0  0  0  0  0  0  0  0  0  0  0  0
   23.4941  -20.1848  -16.2946 C   0  0  0  0  0  0  0  0  0  0  0  0
   24.2034  -19.7685  -17.4262 C   0  0  0  0  0  0  0  0  0  0  0  0
   24.7824  -18.5211  -17.4657 C   0  0  0  0  0  0  0  0  0  0  0  0
   24.6451  -17.6998  -16.3685 C   0  0  0  0  0  0  0  0  0  0  0  0
   23.9486  -18.1047  -15.2513 C   0  0  0  0  0  0  0  0  0  0  0  0
   23.3704  -19.3509  -15.2095 C   0  0  0  0  0  0  0  0  0  0  0  0
   21.2963  -21.6907  -12.0999 C   0  0  0  0  0  0  0  0  0  0  0  0
   21.7186  -22.9967  -12.2925 O   0  0  0  0  0  0  0  0  0  0  0  0
   20.0550  -21.5253  -12.0942 O   0  0  0  0  0  0  0  0  0  0  0  0
  2  1  1  0
  3  2  2  0
  4  2  1  0
  5  6  1  6
  5  4  1  0
  7  5  1  0
  8  7  2  0
 10  9  1  0
 11 10  1  0
 12 11  1  0
 13 12  1  1
 13 14  1  0
 14  7  1  0
 15 13  1  0
 15 16  2  0
 17 15  1  0
 18 17  1  0
 18 19  1  6
 20 19  1  0
 20 21  2  0
 22 21  1  0
 23 22  1  0
 24 23  2  0
 25 24  1  0
 26 25  2  0
 26 27  1  0
 27 28  2  0
 28 23  1  0
 28 20  1  0
 29 18  1  0
 30 29  1  0
 31 29  2  0
M  END
$$$$
