VAR.pdb
     RDKit          3D

 24 23  0  0  1  0  0  0  0  0999 V2000
    7.9943  -13.1642   17.4664 C   0  0  0  0  0  0  0  0  0  0  0  0
    7.9982  -14.1781   18.5915 C   0  0  2  0  0  0  0  0  0  0  0  0
    7.0312  -13.6784   19.6518 C   0  0  0  0  0  0  0  0  0  0  0  0
    9.4104  -14.2910   19.1184 C   0  0  2  0  0  0  0  0  0  0  0  0
   10.2091  -14.8025   18.0177 N   0  0  0  0  0  0  0  0  0  0  0  0
    9.4187  -15.2222   20.2707 C   0  0  0  0  0  0  0  0  0  0  0  0
    8.8190  -14.9847   21.3483 O   0  0  0  0  0  0  0  0  0  0  0  0
   11.3015  -18.4241   21.1312 C   0  0  0  0  0  0  0  0  0  0  0  0
   10.2312  -17.3752   21.3099 C   0  0  2  0  0  0  0  0  0  0  0  0
   10.1208  -16.4621   20.2173 N   0  0  0  0  0  0  0  0  0  0  0  0
   10.3827  -16.7491   22.6170 C   0  0  0  0  0  0  0  0  0  0  0  0
   11.2510  -15.8541   22.8955 O   0  0  0  0  0  0  0  0  0  0  0  0
    5.2389  -11.4164   25.6764 N   0  0  0  0  0  0  0  0  0  0  0  0
    5.9245  -11.6220   26.8981 C   0  0  0  0  0  0  0  0  0  0  0  0
    5.8056  -10.7506   27.8216 N   0  0  0  0  0  0  0  0  0  0  0  0
    6.7367  -12.7990   27.0835 N   0  0  0  0  0  0  0  0  0  0  0  0
    7.0209  -13.6372   25.9836 C   0  0  0  0  0  0  0  0  0  0  0  0
    7.9074  -14.8190   26.1692 C   0  0  0  0  0  0  0  0  0  0  0  0
    8.2597  -15.6361   24.9986 C   0  0  0  0  0  0  0  0  0  0  0  0
    9.5517  -16.3825   24.9748 C   0  0  2  0  0  0  0  0  0  0  0  0
    9.5276  -17.1294   23.6797 N   0  0  0  0  0  0  0  0  0  0  0  0
    9.5490  -17.3849   26.0779 C   0  0  0  0  0  0  0  0  0  0  0  0
    9.2354  -18.5574   25.8567 O   0  0  0  0  0  0  0  0  0  0  0  0
    9.9146  -16.9253   27.3485 O   0  0  0  0  0  0  0  0  0  0  0  0
  2  1  1  6
  3  2  1  0
  4  2  1  0
  4  5  1  6
  6  4  1  0
  6  7  2  0
  9  8  1  6
  9 10  1  0
 10  6  1  0
 11  9  1  0
 11 12  2  0
 13 14  1  0
 14 15  2  0
 16 14  1  0
 16 17  1  0
 18 17  1  0
 19 18  1  0
 20 21  1  0
 20 19  1  1
 21 11  1  0
 22 20  1  0
 23 22  2  0
 24 22  1  0
M  END
$$$$
