VAR.pdb
     RDKit          3D

 24 23  0  0  1  0  0  0  0  0999 V2000
    5.9038  -15.0036   20.4939 C   0  0  0  0  0  0  0  0  0  0  0  0
    7.1396  -14.5148   19.7675 C   0  0  2  0  0  0  0  0  0  0  0  0
    8.1481  -15.6514   19.7787 C   0  0  0  0  0  0  0  0  0  0  0  0
    7.6555  -13.2903   20.4881 C   0  0  2  0  0  0  0  0  0  0  0  0
    8.7491  -12.7802   19.6788 N   0  0  0  0  0  0  0  0  0  0  0  0
    8.1213  -13.6890   21.8368 C   0  0  0  0  0  0  0  0  0  0  0  0
    9.1773  -14.3398   22.0329 O   0  0  0  0  0  0  0  0  0  0  0  0
    6.8958  -13.0948   25.4113 C   0  0  0  0  0  0  0  0  0  0  0  0
    7.7725  -13.6917   24.3376 C   0  0  2  0  0  0  0  0  0  0  0  0
    7.3819  -13.3483   23.0075 N   0  0  0  0  0  0  0  0  0  0  0  0
    7.9269  -15.1203   24.5799 C   0  0  0  0  0  0  0  0  0  0  0  0
    7.0130  -15.9914   24.3842 O   0  0  0  0  0  0  0  0  0  0  0  0
   12.9738  -19.8224   20.6115 N   0  0  0  0  0  0  0  0  0  0  0  0
   12.2904  -18.7159   20.0515 C   0  0  0  0  0  0  0  0  0  0  0  0
   12.5564  -18.3749   18.8518 N   0  0  0  0  0  0  0  0  0  0  0  0
   11.3132  -17.9978   20.8316 N   0  0  0  0  0  0  0  0  0  0  0  0
   11.4710  -17.8917   22.2306 C   0  0  0  0  0  0  0  0  0  0  0  0
   10.2727  -17.7009   23.0935 C   0  0  0  0  0  0  0  0  0  0  0  0
   10.4584  -17.5215   24.5411 C   0  0  0  0  0  0  0  0  0  0  0  0
    9.3144  -17.0717   25.3871 C   0  0  2  0  0  0  0  0  0  0  0  0
    9.1600  -15.6197   25.0648 N   0  0  0  0  0  0  0  0  0  0  0  0
    9.7045  -17.1801   26.8215 C   0  0  0  0  0  0  0  0  0  0  0  0
    9.9898  -16.1702   27.4701 O   0  0  0  0  0  0  0  0  0  0  0  0
    9.7270  -18.4663   27.3734 O   0  0  0  0  0  0  0  0  0  0  0  0
  2  1  1  1
  3  2  1  0
  4  2  1  0
  4  5  1  6
  6  4  1  0
  6  7  2  0
  9  8  1  1
  9 10  1  0
 10  6  1  0
 11  9  1  0
 11 12  2  0
 13 14  1  0
 14 15  2  0
 16 14  1  0
 16 17  1  0
 18 17  1  0
 19 18  1  0
 20 21  1  0
 20 19  1  6
 21 11  1  0
 22 20  1  0
 23 22  2  0
 24 22  1  0
M  END
$$$$
