VAR.pdb
     RDKit          3D

 24 23  0  0  1  0  0  0  0  0999 V2000
    7.4418  -14.2888   18.3070 C   0  0  0  0  0  0  0  0  0  0  0  0
    7.9365  -13.2795   19.3221 C   0  0  2  0  0  0  0  0  0  0  0  0
    8.0362  -11.9392   18.6132 C   0  0  0  0  0  0  0  0  0  0  0  0
    9.2768  -13.7500   19.8389 C   0  0  2  0  0  0  0  0  0  0  0  0
   10.1156  -13.9351   18.6671 N   0  0  0  0  0  0  0  0  0  0  0  0
    9.0868  -15.0221   20.5742 C   0  0  0  0  0  0  0  0  0  0  0  0
    8.4149  -15.1090   21.6317 O   0  0  0  0  0  0  0  0  0  0  0  0
    9.5471  -18.6942   19.9116 C   0  0  0  0  0  0  0  0  0  0  0  0
    9.5987  -17.4833   20.8110 C   0  0  2  0  0  0  0  0  0  0  0  0
    9.6672  -16.2398   20.1120 N   0  0  0  0  0  0  0  0  0  0  0  0
   10.6326  -17.6754   21.8198 C   0  0  0  0  0  0  0  0  0  0  0  0
   10.8115  -18.7563   22.4772 O   0  0  0  0  0  0  0  0  0  0  0  0
   16.5296  -13.6016   20.1010 N   0  0  0  0  0  0  0  0  0  0  0  0
   15.9022  -14.2867   19.0323 C   0  0  0  0  0  0  0  0  0  0  0  0
   15.9383  -13.7689   17.8674 N   0  0  0  0  0  0  0  0  0  0  0  0
   15.2403  -15.5458   19.2685 N   0  0  0  0  0  0  0  0  0  0  0  0
   14.9482  -15.9493   20.5894 C   0  0  0  0  0  0  0  0  0  0  0  0
   13.8921  -15.2362   21.3597 C   0  0  0  0  0  0  0  0  0  0  0  0
   13.5975  -15.6690   22.7338 C   0  0  0  0  0  0  0  0  0  0  0  0
   12.7311  -16.8612   22.9678 C   0  0  2  0  0  0  0  0  0  0  0  0
   11.5227  -16.6163   22.1218 N   0  0  0  0  0  0  0  0  0  0  0  0
   12.2947  -16.8670   24.3930 C   0  0  0  0  0  0  0  0  0  0  0  0
   11.1422  -16.5474   24.6955 O   0  0  0  0  0  0  0  0  0  0  0  0
   13.2495  -17.2475   25.3432 O   0  0  0  0  0  0  0  0  0  0  0  0
  2  1  1  6
  3  2  1  0
  4  2  1  0
  4  5  1  6
  6  4  1  0
  6  7  2  0
  9  8  1  6
  9 10  1  0
 10  6  1  0
 11  9  1  0
 11 12  2  0
 13 14  1  0
 14 15  2  0
 16 14  1  0
 16 17  1  0
 18 17  1  0
 19 18  1  0
 20 21  1  0
 20 19  1  1
 21 11  1  0
 22 20  1  0
 23 22  2  0
 24 22  1  0
M  END
$$$$
