VAR.pdb
     RDKit          3D

 24 23  0  0  1  0  0  0  0  0999 V2000
    7.5536  -12.5960   18.5785 C   0  0  0  0  0  0  0  0  0  0  0  0
    7.9116  -13.5739   19.6781 C   0  0  2  0  0  0  0  0  0  0  0  0
    8.8356  -12.8491   20.6425 C   0  0  0  0  0  0  0  0  0  0  0  0
    8.5796  -14.7720   19.0433 C   0  0  2  0  0  0  0  0  0  0  0  0
    7.5898  -15.3598   18.1569 N   0  0  0  0  0  0  0  0  0  0  0  0
    8.9798  -15.7186   20.1105 C   0  0  0  0  0  0  0  0  0  0  0  0
    8.1530  -16.3066   20.8507 O   0  0  0  0  0  0  0  0  0  0  0  0
   12.2637  -17.2330   21.3330 C   0  0  0  0  0  0  0  0  0  0  0  0
   10.8188  -16.8130   21.4504 C   0  0  2  0  0  0  0  0  0  0  0  0
   10.3513  -16.0194   20.3591 N   0  0  0  0  0  0  0  0  0  0  0  0
   10.5900  -16.2355   22.7686 C   0  0  0  0  0  0  0  0  0  0  0  0
   10.8923  -15.0386   23.0977 O   0  0  0  0  0  0  0  0  0  0  0  0
    7.1554  -12.4169   25.0904 N   0  0  0  0  0  0  0  0  0  0  0  0
    6.4011  -12.5879   26.2764 C   0  0  0  0  0  0  0  0  0  0  0  0
    6.4240  -11.6644   27.1556 N   0  0  0  0  0  0  0  0  0  0  0  0
    5.6242  -13.7865   26.4741 N   0  0  0  0  0  0  0  0  0  0  0  0
    6.1087  -15.0244   25.9987 C   0  0  0  0  0  0  0  0  0  0  0  0
    7.5608  -15.3358   26.1055 C   0  0  0  0  0  0  0  0  0  0  0  0
    8.2112  -16.0826   25.0185 C   0  0  0  0  0  0  0  0  0  0  0  0
    9.6622  -16.4181   25.1118 C   0  0  2  0  0  0  0  0  0  0  0  0
    9.9921  -17.0210   23.7838 N   0  0  0  0  0  0  0  0  0  0  0  0
    9.8468  -17.4729   26.1486 C   0  0  0  0  0  0  0  0  0  0  0  0
    9.9477  -18.6586   25.8233 O   0  0  0  0  0  0  0  0  0  0  0  0
    9.8971  -17.0458   27.4806 O   0  0  0  0  0  0  0  0  0  0  0  0
  2  1  1  6
  3  2  1  0
  4  2  1  0
  4  5  1  6
  6  4  1  0
  6  7  2  0
  9  8  1  6
  9 10  1  0
 10  6  1  0
 11  9  1  0
 11 12  2  0
 13 14  1  0
 14 15  2  0
 16 14  1  0
 16 17  1  0
 18 17  1  0
 19 18  1  0
 20 21  1  0
 20 19  1  6
 21 11  1  0
 22 20  1  0
 23 22  2  0
 24 22  1  0
M  END
$$$$
