VAR.pdb
     RDKit          3D

 24 23  0  0  1  0  0  0  0  0999 V2000
    6.6446  -14.5617   19.1589 C   0  0  0  0  0  0  0  0  0  0  0  0
    7.4016  -13.3965   19.7613 C   0  0  2  0  0  0  0  0  0  0  0  0
    7.3901  -12.2738   18.7373 C   0  0  0  0  0  0  0  0  0  0  0  0
    8.8044  -13.8607   20.0798 C   0  0  2  0  0  0  0  0  0  0  0  0
    9.3483  -14.3759   18.8349 N   0  0  0  0  0  0  0  0  0  0  0  0
    8.7357  -14.9159   21.1175 C   0  0  0  0  0  0  0  0  0  0  0  0
    8.2374  -14.7277   22.2548 O   0  0  0  0  0  0  0  0  0  0  0  0
    9.6948  -18.6177   21.2750 C   0  0  0  0  0  0  0  0  0  0  0  0
    9.1078  -17.3232   21.7824 C   0  0  2  0  0  0  0  0  0  0  0  0
    9.2406  -16.2275   20.8762 N   0  0  0  0  0  0  0  0  0  0  0  0
    9.6001  -17.0656   23.1296 C   0  0  0  0  0  0  0  0  0  0  0  0
   10.7734  -16.6401   23.4033 O   0  0  0  0  0  0  0  0  0  0  0  0
    7.1110  -11.6073   24.9390 N   0  0  0  0  0  0  0  0  0  0  0  0
    6.6854  -11.9209   26.2526 C   0  0  0  0  0  0  0  0  0  0  0  0
    5.7764  -11.2054   26.7894 N   0  0  0  0  0  0  0  0  0  0  0  0
    7.2745  -13.0315   26.9590 N   0  0  0  0  0  0  0  0  0  0  0  0
    7.2260  -14.3262   26.3982 C   0  0  0  0  0  0  0  0  0  0  0  0
    7.8772  -15.4606   27.1097 C   0  0  0  0  0  0  0  0  0  0  0  0
    8.0125  -16.7515   26.4186 C   0  0  0  0  0  0  0  0  0  0  0  0
    9.2451  -17.0473   25.6312 C   0  0  2  0  0  0  0  0  0  0  0  0
    8.7509  -17.2881   24.2406 N   0  0  0  0  0  0  0  0  0  0  0  0
    9.8406  -18.3198   26.1289 C   0  0  0  0  0  0  0  0  0  0  0  0
    9.5774  -19.3913   25.5771 O   0  0  0  0  0  0  0  0  0  0  0  0
   10.6950  -18.2264   27.2337 O   0  0  0  0  0  0  0  0  0  0  0  0
  2  1  1  6
  3  2  1  0
  4  2  1  0
  4  5  1  6
  6  4  1  0
  6  7  2  0
  9  8  1  6
  9 10  1  0
 10  6  1  0
 11  9  1  0
 11 12  2  0
 13 14  1  0
 14 15  2  0
 16 14  1  0
 16 17  1  0
 18 17  1  0
 19 18  1  0
 20 21  1  0
 20 19  1  1
 21 11  1  0
 22 20  1  0
 23 22  2  0
 24 22  1  0
M  END
$$$$
