VAR.pdb
     RDKit          3D

 24 23  0  0  1  0  0  0  0  0999 V2000
    6.7030  -14.2685   19.0632 C   0  0  0  0  0  0  0  0  0  0  0  0
    7.7295  -13.2279   19.4596 C   0  0  2  0  0  0  0  0  0  0  0  0
    7.4863  -12.0026   18.5944 C   0  0  0  0  0  0  0  0  0  0  0  0
    9.1046  -13.8154   19.2389 C   0  0  2  0  0  0  0  0  0  0  0  0
    9.1393  -14.2441   17.8511 N   0  0  0  0  0  0  0  0  0  0  0  0
    9.2909  -14.9585   20.1628 C   0  0  0  0  0  0  0  0  0  0  0  0
    9.2299  -14.8473   21.4122 O   0  0  0  0  0  0  0  0  0  0  0  0
   10.1619  -18.6599   19.7559 C   0  0  0  0  0  0  0  0  0  0  0  0
    9.7280  -17.4221   20.5024 C   0  0  2  0  0  0  0  0  0  0  0  0
    9.5540  -16.2719   19.6739 N   0  0  0  0  0  0  0  0  0  0  0  0
   10.6008  -17.2212   21.6519 C   0  0  0  0  0  0  0  0  0  0  0  0
   11.8008  -16.7878   21.5836 O   0  0  0  0  0  0  0  0  0  0  0  0
    9.9768  -13.7200   28.3745 N   0  0  0  0  0  0  0  0  0  0  0  0
   10.3742  -14.7691   29.2383 C   0  0  0  0  0  0  0  0  0  0  0  0
   11.1222  -14.4932   30.2337 N   0  0  0  0  0  0  0  0  0  0  0  0
    9.9335  -16.1192   28.9884 N   0  0  0  0  0  0  0  0  0  0  0  0
    9.4879  -16.4858   27.6999 C   0  0  0  0  0  0  0  0  0  0  0  0
   10.4731  -16.6194   26.5914 C   0  0  0  0  0  0  0  0  0  0  0  0
    9.9940  -17.0014   25.2547 C   0  0  0  0  0  0  0  0  0  0  0  0
   10.9726  -17.2278   24.1511 C   0  0  2  0  0  0  0  0  0  0  0  0
   10.1246  -17.5133   22.9530 N   0  0  0  0  0  0  0  0  0  0  0  0
   11.7623  -18.4555   24.4522 C   0  0  0  0  0  0  0  0  0  0  0  0
   11.3470  -19.5657   24.1105 O   0  0  0  0  0  0  0  0  0  0  0  0
   12.9737  -18.2755   25.1300 O   0  0  0  0  0  0  0  0  0  0  0  0
  2  1  1  6
  3  2  1  0
  4  2  1  0
  4  5  1  6
  6  4  1  0
  6  7  2  0
  9  8  1  6
  9 10  1  0
 10  6  1  0
 11  9  1  0
 11 12  2  0
 13 14  1  0
 14 15  2  0
 16 14  1  0
 16 17  1  0
 18 17  1  0
 19 18  1  0
 20 21  1  0
 20 19  1  1
 21 11  1  0
 22 20  1  0
 23 22  2  0
 24 22  1  0
M  END
$$$$
