VAR.pdb
     RDKit          3D

 24 23  0  0  1  0  0  0  0  0999 V2000
    7.6871  -22.2374   23.3180 C   0  0  0  0  0  0  0  0  0  0  0  0
    7.3886  -22.7800   24.7000 C   0  0  2  0  0  0  0  0  0  0  0  0
    6.9478  -24.2245   24.5315 C   0  0  0  0  0  0  0  0  0  0  0  0
    6.3066  -21.9243   25.3180 C   0  0  2  0  0  0  0  0  0  0  0  0
    5.1037  -22.1782   24.5438 N   0  0  0  0  0  0  0  0  0  0  0  0
    6.7139  -20.5023   25.2335 C   0  0  0  0  0  0  0  0  0  0  0  0
    6.5831  -19.8124   24.1923 O   0  0  0  0  0  0  0  0  0  0  0  0
    8.1983  -17.9538   27.6696 C   0  0  0  0  0  0  0  0  0  0  0  0
    7.7631  -18.4811   26.3241 C   0  0  2  0  0  0  0  0  0  0  0  0
    7.2870  -19.8273   26.3512 N   0  0  0  0  0  0  0  0  0  0  0  0
    8.8092  -18.2221   25.3432 C   0  0  0  0  0  0  0  0  0  0  0  0
    9.8243  -18.9739   25.1508 O   0  0  0  0  0  0  0  0  0  0  0  0
    8.0421  -14.3523   18.0654 N   0  0  0  0  0  0  0  0  0  0  0  0
    8.0241  -13.3670   19.0822 C   0  0  0  0  0  0  0  0  0  0  0  0
    7.4940  -12.2350   18.8291 N   0  0  0  0  0  0  0  0  0  0  0  0
    8.5952  -13.6505   20.3755 N   0  0  0  0  0  0  0  0  0  0  0  0
    9.6531  -14.5785   20.4884 C   0  0  0  0  0  0  0  0  0  0  0  0
   10.2117  -14.8972   21.8314 C   0  0  0  0  0  0  0  0  0  0  0  0
    9.3463  -15.5465   22.8272 C   0  0  0  0  0  0  0  0  0  0  0  0
    9.8371  -16.7436   23.5708 C   0  0  2  0  0  0  0  0  0  0  0  0
    8.7329  -17.0689   24.5251 N   0  0  0  0  0  0  0  0  0  0  0  0
   11.0319  -16.3555   24.3730 C   0  0  0  0  0  0  0  0  0  0  0  0
   10.9090  -16.0097   25.5508 O   0  0  0  0  0  0  0  0  0  0  0  0
   12.2709  -16.4061   23.7237 O   0  0  0  0  0  0  0  0  0  0  0  0
  2  1  1  6
  3  2  1  0
  4  2  1  0
  4  5  1  6
  6  4  1  0
  6  7  2  0
  9  8  1  1
  9 10  1  0
 10  6  1  0
 11  9  1  0
 11 12  2  0
 13 14  1  0
 14 15  2  0
 16 14  1  0
 16 17  1  0
 18 17  1  0
 19 18  1  0
 20 21  1  0
 20 19  1  6
 21 11  1  0
 22 20  1  0
 23 22  2  0
 24 22  1  0
M  END
$$$$
