VAR.pdb
     RDKit          3D

 24 23  0  0  1  0  0  0  0  0999 V2000
   11.5380  -17.6534   16.5807 C   0  0  0  0  0  0  0  0  0  0  0  0
   11.6941  -19.1170   16.2241 C   0  0  2  0  0  0  0  0  0  0  0  0
   11.5752  -19.2278   14.7133 C   0  0  0  0  0  0  0  0  0  0  0  0
   10.6113  -19.8934   16.9378 C   0  0  2  0  0  0  0  0  0  0  0  0
    9.3529  -19.4408   16.3697 N   0  0  0  0  0  0  0  0  0  0  0  0
   10.6870  -19.5985   18.3878 C   0  0  0  0  0  0  0  0  0  0  0  0
   10.0998  -18.6247   18.9210 O   0  0  0  0  0  0  0  0  0  0  0  0
   12.1352  -21.4049   21.4255 C   0  0  0  0  0  0  0  0  0  0  0  0
   11.4797  -20.2604   20.6919 C   0  0  2  0  0  0  0  0  0  0  0  0
   11.4445  -20.4203   19.2732 N   0  0  0  0  0  0  0  0  0  0  0  0
   12.0526  -19.0018   21.1513 C   0  0  0  0  0  0  0  0  0  0  0  0
   13.1106  -18.4695   20.6719 O   0  0  0  0  0  0  0  0  0  0  0  0
    6.5155  -13.2091   20.3822 N   0  0  0  0  0  0  0  0  0  0  0  0
    7.7265  -13.2127   19.6485 C   0  0  0  0  0  0  0  0  0  0  0  0
    7.9780  -12.2294   18.8763 N   0  0  0  0  0  0  0  0  0  0  0  0
    8.6507  -14.3116   19.7817 N   0  0  0  0  0  0  0  0  0  0  0  0
    9.1950  -14.6225   21.0467 C   0  0  0  0  0  0  0  0  0  0  0  0
   10.1653  -15.7448   21.1741 C   0  0  0  0  0  0  0  0  0  0  0  0
   10.7361  -16.0465   22.4952 C   0  0  0  0  0  0  0  0  0  0  0  0
   11.9278  -16.9381   22.6039 C   0  0  2  0  0  0  0  0  0  0  0  0
   11.4235  -18.2863   22.1989 N   0  0  0  0  0  0  0  0  0  0  0  0
   12.3406  -17.0178   24.0339 C   0  0  0  0  0  0  0  0  0  0  0  0
   13.0364  -16.1305   24.5343 O   0  0  0  0  0  0  0  0  0  0  0  0
   11.9013  -18.1338   24.7557 O   0  0  0  0  0  0  0  0  0  0  0  0
  2  1  1  6
  3  2  1  0
  4  2  1  0
  4  5  1  6
  6  4  1  0
  6  7  2  0
  9  8  1  1
  9 10  1  0
 10  6  1  0
 11  9  1  0
 11 12  2  0
 13 14  1  0
 14 15  2  0
 16 14  1  0
 16 17  1  0
 18 17  1  0
 19 18  1  0
 20 21  1  0
 20 19  1  1
 21 11  1  0
 22 20  1  0
 23 22  2  0
 24 22  1  0
M  END
$$$$
