VAR.pdb
     RDKit          3D

 24 23  0  0  1  0  0  0  0  0999 V2000
    7.6567  -14.6514   16.9289 C   0  0  0  0  0  0  0  0  0  0  0  0
    8.2717  -14.8744   18.2948 C   0  0  2  0  0  0  0  0  0  0  0  0
    7.5838  -16.0833   18.9068 C   0  0  0  0  0  0  0  0  0  0  0  0
    8.0594  -13.6235   19.1164 C   0  0  2  0  0  0  0  0  0  0  0  0
    8.7223  -12.5518   18.3932 N   0  0  0  0  0  0  0  0  0  0  0  0
    8.6591  -13.8231   20.4564 C   0  0  0  0  0  0  0  0  0  0  0  0
    9.8792  -14.0632   20.6327 O   0  0  0  0  0  0  0  0  0  0  0  0
    7.3964  -13.6903   24.0600 C   0  0  0  0  0  0  0  0  0  0  0  0
    8.3423  -14.0751   22.9487 C   0  0  2  0  0  0  0  0  0  0  0  0
    7.8684  -13.7516   21.6409 N   0  0  0  0  0  0  0  0  0  0  0  0
    8.7540  -15.4618   23.1242 C   0  0  0  0  0  0  0  0  0  0  0  0
    8.0276  -16.4745   22.8429 O   0  0  0  0  0  0  0  0  0  0  0  0
   13.9314  -14.1058   20.2846 N   0  0  0  0  0  0  0  0  0  0  0  0
   13.6549  -15.0509   19.2671 C   0  0  0  0  0  0  0  0  0  0  0  0
   13.6881  -14.6690   18.0508 N   0  0  0  0  0  0  0  0  0  0  0  0
   13.3452  -16.4164   19.6118 N   0  0  0  0  0  0  0  0  0  0  0  0
   13.2473  -16.7938   20.9686 C   0  0  0  0  0  0  0  0  0  0  0  0
   11.9249  -16.7473   21.6514 C   0  0  0  0  0  0  0  0  0  0  0  0
   11.8324  -17.1754   23.0551 C   0  0  0  0  0  0  0  0  0  0  0  0
   10.5116  -17.1661   23.7494 C   0  0  2  0  0  0  0  0  0  0  0  0
   10.0414  -15.7510   23.6383 N   0  0  0  0  0  0  0  0  0  0  0  0
   10.7252  -17.4621   25.1945 C   0  0  0  0  0  0  0  0  0  0  0  0
   10.5780  -16.5782   26.0424 O   0  0  0  0  0  0  0  0  0  0  0  0
   11.0942  -18.7721   25.5220 O   0  0  0  0  0  0  0  0  0  0  0  0
  2  1  1  6
  3  2  1  0
  4  2  1  0
  4  5  1  6
  6  4  1  0
  6  7  2  0
  9  8  1  1
  9 10  1  0
 10  6  1  0
 11  9  1  0
 11 12  2  0
 13 14  1  0
 14 15  2  0
 16 14  1  0
 16 17  1  0
 18 17  1  0
 19 18  1  0
 20 21  1  0
 20 19  1  6
 21 11  1  0
 22 20  1  0
 23 22  2  0
 24 22  1  0
M  END
$$$$
