VAR.pdb
     RDKit          3D

 24 23  0  0  1  0  0  0  0  0999 V2000
    7.9158  -12.6549   19.8218 C   0  0  0  0  0  0  0  0  0  0  0  0
    8.8858  -12.9859   18.7068 C   0  0  2  0  0  0  0  0  0  0  0  0
    8.2303  -12.5692   17.4007 C   0  0  0  0  0  0  0  0  0  0  0  0
    9.1673  -14.4703   18.7530 C   0  0  2  0  0  0  0  0  0  0  0  0
    7.9778  -15.1202   18.2297 N   0  0  0  0  0  0  0  0  0  0  0  0
    9.4256  -14.8652   20.1574 C   0  0  0  0  0  0  0  0  0  0  0  0
   10.5080  -14.6276   20.7484 O   0  0  0  0  0  0  0  0  0  0  0  0
    7.3340  -16.3790   22.9699 C   0  0  0  0  0  0  0  0  0  0  0  0
    8.6080  -15.9344   22.2937 C   0  0  2  0  0  0  0  0  0  0  0  0
    8.4404  -15.5489   20.9289 N   0  0  0  0  0  0  0  0  0  0  0  0
    9.6488  -16.9277   22.5251 C   0  0  0  0  0  0  0  0  0  0  0  0
    9.6862  -18.0800   21.9742 O   0  0  0  0  0  0  0  0  0  0  0  0
   15.0626  -15.8887   19.7975 N   0  0  0  0  0  0  0  0  0  0  0  0
   14.3131  -14.7264   19.4939 C   0  0  0  0  0  0  0  0  0  0  0  0
   14.4086  -14.2235   18.3259 N   0  0  0  0  0  0  0  0  0  0  0  0
   13.4600  -14.1331   20.4937 N   0  0  0  0  0  0  0  0  0  0  0  0
   13.3692  -14.7167   21.7761 C   0  0  0  0  0  0  0  0  0  0  0  0
   13.2108  -16.1918   21.9033 C   0  0  0  0  0  0  0  0  0  0  0  0
   13.0625  -16.7795   23.2429 C   0  0  0  0  0  0  0  0  0  0  0  0
   11.8524  -17.5894   23.5695 C   0  0  2  0  0  0  0  0  0  0  0  0
   10.7116  -16.6353   23.4139 N   0  0  0  0  0  0  0  0  0  0  0  0
   11.9155  -17.9928   25.0029 C   0  0  0  0  0  0  0  0  0  0  0  0
   12.7592  -18.8069   25.3869 O   0  0  0  0  0  0  0  0  0  0  0  0
   10.9817  -17.4061   25.8648 O   0  0  0  0  0  0  0  0  0  0  0  0
  2  1  1  1
  3  2  1  0
  4  2  1  0
  4  5  1  1
  6  4  1  0
  6  7  2  0
  9  8  1  6
  9 10  1  0
 10  6  1  0
 11  9  1  0
 11 12  2  0
 13 14  1  0
 14 15  2  0
 16 14  1  0
 16 17  1  0
 18 17  1  0
 19 18  1  0
 20 21  1  0
 20 19  1  1
 21 11  1  0
 22 20  1  0
 23 22  2  0
 24 22  1  0
M  END
$$$$
