VAR.pdb
     RDKit          3D

 24 23  0  0  1  0  0  0  0  0999 V2000
    3.6727  -18.8101   19.2163 C   0  0  0  0  0  0  0  0  0  0  0  0
    4.4699  -18.0314   20.2419 C   0  0  2  0  0  0  0  0  0  0  0  0
    5.9305  -18.1070   19.8294 C   0  0  0  0  0  0  0  0  0  0  0  0
    4.2294  -18.6552   21.5975 C   0  0  2  0  0  0  0  0  0  0  0  0
    2.7907  -18.8228   21.7119 N   0  0  0  0  0  0  0  0  0  0  0  0
    4.7525  -17.7453   22.6431 C   0  0  0  0  0  0  0  0  0  0  0  0
    4.9062  -16.5117   22.4641 O   0  0  0  0  0  0  0  0  0  0  0  0
    6.4905  -20.2170   23.4427 C   0  0  0  0  0  0  0  0  0  0  0  0
    6.3248  -18.9345   24.2208 C   0  0  2  0  0  0  0  0  0  0  0  0
    5.1162  -18.2299   23.9339 N   0  0  0  0  0  0  0  0  0  0  0  0
    7.5395  -18.1383   24.1027 C   0  0  0  0  0  0  0  0  0  0  0  0
    8.7247  -18.6128   24.1530 O   0  0  0  0  0  0  0  0  0  0  0  0
    8.2171  -15.2267   19.3297 N   0  0  0  0  0  0  0  0  0  0  0  0
    7.8621  -13.9037   18.9712 C   0  0  0  0  0  0  0  0  0  0  0  0
    7.9587  -13.5533   17.7488 N   0  0  0  0  0  0  0  0  0  0  0  0
    7.3995  -12.9800   19.9773 N   0  0  0  0  0  0  0  0  0  0  0  0
    7.2407  -13.4152   21.3109 C   0  0  0  0  0  0  0  0  0  0  0  0
    8.3659  -14.1077   21.9975 C   0  0  0  0  0  0  0  0  0  0  0  0
    8.1842  -14.5591   23.3851 C   0  0  0  0  0  0  0  0  0  0  0  0
    8.6800  -15.9039   23.8002 C   0  0  2  0  0  0  0  0  0  0  0  0
    7.4442  -16.7378   23.9168 N   0  0  0  0  0  0  0  0  0  0  0  0
    9.2854  -15.7959   25.1579 C   0  0  0  0  0  0  0  0  0  0  0  0
    8.6217  -16.0667   26.1619 O   0  0  0  0  0  0  0  0  0  0  0  0
   10.6199  -15.3784   25.2219 O   0  0  0  0  0  0  0  0  0  0  0  0
  2  1  1  6
  3  2  1  0
  4  2  1  0
  4  5  1  1
  6  4  1  0
  6  7  2  0
  9  8  1  6
  9 10  1  0
 10  6  1  0
 11  9  1  0
 11 12  2  0
 13 14  1  0
 14 15  2  0
 16 14  1  0
 16 17  1  0
 18 17  1  0
 19 18  1  0
 20 21  1  0
 20 19  1  1
 21 11  1  0
 22 20  1  0
 23 22  2  0
 24 22  1  0
M  END
$$$$
