VAR.pdb
     RDKit          3D

 24 23  0  0  1  0  0  0  0  0999 V2000
    8.1203  -14.2349   17.9417 C   0  0  0  0  0  0  0  0  0  0  0  0
    7.7181  -13.2926   19.0571 C   0  0  2  0  0  0  0  0  0  0  0  0
    7.3847  -11.9547   18.4185 C   0  0  0  0  0  0  0  0  0  0  0  0
    8.8746  -13.1879   20.0247 C   0  0  2  0  0  0  0  0  0  0  0  0
   10.0317  -12.8180   19.2277 N   0  0  0  0  0  0  0  0  0  0  0  0
    9.0688  -14.5009   20.6829 C   0  0  0  0  0  0  0  0  0  0  0  0
    8.1667  -15.0799   21.3373 O   0  0  0  0  0  0  0  0  0  0  0  0
   11.8681  -17.0996   20.7590 C   0  0  0  0  0  0  0  0  0  0  0  0
   10.5627  -16.4735   21.1853 C   0  0  2  0  0  0  0  0  0  0  0  0
   10.3139  -15.1917   20.6070 N   0  0  0  0  0  0  0  0  0  0  0  0
   10.4572  -16.5199   22.6380 C   0  0  0  0  0  0  0  0  0  0  0  0
   11.1221  -15.7768   23.4368 O   0  0  0  0  0  0  0  0  0  0  0  0
    8.5591  -21.3784   27.8501 N   0  0  0  0  0  0  0  0  0  0  0  0
    7.3439  -21.0253   28.4853 C   0  0  0  0  0  0  0  0  0  0  0  0
    7.0916  -21.5099   29.6377 N   0  0  0  0  0  0  0  0  0  0  0  0
    6.4184  -20.1324   27.8330 N   0  0  0  0  0  0  0  0  0  0  0  0
    6.7106  -19.6366   26.5438 C   0  0  0  0  0  0  0  0  0  0  0  0
    7.9343  -18.8153   26.3316 C   0  0  0  0  0  0  0  0  0  0  0  0
    8.2189  -18.2954   24.9859 C   0  0  0  0  0  0  0  0  0  0  0  0
    9.4715  -17.5235   24.7369 C   0  0  2  0  0  0  0  0  0  0  0  0
    9.5668  -17.4370   23.2472 N   0  0  0  0  0  0  0  0  0  0  0  0
   10.6333  -18.3218   25.2213 C   0  0  0  0  0  0  0  0  0  0  0  0
   11.1597  -19.1659   24.4918 O   0  0  0  0  0  0  0  0  0  0  0  0
   11.0788  -18.0613   26.5224 O   0  0  0  0  0  0  0  0  0  0  0  0
  2  1  1  6
  3  2  1  0
  4  2  1  0
  4  5  1  6
  6  4  1  0
  6  7  2  0
  9  8  1  1
  9 10  1  0
 10  6  1  0
 11  9  1  0
 11 12  2  0
 13 14  1  0
 14 15  2  0
 16 14  1  0
 16 17  1  0
 18 17  1  0
 19 18  1  0
 20 21  1  0
 20 19  1  6
 21 11  1  0
 22 20  1  0
 23 22  2  0
 24 22  1  0
M  END
$$$$
