VAR.pdb
     RDKit          3D

 24 23  0  0  1  0  0  0  0  0999 V2000
    7.1619  -12.3975   20.3715 C   0  0  0  0  0  0  0  0  0  0  0  0
    8.2518  -12.8284   19.4123 C   0  0  2  0  0  0  0  0  0  0  0  0
    7.7413  -12.5700   18.0046 C   0  0  0  0  0  0  0  0  0  0  0  0
    8.5384  -14.2929   19.6529 C   0  0  2  0  0  0  0  0  0  0  0  0
    7.3320  -15.0057   19.2689 N   0  0  0  0  0  0  0  0  0  0  0  0
    8.8496  -14.4907   21.0878 C   0  0  0  0  0  0  0  0  0  0  0  0
    9.9520  -14.1750   21.6001 O   0  0  0  0  0  0  0  0  0  0  0  0
    6.8908  -15.4594   24.1975 C   0  0  0  0  0  0  0  0  0  0  0  0
    8.1416  -15.3232   23.3640 C   0  0  2  0  0  0  0  0  0  0  0  0
    7.8961  -15.0604   21.9819 N   0  0  0  0  0  0  0  0  0  0  0  0
    9.0204  -16.4560   23.6243 C   0  0  0  0  0  0  0  0  0  0  0  0
    8.7864  -17.6554   23.2513 O   0  0  0  0  0  0  0  0  0  0  0  0
   13.1775  -14.3658   19.9393 N   0  0  0  0  0  0  0  0  0  0  0  0
   14.1311  -15.4104   19.8732 C   0  0  0  0  0  0  0  0  0  0  0  0
   14.7296  -15.6247   18.7676 N   0  0  0  0  0  0  0  0  0  0  0  0
   14.4133  -16.2084   21.0407 N   0  0  0  0  0  0  0  0  0  0  0  0
   13.3711  -16.9182   21.6754 C   0  0  0  0  0  0  0  0  0  0  0  0
   12.5756  -16.2559   22.7458 C   0  0  0  0  0  0  0  0  0  0  0  0
   12.4858  -16.8962   24.0664 C   0  0  0  0  0  0  0  0  0  0  0  0
   11.1701  -17.3962   24.5621 C   0  0  2  0  0  0  0  0  0  0  0  0
   10.2285  -16.2569   24.3357 N   0  0  0  0  0  0  0  0  0  0  0  0
   11.2641  -17.6231   26.0322 C   0  0  0  0  0  0  0  0  0  0  0  0
   10.7422  -16.8319   26.8218 O   0  0  0  0  0  0  0  0  0  0  0  0
   11.9639  -18.7607   26.4511 O   0  0  0  0  0  0  0  0  0  0  0  0
  2  1  1  1
  3  2  1  0
  4  2  1  0
  4  5  1  1
  6  4  1  0
  6  7  2  0
  9  8  1  1
  9 10  1  0
 10  6  1  0
 11  9  1  0
 11 12  2  0
 13 14  1  0
 14 15  2  0
 16 14  1  0
 16 17  1  0
 18 17  1  0
 19 18  1  0
 20 21  1  0
 20 19  1  1
 21 11  1  0
 22 20  1  0
 23 22  2  0
 24 22  1  0
M  END
$$$$
