VAR.pdb
     RDKit          3D

 24 23  0  0  1  0  0  0  0  0999 V2000
    6.6398  -14.0714   18.8476 C   0  0  0  0  0  0  0  0  0  0  0  0
    7.8278  -13.1650   19.0942 C   0  0  2  0  0  0  0  0  0  0  0  0
    7.9517  -12.2468   17.8898 C   0  0  0  0  0  0  0  0  0  0  0  0
    9.0521  -14.0328   19.2755 C   0  0  2  0  0  0  0  0  0  0  0  0
    9.1748  -14.8126   18.0557 N   0  0  0  0  0  0  0  0  0  0  0  0
    8.8508  -14.9043   20.4565 C   0  0  0  0  0  0  0  0  0  0  0  0
    8.7023  -14.4577   21.6209 O   0  0  0  0  0  0  0  0  0  0  0  0
    8.7276  -18.6838   21.0429 C   0  0  0  0  0  0  0  0  0  0  0  0
    8.6517  -17.2264   21.4279 C   0  0  2  0  0  0  0  0  0  0  0  0
    8.8136  -16.3244   20.3326 N   0  0  0  0  0  0  0  0  0  0  0  0
    9.5363  -16.9796   22.5592 C   0  0  0  0  0  0  0  0  0  0  0  0
   10.8118  -16.9525   22.4893 O   0  0  0  0  0  0  0  0  0  0  0  0
   10.5569  -16.5274   30.8282 N   0  0  0  0  0  0  0  0  0  0  0  0
   10.7218  -15.3015   30.1391 C   0  0  0  0  0  0  0  0  0  0  0  0
   10.2042  -14.2461   30.6336 N   0  0  0  0  0  0  0  0  0  0  0  0
   11.4646  -15.2594   28.9038 N   0  0  0  0  0  0  0  0  0  0  0  0
   10.8825  -15.7545   27.7166 C   0  0  0  0  0  0  0  0  0  0  0  0
    9.7281  -15.0370   27.1088 C   0  0  0  0  0  0  0  0  0  0  0  0
    9.1048  -15.5884   25.8965 C   0  0  0  0  0  0  0  0  0  0  0  0
    9.8777  -16.5158   25.0194 C   0  0  2  0  0  0  0  0  0  0  0  0
    8.9848  -16.7477   23.8426 N   0  0  0  0  0  0  0  0  0  0  0  0
   10.0466  -17.8175   25.7256 C   0  0  0  0  0  0  0  0  0  0  0  0
    9.0880  -18.5808   25.8678 O   0  0  0  0  0  0  0  0  0  0  0  0
   11.3278  -18.1128   26.2058 O   0  0  0  0  0  0  0  0  0  0  0  0
  2  1  1  6
  3  2  1  0
  4  2  1  0
  4  5  1  6
  6  4  1  0
  6  7  2  0
  9  8  1  6
  9 10  1  0
 10  6  1  0
 11  9  1  0
 11 12  2  0
 13 14  1  0
 14 15  2  0
 16 14  1  0
 16 17  1  0
 18 17  1  0
 19 18  1  0
 20 21  1  0
 20 19  1  1
 21 11  1  0
 22 20  1  0
 23 22  2  0
 24 22  1  0
M  END
$$$$
