LIM.pdb
     RDKit          3D

 25 24  0  0  1  0  0  0  0  0999 V2000
    7.8748  -12.0728   19.1762 C   0  0  0  0  0  0  0  0  0  0  0  0
    7.8961  -13.5790   19.1872 C   0  0  1  0  0  0  0  0  0  0  0  0
    9.2875  -14.0243   18.7301 C   0  0  0  0  0  0  0  0  0  0  0  0
    7.6816  -14.1481   20.5403 C   0  0  0  0  0  0  0  0  0  0  0  0
    7.5989  -15.6304   20.6493 C   0  0  2  0  0  0  0  0  0  0  0  0
    6.6193  -16.2087   19.7728 N   0  0  0  0  0  0  0  0  0  0  0  0
    7.5227  -16.0882   22.0514 C   0  0  0  0  0  0  0  0  0  0  0  0
    6.5034  -15.8414   22.7458 O   0  0  0  0  0  0  0  0  0  0  0  0
    7.6616  -20.9950   23.4964 C   0  0  0  0  0  0  0  0  0  0  0  0
    7.5564  -19.5224   23.4474 C   0  0  0  0  0  0  0  0  0  0  0  0
    8.4658  -18.6771   24.2222 C   0  0  2  0  0  0  0  0  0  0  0  0
    8.3514  -19.1302   25.7124 C   0  0  0  0  0  0  0  0  0  0  0  0
    8.4508  -17.2049   24.1366 C   0  0  2  0  0  0  0  0  0  0  0  0
    8.5579  -16.8128   22.6954 N   0  0  0  0  0  0  0  0  0  0  0  0
    9.4358  -16.4227   24.8956 C   0  0  0  0  0  0  0  0  0  0  0  0
   10.2638  -15.6248   24.3985 O   0  0  0  0  0  0  0  0  0  0  0  0
    7.2508  -11.5338   25.7023 C   0  0  0  0  0  0  0  0  0  0  0  0
    7.2203  -12.0005   27.4451 S   0  0  0  0  0  0  0  0  0  0  0  0
    8.5738  -13.1593   27.7759 C   0  0  0  0  0  0  0  0  0  0  0  0
    8.4710  -14.3887   26.8989 C   0  0  0  0  0  0  0  0  0  0  0  0
    9.6304  -15.3403   27.1527 C   0  0  2  0  0  0  0  0  0  0  0  0
    9.5158  -16.5302   26.3373 N   0  0  0  0  0  0  0  0  0  0  0  0
    9.7735  -15.6550   28.5844 C   0  0  0  0  0  0  0  0  0  0  0  0
   10.5873  -14.8840   29.3815 O   0  0  0  0  0  0  0  0  0  0  0  0
    9.1564  -16.6217   29.0754 O   0  0  0  0  0  0  0  0  0  0  0  0
  2  4  1  0
  2  1  1  1
  2  3  1  0
  5  6  1  6
  5  4  1  0
  7  5  1  0
  8  7  2  0
  9 10  1  0
 10 11  1  0
 11 13  1  0
 11 12  1  1
 13 14  1  6
 14  7  1  0
 15 13  1  0
 15 16  2  0
 18 17  1  0
 19 20  1  0
 19 18  1  0
 21 20  1  1
 21 22  1  0
 22 15  1  0
 23 21  1  0
 24 23  1  0
 25 23  2  0
M  END
$$$$
