LIM.pdb
     RDKit          3D

 25 24  0  0  1  0  0  0  0  0999 V2000
    7.2428  -21.7210   26.7040 C   0  0  0  0  0  0  0  0  0  0  0  0
    6.3211  -20.5385   26.5578 C   0  0  1  0  0  0  0  0  0  0  0  0
    6.1078  -19.9444   27.9523 C   0  0  0  0  0  0  0  0  0  0  0  0
    6.8938  -19.4631   25.7115 C   0  0  0  0  0  0  0  0  0  0  0  0
    6.6098  -19.5227   24.2515 C   0  0  2  0  0  0  0  0  0  0  0  0
    6.5233  -20.8642   23.7459 N   0  0  0  0  0  0  0  0  0  0  0  0
    7.4820  -18.6217   23.4712 C   0  0  0  0  0  0  0  0  0  0  0  0
    8.4102  -19.0913   22.7641 O   0  0  0  0  0  0  0  0  0  0  0  0
    5.7938  -14.0273   20.8301 C   0  0  0  0  0  0  0  0  0  0  0  0
    6.6150  -15.2062   21.1737 C   0  0  0  0  0  0  0  0  0  0  0  0
    7.6069  -15.1446   22.2480 C   0  0  2  0  0  0  0  0  0  0  0  0
    8.6281  -14.0277   21.8627 C   0  0  0  0  0  0  0  0  0  0  0  0
    8.3209  -16.3372   22.7410 C   0  0  2  0  0  0  0  0  0  0  0  0
    7.3424  -17.2104   23.4637 N   0  0  0  0  0  0  0  0  0  0  0  0
    9.5038  -16.1740   23.5966 C   0  0  0  0  0  0  0  0  0  0  0  0
   10.5768  -15.6276   23.2506 O   0  0  0  0  0  0  0  0  0  0  0  0
    9.4447  -12.7753   28.9490 C   0  0  0  0  0  0  0  0  0  0  0  0
   10.2112  -14.2997   29.5364 S   0  0  0  0  0  0  0  0  0  0  0  0
   10.9411  -15.1802   28.1305 C   0  0  0  0  0  0  0  0  0  0  0  0
    9.8985  -15.4981   27.0803 C   0  0  0  0  0  0  0  0  0  0  0  0
   10.5201  -16.2165   25.8922 C   0  0  2  0  0  0  0  0  0  0  0  0
    9.5044  -16.6586   24.9610 N   0  0  0  0  0  0  0  0  0  0  0  0
   11.4025  -17.3152   26.3205 C   0  0  0  0  0  0  0  0  0  0  0  0
   10.8962  -18.3560   27.0637 O   0  0  0  0  0  0  0  0  0  0  0  0
   12.6105  -17.3025   26.0092 O   0  0  0  0  0  0  0  0  0  0  0  0
  2  4  1  0
  2  1  1  1
  2  3  1  0
  5  6  1  6
  5  4  1  0
  7  5  1  0
  8  7  2  0
  9 10  1  0
 10 11  1  0
 11 13  1  0
 11 12  1  6
 13 14  1  1
 14  7  1  0
 15 13  1  0
 15 16  2  0
 18 17  1  0
 19 20  1  0
 19 18  1  0
 21 20  1  1
 21 22  1  0
 22 15  1  0
 23 21  1  0
 24 23  1  0
 25 23  2  0
M  END
$$$$
