LIM.pdb
     RDKit          3D

 25 24  0  0  1  0  0  0  0  0999 V2000
    7.1460  -12.6124   18.4845 C   0  0  0  0  0  0  0  0  0  0  0  0
    7.4625  -13.9276   19.1473 C   0  0  1  0  0  0  0  0  0  0  0  0
    8.5668  -14.6025   18.3298 C   0  0  0  0  0  0  0  0  0  0  0  0
    7.9817  -13.7668   20.5276 C   0  0  0  0  0  0  0  0  0  0  0  0
    8.1795  -15.0059   21.3284 C   0  0  2  0  0  0  0  0  0  0  0  0
    7.0476  -15.8891   21.2939 N   0  0  0  0  0  0  0  0  0  0  0  0
    8.7047  -14.7247   22.6799 C   0  0  0  0  0  0  0  0  0  0  0  0
    9.8699  -14.2747   22.8277 O   0  0  0  0  0  0  0  0  0  0  0  0
    7.2534  -11.8646   27.6915 C   0  0  0  0  0  0  0  0  0  0  0  0
    8.0059  -13.0217   27.1653 C   0  0  0  0  0  0  0  0  0  0  0  0
    7.7117  -13.5712   25.8412 C   0  0  2  0  0  0  0  0  0  0  0  0
    6.2108  -14.0027   25.8495 C   0  0  0  0  0  0  0  0  0  0  0  0
    8.5378  -14.6191   25.2131 C   0  0  2  0  0  0  0  0  0  0  0  0
    7.9601  -14.9356   23.8683 N   0  0  0  0  0  0  0  0  0  0  0  0
    8.7654  -15.8864   25.9204 C   0  0  0  0  0  0  0  0  0  0  0  0
    7.9064  -16.7812   26.0958 O   0  0  0  0  0  0  0  0  0  0  0  0
   13.2446  -18.3216   22.6679 C   0  0  0  0  0  0  0  0  0  0  0  0
   13.3069  -18.1672   24.4647 S   0  0  0  0  0  0  0  0  0  0  0  0
   11.6242  -18.2652   25.1303 C   0  0  0  0  0  0  0  0  0  0  0  0
   11.6162  -18.0814   26.6327 C   0  0  0  0  0  0  0  0  0  0  0  0
   10.2990  -17.4838   27.1039 C   0  0  2  0  0  0  0  0  0  0  0  0
   10.0610  -16.1963   26.4878 N   0  0  0  0  0  0  0  0  0  0  0  0
   10.2228  -17.4233   28.5735 C   0  0  0  0  0  0  0  0  0  0  0  0
   10.2175  -18.5839   29.3116 O   0  0  0  0  0  0  0  0  0  0  0  0
   10.1631  -16.3187   29.1501 O   0  0  0  0  0  0  0  0  0  0  0  0
  2  4  1  0
  2  1  1  6
  2  3  1  0
  5  6  1  1
  5  4  1  0
  7  5  1  0
  8  7  2  0
  9 10  1  0
 10 11  1  0
 11 13  1  0
 11 12  1  1
 13 14  1  6
 14  7  1  0
 15 13  1  0
 15 16  2  0
 18 17  1  0
 19 20  1  0
 19 18  1  0
 21 20  1  1
 21 22  1  0
 22 15  1  0
 23 21  1  0
 24 23  1  0
 25 23  2  0
M  END
$$$$
