LIM.pdb
     RDKit          3D

 25 24  0  0  1  0  0  0  0  0999 V2000
    7.1589  -12.2678   18.6824 C   0  0  0  0  0  0  0  0  0  0  0  0
    8.0417  -13.3982   19.1428 C   0  0  1  0  0  0  0  0  0  0  0  0
    9.3007  -12.7802   19.7561 C   0  0  0  0  0  0  0  0  0  0  0  0
    7.4099  -14.2301   20.1961 C   0  0  0  0  0  0  0  0  0  0  0  0
    8.2373  -15.3129   20.7950 C   0  0  2  0  0  0  0  0  0  0  0  0
    8.5254  -16.3788   19.8767 N   0  0  0  0  0  0  0  0  0  0  0  0
    7.7265  -15.7494   22.1102 C   0  0  0  0  0  0  0  0  0  0  0  0
    7.0383  -14.9680   22.8157 O   0  0  0  0  0  0  0  0  0  0  0  0
    5.0391  -20.3691   22.4536 C   0  0  0  0  0  0  0  0  0  0  0  0
    5.5267  -19.0130   22.7780 C   0  0  0  0  0  0  0  0  0  0  0  0
    6.6848  -18.8189   23.6515 C   0  0  2  0  0  0  0  0  0  0  0  0
    6.3600  -19.5287   25.0041 C   0  0  0  0  0  0  0  0  0  0  0  0
    7.2778  -17.4924   23.9038 C   0  0  2  0  0  0  0  0  0  0  0  0
    7.9676  -17.0363   22.6555 N   0  0  0  0  0  0  0  0  0  0  0  0
    8.2060  -17.3132   25.0283 C   0  0  0  0  0  0  0  0  0  0  0  0
    7.9740  -17.6366   26.2161 O   0  0  0  0  0  0  0  0  0  0  0  0
   10.0865  -12.5071   28.8454 C   0  0  0  0  0  0  0  0  0  0  0  0
    9.8987  -14.2248   29.3654 S   0  0  0  0  0  0  0  0  0  0  0  0
   10.6735  -15.3081   28.1363 C   0  0  0  0  0  0  0  0  0  0  0  0
    9.7282  -15.6047   26.9920 C   0  0  0  0  0  0  0  0  0  0  0  0
   10.3924  -16.4914   25.9495 C   0  0  2  0  0  0  0  0  0  0  0  0
    9.5119  -16.7220   24.8245 N   0  0  0  0  0  0  0  0  0  0  0  0
   10.8884  -17.7470   26.5382 C   0  0  0  0  0  0  0  0  0  0  0  0
   10.3727  -18.9531   26.1243 O   0  0  0  0  0  0  0  0  0  0  0  0
   11.7771  -17.7174   27.4131 O   0  0  0  0  0  0  0  0  0  0  0  0
  2  4  1  0
  2  1  1  1
  2  3  1  0
  5  6  1  6
  5  4  1  0
  7  5  1  0
  8  7  2  0
  9 10  1  0
 10 11  1  0
 11 13  1  0
 11 12  1  1
 13 14  1  6
 14  7  1  0
 15 13  1  0
 15 16  2  0
 18 17  1  0
 19 20  1  0
 19 18  1  0
 21 20  1  1
 21 22  1  0
 22 15  1  0
 23 21  1  0
 24 23  1  0
 25 23  2  0
M  END
$$$$
