LIM.pdb
     RDKit          3D

 25 24  0  0  1  0  0  0  0  0999 V2000
    7.9240  -11.9475   18.8132 C   0  0  0  0  0  0  0  0  0  0  0  0
    7.8019  -13.3273   19.4051 C   0  0  1  0  0  0  0  0  0  0  0  0
    8.7695  -14.2412   18.6491 C   0  0  0  0  0  0  0  0  0  0  0  0
    8.1884  -13.3762   20.8365 C   0  0  0  0  0  0  0  0  0  0  0  0
    8.0436  -14.6823   21.5358 C   0  0  2  0  0  0  0  0  0  0  0  0
    6.7466  -15.2748   21.3656 N   0  0  0  0  0  0  0  0  0  0  0  0
    8.5219  -14.6291   22.9322 C   0  0  0  0  0  0  0  0  0  0  0  0
    9.7001  -14.2698   23.1869 O   0  0  0  0  0  0  0  0  0  0  0  0
    6.1171  -11.6585   26.1667 C   0  0  0  0  0  0  0  0  0  0  0  0
    7.1778  -12.5173   25.6015 C   0  0  0  0  0  0  0  0  0  0  0  0
    7.4539  -13.8400   26.1636 C   0  0  2  0  0  0  0  0  0  0  0  0
    8.0404  -13.6147   27.5934 C   0  0  0  0  0  0  0  0  0  0  0  0
    8.2413  -14.8606   25.4469 C   0  0  2  0  0  0  0  0  0  0  0  0
    7.7162  -14.9689   24.0488 N   0  0  0  0  0  0  0  0  0  0  0  0
    8.3471  -16.2174   25.9998 C   0  0  0  0  0  0  0  0  0  0  0  0
    7.6107  -17.1831   25.6925 O   0  0  0  0  0  0  0  0  0  0  0  0
   11.2851  -18.6251   22.6099 C   0  0  0  0  0  0  0  0  0  0  0  0
   12.2362  -19.5267   23.8503 S   0  0  0  0  0  0  0  0  0  0  0  0
   11.4658  -19.2980   25.4747 C   0  0  0  0  0  0  0  0  0  0  0  0
   10.7216  -17.9822   25.5493 C   0  0  0  0  0  0  0  0  0  0  0  0
   10.0721  -17.7974   26.9124 C   0  0  2  0  0  0  0  0  0  0  0  0
    9.3592  -16.5401   26.9838 N   0  0  0  0  0  0  0  0  0  0  0  0
   11.0469  -17.9505   28.0058 C   0  0  0  0  0  0  0  0  0  0  0  0
   11.4006  -19.2058   28.4430 O   0  0  0  0  0  0  0  0  0  0  0  0
   11.5527  -16.9412   28.5365 O   0  0  0  0  0  0  0  0  0  0  0  0
  2  4  1  0
  2  1  1  6
  2  3  1  0
  5  6  1  1
  5  4  1  0
  7  5  1  0
  8  7  2  0
  9 10  1  0
 10 11  1  0
 11 13  1  0
 11 12  1  1
 13 14  1  6
 14  7  1  0
 15 13  1  0
 15 16  2  0
 18 17  1  0
 19 20  1  0
 19 18  1  0
 21 20  1  6
 21 22  1  0
 22 15  1  0
 23 21  1  0
 24 23  1  0
 25 23  2  0
M  END
$$$$
