LIM.pdb
     RDKit          3D

 25 24  0  0  1  0  0  0  0  0999 V2000
    5.8252  -18.2003   19.1062 C   0  0  0  0  0  0  0  0  0  0  0  0
    7.3243  -18.2770   18.9797 C   0  0  1  0  0  0  0  0  0  0  0  0
    7.6810  -17.9685   17.5234 C   0  0  0  0  0  0  0  0  0  0  0  0
    8.0252  -17.2747   19.8193 C   0  0  0  0  0  0  0  0  0  0  0  0
    7.9482  -17.4508   21.2954 C   0  0  2  0  0  0  0  0  0  0  0  0
    6.6275  -17.7719   21.7591 N   0  0  0  0  0  0  0  0  0  0  0  0
    8.6124  -16.3540   22.0284 C   0  0  0  0  0  0  0  0  0  0  0  0
    9.6515  -15.8179   21.5648 O   0  0  0  0  0  0  0  0  0  0  0  0
    5.6543  -13.0209   25.4568 C   0  0  0  0  0  0  0  0  0  0  0  0
    6.6405  -13.5071   24.4703 C   0  0  0  0  0  0  0  0  0  0  0  0
    7.9129  -14.0872   24.9019 C   0  0  2  0  0  0  0  0  0  0  0  0
    8.6488  -12.9972   25.7442 C   0  0  0  0  0  0  0  0  0  0  0  0
    8.8550  -14.7259   23.9640 C   0  0  2  0  0  0  0  0  0  0  0  0
    8.1443  -15.8440   23.2662 N   0  0  0  0  0  0  0  0  0  0  0  0
   10.1377  -15.2415   24.4608 C   0  0  0  0  0  0  0  0  0  0  0  0
   11.2410  -14.6573   24.3571 O   0  0  0  0  0  0  0  0  0  0  0  0
   10.4395  -13.5762   29.1559 C   0  0  0  0  0  0  0  0  0  0  0  0
    9.8668  -15.2117   29.6593 S   0  0  0  0  0  0  0  0  0  0  0  0
   10.4886  -16.4476   28.4887 C   0  0  0  0  0  0  0  0  0  0  0  0
   11.1277  -15.7907   27.2842 C   0  0  0  0  0  0  0  0  0  0  0  0
   11.2390  -16.7673   26.1231 C   0  0  2  0  0  0  0  0  0  0  0  0
   10.2113  -16.5210   25.1346 N   0  0  0  0  0  0  0  0  0  0  0  0
   11.2464  -18.1655   26.5859 C   0  0  0  0  0  0  0  0  0  0  0  0
   10.2636  -19.0339   26.1712 O   0  0  0  0  0  0  0  0  0  0  0  0
   12.1446  -18.5634   27.3548 O   0  0  0  0  0  0  0  0  0  0  0  0
  2  4  1  0
  2  1  1  6
  2  3  1  0
  5  6  1  1
  5  4  1  0
  7  5  1  0
  8  7  2  0
  9 10  1  0
 10 11  1  0
 11 13  1  0
 11 12  1  6
 13 14  1  1
 14  7  1  0
 15 13  1  0
 15 16  2  0
 18 17  1  0
 19 20  1  0
 19 18  1  0
 21 20  1  1
 21 22  1  0
 22 15  1  0
 23 21  1  0
 24 23  1  0
 25 23  2  0
M  END
$$$$
