LIM.pdb
     RDKit          3D

 25 24  0  0  1  0  0  0  0  0999 V2000
    7.8444  -17.5619   16.9413 C   0  0  0  0  0  0  0  0  0  0  0  0
    8.0019  -18.0570   18.3552 C   0  0  1  0  0  0  0  0  0  0  0  0
    9.0457  -19.1766   18.3385 C   0  0  0  0  0  0  0  0  0  0  0  0
    8.5034  -17.0106   19.2794 C   0  0  0  0  0  0  0  0  0  0  0  0
    8.6277  -17.3758   20.7171 C   0  0  2  0  0  0  0  0  0  0  0  0
    7.5354  -18.1768   21.1942 N   0  0  0  0  0  0  0  0  0  0  0  0
    8.9611  -16.2142   21.5660 C   0  0  0  0  0  0  0  0  0  0  0  0
    9.8896  -15.4322   21.2366 O   0  0  0  0  0  0  0  0  0  0  0  0
    6.2922  -12.5704   25.8491 C   0  0  0  0  0  0  0  0  0  0  0  0
    7.3932  -12.8863   24.9164 C   0  0  0  0  0  0  0  0  0  0  0  0
    7.4169  -14.1518   24.1817 C   0  0  2  0  0  0  0  0  0  0  0  0
    6.7382  -15.2219   25.0944 C   0  0  0  0  0  0  0  0  0  0  0  0
    8.6477  -14.7017   23.5835 C   0  0  2  0  0  0  0  0  0  0  0  0
    8.2834  -15.9072   22.7735 N   0  0  0  0  0  0  0  0  0  0  0  0
    9.7792  -15.0598   24.4492 C   0  0  0  0  0  0  0  0  0  0  0  0
   10.6625  -14.2670   24.8498 O   0  0  0  0  0  0  0  0  0  0  0  0
    9.9847  -13.3082   29.1363 C   0  0  0  0  0  0  0  0  0  0  0  0
   10.3821  -14.9098   29.8665 S   0  0  0  0  0  0  0  0  0  0  0  0
   10.9115  -16.0467   28.5582 C   0  0  0  0  0  0  0  0  0  0  0  0
   10.1206  -15.8272   27.2865 C   0  0  0  0  0  0  0  0  0  0  0  0
   10.6631  -16.6811   26.1505 C   0  0  2  0  0  0  0  0  0  0  0  0
    9.9535  -16.4190   24.9169 N   0  0  0  0  0  0  0  0  0  0  0  0
   10.6690  -18.1121   26.4992 C   0  0  0  0  0  0  0  0  0  0  0  0
    9.6733  -18.9390   26.0335 O   0  0  0  0  0  0  0  0  0  0  0  0
   11.5776  -18.5753   27.2176 O   0  0  0  0  0  0  0  0  0  0  0  0
  2  4  1  0
  2  1  1  6
  2  3  1  0
  5  6  1  1
  5  4  1  0
  7  5  1  0
  8  7  2  0
  9 10  1  0
 10 11  1  0
 11 13  1  0
 11 12  1  1
 13 14  1  1
 14  7  1  0
 15 13  1  0
 15 16  2  0
 18 17  1  0
 19 20  1  0
 19 18  1  0
 21 20  1  1
 21 22  1  0
 22 15  1  0
 23 21  1  0
 24 23  1  0
 25 23  2  0
M  END
$$$$
