LIM.pdb
     RDKit          3D

 25 24  0  0  1  0  0  0  0  0999 V2000
    7.2196  -12.2557   17.9656 C   0  0  0  0  0  0  0  0  0  0  0  0
    7.4381  -13.6266   18.5504 C   0  0  1  0  0  0  0  0  0  0  0  0
    8.5562  -14.2975   17.7486 C   0  0  0  0  0  0  0  0  0  0  0  0
    7.8838  -13.5852   19.9647 C   0  0  0  0  0  0  0  0  0  0  0  0
    8.0332  -14.8880   20.6692 C   0  0  2  0  0  0  0  0  0  0  0  0
    6.8555  -15.7070   20.6003 N   0  0  0  0  0  0  0  0  0  0  0  0
    8.6020  -14.7335   22.0234 C   0  0  0  0  0  0  0  0  0  0  0  0
    9.7197  -14.1795   22.1836 O   0  0  0  0  0  0  0  0  0  0  0  0
    5.6532  -12.6204   25.7427 C   0  0  0  0  0  0  0  0  0  0  0  0
    6.8187  -13.1082   24.9775 C   0  0  0  0  0  0  0  0  0  0  0  0
    7.5574  -14.2961   25.4077 C   0  0  2  0  0  0  0  0  0  0  0  0
    8.1768  -13.9675   26.8032 C   0  0  0  0  0  0  0  0  0  0  0  0
    8.5566  -14.9644   24.5534 C   0  0  2  0  0  0  0  0  0  0  0  0
    7.9528  -15.1844   23.2010 N   0  0  0  0  0  0  0  0  0  0  0  0
    9.1598  -16.2294   24.9939 C   0  0  0  0  0  0  0  0  0  0  0  0
    8.5348  -17.2952   25.2008 O   0  0  0  0  0  0  0  0  0  0  0  0
   11.0403  -13.4072   29.6507 C   0  0  0  0  0  0  0  0  0  0  0  0
   10.7675  -15.0799   30.2703 S   0  0  0  0  0  0  0  0  0  0  0  0
   11.1721  -16.2720   28.9667 C   0  0  0  0  0  0  0  0  0  0  0  0
   10.6712  -15.8021   27.6179 C   0  0  0  0  0  0  0  0  0  0  0  0
   11.0843  -16.7650   26.5150 C   0  0  2  0  0  0  0  0  0  0  0  0
   10.5851  -16.3289   25.2287 N   0  0  0  0  0  0  0  0  0  0  0  0
   10.6932  -18.1504   26.8264 C   0  0  0  0  0  0  0  0  0  0  0  0
   11.6568  -19.1174   26.9942 O   0  0  0  0  0  0  0  0  0  0  0  0
    9.4868  -18.4478   26.9383 O   0  0  0  0  0  0  0  0  0  0  0  0
  2  4  1  0
  2  1  1  6
  2  3  1  0
  5  6  1  1
  5  4  1  0
  7  5  1  0
  8  7  2  0
  9 10  1  0
 10 11  1  0
 11 13  1  0
 11 12  1  1
 13 14  1  6
 14  7  1  0
 15 13  1  0
 15 16  2  0
 18 17  1  0
 19 20  1  0
 19 18  1  0
 21 20  1  1
 21 22  1  0
 22 15  1  0
 23 21  1  0
 24 23  1  0
 25 23  2  0
M  END
$$$$
