LIM.pdb
     RDKit          3D

 25 24  0  0  1  0  0  0  0  0999 V2000
    7.0243  -12.9744   18.9514 C   0  0  0  0  0  0  0  0  0  0  0  0
    8.3994  -13.4980   19.2742 C   0  0  1  0  0  0  0  0  0  0  0  0
    9.3205  -12.2902   19.4635 C   0  0  0  0  0  0  0  0  0  0  0  0
    8.4380  -14.2749   20.5374 C   0  0  0  0  0  0  0  0  0  0  0  0
    8.8917  -15.6900   20.4519 C   0  0  2  0  0  0  0  0  0  0  0  0
    8.1428  -16.4683   19.5054 N   0  0  0  0  0  0  0  0  0  0  0  0
    9.0457  -16.3130   21.7822 C   0  0  0  0  0  0  0  0  0  0  0  0
    8.0324  -16.6155   22.4632 O   0  0  0  0  0  0  0  0  0  0  0  0
   12.4812  -20.0097   22.2805 C   0  0  0  0  0  0  0  0  0  0  0  0
   11.3124  -19.4388   22.9806 C   0  0  0  0  0  0  0  0  0  0  0  0
   11.4330  -18.2111   23.7680 C   0  0  2  0  0  0  0  0  0  0  0  0
   11.7489  -18.6398   25.2361 C   0  0  0  0  0  0  0  0  0  0  0  0
   10.4037  -17.1549   23.7578 C   0  0  2  0  0  0  0  0  0  0  0  0
   10.3036  -16.6040   22.3690 N   0  0  0  0  0  0  0  0  0  0  0  0
   10.5133  -16.0243   24.6893 C   0  0  0  0  0  0  0  0  0  0  0  0
   11.4291  -15.1696   24.6846 O   0  0  0  0  0  0  0  0  0  0  0  0
    5.8777  -12.2715   26.3548 C   0  0  0  0  0  0  0  0  0  0  0  0
    7.0929  -11.5786   27.4946 S   0  0  0  0  0  0  0  0  0  0  0  0
    8.4925  -12.7207   27.6406 C   0  0  0  0  0  0  0  0  0  0  0  0
    8.3822  -13.8549   26.6444 C   0  0  0  0  0  0  0  0  0  0  0  0
    9.6442  -14.7043   26.6403 C   0  0  2  0  0  0  0  0  0  0  0  0
    9.5208  -15.8165   25.7228 N   0  0  0  0  0  0  0  0  0  0  0  0
   10.0136  -15.1380   27.9985 C   0  0  0  0  0  0  0  0  0  0  0  0
    9.9649  -16.4712   28.3334 O   0  0  0  0  0  0  0  0  0  0  0  0
   10.3711  -14.2958   28.8466 O   0  0  0  0  0  0  0  0  0  0  0  0
  2  4  1  0
  2  1  1  1
  2  3  1  0
  5  6  1  6
  5  4  1  0
  7  5  1  0
  8  7  2  0
  9 10  1  0
 10 11  1  0
 11 13  1  0
 11 12  1  1
 13 14  1  6
 14  7  1  0
 15 13  1  0
 15 16  2  0
 18 17  1  0
 19 20  1  0
 19 18  1  0
 21 20  1  1
 21 22  1  0
 22 15  1  0
 23 21  1  0
 24 23  1  0
 25 23  2  0
M  END
$$$$
