LIM.pdb
     RDKit          3D

 25 24  0  0  1  0  0  0  0  0999 V2000
    8.0637  -19.9857   28.5644 C   0  0  0  0  0  0  0  0  0  0  0  0
    7.0765  -19.8619   27.4334 C   0  0  1  0  0  0  0  0  0  0  0  0
    6.0357  -18.8163   27.8415 C   0  0  0  0  0  0  0  0  0  0  0  0
    7.6998  -19.3846   26.1746 C   0  0  0  0  0  0  0  0  0  0  0  0
    6.7935  -19.1271   25.0221 C   0  0  2  0  0  0  0  0  0  0  0  0
    6.1724  -20.3178   24.5133 N   0  0  0  0  0  0  0  0  0  0  0  0
    7.4181  -18.2674   23.9963 C   0  0  0  0  0  0  0  0  0  0  0  0
    8.1028  -18.7762   23.0720 O   0  0  0  0  0  0  0  0  0  0  0  0
    5.4267  -14.5127   20.8328 C   0  0  0  0  0  0  0  0  0  0  0  0
    6.3352  -15.4923   21.4630 C   0  0  0  0  0  0  0  0  0  0  0  0
    7.3946  -15.0577   22.3744 C   0  0  2  0  0  0  0  0  0  0  0  0
    8.3163  -14.0854   21.5720 C   0  0  0  0  0  0  0  0  0  0  0  0
    8.2127  -16.0060   23.1532 C   0  0  2  0  0  0  0  0  0  0  0  0
    7.2968  -16.8544   23.9799 N   0  0  0  0  0  0  0  0  0  0  0  0
    9.2772  -15.4984   24.0291 C   0  0  0  0  0  0  0  0  0  0  0  0
    9.2178  -14.4445   24.7036 O   0  0  0  0  0  0  0  0  0  0  0  0
    9.3301  -12.7763   28.1275 C   0  0  0  0  0  0  0  0  0  0  0  0
   10.5938  -13.9373   28.6856 S   0  0  0  0  0  0  0  0  0  0  0  0
   11.5833  -14.4704   27.2639 C   0  0  0  0  0  0  0  0  0  0  0  0
   10.9028  -15.5933   26.5110 C   0  0  0  0  0  0  0  0  0  0  0  0
   11.5160  -15.7772   25.1311 C   0  0  2  0  0  0  0  0  0  0  0  0
   10.5242  -16.2199   24.1750 N   0  0  0  0  0  0  0  0  0  0  0  0
   12.6903  -16.6653   25.1706 C   0  0  0  0  0  0  0  0  0  0  0  0
   13.8853  -16.2058   25.6733 O   0  0  0  0  0  0  0  0  0  0  0  0
   12.6018  -17.8357   24.7479 O   0  0  0  0  0  0  0  0  0  0  0  0
  2  4  1  0
  2  1  1  1
  2  3  1  0
  5  6  1  6
  5  4  1  0
  7  5  1  0
  8  7  2  0
  9 10  1  0
 10 11  1  0
 11 13  1  0
 11 12  1  6
 13 14  1  1
 14  7  1  0
 15 13  1  0
 15 16  2  0
 18 17  1  0
 19 20  1  0
 19 18  1  0
 21 20  1  1
 21 22  1  0
 22 15  1  0
 23 21  1  0
 24 23  1  0
 25 23  2  0
M  END
$$$$
