LIM.pdb
     RDKit          3D

 25 24  0  0  1  0  0  0  0  0999 V2000
    8.6779  -20.9320   20.0894 C   0  0  0  0  0  0  0  0  0  0  0  0
    7.9953  -19.6092   19.8583 C   0  0  1  0  0  0  0  0  0  0  0  0
    6.5188  -19.7818   20.2232 C   0  0  0  0  0  0  0  0  0  0  0  0
    8.5310  -18.5265   20.7194 C   0  0  0  0  0  0  0  0  0  0  0  0
    7.8132  -17.2226   20.6980 C   0  0  2  0  0  0  0  0  0  0  0  0
    7.6126  -16.7085   19.3721 N   0  0  0  0  0  0  0  0  0  0  0  0
    8.3777  -16.2536   21.6592 C   0  0  0  0  0  0  0  0  0  0  0  0
    9.3676  -15.5460   21.3407 O   0  0  0  0  0  0  0  0  0  0  0  0
    6.7185  -12.3078   25.9894 C   0  0  0  0  0  0  0  0  0  0  0  0
    7.7564  -12.9359   25.1466 C   0  0  0  0  0  0  0  0  0  0  0  0
    7.4533  -14.1140   24.3328 C   0  0  2  0  0  0  0  0  0  0  0  0
    6.2792  -14.8651   25.0371 C   0  0  0  0  0  0  0  0  0  0  0  0
    8.4881  -15.0748   23.9074 C   0  0  2  0  0  0  0  0  0  0  0  0
    7.8638  -16.0582   22.9665 N   0  0  0  0  0  0  0  0  0  0  0  0
    9.2407  -15.8279   24.9195 C   0  0  0  0  0  0  0  0  0  0  0  0
    8.7933  -16.7892   25.5866 O   0  0  0  0  0  0  0  0  0  0  0  0
    9.7905  -13.0852   29.6710 C   0  0  0  0  0  0  0  0  0  0  0  0
   10.7892  -14.4448   30.3118 S   0  0  0  0  0  0  0  0  0  0  0  0
   11.2000  -15.5739   28.9551 C   0  0  0  0  0  0  0  0  0  0  0  0
   10.7881  -14.9980   27.6173 C   0  0  0  0  0  0  0  0  0  0  0  0
   11.2095  -15.9107   26.4756 C   0  0  2  0  0  0  0  0  0  0  0  0
   10.6150  -15.4896   25.2253 N   0  0  0  0  0  0  0  0  0  0  0  0
   10.9327  -17.3253   26.7782 C   0  0  0  0  0  0  0  0  0  0  0  0
   11.9440  -18.2551   26.7104 O   0  0  0  0  0  0  0  0  0  0  0  0
    9.7802  -17.6812   27.0964 O   0  0  0  0  0  0  0  0  0  0  0  0
  2  4  1  0
  2  1  1  1
  2  3  1  0
  5  6  1  6
  5  4  1  0
  7  5  1  0
  8  7  2  0
  9 10  1  0
 10 11  1  0
 11 13  1  0
 11 12  1  1
 13 14  1  6
 14  7  1  0
 15 13  1  0
 15 16  2  0
 18 17  1  0
 19 20  1  0
 19 18  1  0
 21 20  1  1
 21 22  1  0
 22 15  1  0
 23 21  1  0
 24 23  1  0
 25 23  2  0
M  END
$$$$
