LIM.pdb
     RDKit          3D

 25 24  0  0  1  0  0  0  0  0999 V2000
    7.5309  -18.4028   19.1684 C   0  0  0  0  0  0  0  0  0  0  0  0
    7.4722  -16.9206   19.4305 C   0  0  1  0  0  0  0  0  0  0  0  0
    5.9973  -16.5109   19.4362 C   0  0  0  0  0  0  0  0  0  0  0  0
    8.0310  -16.5470   20.7529 C   0  0  0  0  0  0  0  0  0  0  0  0
    7.8179  -15.1465   21.2102 C   0  0  2  0  0  0  0  0  0  0  0  0
    8.1983  -14.1672   20.2311 N   0  0  0  0  0  0  0  0  0  0  0  0
    8.3556  -14.9090   22.5652 C   0  0  0  0  0  0  0  0  0  0  0  0
    9.5823  -15.0612   22.7976 O   0  0  0  0  0  0  0  0  0  0  0  0
    5.9755  -11.3022   26.0760 C   0  0  0  0  0  0  0  0  0  0  0  0
    6.9424  -12.1445   25.3427 C   0  0  0  0  0  0  0  0  0  0  0  0
    7.3007  -13.4770   25.8305 C   0  0  2  0  0  0  0  0  0  0  0  0
    7.9060  -13.2925   27.2583 C   0  0  0  0  0  0  0  0  0  0  0  0
    8.1250  -14.4160   25.0471 C   0  0  2  0  0  0  0  0  0  0  0  0
    7.5556  -14.5074   23.6652 N   0  0  0  0  0  0  0  0  0  0  0  0
    8.3394  -15.7823   25.5423 C   0  0  0  0  0  0  0  0  0  0  0  0
    7.8863  -16.8231   25.0124 O   0  0  0  0  0  0  0  0  0  0  0  0
   12.0662  -17.6676   22.4763 C   0  0  0  0  0  0  0  0  0  0  0  0
   12.8712  -18.2882   23.9672 S   0  0  0  0  0  0  0  0  0  0  0  0
   11.6521  -18.3912   25.3043 C   0  0  0  0  0  0  0  0  0  0  0  0
   11.0471  -17.0360   25.6016 C   0  0  0  0  0  0  0  0  0  0  0  0
   10.0774  -17.1144   26.7710 C   0  0  2  0  0  0  0  0  0  0  0  0
    9.1266  -16.0241   26.7333 N   0  0  0  0  0  0  0  0  0  0  0  0
   10.7842  -17.1958   28.0605 C   0  0  0  0  0  0  0  0  0  0  0  0
   10.9756  -18.4161   28.6656 O   0  0  0  0  0  0  0  0  0  0  0  0
   11.2101  -16.1574   28.6051 O   0  0  0  0  0  0  0  0  0  0  0  0
  2  4  1  0
  2  1  1  1
  2  3  1  0
  5  6  1  6
  5  4  1  0
  7  5  1  0
  8  7  2  0
  9 10  1  0
 10 11  1  0
 11 13  1  0
 11 12  1  1
 13 14  1  6
 14  7  1  0
 15 13  1  0
 15 16  2  0
 18 17  1  0
 19 20  1  0
 19 18  1  0
 21 20  1  6
 21 22  1  0
 22 15  1  0
 23 21  1  0
 24 23  1  0
 25 23  2  0
M  END
$$$$
