LIM.pdb
     RDKit          3D

 25 24  0  0  1  0  0  0  0  0999 V2000
    2.3775  -18.4291   21.0765 C   0  0  0  0  0  0  0  0  0  0  0  0
    3.4023  -18.7094   22.1444 C   0  0  1  0  0  0  0  0  0  0  0  0
    4.1406  -19.9912   21.7506 C   0  0  0  0  0  0  0  0  0  0  0  0
    4.4229  -17.6388   22.2583 C   0  0  0  0  0  0  0  0  0  0  0  0
    5.4846  -17.8180   23.2863 C   0  0  2  0  0  0  0  0  0  0  0  0
    4.9838  -18.3175   24.5361 N   0  0  0  0  0  0  0  0  0  0  0  0
    6.3639  -16.6367   23.3989 C   0  0  0  0  0  0  0  0  0  0  0  0
    6.9330  -16.1688   22.3795 O   0  0  0  0  0  0  0  0  0  0  0  0
    5.4111  -12.2375   26.2187 C   0  0  0  0  0  0  0  0  0  0  0  0
    6.0568  -13.1122   25.2187 C   0  0  0  0  0  0  0  0  0  0  0  0
    7.2874  -13.8378   25.5369 C   0  0  2  0  0  0  0  0  0  0  0  0
    8.4255  -12.7751   25.6568 C   0  0  0  0  0  0  0  0  0  0  0  0
    7.7542  -14.9953   24.7513 C   0  0  2  0  0  0  0  0  0  0  0  0
    6.6231  -15.9680   24.6224 N   0  0  0  0  0  0  0  0  0  0  0  0
    8.9449  -15.7369   25.1874 C   0  0  0  0  0  0  0  0  0  0  0  0
    8.9370  -16.7443   25.9321 O   0  0  0  0  0  0  0  0  0  0  0  0
   11.3013  -13.7474   29.8559 C   0  0  0  0  0  0  0  0  0  0  0  0
   10.4960  -15.2587   29.2870 S   0  0  0  0  0  0  0  0  0  0  0  0
   10.3385  -15.2073   27.4822 C   0  0  0  0  0  0  0  0  0  0  0  0
   11.2092  -16.2565   26.8248 C   0  0  0  0  0  0  0  0  0  0  0  0
   11.4424  -15.9325   25.3569 C   0  0  2  0  0  0  0  0  0  0  0  0
   10.2682  -15.3300   24.7633 N   0  0  0  0  0  0  0  0  0  0  0  0
   11.9066  -17.1113   24.6058 C   0  0  0  0  0  0  0  0  0  0  0  0
   13.0854  -17.7293   24.9529 O   0  0  0  0  0  0  0  0  0  0  0  0
   11.2305  -17.5504   23.6538 O   0  0  0  0  0  0  0  0  0  0  0  0
  2  4  1  0
  2  1  1  6
  2  3  1  0
  5  6  1  1
  5  4  1  0
  7  5  1  0
  8  7  2  0
  9 10  1  0
 10 11  1  0
 11 13  1  0
 11 12  1  6
 13 14  1  1
 14  7  1  0
 15 13  1  0
 15 16  2  0
 18 17  1  0
 19 20  1  0
 19 18  1  0
 21 20  1  1
 21 22  1  0
 22 15  1  0
 23 21  1  0
 24 23  1  0
 25 23  2  0
M  END
$$$$
