DRR.pdb
     RDKit          3D

 31 30  0  0  1  0  0  0  0  0999 V2000
   26.5979  -21.4209  -11.8283 N   0  0  0  0  0  0  0  0  0  0  0  0
   25.3913  -20.7502  -11.4227 C   0  0  1  0  0  0  0  0  0  0  0  0
   25.5704  -19.9962  -10.1338 C   0  0  0  0  0  0  0  0  0  0  0  0
   26.0788  -20.8875   -9.0713 C   0  0  0  0  0  0  0  0  0  0  0  0
   26.3477  -22.0970   -9.3637 O   0  0  0  0  0  0  0  0  0  0  0  0
   24.9956  -19.8284  -12.5383 C   0  0  0  0  0  0  0  0  0  0  0  0
   23.9260  -19.1747  -12.4999 O   0  0  0  0  0  0  0  0  0  0  0  0
   26.2803  -20.4773   -7.7671 O   0  0  0  0  0  0  0  0  0  0  0  0
   30.2459  -17.6223  -18.9350 N   0  0  0  0  0  0  0  0  0  0  0  0
   29.3880  -18.7541  -18.9227 C   0  0  0  0  0  0  0  0  0  0  0  0
   29.7005  -19.8270  -19.5644 N   0  0  0  0  0  0  0  0  0  0  0  0
   28.1538  -18.7685  -18.2131 N   0  0  0  0  0  0  0  0  0  0  0  0
   27.6238  -17.5478  -17.6567 C   0  0  0  0  0  0  0  0  0  0  0  0
   26.3115  -17.8674  -16.9540 C   0  0  0  0  0  0  0  0  0  0  0  0
   26.6113  -18.5813  -15.6767 C   0  0  0  0  0  0  0  0  0  0  0  0
   25.3864  -18.9042  -14.8638 C   0  0  2  0  0  0  0  0  0  0  0  0
   25.8089  -19.6523  -13.6871 N   0  0  0  0  0  0  0  0  0  0  0  0
   24.3486  -19.6724  -15.6216 C   0  0  0  0  0  0  0  0  0  0  0  0
   24.4200  -20.9196  -15.7554 O   0  0  0  0  0  0  0  0  0  0  0  0
   29.0225  -20.6002  -19.5988 N   0  0  0  0  0  0  0  0  0  0  0  0
   18.8642  -23.0595  -11.3390 C   0  0  0  0  0  0  0  0  0  0  0  0
   18.0015  -22.7539  -12.4307 N   0  0  0  0  0  0  0  0  0  0  0  0
   16.7903  -23.1619  -12.4673 N   0  0  0  0  0  0  0  0  0  0  0  0
   18.5292  -21.9780  -13.4849 C   0  0  0  0  0  0  0  0  0  0  0  0
   19.9551  -21.5489  -13.3672 C   0  0  0  0  0  0  0  0  0  0  0  0
   20.2702  -20.7786  -14.5886 C   0  0  0  0  0  0  0  0  0  0  0  0
   21.5861  -20.1972  -14.8575 C   0  0  2  0  0  0  0  0  0  0  0  0
   21.8413  -19.5105  -16.1137 N   0  0  0  0  0  0  0  0  0  0  0  0
   23.2382  -19.0356  -16.2251 C   0  0  0  0  0  0  0  0  0  0  0  0
   20.9217  -18.5509  -16.6914 O   0  0  0  0  0  0  0  0  0  0  0  0
   20.4096  -17.6182  -15.9078 O   0  0  0  0  0  0  0  0  0  0  0  0
  2  1  1  6
  3  2  1  0
  3  4  1  0
  4  8  1  0
  4  5  2  0
  6  7  2  0
  6  2  1  0
  9 10  1  0
 10 12  1  0
 11 10  2  0
 12 13  1  0
 13 14  1  0
 14 15  1  0
 16 15  1  6
 16 17  1  0
 17  6  1  0
 18 19  2  0
 18 16  1  0
 20 21  1  0
 21 23  1  0
 21 22  2  0
 23 24  1  0
 25 24  1  0
 25 26  1  0
 27 26  1  6
 27 29  1  0
 27 28  1  0
 28 18  1  0
 29 31  1  0
 30 29  2  0
M  END
$$$$
