DRR.pdb
     RDKit          3D

 31 30  0  0  1  0  0  0  0  0999 V2000
   25.1697  -17.1671  -18.0534 N   0  0  0  0  0  0  0  0  0  0  0  0
   24.2499  -17.8347  -18.9356 C   0  0  1  0  0  0  0  0  0  0  0  0
   24.9203  -18.3113  -20.1947 C   0  0  0  0  0  0  0  0  0  0  0  0
   25.1492  -17.1868  -21.1247 C   0  0  0  0  0  0  0  0  0  0  0  0
   24.9958  -15.9976  -20.6968 O   0  0  0  0  0  0  0  0  0  0  0  0
   23.6518  -18.9806  -18.1740 C   0  0  0  0  0  0  0  0  0  0  0  0
   23.1219  -19.9530  -18.7626 O   0  0  0  0  0  0  0  0  0  0  0  0
   25.5238  -17.3560  -22.4442 O   0  0  0  0  0  0  0  0  0  0  0  0
   26.2480  -20.9729  -10.5898 N   0  0  0  0  0  0  0  0  0  0  0  0
   25.9362  -22.0163  -11.5015 C   0  0  0  0  0  0  0  0  0  0  0  0
   26.0469  -23.2522  -11.1542 N   0  0  0  0  0  0  0  0  0  0  0  0
   25.4911  -21.7615  -12.8297 N   0  0  0  0  0  0  0  0  0  0  0  0
   26.0302  -20.6495  -13.5737 C   0  0  0  0  0  0  0  0  0  0  0  0
   25.3306  -20.5877  -14.9244 C   0  0  0  0  0  0  0  0  0  0  0  0
   23.8941  -20.2411  -14.7065 C   0  0  0  0  0  0  0  0  0  0  0  0
   23.1019  -20.1218  -15.9808 C   0  0  2  0  0  0  0  0  0  0  0  0
   23.6559  -19.0196  -16.7561 N   0  0  0  0  0  0  0  0  0  0  0  0
   21.6360  -19.9142  -15.7589 C   0  0  0  0  0  0  0  0  0  0  0  0
   21.1611  -18.7759  -15.5198 O   0  0  0  0  0  0  0  0  0  0  0  0
   26.3261  -23.4736  -10.1889 N   0  0  0  0  0  0  0  0  0  0  0  0
   18.9489  -23.7420   -8.7557 C   0  0  0  0  0  0  0  0  0  0  0  0
   18.3255  -24.4199   -9.8426 N   0  0  0  0  0  0  0  0  0  0  0  0
   17.8109  -25.5824   -9.7058 N   0  0  0  0  0  0  0  0  0  0  0  0
   18.2923  -23.7632  -11.0913 C   0  0  0  0  0  0  0  0  0  0  0  0
   19.2479  -22.6328  -11.2921 C   0  0  0  0  0  0  0  0  0  0  0  0
   18.9297  -22.0345  -12.6055 C   0  0  0  0  0  0  0  0  0  0  0  0
   19.9183  -21.8545  -13.6697 C   0  0  1  0  0  0  0  0  0  0  0  0
   19.5645  -21.1395  -14.8856 N   0  0  0  0  0  0  0  0  0  0  0  0
   20.7128  -20.9859  -15.8059 C   0  0  0  0  0  0  0  0  0  0  0  0
   18.7352  -19.9511  -14.8913 O   0  0  0  0  0  0  0  0  0  0  0  0
   17.5644  -20.0025  -15.5019 O   0  0  0  0  0  0  0  0  0  0  0  0
  2  1  1  1
  3  2  1  0
  3  4  1  0
  4  8  1  0
  4  5  2  0
  6  7  2  0
  6  2  1  0
  9 10  1  0
 10 12  1  0
 11 10  2  0
 12 13  1  0
 13 14  1  0
 14 15  1  0
 16 15  1  1
 16 17  1  0
 17  6  1  0
 18 19  2  0
 18 16  1  0
 20 21  1  0
 21 23  1  0
 21 22  2  0
 23 24  1  0
 25 24  1  0
 25 26  1  0
 27 26  1  6
 27 29  1  0
 27 28  1  0
 28 18  1  0
 29 31  1  0
 30 29  2  0
M  END
$$$$
