DRR.pdb
     RDKit          3D

 31 30  0  0  1  0  0  0  0  0999 V2000
   29.0116  -17.4521  -19.5022 N   0  0  0  0  0  0  0  0  0  0  0  0
   28.4186  -16.2337  -19.0182 C   0  0  1  0  0  0  0  0  0  0  0  0
   27.6091  -15.5396  -20.0788 C   0  0  0  0  0  0  0  0  0  0  0  0
   27.9493  -14.1036  -20.1421 C   0  0  0  0  0  0  0  0  0  0  0  0
   29.1696  -13.7693  -20.2832 O   0  0  0  0  0  0  0  0  0  0  0  0
   27.5680  -16.5899  -17.8349 C   0  0  0  0  0  0  0  0  0  0  0  0
   27.7441  -16.0521  -16.7157 O   0  0  0  0  0  0  0  0  0  0  0  0
   27.0083  -13.0952  -20.0562 O   0  0  0  0  0  0  0  0  0  0  0  0
   22.1441  -22.1081  -15.7682 N   0  0  0  0  0  0  0  0  0  0  0  0
   21.2293  -21.0999  -15.3636 C   0  0  0  0  0  0  0  0  0  0  0  0
   20.3442  -21.3360  -14.4574 N   0  0  0  0  0  0  0  0  0  0  0  0
   21.2367  -19.7921  -15.9264 N   0  0  0  0  0  0  0  0  0  0  0  0
   22.1833  -19.4541  -16.9610 C   0  0  0  0  0  0  0  0  0  0  0  0
   23.4895  -19.0336  -16.3018 C   0  0  0  0  0  0  0  0  0  0  0  0
   24.3610  -18.3887  -17.3293 C   0  0  0  0  0  0  0  0  0  0  0  0
   25.6935  -17.9379  -16.7936 C   0  0  2  0  0  0  0  0  0  0  0  0
   26.5271  -17.5496  -17.9238 N   0  0  0  0  0  0  0  0  0  0  0  0
   26.3899  -18.9743  -15.9677 C   0  0  0  0  0  0  0  0  0  0  0  0
   26.7504  -20.0735  -16.4577 O   0  0  0  0  0  0  0  0  0  0  0  0
   19.7090  -20.5777  -14.1741 N   0  0  0  0  0  0  0  0  0  0  0  0
   24.0940  -21.2423   -7.9955 C   0  0  0  0  0  0  0  0  0  0  0  0
   23.6746  -20.8324   -9.2938 N   0  0  0  0  0  0  0  0  0  0  0  0
   22.4882  -21.0492   -9.7186 N   0  0  0  0  0  0  0  0  0  0  0  0
   24.6187  -20.1719  -10.1087 C   0  0  0  0  0  0  0  0  0  0  0  0
   26.0521  -20.5566   -9.9395 C   0  0  0  0  0  0  0  0  0  0  0  0
   26.6241  -20.6756  -11.2970 C   0  0  0  0  0  0  0  0  0  0  0  0
   26.4390  -19.6664  -12.3407 C   0  0  1  0  0  0  0  0  0  0  0  0
   27.0425  -19.8479  -13.6512 N   0  0  0  0  0  0  0  0  0  0  0  0
   26.6762  -18.7704  -14.5968 C   0  0  0  0  0  0  0  0  0  0  0  0
   27.0993  -21.1296  -14.3251 O   0  0  0  0  0  0  0  0  0  0  0  0
   25.9942  -21.6024  -14.8740 O   0  0  0  0  0  0  0  0  0  0  0  0
  2  1  1  6
  3  2  1  0
  3  4  1  0
  4  8  1  0
  4  5  2  0
  6  7  2  0
  6  2  1  0
  9 10  1  0
 10 12  1  0
 11 10  2  0
 12 13  1  0
 13 14  1  0
 14 15  1  0
 16 15  1  6
 16 17  1  0
 17  6  1  0
 18 19  2  0
 18 16  1  0
 20 21  1  0
 21 23  1  0
 21 22  2  0
 23 24  1  0
 25 24  1  0
 25 26  1  0
 27 26  1  1
 27 29  1  0
 27 28  1  0
 28 18  1  0
 29 31  1  0
 30 29  2  0
M  END
$$$$
