DRR.pdb
     RDKit          3D

 31 30  0  0  1  0  0  0  0  0999 V2000
   18.6532  -24.2631   -7.6468 N   0  0  0  0  0  0  0  0  0  0  0  0
   17.6642  -25.2094   -7.2036 C   0  0  1  0  0  0  0  0  0  0  0  0
   18.0371  -26.6229   -7.5570 C   0  0  0  0  0  0  0  0  0  0  0  0
   17.4414  -27.0144   -8.8507 C   0  0  0  0  0  0  0  0  0  0  0  0
   16.3860  -26.4205   -9.2434 O   0  0  0  0  0  0  0  0  0  0  0  0
   17.5196  -25.0429   -5.7197 C   0  0  0  0  0  0  0  0  0  0  0  0
   18.5191  -24.8960   -4.9764 O   0  0  0  0  0  0  0  0  0  0  0  0
   17.9710  -27.9976   -9.6648 O   0  0  0  0  0  0  0  0  0  0  0  0
   10.8827  -20.6953   -3.0780 N   0  0  0  0  0  0  0  0  0  0  0  0
   12.1353  -20.0891   -3.3620 C   0  0  0  0  0  0  0  0  0  0  0  0
   12.2186  -18.8259   -3.6025 N   0  0  0  0  0  0  0  0  0  0  0  0
   13.3509  -20.8295   -3.3971 N   0  0  0  0  0  0  0  0  0  0  0  0
   13.3247  -22.2694   -3.3170 C   0  0  0  0  0  0  0  0  0  0  0  0
   14.7487  -22.7873   -3.4650 C   0  0  0  0  0  0  0  0  0  0  0  0
   14.7270  -24.2794   -3.4003 C   0  0  0  0  0  0  0  0  0  0  0  0
   16.0695  -24.9138   -3.6472 C   0  0  2  0  0  0  0  0  0  0  0  0
   16.2500  -25.0441   -5.0871 N   0  0  0  0  0  0  0  0  0  0  0  0
   16.2360  -26.2443   -2.9813 C   0  0  0  0  0  0  0  0  0  0  0  0
   15.5814  -27.2514   -3.3497 O   0  0  0  0  0  0  0  0  0  0  0  0
   13.1396  -18.4214   -3.8190 N   0  0  0  0  0  0  0  0  0  0  0  0
   21.7434  -31.0989   -2.8520 C   0  0  0  0  0  0  0  0  0  0  0  0
   20.4089  -31.3662   -3.2730 N   0  0  0  0  0  0  0  0  0  0  0  0
   20.0624  -32.5091   -3.7299 N   0  0  0  0  0  0  0  0  0  0  0  0
   19.4680  -30.3194   -3.1706 C   0  0  0  0  0  0  0  0  0  0  0  0
   19.8872  -29.0977   -2.4203 C   0  0  0  0  0  0  0  0  0  0  0  0
   19.1733  -29.1267   -1.1266 C   0  0  0  0  0  0  0  0  0  0  0  0
   18.4770  -27.9686   -0.5643 C   0  0  2  0  0  0  0  0  0  0  0  0
   17.1409  -27.6229   -1.0228 N   0  0  0  0  0  0  0  0  0  0  0  0
   17.1354  -26.4355   -1.9055 C   0  0  0  0  0  0  0  0  0  0  0  0
   15.9811  -27.6262   -0.1539 O   0  0  0  0  0  0  0  0  0  0  0  0
   15.5860  -26.4812    0.3741 O   0  0  0  0  0  0  0  0  0  0  0  0
  2  1  1  1
  3  2  1  0
  3  4  1  0
  4  8  1  0
  4  5  2  0
  6  7  2  0
  6  2  1  0
  9 10  1  0
 10 12  1  0
 11 10  2  0
 12 13  1  0
 13 14  1  0
 14 15  1  0
 16 15  1  6
 16 17  1  0
 17  6  1  0
 18 19  2  0
 18 16  1  0
 20 21  1  0
 21 23  1  0
 21 22  2  0
 23 24  1  0
 25 24  1  0
 25 26  1  0
 27 26  1  6
 27 29  1  0
 27 28  1  0
 28 18  1  0
 29 31  1  0
 30 29  2  0
M  END
$$$$
