DRR.pdb
     RDKit          3D

 31 30  0  0  1  0  0  0  0  0999 V2000
   22.7137  -20.8302  -22.5895 N   0  0  0  0  0  0  0  0  0  0  0  0
   23.8399  -20.2196  -21.9345 C   0  0  1  0  0  0  0  0  0  0  0  0
   23.7139  -18.7221  -21.8738 C   0  0  0  0  0  0  0  0  0  0  0  0
   24.1988  -18.1041  -23.1247 C   0  0  0  0  0  0  0  0  0  0  0  0
   24.6617  -18.8577  -24.0404 O   0  0  0  0  0  0  0  0  0  0  0  0
   23.9315  -20.8110  -20.5588 C   0  0  0  0  0  0  0  0  0  0  0  0
   22.9075  -21.0174  -19.8648 O   0  0  0  0  0  0  0  0  0  0  0  0
   24.1771  -16.7420  -23.3576 O   0  0  0  0  0  0  0  0  0  0  0  0
   30.6614  -24.0470  -18.6342 N   0  0  0  0  0  0  0  0  0  0  0  0
   30.3796  -22.6702  -18.4287 C   0  0  0  0  0  0  0  0  0  0  0  0
   31.0757  -21.7585  -19.0158 N   0  0  0  0  0  0  0  0  0  0  0  0
   29.3297  -22.2251  -17.5763 N   0  0  0  0  0  0  0  0  0  0  0  0
   28.4117  -23.1767  -17.0000 C   0  0  0  0  0  0  0  0  0  0  0  0
   27.0134  -22.5750  -17.0251 C   0  0  0  0  0  0  0  0  0  0  0  0
   26.6451  -22.2733  -18.4410 C   0  0  0  0  0  0  0  0  0  0  0  0
   25.3302  -21.5546  -18.5825 C   0  0  2  0  0  0  0  0  0  0  0  0
   25.1765  -21.1637  -19.9777 N   0  0  0  0  0  0  0  0  0  0  0  0
   25.2014  -20.3582  -17.6918 C   0  0  0  0  0  0  0  0  0  0  0  0
   25.7363  -19.2595  -17.9837 O   0  0  0  0  0  0  0  0  0  0  0  0
   30.8046  -20.7731  -18.8969 N   0  0  0  0  0  0  0  0  0  0  0  0
   19.5009  -20.4376  -11.8767 C   0  0  0  0  0  0  0  0  0  0  0  0
   20.1054  -19.2854  -11.2966 N   0  0  0  0  0  0  0  0  0  0  0  0
   19.9969  -19.0227  -10.0500 N   0  0  0  0  0  0  0  0  0  0  0  0
   20.8367  -18.4305  -12.1488 C   0  0  0  0  0  0  0  0  0  0  0  0
   20.8731  -18.7835  -13.5997 C   0  0  0  0  0  0  0  0  0  0  0  0
   22.2981  -18.8978  -13.9745 C   0  0  0  0  0  0  0  0  0  0  0  0
   22.7564  -19.0885  -15.3514 C   0  0  1  0  0  0  0  0  0  0  0  0
   24.1755  -19.2215  -15.6398 N   0  0  0  0  0  0  0  0  0  0  0  0
   24.4739  -20.4032  -16.4787 C   0  0  0  0  0  0  0  0  0  0  0  0
   25.2074  -19.0223  -14.6420 O   0  0  0  0  0  0  0  0  0  0  0  0
   25.8413  -20.0818  -14.1709 O   0  0  0  0  0  0  0  0  0  0  0  0
  2  1  1  1
  3  2  1  0
  3  4  1  0
  4  8  1  0
  4  5  2  0
  6  7  2  0
  6  2  1  0
  9 10  1  0
 10 12  1  0
 11 10  2  0
 12 13  1  0
 13 14  1  0
 14 15  1  0
 16 15  1  6
 16 17  1  0
 17  6  1  0
 18 19  2  0
 18 16  1  0
 20 21  1  0
 21 23  1  0
 21 22  2  0
 23 24  1  0
 25 24  1  0
 25 26  1  0
 27 26  1  6
 27 29  1  0
 27 28  1  0
 28 18  1  0
 29 31  1  0
 30 29  2  0
M  END
$$$$
