DRR.pdb
     RDKit          3D

 31 30  0  0  1  0  0  0  0  0999 V2000
   24.7513  -15.4364  -19.3169 N   0  0  0  0  0  0  0  0  0  0  0  0
   24.7184  -15.2901  -17.8860 C   0  0  1  0  0  0  0  0  0  0  0  0
   23.5549  -14.4529  -17.4306 C   0  0  0  0  0  0  0  0  0  0  0  0
   23.8161  -13.0187  -17.6688 C   0  0  0  0  0  0  0  0  0  0  0  0
   22.8932  -12.3048  -18.1781 O   0  0  0  0  0  0  0  0  0  0  0  0
   24.6564  -16.6685  -17.2970 C   0  0  0  0  0  0  0  0  0  0  0  0
   24.0737  -17.6083  -17.8888 O   0  0  0  0  0  0  0  0  0  0  0  0
   25.0165  -12.4043  -17.3665 O   0  0  0  0  0  0  0  0  0  0  0  0
   26.0512  -20.3354  -10.2603 N   0  0  0  0  0  0  0  0  0  0  0  0
   26.6259  -21.3503  -11.0707 C   0  0  0  0  0  0  0  0  0  0  0  0
   26.3512  -22.5927  -10.8676 N   0  0  0  0  0  0  0  0  0  0  0  0
   27.5241  -21.0588  -12.1362 N   0  0  0  0  0  0  0  0  0  0  0  0
   27.4882  -19.7693  -12.7817 C   0  0  0  0  0  0  0  0  0  0  0  0
   26.2593  -19.7124  -13.6787 C   0  0  0  0  0  0  0  0  0  0  0  0
   26.2581  -18.4103  -14.4106 C   0  0  0  0  0  0  0  0  0  0  0  0
   25.1261  -18.2712  -15.3929 C   0  0  2  0  0  0  0  0  0  0  0  0
   25.2512  -16.9749  -16.0462 N   0  0  0  0  0  0  0  0  0  0  0  0
   23.7714  -18.4097  -14.7709 C   0  0  0  0  0  0  0  0  0  0  0  0
   23.3307  -17.5600  -13.9571 O   0  0  0  0  0  0  0  0  0  0  0  0
   26.8125  -23.3049  -11.4495 N   0  0  0  0  0  0  0  0  0  0  0  0
   20.5089  -15.4483  -18.2977 C   0  0  0  0  0  0  0  0  0  0  0  0
   19.6700  -15.1925  -17.1751 N   0  0  0  0  0  0  0  0  0  0  0  0
   19.1388  -14.0463  -16.9778 N   0  0  0  0  0  0  0  0  0  0  0  0
   19.4393  -16.2545  -16.2747 C   0  0  0  0  0  0  0  0  0  0  0  0
   20.2824  -17.4773  -16.4333 C   0  0  0  0  0  0  0  0  0  0  0  0
   19.8475  -18.4323  -15.3927 C   0  0  0  0  0  0  0  0  0  0  0  0
   20.4939  -19.7255  -15.1649 C   0  0  2  0  0  0  0  0  0  0  0  0
   21.6783  -19.8153  -14.3258 N   0  0  0  0  0  0  0  0  0  0  0  0
   22.9207  -19.5016  -15.0656 C   0  0  0  0  0  0  0  0  0  0  0  0
   21.8978  -20.8912  -13.3801 O   0  0  0  0  0  0  0  0  0  0  0  0
   20.9697  -21.1296  -12.4702 O   0  0  0  0  0  0  0  0  0  0  0  0
  2  1  1  6
  3  2  1  0
  3  4  1  0
  4  8  1  0
  4  5  2  0
  6  7  2  0
  6  2  1  0
  9 10  1  0
 10 12  1  0
 11 10  2  0
 12 13  1  0
 13 14  1  0
 14 15  1  0
 16 15  1  1
 16 17  1  0
 17  6  1  0
 18 19  2  0
 18 16  1  0
 20 21  1  0
 21 23  1  0
 21 22  2  0
 23 24  1  0
 25 24  1  0
 25 26  1  0
 27 26  1  1
 27 29  1  0
 27 28  1  0
 28 18  1  0
 29 31  1  0
 30 29  2  0
M  END
$$$$
