DRR.pdb
     RDKit          3D

 31 30  0  0  1  0  0  0  0  0999 V2000
   21.3932  -19.9964  -18.9242 N   0  0  0  0  0  0  0  0  0  0  0  0
   20.6089  -19.4075  -17.8715 C   0  0  1  0  0  0  0  0  0  0  0  0
   19.1679  -19.2392  -18.2678 C   0  0  0  0  0  0  0  0  0  0  0  0
   19.0201  -18.1547  -19.2597 C   0  0  0  0  0  0  0  0  0  0  0  0
   19.7601  -17.1241  -19.1546 O   0  0  0  0  0  0  0  0  0  0  0  0
   20.7391  -20.2936  -16.6679 C   0  0  0  0  0  0  0  0  0  0  0  0
   20.5217  -21.5269  -16.7356 O   0  0  0  0  0  0  0  0  0  0  0  0
   18.1158  -18.1978  -20.3038 O   0  0  0  0  0  0  0  0  0  0  0  0
   26.5464  -21.5574  -11.3656 N   0  0  0  0  0  0  0  0  0  0  0  0
   25.7738  -21.8789  -12.5132 C   0  0  0  0  0  0  0  0  0  0  0  0
   26.3024  -22.4943  -13.5143 N   0  0  0  0  0  0  0  0  0  0  0  0
   24.3940  -21.5454  -12.6222 N   0  0  0  0  0  0  0  0  0  0  0  0
   23.7512  -20.7736  -11.5869 C   0  0  0  0  0  0  0  0  0  0  0  0
   22.2743  -20.6395  -11.9311 C   0  0  0  0  0  0  0  0  0  0  0  0
   22.1480  -19.9341  -13.2417 C   0  0  0  0  0  0  0  0  0  0  0  0
   21.1892  -20.5968  -14.1940 C   0  0  2  0  0  0  0  0  0  0  0  0
   21.1125  -19.7813  -15.3989 N   0  0  0  0  0  0  0  0  0  0  0  0
   19.8219  -20.8050  -13.6209 C   0  0  0  0  0  0  0  0  0  0  0  0
   19.0690  -19.8374  -13.3461 O   0  0  0  0  0  0  0  0  0  0  0  0
   25.7222  -22.6854  -14.3423 N   0  0  0  0  0  0  0  0  0  0  0  0
   15.8841  -25.7404   -8.5720 C   0  0  0  0  0  0  0  0  0  0  0  0
   16.7894  -26.5193   -9.3487 N   0  0  0  0  0  0  0  0  0  0  0  0
   16.4752  -27.6777   -9.7894 N   0  0  0  0  0  0  0  0  0  0  0  0
   18.0600  -25.9687   -9.6209 C   0  0  0  0  0  0  0  0  0  0  0  0
   18.3308  -24.5930   -9.1056 C   0  0  0  0  0  0  0  0  0  0  0  0
   17.9198  -23.6517  -10.1682 C   0  0  0  0  0  0  0  0  0  0  0  0
   18.7826  -23.2748  -11.2887 C   0  0  1  0  0  0  0  0  0  0  0  0
   18.2834  -22.3975  -12.3355 N   0  0  0  0  0  0  0  0  0  0  0  0
   19.3089  -22.0977  -13.3591 C   0  0  0  0  0  0  0  0  0  0  0  0
   17.4651  -21.2320  -12.0671 O   0  0  0  0  0  0  0  0  0  0  0  0
   16.1518  -21.3510  -12.1518 O   0  0  0  0  0  0  0  0  0  0  0  0
  2  1  1  6
  3  2  1  0
  3  4  1  0
  4  8  1  0
  4  5  2  0
  6  7  2  0
  6  2  1  0
  9 10  1  0
 10 12  1  0
 11 10  2  0
 12 13  1  0
 13 14  1  0
 14 15  1  0
 16 15  1  1
 16 17  1  0
 17  6  1  0
 18 19  2  0
 18 16  1  0
 20 21  1  0
 21 23  1  0
 21 22  2  0
 23 24  1  0
 25 24  1  0
 25 26  1  0
 27 26  1  6
 27 29  1  0
 27 28  1  0
 28 18  1  0
 29 31  1  0
 30 29  2  0
M  END
$$$$
