DRR.pdb
     RDKit          3D

 31 30  0  0  1  0  0  0  0  0999 V2000
   17.6803  -10.0982  -15.2096 N   0  0  0  0  0  0  0  0  0  0  0  0
   18.2797   -9.7642  -13.9450 C   0  0  1  0  0  0  0  0  0  0  0  0
   19.4508   -8.8339  -14.1034 C   0  0  0  0  0  0  0  0  0  0  0  0
   20.6611   -9.5786  -14.5064 C   0  0  0  0  0  0  0  0  0  0  0  0
   20.5231  -10.7096  -15.0744 O   0  0  0  0  0  0  0  0  0  0  0  0
   17.2103   -9.1474  -13.0925 C   0  0  0  0  0  0  0  0  0  0  0  0
   16.4947   -8.2087  -13.5163 O   0  0  0  0  0  0  0  0  0  0  0  0
   21.9451   -9.1113  -14.2993 O   0  0  0  0  0  0  0  0  0  0  0  0
   12.2159  -14.6127   -9.7291 N   0  0  0  0  0  0  0  0  0  0  0  0
   11.7778  -13.8262  -10.8275 C   0  0  0  0  0  0  0  0  0  0  0  0
   10.7106  -14.1375  -11.4790 N   0  0  0  0  0  0  0  0  0  0  0  0
   12.4807  -12.6681  -11.2653 N   0  0  0  0  0  0  0  0  0  0  0  0
   13.4535  -12.0421  -10.4037 C   0  0  0  0  0  0  0  0  0  0  0  0
   14.0430  -10.8424  -11.1324 C   0  0  0  0  0  0  0  0  0  0  0  0
   15.1781  -10.3004  -10.3268 C   0  0  0  0  0  0  0  0  0  0  0  0
   15.8505   -9.1099  -10.9560 C   0  0  2  0  0  0  0  0  0  0  0  0
   16.9578   -9.5939  -11.7700 N   0  0  0  0  0  0  0  0  0  0  0  0
   16.3391   -8.1021   -9.9626 C   0  0  0  0  0  0  0  0  0  0  0  0
   17.1911   -8.3992   -9.0883 O   0  0  0  0  0  0  0  0  0  0  0  0
   10.4509  -13.5784  -12.3029 N   0  0  0  0  0  0  0  0  0  0  0  0
   18.5434    0.4408   -9.7092 C   0  0  0  0  0  0  0  0  0  0  0  0
   18.1270    0.1581   -8.3764 N   0  0  0  0  0  0  0  0  0  0  0  0
   18.2186    1.0271   -7.4431 N   0  0  0  0  0  0  0  0  0  0  0  0
   17.6042   -1.1259   -8.1122 C   0  0  0  0  0  0  0  0  0  0  0  0
   17.4652   -2.0567   -9.2722 C   0  0  0  0  0  0  0  0  0  0  0  0
   17.0488   -3.3636   -8.7220 C   0  0  0  0  0  0  0  0  0  0  0  0
   16.7503   -4.5300   -9.5541 C   0  0  1  0  0  0  0  0  0  0  0  0
   16.2472   -5.7528   -8.9489 N   0  0  0  0  0  0  0  0  0  0  0  0
   15.8674   -6.7678   -9.9563 C   0  0  0  0  0  0  0  0  0  0  0  0
   15.3222   -5.7606   -7.8334 O   0  0  0  0  0  0  0  0  0  0  0  0
   14.0904   -6.1925   -8.0392 O   0  0  0  0  0  0  0  0  0  0  0  0
  2  1  1  6
  3  2  1  0
  3  4  1  0
  4  8  1  0
  4  5  2  0
  6  7  2  0
  6  2  1  0
  9 10  1  0
 10 12  1  0
 11 10  2  0
 12 13  1  0
 13 14  1  0
 14 15  1  0
 16 15  1  1
 16 17  1  0
 17  6  1  0
 18 19  2  0
 18 16  1  0
 20 21  1  0
 21 23  1  0
 21 22  2  0
 23 24  1  0
 25 24  1  0
 25 26  1  0
 27 26  1  1
 27 29  1  0
 27 28  1  0
 28 18  1  0
 29 31  1  0
 30 29  2  0
M  END
$$$$
