DRR.pdb
     RDKit          3D

 31 30  0  0  1  0  0  0  0  0999 V2000
   28.5454  -22.2225  -16.5802 N   0  0  0  0  0  0  0  0  0  0  0  0
   27.4409  -21.3015  -16.6239 C   0  0  1  0  0  0  0  0  0  0  0  0
   26.8835  -21.1538  -18.0129 C   0  0  0  0  0  0  0  0  0  0  0  0
   27.7228  -20.2457  -18.8208 C   0  0  0  0  0  0  0  0  0  0  0  0
   28.5912  -19.5267  -18.2295 O   0  0  0  0  0  0  0  0  0  0  0  0
   26.3973  -21.8097  -15.6734 C   0  0  0  0  0  0  0  0  0  0  0  0
   25.7982  -22.8927  -15.8760 O   0  0  0  0  0  0  0  0  0  0  0  0
   27.6164  -20.1329  -20.1941 O   0  0  0  0  0  0  0  0  0  0  0  0
   23.8410  -19.7832  -10.2633 N   0  0  0  0  0  0  0  0  0  0  0  0
   24.5093  -20.4735   -9.2173 C   0  0  0  0  0  0  0  0  0  0  0  0
   23.8685  -20.8688   -8.1716 N   0  0  0  0  0  0  0  0  0  0  0  0
   25.9024  -20.7634   -9.2626 N   0  0  0  0  0  0  0  0  0  0  0  0
   26.7071  -20.2834  -10.3593 C   0  0  0  0  0  0  0  0  0  0  0  0
   26.5059  -21.2124  -11.5486 C   0  0  0  0  0  0  0  0  0  0  0  0
   25.2488  -20.8233  -12.2555 C   0  0  0  0  0  0  0  0  0  0  0  0
   25.0351  -21.5548  -13.5534 C   0  0  2  0  0  0  0  0  0  0  0  0
   26.0381  -21.0923  -14.5036 N   0  0  0  0  0  0  0  0  0  0  0  0
   23.6616  -21.3784  -14.1225 C   0  0  0  0  0  0  0  0  0  0  0  0
   23.3332  -20.3334  -14.7377 O   0  0  0  0  0  0  0  0  0  0  0  0
   24.3767  -21.3928   -7.4465 N   0  0  0  0  0  0  0  0  0  0  0  0
   16.5721  -26.8747  -15.3631 C   0  0  0  0  0  0  0  0  0  0  0  0
   16.2300  -25.6145  -15.9325 N   0  0  0  0  0  0  0  0  0  0  0  0
   15.0935  -25.4091  -16.4813 N   0  0  0  0  0  0  0  0  0  0  0  0
   17.1943  -24.5857  -15.8734 C   0  0  0  0  0  0  0  0  0  0  0  0
   18.4859  -24.9012  -15.1925 C   0  0  0  0  0  0  0  0  0  0  0  0
   19.2897  -23.6611  -15.2086 C   0  0  0  0  0  0  0  0  0  0  0  0
   20.6133  -23.5507  -14.5938 C   0  0  2  0  0  0  0  0  0  0  0  0
   21.3024  -22.2706  -14.5621 N   0  0  0  0  0  0  0  0  0  0  0  0
   22.6655  -22.3758  -13.9964 C   0  0  0  0  0  0  0  0  0  0  0  0
   20.6635  -21.0386  -14.1447 O   0  0  0  0  0  0  0  0  0  0  0  0
   20.7460  -20.6850  -12.8741 O   0  0  0  0  0  0  0  0  0  0  0  0
  2  1  1  6
  3  2  1  0
  3  4  1  0
  4  8  1  0
  4  5  2  0
  6  7  2  0
  6  2  1  0
  9 10  1  0
 10 12  1  0
 11 10  2  0
 12 13  1  0
 13 14  1  0
 14 15  1  0
 16 15  1  1
 16 17  1  0
 17  6  1  0
 18 19  2  0
 18 16  1  0
 20 21  1  0
 21 23  1  0
 21 22  2  0
 23 24  1  0
 25 24  1  0
 25 26  1  0
 27 26  1  6
 27 29  1  0
 27 28  1  0
 28 18  1  0
 29 31  1  0
 30 29  2  0
M  END
$$$$
