DRR.pdb
     RDKit          3D

 31 30  0  0  1  0  0  0  0  0999 V2000
   12.2606  -20.9153   -6.5088 N   0  0  0  0  0  0  0  0  0  0  0  0
   12.5027  -22.0314   -7.3839 C   0  0  1  0  0  0  0  0  0  0  0  0
   12.3276  -21.6623   -8.8313 C   0  0  0  0  0  0  0  0  0  0  0  0
   10.8957  -21.6150   -9.1908 C   0  0  0  0  0  0  0  0  0  0  0  0
   10.0385  -22.0310   -8.3464 O   0  0  0  0  0  0  0  0  0  0  0  0
   13.8964  -22.5168   -7.1141 C   0  0  0  0  0  0  0  0  0  0  0  0
   14.9008  -21.8495   -7.4587 O   0  0  0  0  0  0  0  0  0  0  0  0
   10.4316  -21.1401  -10.4028 O   0  0  0  0  0  0  0  0  0  0  0  0
   19.1240  -27.4229   -2.9359 N   0  0  0  0  0  0  0  0  0  0  0  0
   17.9726  -27.1368   -2.1551 C   0  0  0  0  0  0  0  0  0  0  0  0
   18.0351  -27.1174   -0.8682 N   0  0  0  0  0  0  0  0  0  0  0  0
   16.7041  -26.8598   -2.7391 N   0  0  0  0  0  0  0  0  0  0  0  0
   16.4083  -27.3109   -4.0769 C   0  0  0  0  0  0  0  0  0  0  0  0
   16.6542  -26.1582   -5.0406 C   0  0  0  0  0  0  0  0  0  0  0  0
   15.3584  -25.4607   -5.2965 C   0  0  0  0  0  0  0  0  0  0  0  0
   15.4822  -24.2761   -6.2168 C   0  0  2  0  0  0  0  0  0  0  0  0
   14.1451  -23.7502   -6.4591 N   0  0  0  0  0  0  0  0  0  0  0  0
   16.1579  -24.5925   -7.5147 C   0  0  0  0  0  0  0  0  0  0  0  0
   15.5100  -24.9939   -8.5135 O   0  0  0  0  0  0  0  0  0  0  0  0
   17.1732  -26.9502   -0.3317 N   0  0  0  0  0  0  0  0  0  0  0  0
   17.2780  -26.4470  -14.2605 C   0  0  0  0  0  0  0  0  0  0  0  0
   16.4018  -25.3839  -13.8978 N   0  0  0  0  0  0  0  0  0  0  0  0
   15.2331  -25.2711  -14.4041 N   0  0  0  0  0  0  0  0  0  0  0  0
   16.8671  -24.4459  -12.9515 C   0  0  0  0  0  0  0  0  0  0  0  0
   18.0563  -24.8344  -12.1354 C   0  0  0  0  0  0  0  0  0  0  0  0
   18.4015  -23.6638  -11.3019 C   0  0  0  0  0  0  0  0  0  0  0  0
   18.0247  -23.5385   -9.8932 C   0  0  2  0  0  0  0  0  0  0  0  0
   18.2640  -24.6362   -8.9699 N   0  0  0  0  0  0  0  0  0  0  0  0
   17.5566  -24.4572   -7.6828 C   0  0  0  0  0  0  0  0  0  0  0  0
   19.5720  -25.2248   -8.7631 O   0  0  0  0  0  0  0  0  0  0  0  0
   20.2320  -24.9217   -7.6592 O   0  0  0  0  0  0  0  0  0  0  0  0
  2  1  1  1
  3  2  1  0
  3  4  1  0
  4  8  1  0
  4  5  2  0
  6  7  2  0
  6  2  1  0
  9 10  1  0
 10 12  1  0
 11 10  2  0
 12 13  1  0
 13 14  1  0
 14 15  1  0
 16 15  1  1
 16 17  1  0
 17  6  1  0
 18 19  2  0
 18 16  1  0
 20 21  1  0
 21 23  1  0
 21 22  2  0
 23 24  1  0
 25 24  1  0
 25 26  1  0
 27 26  1  6
 27 29  1  0
 27 28  1  0
 28 18  1  0
 29 31  1  0
 30 29  2  0
M  END
$$$$
