DRR.pdb
     RDKit          3D

 31 30  0  0  1  0  0  0  0  0999 V2000
   25.7525  -21.5196  -11.2936 N   0  0  0  0  0  0  0  0  0  0  0  0
   25.6247  -20.1082  -11.0454 C   0  0  1  0  0  0  0  0  0  0  0  0
   26.3152  -19.6936   -9.7753 C   0  0  0  0  0  0  0  0  0  0  0  0
   25.8119  -20.4733   -8.6262 C   0  0  0  0  0  0  0  0  0  0  0  0
   24.9045  -21.3433   -8.8272 O   0  0  0  0  0  0  0  0  0  0  0  0
   26.1986  -19.3918  -12.2320 C   0  0  0  0  0  0  0  0  0  0  0  0
   26.3502  -18.1468  -12.2354 O   0  0  0  0  0  0  0  0  0  0  0  0
   26.2756  -20.3091   -7.3347 O   0  0  0  0  0  0  0  0  0  0  0  0
   26.8423  -23.1785  -18.4629 N   0  0  0  0  0  0  0  0  0  0  0  0
   27.2079  -24.1491  -17.4927 C   0  0  0  0  0  0  0  0  0  0  0  0
   26.7302  -25.3448  -17.5417 N   0  0  0  0  0  0  0  0  0  0  0  0
   28.1080  -23.8620  -16.4276 N   0  0  0  0  0  0  0  0  0  0  0  0
   28.6023  -22.5202  -16.2385 C   0  0  0  0  0  0  0  0  0  0  0  0
   27.5093  -21.6916  -15.5776 C   0  0  0  0  0  0  0  0  0  0  0  0
   28.0435  -20.3245  -15.3004 C   0  0  0  0  0  0  0  0  0  0  0  0
   27.0563  -19.4183  -14.6150 C   0  0  2  0  0  0  0  0  0  0  0  0
   26.5957  -20.0851  -13.4041 N   0  0  0  0  0  0  0  0  0  0  0  0
   25.8901  -19.0416  -15.4749 C   0  0  0  0  0  0  0  0  0  0  0  0
   24.9210  -19.8221  -15.6487 O   0  0  0  0  0  0  0  0  0  0  0  0
   26.9087  -25.9835  -16.7550 N   0  0  0  0  0  0  0  0  0  0  0  0
   20.0990  -18.1435  -13.7764 C   0  0  0  0  0  0  0  0  0  0  0  0
   19.5721  -17.1996  -14.7043 N   0  0  0  0  0  0  0  0  0  0  0  0
   18.3150  -16.9947  -14.8168 N   0  0  0  0  0  0  0  0  0  0  0  0
   20.4895  -16.4883  -15.5069 C   0  0  0  0  0  0  0  0  0  0  0  0
   21.9412  -16.7662  -15.2915 C   0  0  0  0  0  0  0  0  0  0  0  0
   22.6814  -15.9535  -16.2793 C   0  0  0  0  0  0  0  0  0  0  0  0
   24.1202  -16.0838  -16.5140 C   0  0  2  0  0  0  0  0  0  0  0  0
   24.6777  -17.3489  -16.9650 N   0  0  0  0  0  0  0  0  0  0  0  0
   25.8197  -17.7917  -16.1349 C   0  0  0  0  0  0  0  0  0  0  0  0
   24.9029  -17.6608  -18.3621 O   0  0  0  0  0  0  0  0  0  0  0  0
   26.1398  -17.8947  -18.7642 O   0  0  0  0  0  0  0  0  0  0  0  0
  2  1  1  6
  3  2  1  0
  3  4  1  0
  4  8  1  0
  4  5  2  0
  6  7  2  0
  6  2  1  0
  9 10  1  0
 10 12  1  0
 11 10  2  0
 12 13  1  0
 13 14  1  0
 14 15  1  0
 16 15  1  6
 16 17  1  0
 17  6  1  0
 18 19  2  0
 18 16  1  0
 20 21  1  0
 21 23  1  0
 21 22  2  0
 23 24  1  0
 25 24  1  0
 25 26  1  0
 27 26  1  1
 27 29  1  0
 27 28  1  0
 28 18  1  0
 29 31  1  0
 30 29  2  0
M  END
$$$$
