DRR.pdb
     RDKit          3D

 31 30  0  0  1  0  0  0  0  0999 V2000
   25.9855  -16.0202  -20.5157 N   0  0  0  0  0  0  0  0  0  0  0  0
   25.9148  -15.7489  -19.1045 C   0  0  1  0  0  0  0  0  0  0  0  0
   24.9673  -14.6233  -18.7928 C   0  0  0  0  0  0  0  0  0  0  0  0
   25.5915  -13.3167  -19.0841 C   0  0  0  0  0  0  0  0  0  0  0  0
   26.8327  -13.2802  -19.3646 O   0  0  0  0  0  0  0  0  0  0  0  0
   25.4896  -17.0177  -18.4261 C   0  0  0  0  0  0  0  0  0  0  0  0
   24.5841  -17.7434  -18.9020 O   0  0  0  0  0  0  0  0  0  0  0  0
   24.8966  -12.1222  -19.0689 O   0  0  0  0  0  0  0  0  0  0  0  0
   26.8628  -20.3816  -11.0732 N   0  0  0  0  0  0  0  0  0  0  0  0
   26.6361  -21.5661  -11.8232 C   0  0  0  0  0  0  0  0  0  0  0  0
   25.8622  -22.4939  -11.3751 N   0  0  0  0  0  0  0  0  0  0  0  0
   27.2406  -21.7935  -13.0920 N   0  0  0  0  0  0  0  0  0  0  0  0
   27.6052  -20.6783  -13.9311 C   0  0  0  0  0  0  0  0  0  0  0  0
   26.3622  -20.2048  -14.6719 C   0  0  0  0  0  0  0  0  0  0  0  0
   26.7411  -19.0771  -15.5752 C   0  0  0  0  0  0  0  0  0  0  0  0
   25.6165  -18.6072  -16.4583 C   0  0  2  0  0  0  0  0  0  0  0  0
   26.0883  -17.4564  -17.2173 N   0  0  0  0  0  0  0  0  0  0  0  0
   24.3698  -18.2570  -15.7071 C   0  0  0  0  0  0  0  0  0  0  0  0
   24.3329  -17.2881  -14.9082 O   0  0  0  0  0  0  0  0  0  0  0  0
   25.6722  -23.3121  -11.9694 N   0  0  0  0  0  0  0  0  0  0  0  0
   16.7381  -15.3168  -17.3843 C   0  0  0  0  0  0  0  0  0  0  0  0
   17.0392  -15.0892  -16.0106 N   0  0  0  0  0  0  0  0  0  0  0  0
   16.4957  -14.1389  -15.3501 N   0  0  0  0  0  0  0  0  0  0  0  0
   17.9672  -15.9537  -15.3917 C   0  0  0  0  0  0  0  0  0  0  0  0
   18.5608  -17.0332  -16.2364 C   0  0  0  0  0  0  0  0  0  0  0  0
   19.6276  -17.6651  -15.4322 C   0  0  0  0  0  0  0  0  0  0  0  0
   20.9183  -18.0762  -15.9865 C   0  0  2  0  0  0  0  0  0  0  0  0
   21.9149  -18.7054  -15.1348 N   0  0  0  0  0  0  0  0  0  0  0  0
   23.1730  -18.9973  -15.8568 C   0  0  0  0  0  0  0  0  0  0  0  0
   21.5992  -19.7649  -14.1978 O   0  0  0  0  0  0  0  0  0  0  0  0
   22.1291  -20.9592  -14.3950 O   0  0  0  0  0  0  0  0  0  0  0  0
  2  1  1  6
  3  2  1  0
  3  4  1  0
  4  8  1  0
  4  5  2  0
  6  7  2  0
  6  2  1  0
  9 10  1  0
 10 12  1  0
 11 10  2  0
 12 13  1  0
 13 14  1  0
 14 15  1  0
 16 15  1  1
 16 17  1  0
 17  6  1  0
 18 19  2  0
 18 16  1  0
 20 21  1  0
 21 23  1  0
 21 22  2  0
 23 24  1  0
 25 24  1  0
 25 26  1  0
 27 26  1  1
 27 29  1  0
 27 28  1  0
 28 18  1  0
 29 31  1  0
 30 29  2  0
M  END
$$$$
