DRR.pdb
     RDKit          3D

 31 30  0  0  1  0  0  0  0  0999 V2000
   26.5758  -17.3793  -17.5147 N   0  0  0  0  0  0  0  0  0  0  0  0
   25.6760  -18.1790  -18.3027 C   0  0  1  0  0  0  0  0  0  0  0  0
   26.4079  -19.0425  -19.2929 C   0  0  0  0  0  0  0  0  0  0  0  0
   26.4201  -18.4131  -20.6292 C   0  0  0  0  0  0  0  0  0  0  0  0
   26.9798  -19.0305  -21.5915 O   0  0  0  0  0  0  0  0  0  0  0  0
   24.8684  -19.0119  -17.3516 C   0  0  0  0  0  0  0  0  0  0  0  0
   23.9180  -19.7263  -17.7507 O   0  0  0  0  0  0  0  0  0  0  0  0
   25.8526  -17.1812  -20.8942 O   0  0  0  0  0  0  0  0  0  0  0  0
   26.6802  -20.1552  -10.0013 N   0  0  0  0  0  0  0  0  0  0  0  0
   26.3040  -21.3048  -10.7457 C   0  0  0  0  0  0  0  0  0  0  0  0
   25.5413  -22.2059  -10.2292 N   0  0  0  0  0  0  0  0  0  0  0  0
   26.7407  -21.5248  -12.0828 N   0  0  0  0  0  0  0  0  0  0  0  0
   27.4031  -20.4707  -12.8113 C   0  0  0  0  0  0  0  0  0  0  0  0
   26.6416  -20.2269  -14.1069 C   0  0  0  0  0  0  0  0  0  0  0  0
   25.1939  -20.0453  -13.7870 C   0  0  0  0  0  0  0  0  0  0  0  0
   24.3382  -19.7747  -14.9953 C   0  0  2  0  0  0  0  0  0  0  0  0
   25.1389  -19.0314  -15.9592 N   0  0  0  0  0  0  0  0  0  0  0  0
   23.0781  -19.0289  -14.6834 C   0  0  0  0  0  0  0  0  0  0  0  0
   22.9869  -17.7882  -14.8588 O   0  0  0  0  0  0  0  0  0  0  0  0
   25.2484  -23.0019  -10.8116 N   0  0  0  0  0  0  0  0  0  0  0  0
   19.7808  -20.3774  -19.2536 C   0  0  0  0  0  0  0  0  0  0  0  0
   18.3727  -20.2462  -19.0815 N   0  0  0  0  0  0  0  0  0  0  0  0
   17.5461  -21.0200  -19.6756 N   0  0  0  0  0  0  0  0  0  0  0  0
   17.9101  -19.2238  -18.2257 C   0  0  0  0  0  0  0  0  0  0  0  0
   18.9405  -18.3458  -17.5944 C   0  0  0  0  0  0  0  0  0  0  0  0
   19.2401  -18.9262  -16.2686 C   0  0  0  0  0  0  0  0  0  0  0  0
   20.2404  -18.3733  -15.3544 C   0  0  1  0  0  0  0  0  0  0  0  0
   20.5794  -19.0757  -14.1270 N   0  0  0  0  0  0  0  0  0  0  0  0
   21.9289  -19.6804  -14.1757 C   0  0  0  0  0  0  0  0  0  0  0  0
   19.6503  -19.9413  -13.4287 O   0  0  0  0  0  0  0  0  0  0  0  0
   19.9307  -21.2298  -13.3449 O   0  0  0  0  0  0  0  0  0  0  0  0
  2  1  1  1
  3  2  1  0
  3  4  1  0
  4  8  1  0
  4  5  2  0
  6  7  2  0
  6  2  1  0
  9 10  1  0
 10 12  1  0
 11 10  2  0
 12 13  1  0
 13 14  1  0
 14 15  1  0
 16 15  1  1
 16 17  1  0
 17  6  1  0
 18 19  2  0
 18 16  1  0
 20 21  1  0
 21 23  1  0
 21 22  2  0
 23 24  1  0
 25 24  1  0
 25 26  1  0
 27 26  1  1
 27 29  1  0
 27 28  1  0
 28 18  1  0
 29 31  1  0
 30 29  2  0
M  END
$$$$
