DRR.pdb
     RDKit          3D

 31 30  0  0  1  0  0  0  0  0999 V2000
   25.4460  -20.0435  -16.7146 N   0  0  0  0  0  0  0  0  0  0  0  0
   24.3860  -19.2284  -16.1834 C   0  0  1  0  0  0  0  0  0  0  0  0
   23.5887  -18.5607  -17.2698 C   0  0  0  0  0  0  0  0  0  0  0  0
   24.3965  -17.5322  -17.9564 C   0  0  0  0  0  0  0  0  0  0  0  0
   25.5799  -17.3076  -17.5445 O   0  0  0  0  0  0  0  0  0  0  0  0
   23.5173  -20.1169  -15.3429 C   0  0  0  0  0  0  0  0  0  0  0  0
   23.4053  -21.3424  -15.5846 O   0  0  0  0  0  0  0  0  0  0  0  0
   23.9346  -16.7946  -19.0300 O   0  0  0  0  0  0  0  0  0  0  0  0
   19.8920  -22.0252   -8.8103 N   0  0  0  0  0  0  0  0  0  0  0  0
   20.8277  -21.0804   -8.3115 C   0  0  0  0  0  0  0  0  0  0  0  0
   21.4945  -21.3162   -7.2344 N   0  0  0  0  0  0  0  0  0  0  0  0
   21.0788  -19.8388   -8.9615 N   0  0  0  0  0  0  0  0  0  0  0  0
   20.2823  -19.4410  -10.0964 C   0  0  0  0  0  0  0  0  0  0  0  0
   20.6129  -20.3601  -11.2642 C   0  0  0  0  0  0  0  0  0  0  0  0
   21.5895  -19.6690  -12.1586 C   0  0  0  0  0  0  0  0  0  0  0  0
   21.9154  -20.4423  -13.4081 C   0  0  2  0  0  0  0  0  0  0  0  0
   22.7822  -19.6158  -14.2380 N   0  0  0  0  0  0  0  0  0  0  0  0
   20.7071  -20.8673  -14.1832 C   0  0  0  0  0  0  0  0  0  0  0  0
   19.7799  -20.0628  -14.4504 O   0  0  0  0  0  0  0  0  0  0  0  0
   22.2081  -20.6386   -6.9338 N   0  0  0  0  0  0  0  0  0  0  0  0
   20.8037  -28.0631  -13.9581 C   0  0  0  0  0  0  0  0  0  0  0  0
   20.6101  -27.4068  -12.7085 N   0  0  0  0  0  0  0  0  0  0  0  0
   21.4879  -27.4529  -11.7799 N   0  0  0  0  0  0  0  0  0  0  0  0
   19.4056  -26.6954  -12.5222 C   0  0  0  0  0  0  0  0  0  0  0  0
   18.4527  -26.6566  -13.6719 C   0  0  0  0  0  0  0  0  0  0  0  0
   18.3316  -25.2404  -14.0769 C   0  0  0  0  0  0  0  0  0  0  0  0
   19.4716  -24.3264  -14.1621 C   0  0  2  0  0  0  0  0  0  0  0  0
   19.2781  -22.9515  -14.5944 N   0  0  0  0  0  0  0  0  0  0  0  0
   20.5471  -22.1929  -14.6523 C   0  0  0  0  0  0  0  0  0  0  0  0
   18.1977  -22.1152  -14.1112 O   0  0  0  0  0  0  0  0  0  0  0  0
   17.2059  -21.8279  -14.9358 O   0  0  0  0  0  0  0  0  0  0  0  0
  2  1  1  6
  3  2  1  0
  3  4  1  0
  4  8  1  0
  4  5  2  0
  6  7  2  0
  6  2  1  0
  9 10  1  0
 10 12  1  0
 11 10  2  0
 12 13  1  0
 13 14  1  0
 14 15  1  0
 16 15  1  1
 16 17  1  0
 17  6  1  0
 18 19  2  0
 18 16  1  0
 20 21  1  0
 21 23  1  0
 21 22  2  0
 23 24  1  0
 25 24  1  0
 25 26  1  0
 27 26  1  6
 27 29  1  0
 27 28  1  0
 28 18  1  0
 29 31  1  0
 30 29  2  0
M  END
$$$$
