CPW.pdb
     RDKit          3D

 28 30  0  0  1  0  0  0  0  0999 V2000
    7.0954  -19.2928   19.6215 N   0  0  0  0  0  0  0  0  0  0  0  0
    6.8138  -18.3959   20.7399 C   0  0  1  0  0  0  0  0  0  0  0  0
    6.7344  -19.2843   21.9816 C   0  0  0  0  0  0  0  0  0  0  0  0
    6.4382  -18.2631   23.4473 S   0  0  0  0  0  0  0  0  0  0  0  0
    7.9068  -17.4048   20.8825 C   0  0  0  0  0  0  0  0  0  0  0  0
    9.1121  -17.8323   20.8920 O   0  0  0  0  0  0  0  0  0  0  0  0
    7.6702  -16.0122   21.0075 N   0  0  0  0  0  0  0  0  0  0  0  0
    6.3861  -15.3540   21.0379 C   0  0  0  0  0  0  0  0  0  0  0  0
    6.7082  -14.0359   20.3620 C   0  0  0  0  0  0  0  0  0  0  0  0
    7.9805  -13.6679   21.1430 C   0  0  0  0  0  0  0  0  0  0  0  0
    8.6845  -14.9896   21.1344 C   0  0  1  0  0  0  0  0  0  0  0  0
    9.5099  -15.2142   22.3459 C   0  0  0  0  0  0  0  0  0  0  0  0
   10.5356  -14.5090   22.5600 O   0  0  0  0  0  0  0  0  0  0  0  0
    9.2022  -16.2075   23.3079 N   0  0  0  0  0  0  0  0  0  0  0  0
    9.9751  -16.3505   24.5394 C   0  0  1  0  0  0  0  0  0  0  0  0
    9.8017  -15.0659   25.2999 C   0  0  0  0  0  0  0  0  0  0  0  0
    8.4142  -14.7460   25.6335 C   0  0  0  0  0  0  0  0  0  0  0  0
    7.3498  -15.6306   25.5752 C   0  0  0  0  0  0  0  0  0  0  0  0
    6.2409  -14.9722   25.9602 N   0  0  0  0  0  0  0  0  0  0  0  0
    6.5252  -13.6838   26.2724 C   0  0  0  0  0  0  0  0  0  0  0  0
    5.7801  -12.6088   26.7071 C   0  0  0  0  0  0  0  0  0  0  0  0
    6.4084  -11.4059   26.9308 C   0  0  0  0  0  0  0  0  0  0  0  0
    7.7633  -11.2343   26.7355 C   0  0  0  0  0  0  0  0  0  0  0  0
    8.4853  -12.3305   26.2991 C   0  0  0  0  0  0  0  0  0  0  0  0
    7.8954  -13.5558   26.0622 C   0  0  0  0  0  0  0  0  0  0  0  0
    9.4708  -17.5025   25.3354 C   0  0  0  0  0  0  0  0  0  0  0  0
   10.1691  -18.0179   26.4056 O   0  0  0  0  0  0  0  0  0  0  0  0
    8.3738  -18.0142   25.0144 O   0  0  0  0  0  0  0  0  0  0  0  0
  2  3  1  0
  2  1  1  6
  4  3  1  0
  5  2  1  0
  5  6  2  0
  7  5  1  0
  8  7  1  0
  9  8  1  0
 10  9  1  0
 10 11  1  0
 11  7  1  0
 12 13  2  0
 11 12  1  1
 14 12  1  0
 15 16  1  1
 15 14  1  0
 16 17  1  0
 17 18  2  0
 19 18  1  0
 20 19  1  0
 21 20  2  0
 22 21  1  0
 23 22  2  0
 23 24  1  0
 24 25  2  0
 25 20  1  0
 25 17  1  0
 26 15  1  0
 27 26  1  0
 28 26  2  0
M  END
$$$$
