CPW.pdb
     RDKit          3D

 28 30  0  0  1  0  0  0  0  0999 V2000
    7.7006  -19.2951   19.0887 N   0  0  0  0  0  0  0  0  0  0  0  0
    7.2410  -18.4957   20.2221 C   0  0  1  0  0  0  0  0  0  0  0  0
    7.1197  -19.4647   21.3984 C   0  0  0  0  0  0  0  0  0  0  0  0
    6.6282  -18.5606   22.8883 S   0  0  0  0  0  0  0  0  0  0  0  0
    8.2290  -17.4336   20.5270 C   0  0  0  0  0  0  0  0  0  0  0  0
    9.4696  -17.7440   20.5236 O   0  0  0  0  0  0  0  0  0  0  0  0
    7.8553  -16.0973   20.8199 N   0  0  0  0  0  0  0  0  0  0  0  0
    6.5121  -15.5836   20.9420 C   0  0  0  0  0  0  0  0  0  0  0  0
    6.6836  -14.1689   20.4251 C   0  0  0  0  0  0  0  0  0  0  0  0
    7.9293  -13.7658   21.2312 C   0  0  0  0  0  0  0  0  0  0  0  0
    8.7633  -14.9975   21.0575 C   0  0  1  0  0  0  0  0  0  0  0  0
    9.6343  -15.2767   22.2249 C   0  0  0  0  0  0  0  0  0  0  0  0
   10.7509  -14.6981   22.3418 O   0  0  0  0  0  0  0  0  0  0  0  0
    9.2723  -16.1852   23.2497 N   0  0  0  0  0  0  0  0  0  0  0  0
   10.0448  -16.2987   24.4846 C   0  0  1  0  0  0  0  0  0  0  0  0
    9.8476  -15.0074   25.2277 C   0  0  0  0  0  0  0  0  0  0  0  0
    8.4634  -14.7425   25.6184 C   0  0  0  0  0  0  0  0  0  0  0  0
    7.4297  -15.6640   25.5866 C   0  0  0  0  0  0  0  0  0  0  0  0
    6.3137  -15.0515   26.0234 N   0  0  0  0  0  0  0  0  0  0  0  0
    6.5638  -13.7583   26.3447 C   0  0  0  0  0  0  0  0  0  0  0  0
    5.7982  -12.7172   26.8240 C   0  0  0  0  0  0  0  0  0  0  0  0
    6.3915  -11.4957   27.0425 C   0  0  0  0  0  0  0  0  0  0  0  0
    7.7310  -11.2726   26.7988 C   0  0  0  0  0  0  0  0  0  0  0  0
    8.4742  -12.3357   26.3185 C   0  0  0  0  0  0  0  0  0  0  0  0
    7.9195  -13.5779   26.0849 C   0  0  0  0  0  0  0  0  0  0  0  0
    9.5584  -17.4485   25.2946 C   0  0  0  0  0  0  0  0  0  0  0  0
    8.4773  -18.2121   24.9116 O   0  0  0  0  0  0  0  0  0  0  0  0
   10.1583  -17.7241   26.3589 O   0  0  0  0  0  0  0  0  0  0  0  0
  2  3  1  0
  2  1  1  6
  4  3  1  0
  5  2  1  0
  5  6  2  0
  7  5  1  0
  8  7  1  0
  9  8  1  0
 10  9  1  0
 10 11  1  0
 11  7  1  0
 12 13  2  0
 11 12  1  1
 14 12  1  0
 15 16  1  1
 15 14  1  0
 16 17  1  0
 17 18  2  0
 19 18  1  0
 20 19  1  0
 21 20  2  0
 22 21  1  0
 23 22  2  0
 23 24  1  0
 24 25  2  0
 25 20  1  0
 25 17  1  0
 26 15  1  0
 27 26  1  0
 28 26  2  0
M  END
$$$$
