CPW.pdb
     RDKit          3D

 28 30  0  0  1  0  0  0  0  0999 V2000
   12.6373  -15.0147   18.0602 N   0  0  0  0  0  0  0  0  0  0  0  0
   11.2131  -15.2744   18.2576 C   0  0  1  0  0  0  0  0  0  0  0  0
   11.0530  -16.7942   18.2143 C   0  0  0  0  0  0  0  0  0  0  0  0
   11.0512  -17.3610   16.4945 S   0  0  0  0  0  0  0  0  0  0  0  0
   10.7790  -14.7460   19.5727 C   0  0  0  0  0  0  0  0  0  0  0  0
   11.6562  -14.6299   20.4961 O   0  0  0  0  0  0  0  0  0  0  0  0
    9.4399  -14.3672   19.8450 N   0  0  0  0  0  0  0  0  0  0  0  0
    8.3638  -14.2535   18.8898 C   0  0  0  0  0  0  0  0  0  0  0  0
    7.5553  -13.1164   19.4824 C   0  0  0  0  0  0  0  0  0  0  0  0
    7.4823  -13.6043   20.9387 C   0  0  0  0  0  0  0  0  0  0  0  0
    8.9038  -14.0282   21.1443 C   0  0  1  0  0  0  0  0  0  0  0  0
    9.0383  -15.1685   22.0830 C   0  0  0  0  0  0  0  0  0  0  0  0
    9.1160  -16.3507   21.6453 O   0  0  0  0  0  0  0  0  0  0  0  0
    9.0862  -15.0007   23.4889 N   0  0  0  0  0  0  0  0  0  0  0  0
    9.3681  -16.1178   24.3872 C   0  0  1  0  0  0  0  0  0  0  0  0
    9.1886  -15.5936   25.7842 C   0  0  0  0  0  0  0  0  0  0  0  0
    7.8476  -15.0842   26.0687 C   0  0  0  0  0  0  0  0  0  0  0  0
    6.6726  -15.8089   25.9561 C   0  0  0  0  0  0  0  0  0  0  0  0
    5.6528  -15.0042   26.3079 N   0  0  0  0  0  0  0  0  0  0  0  0
    6.1028  -13.7719   26.6502 C   0  0  0  0  0  0  0  0  0  0  0  0
    5.4994  -12.6066   27.0720 C   0  0  0  0  0  0  0  0  0  0  0  0
    6.2813  -11.5067   27.3380 C   0  0  0  0  0  0  0  0  0  0  0  0
    7.6536  -11.5264   27.1978 C   0  0  0  0  0  0  0  0  0  0  0  0
    8.2311  -12.7093   26.7731 C   0  0  0  0  0  0  0  0  0  0  0  0
    7.4847  -13.8367   26.4951 C   0  0  0  0  0  0  0  0  0  0  0  0
    8.4286  -17.2418   24.1249 C   0  0  0  0  0  0  0  0  0  0  0  0
    7.3103  -17.0952   23.3333 O   0  0  0  0  0  0  0  0  0  0  0  0
    8.6706  -18.3549   24.6453 O   0  0  0  0  0  0  0  0  0  0  0  0
  2  3  1  0
  2  1  1  1
  4  3  1  0
  5  2  1  0
  5  6  2  0
  7  5  1  0
  8  7  1  0
  9  8  1  0
 10  9  1  0
 10 11  1  0
 11  7  1  0
 12 13  2  0
 11 12  1  1
 14 12  1  0
 15 16  1  1
 15 14  1  0
 16 17  1  0
 17 18  2  0
 19 18  1  0
 20 19  1  0
 21 20  2  0
 22 21  1  0
 23 22  2  0
 23 24  1  0
 24 25  2  0
 25 20  1  0
 25 17  1  0
 26 15  1  0
 27 26  1  0
 28 26  2  0
M  END
$$$$
