CPW.pdb
     RDKit          3D

 28 30  0  0  1  0  0  0  0  0999 V2000
    7.5007  -19.0091   19.3081 N   0  0  0  0  0  0  0  0  0  0  0  0
    6.8317  -18.1460   20.2789 C   0  0  1  0  0  0  0  0  0  0  0  0
    6.2439  -19.0799   21.3370 C   0  0  0  0  0  0  0  0  0  0  0  0
    5.4914  -18.1048   22.6643 S   0  0  0  0  0  0  0  0  0  0  0  0
    7.8121  -17.2198   20.8939 C   0  0  0  0  0  0  0  0  0  0  0  0
    8.8865  -17.7140   21.3806 O   0  0  0  0  0  0  0  0  0  0  0  0
    7.6069  -15.8183   20.9632 N   0  0  0  0  0  0  0  0  0  0  0  0
    6.4888  -15.0819   20.4241 C   0  0  0  0  0  0  0  0  0  0  0  0
    7.1483  -13.7714   20.0425 C   0  0  0  0  0  0  0  0  0  0  0  0
    7.9220  -13.5017   21.3436 C   0  0  0  0  0  0  0  0  0  0  0  0
    8.4884  -14.8644   21.5986 C   0  0  1  0  0  0  0  0  0  0  0  0
    8.6396  -15.1680   23.0424 C   0  0  0  0  0  0  0  0  0  0  0  0
    7.7629  -14.7910   23.8697 O   0  0  0  0  0  0  0  0  0  0  0  0
    9.7481  -15.8805   23.5624 N   0  0  0  0  0  0  0  0  0  0  0  0
   10.2659  -15.6238   24.9042 C   0  0  1  0  0  0  0  0  0  0  0  0
    9.2376  -16.1537   25.8636 C   0  0  0  0  0  0  0  0  0  0  0  0
    7.9853  -15.3986   25.8819 C   0  0  0  0  0  0  0  0  0  0  0  0
    6.7467  -15.8883   25.5016 C   0  0  0  0  0  0  0  0  0  0  0  0
    5.8433  -14.9038   25.6631 N   0  0  0  0  0  0  0  0  0  0  0  0
    6.4320  -13.7777   26.1359 C   0  0  0  0  0  0  0  0  0  0  0  0
    5.9805  -12.5177   26.4653 C   0  0  0  0  0  0  0  0  0  0  0  0
    6.8792  -11.5847   26.9274 C   0  0  0  0  0  0  0  0  0  0  0  0
    8.2222  -11.8642   27.0745 C   0  0  0  0  0  0  0  0  0  0  0  0
    8.6462  -13.1366   26.7362 C   0  0  0  0  0  0  0  0  0  0  0  0
    7.7789  -14.1033   26.2686 C   0  0  0  0  0  0  0  0  0  0  0  0
   11.5684  -16.3175   25.0969 C   0  0  0  0  0  0  0  0  0  0  0  0
   12.1530  -17.0724   24.1034 O   0  0  0  0  0  0  0  0  0  0  0  0
   12.1455  -16.2057   26.2028 O   0  0  0  0  0  0  0  0  0  0  0  0
  2  3  1  0
  2  1  1  6
  4  3  1  0
  5  2  1  0
  5  6  2  0
  7  5  1  0
  8  7  1  0
  9  8  1  0
 10  9  1  0
 10 11  1  0
 11  7  1  0
 12 13  2  0
 11 12  1  1
 14 12  1  0
 15 16  1  1
 15 14  1  0
 16 17  1  0
 17 18  2  0
 19 18  1  0
 20 19  1  0
 21 20  2  0
 22 21  1  0
 23 22  2  0
 23 24  1  0
 24 25  2  0
 25 20  1  0
 25 17  1  0
 26 15  1  0
 27 26  1  0
 28 26  2  0
M  END
$$$$
