CPW.pdb
     RDKit          3D

 28 30  0  0  1  0  0  0  0  0999 V2000
    6.6814  -18.5337   19.0125 N   0  0  0  0  0  0  0  0  0  0  0  0
    6.2696  -17.4388   19.8880 C   0  0  1  0  0  0  0  0  0  0  0  0
    5.4726  -18.0842   21.0218 C   0  0  0  0  0  0  0  0  0  0  0  0
    3.7148  -17.6911   20.8356 S   0  0  0  0  0  0  0  0  0  0  0  0
    7.4630  -16.7433   20.4257 C   0  0  0  0  0  0  0  0  0  0  0  0
    8.4428  -17.4554   20.8364 O   0  0  0  0  0  0  0  0  0  0  0  0
    7.5602  -15.3306   20.5019 N   0  0  0  0  0  0  0  0  0  0  0  0
    6.6409  -14.3705   19.9396 C   0  0  0  0  0  0  0  0  0  0  0  0
    7.5757  -13.2303   19.5875 C   0  0  0  0  0  0  0  0  0  0  0  0
    8.3522  -13.1362   20.9112 C   0  0  0  0  0  0  0  0  0  0  0  0
    8.6070  -14.5892   21.1691 C   0  0  1  0  0  0  0  0  0  0  0  0
    8.6492  -14.9224   22.6137 C   0  0  0  0  0  0  0  0  0  0  0  0
    7.7738  -14.4648   23.4008 O   0  0  0  0  0  0  0  0  0  0  0  0
    9.6487  -15.7523   23.1786 N   0  0  0  0  0  0  0  0  0  0  0  0
   10.1396  -15.5469   24.5392 C   0  0  1  0  0  0  0  0  0  0  0  0
    9.0964  -16.1196   25.4569 C   0  0  0  0  0  0  0  0  0  0  0  0
    7.8645  -15.3352   25.5325 C   0  0  0  0  0  0  0  0  0  0  0  0
    6.6223  -15.7450   25.0768 C   0  0  0  0  0  0  0  0  0  0  0  0
    5.7418  -14.7581   25.3265 N   0  0  0  0  0  0  0  0  0  0  0  0
    6.3492  -13.7071   25.9304 C   0  0  0  0  0  0  0  0  0  0  0  0
    5.9240  -12.4777   26.3859 C   0  0  0  0  0  0  0  0  0  0  0  0
    6.8364  -11.6264   26.9645 C   0  0  0  0  0  0  0  0  0  0  0  0
    8.1678  -11.9588   27.1067 C   0  0  0  0  0  0  0  0  0  0  0  0
    8.5654  -13.1989   26.6406 C   0  0  0  0  0  0  0  0  0  0  0  0
    7.6837  -14.0840   26.0536 C   0  0  0  0  0  0  0  0  0  0  0  0
   11.4421  -16.2414   24.7290 C   0  0  0  0  0  0  0  0  0  0  0  0
   12.0619  -16.9320   23.7104 O   0  0  0  0  0  0  0  0  0  0  0  0
   11.9860  -16.1909   25.8560 O   0  0  0  0  0  0  0  0  0  0  0  0
  2  3  1  0
  2  1  1  6
  4  3  1  0
  5  2  1  0
  5  6  2  0
  7  5  1  0
  8  7  1  0
  9  8  1  0
 10  9  1  0
 10 11  1  0
 11  7  1  0
 12 13  2  0
 11 12  1  1
 14 12  1  0
 15 16  1  1
 15 14  1  0
 16 17  1  0
 17 18  2  0
 19 18  1  0
 20 19  1  0
 21 20  2  0
 22 21  1  0
 23 22  2  0
 23 24  1  0
 24 25  2  0
 25 20  1  0
 25 17  1  0
 26 15  1  0
 27 26  1  0
 28 26  2  0
M  END
$$$$
