CPW.pdb
     RDKit          3D

 28 30  0  0  1  0  0  0  0  0999 V2000
    6.4952  -19.1865   20.5241 N   0  0  0  0  0  0  0  0  0  0  0  0
    6.2987  -18.1084   21.4906 C   0  0  1  0  0  0  0  0  0  0  0  0
    6.0000  -18.7903   22.8260 C   0  0  0  0  0  0  0  0  0  0  0  0
    5.7525  -17.5385   24.1108 S   0  0  0  0  0  0  0  0  0  0  0  0
    7.5293  -17.2885   21.5926 C   0  0  0  0  0  0  0  0  0  0  0  0
    8.5919  -17.8467   22.0339 O   0  0  0  0  0  0  0  0  0  0  0  0
    7.5742  -15.9201   21.2229 N   0  0  0  0  0  0  0  0  0  0  0  0
    6.4861  -15.1325   20.6948 C   0  0  0  0  0  0  0  0  0  0  0  0
    7.2236  -14.1818   19.7727 C   0  0  0  0  0  0  0  0  0  0  0  0
    8.3405  -13.7338   20.7298 C   0  0  0  0  0  0  0  0  0  0  0  0
    8.7300  -15.0562   21.3148 C   0  0  1  0  0  0  0  0  0  0  0  0
    9.1998  -14.9531   22.7178 C   0  0  0  0  0  0  0  0  0  0  0  0
    9.4280  -13.8231   23.2337 O   0  0  0  0  0  0  0  0  0  0  0  0
    9.4139  -16.0879   23.5383 N   0  0  0  0  0  0  0  0  0  0  0  0
   10.3830  -16.0742   24.6315 C   0  0  1  0  0  0  0  0  0  0  0  0
    9.9990  -14.9273   25.5235 C   0  0  0  0  0  0  0  0  0  0  0  0
    8.5603  -14.7967   25.7511 C   0  0  0  0  0  0  0  0  0  0  0  0
    7.6330  -15.8192   25.6362 C   0  0  0  0  0  0  0  0  0  0  0  0
    6.4198  -15.3146   25.9278 N   0  0  0  0  0  0  0  0  0  0  0  0
    6.5030  -13.9960   26.2322 C   0  0  0  0  0  0  0  0  0  0  0  0
    5.5891  -13.0284   26.5903 C   0  0  0  0  0  0  0  0  0  0  0  0
    6.0303  -11.7484   26.8326 C   0  0  0  0  0  0  0  0  0  0  0  0
    7.3600  -11.3951   26.7303 C   0  0  0  0  0  0  0  0  0  0  0  0
    8.2541  -12.3869   26.3693 C   0  0  0  0  0  0  0  0  0  0  0  0
    7.8548  -13.6839   26.1170 C   0  0  0  0  0  0  0  0  0  0  0  0
   10.3350  -17.3592   25.3808 C   0  0  0  0  0  0  0  0  0  0  0  0
    9.4773  -18.3804   25.0341 O   0  0  0  0  0  0  0  0  0  0  0  0
   11.1039  -17.5085   26.3580 O   0  0  0  0  0  0  0  0  0  0  0  0
  2  3  1  0
  2  1  1  6
  4  3  1  0
  5  2  1  0
  5  6  2  0
  7  5  1  0
  8  7  1  0
  9  8  1  0
 10  9  1  0
 10 11  1  0
 11  7  1  0
 12 13  2  0
 11 12  1  1
 14 12  1  0
 15 16  1  1
 15 14  1  0
 16 17  1  0
 17 18  2  0
 19 18  1  0
 20 19  1  0
 21 20  2  0
 22 21  1  0
 23 22  2  0
 23 24  1  0
 24 25  2  0
 25 20  1  0
 25 17  1  0
 26 15  1  0
 27 26  1  0
 28 26  2  0
M  END
$$$$
