CPW.pdb
     RDKit          3D

 28 30  0  0  1  0  0  0  0  0999 V2000
    7.4140  -19.7193   20.1233 N   0  0  0  0  0  0  0  0  0  0  0  0
    6.8418  -18.7435   21.0480 C   0  0  1  0  0  0  0  0  0  0  0  0
    6.4820  -19.5235   22.3127 C   0  0  0  0  0  0  0  0  0  0  0  0
    5.7457  -18.4061   23.5326 S   0  0  0  0  0  0  0  0  0  0  0  0
    7.8394  -17.6912   21.3559 C   0  0  0  0  0  0  0  0  0  0  0  0
    9.0367  -18.0536   21.6219 O   0  0  0  0  0  0  0  0  0  0  0  0
    7.5208  -16.3094   21.3668 N   0  0  0  0  0  0  0  0  0  0  0  0
    6.1997  -15.7282   21.3733 C   0  0  0  0  0  0  0  0  0  0  0  0
    6.4268  -14.4575   20.5785 C   0  0  0  0  0  0  0  0  0  0  0  0
    7.6899  -13.9480   21.2922 C   0  0  0  0  0  0  0  0  0  0  0  0
    8.4731  -15.2215   21.3792 C   0  0  1  0  0  0  0  0  0  0  0  0
    9.3351  -15.2903   22.5841 C   0  0  0  0  0  0  0  0  0  0  0  0
   10.2835  -14.4706   22.7387 O   0  0  0  0  0  0  0  0  0  0  0  0
    9.1482  -16.2549   23.6046 N   0  0  0  0  0  0  0  0  0  0  0  0
   10.0181  -16.3121   24.7769 C   0  0  1  0  0  0  0  0  0  0  0  0
    9.8861  -14.9839   25.4675 C   0  0  0  0  0  0  0  0  0  0  0  0
    8.5366  -14.6847   25.9450 C   0  0  0  0  0  0  0  0  0  0  0  0
    7.4955  -15.5942   26.0320 C   0  0  0  0  0  0  0  0  0  0  0  0
    6.4198  -14.9489   26.5196 N   0  0  0  0  0  0  0  0  0  0  0  0
    6.7037  -13.6452   26.7604 C   0  0  0  0  0  0  0  0  0  0  0  0
    5.9842  -12.5739   27.2444 C   0  0  0  0  0  0  0  0  0  0  0  0
    6.6023  -11.3508   27.3613 C   0  0  0  0  0  0  0  0  0  0  0  0
    7.9222  -11.1552   27.0105 C   0  0  0  0  0  0  0  0  0  0  0  0
    8.6191  -12.2482   26.5280 C   0  0  0  0  0  0  0  0  0  0  0  0
    8.0382  -13.4933   26.3944 C   0  0  0  0  0  0  0  0  0  0  0  0
    9.5956  -17.4165   25.6806 C   0  0  0  0  0  0  0  0  0  0  0  0
    8.4508  -18.1505   25.4585 O   0  0  0  0  0  0  0  0  0  0  0  0
   10.3109  -17.6805   26.6741 O   0  0  0  0  0  0  0  0  0  0  0  0
  2  3  1  0
  2  1  1  6
  4  3  1  0
  5  2  1  0
  5  6  2  0
  7  5  1  0
  8  7  1  0
  9  8  1  0
 10  9  1  0
 10 11  1  0
 11  7  1  0
 12 13  2  0
 11 12  1  1
 14 12  1  0
 15 16  1  1
 15 14  1  0
 16 17  1  0
 17 18  2  0
 19 18  1  0
 20 19  1  0
 21 20  2  0
 22 21  1  0
 23 22  2  0
 23 24  1  0
 24 25  2  0
 25 20  1  0
 25 17  1  0
 26 15  1  0
 27 26  1  0
 28 26  2  0
M  END
$$$$
