CPW.pdb
     RDKit          3D

 28 30  0  0  1  0  0  0  0  0999 V2000
    6.8282  -13.4432   18.8057 N   0  0  0  0  0  0  0  0  0  0  0  0
    8.0303  -14.2688   18.8954 C   0  0  1  0  0  0  0  0  0  0  0  0
    9.2014  -13.2941   19.0210 C   0  0  0  0  0  0  0  0  0  0  0  0
    9.5350  -12.5275   17.4148 S   0  0  0  0  0  0  0  0  0  0  0  0
    7.9561  -15.1444   20.0891 C   0  0  0  0  0  0  0  0  0  0  0  0
    7.3589  -14.6987   21.1285 O   0  0  0  0  0  0  0  0  0  0  0  0
    8.5167  -16.4465   20.1235 N   0  0  0  0  0  0  0  0  0  0  0  0
    9.1030  -17.1634   19.0166 C   0  0  0  0  0  0  0  0  0  0  0  0
    8.7441  -18.5951   19.3622 C   0  0  0  0  0  0  0  0  0  0  0  0
    9.1816  -18.6053   20.8362 C   0  0  0  0  0  0  0  0  0  0  0  0
    8.6081  -17.2979   21.2886 C   0  0  1  0  0  0  0  0  0  0  0  0
    9.4126  -16.6496   22.3525 C   0  0  0  0  0  0  0  0  0  0  0  0
   10.3563  -15.8658   22.0520 O   0  0  0  0  0  0  0  0  0  0  0  0
    9.1741  -16.8670   23.7319 N   0  0  0  0  0  0  0  0  0  0  0  0
   10.0020  -16.2452   24.7625 C   0  0  1  0  0  0  0  0  0  0  0  0
    9.5539  -14.8139   24.8593 C   0  0  0  0  0  0  0  0  0  0  0  0
    8.2192  -14.6379   25.4303 C   0  0  0  0  0  0  0  0  0  0  0  0
    7.2349  -15.6109   25.4860 C   0  0  0  0  0  0  0  0  0  0  0  0
    6.1550  -15.0756   26.0850 N   0  0  0  0  0  0  0  0  0  0  0  0
    6.3817  -13.7842   26.4302 C   0  0  0  0  0  0  0  0  0  0  0  0
    5.6340  -12.8043   27.0470 C   0  0  0  0  0  0  0  0  0  0  0  0
    6.1912  -11.5624   27.2445 C   0  0  0  0  0  0  0  0  0  0  0  0
    7.4770  -11.2595   26.8466 C   0  0  0  0  0  0  0  0  0  0  0  0
    8.2034  -12.2625   26.2306 C   0  0  0  0  0  0  0  0  0  0  0  0
    7.6836  -13.5225   26.0124 C   0  0  0  0  0  0  0  0  0  0  0  0
    9.8160  -16.9413   26.0647 C   0  0  0  0  0  0  0  0  0  0  0  0
   10.6047  -16.6708   27.1617 O   0  0  0  0  0  0  0  0  0  0  0  0
    8.9095  -17.8003   26.1573 O   0  0  0  0  0  0  0  0  0  0  0  0
  2  3  1  0
  2  1  1  1
  4  3  1  0
  5  2  1  0
  5  6  2  0
  7  5  1  0
  8  7  1  0
  9  8  1  0
 10  9  1  0
 10 11  1  0
 11  7  1  0
 12 13  2  0
 11 12  1  1
 14 12  1  0
 15 16  1  1
 15 14  1  0
 16 17  1  0
 17 18  2  0
 19 18  1  0
 20 19  1  0
 21 20  2  0
 22 21  1  0
 23 22  2  0
 23 24  1  0
 24 25  2  0
 25 20  1  0
 25 17  1  0
 26 15  1  0
 27 26  1  0
 28 26  2  0
M  END
$$$$
