CPW.pdb
     RDKit          3D

 28 30  0  0  1  0  0  0  0  0999 V2000
    6.9806  -18.6630   19.4617 N   0  0  0  0  0  0  0  0  0  0  0  0
    6.5519  -17.7808   20.5447 C   0  0  1  0  0  0  0  0  0  0  0  0
    6.1494  -18.6979   21.6997 C   0  0  0  0  0  0  0  0  0  0  0  0
    5.5551  -17.7044   23.0920 S   0  0  0  0  0  0  0  0  0  0  0  0
    7.6704  -16.8973   20.9517 C   0  0  0  0  0  0  0  0  0  0  0  0
    8.7127  -17.4377   21.4589 O   0  0  0  0  0  0  0  0  0  0  0  0
    7.6304  -15.4878   20.8019 N   0  0  0  0  0  0  0  0  0  0  0  0
    6.5024  -14.6971   20.3711 C   0  0  0  0  0  0  0  0  0  0  0  0
    7.1921  -13.5680   19.6314 C   0  0  0  0  0  0  0  0  0  0  0  0
    8.2574  -13.2069   20.6796 C   0  0  0  0  0  0  0  0  0  0  0  0
    8.7234  -14.5777   21.0623 C   0  0  1  0  0  0  0  0  0  0  0  0
    9.1577  -14.6679   22.4775 C   0  0  0  0  0  0  0  0  0  0  0  0
    9.4310  -13.6215   23.1298 O   0  0  0  0  0  0  0  0  0  0  0  0
    9.2872  -15.9020   23.1609 N   0  0  0  0  0  0  0  0  0  0  0  0
   10.2696  -16.0917   24.2255 C   0  0  1  0  0  0  0  0  0  0  0  0
   10.0365  -14.9881   25.2186 C   0  0  0  0  0  0  0  0  0  0  0  0
    8.6284  -14.7454   25.5299 C   0  0  0  0  0  0  0  0  0  0  0  0
    7.6201  -15.6938   25.4809 C   0  0  0  0  0  0  0  0  0  0  0  0
    6.4689  -15.0953   25.8388 N   0  0  0  0  0  0  0  0  0  0  0  0
    6.6713  -13.7854   26.1240 C   0  0  0  0  0  0  0  0  0  0  0  0
    5.8575  -12.7479   26.5258 C   0  0  0  0  0  0  0  0  0  0  0  0
    6.4095  -11.5045   26.7281 C   0  0  0  0  0  0  0  0  0  0  0  0
    7.7538  -11.2556   26.5433 C   0  0  0  0  0  0  0  0  0  0  0  0
    8.5457  -12.3156   26.1401 C   0  0  0  0  0  0  0  0  0  0  0  0
    8.0336  -13.5793   25.9254 C   0  0  0  0  0  0  0  0  0  0  0  0
   10.0854  -17.4216   24.8678 C   0  0  0  0  0  0  0  0  0  0  0  0
   10.9664  -17.9124   25.8068 O   0  0  0  0  0  0  0  0  0  0  0  0
    9.0934  -18.1109   24.5375 O   0  0  0  0  0  0  0  0  0  0  0  0
  2  3  1  0
  2  1  1  6
  4  3  1  0
  5  2  1  0
  5  6  2  0
  7  5  1  0
  8  7  1  0
  9  8  1  0
 10  9  1  0
 10 11  1  0
 11  7  1  0
 12 13  2  0
 11 12  1  1
 14 12  1  0
 15 16  1  1
 15 14  1  0
 16 17  1  0
 17 18  2  0
 19 18  1  0
 20 19  1  0
 21 20  2  0
 22 21  1  0
 23 22  2  0
 23 24  1  0
 24 25  2  0
 25 20  1  0
 25 17  1  0
 26 15  1  0
 27 26  1  0
 28 26  2  0
M  END
$$$$
