CPW.pdb
     RDKit          3D

 28 30  0  0  1  0  0  0  0  0999 V2000
    7.6810  -12.5648   18.1857 N   0  0  0  0  0  0  0  0  0  0  0  0
    8.4787  -13.7691   18.4047 C   0  0  1  0  0  0  0  0  0  0  0  0
    9.9348  -13.3058   18.4539 C   0  0  0  0  0  0  0  0  0  0  0  0
   11.0035  -14.6931   18.9147 S   0  0  0  0  0  0  0  0  0  0  0  0
    8.0949  -14.4051   19.6875 C   0  0  0  0  0  0  0  0  0  0  0  0
    7.9507  -13.6555   20.7136 O   0  0  0  0  0  0  0  0  0  0  0  0
    7.8829  -15.8009   19.8203 N   0  0  0  0  0  0  0  0  0  0  0  0
    7.8744  -16.7778   18.7579 C   0  0  0  0  0  0  0  0  0  0  0  0
    6.8546  -17.7737   19.2738 C   0  0  0  0  0  0  0  0  0  0  0  0
    7.3818  -17.9387   20.7088 C   0  0  0  0  0  0  0  0  0  0  0  0
    7.6400  -16.5058   21.0592 C   0  0  1  0  0  0  0  0  0  0  0  0
    8.7781  -16.3342   21.9944 C   0  0  0  0  0  0  0  0  0  0  0  0
    9.9601  -16.2598   21.5555 O   0  0  0  0  0  0  0  0  0  0  0  0
    8.6085  -16.2458   23.3981 N   0  0  0  0  0  0  0  0  0  0  0  0
    9.7495  -16.1595   24.3063 C   0  0  1  0  0  0  0  0  0  0  0  0
    9.6075  -14.8568   25.0423 C   0  0  0  0  0  0  0  0  0  0  0  0
    8.2494  -14.5702   25.5029 C   0  0  0  0  0  0  0  0  0  0  0  0
    7.2121  -15.4861   25.5641 C   0  0  0  0  0  0  0  0  0  0  0  0
    6.1257  -14.8521   26.0428 N   0  0  0  0  0  0  0  0  0  0  0  0
    6.3991  -13.5498   26.3027 C   0  0  0  0  0  0  0  0  0  0  0  0
    5.6666  -12.4879   26.7882 C   0  0  0  0  0  0  0  0  0  0  0  0
    6.2763  -11.2630   26.9282 C   0  0  0  0  0  0  0  0  0  0  0  0
    7.6002  -11.0565   26.5994 C   0  0  0  0  0  0  0  0  0  0  0  0
    8.3101  -12.1403   26.1150 C   0  0  0  0  0  0  0  0  0  0  0  0
    7.7380  -13.3867   25.9585 C   0  0  0  0  0  0  0  0  0  0  0  0
    9.7395  -17.3029   25.2589 C   0  0  0  0  0  0  0  0  0  0  0  0
   10.8135  -17.5905   26.0729 O   0  0  0  0  0  0  0  0  0  0  0  0
    8.7162  -18.0225   25.3158 O   0  0  0  0  0  0  0  0  0  0  0  0
  2  3  1  0
  2  1  1  1
  4  3  1  0
  5  2  1  0
  5  6  2  0
  7  5  1  0
  8  7  1  0
  9  8  1  0
 10  9  1  0
 10 11  1  0
 11  7  1  0
 12 13  2  0
 11 12  1  1
 14 12  1  0
 15 16  1  1
 15 14  1  0
 16 17  1  0
 17 18  2  0
 19 18  1  0
 20 19  1  0
 21 20  2  0
 22 21  1  0
 23 22  2  0
 23 24  1  0
 24 25  2  0
 25 20  1  0
 25 17  1  0
 26 15  1  0
 27 26  1  0
 28 26  2  0
M  END
$$$$
