CPW.pdb
     RDKit          3D

 28 30  0  0  1  0  0  0  0  0999 V2000
    6.6905  -19.0072   20.0780 N   0  0  0  0  0  0  0  0  0  0  0  0
    6.4740  -18.0221   21.1350 C   0  0  1  0  0  0  0  0  0  0  0  0
    6.2470  -18.8237   22.4168 C   0  0  0  0  0  0  0  0  0  0  0  0
    6.0656  -17.6949   23.8210 S   0  0  0  0  0  0  0  0  0  0  0  0
    7.6683  -17.1550   21.2722 C   0  0  0  0  0  0  0  0  0  0  0  0
    8.7795  -17.7035   21.5885 O   0  0  0  0  0  0  0  0  0  0  0  0
    7.6275  -15.7523   21.0679 N   0  0  0  0  0  0  0  0  0  0  0  0
    6.4912  -14.9760   20.6329 C   0  0  0  0  0  0  0  0  0  0  0  0
    7.1654  -13.8788   19.8332 C   0  0  0  0  0  0  0  0  0  0  0  0
    8.2559  -13.4798   20.8411 C   0  0  0  0  0  0  0  0  0  0  0  0
    8.7282  -14.8358   21.2664 C   0  0  1  0  0  0  0  0  0  0  0  0
    9.1956  -14.8715   22.6734 C   0  0  0  0  0  0  0  0  0  0  0  0
    9.5043  -13.8027   23.2713 O   0  0  0  0  0  0  0  0  0  0  0  0
    9.3191  -16.0763   23.4083 N   0  0  0  0  0  0  0  0  0  0  0  0
   10.2860  -16.2186   24.4943 C   0  0  1  0  0  0  0  0  0  0  0  0
    9.9810  -15.1249   25.4789 C   0  0  0  0  0  0  0  0  0  0  0  0
    8.5539  -14.8902   25.6956 C   0  0  0  0  0  0  0  0  0  0  0  0
    7.5589  -15.8492   25.6011 C   0  0  0  0  0  0  0  0  0  0  0  0
    6.3823  -15.2554   25.8736 N   0  0  0  0  0  0  0  0  0  0  0  0
    6.5548  -13.9384   26.1458 C   0  0  0  0  0  0  0  0  0  0  0  0
    5.7084  -12.9016   26.4750 C   0  0  0  0  0  0  0  0  0  0  0  0
    6.2356  -11.6493   26.6880 C   0  0  0  0  0  0  0  0  0  0  0  0
    7.5868  -11.3908   26.5840 C   0  0  0  0  0  0  0  0  0  0  0  0
    8.4118  -12.4504   26.2523 C   0  0  0  0  0  0  0  0  0  0  0  0
    7.9253  -13.7228   26.0300 C   0  0  0  0  0  0  0  0  0  0  0  0
   10.1493  -17.5542   25.1363 C   0  0  0  0  0  0  0  0  0  0  0  0
    9.1793  -18.4562   24.7566 O   0  0  0  0  0  0  0  0  0  0  0  0
   10.9473  -17.8602   26.0517 O   0  0  0  0  0  0  0  0  0  0  0  0
  2  3  1  0
  2  1  1  6
  4  3  1  0
  5  2  1  0
  5  6  2  0
  7  5  1  0
  8  7  1  0
  9  8  1  0
 10  9  1  0
 10 11  1  0
 11  7  1  0
 12 13  2  0
 11 12  1  1
 14 12  1  0
 15 16  1  1
 15 14  1  0
 16 17  1  0
 17 18  2  0
 19 18  1  0
 20 19  1  0
 21 20  2  0
 22 21  1  0
 23 22  2  0
 23 24  1  0
 24 25  2  0
 25 20  1  0
 25 17  1  0
 26 15  1  0
 27 26  1  0
 28 26  2  0
M  END
$$$$
