CPW.pdb
     RDKit          3D

 28 30  0  0  1  0  0  0  0  0999 V2000
   11.9932  -15.9771   17.8317 N   0  0  0  0  0  0  0  0  0  0  0  0
   10.7024  -16.5120   18.2589 C   0  0  1  0  0  0  0  0  0  0  0  0
   10.9425  -17.9888   18.5730 C   0  0  0  0  0  0  0  0  0  0  0  0
   11.9538  -18.1405   20.0673 S   0  0  0  0  0  0  0  0  0  0  0  0
   10.2323  -15.7959   19.4686 C   0  0  0  0  0  0  0  0  0  0  0  0
   11.0965  -15.1711   20.1745 O   0  0  0  0  0  0  0  0  0  0  0  0
    8.8725  -15.7766   19.8706 N   0  0  0  0  0  0  0  0  0  0  0  0
    7.7457  -16.2902   19.1292 C   0  0  0  0  0  0  0  0  0  0  0  0
    6.6501  -15.3279   19.5432 C   0  0  0  0  0  0  0  0  0  0  0  0
    6.8721  -15.3481   21.0646 C   0  0  0  0  0  0  0  0  0  0  0  0
    8.3649  -15.2379   21.1127 C   0  0  1  0  0  0  0  0  0  0  0  0
    8.9605  -15.9418   22.2743 C   0  0  0  0  0  0  0  0  0  0  0  0
    9.4711  -17.0884   22.1333 O   0  0  0  0  0  0  0  0  0  0  0  0
    8.9901  -15.3820   23.5753 N   0  0  0  0  0  0  0  0  0  0  0  0
    9.6411  -16.0644   24.6910 C   0  0  1  0  0  0  0  0  0  0  0  0
    9.4590  -15.1802   25.8926 C   0  0  0  0  0  0  0  0  0  0  0  0
    8.0923  -14.6958   26.0825 C   0  0  0  0  0  0  0  0  0  0  0  0
    6.9475  -15.4721   26.0079 C   0  0  0  0  0  0  0  0  0  0  0  0
    5.8890  -14.6753   26.2446 N   0  0  0  0  0  0  0  0  0  0  0  0
    6.2841  -13.3987   26.4738 C   0  0  0  0  0  0  0  0  0  0  0  0
    5.6268  -12.2207   26.7563 C   0  0  0  0  0  0  0  0  0  0  0  0
    6.3606  -11.0709   26.9331 C   0  0  0  0  0  0  0  0  0  0  0  0
    7.7368  -11.0526   26.8379 C   0  0  0  0  0  0  0  0  0  0  0  0
    8.3691  -12.2495   26.5535 C   0  0  0  0  0  0  0  0  0  0  0  0
    7.6720  -13.4264   26.3686 C   0  0  0  0  0  0  0  0  0  0  0  0
    9.0142  -17.3946   24.9200 C   0  0  0  0  0  0  0  0  0  0  0  0
    9.6513  -18.3966   25.6191 O   0  0  0  0  0  0  0  0  0  0  0  0
    7.8686  -17.6012   24.4580 O   0  0  0  0  0  0  0  0  0  0  0  0
  2  3  1  0
  2  1  1  1
  4  3  1  0
  5  2  1  0
  5  6  2  0
  7  5  1  0
  8  7  1  0
  9  8  1  0
 10  9  1  0
 10 11  1  0
 11  7  1  0
 12 13  2  0
 11 12  1  1
 14 12  1  0
 15 16  1  1
 15 14  1  0
 16 17  1  0
 17 18  2  0
 19 18  1  0
 20 19  1  0
 21 20  2  0
 22 21  1  0
 23 22  2  0
 23 24  1  0
 24 25  2  0
 25 20  1  0
 25 17  1  0
 26 15  1  0
 27 26  1  0
 28 26  2  0
M  END
$$$$
