CPW.pdb
     RDKit          3D

 28 30  0  0  1  0  0  0  0  0999 V2000
    8.9199  -17.6638   17.5442 N   0  0  0  0  0  0  0  0  0  0  0  0
    7.9641  -17.2115   18.5525 C   0  0  1  0  0  0  0  0  0  0  0  0
    7.2821  -18.4734   19.0814 C   0  0  0  0  0  0  0  0  0  0  0  0
    6.2600  -18.0607   20.5180 S   0  0  0  0  0  0  0  0  0  0  0  0
    8.6761  -16.5109   19.6477 C   0  0  0  0  0  0  0  0  0  0  0  0
    9.7669  -17.0190   20.0807 O   0  0  0  0  0  0  0  0  0  0  0  0
    8.1989  -15.3089   20.2295 N   0  0  0  0  0  0  0  0  0  0  0  0
    7.0823  -14.5144   19.7764 C   0  0  0  0  0  0  0  0  0  0  0  0
    7.5403  -13.1165   20.1426 C   0  0  0  0  0  0  0  0  0  0  0  0
    7.9907  -13.3804   21.5889 C   0  0  0  0  0  0  0  0  0  0  0  0
    8.7479  -14.6583   21.3982 C   0  0  1  0  0  0  0  0  0  0  0  0
    8.6808  -15.5530   22.5791 C   0  0  0  0  0  0  0  0  0  0  0  0
    7.5717  -15.8029   23.1291 O   0  0  0  0  0  0  0  0  0  0  0  0
    9.8283  -16.1632   23.1429 N   0  0  0  0  0  0  0  0  0  0  0  0
   10.0645  -16.1714   24.5846 C   0  0  1  0  0  0  0  0  0  0  0  0
    9.7729  -14.7791   25.0695 C   0  0  0  0  0  0  0  0  0  0  0  0
    8.3687  -14.5377   25.3988 C   0  0  0  0  0  0  0  0  0  0  0  0
    7.3514  -15.4740   25.3134 C   0  0  0  0  0  0  0  0  0  0  0  0
    6.2077  -14.8815   25.7036 N   0  0  0  0  0  0  0  0  0  0  0  0
    6.4235  -13.5873   26.0453 C   0  0  0  0  0  0  0  0  0  0  0  0
    5.6215  -12.5613   26.4969 C   0  0  0  0  0  0  0  0  0  0  0  0
    6.1859  -11.3331   26.7511 C   0  0  0  0  0  0  0  0  0  0  0  0
    7.5315  -11.0885   26.5701 C   0  0  0  0  0  0  0  0  0  0  0  0
    8.3116  -12.1367   26.1163 C   0  0  0  0  0  0  0  0  0  0  0  0
    7.7867  -13.3850   25.8487 C   0  0  0  0  0  0  0  0  0  0  0  0
    9.1682  -17.1560   25.2496 C   0  0  0  0  0  0  0  0  0  0  0  0
    9.3957  -17.6080   26.5312 O   0  0  0  0  0  0  0  0  0  0  0  0
    8.1762  -17.5825   24.6153 O   0  0  0  0  0  0  0  0  0  0  0  0
  2  3  1  0
  2  1  1  6
  4  3  1  0
  5  2  1  0
  5  6  2  0
  7  5  1  0
  8  7  1  0
  9  8  1  0
 10  9  1  0
 10 11  1  0
 11  7  1  0
 12 13  2  0
 11 12  1  1
 14 12  1  0
 15 16  1  1
 15 14  1  0
 16 17  1  0
 17 18  2  0
 19 18  1  0
 20 19  1  0
 21 20  2  0
 22 21  1  0
 23 22  2  0
 23 24  1  0
 24 25  2  0
 25 20  1  0
 25 17  1  0
 26 15  1  0
 27 26  1  0
 28 26  2  0
M  END
$$$$
