CPW.pdb
     RDKit          3D

 28 30  0  0  1  0  0  0  0  0999 V2000
    6.9871  -19.9303   20.8830 N   0  0  0  0  0  0  0  0  0  0  0  0
    6.5388  -18.5995   21.2865 C   0  0  1  0  0  0  0  0  0  0  0  0
    5.9137  -18.7684   22.6714 C   0  0  0  0  0  0  0  0  0  0  0  0
    5.8555  -20.5251   23.1069 S   0  0  0  0  0  0  0  0  0  0  0  0
    7.6941  -17.6730   21.3502 C   0  0  0  0  0  0  0  0  0  0  0  0
    8.8668  -18.1755   21.4390 O   0  0  0  0  0  0  0  0  0  0  0  0
    7.5511  -16.2625   21.3167 N   0  0  0  0  0  0  0  0  0  0  0  0
    6.3149  -15.5189   21.3598 C   0  0  0  0  0  0  0  0  0  0  0  0
    6.6573  -14.3172   20.5017 C   0  0  0  0  0  0  0  0  0  0  0  0
    8.0091  -13.9459   21.1332 C   0  0  0  0  0  0  0  0  0  0  0  0
    8.6310  -15.3042   21.2381 C   0  0  1  0  0  0  0  0  0  0  0  0
    9.5387  -15.4373   22.4033 C   0  0  0  0  0  0  0  0  0  0  0  0
   10.5929  -14.7453   22.4742 O   0  0  0  0  0  0  0  0  0  0  0  0
    9.2813  -16.3258   23.4762 N   0  0  0  0  0  0  0  0  0  0  0  0
   10.0839  -16.3099   24.6968 C   0  0  1  0  0  0  0  0  0  0  0  0
    9.8086  -14.9936   25.3678 C   0  0  0  0  0  0  0  0  0  0  0  0
    8.3948  -14.7426   25.6445 C   0  0  0  0  0  0  0  0  0  0  0  0
    7.3707  -15.6626   25.4908 C   0  0  0  0  0  0  0  0  0  0  0  0
    6.2188  -15.0657   25.8488 N   0  0  0  0  0  0  0  0  0  0  0  0
    6.4357  -13.7843   26.2347 C   0  0  0  0  0  0  0  0  0  0  0  0
    5.6277  -12.7603   26.6804 C   0  0  0  0  0  0  0  0  0  0  0  0
    6.1957  -11.5470   26.9917 C   0  0  0  0  0  0  0  0  0  0  0  0
    7.5507  -11.3154   26.8741 C   0  0  0  0  0  0  0  0  0  0  0  0
    8.3365  -12.3612   26.4247 C   0  0  0  0  0  0  0  0  0  0  0  0
    7.8083  -13.5948   26.1011 C   0  0  0  0  0  0  0  0  0  0  0  0
    9.6978  -17.4407   25.5840 C   0  0  0  0  0  0  0  0  0  0  0  0
    8.6272  -18.2618   25.3042 O   0  0  0  0  0  0  0  0  0  0  0  0
   10.3746  -17.6454   26.6177 O   0  0  0  0  0  0  0  0  0  0  0  0
  2  3  1  0
  2  1  1  1
  4  3  1  0
  5  2  1  0
  5  6  2  0
  7  5  1  0
  8  7  1  0
  9  8  1  0
 10  9  1  0
 10 11  1  0
 11  7  1  0
 12 13  2  0
 11 12  1  1
 14 12  1  0
 15 16  1  1
 15 14  1  0
 16 17  1  0
 17 18  2  0
 19 18  1  0
 20 19  1  0
 21 20  2  0
 22 21  1  0
 23 22  2  0
 23 24  1  0
 24 25  2  0
 25 20  1  0
 25 17  1  0
 26 15  1  0
 27 26  1  0
 28 26  2  0
M  END
$$$$
