AYF.pdb
     RDKit          3D

 29 30  0  0  1  0  0  0  0  0999 V2000
   28.9019  -18.6577  -14.5277 C   0  0  0  0  0  0  0  0  0  0  0  0
   27.5259  -19.2086  -14.7063 C   0  0  2  0  0  0  0  0  0  0  0  0
   26.7784  -18.3311  -15.5804 N   0  0  0  0  0  0  0  0  0  0  0  0
   26.7844  -19.3597  -13.4370 C   0  0  0  0  0  0  0  0  0  0  0  0
   26.2106  -18.3513  -12.9537 O   0  0  0  0  0  0  0  0  0  0  0  0
   20.4469  -19.6440  -14.7288 O   0  0  0  0  0  0  0  0  0  0  0  0
   21.5125  -20.1444  -13.9992 C   0  0  0  0  0  0  0  0  0  0  0  0
   21.5334  -19.9347  -12.6206 C   0  0  0  0  0  0  0  0  0  0  0  0
   22.6036  -20.4407  -11.9136 C   0  0  0  0  0  0  0  0  0  0  0  0
   23.6343  -21.1301  -12.4883 C   0  0  0  0  0  0  0  0  0  0  0  0
   24.7474  -21.6441  -11.6547 C   0  0  0  0  0  0  0  0  0  0  0  0
   25.8622  -20.6300  -11.5297 C   0  0  2  0  0  0  0  0  0  0  0  0
   26.6714  -20.5606  -12.7209 N   0  0  0  0  0  0  0  0  0  0  0  0
   26.7052  -20.8937  -10.3391 C   0  0  0  0  0  0  0  0  0  0  0  0
   27.5996  -21.7693  -10.4043 O   0  0  0  0  0  0  0  0  0  0  0  0
   23.5908  -21.3268  -13.8661 C   0  0  0  0  0  0  0  0  0  0  0  0
   22.5298  -20.8330  -14.6153 C   0  0  0  0  0  0  0  0  0  0  0  0
   26.4876  -20.1631   -9.1682 N   0  0  0  0  0  0  0  0  0  0  0  0
   27.0415  -20.5170   -7.8704 C   0  0  1  0  0  0  0  0  0  0  0  0
   27.7929  -19.3296   -7.3737 C   0  0  0  0  0  0  0  0  0  0  0  0
   28.3368  -19.5010   -6.0193 C   0  0  0  0  0  0  0  0  0  0  0  0
   27.7824  -18.7596   -4.9876 C   0  0  0  0  0  0  0  0  0  0  0  0
   28.2990  -18.9251   -3.7256 C   0  0  0  0  0  0  0  0  0  0  0  0
   29.3320  -19.7816   -3.4272 C   0  0  0  0  0  0  0  0  0  0  0  0
   29.8914  -20.5281   -4.4609 C   0  0  0  0  0  0  0  0  0  0  0  0
   29.3893  -20.3806   -5.7434 C   0  0  0  0  0  0  0  0  0  0  0  0
   26.0179  -21.0468   -6.9649 C   0  0  0  0  0  0  0  0  0  0  0  0
   24.6499  -20.8797   -7.1641 O   0  0  0  0  0  0  0  0  0  0  0  0
   26.3439  -21.6938   -5.9394 O   0  0  0  0  0  0  0  0  0  0  0  0
  2  1  1  1
  3  2  1  0
  4 13  1  0
  4  2  1  0
  5  4  2  0
  7  8  2  0
  7  6  1  0
  9  8  1  0
 10  9  2  0
 11 10  1  0
 12 11  1  6
 12 13  1  0
 14 18  1  0
 14 12  1  0
 15 14  2  0
 16 10  1  0
 16 17  2  0
 17  7  1  0
 19 18  1  0
 19 20  1  1
 21 26  1  0
 21 20  1  0
 22 21  2  0
 23 24  2  0
 23 22  1  0
 24 25  1  0
 25 26  2  0
 27 19  1  0
 28 27  1  0
 29 27  2  0
M  END
$$$$
