AYF.pdb
     RDKit          3D

 29 30  0  0  1  0  0  0  0  0999 V2000
   47.5917  -13.0613   -6.4983 C   0  0  0  0  0  0  0  0  0  0  0  0
   47.0186  -14.2340   -7.2230 C   0  0  2  0  0  0  0  0  0  0  0  0
   48.0812  -14.9137   -7.9312 N   0  0  0  0  0  0  0  0  0  0  0  0
   45.9616  -13.8682   -8.1887 C   0  0  0  0  0  0  0  0  0  0  0  0
   46.2865  -13.6667   -9.3860 O   0  0  0  0  0  0  0  0  0  0  0  0
   43.6539  -19.4697  -10.7100 O   0  0  0  0  0  0  0  0  0  0  0  0
   43.3487  -18.1884  -10.2818 C   0  0  0  0  0  0  0  0  0  0  0  0
   43.3874  -17.9155   -8.9147 C   0  0  0  0  0  0  0  0  0  0  0  0
   43.0796  -16.6337   -8.5102 C   0  0  0  0  0  0  0  0  0  0  0  0
   42.7420  -15.6273   -9.3710 C   0  0  0  0  0  0  0  0  0  0  0  0
   42.4276  -14.2741   -8.8535 C   0  0  0  0  0  0  0  0  0  0  0  0
   43.6420  -13.3733   -8.8792 C   0  0  2  0  0  0  0  0  0  0  0  0
   44.6040  -13.7269   -7.8652 N   0  0  0  0  0  0  0  0  0  0  0  0
   43.2614  -11.9452   -8.7641 C   0  0  0  0  0  0  0  0  0  0  0  0
   42.8669  -11.5042   -7.6593 O   0  0  0  0  0  0  0  0  0  0  0  0
   42.7105  -15.9243  -10.7310 C   0  0  0  0  0  0  0  0  0  0  0  0
   43.0141  -17.2037  -11.1803 C   0  0  0  0  0  0  0  0  0  0  0  0
   43.3489  -11.1186   -9.8871 N   0  0  0  0  0  0  0  0  0  0  0  0
   42.9579   -9.7174   -9.9017 C   0  0  1  0  0  0  0  0  0  0  0  0
   44.2105   -8.9104   -9.8730 C   0  0  0  0  0  0  0  0  0  0  0  0
   43.9843   -7.4661  -10.0237 C   0  0  0  0  0  0  0  0  0  0  0  0
   43.7597   -6.7115   -8.8828 C   0  0  0  0  0  0  0  0  0  0  0  0
   43.5471   -5.3629   -9.0340 C   0  0  0  0  0  0  0  0  0  0  0  0
   43.5442   -4.7196  -10.2489 C   0  0  0  0  0  0  0  0  0  0  0  0
   43.7697   -5.4741  -11.3970 C   0  0  0  0  0  0  0  0  0  0  0  0
   43.9869   -6.8365  -11.2732 C   0  0  0  0  0  0  0  0  0  0  0  0
   42.0335   -9.4189  -10.9994 C   0  0  0  0  0  0  0  0  0  0  0  0
   41.9637  -10.1639  -12.1737 O   0  0  0  0  0  0  0  0  0  0  0  0
   41.2417   -8.4475  -10.9227 O   0  0  0  0  0  0  0  0  0  0  0  0
  2  1  1  6
  3  2  1  0
  4 13  1  0
  4  2  1  0
  5  4  2  0
  7  8  2  0
  7  6  1  0
  9  8  1  0
 10  9  2  0
 11 10  1  0
 12 11  1  1
 12 13  1  0
 14 18  1  0
 14 12  1  0
 15 14  2  0
 16 10  1  0
 16 17  2  0
 17  7  1  0
 19 18  1  0
 19 20  1  6
 21 26  1  0
 21 20  1  0
 22 21  2  0
 23 24  2  0
 23 22  1  0
 24 25  1  0
 25 26  2  0
 27 19  1  0
 28 27  1  0
 29 27  2  0
M  END
$$$$
