AYF.pdb
     RDKit          3D

 29 30  0  0  1  0  0  0  0  0999 V2000
   27.2810  -16.9400  -14.3229 C   0  0  0  0  0  0  0  0  0  0  0  0
   26.7983  -18.2744  -14.7865 C   0  0  2  0  0  0  0  0  0  0  0  0
   25.7602  -18.0809  -15.7753 N   0  0  0  0  0  0  0  0  0  0  0  0
   26.2651  -19.1173  -13.6961 C   0  0  0  0  0  0  0  0  0  0  0  0
   25.1286  -18.8489  -13.2314 O   0  0  0  0  0  0  0  0  0  0  0  0
   22.4807  -23.3008  -16.6214 O   0  0  0  0  0  0  0  0  0  0  0  0
   23.4160  -23.0853  -15.6229 C   0  0  0  0  0  0  0  0  0  0  0  0
   23.0526  -23.3454  -14.3018 C   0  0  0  0  0  0  0  0  0  0  0  0
   23.9986  -23.1235  -13.3235 C   0  0  0  0  0  0  0  0  0  0  0  0
   25.2611  -22.6665  -13.5791 C   0  0  0  0  0  0  0  0  0  0  0  0
   26.2202  -22.4570  -12.4681 C   0  0  0  0  0  0  0  0  0  0  0  0
   26.3255  -20.9958  -12.0931 C   0  0  2  0  0  0  0  0  0  0  0  0
   26.9414  -20.2096  -13.1329 N   0  0  0  0  0  0  0  0  0  0  0  0
   27.0410  -20.8154  -10.8074 C   0  0  0  0  0  0  0  0  0  0  0  0
   28.2592  -21.1016  -10.7395 O   0  0  0  0  0  0  0  0  0  0  0  0
   25.6002  -22.4142  -14.9058 C   0  0  0  0  0  0  0  0  0  0  0  0
   24.6759  -22.6249  -15.9218 C   0  0  0  0  0  0  0  0  0  0  0  0
   26.3456  -20.3309   -9.6966 N   0  0  0  0  0  0  0  0  0  0  0  0
   26.7325  -20.5837   -8.3172 C   0  0  1  0  0  0  0  0  0  0  0  0
   27.6173  -19.4611   -7.8952 C   0  0  0  0  0  0  0  0  0  0  0  0
   28.1152  -19.5890   -6.5185 C   0  0  0  0  0  0  0  0  0  0  0  0
   27.6310  -18.7142   -5.5584 C   0  0  0  0  0  0  0  0  0  0  0  0
   28.1041  -18.8403   -4.2749 C   0  0  0  0  0  0  0  0  0  0  0  0
   29.0281  -19.7818   -3.8884 C   0  0  0  0  0  0  0  0  0  0  0  0
   29.5166  -20.6624   -4.8499 C   0  0  0  0  0  0  0  0  0  0  0  0
   29.0563  -20.5573   -6.1520 C   0  0  0  0  0  0  0  0  0  0  0  0
   25.5702  -20.8347   -7.4602 C   0  0  0  0  0  0  0  0  0  0  0  0
   25.6251  -21.5761   -6.2828 O   0  0  0  0  0  0  0  0  0  0  0  0
   24.4412  -20.3764   -7.7632 O   0  0  0  0  0  0  0  0  0  0  0  0
  2  1  1  1
  3  2  1  0
  4 13  1  0
  4  2  1  0
  5  4  2  0
  7  8  2  0
  7  6  1  0
  9  8  1  0
 10  9  2  0
 11 10  1  0
 12 11  1  6
 12 13  1  0
 14 18  1  0
 14 12  1  0
 15 14  2  0
 16 10  1  0
 16 17  2  0
 17  7  1  0
 19 18  1  0
 19 20  1  1
 21 26  1  0
 21 20  1  0
 22 21  2  0
 23 24  2  0
 23 22  1  0
 24 25  1  0
 25 26  2  0
 27 19  1  0
 28 27  1  0
 29 27  2  0
M  END
$$$$
