AYF.pdb
     RDKit          3D

 29 30  0  0  1  0  0  0  0  0999 V2000
   17.7823   -7.3762  -18.4398 C   0  0  0  0  0  0  0  0  0  0  0  0
   19.1986   -7.5091  -17.9868 C   0  0  2  0  0  0  0  0  0  0  0  0
   19.3681   -8.7949  -17.3458 N   0  0  0  0  0  0  0  0  0  0  0  0
   19.6158   -6.4495  -17.0450 C   0  0  0  0  0  0  0  0  0  0  0  0
   18.8980   -6.2255  -16.0379 O   0  0  0  0  0  0  0  0  0  0  0  0
   22.6750   -9.5886  -12.6929 O   0  0  0  0  0  0  0  0  0  0  0  0
   22.6173   -8.4146  -13.4255 C   0  0  0  0  0  0  0  0  0  0  0  0
   22.0070   -7.2999  -12.8513 C   0  0  0  0  0  0  0  0  0  0  0  0
   21.9600   -6.1417  -13.5981 C   0  0  0  0  0  0  0  0  0  0  0  0
   22.4753   -6.0310  -14.8591 C   0  0  0  0  0  0  0  0  0  0  0  0
   22.3858   -4.7465  -15.5939 C   0  0  0  0  0  0  0  0  0  0  0  0
   21.0444   -4.5877  -16.2739 C   0  0  2  0  0  0  0  0  0  0  0  0
   20.7686   -5.6641  -17.1925 N   0  0  0  0  0  0  0  0  0  0  0  0
   20.9333   -3.2762  -16.9559 C   0  0  0  0  0  0  0  0  0  0  0  0
   21.2529   -3.1859  -18.1644 O   0  0  0  0  0  0  0  0  0  0  0  0
   23.0797   -7.1576  -15.4108 C   0  0  0  0  0  0  0  0  0  0  0  0
   23.1481   -8.3444  -14.6913 C   0  0  0  0  0  0  0  0  0  0  0  0
   20.4753   -2.1668  -16.2406 N   0  0  0  0  0  0  0  0  0  0  0  0
   20.2902   -0.8438  -16.8166 C   0  0  1  0  0  0  0  0  0  0  0  0
   19.4177   -1.0032  -18.0144 C   0  0  0  0  0  0  0  0  0  0  0  0
   19.0915    0.2665  -18.6787 C   0  0  0  0  0  0  0  0  0  0  0  0
   17.7876    0.7314  -18.6080 C   0  0  0  0  0  0  0  0  0  0  0  0
   17.4920    1.9179  -19.2339 C   0  0  0  0  0  0  0  0  0  0  0  0
   18.4126    2.6693  -19.9249 C   0  0  0  0  0  0  0  0  0  0  0  0
   19.7234    2.2057  -19.9979 C   0  0  0  0  0  0  0  0  0  0  0  0
   20.0488    1.0118  -19.3756 C   0  0  0  0  0  0  0  0  0  0  0  0
   19.8310    0.1275  -15.8196 C   0  0  0  0  0  0  0  0  0  0  0  0
   20.3102    1.4322  -15.7353 O   0  0  0  0  0  0  0  0  0  0  0  0
   18.9586   -0.1880  -14.9735 O   0  0  0  0  0  0  0  0  0  0  0  0
  2  1  1  1
  3  2  1  0
  4 13  1  0
  4  2  1  0
  5  4  2  0
  7  8  2  0
  7  6  1  0
  9  8  1  0
 10  9  2  0
 11 10  1  0
 12 11  1  6
 12 13  1  0
 14 18  1  0
 14 12  1  0
 15 14  2  0
 16 10  1  0
 16 17  2  0
 17  7  1  0
 19 18  1  0
 19 20  1  6
 21 26  1  0
 21 20  1  0
 22 21  2  0
 23 24  2  0
 23 22  1  0
 24 25  1  0
 25 26  2  0
 27 19  1  0
 28 27  1  0
 29 27  2  0
M  END
$$$$
