AYF.pdb
     RDKit          3D

 29 30  0  0  1  0  0  0  0  0999 V2000
   20.8745  -12.4546  -20.8359 C   0  0  0  0  0  0  0  0  0  0  0  0
   21.5682  -11.7953  -19.6901 C   0  0  2  0  0  0  0  0  0  0  0  0
   22.4327  -12.7600  -19.0463 N   0  0  0  0  0  0  0  0  0  0  0  0
   20.6404  -11.2411  -18.6823 C   0  0  0  0  0  0  0  0  0  0  0  0
   19.6443  -10.5858  -19.0799 O   0  0  0  0  0  0  0  0  0  0  0  0
   15.7782  -15.4992  -17.9728 O   0  0  0  0  0  0  0  0  0  0  0  0
   16.6585  -14.6263  -17.3554 C   0  0  0  0  0  0  0  0  0  0  0  0
   16.1442  -13.4860  -16.7388 C   0  0  0  0  0  0  0  0  0  0  0  0
   17.0381  -12.6302  -16.1307 C   0  0  0  0  0  0  0  0  0  0  0  0
   18.3884  -12.8398  -16.1013 C   0  0  0  0  0  0  0  0  0  0  0  0
   19.2814  -11.8704  -15.4225 C   0  0  0  0  0  0  0  0  0  0  0  0
   19.8170  -10.8375  -16.3885 C   0  0  2  0  0  0  0  0  0  0  0  0
   20.7899  -11.3933  -17.2958 N   0  0  0  0  0  0  0  0  0  0  0  0
   20.3770   -9.6652  -15.6747 C   0  0  0  0  0  0  0  0  0  0  0  0
   21.5417   -9.7270  -15.2159 O   0  0  0  0  0  0  0  0  0  0  0  0
   18.8778  -13.9852  -16.7236 C   0  0  0  0  0  0  0  0  0  0  0  0
   18.0104  -14.8735  -17.3478 C   0  0  0  0  0  0  0  0  0  0  0  0
   19.5978   -8.5150  -15.5262 N   0  0  0  0  0  0  0  0  0  0  0  0
   20.0708   -7.2816  -14.9168 C   0  0  1  0  0  0  0  0  0  0  0  0
   21.2386   -6.8149  -15.7167 C   0  0  0  0  0  0  0  0  0  0  0  0
   21.6404   -5.4326  -15.4210 C   0  0  0  0  0  0  0  0  0  0  0  0
   22.1639   -5.1519  -14.1686 C   0  0  0  0  0  0  0  0  0  0  0  0
   22.5346   -3.8565  -13.9009 C   0  0  0  0  0  0  0  0  0  0  0  0
   22.4165   -2.8246  -14.8014 C   0  0  0  0  0  0  0  0  0  0  0  0
   21.8913   -3.1027  -16.0605 C   0  0  0  0  0  0  0  0  0  0  0  0
   21.5095   -4.4007  -16.3568 C   0  0  0  0  0  0  0  0  0  0  0  0
   18.9892   -6.3080  -14.7421 C   0  0  0  0  0  0  0  0  0  0  0  0
   18.0438   -6.0203  -15.7232 O   0  0  0  0  0  0  0  0  0  0  0  0
   18.8675   -5.6732  -13.6657 O   0  0  0  0  0  0  0  0  0  0  0  0
  2  1  1  6
  3  2  1  0
  4 13  1  0
  4  2  1  0
  5  4  2  0
  7  8  2  0
  7  6  1  0
  9  8  1  0
 10  9  2  0
 11 10  1  0
 12 11  1  1
 12 13  1  0
 14 18  1  0
 14 12  1  0
 15 14  2  0
 16 10  1  0
 16 17  2  0
 17  7  1  0
 19 18  1  0
 19 20  1  6
 21 26  1  0
 21 20  1  0
 22 21  2  0
 23 24  2  0
 23 22  1  0
 24 25  1  0
 25 26  2  0
 27 19  1  0
 28 27  1  0
 29 27  2  0
M  END
$$$$
