AYF.pdb
     RDKit          3D

 29 30  0  0  1  0  0  0  0  0999 V2000
   29.4467  -19.0269  -14.5379 C   0  0  0  0  0  0  0  0  0  0  0  0
   28.1549  -19.7032  -14.8580 C   0  0  2  0  0  0  0  0  0  0  0  0
   27.5928  -19.1033  -16.0484 N   0  0  0  0  0  0  0  0  0  0  0  0
   27.1611  -19.6174  -13.7677 C   0  0  0  0  0  0  0  0  0  0  0  0
   26.5246  -18.5438  -13.6192 O   0  0  0  0  0  0  0  0  0  0  0  0
   21.7608  -19.0539  -16.5623 O   0  0  0  0  0  0  0  0  0  0  0  0
   22.4681  -19.6288  -15.5195 C   0  0  0  0  0  0  0  0  0  0  0  0
   22.3139  -19.1002  -14.2382 C   0  0  0  0  0  0  0  0  0  0  0  0
   23.0277  -19.6872  -13.2148 C   0  0  0  0  0  0  0  0  0  0  0  0
   23.8699  -20.7493  -13.3896 C   0  0  0  0  0  0  0  0  0  0  0  0
   24.5990  -21.3241  -12.2338 C   0  0  0  0  0  0  0  0  0  0  0  0
   25.8264  -20.5101  -11.8905 C   0  0  2  0  0  0  0  0  0  0  0  0
   26.8707  -20.6584  -12.8734 N   0  0  0  0  0  0  0  0  0  0  0  0
   26.3327  -20.8360  -10.5359 C   0  0  0  0  0  0  0  0  0  0  0  0
   26.9405  -21.9168  -10.3533 O   0  0  0  0  0  0  0  0  0  0  0  0
   24.0071  -21.2594  -14.6780 C   0  0  0  0  0  0  0  0  0  0  0  0
   23.3053  -20.6967  -15.7372 C   0  0  0  0  0  0  0  0  0  0  0  0
   26.1233  -19.9344   -9.4893 N   0  0  0  0  0  0  0  0  0  0  0  0
   26.2724  -20.2691   -8.0814 C   0  0  1  0  0  0  0  0  0  0  0  0
   26.9505  -19.1162   -7.4241 C   0  0  0  0  0  0  0  0  0  0  0  0
   27.9131  -19.5123   -6.3867 C   0  0  0  0  0  0  0  0  0  0  0  0
   27.5266  -19.4194   -5.0588 C   0  0  0  0  0  0  0  0  0  0  0  0
   28.4341  -19.7899   -4.0964 C   0  0  0  0  0  0  0  0  0  0  0  0
   29.7008  -20.2464   -4.3734 C   0  0  0  0  0  0  0  0  0  0  0  0
   30.0925  -20.3413   -5.7061 C   0  0  0  0  0  0  0  0  0  0  0  0
   29.1969  -19.9742   -6.6969 C   0  0  0  0  0  0  0  0  0  0  0  0
   25.0022  -20.6870   -7.4810 C   0  0  0  0  0  0  0  0  0  0  0  0
   23.7622  -20.4904   -8.0833 O   0  0  0  0  0  0  0  0  0  0  0  0
   24.9803  -21.2576   -6.3628 O   0  0  0  0  0  0  0  0  0  0  0  0
  2  1  1  1
  3  2  1  0
  4 13  1  0
  4  2  1  0
  5  4  2  0
  7  8  2  0
  7  6  1  0
  9  8  1  0
 10  9  2  0
 11 10  1  0
 12 11  1  6
 12 13  1  0
 14 18  1  0
 14 12  1  0
 15 14  2  0
 16 10  1  0
 16 17  2  0
 17  7  1  0
 19 18  1  0
 19 20  1  1
 21 26  1  0
 21 20  1  0
 22 21  2  0
 23 24  2  0
 23 22  1  0
 24 25  1  0
 25 26  2  0
 27 19  1  0
 28 27  1  0
 29 27  2  0
M  END
$$$$
