AYF.pdb
     RDKit          3D

 29 30  0  0  1  0  0  0  0  0999 V2000
   26.2537   -6.7042  -20.9493 C   0  0  0  0  0  0  0  0  0  0  0  0
   26.2950   -6.2840  -19.5174 C   0  0  2  0  0  0  0  0  0  0  0  0
   27.6696   -6.0375  -19.1396 N   0  0  0  0  0  0  0  0  0  0  0  0
   25.7205   -7.2852  -18.5948 C   0  0  0  0  0  0  0  0  0  0  0  0
   26.4499   -8.2331  -18.2084 O   0  0  0  0  0  0  0  0  0  0  0  0
   21.1445   -2.9326  -14.9467 O   0  0  0  0  0  0  0  0  0  0  0  0
   21.8492   -4.1111  -15.1274 C   0  0  0  0  0  0  0  0  0  0  0  0
   23.1801   -4.0358  -15.5372 C   0  0  0  0  0  0  0  0  0  0  0  0
   23.8630   -5.2210  -15.7116 C   0  0  0  0  0  0  0  0  0  0  0  0
   23.3084   -6.4531  -15.5057 C   0  0  0  0  0  0  0  0  0  0  0  0
   24.1139   -7.6803  -15.7133 C   0  0  0  0  0  0  0  0  0  0  0  0
   23.9663   -8.2101  -17.1220 C   0  0  2  0  0  0  0  0  0  0  0  0
   24.4041   -7.2569  -18.1111 N   0  0  0  0  0  0  0  0  0  0  0  0
   22.5761   -8.6464  -17.3951 C   0  0  0  0  0  0  0  0  0  0  0  0
   21.8242   -7.9065  -18.0718 O   0  0  0  0  0  0  0  0  0  0  0  0
   21.9783   -6.5023  -15.0968 C   0  0  0  0  0  0  0  0  0  0  0  0
   21.2547   -5.3309  -14.9094 C   0  0  0  0  0  0  0  0  0  0  0  0
   22.1301   -9.8720  -16.8941 N   0  0  0  0  0  0  0  0  0  0  0  0
   20.7784  -10.3815  -17.0672 C   0  0  1  0  0  0  0  0  0  0  0  0
   20.7912  -11.8133  -16.6536 C   0  0  0  0  0  0  0  0  0  0  0  0
   19.4837  -12.4731  -16.7749 C   0  0  0  0  0  0  0  0  0  0  0  0
   18.7245  -12.6475  -15.6283 C   0  0  0  0  0  0  0  0  0  0  0  0
   17.5048  -13.2673  -15.7515 C   0  0  0  0  0  0  0  0  0  0  0  0
   16.9946  -13.7237  -16.9436 C   0  0  0  0  0  0  0  0  0  0  0  0
   17.7543  -13.5502  -18.0974 C   0  0  0  0  0  0  0  0  0  0  0  0
   18.9881  -12.9282  -18.0017 C   0  0  0  0  0  0  0  0  0  0  0  0
   19.7852   -9.5351  -16.3998 C   0  0  0  0  0  0  0  0  0  0  0  0
   19.9676   -8.9818  -15.1350 O   0  0  0  0  0  0  0  0  0  0  0  0
   18.6941   -9.2662  -16.9598 O   0  0  0  0  0  0  0  0  0  0  0  0
  2  1  1  6
  3  2  1  0
  4 13  1  0
  4  2  1  0
  5  4  2  0
  7  8  2  0
  7  6  1  0
  9  8  1  0
 10  9  2  0
 11 10  1  0
 12 11  1  1
 12 13  1  0
 14 18  1  0
 14 12  1  0
 15 14  2  0
 16 10  1  0
 16 17  2  0
 17  7  1  0
 19 18  1  0
 19 20  1  1
 21 26  1  0
 21 20  1  0
 22 21  2  0
 23 24  2  0
 23 22  1  0
 24 25  1  0
 25 26  2  0
 27 19  1  0
 28 27  1  0
 29 27  2  0
M  END
$$$$
