AYF.pdb
     RDKit          3D

 29 30  0  0  1  0  0  0  0  0999 V2000
   22.6669  -19.4022  -12.4520 C   0  0  0  0  0  0  0  0  0  0  0  0
   23.9397  -19.1001  -13.1714 C   0  0  2  0  0  0  0  0  0  0  0  0
   23.6636  -18.9853  -14.5868 N   0  0  0  0  0  0  0  0  0  0  0  0
   24.9845  -20.1261  -12.9724 C   0  0  0  0  0  0  0  0  0  0  0  0
   24.8036  -21.2693  -13.4623 O   0  0  0  0  0  0  0  0  0  0  0  0
   27.4541  -18.6984  -17.9885 O   0  0  0  0  0  0  0  0  0  0  0  0
   27.6811  -19.2392  -16.7339 C   0  0  0  0  0  0  0  0  0  0  0  0
   27.9938  -18.3774  -15.6831 C   0  0  0  0  0  0  0  0  0  0  0  0
   28.2166  -18.9368  -14.4426 C   0  0  0  0  0  0  0  0  0  0  0  0
   28.1473  -20.2787  -14.1924 C   0  0  0  0  0  0  0  0  0  0  0  0
   28.3982  -20.7991  -12.8271 C   0  0  0  0  0  0  0  0  0  0  0  0
   27.1085  -21.0006  -12.0635 C   0  0  2  0  0  0  0  0  0  0  0  0
   26.1795  -19.9172  -12.2682 N   0  0  0  0  0  0  0  0  0  0  0  0
   27.3603  -21.2079  -10.6175 C   0  0  0  0  0  0  0  0  0  0  0  0
   28.4915  -21.5960  -10.2427 O   0  0  0  0  0  0  0  0  0  0  0  0
   27.8333  -21.1188  -15.2575 C   0  0  0  0  0  0  0  0  0  0  0  0
   27.6014  -20.5951  -16.5236 C   0  0  0  0  0  0  0  0  0  0  0  0
   26.3339  -20.9678   -9.7004 N   0  0  0  0  0  0  0  0  0  0  0  0
   26.5149  -20.9572   -8.2569 C   0  0  1  0  0  0  0  0  0  0  0  0
   27.6684  -20.0599   -7.9644 C   0  0  0  0  0  0  0  0  0  0  0  0
   27.9246  -19.8790   -6.5286 C   0  0  0  0  0  0  0  0  0  0  0  0
   27.5437  -18.6850   -5.9364 C   0  0  0  0  0  0  0  0  0  0  0  0
   27.7893  -18.5244   -4.5945 C   0  0  0  0  0  0  0  0  0  0  0  0
   28.3899  -19.4773   -3.8065 C   0  0  0  0  0  0  0  0  0  0  0  0
   28.7737  -20.6780   -4.3977 C   0  0  0  0  0  0  0  0  0  0  0  0
   28.5377  -20.8663   -5.7495 C   0  0  0  0  0  0  0  0  0  0  0  0
   25.2691  -20.6427   -7.5517 C   0  0  0  0  0  0  0  0  0  0  0  0
   25.0140  -21.0120   -6.2335 O   0  0  0  0  0  0  0  0  0  0  0  0
   24.3516  -20.0069   -8.1265 O   0  0  0  0  0  0  0  0  0  0  0  0
  2  1  1  1
  3  2  1  0
  4 13  1  0
  4  2  1  0
  5  4  2  0
  7  8  2  0
  7  6  1  0
  9  8  1  0
 10  9  2  0
 11 10  1  0
 12 11  1  6
 12 13  1  0
 14 18  1  0
 14 12  1  0
 15 14  2  0
 16 10  1  0
 16 17  2  0
 17  7  1  0
 19 18  1  0
 19 20  1  6
 21 26  1  0
 21 20  1  0
 22 21  2  0
 23 24  2  0
 23 22  1  0
 24 25  1  0
 25 26  2  0
 27 19  1  0
 28 27  1  0
 29 27  2  0
M  END
$$$$
