AYF.pdb
     RDKit          3D

 29 30  0  0  1  0  0  0  0  0999 V2000
   35.2230  -27.0576  -18.6469 C   0  0  0  0  0  0  0  0  0  0  0  0
   35.3352  -28.4769  -19.0961 C   0  0  2  0  0  0  0  0  0  0  0  0
   35.9198  -28.5062  -20.4190 N   0  0  0  0  0  0  0  0  0  0  0  0
   34.0389  -29.1854  -19.1332 C   0  0  0  0  0  0  0  0  0  0  0  0
   33.4147  -29.2374  -20.2228 O   0  0  0  0  0  0  0  0  0  0  0  0
   35.2026  -35.0535  -21.4179 O   0  0  0  0  0  0  0  0  0  0  0  0
   34.5049  -34.2825  -20.5030 C   0  0  0  0  0  0  0  0  0  0  0  0
   33.1158  -34.2170  -20.6084 C   0  0  0  0  0  0  0  0  0  0  0  0
   32.4410  -33.4434  -19.6878 C   0  0  0  0  0  0  0  0  0  0  0  0
   33.0569  -32.7447  -18.6877 C   0  0  0  0  0  0  0  0  0  0  0  0
   32.2563  -31.9379  -17.7358 C   0  0  0  0  0  0  0  0  0  0  0  0
   32.1785  -30.4895  -18.1636 C   0  0  2  0  0  0  0  0  0  0  0  0
   33.4444  -29.8129  -18.0284 N   0  0  0  0  0  0  0  0  0  0  0  0
   31.1157  -29.7627  -17.4289 C   0  0  0  0  0  0  0  0  0  0  0  0
   31.3539  -29.3305  -16.2768 O   0  0  0  0  0  0  0  0  0  0  0  0
   34.4444  -32.8260  -18.6029 C   0  0  0  0  0  0  0  0  0  0  0  0
   35.1621  -33.5948  -19.5111 C   0  0  0  0  0  0  0  0  0  0  0  0
   29.8701  -29.5732  -18.0327 N   0  0  0  0  0  0  0  0  0  0  0  0
   28.7726  -28.8355  -17.4262 C   0  0  1  0  0  0  0  0  0  0  0  0
   28.5842  -27.5912  -18.2245 C   0  0  0  0  0  0  0  0  0  0  0  0
   27.4111  -26.8038  -17.8200 C   0  0  0  0  0  0  0  0  0  0  0  0
   27.5672  -25.8527  -16.8237 C   0  0  0  0  0  0  0  0  0  0  0  0
   26.4644  -25.1234  -16.4510 C   0  0  0  0  0  0  0  0  0  0  0  0
   25.2175  -25.2819  -17.0076 C   0  0  0  0  0  0  0  0  0  0  0  0
   25.0569  -26.2360  -18.0088 C   0  0  0  0  0  0  0  0  0  0  0  0
   26.1526  -26.9856  -18.4039 C   0  0  0  0  0  0  0  0  0  0  0  0
   27.5796  -29.6702  -17.2575 C   0  0  0  0  0  0  0  0  0  0  0  0
   26.7895  -29.6645  -16.1109 O   0  0  0  0  0  0  0  0  0  0  0  0
   27.2100  -30.4496  -18.1699 O   0  0  0  0  0  0  0  0  0  0  0  0
  2  1  1  6
  3  2  1  0
  4 13  1  0
  4  2  1  0
  5  4  2  0
  7  8  2  0
  7  6  1  0
  9  8  1  0
 10  9  2  0
 11 10  1  0
 12 11  1  1
 12 13  1  0
 14 18  1  0
 14 12  1  0
 15 14  2  0
 16 10  1  0
 16 17  2  0
 17  7  1  0
 19 18  1  0
 19 20  1  6
 21 26  1  0
 21 20  1  0
 22 21  2  0
 23 24  2  0
 23 22  1  0
 24 25  1  0
 25 26  2  0
 27 19  1  0
 28 27  1  0
 29 27  2  0
M  END
$$$$
