AYF.pdb
     RDKit          3D

 29 30  0  0  1  0  0  0  0  0999 V2000
   28.8249  -18.5443  -14.7510 C   0  0  0  0  0  0  0  0  0  0  0  0
   27.5420  -19.2965  -14.8817 C   0  0  2  0  0  0  0  0  0  0  0  0
   26.6967  -18.6204  -15.8415 N   0  0  0  0  0  0  0  0  0  0  0  0
   26.8049  -19.4264  -13.6075 C   0  0  0  0  0  0  0  0  0  0  0  0
   26.3090  -18.3924  -13.0932 O   0  0  0  0  0  0  0  0  0  0  0  0
   20.6666  -19.7837  -15.4149 O   0  0  0  0  0  0  0  0  0  0  0  0
   21.6305  -20.2326  -14.5274 C   0  0  0  0  0  0  0  0  0  0  0  0
   22.6402  -21.0670  -15.0060 C   0  0  0  0  0  0  0  0  0  0  0  0
   23.5892  -21.5027  -14.1055 C   0  0  0  0  0  0  0  0  0  0  0  0
   23.5912  -21.1626  -12.7818 C   0  0  0  0  0  0  0  0  0  0  0  0
   24.6516  -21.6726  -11.8798 C   0  0  0  0  0  0  0  0  0  0  0  0
   25.7860  -20.6824  -11.7403 C   0  0  2  0  0  0  0  0  0  0  0  0
   26.6146  -20.6337  -12.9191 N   0  0  0  0  0  0  0  0  0  0  0  0
   26.6048  -20.9608  -10.5363 C   0  0  0  0  0  0  0  0  0  0  0  0
   27.4412  -21.8936  -10.5673 O   0  0  0  0  0  0  0  0  0  0  0  0
   22.5729  -20.3284  -12.3279 C   0  0  0  0  0  0  0  0  0  0  0  0
   21.5971  -19.8670  -13.2030 C   0  0  0  0  0  0  0  0  0  0  0  0
   26.4294  -20.1801   -9.3910 N   0  0  0  0  0  0  0  0  0  0  0  0
   26.9586  -20.5234   -8.0800 C   0  0  1  0  0  0  0  0  0  0  0  0
   27.7835  -19.3696   -7.6223 C   0  0  0  0  0  0  0  0  0  0  0  0
   28.2896  -19.5150   -6.2503 C   0  0  0  0  0  0  0  0  0  0  0  0
   27.7392  -18.7201   -5.2569 C   0  0  0  0  0  0  0  0  0  0  0  0
   28.2203  -18.8617   -3.9781 C   0  0  0  0  0  0  0  0  0  0  0  0
   29.2142  -19.7441   -3.6272 C   0  0  0  0  0  0  0  0  0  0  0  0
   29.7695  -20.5443   -4.6221 C   0  0  0  0  0  0  0  0  0  0  0  0
   29.3027  -20.4219   -5.9205 C   0  0  0  0  0  0  0  0  0  0  0  0
   25.9026  -20.9555   -7.1599 C   0  0  0  0  0  0  0  0  0  0  0  0
   26.1280  -21.7748   -6.0567 O   0  0  0  0  0  0  0  0  0  0  0  0
   24.7135  -20.5927   -7.3350 O   0  0  0  0  0  0  0  0  0  0  0  0
  2  1  1  1
  3  2  1  0
  4 13  1  0
  4  2  1  0
  5  4  2  0
  7  8  2  0
  7  6  1  0
  9  8  1  0
 10  9  2  0
 11 10  1  0
 12 11  1  6
 12 13  1  0
 14 18  1  0
 14 12  1  0
 15 14  2  0
 16 10  1  0
 16 17  2  0
 17  7  1  0
 19 18  1  0
 19 20  1  1
 21 26  1  0
 21 20  1  0
 22 21  2  0
 23 24  2  0
 23 22  1  0
 24 25  1  0
 25 26  2  0
 27 19  1  0
 28 27  1  0
 29 27  2  0
M  END
$$$$
