AYF.pdb
     RDKit          3D

 29 30  0  0  1  0  0  0  0  0999 V2000
   30.0349  -18.5357  -14.3383 C   0  0  0  0  0  0  0  0  0  0  0  0
   28.7105  -18.8862  -14.9313 C   0  0  2  0  0  0  0  0  0  0  0  0
   28.3091  -17.8341  -15.8395 N   0  0  0  0  0  0  0  0  0  0  0  0
   27.6470  -19.0752  -13.9228 C   0  0  0  0  0  0  0  0  0  0  0  0
   26.9876  -18.0719  -13.5511 O   0  0  0  0  0  0  0  0  0  0  0  0
   20.3287  -20.3112  -10.0549 O   0  0  0  0  0  0  0  0  0  0  0  0
   21.5179  -20.5853  -10.7097 C   0  0  0  0  0  0  0  0  0  0  0  0
   21.8462  -19.8342  -11.8380 C   0  0  0  0  0  0  0  0  0  0  0  0
   23.0343  -20.1240  -12.4749 C   0  0  0  0  0  0  0  0  0  0  0  0
   23.8979  -21.0994  -12.0618 C   0  0  0  0  0  0  0  0  0  0  0  0
   25.1584  -21.3456  -12.8025 C   0  0  0  0  0  0  0  0  0  0  0  0
   26.2521  -20.3953  -12.3692 C   0  0  2  0  0  0  0  0  0  0  0  0
   27.3136  -20.3072  -13.3409 N   0  0  0  0  0  0  0  0  0  0  0  0
   26.7911  -20.7590  -11.0371 C   0  0  0  0  0  0  0  0  0  0  0  0
   27.7795  -21.5263  -10.9654 O   0  0  0  0  0  0  0  0  0  0  0  0
   23.5483  -21.8357  -10.9328 C   0  0  0  0  0  0  0  0  0  0  0  0
   22.3597  -21.5751  -10.2618 C   0  0  0  0  0  0  0  0  0  0  0  0
   26.1886  -20.2412   -9.8878 N   0  0  0  0  0  0  0  0  0  0  0  0
   26.6035  -20.5656   -8.5316 C   0  0  1  0  0  0  0  0  0  0  0  0
   27.7859  -19.7143   -8.2175 C   0  0  0  0  0  0  0  0  0  0  0  0
   28.2105  -19.7914   -6.8127 C   0  0  0  0  0  0  0  0  0  0  0  0
   27.7400  -18.8332   -5.9283 C   0  0  0  0  0  0  0  0  0  0  0  0
   28.1443  -18.9123   -4.6179 C   0  0  0  0  0  0  0  0  0  0  0  0
   28.9868  -19.8847   -4.1338 C   0  0  0  0  0  0  0  0  0  0  0  0
   29.4614  -20.8489   -5.0190 C   0  0  0  0  0  0  0  0  0  0  0  0
   29.0694  -20.7926   -6.3463 C   0  0  0  0  0  0  0  0  0  0  0  0
   25.4888  -20.4814   -7.5836 C   0  0  0  0  0  0  0  0  0  0  0  0
   24.3716  -19.6727   -7.7758 O   0  0  0  0  0  0  0  0  0  0  0  0
   25.4967  -21.1569   -6.5253 O   0  0  0  0  0  0  0  0  0  0  0  0
  2  1  1  1
  3  2  1  0
  4 13  1  0
  4  2  1  0
  5  4  2  0
  7  8  2  0
  7  6  1  0
  9  8  1  0
 10  9  2  0
 11 10  1  0
 12 11  1  6
 12 13  1  0
 14 18  1  0
 14 12  1  0
 15 14  2  0
 16 10  1  0
 16 17  2  0
 17  7  1  0
 19 18  1  0
 19 20  1  1
 21 26  1  0
 21 20  1  0
 22 21  2  0
 23 24  2  0
 23 22  1  0
 24 25  1  0
 25 26  2  0
 27 19  1  0
 28 27  1  0
 29 27  2  0
M  END
$$$$
