AYF.pdb
     RDKit          3D

 29 30  0  0  1  0  0  0  0  0999 V2000
   27.8682  -20.9545  -18.0033 C   0  0  0  0  0  0  0  0  0  0  0  0
   28.2591  -21.7579  -16.8073 C   0  0  2  0  0  0  0  0  0  0  0  0
   28.4987  -23.1244  -17.2172 N   0  0  0  0  0  0  0  0  0  0  0  0
   27.2388  -21.7541  -15.7383 C   0  0  0  0  0  0  0  0  0  0  0  0
   26.3196  -22.6101  -15.7833 O   0  0  0  0  0  0  0  0  0  0  0  0
   22.6789  -20.7896   -8.3343 O   0  0  0  0  0  0  0  0  0  0  0  0
   23.6300  -20.6540   -9.3319 C   0  0  0  0  0  0  0  0  0  0  0  0
   24.8512  -21.3106   -9.1824 C   0  0  0  0  0  0  0  0  0  0  0  0
   25.7839  -21.1616  -10.1869 C   0  0  0  0  0  0  0  0  0  0  0  0
   25.5754  -20.4113  -11.3101 C   0  0  0  0  0  0  0  0  0  0  0  0
   26.6310  -20.3053  -12.3457 C   0  0  0  0  0  0  0  0  0  0  0  0
   26.2031  -20.9530  -13.6436 C   0  0  2  0  0  0  0  0  0  0  0  0
   27.2187  -20.8545  -14.6622 N   0  0  0  0  0  0  0  0  0  0  0  0
   24.9182  -20.3968  -14.1302 C   0  0  0  0  0  0  0  0  0  0  0  0
   24.9196  -19.3129  -14.7594 O   0  0  0  0  0  0  0  0  0  0  0  0
   24.3483  -19.7655  -11.4367 C   0  0  0  0  0  0  0  0  0  0  0  0
   23.3810  -19.8899  -10.4468 C   0  0  0  0  0  0  0  0  0  0  0  0
   23.7310  -21.0893  -13.8788 N   0  0  0  0  0  0  0  0  0  0  0  0
   22.4197  -20.6534  -14.3336 C   0  0  1  0  0  0  0  0  0  0  0  0
   22.4142  -20.7517  -15.8207 C   0  0  0  0  0  0  0  0  0  0  0  0
   21.1389  -20.3534  -16.4327 C   0  0  0  0  0  0  0  0  0  0  0  0
   20.2260  -21.3445  -16.7581 C   0  0  0  0  0  0  0  0  0  0  0  0
   19.0377  -20.9625  -17.3318 C   0  0  0  0  0  0  0  0  0  0  0  0
   18.7022  -19.6569  -17.6013 C   0  0  0  0  0  0  0  0  0  0  0  0
   19.6165  -18.6587  -17.2757 C   0  0  0  0  0  0  0  0  0  0  0  0
   20.8227  -19.0162  -16.6961 C   0  0  0  0  0  0  0  0  0  0  0  0
   21.3380  -21.3633  -13.6449 C   0  0  0  0  0  0  0  0  0  0  0  0
   20.1406  -20.7630  -13.2641 O   0  0  0  0  0  0  0  0  0  0  0  0
   21.4511  -22.5812  -13.3612 O   0  0  0  0  0  0  0  0  0  0  0  0
  2  1  1  6
  3  2  1  0
  4 13  1  0
  4  2  1  0
  5  4  2  0
  7  8  2  0
  7  6  1  0
  9  8  1  0
 10  9  2  0
 11 10  1  0
 12 11  1  1
 12 13  1  0
 14 18  1  0
 14 12  1  0
 15 14  2  0
 16 10  1  0
 16 17  2  0
 17  7  1  0
 19 18  1  0
 19 20  1  6
 21 26  1  0
 21 20  1  0
 22 21  2  0
 23 24  2  0
 23 22  1  0
 24 25  1  0
 25 26  2  0
 27 19  1  0
 28 27  1  0
 29 27  2  0
M  END
$$$$
