AYF.pdb
     RDKit          3D

 29 30  0  0  1  0  0  0  0  0999 V2000
   19.0736  -12.7400    3.7575 C   0  0  0  0  0  0  0  0  0  0  0  0
   17.7154  -12.9754    4.3307 C   0  0  2  0  0  0  0  0  0  0  0  0
   17.1484  -11.7064    4.7319 N   0  0  0  0  0  0  0  0  0  0  0  0
   17.7191  -13.8841    5.4960 C   0  0  0  0  0  0  0  0  0  0  0  0
   17.8313  -13.3863    6.6446 O   0  0  0  0  0  0  0  0  0  0  0  0
   17.4305  -20.2228    1.8086 O   0  0  0  0  0  0  0  0  0  0  0  0
   17.2291  -19.5118    2.9800 C   0  0  0  0  0  0  0  0  0  0  0  0
   18.0364  -18.4034    3.2341 C   0  0  0  0  0  0  0  0  0  0  0  0
   17.8194  -17.7102    4.4062 C   0  0  0  0  0  0  0  0  0  0  0  0
   16.8637  -18.0500    5.3223 C   0  0  0  0  0  0  0  0  0  0  0  0
   16.6933  -17.2486    6.5579 C   0  0  0  0  0  0  0  0  0  0  0  0
   17.6636  -16.0898    6.6069 C   0  0  2  0  0  0  0  0  0  0  0  0
   17.6054  -15.2799    5.4155 N   0  0  0  0  0  0  0  0  0  0  0  0
   19.0494  -16.5522    6.8581 C   0  0  0  0  0  0  0  0  0  0  0  0
   19.8335  -16.6903    5.8901 O   0  0  0  0  0  0  0  0  0  0  0  0
   16.0702  -19.1603    5.0461 C   0  0  0  0  0  0  0  0  0  0  0  0
   16.2565  -19.8862    3.8759 C   0  0  0  0  0  0  0  0  0  0  0  0
   19.4556  -16.8255    8.1667 N   0  0  0  0  0  0  0  0  0  0  0  0
   20.8097  -17.2057    8.5386 C   0  0  1  0  0  0  0  0  0  0  0  0
   21.5755  -15.9465    8.7601 C   0  0  0  0  0  0  0  0  0  0  0  0
   22.9344  -16.1663    9.2747 C   0  0  0  0  0  0  0  0  0  0  0  0
   23.1838  -15.9003   10.6121 C   0  0  0  0  0  0  0  0  0  0  0  0
   24.4575  -16.1067   11.0833 C   0  0  0  0  0  0  0  0  0  0  0  0
   25.4971  -16.5608   10.3068 C   0  0  0  0  0  0  0  0  0  0  0  0
   25.2503  -16.8293    8.9631 C   0  0  0  0  0  0  0  0  0  0  0  0
   23.9746  -16.6298    8.4618 C   0  0  0  0  0  0  0  0  0  0  0  0
   20.8238  -18.1628    9.6487 C   0  0  0  0  0  0  0  0  0  0  0  0
   20.0275  -18.0391   10.7844 O   0  0  0  0  0  0  0  0  0  0  0  0
   21.5790  -19.1653    9.6194 O   0  0  0  0  0  0  0  0  0  0  0  0
  2  1  1  1
  3  2  1  0
  4 13  1  0
  4  2  1  0
  5  4  2  0
  7  8  2  0
  7  6  1  0
  9  8  1  0
 10  9  2  0
 11 10  1  0
 12 11  1  6
 12 13  1  0
 14 18  1  0
 14 12  1  0
 15 14  2  0
 16 10  1  0
 16 17  2  0
 17  7  1  0
 19 18  1  0
 19 20  1  1
 21 26  1  0
 21 20  1  0
 22 21  2  0
 23 24  2  0
 23 22  1  0
 24 25  1  0
 25 26  2  0
 27 19  1  0
 28 27  1  0
 29 27  2  0
M  END
$$$$
