IKD.pdb
     RDKit          3D

 26 25  0  0  1  0  0  0  0  0999 V2000
    7.9624  -12.0273   20.8519 C   0  0  0  0  0  0  0  0  0  0  0  0
    7.2370  -13.3061   21.2186 C   0  0  0  0  0  0  0  0  0  0  0  0
    7.7687  -14.4927   20.4381 C   0  0  2  0  0  0  0  0  0  0  0  0
    7.6256  -14.2135   18.9829 C   0  0  0  0  0  0  0  0  0  0  0  0
    7.0320  -15.7190   20.9093 C   0  0  2  0  0  0  0  0  0  0  0  0
    5.6439  -15.5846   20.6221 N   0  0  0  0  0  0  0  0  0  0  0  0
    7.2086  -15.9721   22.3548 C   0  0  0  0  0  0  0  0  0  0  0  0
    6.6534  -15.2011   23.1723 O   0  0  0  0  0  0  0  0  0  0  0  0
    7.9838  -17.0558   22.7985 N   0  0  0  0  0  0  0  0  0  0  0  0
    8.1949  -17.3543   24.2307 C   0  0  1  0  0  0  0  0  0  0  0  0
    7.3486  -18.5038   24.6323 C   0  0  0  0  0  0  0  0  0  0  0  0
    7.5041  -18.9246   26.0590 C   0  0  0  0  0  0  0  0  0  0  0  0
    6.6077  -20.0821   26.3603 C   0  0  0  0  0  0  0  0  0  0  0  0
    6.7804  -20.4481   27.8215 C   0  0  0  0  0  0  0  0  0  0  0  0
    5.7677  -21.3903   28.2050 N   0  0  0  0  0  0  0  0  0  0  0  0
    9.6553  -17.5627   24.3693 C   0  0  0  0  0  0  0  0  0  0  0  0
   10.2284  -18.2973   23.4840 O   0  0  0  0  0  0  0  0  0  0  0  0
   10.4682  -17.0217   25.3842 N   0  0  0  0  0  0  0  0  0  0  0  0
   11.8190  -17.6028   25.5729 C   0  0  1  0  0  0  0  0  0  0  0  0
   12.8412  -16.5030   25.4549 C   0  0  0  0  0  0  0  0  0  0  0  0
   13.1881  -16.2695   24.0554 C   0  0  0  0  0  0  0  0  0  0  0  0
   13.4111  -15.1237   23.6282 O   0  0  0  0  0  0  0  0  0  0  0  0
   11.8430  -18.1642   26.9564 C   0  0  0  0  0  0  0  0  0  0  0  0
   10.9285  -17.8252   27.7685 O   0  0  0  0  0  0  0  0  0  0  0  0
   13.2924  -17.3043   23.1110 O   0  0  0  0  0  0  0  0  0  0  0  0
   12.7956  -19.0247   27.3980 O   0  0  0  0  0  0  0  0  0  0  0  0
  1  2  1  0
  2  3  1  0
  3  4  1  6
  5  3  1  0
  5  6  1  1
  7  5  1  0
  8  7  2  0
  9  7  1  0
 10  9  1  0
 11 12  1  0
 10 11  1  6
 13 12  1  0
 13 14  1  0
 14 15  1  0
 16 10  1  0
 16 18  1  0
 17 16  2  0
 19 18  1  0
 19 20  1  1
 20 21  1  0
 21 22  2  0
 23 19  1  0
 24 23  2  0
 25 21  1  0
 26 23  1  0
M  END
$$$$
