IKD.pdb
     RDKit          3D

 26 25  0  0  1  0  0  0  0  0999 V2000
    8.8495  -12.4628   27.3769 C   0  0  0  0  0  0  0  0  0  0  0  0
    7.8978  -13.5534   26.9284 C   0  0  0  0  0  0  0  0  0  0  0  0
    7.1695  -13.1693   25.6547 C   0  0  2  0  0  0  0  0  0  0  0  0
    6.3652  -11.9434   25.9123 C   0  0  0  0  0  0  0  0  0  0  0  0
    6.3600  -14.3599   25.2123 C   0  0  2  0  0  0  0  0  0  0  0  0
    5.4578  -14.7378   26.2469 N   0  0  0  0  0  0  0  0  0  0  0  0
    7.2009  -15.5205   24.8506 C   0  0  0  0  0  0  0  0  0  0  0  0
    7.2280  -16.5072   25.6230 O   0  0  0  0  0  0  0  0  0  0  0  0
    7.9525  -15.5132   23.6643 N   0  0  0  0  0  0  0  0  0  0  0  0
    8.7558  -16.6716   23.2198 C   0  0  1  0  0  0  0  0  0  0  0  0
    8.8166  -16.6996   21.7384 C   0  0  0  0  0  0  0  0  0  0  0  0
    7.5722  -17.1936   21.0722 C   0  0  0  0  0  0  0  0  0  0  0  0
    7.7153  -17.1239   19.5860 C   0  0  0  0  0  0  0  0  0  0  0  0
    6.4561  -17.6919   18.9609 C   0  0  0  0  0  0  0  0  0  0  0  0
    6.5610  -17.6356   17.5304 N   0  0  0  0  0  0  0  0  0  0  0  0
   10.0607  -16.5211   23.9055 C   0  0  0  0  0  0  0  0  0  0  0  0
   10.1848  -15.5324   24.7172 O   0  0  0  0  0  0  0  0  0  0  0  0
   11.1730  -17.3702   23.7472 N   0  0  0  0  0  0  0  0  0  0  0  0
   11.8852  -17.8136   24.9695 C   0  0  1  0  0  0  0  0  0  0  0  0
   10.9365  -18.6176   25.8192 C   0  0  0  0  0  0  0  0  0  0  0  0
   11.0366  -18.2201   27.2211 C   0  0  0  0  0  0  0  0  0  0  0  0
   10.3984  -18.8134   28.1074 O   0  0  0  0  0  0  0  0  0  0  0  0
   13.0065  -18.6848   24.5072 C   0  0  0  0  0  0  0  0  0  0  0  0
   12.7440  -19.6624   23.7416 O   0  0  0  0  0  0  0  0  0  0  0  0
   11.8464  -17.1587   27.6585 O   0  0  0  0  0  0  0  0  0  0  0  0
   14.3019  -18.4880   24.8623 O   0  0  0  0  0  0  0  0  0  0  0  0
  1  2  1  0
  2  3  1  0
  3  4  1  1
  5  3  1  0
  5  6  1  1
  7  5  1  0
  8  7  2  0
  9  7  1  0
 10  9  1  0
 11 12  1  0
 10 11  1  6
 13 12  1  0
 13 14  1  0
 14 15  1  0
 16 10  1  0
 16 18  1  0
 17 16  2  0
 19 18  1  0
 19 20  1  1
 20 21  1  0
 21 22  2  0
 23 19  1  0
 24 23  2  0
 25 21  1  0
 26 23  1  0
M  END
$$$$
