IKD.pdb
     RDKit          3D

 26 25  0  0  1  0  0  0  0  0999 V2000
    8.1511  -12.5123   21.8898 C   0  0  0  0  0  0  0  0  0  0  0  0
    7.9421  -13.6672   20.9313 C   0  0  0  0  0  0  0  0  0  0  0  0
    8.7830  -13.5120   19.6788 C   0  0  2  0  0  0  0  0  0  0  0  0
    8.4024  -12.2437   18.9988 C   0  0  0  0  0  0  0  0  0  0  0  0
    8.5886  -14.7476   18.8397 C   0  0  2  0  0  0  0  0  0  0  0  0
    7.2254  -14.8469   18.4409 N   0  0  0  0  0  0  0  0  0  0  0  0
    8.9817  -15.9856   19.5452 C   0  0  0  0  0  0  0  0  0  0  0  0
    8.0983  -16.6422   20.1447 O   0  0  0  0  0  0  0  0  0  0  0  0
   10.3193  -16.4135   19.5410 N   0  0  0  0  0  0  0  0  0  0  0  0
   10.7464  -17.7075   20.1137 C   0  0  1  0  0  0  0  0  0  0  0  0
   11.4055  -18.5250   19.0667 C   0  0  0  0  0  0  0  0  0  0  0  0
   10.4660  -19.2007   18.1195 C   0  0  0  0  0  0  0  0  0  0  0  0
   11.2296  -19.9627   17.0849 C   0  0  0  0  0  0  0  0  0  0  0  0
   10.2342  -20.6563   16.1755 C   0  0  0  0  0  0  0  0  0  0  0  0
   10.9353  -21.3374   15.1243 N   0  0  0  0  0  0  0  0  0  0  0  0
   11.5994  -17.3528   21.2722 C   0  0  0  0  0  0  0  0  0  0  0  0
   12.1883  -16.2110   21.2379 O   0  0  0  0  0  0  0  0  0  0  0  0
   11.8159  -18.1572   22.4079 N   0  0  0  0  0  0  0  0  0  0  0  0
   12.5896  -17.5758   23.5309 C   0  0  1  0  0  0  0  0  0  0  0  0
   12.1217  -18.2021   24.8182 C   0  0  0  0  0  0  0  0  0  0  0  0
   10.9286  -17.5237   25.3179 C   0  0  0  0  0  0  0  0  0  0  0  0
   10.4554  -16.5347   24.7322 O   0  0  0  0  0  0  0  0  0  0  0  0
   14.0176  -17.9377   23.2864 C   0  0  0  0  0  0  0  0  0  0  0  0
   14.2758  -18.9883   22.6229 O   0  0  0  0  0  0  0  0  0  0  0  0
   10.2444  -17.9337   26.4743 O   0  0  0  0  0  0  0  0  0  0  0  0
   15.0640  -17.1997   23.7372 O   0  0  0  0  0  0  0  0  0  0  0  0
  1  2  1  0
  2  3  1  0
  3  4  1  6
  5  3  1  0
  5  6  1  1
  7  5  1  0
  8  7  2  0
  9  7  1  0
 10  9  1  0
 11 12  1  0
 10 11  1  6
 13 12  1  0
 13 14  1  0
 14 15  1  0
 16 10  1  0
 16 18  1  0
 17 16  2  0
 19 18  1  0
 19 20  1  1
 20 21  1  0
 21 22  2  0
 23 19  1  0
 24 23  2  0
 25 21  1  0
 26 23  1  0
M  END
$$$$
