IKD.pdb
     RDKit          3D

 26 25  0  0  1  0  0  0  0  0999 V2000
    7.7223  -11.8094   21.1956 C   0  0  0  0  0  0  0  0  0  0  0  0
    7.2132  -13.1676   20.7570 C   0  0  0  0  0  0  0  0  0  0  0  0
    8.3322  -14.1895   20.6949 C   0  0  2  0  0  0  0  0  0  0  0  0
    9.4201  -13.6583   19.8288 C   0  0  0  0  0  0  0  0  0  0  0  0
    7.7399  -15.4898   20.2186 C   0  0  2  0  0  0  0  0  0  0  0  0
    6.6518  -15.8579   21.0599 N   0  0  0  0  0  0  0  0  0  0  0  0
    8.7264  -16.5902   20.1878 C   0  0  0  0  0  0  0  0  0  0  0  0
    8.8350  -17.3286   21.1947 O   0  0  0  0  0  0  0  0  0  0  0  0
    9.5237  -16.8001   19.0509 N   0  0  0  0  0  0  0  0  0  0  0  0
   10.5513  -17.8602   18.9798 C   0  0  1  0  0  0  0  0  0  0  0  0
   10.9700  -18.0577   17.5711 C   0  0  0  0  0  0  0  0  0  0  0  0
   12.0142  -19.1096   17.3722 C   0  0  0  0  0  0  0  0  0  0  0  0
   12.3853  -19.2073   15.9276 C   0  0  0  0  0  0  0  0  0  0  0  0
   13.4669  -20.2604   15.7858 C   0  0  0  0  0  0  0  0  0  0  0  0
   13.8625  -20.3622   14.4097 N   0  0  0  0  0  0  0  0  0  0  0  0
   11.6225  -17.4206   19.9043 C   0  0  0  0  0  0  0  0  0  0  0  0
   11.8184  -16.1551   20.0138 O   0  0  0  0  0  0  0  0  0  0  0  0
   12.4399  -18.2697   20.6753 N   0  0  0  0  0  0  0  0  0  0  0  0
   13.4480  -17.6420   21.5627 C   0  0  1  0  0  0  0  0  0  0  0  0
   13.0138  -17.8214   22.9936 C   0  0  0  0  0  0  0  0  0  0  0  0
   14.0775  -17.4181   23.9097 C   0  0  0  0  0  0  0  0  0  0  0  0
   14.5723  -16.2788   23.8628 O   0  0  0  0  0  0  0  0  0  0  0  0
   14.7262  -18.3781   21.3298 C   0  0  0  0  0  0  0  0  0  0  0  0
   14.6903  -19.6414   21.2131 O   0  0  0  0  0  0  0  0  0  0  0  0
   14.6066  -18.2735   24.8905 O   0  0  0  0  0  0  0  0  0  0  0  0
   15.9346  -17.7670   21.2343 O   0  0  0  0  0  0  0  0  0  0  0  0
  1  2  1  0
  2  3  1  0
  3  4  1  6
  5  3  1  0
  5  6  1  1
  7  5  1  0
  8  7  2  0
  9  7  1  0
 10  9  1  0
 11 12  1  0
 10 11  1  6
 13 12  1  0
 13 14  1  0
 14 15  1  0
 16 10  1  0
 16 18  1  0
 17 16  2  0
 19 18  1  0
 19 20  1  1
 20 21  1  0
 21 22  2  0
 23 19  1  0
 24 23  2  0
 25 21  1  0
 26 23  1  0
M  END
$$$$
