IKD.pdb
     RDKit          3D

 26 25  0  0  1  0  0  0  0  0999 V2000
    7.0701  -11.7385   28.1528 C   0  0  0  0  0  0  0  0  0  0  0  0
    6.2798  -12.7408   27.3360 C   0  0  0  0  0  0  0  0  0  0  0  0
    7.1762  -13.5282   26.3998 C   0  0  2  0  0  0  0  0  0  0  0  0
    8.0037  -12.5742   25.6118 C   0  0  0  0  0  0  0  0  0  0  0  0
    6.2961  -14.4211   25.5651 C   0  0  2  0  0  0  0  0  0  0  0  0
    5.6933  -15.4101   26.3933 N   0  0  0  0  0  0  0  0  0  0  0  0
    7.0315  -15.0856   24.4686 C   0  0  0  0  0  0  0  0  0  0  0  0
    7.4068  -16.2708   24.6281 O   0  0  0  0  0  0  0  0  0  0  0  0
    7.3020  -14.3986   23.2739 N   0  0  0  0  0  0  0  0  0  0  0  0
    7.8481  -15.0667   22.0738 C   0  0  1  0  0  0  0  0  0  0  0  0
    7.6339  -14.2096   20.8828 C   0  0  0  0  0  0  0  0  0  0  0  0
    8.1967  -14.7577   19.6103 C   0  0  0  0  0  0  0  0  0  0  0  0
    7.8910  -13.8416   18.4695 C   0  0  0  0  0  0  0  0  0  0  0  0
    8.4093  -14.4806   17.1958 C   0  0  0  0  0  0  0  0  0  0  0  0
    8.1643  -13.6063   16.0841 N   0  0  0  0  0  0  0  0  0  0  0  0
    9.2642  -15.3526   22.4032 C   0  0  0  0  0  0  0  0  0  0  0  0
    9.9188  -14.4342   23.0196 O   0  0  0  0  0  0  0  0  0  0  0  0
    9.9515  -16.5446   22.1028 N   0  0  0  0  0  0  0  0  0  0  0  0
   11.3629  -16.6595   22.5416 C   0  0  1  0  0  0  0  0  0  0  0  0
   11.6346  -18.0883   22.9330 C   0  0  0  0  0  0  0  0  0  0  0  0
   11.0728  -18.3780   24.2497 C   0  0  0  0  0  0  0  0  0  0  0  0
   11.2566  -17.6135   25.2124 O   0  0  0  0  0  0  0  0  0  0  0  0
   12.1992  -16.2950   21.3594 C   0  0  0  0  0  0  0  0  0  0  0  0
   11.6256  -16.0901   20.2460 O   0  0  0  0  0  0  0  0  0  0  0  0
   10.2994  -19.5201   24.5161 O   0  0  0  0  0  0  0  0  0  0  0  0
   13.5499  -16.1688   21.4091 O   0  0  0  0  0  0  0  0  0  0  0  0
  1  2  1  0
  2  3  1  0
  3  4  1  6
  5  3  1  0
  5  6  1  1
  7  5  1  0
  8  7  2  0
  9  7  1  0
 10  9  1  0
 11 12  1  0
 10 11  1  6
 13 12  1  0
 13 14  1  0
 14 15  1  0
 16 10  1  0
 16 18  1  0
 17 16  2  0
 19 18  1  0
 19 20  1  6
 20 21  1  0
 21 22  2  0
 23 19  1  0
 24 23  2  0
 25 21  1  0
 26 23  1  0
M  END
$$$$
