IKD.pdb
     RDKit          3D

 26 25  0  0  1  0  0  0  0  0999 V2000
    6.3884  -11.4582   27.2651 C   0  0  0  0  0  0  0  0  0  0  0  0
    5.8172  -12.6281   26.4898 C   0  0  0  0  0  0  0  0  0  0  0  0
    6.9129  -13.4972   25.9032 C   0  0  2  0  0  0  0  0  0  0  0  0
    7.7819  -12.6547   25.0365 C   0  0  0  0  0  0  0  0  0  0  0  0
    6.2532  -14.6471   25.1883 C   0  0  2  0  0  0  0  0  0  0  0  0
    5.4345  -15.3723   26.1000 N   0  0  0  0  0  0  0  0  0  0  0  0
    7.2275  -15.5694   24.5680 C   0  0  0  0  0  0  0  0  0  0  0  0
    7.5988  -16.5762   25.2156 O   0  0  0  0  0  0  0  0  0  0  0  0
    7.7243  -15.3186   23.2786 N   0  0  0  0  0  0  0  0  0  0  0  0
    8.5380  -16.3000   22.5305 C   0  0  1  0  0  0  0  0  0  0  0  0
    8.4557  -16.0146   21.0777 C   0  0  0  0  0  0  0  0  0  0  0  0
    7.8687  -17.1186   20.2574 C   0  0  0  0  0  0  0  0  0  0  0  0
    7.2272  -16.5664   19.0255 C   0  0  0  0  0  0  0  0  0  0  0  0
    7.6480  -17.4225   17.8469 C   0  0  0  0  0  0  0  0  0  0  0  0
    7.0808  -16.8922   16.6396 N   0  0  0  0  0  0  0  0  0  0  0  0
    9.8942  -16.2045   23.1199 C   0  0  0  0  0  0  0  0  0  0  0  0
   10.2304  -15.0762   23.6354 O   0  0  0  0  0  0  0  0  0  0  0  0
   10.8427  -17.2445   23.1673 N   0  0  0  0  0  0  0  0  0  0  0  0
   12.0841  -17.0145   23.9444 C   0  0  1  0  0  0  0  0  0  0  0  0
   12.2826  -18.1664   24.8941 C   0  0  0  0  0  0  0  0  0  0  0  0
   13.5545  -18.0389   25.6008 C   0  0  0  0  0  0  0  0  0  0  0  0
   14.3007  -17.0622   25.4156 O   0  0  0  0  0  0  0  0  0  0  0  0
   13.1992  -16.9843   22.9517 C   0  0  0  0  0  0  0  0  0  0  0  0
   13.1564  -17.7770   21.9616 O   0  0  0  0  0  0  0  0  0  0  0  0
   14.0156  -18.9934   26.5226 O   0  0  0  0  0  0  0  0  0  0  0  0
   14.2650  -16.1492   23.0492 O   0  0  0  0  0  0  0  0  0  0  0  0
  1  2  1  0
  2  3  1  0
  3  4  1  6
  5  3  1  0
  5  6  1  1
  7  5  1  0
  8  7  2  0
  9  7  1  0
 10  9  1  0
 11 12  1  0
 10 11  1  6
 13 12  1  0
 13 14  1  0
 14 15  1  0
 16 10  1  0
 16 18  1  0
 17 16  2  0
 19 18  1  0
 19 20  1  1
 20 21  1  0
 21 22  2  0
 23 19  1  0
 24 23  2  0
 25 21  1  0
 26 23  1  0
M  END
$$$$
