IKD.pdb
     RDKit          3D

 26 25  0  0  1  0  0  0  0  0999 V2000
    6.5021  -12.0184   27.9500 C   0  0  0  0  0  0  0  0  0  0  0  0
    5.9337  -13.1507   27.1187 C   0  0  0  0  0  0  0  0  0  0  0  0
    6.9591  -13.6964   26.1436 C   0  0  2  0  0  0  0  0  0  0  0  0
    7.5022  -12.5692   25.3370 C   0  0  0  0  0  0  0  0  0  0  0  0
    6.2912  -14.7744   25.3311 C   0  0  2  0  0  0  0  0  0  0  0  0
    5.8648  -15.8274   26.1895 N   0  0  0  0  0  0  0  0  0  0  0  0
    7.1721  -15.3278   24.2810 C   0  0  0  0  0  0  0  0  0  0  0  0
    7.5554  -16.5168   24.3829 O   0  0  0  0  0  0  0  0  0  0  0  0
    7.5692  -14.5334   23.1931 N   0  0  0  0  0  0  0  0  0  0  0  0
    8.3307  -15.0715   22.0463 C   0  0  1  0  0  0  0  0  0  0  0  0
    8.3400  -14.0811   20.9427 C   0  0  0  0  0  0  0  0  0  0  0  0
    8.0639  -14.6531   19.5888 C   0  0  0  0  0  0  0  0  0  0  0  0
    8.3487  -13.6393   18.5281 C   0  0  0  0  0  0  0  0  0  0  0  0
    7.9574  -14.2316   17.1882 C   0  0  0  0  0  0  0  0  0  0  0  0
    8.1249  -13.2457   16.1584 N   0  0  0  0  0  0  0  0  0  0  0  0
    9.6614  -15.4198   22.5972 C   0  0  0  0  0  0  0  0  0  0  0  0
   10.1097  -14.6862   23.5526 O   0  0  0  0  0  0  0  0  0  0  0  0
   10.4734  -16.4871   22.1669 N   0  0  0  0  0  0  0  0  0  0  0  0
   11.6813  -16.8039   22.9659 C   0  0  1  0  0  0  0  0  0  0  0  0
   11.4734  -18.1262   23.6564 C   0  0  0  0  0  0  0  0  0  0  0  0
   12.7086  -18.5750   24.2936 C   0  0  0  0  0  0  0  0  0  0  0  0
   12.9753  -18.2724   25.4694 O   0  0  0  0  0  0  0  0  0  0  0  0
   12.8083  -16.9174   21.9928 C   0  0  0  0  0  0  0  0  0  0  0  0
   12.5413  -16.9667   20.7531 O   0  0  0  0  0  0  0  0  0  0  0  0
   13.6647  -19.3659   23.6349 O   0  0  0  0  0  0  0  0  0  0  0  0
   14.1133  -16.9705   22.3626 O   0  0  0  0  0  0  0  0  0  0  0  0
  1  2  1  0
  2  3  1  0
  3  4  1  6
  5  3  1  0
  5  6  1  1
  7  5  1  0
  8  7  2  0
  9  7  1  0
 10  9  1  0
 11 12  1  0
 10 11  1  6
 13 12  1  0
 13 14  1  0
 14 15  1  0
 16 10  1  0
 16 18  1  0
 17 16  2  0
 19 18  1  0
 19 20  1  6
 20 21  1  0
 21 22  2  0
 23 19  1  0
 24 23  2  0
 25 21  1  0
 26 23  1  0
M  END
$$$$
