IKD.pdb
     RDKit          3D

 26 25  0  0  1  0  0  0  0  0999 V2000
    6.9248  -11.1560   27.7145 C   0  0  0  0  0  0  0  0  0  0  0  0
    6.1450  -12.2186   26.9669 C   0  0  0  0  0  0  0  0  0  0  0  0
    7.0665  -13.1787   26.2395 C   0  0  2  0  0  0  0  0  0  0  0  0
    8.0215  -12.3930   25.4108 C   0  0  0  0  0  0  0  0  0  0  0  0
    6.2063  -14.1346   25.4552 C   0  0  2  0  0  0  0  0  0  0  0  0
    5.4529  -14.9465   26.3499 N   0  0  0  0  0  0  0  0  0  0  0  0
    6.9922  -15.0026   24.5531 C   0  0  0  0  0  0  0  0  0  0  0  0
    7.4226  -16.0943   24.9936 O   0  0  0  0  0  0  0  0  0  0  0  0
    7.2488  -14.6079   23.2300 N   0  0  0  0  0  0  0  0  0  0  0  0
    7.9824  -15.4593   22.2698 C   0  0  1  0  0  0  0  0  0  0  0  0
    8.0098  -14.8044   20.9397 C   0  0  0  0  0  0  0  0  0  0  0  0
    8.8496  -15.5024   19.9179 C   0  0  0  0  0  0  0  0  0  0  0  0
    8.1910  -16.7715   19.4825 C   0  0  0  0  0  0  0  0  0  0  0  0
    9.0995  -17.4584   18.4816 C   0  0  0  0  0  0  0  0  0  0  0  0
    8.5018  -18.6923   18.0563 N   0  0  0  0  0  0  0  0  0  0  0  0
    9.3077  -15.6874   22.8920 C   0  0  0  0  0  0  0  0  0  0  0  0
    9.8874  -14.6712   23.4239 O   0  0  0  0  0  0  0  0  0  0  0  0
    9.9829  -16.9218   22.9540 N   0  0  0  0  0  0  0  0  0  0  0  0
   11.2471  -16.9815   23.7261 C   0  0  1  0  0  0  0  0  0  0  0  0
   11.1930  -18.1659   24.6549 C   0  0  0  0  0  0  0  0  0  0  0  0
   12.4961  -18.3963   25.2731 C   0  0  0  0  0  0  0  0  0  0  0  0
   13.4278  -17.5849   25.1369 O   0  0  0  0  0  0  0  0  0  0  0  0
   12.3388  -17.1771   22.7262 C   0  0  0  0  0  0  0  0  0  0  0  0
   13.5441  -17.1049   23.1168 O   0  0  0  0  0  0  0  0  0  0  0  0
   12.7830  -19.5304   26.0510 O   0  0  0  0  0  0  0  0  0  0  0  0
   12.1127  -17.4306   21.4119 O   0  0  0  0  0  0  0  0  0  0  0  0
  1  2  1  0
  2  3  1  0
  3  4  1  6
  5  3  1  0
  5  6  1  1
  7  5  1  0
  8  7  2  0
  9  7  1  0
 10  9  1  0
 11 12  1  0
 10 11  1  6
 13 12  1  0
 13 14  1  0
 14 15  1  0
 16 10  1  0
 16 18  1  0
 17 16  2  0
 19 18  1  0
 19 20  1  1
 20 21  1  0
 21 22  2  0
 23 19  1  0
 24 23  2  0
 25 21  1  0
 26 23  1  0
M  END
$$$$
