IKD.pdb
     RDKit          3D

 26 25  0  0  1  0  0  0  0  0999 V2000
    7.1964  -11.9678   20.2426 C   0  0  0  0  0  0  0  0  0  0  0  0
    7.4394  -13.4635   20.2365 C   0  0  0  0  0  0  0  0  0  0  0  0
    8.8497  -13.7979   19.7898 C   0  0  2  0  0  0  0  0  0  0  0  0
    9.0600  -13.2577   18.4187 C   0  0  0  0  0  0  0  0  0  0  0  0
    9.0249  -15.2896   19.9019 C   0  0  2  0  0  0  0  0  0  0  0  0
    8.1069  -15.9469   19.0343 N   0  0  0  0  0  0  0  0  0  0  0  0
    8.8332  -15.7859   21.2809 C   0  0  0  0  0  0  0  0  0  0  0  0
    9.4019  -15.1831   22.2212 O   0  0  0  0  0  0  0  0  0  0  0  0
    8.0292  -16.9107   21.5276 N   0  0  0  0  0  0  0  0  0  0  0  0
    7.7667  -17.4224   22.8893 C   0  0  1  0  0  0  0  0  0  0  0  0
    6.5959  -18.3320   22.8649 C   0  0  0  0  0  0  0  0  0  0  0  0
    5.4959  -17.9086   21.9445 C   0  0  0  0  0  0  0  0  0  0  0  0
    4.3791  -18.9014   21.9776 C   0  0  0  0  0  0  0  0  0  0  0  0
    3.2575  -18.3833   21.0986 C   0  0  0  0  0  0  0  0  0  0  0  0
    2.1645  -19.3137   21.1142 N   0  0  0  0  0  0  0  0  0  0  0  0
    9.0421  -18.0414   23.3203 C   0  0  0  0  0  0  0  0  0  0  0  0
    9.5127  -18.9849   22.5854 O   0  0  0  0  0  0  0  0  0  0  0  0
    9.7835  -17.6815   24.4624 N   0  0  0  0  0  0  0  0  0  0  0  0
   10.8994  -18.5679   24.8712 C   0  0  1  0  0  0  0  0  0  0  0  0
   12.1554  -17.7449   24.9867 C   0  0  0  0  0  0  0  0  0  0  0  0
   12.5842  -17.2712   23.6733 C   0  0  0  0  0  0  0  0  0  0  0  0
   12.9253  -18.0656   22.7802 O   0  0  0  0  0  0  0  0  0  0  0  0
   10.5309  -19.1127   26.2118 C   0  0  0  0  0  0  0  0  0  0  0  0
    9.5015  -18.6537   26.7951 O   0  0  0  0  0  0  0  0  0  0  0  0
   12.6403  -15.9094   23.3330 O   0  0  0  0  0  0  0  0  0  0  0  0
   11.2407  -20.0800   26.8469 O   0  0  0  0  0  0  0  0  0  0  0  0
  1  2  1  0
  2  3  1  0
  3  4  1  6
  5  3  1  0
  5  6  1  6
  7  5  1  0
  8  7  2  0
  9  7  1  0
 10  9  1  0
 11 12  1  0
 10 11  1  6
 13 12  1  0
 13 14  1  0
 14 15  1  0
 16 10  1  0
 16 18  1  0
 17 16  2  0
 19 18  1  0
 19 20  1  1
 20 21  1  0
 21 22  2  0
 23 19  1  0
 24 23  2  0
 25 21  1  0
 26 23  1  0
M  END
$$$$
