IKD.pdb
     RDKit          3D

 26 25  0  0  1  0  0  0  0  0999 V2000
    8.4821  -12.5515   27.6559 C   0  0  0  0  0  0  0  0  0  0  0  0
    7.5920  -13.5855   26.9964 C   0  0  0  0  0  0  0  0  0  0  0  0
    7.0987  -13.1146   25.6418 C   0  0  2  0  0  0  0  0  0  0  0  0
    6.3476  -11.8418   25.8200 C   0  0  0  0  0  0  0  0  0  0  0  0
    6.2908  -14.2312   25.0344 C   0  0  2  0  0  0  0  0  0  0  0  0
    5.2464  -14.6076   25.9260 N   0  0  0  0  0  0  0  0  0  0  0  0
    7.1089  -15.4193   24.7123 C   0  0  0  0  0  0  0  0  0  0  0  0
    6.9200  -16.4737   25.3632 O   0  0  0  0  0  0  0  0  0  0  0  0
    8.0772  -15.3632   23.6967 N   0  0  0  0  0  0  0  0  0  0  0  0
    8.7875  -16.5615   23.2023 C   0  0  1  0  0  0  0  0  0  0  0  0
    9.2875  -16.3155   21.8282 C   0  0  0  0  0  0  0  0  0  0  0  0
    9.6737  -17.5483   21.0748 C   0  0  0  0  0  0  0  0  0  0  0  0
    9.8757  -17.2316   19.6281 C   0  0  0  0  0  0  0  0  0  0  0  0
   10.2362  -18.5159   18.9071 C   0  0  0  0  0  0  0  0  0  0  0  0
   11.4401  -19.0611   19.4672 N   0  0  0  0  0  0  0  0  0  0  0  0
    9.8313  -16.8363   24.2175 C   0  0  0  0  0  0  0  0  0  0  0  0
   10.4557  -15.8238   24.7041 O   0  0  0  0  0  0  0  0  0  0  0  0
   10.1937  -18.1100   24.6969 N   0  0  0  0  0  0  0  0  0  0  0  0
   11.2670  -18.1864   25.7168 C   0  0  1  0  0  0  0  0  0  0  0  0
   10.9819  -19.3452   26.6355 C   0  0  0  0  0  0  0  0  0  0  0  0
   11.0777  -18.9311   28.0329 C   0  0  0  0  0  0  0  0  0  0  0  0
   11.5014  -17.8050   28.3449 O   0  0  0  0  0  0  0  0  0  0  0  0
   12.5357  -18.4376   24.9704 C   0  0  0  0  0  0  0  0  0  0  0  0
   12.4844  -19.0854   23.8803 O   0  0  0  0  0  0  0  0  0  0  0  0
   10.7044  -19.7610   29.1032 O   0  0  0  0  0  0  0  0  0  0  0  0
   13.7513  -18.0081   25.3956 O   0  0  0  0  0  0  0  0  0  0  0  0
  1  2  1  0
  2  3  1  0
  3  4  1  1
  5  3  1  0
  5  6  1  1
  7  5  1  0
  8  7  2  0
  9  7  1  0
 10  9  1  0
 11 12  1  0
 10 11  1  6
 13 12  1  0
 13 14  1  0
 14 15  1  0
 16 10  1  0
 16 18  1  0
 17 16  2  0
 19 18  1  0
 19 20  1  1
 20 21  1  0
 21 22  2  0
 23 19  1  0
 24 23  2  0
 25 21  1  0
 26 23  1  0
M  END
$$$$
