IKD.pdb
     RDKit          3D

 26 25  0  0  1  0  0  0  0  0999 V2000
    6.6760  -11.7453   28.0892 C   0  0  0  0  0  0  0  0  0  0  0  0
    5.9610  -12.7762   27.2394 C   0  0  0  0  0  0  0  0  0  0  0  0
    6.9181  -13.4881   26.3028 C   0  0  2  0  0  0  0  0  0  0  0  0
    7.6669  -12.4700   25.5163 C   0  0  0  0  0  0  0  0  0  0  0  0
    6.1129  -14.4479   25.4667 C   0  0  2  0  0  0  0  0  0  0  0  0
    5.5483  -15.4540   26.3012 N   0  0  0  0  0  0  0  0  0  0  0  0
    6.9132  -15.0896   24.4025 C   0  0  0  0  0  0  0  0  0  0  0  0
    7.2761  -16.2792   24.5577 O   0  0  0  0  0  0  0  0  0  0  0  0
    7.2577  -14.3767   23.2425 N   0  0  0  0  0  0  0  0  0  0  0  0
    7.8803  -15.0181   22.0654 C   0  0  1  0  0  0  0  0  0  0  0  0
    7.7338  -14.1388   20.8804 C   0  0  0  0  0  0  0  0  0  0  0  0
    8.3544  -14.6709   19.6281 C   0  0  0  0  0  0  0  0  0  0  0  0
    8.1306  -13.7236   18.4938 C   0  0  0  0  0  0  0  0  0  0  0  0
    8.7723  -14.3106   17.2517 C   0  0  0  0  0  0  0  0  0  0  0  0
    8.6765  -13.3715   16.1704 N   0  0  0  0  0  0  0  0  0  0  0  0
    9.2753  -15.3033   22.4752 C   0  0  0  0  0  0  0  0  0  0  0  0
    9.8525  -14.4374   23.2295 O   0  0  0  0  0  0  0  0  0  0  0  0
   10.0199  -16.4425   22.1129 N   0  0  0  0  0  0  0  0  0  0  0  0
   11.3744  -16.5984   22.6951 C   0  0  1  0  0  0  0  0  0  0  0  0
   11.4208  -17.8838   23.4785 C   0  0  0  0  0  0  0  0  0  0  0  0
   12.7752  -18.1470   23.9578 C   0  0  0  0  0  0  0  0  0  0  0  0
   13.7128  -17.3724   23.7008 O   0  0  0  0  0  0  0  0  0  0  0  0
   12.3186  -16.6794   21.5411 C   0  0  0  0  0  0  0  0  0  0  0  0
   11.9065  -17.1779   20.4492 O   0  0  0  0  0  0  0  0  0  0  0  0
   13.1076  -19.2733   24.7289 O   0  0  0  0  0  0  0  0  0  0  0  0
   13.6039  -16.2456   21.5944 O   0  0  0  0  0  0  0  0  0  0  0  0
  1  2  1  0
  2  3  1  0
  3  4  1  6
  5  3  1  0
  5  6  1  1
  7  5  1  0
  8  7  2  0
  9  7  1  0
 10  9  1  0
 11 12  1  0
 10 11  1  6
 13 12  1  0
 13 14  1  0
 14 15  1  0
 16 10  1  0
 16 18  1  0
 17 16  2  0
 19 18  1  0
 19 20  1  6
 20 21  1  0
 21 22  2  0
 23 19  1  0
 24 23  2  0
 25 21  1  0
 26 23  1  0
M  END
$$$$
