IKD.pdb
     RDKit          3D

 26 25  0  0  1  0  0  0  0  0999 V2000
    7.3799  -12.4632   18.6793 C   0  0  0  0  0  0  0  0  0  0  0  0
    7.1212  -13.6697   19.5589 C   0  0  0  0  0  0  0  0  0  0  0  0
    8.1819  -13.8148   20.6331 C   0  0  2  0  0  0  0  0  0  0  0  0
    9.5139  -13.9361   19.9796 C   0  0  0  0  0  0  0  0  0  0  0  0
    7.8047  -14.9916   21.4943 C   0  0  2  0  0  0  0  0  0  0  0  0
    6.4483  -14.8672   21.9091 N   0  0  0  0  0  0  0  0  0  0  0  0
    8.6685  -15.1284   22.6859 C   0  0  0  0  0  0  0  0  0  0  0  0
    8.5153  -14.3240   23.6349 O   0  0  0  0  0  0  0  0  0  0  0  0
    9.6398  -16.1407   22.7489 N   0  0  0  0  0  0  0  0  0  0  0  0
   10.6157  -16.2444   23.8542 C   0  0  1  0  0  0  0  0  0  0  0  0
   10.2133  -17.3335   24.7765 C   0  0  0  0  0  0  0  0  0  0  0  0
   11.2464  -17.7046   25.7921 C   0  0  0  0  0  0  0  0  0  0  0  0
   10.8050  -18.9028   26.5690 C   0  0  0  0  0  0  0  0  0  0  0  0
   11.8640  -19.2101   27.6097 C   0  0  0  0  0  0  0  0  0  0  0  0
   12.7924  -20.1699   27.0833 N   0  0  0  0  0  0  0  0  0  0  0  0
   11.9289  -16.4263   23.1924 C   0  0  0  0  0  0  0  0  0  0  0  0
   12.0114  -17.3456   22.2980 O   0  0  0  0  0  0  0  0  0  0  0  0
   13.0912  -15.6760   23.4564 N   0  0  0  0  0  0  0  0  0  0  0  0
   14.3121  -15.9935   22.6776 C   0  0  1  0  0  0  0  0  0  0  0  0
   14.8688  -14.7162   22.1059 C   0  0  0  0  0  0  0  0  0  0  0  0
   16.0340  -14.9906   21.2690 C   0  0  0  0  0  0  0  0  0  0  0  0
   16.3777  -16.1551   21.0028 O   0  0  0  0  0  0  0  0  0  0  0  0
   15.2867  -16.5763   23.6473 C   0  0  0  0  0  0  0  0  0  0  0  0
   15.2061  -16.2420   24.8689 O   0  0  0  0  0  0  0  0  0  0  0  0
   16.8335  -13.9765   20.7159 O   0  0  0  0  0  0  0  0  0  0  0  0
   16.2620  -17.4516   23.2928 O   0  0  0  0  0  0  0  0  0  0  0  0
  1  2  1  0
  2  3  1  0
  3  4  1  6
  5  3  1  0
  5  6  1  1
  7  5  1  0
  8  7  2  0
  9  7  1  0
 10  9  1  0
 11 12  1  0
 10 11  1  1
 13 12  1  0
 13 14  1  0
 14 15  1  0
 16 10  1  0
 16 18  1  0
 17 16  2  0
 19 18  1  0
 19 20  1  1
 20 21  1  0
 21 22  2  0
 23 19  1  0
 24 23  2  0
 25 21  1  0
 26 23  1  0
M  END
$$$$
