IKD.pdb
     RDKit          3D

 26 25  0  0  1  0  0  0  0  0999 V2000
    7.2896  -12.2230   28.4052 C   0  0  0  0  0  0  0  0  0  0  0  0
    6.4584  -13.2455   27.6570 C   0  0  0  0  0  0  0  0  0  0  0  0
    7.1559  -13.7160   26.3951 C   0  0  2  0  0  0  0  0  0  0  0  0
    7.3712  -12.5458   25.5006 C   0  0  0  0  0  0  0  0  0  0  0  0
    6.3194  -14.8128   25.7903 C   0  0  2  0  0  0  0  0  0  0  0  0
    6.1966  -15.8880   26.7156 N   0  0  0  0  0  0  0  0  0  0  0  0
    6.8775  -15.3235   24.5205 C   0  0  0  0  0  0  0  0  0  0  0  0
    7.2971  -16.5039   24.4799 O   0  0  0  0  0  0  0  0  0  0  0  0
    6.9344  -14.4990   23.3850 N   0  0  0  0  0  0  0  0  0  0  0  0
    7.3958  -14.9842   22.0672 C   0  0  1  0  0  0  0  0  0  0  0  0
    7.0019  -14.0190   21.0126 C   0  0  0  0  0  0  0  0  0  0  0  0
    7.1946  -14.5107   19.6135 C   0  0  0  0  0  0  0  0  0  0  0  0
    8.3904  -13.8618   18.9945 C   0  0  0  0  0  0  0  0  0  0  0  0
    8.4779  -14.3094   17.5485 C   0  0  0  0  0  0  0  0  0  0  0  0
    9.6300  -13.7174   16.9299 N   0  0  0  0  0  0  0  0  0  0  0  0
    8.8544  -15.1932   22.2231 C   0  0  0  0  0  0  0  0  0  0  0  0
    9.5260  -14.2458   22.7738 O   0  0  0  0  0  0  0  0  0  0  0  0
    9.5656  -16.3414   21.8239 N   0  0  0  0  0  0  0  0  0  0  0  0
   11.0201  -16.3881   22.1068 C   0  0  1  0  0  0  0  0  0  0  0  0
   11.3591  -17.7373   22.6840 C   0  0  0  0  0  0  0  0  0  0  0  0
   11.7236  -17.6185   24.0934 C   0  0  0  0  0  0  0  0  0  0  0  0
   11.8176  -16.5083   24.6444 O   0  0  0  0  0  0  0  0  0  0  0  0
   11.7075  -16.2173   20.7922 C   0  0  0  0  0  0  0  0  0  0  0  0
   11.0540  -16.4437   19.7280 O   0  0  0  0  0  0  0  0  0  0  0  0
   11.9887  -18.7301   24.9105 O   0  0  0  0  0  0  0  0  0  0  0  0
   13.0027  -15.8297   20.6701 O   0  0  0  0  0  0  0  0  0  0  0  0
  1  2  1  0
  2  3  1  0
  3  4  1  6
  5  3  1  0
  5  6  1  1
  7  5  1  0
  8  7  2  0
  9  7  1  0
 10  9  1  0
 11 12  1  0
 10 11  1  6
 13 12  1  0
 13 14  1  0
 14 15  1  0
 16 10  1  0
 16 18  1  0
 17 16  2  0
 19 18  1  0
 19 20  1  6
 20 21  1  0
 21 22  2  0
 23 19  1  0
 24 23  2  0
 25 21  1  0
 26 23  1  0
M  END
$$$$
