IKD.pdb
     RDKit          3D

 26 25  0  0  1  0  0  0  0  0999 V2000
    6.9061  -11.9333   20.1347 C   0  0  0  0  0  0  0  0  0  0  0  0
    7.3533  -12.9466   19.1006 C   0  0  0  0  0  0  0  0  0  0  0  0
    8.7278  -13.5016   19.4212 C   0  0  2  0  0  0  0  0  0  0  0  0
    9.6975  -12.3742   19.4877 C   0  0  0  0  0  0  0  0  0  0  0  0
    9.0565  -14.5413   18.3821 C   0  0  2  0  0  0  0  0  0  0  0  0
    8.0088  -15.5034   18.3181 N   0  0  0  0  0  0  0  0  0  0  0  0
   10.3364  -15.2311   18.6483 C   0  0  0  0  0  0  0  0  0  0  0  0
   10.3253  -16.2682   19.3519 O   0  0  0  0  0  0  0  0  0  0  0  0
   11.5381  -14.7306   18.1212 N   0  0  0  0  0  0  0  0  0  0  0  0
   12.8241  -15.4494   18.2408 C   0  0  1  0  0  0  0  0  0  0  0  0
   13.7468  -15.0061   17.1681 C   0  0  0  0  0  0  0  0  0  0  0  0
   15.1101  -15.6183   17.2253 C   0  0  0  0  0  0  0  0  0  0  0  0
   15.9252  -15.1830   16.0505 C   0  0  0  0  0  0  0  0  0  0  0  0
   17.2409  -15.9362   16.0807 C   0  0  0  0  0  0  0  0  0  0  0  0
   18.1469  -15.3613   15.1273 N   0  0  0  0  0  0  0  0  0  0  0  0
   13.2856  -15.1851   19.6239 C   0  0  0  0  0  0  0  0  0  0  0  0
   13.0674  -14.0113   20.0996 O   0  0  0  0  0  0  0  0  0  0  0  0
   13.9378  -16.1106   20.4616 N   0  0  0  0  0  0  0  0  0  0  0  0
   14.1291  -15.7413   21.8846 C   0  0  1  0  0  0  0  0  0  0  0  0
   13.2590  -16.6270   22.7370 C   0  0  0  0  0  0  0  0  0  0  0  0
   13.4448  -16.3231   24.1535 C   0  0  0  0  0  0  0  0  0  0  0  0
   14.2063  -15.4132   24.5240 O   0  0  0  0  0  0  0  0  0  0  0  0
   15.5666  -16.0014   22.1944 C   0  0  0  0  0  0  0  0  0  0  0  0
   15.9551  -17.2026   22.3240 O   0  0  0  0  0  0  0  0  0  0  0  0
   12.7880  -17.0247   25.1782 O   0  0  0  0  0  0  0  0  0  0  0  0
   16.4891  -15.0171   22.3458 O   0  0  0  0  0  0  0  0  0  0  0  0
  1  2  1  0
  2  3  1  0
  3  4  1  6
  5  3  1  0
  5  6  1  1
  7  5  1  0
  8  7  2  0
  9  7  1  0
 10  9  1  0
 11 12  1  0
 10 11  1  6
 13 12  1  0
 13 14  1  0
 14 15  1  0
 16 10  1  0
 16 18  1  0
 17 16  2  0
 19 18  1  0
 19 20  1  1
 20 21  1  0
 21 22  2  0
 23 19  1  0
 24 23  2  0
 25 21  1  0
 26 23  1  0
M  END
$$$$
