IKD.pdb
     RDKit          3D

 26 25  0  0  1  0  0  0  0  0999 V2000
    6.5062  -10.5774   26.9458 C   0  0  0  0  0  0  0  0  0  0  0  0
    7.1998  -11.9245   26.9683 C   0  0  0  0  0  0  0  0  0  0  0  0
    6.5549  -12.9003   26.0029 C   0  0  2  0  0  0  0  0  0  0  0  0
    5.1222  -13.0649   26.3718 C   0  0  0  0  0  0  0  0  0  0  0  0
    7.3544  -14.1763   26.0380 C   0  0  2  0  0  0  0  0  0  0  0  0
    8.6803  -13.8996   26.4771 N   0  0  0  0  0  0  0  0  0  0  0  0
    7.4069  -14.8545   24.7258 C   0  0  0  0  0  0  0  0  0  0  0  0
    6.7214  -15.8901   24.5565 O   0  0  0  0  0  0  0  0  0  0  0  0
    8.2102  -14.3452   23.6925 N   0  0  0  0  0  0  0  0  0  0  0  0
    8.2690  -14.9590   22.3492 C   0  0  1  0  0  0  0  0  0  0  0  0
    8.1969  -13.9015   21.3121 C   0  0  0  0  0  0  0  0  0  0  0  0
    8.2635  -14.4025   19.9046 C   0  0  0  0  0  0  0  0  0  0  0  0
    8.1784  -13.2620   18.9423 C   0  0  0  0  0  0  0  0  0  0  0  0
    8.2281  -13.8240   17.5349 C   0  0  0  0  0  0  0  0  0  0  0  0
    8.3297  -12.7482   16.5900 N   0  0  0  0  0  0  0  0  0  0  0  0
    9.5125  -15.7647   22.3482 C   0  0  0  0  0  0  0  0  0  0  0  0
   10.6152  -15.1397   22.5612 O   0  0  0  0  0  0  0  0  0  0  0  0
    9.5885  -17.1553   22.1387 N   0  0  0  0  0  0  0  0  0  0  0  0
   10.9346  -17.7652   22.0202 C   0  0  1  0  0  0  0  0  0  0  0  0
   11.6338  -17.6597   23.3499 C   0  0  0  0  0  0  0  0  0  0  0  0
   13.0147  -17.2178   23.1728 C   0  0  0  0  0  0  0  0  0  0  0  0
   13.3246  -16.0173   23.2605 O   0  0  0  0  0  0  0  0  0  0  0  0
   10.7139  -19.2027   21.6816 C   0  0  0  0  0  0  0  0  0  0  0  0
   11.7227  -19.9363   21.4474 O   0  0  0  0  0  0  0  0  0  0  0  0
   14.0705  -18.1022   22.8958 O   0  0  0  0  0  0  0  0  0  0  0  0
    9.4846  -19.7742   21.6102 O   0  0  0  0  0  0  0  0  0  0  0  0
  1  2  1  0
  2  3  1  0
  3  4  1  1
  5  3  1  0
  5  6  1  6
  7  5  1  0
  8  7  2  0
  9  7  1  0
 10  9  1  0
 11 12  1  0
 10 11  1  6
 13 12  1  0
 13 14  1  0
 14 15  1  0
 16 10  1  0
 16 18  1  0
 17 16  2  0
 19 18  1  0
 19 20  1  1
 20 21  1  0
 21 22  2  0
 23 19  1  0
 24 23  2  0
 25 21  1  0
 26 23  1  0
M  END
$$$$
