KER.pdb
     RDKit          3D

 30 29  0  0  1  0  0  0  0  0999 V2000
    8.4849  -17.2290   17.8337 N   0  0  0  0  0  0  0  0  0  0  0  0
    9.6381  -16.4194   18.1050 C   0  0  1  0  0  0  0  0  0  0  0  0
    9.1609  -15.0226   18.4295 C   0  0  0  0  0  0  0  0  0  0  0  0
    8.0043  -14.6425   17.5766 C   0  0  0  0  0  0  0  0  0  0  0  0
    8.2888  -13.7491   16.4138 C   0  0  0  0  0  0  0  0  0  0  0  0
    7.0848  -13.2519   15.6935 C   0  0  0  0  0  0  0  0  0  0  0  0
    7.3501  -12.3761   14.6009 N   0  0  0  0  0  0  0  0  0  0  0  0
   10.4060  -17.0202   19.2144 C   0  0  0  0  0  0  0  0  0  0  0  0
    9.8634  -17.4058   20.2879 O   0  0  0  0  0  0  0  0  0  0  0  0
   11.8115  -17.1731   19.0740 N   0  0  0  0  0  0  0  0  0  0  0  0
   12.6527  -17.7326   20.1271 C   0  0  1  0  0  0  0  0  0  0  0  0
   13.9777  -18.0624   19.5238 C   0  0  0  0  0  0  0  0  0  0  0  0
   14.9903  -18.6622   20.4289 C   0  0  0  0  0  0  0  0  0  0  0  0
   16.2747  -19.0378   19.8338 C   0  0  0  0  0  0  0  0  0  0  0  0
   16.3318  -19.6588   18.7180 O   0  0  0  0  0  0  0  0  0  0  0  0
   12.6690  -16.9094   21.3397 C   0  0  0  0  0  0  0  0  0  0  0  0
   12.9528  -15.6668   21.2354 O   0  0  0  0  0  0  0  0  0  0  0  0
   17.5240  -18.7704   20.3929 O   0  0  0  0  0  0  0  0  0  0  0  0
    9.0497  -14.8769   28.0385 N   0  0  0  0  0  0  0  0  0  0  0  0
   10.2680  -14.9636   28.7788 C   0  0  0  0  0  0  0  0  0  0  0  0
   10.5232  -14.0093   29.5857 N   0  0  0  0  0  0  0  0  0  0  0  0
   11.0981  -16.0775   28.5780 N   0  0  0  0  0  0  0  0  0  0  0  0
   10.9013  -16.8771   27.3616 C   0  0  0  0  0  0  0  0  0  0  0  0
   11.6772  -16.2902   26.2153 C   0  0  0  0  0  0  0  0  0  0  0  0
   11.6500  -17.0264   24.9425 C   0  0  0  0  0  0  0  0  0  0  0  0
   12.4436  -16.5280   23.7909 C   0  0  2  0  0  0  0  0  0  0  0  0
   12.3837  -17.3993   22.6381 N   0  0  0  0  0  0  0  0  0  0  0  0
   13.8541  -16.2886   24.1295 C   0  0  0  0  0  0  0  0  0  0  0  0
   14.7316  -17.1692   23.9130 O   0  0  0  0  0  0  0  0  0  0  0  0
   14.2961  -15.1045   24.6976 O   0  0  0  0  0  0  0  0  0  0  0  0
  2  1  1  1
  2  3  1  0
  3  4  1  0
  4  5  1  0
  6  5  1  0
  7  6  1  0
  8  2  1  0
  8  9  2  0
 10  8  1  0
 11 16  1  0
 11 10  1  0
 11 12  1  6
 13 12  1  0
 14 18  1  0
 14 13  1  0
 15 14  2  0
 16 27  1  0
 17 16  2  0
 20 22  1  0
 20 19  1  0
 21 20  2  0
 23 22  1  0
 23 24  1  0
 25 24  1  0
 26 25  1  1
 26 28  1  0
 27 26  1  0
 28 29  2  0
 28 30  1  0
M  END
$$$$
