KER.pdb
     RDKit          3D

 30 29  0  0  1  0  0  0  0  0999 V2000
    8.9760  -24.1047   22.3909 N   0  0  0  0  0  0  0  0  0  0  0  0
    8.8556  -23.7974   23.7873 C   0  0  1  0  0  0  0  0  0  0  0  0
    7.9732  -24.8481   24.4211 C   0  0  0  0  0  0  0  0  0  0  0  0
    7.6645  -25.9372   23.4578 C   0  0  0  0  0  0  0  0  0  0  0  0
    6.8873  -27.1004   23.9815 C   0  0  0  0  0  0  0  0  0  0  0  0
    6.5264  -28.1250   22.9638 C   0  0  0  0  0  0  0  0  0  0  0  0
    5.7756  -29.2315   23.4567 N   0  0  0  0  0  0  0  0  0  0  0  0
   10.2009  -23.7557   24.3954 C   0  0  0  0  0  0  0  0  0  0  0  0
   11.0964  -24.6052   24.1270 O   0  0  0  0  0  0  0  0  0  0  0  0
   10.5056  -22.7209   25.3200 N   0  0  0  0  0  0  0  0  0  0  0  0
   11.8103  -22.5961   25.9617 C   0  0  1  0  0  0  0  0  0  0  0  0
   12.5701  -21.5302   25.2442 C   0  0  0  0  0  0  0  0  0  0  0  0
   12.0809  -20.1382   25.4094 C   0  0  0  0  0  0  0  0  0  0  0  0
   12.8239  -19.0852   24.7135 C   0  0  0  0  0  0  0  0  0  0  0  0
   13.8831  -18.5776   25.2179 O   0  0  0  0  0  0  0  0  0  0  0  0
   11.7176  -22.4698   27.4190 C   0  0  0  0  0  0  0  0  0  0  0  0
   10.6330  -22.0246   27.9298 O   0  0  0  0  0  0  0  0  0  0  0  0
   12.4748  -18.5436   23.4767 O   0  0  0  0  0  0  0  0  0  0  0  0
   16.6394  -24.8128   34.6099 N   0  0  0  0  0  0  0  0  0  0  0  0
   15.2768  -24.7389   35.0316 C   0  0  0  0  0  0  0  0  0  0  0  0
   14.9963  -25.2398   36.1707 N   0  0  0  0  0  0  0  0  0  0  0  0
   14.3426  -24.1279   34.1807 N   0  0  0  0  0  0  0  0  0  0  0  0
   14.6293  -24.1055   32.7402 C   0  0  0  0  0  0  0  0  0  0  0  0
   13.5321  -23.3958   31.9967 C   0  0  0  0  0  0  0  0  0  0  0  0
   13.6671  -23.3006   30.5353 C   0  0  0  0  0  0  0  0  0  0  0  0
   12.5992  -22.6409   29.7425 C   0  0  2  0  0  0  0  0  0  0  0  0
   12.7587  -22.8155   28.3156 N   0  0  0  0  0  0  0  0  0  0  0  0
   12.4766  -21.2047   30.0319 C   0  0  0  0  0  0  0  0  0  0  0  0
   12.8940  -20.3401   29.2130 O   0  0  0  0  0  0  0  0  0  0  0  0
   11.9077  -20.7233   31.2002 O   0  0  0  0  0  0  0  0  0  0  0  0
  2  1  1  6
  2  3  1  0
  3  4  1  0
  4  5  1  0
  6  5  1  0
  7  6  1  0
  8  2  1  0
  8  9  2  0
 10  8  1  0
 11 16  1  0
 11 10  1  0
 11 12  1  6
 13 12  1  0
 14 18  1  0
 14 13  1  0
 15 14  2  0
 16 27  1  0
 17 16  2  0
 20 22  1  0
 20 19  1  0
 21 20  2  0
 23 22  1  0
 23 24  1  0
 25 24  1  0
 26 25  1  1
 26 28  1  0
 27 26  1  0
 28 29  2  0
 28 30  1  0
M  END
$$$$
