KER.pdb
     RDKit          3D

 30 29  0  0  1  0  0  0  0  0999 V2000
    9.8846  -14.7550   17.6595 N   0  0  0  0  0  0  0  0  0  0  0  0
    9.1231  -14.2457   18.7639 C   0  0  1  0  0  0  0  0  0  0  0  0
    7.6954  -14.0657   18.3017 C   0  0  0  0  0  0  0  0  0  0  0  0
    7.6469  -13.5379   16.9129 C   0  0  0  0  0  0  0  0  0  0  0  0
    7.7062  -14.5412   15.8078 C   0  0  0  0  0  0  0  0  0  0  0  0
    7.5403  -13.9797   14.4392 C   0  0  0  0  0  0  0  0  0  0  0  0
    7.5766  -14.9357   13.3829 N   0  0  0  0  0  0  0  0  0  0  0  0
    9.2290  -15.1808   19.9021 C   0  0  0  0  0  0  0  0  0  0  0  0
    8.4873  -15.1000   20.9214 O   0  0  0  0  0  0  0  0  0  0  0  0
   10.2022  -16.2148   19.8541 N   0  0  0  0  0  0  0  0  0  0  0  0
   10.4473  -17.1194   20.9727 C   0  0  1  0  0  0  0  0  0  0  0  0
   11.6284  -17.9633   20.6250 C   0  0  0  0  0  0  0  0  0  0  0  0
   12.0285  -18.9904   21.6195 C   0  0  0  0  0  0  0  0  0  0  0  0
   13.1960  -19.8125   21.2936 C   0  0  0  0  0  0  0  0  0  0  0  0
   14.3825  -19.4058   21.5398 O   0  0  0  0  0  0  0  0  0  0  0  0
   10.4906  -16.4280   22.2643 C   0  0  0  0  0  0  0  0  0  0  0  0
   11.4717  -15.6454   22.5101 O   0  0  0  0  0  0  0  0  0  0  0  0
   13.1454  -21.0760   20.7053 O   0  0  0  0  0  0  0  0  0  0  0  0
    4.3726  -12.1935   26.9257 N   0  0  0  0  0  0  0  0  0  0  0  0
    5.6415  -11.7362   27.3956 C   0  0  0  0  0  0  0  0  0  0  0  0
    5.6582  -10.6308   28.0318 N   0  0  0  0  0  0  0  0  0  0  0  0
    6.7766  -12.5194   27.1341 N   0  0  0  0  0  0  0  0  0  0  0  0
    6.8152  -13.2858   25.8816 C   0  0  0  0  0  0  0  0  0  0  0  0
    8.1058  -14.0492   25.7719 C   0  0  0  0  0  0  0  0  0  0  0  0
    8.2802  -14.9016   24.5862 C   0  0  0  0  0  0  0  0  0  0  0  0
    9.5158  -15.7119   24.4419 C   0  0  2  0  0  0  0  0  0  0  0  0
    9.5052  -16.5638   23.2732 N   0  0  0  0  0  0  0  0  0  0  0  0
    9.7999  -16.5369   25.6253 C   0  0  0  0  0  0  0  0  0  0  0  0
    9.6378  -17.7880   25.5979 O   0  0  0  0  0  0  0  0  0  0  0  0
   10.2524  -15.9999   26.8199 O   0  0  0  0  0  0  0  0  0  0  0  0
  2  1  1  6
  2  3  1  0
  3  4  1  0
  4  5  1  0
  6  5  1  0
  7  6  1  0
  8  2  1  0
  8  9  2  0
 10  8  1  0
 11 16  1  0
 11 10  1  0
 11 12  1  6
 13 12  1  0
 14 18  1  0
 14 13  1  0
 15 14  2  0
 16 27  1  0
 17 16  2  0
 20 22  1  0
 20 19  1  0
 21 20  2  0
 23 22  1  0
 23 24  1  0
 25 24  1  0
 26 25  1  1
 26 28  1  0
 27 26  1  0
 28 29  2  0
 28 30  1  0
M  END
$$$$
