KER.pdb
     RDKit          3D

 30 29  0  0  1  0  0  0  0  0999 V2000
    4.4152  -20.6758   20.4866 N   0  0  0  0  0  0  0  0  0  0  0  0
    4.6668  -19.7985   21.5938 C   0  0  1  0  0  0  0  0  0  0  0  0
    3.6747  -20.1293   22.6850 C   0  0  0  0  0  0  0  0  0  0  0  0
    2.2855  -20.1434   22.1565 C   0  0  0  0  0  0  0  0  0  0  0  0
    1.1845  -20.2749   23.1574 C   0  0  0  0  0  0  0  0  0  0  0  0
   -0.1839  -20.0378   22.6218 C   0  0  0  0  0  0  0  0  0  0  0  0
   -1.2487  -20.3728   23.5080 N   0  0  0  0  0  0  0  0  0  0  0  0
    6.0650  -19.9643   22.0398 C   0  0  0  0  0  0  0  0  0  0  0  0
    6.5023  -21.0467   22.5221 O   0  0  0  0  0  0  0  0  0  0  0  0
    6.9583  -18.8656   21.9240 N   0  0  0  0  0  0  0  0  0  0  0  0
    8.3362  -18.9162   22.4021 C   0  0  1  0  0  0  0  0  0  0  0  0
    9.1404  -17.9708   21.5727 C   0  0  0  0  0  0  0  0  0  0  0  0
   10.1581  -18.5731   20.6750 C   0  0  0  0  0  0  0  0  0  0  0  0
   10.9474  -17.6534   19.8528 C   0  0  0  0  0  0  0  0  0  0  0  0
   10.6154  -17.3917   18.6465 O   0  0  0  0  0  0  0  0  0  0  0  0
    8.4396  -18.7664   23.8564 C   0  0  0  0  0  0  0  0  0  0  0  0
    7.8373  -17.7880   24.4180 O   0  0  0  0  0  0  0  0  0  0  0  0
   12.0980  -16.9886   20.2762 O   0  0  0  0  0  0  0  0  0  0  0  0
    9.8031  -23.2042   31.0205 N   0  0  0  0  0  0  0  0  0  0  0  0
   10.4518  -21.9658   31.3128 C   0  0  0  0  0  0  0  0  0  0  0  0
   10.3116  -21.5045   32.4937 N   0  0  0  0  0  0  0  0  0  0  0  0
   11.1944  -21.3409   30.2988 N   0  0  0  0  0  0  0  0  0  0  0  0
   10.8481  -21.6397   28.9029 C   0  0  0  0  0  0  0  0  0  0  0  0
   10.2346  -20.4356   28.2440 C   0  0  0  0  0  0  0  0  0  0  0  0
    9.7231  -20.6092   26.8761 C   0  0  0  0  0  0  0  0  0  0  0  0
    9.2214  -19.4301   26.1265 C   0  0  2  0  0  0  0  0  0  0  0  0
    9.1668  -19.6447   24.6972 N   0  0  0  0  0  0  0  0  0  0  0  0
    9.9988  -18.2107   26.3918 C   0  0  0  0  0  0  0  0  0  0  0  0
    9.8097  -17.5366   27.4417 O   0  0  0  0  0  0  0  0  0  0  0  0
   10.9663  -17.7366   25.5206 O   0  0  0  0  0  0  0  0  0  0  0  0
  2  1  1  6
  2  3  1  0
  3  4  1  0
  4  5  1  0
  6  5  1  0
  7  6  1  0
  8  2  1  0
  8  9  2  0
 10  8  1  0
 11 16  1  0
 11 10  1  0
 11 12  1  6
 13 12  1  0
 14 18  1  0
 14 13  1  0
 15 14  2  0
 16 27  1  0
 17 16  2  0
 20 22  1  0
 20 19  1  0
 21 20  2  0
 23 22  1  0
 23 24  1  0
 25 24  1  0
 26 25  1  1
 26 28  1  0
 27 26  1  0
 28 29  2  0
 28 30  1  0
M  END
$$$$
