KER.pdb
     RDKit          3D

 30 29  0  0  1  0  0  0  0  0999 V2000
    5.9039  -18.1851   18.5282 N   0  0  0  0  0  0  0  0  0  0  0  0
    7.0226  -17.2866   18.5239 C   0  0  1  0  0  0  0  0  0  0  0  0
    6.5260  -15.9222   18.9436 C   0  0  0  0  0  0  0  0  0  0  0  0
    7.3571  -14.8448   18.3452 C   0  0  0  0  0  0  0  0  0  0  0  0
    7.7011  -13.6898   19.2277 C   0  0  0  0  0  0  0  0  0  0  0  0
    8.4465  -12.5881   18.5595 C   0  0  0  0  0  0  0  0  0  0  0  0
    8.7368  -11.4637   19.3858 N   0  0  0  0  0  0  0  0  0  0  0  0
    8.0678  -17.8046   19.4298 C   0  0  0  0  0  0  0  0  0  0  0  0
    7.8294  -18.1389   20.6244 O   0  0  0  0  0  0  0  0  0  0  0  0
    9.3965  -17.9343   18.9435 N   0  0  0  0  0  0  0  0  0  0  0  0
   10.5114  -18.3380   19.7941 C   0  0  1  0  0  0  0  0  0  0  0  0
   11.6193  -18.7962   18.9048 C   0  0  0  0  0  0  0  0  0  0  0  0
   12.8659  -19.2474   19.5732 C   0  0  0  0  0  0  0  0  0  0  0  0
   13.9455  -19.7317   18.7100 C   0  0  0  0  0  0  0  0  0  0  0  0
   15.0609  -20.1201   19.1986 O   0  0  0  0  0  0  0  0  0  0  0  0
   10.8516  -17.3301   20.8023 C   0  0  0  0  0  0  0  0  0  0  0  0
   10.8912  -16.1004   20.4535 O   0  0  0  0  0  0  0  0  0  0  0  0
   13.8792  -19.8204   17.3198 O   0  0  0  0  0  0  0  0  0  0  0  0
   10.7846  -16.4791   29.8896 N   0  0  0  0  0  0  0  0  0  0  0  0
   10.3894  -15.3050   29.1789 C   0  0  0  0  0  0  0  0  0  0  0  0
    9.6548  -14.4705   29.8042 N   0  0  0  0  0  0  0  0  0  0  0  0
   10.8274  -15.1418   27.8554 N   0  0  0  0  0  0  0  0  0  0  0  0
   10.5534  -16.2212   26.8975 C   0  0  0  0  0  0  0  0  0  0  0  0
   11.1103  -15.8770   25.5440 C   0  0  0  0  0  0  0  0  0  0  0  0
   10.8445  -16.8240   24.4506 C   0  0  0  0  0  0  0  0  0  0  0  0
   11.4193  -16.5698   23.1056 C   0  0  2  0  0  0  0  0  0  0  0  0
   11.1396  -17.6258   22.1577 N   0  0  0  0  0  0  0  0  0  0  0  0
   12.8706  -16.3368   23.1387 C   0  0  0  0  0  0  0  0  0  0  0  0
   13.6837  -17.2795   22.9325 O   0  0  0  0  0  0  0  0  0  0  0  0
   13.4223  -15.0918   23.3952 O   0  0  0  0  0  0  0  0  0  0  0  0
  2  1  1  1
  2  3  1  0
  3  4  1  0
  4  5  1  0
  6  5  1  0
  7  6  1  0
  8  2  1  0
  8  9  2  0
 10  8  1  0
 11 16  1  0
 11 10  1  0
 11 12  1  6
 13 12  1  0
 14 18  1  0
 14 13  1  0
 15 14  2  0
 16 27  1  0
 17 16  2  0
 20 22  1  0
 20 19  1  0
 21 20  2  0
 23 22  1  0
 23 24  1  0
 25 24  1  0
 26 25  1  1
 26 28  1  0
 27 26  1  0
 28 29  2  0
 28 30  1  0
M  END
$$$$
