KER.pdb
     RDKit          3D

 30 29  0  0  1  0  0  0  0  0999 V2000
    7.7013  -19.2955   17.3916 N   0  0  0  0  0  0  0  0  0  0  0  0
    7.1478  -19.2689   18.7152 C   0  0  1  0  0  0  0  0  0  0  0  0
    7.3567  -20.6314   19.3351 C   0  0  0  0  0  0  0  0  0  0  0  0
    6.2408  -21.5509   18.9904 C   0  0  0  0  0  0  0  0  0  0  0  0
    4.8553  -21.0575   19.2520 C   0  0  0  0  0  0  0  0  0  0  0  0
    3.7708  -22.0183   18.9109 C   0  0  0  0  0  0  0  0  0  0  0  0
    3.7337  -22.4322   17.5476 N   0  0  0  0  0  0  0  0  0  0  0  0
    7.7966  -18.1945   19.4938 C   0  0  0  0  0  0  0  0  0  0  0  0
    8.7654  -18.4095   20.2752 O   0  0  0  0  0  0  0  0  0  0  0  0
    7.3161  -16.8639   19.3623 N   0  0  0  0  0  0  0  0  0  0  0  0
    7.8791  -15.7449   20.1108 C   0  0  1  0  0  0  0  0  0  0  0  0
    7.2303  -14.4947   19.6166 C   0  0  0  0  0  0  0  0  0  0  0  0
    7.6594  -13.2249   20.2550 C   0  0  0  0  0  0  0  0  0  0  0  0
    8.8543  -12.5769   19.7098 C   0  0  0  0  0  0  0  0  0  0  0  0
    9.4489  -13.0432   18.6788 O   0  0  0  0  0  0  0  0  0  0  0  0
    7.8642  -15.9648   21.5598 C   0  0  0  0  0  0  0  0  0  0  0  0
    6.7921  -16.3998   22.1046 O   0  0  0  0  0  0  0  0  0  0  0  0
    9.4498  -11.4285   20.2308 O   0  0  0  0  0  0  0  0  0  0  0  0
   12.0269  -19.3117   29.6734 N   0  0  0  0  0  0  0  0  0  0  0  0
   12.0293  -19.1580   28.2535 C   0  0  0  0  0  0  0  0  0  0  0  0
   12.8301  -19.8995   27.5931 N   0  0  0  0  0  0  0  0  0  0  0  0
   11.1627  -18.2154   27.6785 N   0  0  0  0  0  0  0  0  0  0  0  0
   11.1760  -18.0636   26.2175 C   0  0  0  0  0  0  0  0  0  0  0  0
   10.0643  -17.1542   25.7732 C   0  0  0  0  0  0  0  0  0  0  0  0
    9.9533  -16.8882   24.3310 C   0  0  0  0  0  0  0  0  0  0  0  0
    8.8839  -15.9872   23.8324 C   0  0  2  0  0  0  0  0  0  0  0  0
    8.9717  -15.7304   22.4118 N   0  0  0  0  0  0  0  0  0  0  0  0
    8.8425  -14.7009   24.5434 C   0  0  0  0  0  0  0  0  0  0  0  0
    9.2794  -13.6472   24.0037 O   0  0  0  0  0  0  0  0  0  0  0  0
    8.3326  -14.5712   25.8252 O   0  0  0  0  0  0  0  0  0  0  0  0
  2  1  1  6
  2  3  1  0
  3  4  1  0
  4  5  1  0
  6  5  1  0
  7  6  1  0
  8  2  1  0
  8  9  2  0
 10  8  1  0
 11 16  1  0
 11 10  1  0
 11 12  1  1
 13 12  1  0
 14 18  1  0
 14 13  1  0
 15 14  2  0
 16 27  1  0
 17 16  2  0
 20 22  1  0
 20 19  1  0
 21 20  2  0
 23 22  1  0
 23 24  1  0
 25 24  1  0
 26 25  1  1
 26 28  1  0
 27 26  1  0
 28 29  2  0
 28 30  1  0
M  END
$$$$
