KER.pdb
     RDKit          3D

 30 29  0  0  1  0  0  0  0  0999 V2000
    7.4739  -20.2818   18.5410 N   0  0  0  0  0  0  0  0  0  0  0  0
    6.7342  -19.1116   18.9184 C   0  0  1  0  0  0  0  0  0  0  0  0
    5.4627  -19.0809   18.1019 C   0  0  0  0  0  0  0  0  0  0  0  0
    5.5418  -20.0243   16.9559 C   0  0  0  0  0  0  0  0  0  0  0  0
    5.0848  -19.5130   15.6289 C   0  0  0  0  0  0  0  0  0  0  0  0
    5.0475  -20.5297   14.5422 C   0  0  0  0  0  0  0  0  0  0  0  0
    4.5940  -20.0509   13.2788 N   0  0  0  0  0  0  0  0  0  0  0  0
    6.4660  -19.1512   20.3702 C   0  0  0  0  0  0  0  0  0  0  0  0
    5.6824  -18.3410   20.9405 O   0  0  0  0  0  0  0  0  0  0  0  0
    7.1123  -20.1380   21.1621 N   0  0  0  0  0  0  0  0  0  0  0  0
    6.9767  -20.1968   22.6139 C   0  0  1  0  0  0  0  0  0  0  0  0
    6.9423  -21.6357   23.0096 C   0  0  0  0  0  0  0  0  0  0  0  0
    5.6601  -22.3537   22.7980 C   0  0  0  0  0  0  0  0  0  0  0  0
    5.6421  -23.7862   23.1023 C   0  0  0  0  0  0  0  0  0  0  0  0
    5.6045  -24.6610   22.1710 O   0  0  0  0  0  0  0  0  0  0  0  0
    7.9459  -19.3463   23.3106 C   0  0  0  0  0  0  0  0  0  0  0  0
    9.1617  -19.3473   22.9139 O   0  0  0  0  0  0  0  0  0  0  0  0
    5.6643  -24.3318   24.3856 O   0  0  0  0  0  0  0  0  0  0  0  0
   11.2163  -14.0788   29.6966 N   0  0  0  0  0  0  0  0  0  0  0  0
   10.3226  -13.7967   28.6188 C   0  0  0  0  0  0  0  0  0  0  0  0
   10.7579  -13.0382   27.6903 N   0  0  0  0  0  0  0  0  0  0  0  0
    9.0388  -14.3636   28.6449 N   0  0  0  0  0  0  0  0  0  0  0  0
    8.3458  -14.5672   27.3658 C   0  0  0  0  0  0  0  0  0  0  0  0
    8.9759  -15.6976   26.6006 C   0  0  0  0  0  0  0  0  0  0  0  0
    8.0705  -16.5994   25.8726 C   0  0  0  0  0  0  0  0  0  0  0  0
    8.6369  -17.6856   25.0340 C   0  0  2  0  0  0  0  0  0  0  0  0
    7.6255  -18.5070   24.4062 N   0  0  0  0  0  0  0  0  0  0  0  0
    9.5606  -18.5573   25.7747 C   0  0  0  0  0  0  0  0  0  0  0  0
    9.1334  -19.5491   26.4276 O   0  0  0  0  0  0  0  0  0  0  0  0
   10.9296  -18.3450   25.8015 O   0  0  0  0  0  0  0  0  0  0  0  0
  2  1  1  6
  2  3  1  0
  3  4  1  0
  4  5  1  0
  6  5  1  0
  7  6  1  0
  8  2  1  0
  8  9  2  0
 10  8  1  0
 11 16  1  0
 11 10  1  0
 11 12  1  1
 13 12  1  0
 14 18  1  0
 14 13  1  0
 15 14  2  0
 16 27  1  0
 17 16  2  0
 20 22  1  0
 20 19  1  0
 21 20  2  0
 23 22  1  0
 23 24  1  0
 25 24  1  0
 26 25  1  1
 26 28  1  0
 27 26  1  0
 28 29  2  0
 28 30  1  0
M  END
$$$$
