KER.pdb
     RDKit          3D

 30 29  0  0  1  0  0  0  0  0999 V2000
    8.1307  -14.8965   17.3530 N   0  0  0  0  0  0  0  0  0  0  0  0
    9.0763  -13.9813   17.9248 C   0  0  1  0  0  0  0  0  0  0  0  0
    8.3522  -13.1475   18.9567 C   0  0  0  0  0  0  0  0  0  0  0  0
    8.1534  -13.9118   20.2160 C   0  0  0  0  0  0  0  0  0  0  0  0
    7.3546  -13.2473   21.2892 C   0  0  0  0  0  0  0  0  0  0  0  0
    7.1981  -14.0404   22.5390 C   0  0  0  0  0  0  0  0  0  0  0  0
    6.4461  -13.4058   23.5700 N   0  0  0  0  0  0  0  0  0  0  0  0
   10.1999  -14.7419   18.5084 C   0  0  0  0  0  0  0  0  0  0  0  0
   10.0503  -15.8782   19.0393 O   0  0  0  0  0  0  0  0  0  0  0  0
   11.5034  -14.1777   18.4738 N   0  0  0  0  0  0  0  0  0  0  0  0
   12.6494  -14.8003   19.1285 C   0  0  1  0  0  0  0  0  0  0  0  0
   13.8856  -14.2805   18.4728 C   0  0  0  0  0  0  0  0  0  0  0  0
   15.1801  -14.7729   19.0076 C   0  0  0  0  0  0  0  0  0  0  0  0
   16.3916  -14.3761   18.2867 C   0  0  0  0  0  0  0  0  0  0  0  0
   16.7654  -13.1546   18.2410 O   0  0  0  0  0  0  0  0  0  0  0  0
   12.5906  -14.7052   20.5899 C   0  0  0  0  0  0  0  0  0  0  0  0
   11.8430  -13.8123   21.1183 O   0  0  0  0  0  0  0  0  0  0  0  0
   17.2363  -15.2485   17.6010 O   0  0  0  0  0  0  0  0  0  0  0  0
    7.2773  -18.6219   26.8582 N   0  0  0  0  0  0  0  0  0  0  0  0
    7.7484  -18.3049   25.5477 C   0  0  0  0  0  0  0  0  0  0  0  0
    6.9666  -18.5646   24.5739 N   0  0  0  0  0  0  0  0  0  0  0  0
    9.0236  -17.7342   25.4122 N   0  0  0  0  0  0  0  0  0  0  0  0
    9.4336  -17.2635   24.0825 C   0  0  0  0  0  0  0  0  0  0  0  0
   10.8521  -16.7664   24.1150 C   0  0  0  0  0  0  0  0  0  0  0  0
   11.4376  -16.3303   22.8383 C   0  0  0  0  0  0  0  0  0  0  0  0
   12.8278  -15.8100   22.8098 C   0  0  2  0  0  0  0  0  0  0  0  0
   13.3108  -15.5482   21.4719 N   0  0  0  0  0  0  0  0  0  0  0  0
   13.7834  -16.6947   23.4924 C   0  0  0  0  0  0  0  0  0  0  0  0
   14.6962  -17.2828   22.8494 O   0  0  0  0  0  0  0  0  0  0  0  0
   13.7389  -16.9326   24.8568 O   0  0  0  0  0  0  0  0  0  0  0  0
  2  1  1  1
  2  3  1  0
  3  4  1  0
  4  5  1  0
  6  5  1  0
  7  6  1  0
  8  2  1  0
  8  9  2  0
 10  8  1  0
 11 16  1  0
 11 10  1  0
 11 12  1  6
 13 12  1  0
 14 18  1  0
 14 13  1  0
 15 14  2  0
 16 27  1  0
 17 16  2  0
 20 22  1  0
 20 19  1  0
 21 20  2  0
 23 22  1  0
 23 24  1  0
 25 24  1  0
 26 25  1  6
 26 28  1  0
 27 26  1  0
 28 29  2  0
 28 30  1  0
M  END
$$$$
