KER.pdb
     RDKit          3D

 30 29  0  0  1  0  0  0  0  0999 V2000
    5.8276  -20.5524   19.3077 N   0  0  0  0  0  0  0  0  0  0  0  0
    5.9662  -19.4261   20.1858 C   0  0  1  0  0  0  0  0  0  0  0  0
    4.9257  -19.5534   21.2746 C   0  0  0  0  0  0  0  0  0  0  0  0
    4.9401  -20.9155   21.8694 C   0  0  0  0  0  0  0  0  0  0  0  0
    3.9562  -21.1852   22.9606 C   0  0  0  0  0  0  0  0  0  0  0  0
    4.0437  -22.5429   23.5647 C   0  0  0  0  0  0  0  0  0  0  0  0
    3.1586  -22.7792   24.6564 N   0  0  0  0  0  0  0  0  0  0  0  0
    7.3404  -19.3949   20.7261 C   0  0  0  0  0  0  0  0  0  0  0  0
    7.9014  -20.4132   21.2200 O   0  0  0  0  0  0  0  0  0  0  0  0
    8.0651  -18.1733   20.6916 N   0  0  0  0  0  0  0  0  0  0  0  0
    9.4315  -18.0530   21.1896 C   0  0  1  0  0  0  0  0  0  0  0  0
   10.1401  -17.0534   20.3371 C   0  0  0  0  0  0  0  0  0  0  0  0
   11.5228  -16.6946   20.7415 C   0  0  0  0  0  0  0  0  0  0  0  0
   12.2226  -15.7082   19.9154 C   0  0  0  0  0  0  0  0  0  0  0  0
   11.5835  -14.7955   19.2890 O   0  0  0  0  0  0  0  0  0  0  0  0
    9.4922  -17.8419   22.6388 C   0  0  0  0  0  0  0  0  0  0  0  0
    8.6920  -16.9983   23.1712 O   0  0  0  0  0  0  0  0  0  0  0  0
   13.6037  -15.6562   19.7294 O   0  0  0  0  0  0  0  0  0  0  0  0
   11.8428  -22.0566   30.8857 N   0  0  0  0  0  0  0  0  0  0  0  0
   12.0876  -20.9069   30.0743 C   0  0  0  0  0  0  0  0  0  0  0  0
   13.2963  -20.5093   29.9850 N   0  0  0  0  0  0  0  0  0  0  0  0
   11.0002  -20.2937   29.4327 N   0  0  0  0  0  0  0  0  0  0  0  0
   10.7772  -20.5915   28.0117 C   0  0  0  0  0  0  0  0  0  0  0  0
   10.7034  -19.3197   27.2132 C   0  0  0  0  0  0  0  0  0  0  0  0
   10.4740  -19.4503   25.7664 C   0  0  0  0  0  0  0  0  0  0  0  0
   10.4088  -18.2310   24.9221 C   0  0  2  0  0  0  0  0  0  0  0  0
   10.3850  -18.5198   23.5051 N   0  0  0  0  0  0  0  0  0  0  0  0
   11.5038  -17.2882   25.1938 C   0  0  0  0  0  0  0  0  0  0  0  0
   12.4688  -17.1658   24.3898 O   0  0  0  0  0  0  0  0  0  0  0  0
   11.5422  -16.4938   26.3284 O   0  0  0  0  0  0  0  0  0  0  0  0
  2  1  1  6
  2  3  1  0
  3  4  1  0
  4  5  1  0
  6  5  1  0
  7  6  1  0
  8  2  1  0
  8  9  2  0
 10  8  1  0
 11 16  1  0
 11 10  1  0
 11 12  1  6
 13 12  1  0
 14 18  1  0
 14 13  1  0
 15 14  2  0
 16 27  1  0
 17 16  2  0
 20 22  1  0
 20 19  1  0
 21 20  2  0
 23 22  1  0
 23 24  1  0
 25 24  1  0
 26 25  1  1
 26 28  1  0
 27 26  1  0
 28 29  2  0
 28 30  1  0
M  END
$$$$
