KER.pdb
     RDKit          3D

 30 29  0  0  1  0  0  0  0  0999 V2000
    8.0010  -18.0054   19.2253 N   0  0  0  0  0  0  0  0  0  0  0  0
    9.1286  -17.1522   18.9815 C   0  0  1  0  0  0  0  0  0  0  0  0
    8.7296  -15.7391   19.3397 C   0  0  0  0  0  0  0  0  0  0  0  0
    7.7098  -15.2166   18.3928 C   0  0  0  0  0  0  0  0  0  0  0  0
    8.1780  -14.2278   17.3758 C   0  0  0  0  0  0  0  0  0  0  0  0
    7.1031  -13.6352   16.5335 C   0  0  0  0  0  0  0  0  0  0  0  0
    7.5320  -12.6236   15.6259 N   0  0  0  0  0  0  0  0  0  0  0  0
   10.2801  -17.6267   19.7754 C   0  0  0  0  0  0  0  0  0  0  0  0
   10.1477  -18.3511   20.8017 O   0  0  0  0  0  0  0  0  0  0  0  0
   11.5916  -17.2567   19.3732 N   0  0  0  0  0  0  0  0  0  0  0  0
   12.7874  -17.6918   20.0876 C   0  0  1  0  0  0  0  0  0  0  0  0
   13.9325  -17.6402   19.1314 C   0  0  0  0  0  0  0  0  0  0  0  0
   15.2547  -18.0695   19.6526 C   0  0  0  0  0  0  0  0  0  0  0  0
   16.3783  -18.0494   18.7134 C   0  0  0  0  0  0  0  0  0  0  0  0
   16.2800  -18.5727   17.5513 O   0  0  0  0  0  0  0  0  0  0  0  0
   12.9681  -17.0011   21.3676 C   0  0  0  0  0  0  0  0  0  0  0  0
   12.9407  -15.7227   21.3857 O   0  0  0  0  0  0  0  0  0  0  0  0
   17.6255  -17.4808   18.9703 O   0  0  0  0  0  0  0  0  0  0  0  0
   11.2315  -18.3590   29.7965 N   0  0  0  0  0  0  0  0  0  0  0  0
   12.0987  -17.2261   29.7305 C   0  0  0  0  0  0  0  0  0  0  0  0
   11.8450  -16.2571   30.5203 N   0  0  0  0  0  0  0  0  0  0  0  0
   13.1628  -17.2472   28.8154 N   0  0  0  0  0  0  0  0  0  0  0  0
   12.9902  -18.0079   27.5706 C   0  0  0  0  0  0  0  0  0  0  0  0
   13.1515  -17.1074   26.3775 C   0  0  0  0  0  0  0  0  0  0  0  0
   13.0975  -17.7389   25.0504 C   0  0  0  0  0  0  0  0  0  0  0  0
   13.2939  -16.9085   23.8355 C   0  0  2  0  0  0  0  0  0  0  0  0
   13.1695  -17.6596   22.6058 N   0  0  0  0  0  0  0  0  0  0  0  0
   14.5828  -16.2011   23.8287 C   0  0  0  0  0  0  0  0  0  0  0  0
   15.6210  -16.7491   23.3659 O   0  0  0  0  0  0  0  0  0  0  0  0
   14.7324  -14.9151   24.3224 O   0  0  0  0  0  0  0  0  0  0  0  0
  2  1  1  1
  2  3  1  0
  3  4  1  0
  4  5  1  0
  6  5  1  0
  7  6  1  0
  8  2  1  0
  8  9  2  0
 10  8  1  0
 11 16  1  0
 11 10  1  0
 11 12  1  6
 13 12  1  0
 14 18  1  0
 14 13  1  0
 15 14  2  0
 16 27  1  0
 17 16  2  0
 20 22  1  0
 20 19  1  0
 21 20  2  0
 23 22  1  0
 23 24  1  0
 25 24  1  0
 26 25  1  1
 26 28  1  0
 27 26  1  0
 28 29  2  0
 28 30  1  0
M  END
$$$$
