KER.pdb
     RDKit          3D

 30 29  0  0  1  0  0  0  0  0999 V2000
   10.2550  -14.2238   17.8836 N   0  0  0  0  0  0  0  0  0  0  0  0
    9.1420  -13.7403   18.6493 C   0  0  1  0  0  0  0  0  0  0  0  0
    7.9605  -13.6012   17.7171 C   0  0  0  0  0  0  0  0  0  0  0  0
    8.1748  -14.3739   16.4655 C   0  0  0  0  0  0  0  0  0  0  0  0
    7.6358  -13.7796   15.2055 C   0  0  0  0  0  0  0  0  0  0  0  0
    7.8205  -14.6146   13.9871 C   0  0  0  0  0  0  0  0  0  0  0  0
    7.1840  -14.1211   12.8113 N   0  0  0  0  0  0  0  0  0  0  0  0
    8.8711  -14.6752   19.7602 C   0  0  0  0  0  0  0  0  0  0  0  0
    7.8769  -14.5497   20.5291 O   0  0  0  0  0  0  0  0  0  0  0  0
    9.7612  -15.7612   19.9772 N   0  0  0  0  0  0  0  0  0  0  0  0
    9.6216  -16.6825   21.1003 C   0  0  1  0  0  0  0  0  0  0  0  0
   10.4053  -17.9120   20.7802 C   0  0  0  0  0  0  0  0  0  0  0  0
   10.4599  -18.9589   21.8314 C   0  0  0  0  0  0  0  0  0  0  0  0
   11.2956  -20.1308   21.5601 C   0  0  0  0  0  0  0  0  0  0  0  0
   12.5663  -20.0308   21.4649 O   0  0  0  0  0  0  0  0  0  0  0  0
    9.8928  -16.0481   22.3934 C   0  0  0  0  0  0  0  0  0  0  0  0
   10.9166  -15.2897   22.5035 O   0  0  0  0  0  0  0  0  0  0  0  0
   10.8191  -21.4296   21.3845 O   0  0  0  0  0  0  0  0  0  0  0  0
    4.6975  -12.4146   27.7816 N   0  0  0  0  0  0  0  0  0  0  0  0
    5.6539  -11.9202   26.8430 C   0  0  0  0  0  0  0  0  0  0  0  0
    5.7773  -10.6536   26.7563 N   0  0  0  0  0  0  0  0  0  0  0  0
    6.3901  -12.8438   26.0847 N   0  0  0  0  0  0  0  0  0  0  0  0
    7.2594  -12.3278   25.0189 C   0  0  0  0  0  0  0  0  0  0  0  0
    8.0316  -13.4491   24.3811 C   0  0  0  0  0  0  0  0  0  0  0  0
    8.3807  -14.5927   25.2373 C   0  0  0  0  0  0  0  0  0  0  0  0
    9.4200  -15.5533   24.7885 C   0  0  2  0  0  0  0  0  0  0  0  0
    9.0863  -16.2145   23.5462 N   0  0  0  0  0  0  0  0  0  0  0  0
    9.7288  -16.5752   25.7995 C   0  0  0  0  0  0  0  0  0  0  0  0
    9.4953  -17.7958   25.5803 O   0  0  0  0  0  0  0  0  0  0  0  0
   10.2826  -16.2650   27.0312 O   0  0  0  0  0  0  0  0  0  0  0  0
  2  1  1  6
  2  3  1  0
  3  4  1  0
  4  5  1  0
  6  5  1  0
  7  6  1  0
  8  2  1  0
  8  9  2  0
 10  8  1  0
 11 16  1  0
 11 10  1  0
 11 12  1  6
 13 12  1  0
 14 18  1  0
 14 13  1  0
 15 14  2  0
 16 27  1  0
 17 16  2  0
 20 22  1  0
 20 19  1  0
 21 20  2  0
 23 22  1  0
 23 24  1  0
 25 24  1  0
 26 25  1  1
 26 28  1  0
 27 26  1  0
 28 29  2  0
 28 30  1  0
M  END
$$$$
