KER.pdb
     RDKit          3D

 30 29  0  0  1  0  0  0  0  0999 V2000
    6.4919  -22.4640   23.8900 N   0  0  0  0  0  0  0  0  0  0  0  0
    5.7518  -21.4019   23.2712 C   0  0  1  0  0  0  0  0  0  0  0  0
    4.2798  -21.6912   23.4549 C   0  0  0  0  0  0  0  0  0  0  0  0
    4.0645  -22.7059   24.5197 C   0  0  0  0  0  0  0  0  0  0  0  0
    3.3574  -23.9603   24.1227 C   0  0  0  0  0  0  0  0  0  0  0  0
    3.1010  -24.9164   25.2344 C   0  0  0  0  0  0  0  0  0  0  0  0
    2.3408  -26.0687   24.8804 N   0  0  0  0  0  0  0  0  0  0  0  0
    6.1485  -20.1141   23.8757 C   0  0  0  0  0  0  0  0  0  0  0  0
    5.5961  -19.0197   23.5712 O   0  0  0  0  0  0  0  0  0  0  0  0
    7.1927  -20.0996   24.8391 N   0  0  0  0  0  0  0  0  0  0  0  0
    7.7243  -18.8649   25.4070 C   0  0  1  0  0  0  0  0  0  0  0  0
    8.2339  -19.1759   26.7751 C   0  0  0  0  0  0  0  0  0  0  0  0
    8.9015  -18.0684   27.5044 C   0  0  0  0  0  0  0  0  0  0  0  0
    9.5302  -18.3992   28.7852 C   0  0  0  0  0  0  0  0  0  0  0  0
   10.0806  -17.4981   29.5055 O   0  0  0  0  0  0  0  0  0  0  0  0
    8.6480  -18.1743   24.5026 C   0  0  0  0  0  0  0  0  0  0  0  0
    9.6166  -18.8346   23.9915 O   0  0  0  0  0  0  0  0  0  0  0  0
    9.5943  -19.6780   29.3381 O   0  0  0  0  0  0  0  0  0  0  0  0
    8.0775  -12.9470   17.2552 N   0  0  0  0  0  0  0  0  0  0  0  0
    7.9774  -12.8680   18.6777 C   0  0  0  0  0  0  0  0  0  0  0  0
    8.4030  -11.7991   19.2287 N   0  0  0  0  0  0  0  0  0  0  0  0
    7.4241  -13.9542   19.3735 N   0  0  0  0  0  0  0  0  0  0  0  0
    7.5515  -13.9763   20.8367 C   0  0  0  0  0  0  0  0  0  0  0  0
    8.7633  -14.7659   21.2471 C   0  0  0  0  0  0  0  0  0  0  0  0
    9.0175  -14.9000   22.6895 C   0  0  0  0  0  0  0  0  0  0  0  0
    9.4834  -16.2005   23.2332 C   0  0  2  0  0  0  0  0  0  0  0  0
    8.5394  -16.8076   24.1455 N   0  0  0  0  0  0  0  0  0  0  0  0
   10.7906  -16.1063   23.8996 C   0  0  0  0  0  0  0  0  0  0  0  0
   10.8720  -15.9590   25.1502 O   0  0  0  0  0  0  0  0  0  0  0  0
   11.9891  -16.1706   23.2071 O   0  0  0  0  0  0  0  0  0  0  0  0
  2  1  1  1
  2  3  1  0
  3  4  1  0
  4  5  1  0
  6  5  1  0
  7  6  1  0
  8  2  1  0
  8  9  2  0
 10  8  1  0
 11 16  1  0
 11 10  1  0
 11 12  1  1
 13 12  1  0
 14 18  1  0
 14 13  1  0
 15 14  2  0
 16 27  1  0
 17 16  2  0
 20 22  1  0
 20 19  1  0
 21 20  2  0
 23 22  1  0
 23 24  1  0
 25 24  1  0
 26 25  1  1
 26 28  1  0
 27 26  1  0
 28 29  2  0
 28 30  1  0
M  END
$$$$
