KER.pdb
     RDKit          3D

 30 29  0  0  1  0  0  0  0  0999 V2000
    8.1405  -18.3615   18.6340 N   0  0  0  0  0  0  0  0  0  0  0  0
    7.5472  -19.2742   19.5688 C   0  0  1  0  0  0  0  0  0  0  0  0
    6.6785  -20.2370   18.7926 C   0  0  0  0  0  0  0  0  0  0  0  0
    6.1747  -19.6113   17.5419 C   0  0  0  0  0  0  0  0  0  0  0  0
    5.2882  -20.4483   16.6788 C   0  0  0  0  0  0  0  0  0  0  0  0
    4.8614  -19.8058   15.4058 C   0  0  0  0  0  0  0  0  0  0  0  0
    4.0554  -20.6184   14.5565 N   0  0  0  0  0  0  0  0  0  0  0  0
    8.6144  -19.9650   20.3206 C   0  0  0  0  0  0  0  0  0  0  0  0
    8.3753  -20.8827   21.1550 O   0  0  0  0  0  0  0  0  0  0  0  0
    9.9660  -19.5864   20.1004 N   0  0  0  0  0  0  0  0  0  0  0  0
   11.0932  -20.3312   20.6519 C   0  0  1  0  0  0  0  0  0  0  0  0
   12.1784  -20.3391   19.6270 C   0  0  0  0  0  0  0  0  0  0  0  0
   13.4088  -21.0976   19.9662 C   0  0  0  0  0  0  0  0  0  0  0  0
   14.4966  -21.0733   18.9857 C   0  0  0  0  0  0  0  0  0  0  0  0
   15.2382  -20.0420   18.8443 O   0  0  0  0  0  0  0  0  0  0  0  0
   11.4640  -19.8873   21.9986 C   0  0  0  0  0  0  0  0  0  0  0  0
   11.6139  -18.6357   22.2139 O   0  0  0  0  0  0  0  0  0  0  0  0
   14.8306  -22.1270   18.1354 O   0  0  0  0  0  0  0  0  0  0  0  0
   11.7163  -23.2068   30.5183 N   0  0  0  0  0  0  0  0  0  0  0  0
   11.6116  -21.7837   30.4571 C   0  0  0  0  0  0  0  0  0  0  0  0
   11.1229  -21.1956   31.4780 N   0  0  0  0  0  0  0  0  0  0  0  0
   12.0473  -21.1276   29.2952 N   0  0  0  0  0  0  0  0  0  0  0  0
   11.4490  -21.5208   28.0126 C   0  0  0  0  0  0  0  0  0  0  0  0
   12.0475  -20.7238   26.8869 C   0  0  0  0  0  0  0  0  0  0  0  0
   11.5821  -21.0333   25.5266 C   0  0  0  0  0  0  0  0  0  0  0  0
   12.1054  -20.2520   24.3779 C   0  0  2  0  0  0  0  0  0  0  0  0
   11.6667  -20.7596   23.0965 N   0  0  0  0  0  0  0  0  0  0  0  0
   13.5727  -20.1578   24.3714 C   0  0  0  0  0  0  0  0  0  0  0  0
   14.2690  -20.9297   23.6561 O   0  0  0  0  0  0  0  0  0  0  0  0
   14.2659  -19.2345   25.1375 O   0  0  0  0  0  0  0  0  0  0  0  0
  2  1  1  6
  2  3  1  0
  3  4  1  0
  4  5  1  0
  6  5  1  0
  7  6  1  0
  8  2  1  0
  8  9  2  0
 10  8  1  0
 11 16  1  0
 11 10  1  0
 11 12  1  6
 13 12  1  0
 14 18  1  0
 14 13  1  0
 15 14  2  0
 16 27  1  0
 17 16  2  0
 20 22  1  0
 20 19  1  0
 21 20  2  0
 23 22  1  0
 23 24  1  0
 25 24  1  0
 26 25  1  1
 26 28  1  0
 27 26  1  0
 28 29  2  0
 28 30  1  0
M  END
$$$$
