KER.pdb
     RDKit          3D

 30 29  0  0  1  0  0  0  0  0999 V2000
    7.2872  -18.4475   19.4546 N   0  0  0  0  0  0  0  0  0  0  0  0
    8.2785  -17.4247   19.2814 C   0  0  1  0  0  0  0  0  0  0  0  0
    7.6916  -16.1198   19.7685 C   0  0  0  0  0  0  0  0  0  0  0  0
    8.2436  -14.9693   19.0061 C   0  0  0  0  0  0  0  0  0  0  0  0
    7.7332  -13.6131   19.3688 C   0  0  0  0  0  0  0  0  0  0  0  0
    8.2826  -12.4956   18.5532 C   0  0  0  0  0  0  0  0  0  0  0  0
    7.7945  -11.2002   18.8920 N   0  0  0  0  0  0  0  0  0  0  0  0
    9.5005  -17.7993   20.0214 C   0  0  0  0  0  0  0  0  0  0  0  0
    9.4719  -18.2416   21.2043 O   0  0  0  0  0  0  0  0  0  0  0  0
   10.7616  -17.6589   19.3822 N   0  0  0  0  0  0  0  0  0  0  0  0
   12.0257  -17.8961   20.0716 C   0  0  1  0  0  0  0  0  0  0  0  0
   13.1060  -17.9295   19.0421 C   0  0  0  0  0  0  0  0  0  0  0  0
   14.4887  -18.1512   19.5353 C   0  0  0  0  0  0  0  0  0  0  0  0
   15.4706  -18.6400   18.5647 C   0  0  0  0  0  0  0  0  0  0  0  0
   15.4512  -19.8506   18.1549 O   0  0  0  0  0  0  0  0  0  0  0  0
   12.2301  -16.9961   21.2103 C   0  0  0  0  0  0  0  0  0  0  0  0
   12.4487  -15.7568   20.9829 O   0  0  0  0  0  0  0  0  0  0  0  0
   16.4906  -17.8725   18.0031 O   0  0  0  0  0  0  0  0  0  0  0  0
   10.9917  -16.7818   30.3722 N   0  0  0  0  0  0  0  0  0  0  0  0
   10.8966  -15.5571   29.6435 C   0  0  0  0  0  0  0  0  0  0  0  0
   10.1649  -14.6410   30.1458 N   0  0  0  0  0  0  0  0  0  0  0  0
   11.6043  -15.4365   28.4374 N   0  0  0  0  0  0  0  0  0  0  0  0
   11.2873  -16.3743   27.3521 C   0  0  0  0  0  0  0  0  0  0  0  0
   12.0858  -16.0440   26.1218 C   0  0  0  0  0  0  0  0  0  0  0  0
   11.8073  -16.8323   24.9118 C   0  0  0  0  0  0  0  0  0  0  0  0
   12.4699  -16.4706   23.6334 C   0  0  2  0  0  0  0  0  0  0  0  0
   12.1976  -17.4075   22.5657 N   0  0  0  0  0  0  0  0  0  0  0  0
   13.9259  -16.3171   23.7674 C   0  0  0  0  0  0  0  0  0  0  0  0
   14.7052  -17.2776   23.5169 O   0  0  0  0  0  0  0  0  0  0  0  0
   14.5187  -15.1315   24.1711 O   0  0  0  0  0  0  0  0  0  0  0  0
  2  1  1  1
  2  3  1  0
  3  4  1  0
  4  5  1  0
  6  5  1  0
  7  6  1  0
  8  2  1  0
  8  9  2  0
 10  8  1  0
 11 16  1  0
 11 10  1  0
 11 12  1  6
 13 12  1  0
 14 18  1  0
 14 13  1  0
 15 14  2  0
 16 27  1  0
 17 16  2  0
 20 22  1  0
 20 19  1  0
 21 20  2  0
 23 22  1  0
 23 24  1  0
 25 24  1  0
 26 25  1  1
 26 28  1  0
 27 26  1  0
 28 29  2  0
 28 30  1  0
M  END
$$$$
