CNF.pdb
     RDKit          3D

 26 26  0  0  1  0  0  0  0  0999 V2000
   17.5121  -13.9489  -16.0047 N   0  0  0  0  0  0  0  0  0  0  0  0
   17.1704  -12.5482  -15.7271 C   0  0  1  0  0  0  0  0  0  0  0  0
   17.0464  -12.4583  -14.2081 C   0  0  0  0  0  0  0  0  0  0  0  0
   15.4198  -13.1349  -13.7695 S   0  0  0  0  0  0  0  0  0  0  0  0
   18.2822  -11.6541  -16.1504 C   0  0  0  0  0  0  0  0  0  0  0  0
   19.4753  -12.0839  -16.1640 O   0  0  0  0  0  0  0  0  0  0  0  0
   20.5321   -7.5586  -18.5945 N   0  0  0  0  0  0  0  0  0  0  0  0
   19.2292   -7.9213  -19.0473 C   0  0  0  0  0  0  0  0  0  0  0  0
   18.8320   -7.4297  -20.1164 O   0  0  0  0  0  0  0  0  0  0  0  0
   18.4009   -8.8333  -18.2821 C   0  0  0  0  0  0  0  0  0  0  0  0
   18.9754   -9.4239  -17.0467 C   0  0  2  0  0  0  0  0  0  0  0  0
   17.9395  -10.3328  -16.5271 N   0  0  0  0  0  0  0  0  0  0  0  0
   19.3454   -8.4983  -15.9780 C   0  0  0  0  0  0  0  0  0  0  0  0
   18.4287   -7.9197  -15.2917 O   0  0  0  0  0  0  0  0  0  0  0  0
   20.6612   -8.1452  -15.5849 N   0  0  0  0  0  0  0  0  0  0  0  0
   20.9591   -7.1708  -14.5518 C   0  0  1  0  0  0  0  0  0  0  0  0
   22.0074   -7.6821  -13.6211 C   0  0  0  0  0  0  0  0  0  0  0  0
   23.1917   -8.2027  -14.2903 C   0  0  0  0  0  0  0  0  0  0  0  0
   24.0468   -7.4178  -15.0489 C   0  0  0  0  0  0  0  0  0  0  0  0
   25.1594   -7.9221  -15.6752 C   0  0  0  0  0  0  0  0  0  0  0  0
   25.4348   -9.2681  -15.5413 C   0  0  0  0  0  0  0  0  0  0  0  0
   24.6038  -10.0933  -14.7893 C   0  0  0  0  0  0  0  0  0  0  0  0
   23.5011   -9.5495  -14.1789 C   0  0  0  0  0  0  0  0  0  0  0  0
   21.2879   -5.8524  -15.0779 C   0  0  0  0  0  0  0  0  0  0  0  0
   21.3494   -4.7661  -14.1910 O   0  0  0  0  0  0  0  0  0  0  0  0
   21.5284   -5.5824  -16.2795 O   0  0  0  0  0  0  0  0  0  0  0  0
  2  1  1  1
  3  2  1  0
  3  4  1  0
  5  6  2  0
  5  2  1  0
  7  8  1  0
  8  9  2  0
  8 10  1  0
 11 10  1  6
 11 13  1  0
 11 12  1  0
 12  5  1  0
 13 15  1  0
 14 13  2  0
 15 16  1  0
 16 17  1  6
 17 18  1  0
 18 23  2  0
 19 20  2  0
 19 18  1  0
 20 21  1  0
 21 22  2  0
 23 22  1  0
 24 25  1  0
 24 16  1  0
 26 24  2  0
M  END
$$$$
