CNF.pdb
     RDKit          3D

 26 26  0  0  1  0  0  0  0  0999 V2000
   14.7111  -10.4082  -10.3128 N   0  0  0  0  0  0  0  0  0  0  0  0
   16.0333   -9.7988  -10.5040 C   0  0  1  0  0  0  0  0  0  0  0  0
   16.8159  -10.7957  -11.3551 C   0  0  0  0  0  0  0  0  0  0  0  0
   17.1497  -12.2392  -10.3060 S   0  0  0  0  0  0  0  0  0  0  0  0
   15.9091   -8.5333  -11.2771 C   0  0  0  0  0  0  0  0  0  0  0  0
   15.0929   -8.4553  -12.2446 O   0  0  0  0  0  0  0  0  0  0  0  0
   15.8687   -3.7539   -8.7781 N   0  0  0  0  0  0  0  0  0  0  0  0
   16.1594   -5.0192   -9.3685 C   0  0  0  0  0  0  0  0  0  0  0  0
   16.7978   -5.8400   -8.6894 O   0  0  0  0  0  0  0  0  0  0  0  0
   15.7222   -5.3316  -10.7155 C   0  0  0  0  0  0  0  0  0  0  0  0
   16.6214   -6.1528  -11.5654 C   0  0  2  0  0  0  0  0  0  0  0  0
   16.7322   -7.4516  -10.8801 N   0  0  0  0  0  0  0  0  0  0  0  0
   17.9717   -5.6414  -11.7911 C   0  0  0  0  0  0  0  0  0  0  0  0
   18.7883   -5.5444  -10.8063 O   0  0  0  0  0  0  0  0  0  0  0  0
   18.5188   -5.2200  -13.0296 N   0  0  0  0  0  0  0  0  0  0  0  0
   19.8531   -4.6685  -13.1747 C   0  0  1  0  0  0  0  0  0  0  0  0
   20.7392   -5.6040  -13.9272 C   0  0  0  0  0  0  0  0  0  0  0  0
   20.7825   -6.9517  -13.3765 C   0  0  0  0  0  0  0  0  0  0  0  0
   20.1150   -8.0284  -13.9403 C   0  0  0  0  0  0  0  0  0  0  0  0
   20.1638   -9.2936  -13.4099 C   0  0  0  0  0  0  0  0  0  0  0  0
   20.9105   -9.4980  -12.2670 C   0  0  0  0  0  0  0  0  0  0  0  0
   21.5968   -8.4461  -11.6675 C   0  0  0  0  0  0  0  0  0  0  0  0
   21.5220   -7.1960  -12.2296 C   0  0  0  0  0  0  0  0  0  0  0  0
   19.8654   -3.3259  -13.7408 C   0  0  0  0  0  0  0  0  0  0  0  0
   21.0591   -2.5880  -13.7062 O   0  0  0  0  0  0  0  0  0  0  0  0
   18.8874   -2.7458  -14.2715 O   0  0  0  0  0  0  0  0  0  0  0  0
  2  1  1  6
  3  2  1  0
  3  4  1  0
  5  6  2  0
  5  2  1  0
  7  8  1  0
  8  9  2  0
  8 10  1  0
 11 10  1  1
 11 13  1  0
 11 12  1  0
 12  5  1  0
 13 15  1  0
 14 13  2  0
 15 16  1  0
 16 17  1  6
 17 18  1  0
 18 23  2  0
 19 20  2  0
 19 18  1  0
 20 21  1  0
 21 22  2  0
 23 22  1  0
 24 25  1  0
 24 16  1  0
 26 24  2  0
M  END
$$$$
