CNF.pdb
     RDKit          3D

 26 26  0  0  1  0  0  0  0  0999 V2000
   28.6594  -20.5791  -16.5100 N   0  0  0  0  0  0  0  0  0  0  0  0
   28.1690  -19.6875  -15.4515 C   0  0  1  0  0  0  0  0  0  0  0  0
   27.4003  -18.5864  -16.1777 C   0  0  0  0  0  0  0  0  0  0  0  0
   28.3688  -17.0610  -16.0016 S   0  0  0  0  0  0  0  0  0  0  0  0
   27.2118  -20.4118  -14.5717 C   0  0  0  0  0  0  0  0  0  0  0  0
   26.4439  -21.2963  -15.0579 O   0  0  0  0  0  0  0  0  0  0  0  0
   24.6983  -21.3959   -9.9604 N   0  0  0  0  0  0  0  0  0  0  0  0
   25.9704  -20.7781   -9.7755 C   0  0  0  0  0  0  0  0  0  0  0  0
   26.3301  -20.5341   -8.6121 O   0  0  0  0  0  0  0  0  0  0  0  0
   26.8113  -20.4486  -10.9103 C   0  0  0  0  0  0  0  0  0  0  0  0
   26.2941  -20.7498  -12.2694 C   0  0  2  0  0  0  0  0  0  0  0  0
   27.2092  -20.0657  -13.1987 N   0  0  0  0  0  0  0  0  0  0  0  0
   24.9316  -20.3171  -12.5724 C   0  0  0  0  0  0  0  0  0  0  0  0
   24.6942  -19.0777  -12.8040 O   0  0  0  0  0  0  0  0  0  0  0  0
   23.7809  -21.1423  -12.6482 N   0  0  0  0  0  0  0  0  0  0  0  0
   22.5649  -20.7669  -13.3454 C   0  0  1  0  0  0  0  0  0  0  0  0
   22.8493  -20.4252  -14.7698 C   0  0  0  0  0  0  0  0  0  0  0  0
   21.6720  -20.0315  -15.5316 C   0  0  0  0  0  0  0  0  0  0  0  0
   20.8467  -20.9356  -16.1830 C   0  0  0  0  0  0  0  0  0  0  0  0
   19.7404  -20.5502  -16.8985 C   0  0  0  0  0  0  0  0  0  0  0  0
   19.4405  -19.2046  -16.9698 C   0  0  0  0  0  0  0  0  0  0  0  0
   20.2412  -18.2621  -16.3313 C   0  0  0  0  0  0  0  0  0  0  0  0
   21.3386  -18.6891  -15.6259 C   0  0  0  0  0  0  0  0  0  0  0  0
   21.4986  -21.7518  -13.2195 C   0  0  0  0  0  0  0  0  0  0  0  0
   20.2010  -21.3093  -12.9179 O   0  0  0  0  0  0  0  0  0  0  0  0
   21.6275  -22.9924  -13.3573 O   0  0  0  0  0  0  0  0  0  0  0  0
  2  1  1  6
  3  2  1  0
  3  4  1  0
  5  6  2  0
  5  2  1  0
  7  8  1  0
  8  9  2  0
  8 10  1  0
 11 10  1  1
 11 13  1  0
 11 12  1  0
 12  5  1  0
 13 15  1  0
 14 13  2  0
 15 16  1  0
 16 17  1  6
 17 18  1  0
 18 23  2  0
 19 20  2  0
 19 18  1  0
 20 21  1  0
 21 22  2  0
 23 22  1  0
 24 25  1  0
 24 16  1  0
 26 24  2  0
M  END
$$$$
