CNF.pdb
     RDKit          3D

 26 26  0  0  1  0  0  0  0  0999 V2000
   18.0859  -11.6561  -15.8955 N   0  0  0  0  0  0  0  0  0  0  0  0
   18.7744  -10.5557  -16.5818 C   0  0  1  0  0  0  0  0  0  0  0  0
   17.9134   -9.3213  -16.3261 C   0  0  0  0  0  0  0  0  0  0  0  0
   16.5006   -9.4174  -17.4622 S   0  0  0  0  0  0  0  0  0  0  0  0
   20.1086  -10.3203  -15.9659 C   0  0  0  0  0  0  0  0  0  0  0  0
   20.2646  -10.4522  -14.7143 O   0  0  0  0  0  0  0  0  0  0  0  0
   23.8384  -11.9409  -15.1328 N   0  0  0  0  0  0  0  0  0  0  0  0
   24.0692  -11.6199  -16.5031 C   0  0  0  0  0  0  0  0  0  0  0  0
   24.8208  -12.3659  -17.1521 O   0  0  0  0  0  0  0  0  0  0  0  0
   23.4452  -10.4614  -17.1129 C   0  0  0  0  0  0  0  0  0  0  0  0
   22.5012   -9.6654  -16.2880 C   0  0  2  0  0  0  0  0  0  0  0  0
   21.1640   -9.9513  -16.8349 N   0  0  0  0  0  0  0  0  0  0  0  0
   22.6877   -8.2160  -16.2777 C   0  0  0  0  0  0  0  0  0  0  0  0
   23.1278   -7.6237  -17.3273 O   0  0  0  0  0  0  0  0  0  0  0  0
   22.4259   -7.3388  -15.1949 N   0  0  0  0  0  0  0  0  0  0  0  0
   22.6248   -5.9027  -15.2555 C   0  0  1  0  0  0  0  0  0  0  0  0
   21.8700   -5.3062  -16.3961 C   0  0  0  0  0  0  0  0  0  0  0  0
   20.4392   -5.1756  -16.1568 C   0  0  0  0  0  0  0  0  0  0  0  0
   19.8805   -4.1480  -15.4120 C   0  0  0  0  0  0  0  0  0  0  0  0
   18.5298   -4.0378  -15.1935 C   0  0  0  0  0  0  0  0  0  0  0  0
   17.6961   -4.9924  -15.7405 C   0  0  0  0  0  0  0  0  0  0  0  0
   18.2135   -6.0412  -16.4951 C   0  0  0  0  0  0  0  0  0  0  0  0
   19.5703   -6.1151  -16.6900 C   0  0  0  0  0  0  0  0  0  0  0  0
   22.3419   -5.2261  -13.9964 C   0  0  0  0  0  0  0  0  0  0  0  0
   21.8354   -5.9768  -12.9239 O   0  0  0  0  0  0  0  0  0  0  0  0
   22.5100   -4.0038  -13.7679 O   0  0  0  0  0  0  0  0  0  0  0  0
  2  1  1  1
  3  2  1  0
  3  4  1  0
  5  6  2  0
  5  2  1  0
  7  8  1  0
  8  9  2  0
  8 10  1  0
 11 10  1  6
 11 13  1  0
 11 12  1  0
 12  5  1  0
 13 15  1  0
 14 13  2  0
 15 16  1  0
 16 17  1  6
 17 18  1  0
 18 23  2  0
 19 20  2  0
 19 18  1  0
 20 21  1  0
 21 22  2  0
 23 22  1  0
 24 25  1  0
 24 16  1  0
 26 24  2  0
M  END
$$$$
