CNF.pdb
     RDKit          3D

 26 26  0  0  1  0  0  0  0  0999 V2000
   12.8686  -11.5715  -10.7361 N   0  0  0  0  0  0  0  0  0  0  0  0
   14.2462  -11.2739  -10.3244 C   0  0  1  0  0  0  0  0  0  0  0  0
   15.1268  -12.1741  -11.1874 C   0  0  0  0  0  0  0  0  0  0  0  0
   15.0515  -13.8377  -10.4645 S   0  0  0  0  0  0  0  0  0  0  0  0
   14.5839   -9.8599  -10.6429 C   0  0  0  0  0  0  0  0  0  0  0  0
   14.2210   -9.3514  -11.7466 O   0  0  0  0  0  0  0  0  0  0  0  0
   15.4371   -4.5203   -8.8046 N   0  0  0  0  0  0  0  0  0  0  0  0
   16.2280   -5.6935   -8.6250 C   0  0  0  0  0  0  0  0  0  0  0  0
   17.4404   -5.5436   -8.4012 O   0  0  0  0  0  0  0  0  0  0  0  0
   15.6321   -7.0135   -8.7017 C   0  0  0  0  0  0  0  0  0  0  0  0
   15.7885   -7.7743   -9.9673 C   0  0  2  0  0  0  0  0  0  0  0  0
   15.3132   -9.1359   -9.6688 N   0  0  0  0  0  0  0  0  0  0  0  0
   17.1379   -7.8749  -10.5193 C   0  0  0  0  0  0  0  0  0  0  0  0
   18.0104   -8.6132   -9.9365 O   0  0  0  0  0  0  0  0  0  0  0  0
   17.6252   -7.2248  -11.6814 N   0  0  0  0  0  0  0  0  0  0  0  0
   19.0080   -7.2841  -12.1175 C   0  0  1  0  0  0  0  0  0  0  0  0
   19.1915   -8.3226  -13.1732 C   0  0  0  0  0  0  0  0  0  0  0  0
   20.5707   -8.4843  -13.6125 C   0  0  0  0  0  0  0  0  0  0  0  0
   21.4356   -9.4286  -13.0806 C   0  0  0  0  0  0  0  0  0  0  0  0
   22.7339   -9.5693  -13.5037 C   0  0  0  0  0  0  0  0  0  0  0  0
   23.1936   -8.7333  -14.5014 C   0  0  0  0  0  0  0  0  0  0  0  0
   22.3601   -7.7712  -15.0641 C   0  0  0  0  0  0  0  0  0  0  0  0
   21.0683   -7.6631  -14.6125 C   0  0  0  0  0  0  0  0  0  0  0  0
   19.5429   -5.9903  -12.5214 C   0  0  0  0  0  0  0  0  0  0  0  0
   20.9105   -5.7354  -12.3344 O   0  0  0  0  0  0  0  0  0  0  0  0
   18.8844   -5.0534  -13.0343 O   0  0  0  0  0  0  0  0  0  0  0  0
  2  1  1  6
  3  2  1  0
  3  4  1  0
  5  6  2  0
  5  2  1  0
  7  8  1  0
  8  9  2  0
  8 10  1  0
 11 10  1  1
 11 13  1  0
 11 12  1  0
 12  5  1  0
 13 15  1  0
 14 13  2  0
 15 16  1  0
 16 17  1  6
 17 18  1  0
 18 23  2  0
 19 20  2  0
 19 18  1  0
 20 21  1  0
 21 22  2  0
 23 22  1  0
 24 25  1  0
 24 16  1  0
 26 24  2  0
M  END
$$$$
