CNF.pdb
     RDKit          3D

 26 26  0  0  1  0  0  0  0  0999 V2000
   28.3078  -32.7058  -15.1372 N   0  0  0  0  0  0  0  0  0  0  0  0
   28.6430  -32.0964  -16.4304 C   0  0  1  0  0  0  0  0  0  0  0  0
   27.9259  -30.7487  -16.4374 C   0  0  0  0  0  0  0  0  0  0  0  0
   26.1604  -31.0903  -16.6861 S   0  0  0  0  0  0  0  0  0  0  0  0
   30.1063  -31.8382  -16.5133 C   0  0  0  0  0  0  0  0  0  0  0  0
   30.7887  -31.6943  -15.4541 O   0  0  0  0  0  0  0  0  0  0  0  0
   34.9349  -31.9174  -18.5400 N   0  0  0  0  0  0  0  0  0  0  0  0
   33.9915  -32.8301  -19.0979 C   0  0  0  0  0  0  0  0  0  0  0  0
   34.4331  -33.7867  -19.7554 O   0  0  0  0  0  0  0  0  0  0  0  0
   32.5669  -32.6432  -18.9008 C   0  0  0  0  0  0  0  0  0  0  0  0
   32.1287  -31.5790  -17.9624 C   0  0  2  0  0  0  0  0  0  0  0  0
   30.6760  -31.7652  -17.8076 N   0  0  0  0  0  0  0  0  0  0  0  0
   32.3688  -30.1957  -18.3681 C   0  0  0  0  0  0  0  0  0  0  0  0
   31.5541  -29.6183  -19.1737 O   0  0  0  0  0  0  0  0  0  0  0  0
   33.4461  -29.3703  -17.9573 N   0  0  0  0  0  0  0  0  0  0  0  0
   33.6875  -28.0398  -18.4836 C   0  0  1  0  0  0  0  0  0  0  0  0
   34.7176  -27.3240  -17.6754 C   0  0  0  0  0  0  0  0  0  0  0  0
   35.0463  -25.9961  -18.1754 C   0  0  0  0  0  0  0  0  0  0  0  0
   36.1002  -25.7457  -19.0409 C   0  0  0  0  0  0  0  0  0  0  0  0
   36.3993  -24.4883  -19.5036 C   0  0  0  0  0  0  0  0  0  0  0  0
   35.6148  -23.4316  -19.0872 C   0  0  0  0  0  0  0  0  0  0  0  0
   34.5467  -23.6369  -18.2190 C   0  0  0  0  0  0  0  0  0  0  0  0
   34.2811  -24.9099  -17.7795 C   0  0  0  0  0  0  0  0  0  0  0  0
   34.0013  -28.0289  -19.9065 C   0  0  0  0  0  0  0  0  0  0  0  0
   33.4261  -27.0389  -20.7186 O   0  0  0  0  0  0  0  0  0  0  0  0
   34.7560  -28.8396  -20.4962 O   0  0  0  0  0  0  0  0  0  0  0  0
  2  1  1  1
  3  2  1  0
  3  4  1  0
  5  6  2  0
  5  2  1  0
  7  8  1  0
  8  9  2  0
  8 10  1  0
 11 10  1  6
 11 13  1  0
 11 12  1  0
 12  5  1  0
 13 15  1  0
 14 13  2  0
 15 16  1  0
 16 17  1  1
 17 18  1  0
 18 23  2  0
 19 20  2  0
 19 18  1  0
 20 21  1  0
 21 22  2  0
 23 22  1  0
 24 25  1  0
 24 16  1  0
 26 24  2  0
M  END
$$$$
