CNF.pdb
     RDKit          3D

 26 26  0  0  1  0  0  0  0  0999 V2000
   28.0176  -23.6636  -16.6209 N   0  0  0  0  0  0  0  0  0  0  0  0
   26.5821  -23.8726  -16.8481 C   0  0  1  0  0  0  0  0  0  0  0  0
   26.2810  -25.2537  -16.2714 C   0  0  0  0  0  0  0  0  0  0  0  0
   26.7598  -26.4690  -17.5322 S   0  0  0  0  0  0  0  0  0  0  0  0
   25.7895  -22.8727  -16.0822 C   0  0  0  0  0  0  0  0  0  0  0  0
   26.0606  -22.6420  -14.8650 O   0  0  0  0  0  0  0  0  0  0  0  0
   26.0082  -19.1552  -18.3057 N   0  0  0  0  0  0  0  0  0  0  0  0
   25.1612  -19.1508  -17.1582 C   0  0  0  0  0  0  0  0  0  0  0  0
   25.4612  -18.3919  -16.2221 O   0  0  0  0  0  0  0  0  0  0  0  0
   23.9909  -20.0050  -17.0920 C   0  0  0  0  0  0  0  0  0  0  0  0
   24.0013  -21.1238  -16.1156 C   0  0  2  0  0  0  0  0  0  0  0  0
   24.7445  -22.2122  -16.7728 N   0  0  0  0  0  0  0  0  0  0  0  0
   22.7044  -21.6491  -15.6939 C   0  0  0  0  0  0  0  0  0  0  0  0
   22.0524  -22.4340  -16.4716 O   0  0  0  0  0  0  0  0  0  0  0  0
   22.0457  -21.3859  -14.4661 N   0  0  0  0  0  0  0  0  0  0  0  0
   20.7916  -22.0031  -14.0763 C   0  0  1  0  0  0  0  0  0  0  0  0
   20.8436  -22.4715  -12.6605 C   0  0  0  0  0  0  0  0  0  0  0  0
   20.9534  -21.3965  -11.6840 C   0  0  0  0  0  0  0  0  0  0  0  0
   19.8638  -20.8552  -11.0188 C   0  0  0  0  0  0  0  0  0  0  0  0
   19.9818  -19.8411  -10.1012 C   0  0  0  0  0  0  0  0  0  0  0  0
   21.2406  -19.3422   -9.8321 C   0  0  0  0  0  0  0  0  0  0  0  0
   22.3623  -19.8556  -10.4764 C   0  0  0  0  0  0  0  0  0  0  0  0
   22.2011  -20.8697  -11.3874 C   0  0  0  0  0  0  0  0  0  0  0  0
   19.6291  -21.1634  -14.3343 C   0  0  0  0  0  0  0  0  0  0  0  0
   19.8274  -19.8047  -14.6260 O   0  0  0  0  0  0  0  0  0  0  0  0
   18.4334  -21.5438  -14.3212 O   0  0  0  0  0  0  0  0  0  0  0  0
  2  1  1  1
  3  2  1  0
  3  4  1  0
  5  6  2  0
  5  2  1  0
  7  8  1  0
  8  9  2  0
  8 10  1  0
 11 10  1  6
 11 13  1  0
 11 12  1  0
 12  5  1  0
 13 15  1  0
 14 13  2  0
 15 16  1  0
 16 17  1  1
 17 18  1  0
 18 23  2  0
 19 20  2  0
 19 18  1  0
 20 21  1  0
 21 22  2  0
 23 22  1  0
 24 25  1  0
 24 16  1  0
 26 24  2  0
M  END
$$$$
