CNF.pdb
     RDKit          3D

 26 26  0  0  1  0  0  0  0  0999 V2000
   19.9449  -14.7352  -17.4011 N   0  0  0  0  0  0  0  0  0  0  0  0
   19.4795  -13.4930  -16.7716 C   0  0  1  0  0  0  0  0  0  0  0  0
   19.6262  -13.7242  -15.2697 C   0  0  0  0  0  0  0  0  0  0  0  0
   18.0260  -14.3375  -14.6703 S   0  0  0  0  0  0  0  0  0  0  0  0
   20.3675  -12.3605  -17.1506 C   0  0  0  0  0  0  0  0  0  0  0  0
   21.6241  -12.5245  -17.1973 O   0  0  0  0  0  0  0  0  0  0  0  0
   21.2700   -8.2039  -20.8285 N   0  0  0  0  0  0  0  0  0  0  0  0
   20.4947   -8.2119  -19.6315 C   0  0  0  0  0  0  0  0  0  0  0  0
   20.2830   -7.1227  -19.0735 O   0  0  0  0  0  0  0  0  0  0  0  0
   19.9736   -9.4519  -19.0889 C   0  0  0  0  0  0  0  0  0  0  0  0
   20.5637   -9.9595  -17.8242 C   0  0  2  0  0  0  0  0  0  0  0  0
   19.7445  -11.1241  -17.4480 N   0  0  0  0  0  0  0  0  0  0  0  0
   20.5938   -9.0394  -16.6892 C   0  0  0  0  0  0  0  0  0  0  0  0
   19.5572   -8.9148  -15.9434 O   0  0  0  0  0  0  0  0  0  0  0  0
   21.6854   -8.2276  -16.2892 N   0  0  0  0  0  0  0  0  0  0  0  0
   21.6411   -7.3176  -15.1597 C   0  0  1  0  0  0  0  0  0  0  0  0
   22.6673   -7.6818  -14.1394 C   0  0  0  0  0  0  0  0  0  0  0  0
   23.7628   -8.4873  -14.6614 C   0  0  0  0  0  0  0  0  0  0  0  0
   23.9709   -9.8124  -14.3099 C   0  0  0  0  0  0  0  0  0  0  0  0
   25.0086  -10.5597  -14.8090 C   0  0  0  0  0  0  0  0  0  0  0  0
   25.8792   -9.9627  -15.6986 C   0  0  0  0  0  0  0  0  0  0  0  0
   25.7082   -8.6350  -16.0794 C   0  0  0  0  0  0  0  0  0  0  0  0
   24.6576   -7.9225  -15.5571 C   0  0  0  0  0  0  0  0  0  0  0  0
   21.7231   -5.9146  -15.5440 C   0  0  0  0  0  0  0  0  0  0  0  0
   21.4186   -4.9325  -14.5884 O   0  0  0  0  0  0  0  0  0  0  0  0
   22.0476   -5.4832  -16.6769 O   0  0  0  0  0  0  0  0  0  0  0  0
  2  1  1  6
  3  2  1  0
  3  4  1  0
  5  6  2  0
  5  2  1  0
  7  8  1  0
  8  9  2  0
  8 10  1  0
 11 10  1  6
 11 13  1  0
 11 12  1  0
 12  5  1  0
 13 15  1  0
 14 13  2  0
 15 16  1  0
 16 17  1  1
 17 18  1  0
 18 23  2  0
 19 20  2  0
 19 18  1  0
 20 21  1  0
 21 22  2  0
 23 22  1  0
 24 25  1  0
 24 16  1  0
 26 24  2  0
M  END
$$$$
