CNF.pdb
     RDKit          3D

 26 26  0  0  1  0  0  0  0  0999 V2000
   28.4399  -21.1122  -18.1092 N   0  0  0  0  0  0  0  0  0  0  0  0
   27.9618  -21.9985  -17.0407 C   0  0  1  0  0  0  0  0  0  0  0  0
   29.2026  -22.3472  -16.2225 C   0  0  0  0  0  0  0  0  0  0  0  0
   29.9781  -23.7804  -17.0227 S   0  0  0  0  0  0  0  0  0  0  0  0
   27.0163  -21.2693  -16.1524 C   0  0  0  0  0  0  0  0  0  0  0  0
   27.0726  -20.0056  -16.0626 O   0  0  0  0  0  0  0  0  0  0  0  0
   22.6913  -20.3864  -13.3170 N   0  0  0  0  0  0  0  0  0  0  0  0
   22.6031  -21.4768  -14.2321 C   0  0  0  0  0  0  0  0  0  0  0  0
   21.4879  -21.9945  -14.4075 O   0  0  0  0  0  0  0  0  0  0  0  0
   23.7781  -21.9603  -14.9313 C   0  0  0  0  0  0  0  0  0  0  0  0
   25.0958  -21.3889  -14.5540 C   0  0  2  0  0  0  0  0  0  0  0  0
   26.0762  -22.0473  -15.4339 N   0  0  0  0  0  0  0  0  0  0  0  0
   25.5291  -21.5755  -13.1709 C   0  0  0  0  0  0  0  0  0  0  0  0
   26.6105  -22.2205  -12.9244 O   0  0  0  0  0  0  0  0  0  0  0  0
   24.8679  -21.1047  -12.0082 N   0  0  0  0  0  0  0  0  0  0  0  0
   25.4514  -21.1393  -10.6800 C   0  0  1  0  0  0  0  0  0  0  0  0
   26.6711  -20.2826  -10.6096 C   0  0  0  0  0  0  0  0  0  0  0  0
   27.2793  -20.2242   -9.2874 C   0  0  0  0  0  0  0  0  0  0  0  0
   28.4162  -20.9369   -8.9380 C   0  0  0  0  0  0  0  0  0  0  0  0
   28.9783  -20.8731   -7.6873 C   0  0  0  0  0  0  0  0  0  0  0  0
   28.3832  -20.0638   -6.7405 C   0  0  0  0  0  0  0  0  0  0  0  0
   27.2408  -19.3306   -7.0475 C   0  0  0  0  0  0  0  0  0  0  0  0
   26.7101  -19.4223   -8.3102 C   0  0  0  0  0  0  0  0  0  0  0  0
   24.4996  -20.8271   -9.6220 C   0  0  0  0  0  0  0  0  0  0  0  0
   23.4797  -19.8983   -9.8819 O   0  0  0  0  0  0  0  0  0  0  0  0
   24.5001  -21.3193   -8.4677 O   0  0  0  0  0  0  0  0  0  0  0  0
  2  1  1  6
  3  2  1  0
  3  4  1  0
  5  6  2  0
  5  2  1  0
  7  8  1  0
  8  9  2  0
  8 10  1  0
 11 10  1  1
 11 13  1  0
 11 12  1  0
 12  5  1  0
 13 15  1  0
 14 13  2  0
 15 16  1  0
 16 17  1  6
 17 18  1  0
 18 23  2  0
 19 20  2  0
 19 18  1  0
 20 21  1  0
 21 22  2  0
 23 22  1  0
 24 25  1  0
 24 16  1  0
 26 24  2  0
M  END
$$$$
