CNF.pdb
     RDKit          3D

 26 26  0  0  1  0  0  0  0  0999 V2000
   26.4453  -14.8861  -20.2819 N   0  0  0  0  0  0  0  0  0  0  0  0
   25.6719  -13.6380  -20.2842 C   0  0  1  0  0  0  0  0  0  0  0  0
   24.2351  -14.0551  -19.9799 C   0  0  0  0  0  0  0  0  0  0  0  0
   23.2517  -12.5322  -19.8827 S   0  0  0  0  0  0  0  0  0  0  0  0
   26.1329  -12.7454  -19.1863 C   0  0  0  0  0  0  0  0  0  0  0  0
   26.3470  -13.2175  -18.0289 O   0  0  0  0  0  0  0  0  0  0  0  0
   30.5136  -10.3269  -18.2218 N   0  0  0  0  0  0  0  0  0  0  0  0
   29.2082   -9.7937  -18.0079 C   0  0  0  0  0  0  0  0  0  0  0  0
   29.0117   -9.1492  -16.9646 O   0  0  0  0  0  0  0  0  0  0  0  0
   28.1504   -9.9996  -18.9785 C   0  0  0  0  0  0  0  0  0  0  0  0
   26.8260  -10.4484  -18.4786 C   0  0  2  0  0  0  0  0  0  0  0  0
   26.3140  -11.3767  -19.5009 N   0  0  0  0  0  0  0  0  0  0  0  0
   25.8159   -9.4162  -18.2554 C   0  0  0  0  0  0  0  0  0  0  0  0
   25.1961   -8.9054  -19.2559 O   0  0  0  0  0  0  0  0  0  0  0  0
   25.4146   -8.8844  -17.0037 N   0  0  0  0  0  0  0  0  0  0  0  0
   24.4654   -7.7966  -16.8577 C   0  0  1  0  0  0  0  0  0  0  0  0
   24.0228   -7.6602  -15.4392 C   0  0  0  0  0  0  0  0  0  0  0  0
   22.9818   -6.6619  -15.2363 C   0  0  0  0  0  0  0  0  0  0  0  0
   21.6274   -6.9384  -15.3453 C   0  0  0  0  0  0  0  0  0  0  0  0
   20.6567   -5.9872  -15.1523 C   0  0  0  0  0  0  0  0  0  0  0  0
   21.0501   -4.7023  -14.8362 C   0  0  0  0  0  0  0  0  0  0  0  0
   22.3987   -4.3800  -14.7164 C   0  0  0  0  0  0  0  0  0  0  0  0
   23.3380   -5.3606  -14.9174 C   0  0  0  0  0  0  0  0  0  0  0  0
   24.9431   -6.5346  -17.4074 C   0  0  0  0  0  0  0  0  0  0  0  0
   24.0675   -5.7607  -18.1851 O   0  0  0  0  0  0  0  0  0  0  0  0
   26.0926   -6.0561  -17.2511 O   0  0  0  0  0  0  0  0  0  0  0  0
  2  1  1  1
  3  2  1  0
  3  4  1  0
  5  6  2  0
  5  2  1  0
  7  8  1  0
  8  9  2  0
  8 10  1  0
 11 10  1  6
 11 13  1  0
 11 12  1  0
 12  5  1  0
 13 15  1  0
 14 13  2  0
 15 16  1  0
 16 17  1  1
 17 18  1  0
 18 23  2  0
 19 20  2  0
 19 18  1  0
 20 21  1  0
 21 22  2  0
 23 22  1  0
 24 25  1  0
 24 16  1  0
 26 24  2  0
M  END
$$$$
