GPC.pdb
     RDKit          3D

 18 18  0  0  1  0  0  0  0  0999 V2000
   16.8923  -11.2708  -15.9631 N   0  0  0  0  0  0  0  0  0  0  0  0
   17.9929  -10.7869  -16.8441 C   0  0  0  0  0  0  0  0  0  0  0  0
   18.9063   -9.9880  -16.0310 C   0  0  0  0  0  0  0  0  0  0  0  0
   18.2789   -9.2770  -15.1097 O   0  0  0  0  0  0  0  0  0  0  0  0
   20.2807   -9.8552  -16.0648 N   0  0  0  0  0  0  0  0  0  0  0  0
   21.1668  -11.0562  -16.2118 C   0  0  0  0  0  0  0  0  0  0  0  0
   21.9256  -10.6213  -17.4495 C   0  0  0  0  0  0  0  0  0  0  0  0
   22.0066   -9.1143  -17.3252 C   0  0  0  0  0  0  0  0  0  0  0  0
   21.2238   -8.8342  -15.9918 C   0  0  1  0  0  0  0  0  0  0  0  0
   20.8878   -7.4447  -15.9004 C   0  0  0  0  0  0  0  0  0  0  0  0
   20.0500   -6.8353  -16.5400 O   0  0  0  0  0  0  0  0  0  0  0  0
   21.6326   -6.6639  -14.9300 N   0  0  0  0  0  0  0  0  0  0  0  0
   21.3660   -5.2492  -14.7868 C   0  0  1  0  0  0  0  0  0  0  0  0
   21.5488   -4.7998  -13.3486 C   0  0  0  0  0  0  0  0  0  0  0  0
   21.2695   -3.0140  -13.2651 S   0  0  0  0  0  0  0  0  0  0  0  0
   22.3444   -4.4690  -15.6021 C   0  0  0  0  0  0  0  0  0  0  0  0
   23.5480   -4.8270  -15.6372 O   0  0  0  0  0  0  0  0  0  0  0  0
   21.8856   -3.3681  -16.2971 O   0  0  0  0  0  0  0  0  0  0  0  0
  1  2  1  0
  3  4  2  0
  3  2  1  0
  5  3  1  0
  6  5  1  0
  7  6  1  0
  8  7  1  0
  8  9  1  0
  9  5  1  0
 10 12  1  0
  9 10  1  6
 11 10  2  0
 13 12  1  0
 13 16  1  0
 13 14  1  1
 14 15  1  0
 16 18  1  0
 17 16  2  0
M  END
$$$$
