GPC.pdb
     RDKit          3D

 18 18  0  0  1  0  0  0  0  0999 V2000
   19.0352  -13.4336  -16.6813 N   0  0  0  0  0  0  0  0  0  0  0  0
   19.6802  -12.4990  -17.6467 C   0  0  0  0  0  0  0  0  0  0  0  0
   20.3436  -11.4452  -16.8832 C   0  0  0  0  0  0  0  0  0  0  0  0
   19.6121  -11.0124  -15.8705 O   0  0  0  0  0  0  0  0  0  0  0  0
   21.5759  -10.8415  -17.0401 N   0  0  0  0  0  0  0  0  0  0  0  0
   22.7893  -11.6488  -17.3940 C   0  0  0  0  0  0  0  0  0  0  0  0
   23.1915  -10.9043  -18.6513 C   0  0  0  0  0  0  0  0  0  0  0  0
   22.7736   -9.4733  -18.3854 C   0  0  0  0  0  0  0  0  0  0  0  0
   22.1195   -9.5627  -16.9594 C   0  0  1  0  0  0  0  0  0  0  0  0
   21.3483   -8.3846  -16.6964 C   0  0  0  0  0  0  0  0  0  0  0  0
   20.3644   -7.9874  -17.2935 O   0  0  0  0  0  0  0  0  0  0  0  0
   21.7879   -7.5611  -15.5852 N   0  0  0  0  0  0  0  0  0  0  0  0
   21.0700   -6.3479  -15.2599 C   0  0  1  0  0  0  0  0  0  0  0  0
   20.2243   -6.5294  -14.0126 C   0  0  0  0  0  0  0  0  0  0  0  0
   19.4442   -4.9464  -13.6126 S   0  0  0  0  0  0  0  0  0  0  0  0
   22.0422   -5.2552  -14.9574 C   0  0  0  0  0  0  0  0  0  0  0  0
   23.1602   -5.5393  -14.4600 O   0  0  0  0  0  0  0  0  0  0  0  0
   21.6731   -3.9552  -15.2387 O   0  0  0  0  0  0  0  0  0  0  0  0
  1  2  1  0
  3  4  2  0
  3  2  1  0
  5  3  1  0
  6  5  1  0
  7  6  1  0
  8  7  1  0
  8  9  1  0
  9  5  1  0
 10 12  1  0
  9 10  1  6
 11 10  2  0
 13 12  1  0
 13 16  1  0
 13 14  1  1
 14 15  1  0
 16 18  1  0
 17 16  2  0
M  END
$$$$
