GPC.pdb
     RDKit          3D

 18 18  0  0  1  0  0  0  0  0999 V2000
   24.4382  -14.4993  -18.4271 N   0  0  0  0  0  0  0  0  0  0  0  0
   25.1825  -13.2089  -18.3768 C   0  0  0  0  0  0  0  0  0  0  0  0
   24.5109  -12.3354  -17.4179 C   0  0  0  0  0  0  0  0  0  0  0  0
   23.1959  -12.3443  -17.5548 O   0  0  0  0  0  0  0  0  0  0  0  0
   25.0090  -11.5225  -16.4184 N   0  0  0  0  0  0  0  0  0  0  0  0
   26.1226  -11.9899  -15.5293 C   0  0  0  0  0  0  0  0  0  0  0  0
   27.1021  -10.8634  -15.7906 C   0  0  0  0  0  0  0  0  0  0  0  0
   26.2225   -9.6540  -16.0285 C   0  0  0  0  0  0  0  0  0  0  0  0
   24.7737  -10.2499  -15.9062 C   0  0  1  0  0  0  0  0  0  0  0  0
   23.8169   -9.3353  -16.4538 C   0  0  0  0  0  0  0  0  0  0  0  0
   23.6928   -8.9908  -17.6149 O   0  0  0  0  0  0  0  0  0  0  0  0
   22.8796   -8.7448  -15.5162 N   0  0  0  0  0  0  0  0  0  0  0  0
   21.8778   -7.8144  -15.9892 C   0  0  1  0  0  0  0  0  0  0  0  0
   20.5102   -8.4695  -16.0569 C   0  0  0  0  0  0  0  0  0  0  0  0
   19.2955   -7.2149  -16.5312 S   0  0  0  0  0  0  0  0  0  0  0  0
   21.7558   -6.6771  -15.0288 C   0  0  0  0  0  0  0  0  0  0  0  0
   21.7912   -6.9015  -13.7934 O   0  0  0  0  0  0  0  0  0  0  0  0
   21.6066   -5.4033  -15.5394 O   0  0  0  0  0  0  0  0  0  0  0  0
  1  2  1  0
  3  4  2  0
  3  2  1  0
  5  3  1  0
  6  5  1  0
  7  6  1  0
  8  7  1  0
  8  9  1  0
  9  5  1  0
 10 12  1  0
  9 10  1  6
 11 10  2  0
 13 12  1  0
 13 16  1  0
 13 14  1  1
 14 15  1  0
 16 18  1  0
 17 16  2  0
M  END
$$$$
