GPC.pdb
     RDKit          3D

 18 18  0  0  1  0  0  0  0  0999 V2000
   16.4705   -9.1744  -16.2758 N   0  0  0  0  0  0  0  0  0  0  0  0
   17.3695   -9.4578  -15.1211 C   0  0  0  0  0  0  0  0  0  0  0  0
   16.6552   -9.1116  -13.8950 C   0  0  0  0  0  0  0  0  0  0  0  0
   16.0494   -7.9390  -13.9722 O   0  0  0  0  0  0  0  0  0  0  0  0
   16.5122   -9.7883  -12.6993 N   0  0  0  0  0  0  0  0  0  0  0  0
   16.3749  -11.2814  -12.6714 C   0  0  0  0  0  0  0  0  0  0  0  0
   17.5395  -11.5937  -11.7533 C   0  0  0  0  0  0  0  0  0  0  0  0
   17.6027  -10.4057  -10.8164 C   0  0  0  0  0  0  0  0  0  0  0  0
   16.4410   -9.4876  -11.3423 C   0  0  1  0  0  0  0  0  0  0  0  0
   16.5801   -8.1645  -10.8113 C   0  0  0  0  0  0  0  0  0  0  0  0
   17.5616   -7.4450  -10.8466 O   0  0  0  0  0  0  0  0  0  0  0  0
   15.4134   -7.6091  -10.1504 N   0  0  0  0  0  0  0  0  0  0  0  0
   15.4742   -6.2824   -9.5767 C   0  0  1  0  0  0  0  0  0  0  0  0
   14.5850   -5.3154  -10.3370 C   0  0  0  0  0  0  0  0  0  0  0  0
   14.6754   -3.6977   -9.5312 S   0  0  0  0  0  0  0  0  0  0  0  0
   14.9603   -6.3179   -8.1748 C   0  0  0  0  0  0  0  0  0  0  0  0
   13.9811   -7.0516   -7.8910 O   0  0  0  0  0  0  0  0  0  0  0  0
   15.5878   -5.5329   -7.2284 O   0  0  0  0  0  0  0  0  0  0  0  0
  1  2  1  0
  3  4  2  0
  3  2  1  0
  5  3  1  0
  6  5  1  0
  7  6  1  0
  8  7  1  0
  8  9  1  0
  9  5  1  0
 10 12  1  0
  9 10  1  6
 11 10  2  0
 13 12  1  0
 13 16  1  0
 13 14  1  6
 14 15  1  0
 16 18  1  0
 17 16  2  0
M  END
$$$$
