GPC.pdb
     RDKit          3D

 18 18  0  0  1  0  0  0  0  0999 V2000
   13.9536  -25.0341   -9.7539 N   0  0  0  0  0  0  0  0  0  0  0  0
   14.9678  -24.2416   -9.0022 C   0  0  0  0  0  0  0  0  0  0  0  0
   15.7478  -25.1651   -8.1822 C   0  0  0  0  0  0  0  0  0  0  0  0
   14.9987  -26.0844   -7.5976 O   0  0  0  0  0  0  0  0  0  0  0  0
   17.1026  -25.2348   -7.9227 N   0  0  0  0  0  0  0  0  0  0  0  0
   18.1081  -24.9176   -8.9892 C   0  0  0  0  0  0  0  0  0  0  0  0
   18.8678  -23.8276   -8.2601 C   0  0  0  0  0  0  0  0  0  0  0  0
   18.7946  -24.2346   -6.8033 C   0  0  0  0  0  0  0  0  0  0  0  0
   17.9366  -25.5501   -6.8539 C   0  0  1  0  0  0  0  0  0  0  0  0
   17.4616  -25.8792   -5.5432 C   0  0  0  0  0  0  0  0  0  0  0  0
   16.6600  -25.2648   -4.8633 O   0  0  0  0  0  0  0  0  0  0  0  0
   17.9970  -27.0900   -4.9486 N   0  0  0  0  0  0  0  0  0  0  0  0
   17.5521  -27.5053   -3.6362 C   0  0  1  0  0  0  0  0  0  0  0  0
   17.8260  -28.9804   -3.4061 C   0  0  0  0  0  0  0  0  0  0  0  0
   17.4280  -29.3767   -1.6859 S   0  0  0  0  0  0  0  0  0  0  0  0
   18.3169  -26.7639   -2.5892 C   0  0  0  0  0  0  0  0  0  0  0  0
   19.5334  -26.5102   -2.7720 O   0  0  0  0  0  0  0  0  0  0  0  0
   17.6511  -26.3789   -1.4428 O   0  0  0  0  0  0  0  0  0  0  0  0
  1  2  1  0
  3  4  2  0
  3  2  1  0
  5  3  1  0
  6  5  1  0
  7  6  1  0
  8  7  1  0
  8  9  1  0
  9  5  1  0
 10 12  1  0
  9 10  1  1
 11 10  2  0
 13 12  1  0
 13 16  1  0
 13 14  1  1
 14 15  1  0
 16 18  1  0
 17 16  2  0
M  END
$$$$
