GPC.pdb
     RDKit          3D

 18 18  0  0  1  0  0  0  0  0999 V2000
   24.1520  -14.0148  -18.6154 N   0  0  0  0  0  0  0  0  0  0  0  0
   25.0342  -12.8309  -18.4105 C   0  0  0  0  0  0  0  0  0  0  0  0
   24.4051  -11.9633  -17.4180 C   0  0  0  0  0  0  0  0  0  0  0  0
   23.0847  -12.0192  -17.4563 O   0  0  0  0  0  0  0  0  0  0  0  0
   24.9469  -11.1159  -16.4713 N   0  0  0  0  0  0  0  0  0  0  0  0
   26.0613  -11.5722  -15.5774 C   0  0  0  0  0  0  0  0  0  0  0  0
   27.0711  -10.4935  -15.9141 C   0  0  0  0  0  0  0  0  0  0  0  0
   26.2260   -9.2701  -16.2009 C   0  0  0  0  0  0  0  0  0  0  0  0
   24.7615   -9.8113  -16.0232 C   0  0  1  0  0  0  0  0  0  0  0  0
   23.8244   -8.8959  -16.6024 C   0  0  0  0  0  0  0  0  0  0  0  0
   23.7485   -8.5402  -17.7644 O   0  0  0  0  0  0  0  0  0  0  0  0
   22.8445   -8.3195  -15.7003 N   0  0  0  0  0  0  0  0  0  0  0  0
   21.8085   -7.4538  -16.2203 C   0  0  1  0  0  0  0  0  0  0  0  0
   20.5384   -7.5632  -15.3964 C   0  0  0  0  0  0  0  0  0  0  0  0
   19.8397   -9.2153  -15.6351 S   0  0  0  0  0  0  0  0  0  0  0  0
   22.2514   -6.0304  -16.1293 C   0  0  0  0  0  0  0  0  0  0  0  0
   23.3026   -5.7463  -15.5032 O   0  0  0  0  0  0  0  0  0  0  0  0
   21.4799   -5.0650  -16.7444 O   0  0  0  0  0  0  0  0  0  0  0  0
  1  2  1  0
  3  4  2  0
  3  2  1  0
  5  3  1  0
  6  5  1  0
  7  6  1  0
  8  7  1  0
  8  9  1  0
  9  5  1  0
 10 12  1  0
  9 10  1  6
 11 10  2  0
 13 12  1  0
 13 16  1  0
 13 14  1  1
 14 15  1  0
 16 18  1  0
 17 16  2  0
M  END
$$$$
