GPC.pdb
     RDKit          3D

 18 18  0  0  1  0  0  0  0  0999 V2000
   22.1698  -10.9794  -20.4205 N   0  0  0  0  0  0  0  0  0  0  0  0
   22.9537   -9.7169  -20.3042 C   0  0  0  0  0  0  0  0  0  0  0  0
   22.8696   -9.2571  -18.9203 C   0  0  0  0  0  0  0  0  0  0  0  0
   21.6937   -9.5084  -18.3706 O   0  0  0  0  0  0  0  0  0  0  0  0
   23.7906   -8.6195  -18.1123 N   0  0  0  0  0  0  0  0  0  0  0  0
   25.2383   -9.0102  -18.1382 C   0  0  0  0  0  0  0  0  0  0  0  0
   25.8280   -7.6534  -18.4671 C   0  0  0  0  0  0  0  0  0  0  0  0
   24.8923   -6.6694  -17.7967 C   0  0  0  0  0  0  0  0  0  0  0  0
   23.8039   -7.6060  -17.1584 C   0  0  1  0  0  0  0  0  0  0  0  0
   22.6492   -6.8414  -16.7925 C   0  0  0  0  0  0  0  0  0  0  0  0
   21.8210   -6.3399  -17.5306 O   0  0  0  0  0  0  0  0  0  0  0  0
   22.4354   -6.6366  -15.3717 N   0  0  0  0  0  0  0  0  0  0  0  0
   21.3087   -5.8499  -14.9192 C   0  0  1  0  0  0  0  0  0  0  0  0
   20.5514   -6.5627  -13.8137 C   0  0  0  0  0  0  0  0  0  0  0  0
   19.6939   -7.9859  -14.5305 S   0  0  0  0  0  0  0  0  0  0  0  0
   21.7961   -4.5635  -14.3377 C   0  0  0  0  0  0  0  0  0  0  0  0
   23.0191   -4.4179  -14.0905 O   0  0  0  0  0  0  0  0  0  0  0  0
   20.8736   -3.5672  -14.0891 O   0  0  0  0  0  0  0  0  0  0  0  0
  1  2  1  0
  3  4  2  0
  3  2  1  0
  5  3  1  0
  6  5  1  0
  7  6  1  0
  8  7  1  0
  8  9  1  0
  9  5  1  0
 10 12  1  0
  9 10  1  6
 11 10  2  0
 13 12  1  0
 13 16  1  0
 13 14  1  1
 14 15  1  0
 16 18  1  0
 17 16  2  0
M  END
$$$$
