GPC.pdb
     RDKit          3D

 18 18  0  0  1  0  0  0  0  0999 V2000
   28.1610  -19.6372  -15.6407 N   0  0  0  0  0  0  0  0  0  0  0  0
   27.6455  -19.4353  -14.2568 C   0  0  0  0  0  0  0  0  0  0  0  0
   26.4218  -20.2192  -14.1101 C   0  0  0  0  0  0  0  0  0  0  0  0
   25.6805  -20.2160  -15.2048 O   0  0  0  0  0  0  0  0  0  0  0  0
   25.9236  -20.9437  -13.0449 N   0  0  0  0  0  0  0  0  0  0  0  0
   26.8382  -21.7300  -12.1536 C   0  0  0  0  0  0  0  0  0  0  0  0
   26.4551  -21.0981  -10.8305 C   0  0  0  0  0  0  0  0  0  0  0  0
   24.9894  -20.7542  -10.9936 C   0  0  0  0  0  0  0  0  0  0  0  0
   24.6874  -21.2144  -12.4654 C   0  0  1  0  0  0  0  0  0  0  0  0
   23.4539  -20.6430  -12.9169 C   0  0  0  0  0  0  0  0  0  0  0  0
   23.0898  -19.4848  -12.8256 O   0  0  0  0  0  0  0  0  0  0  0  0
   22.5216  -21.5491  -13.5619 N   0  0  0  0  0  0  0  0  0  0  0  0
   21.2982  -21.0341  -14.1373 C   0  0  1  0  0  0  0  0  0  0  0  0
   20.9600  -21.7469  -15.4340 C   0  0  0  0  0  0  0  0  0  0  0  0
   19.3781  -21.1127  -16.0421 S   0  0  0  0  0  0  0  0  0  0  0  0
   20.1594  -21.2877  -13.2049 C   0  0  0  0  0  0  0  0  0  0  0  0
   20.0566  -22.4050  -12.6401 O   0  0  0  0  0  0  0  0  0  0  0  0
   19.2485  -20.2722  -12.9940 O   0  0  0  0  0  0  0  0  0  0  0  0
  1  2  1  0
  3  4  2  0
  3  2  1  0
  5  3  1  0
  6  5  1  0
  7  6  1  0
  8  7  1  0
  8  9  1  0
  9  5  1  0
 10 12  1  0
  9 10  1  6
 11 10  2  0
 13 12  1  0
 13 16  1  0
 13 14  1  6
 14 15  1  0
 16 18  1  0
 17 16  2  0
M  END
$$$$
