GPC.pdb
     RDKit          3D

 18 18  0  0  1  0  0  0  0  0999 V2000
   28.3654  -21.2205  -15.0113 N   0  0  0  0  0  0  0  0  0  0  0  0
   27.7152  -20.4581  -13.9079 C   0  0  0  0  0  0  0  0  0  0  0  0
   26.4049  -21.0527  -13.6568 C   0  0  0  0  0  0  0  0  0  0  0  0
   25.7831  -21.4035  -14.7696 O   0  0  0  0  0  0  0  0  0  0  0  0
   25.7254  -21.3021  -12.4804 N   0  0  0  0  0  0  0  0  0  0  0  0
   26.4480  -21.8023  -11.2652 C   0  0  0  0  0  0  0  0  0  0  0  0
   26.0388  -20.7091  -10.2987 C   0  0  0  0  0  0  0  0  0  0  0  0
   24.6508  -20.3107  -10.7547 C   0  0  0  0  0  0  0  0  0  0  0  0
   24.4190  -21.2332  -12.0055 C   0  0  1  0  0  0  0  0  0  0  0  0
   23.3152  -20.7471  -12.7783 C   0  0  0  0  0  0  0  0  0  0  0  0
   23.1391  -19.6193  -13.2016 O   0  0  0  0  0  0  0  0  0  0  0  0
   22.2784  -21.7108  -13.0984 N   0  0  0  0  0  0  0  0  0  0  0  0
   21.1768  -21.3260  -13.9536 C   0  0  1  0  0  0  0  0  0  0  0  0
   20.8140  -22.4425  -14.9157 C   0  0  0  0  0  0  0  0  0  0  0  0
   19.3583  -21.9339  -15.8627 S   0  0  0  0  0  0  0  0  0  0  0  0
   19.9620  -21.0708  -13.1230 C   0  0  0  0  0  0  0  0  0  0  0  0
   19.6886  -21.8420  -12.1699 O   0  0  0  0  0  0  0  0  0  0  0  0
   19.1726  -19.9826  -13.4362 O   0  0  0  0  0  0  0  0  0  0  0  0
  1  2  1  0
  3  4  2  0
  3  2  1  0
  5  3  1  0
  6  5  1  0
  7  6  1  0
  8  7  1  0
  8  9  1  0
  9  5  1  0
 10 12  1  0
  9 10  1  6
 11 10  2  0
 13 12  1  0
 13 16  1  0
 13 14  1  6
 14 15  1  0
 16 18  1  0
 17 16  2  0
M  END
$$$$
