GPC.pdb
     RDKit          3D

 18 18  0  0  1  0  0  0  0  0999 V2000
   22.7683  -13.3344  -18.3528 N   0  0  0  0  0  0  0  0  0  0  0  0
   23.8605  -12.3203  -18.3690 C   0  0  0  0  0  0  0  0  0  0  0  0
   23.5664  -11.3210  -17.3451 C   0  0  0  0  0  0  0  0  0  0  0  0
   22.2886  -10.9824  -17.3159 O   0  0  0  0  0  0  0  0  0  0  0  0
   24.3806  -10.6873  -16.4269 N   0  0  0  0  0  0  0  0  0  0  0  0
   25.4257  -11.4505  -15.6689 C   0  0  0  0  0  0  0  0  0  0  0  0
   26.6335  -10.6253  -16.0652 C   0  0  0  0  0  0  0  0  0  0  0  0
   26.0895   -9.2203  -16.2178 C   0  0  0  0  0  0  0  0  0  0  0  0
   24.5593   -9.4063  -15.9128 C   0  0  1  0  0  0  0  0  0  0  0  0
   23.8253   -8.2597  -16.3585 C   0  0  0  0  0  0  0  0  0  0  0  0
   23.7167   -7.8382  -17.4955 O   0  0  0  0  0  0  0  0  0  0  0  0
   23.1243   -7.5056  -15.3357 N   0  0  0  0  0  0  0  0  0  0  0  0
   22.3968   -6.3080  -15.6956 C   0  0  1  0  0  0  0  0  0  0  0  0
   20.9008   -6.5630  -15.7231 C   0  0  0  0  0  0  0  0  0  0  0  0
   20.0589   -5.0023  -16.0833 S   0  0  0  0  0  0  0  0  0  0  0  0
   22.6278   -5.2517  -14.6653 C   0  0  0  0  0  0  0  0  0  0  0  0
   22.6400   -5.5636  -13.4486 O   0  0  0  0  0  0  0  0  0  0  0  0
   22.8223   -3.9534  -15.0921 O   0  0  0  0  0  0  0  0  0  0  0  0
  1  2  1  0
  3  4  2  0
  3  2  1  0
  5  3  1  0
  6  5  1  0
  7  6  1  0
  8  7  1  0
  8  9  1  0
  9  5  1  0
 10 12  1  0
  9 10  1  6
 11 10  2  0
 13 12  1  0
 13 16  1  0
 13 14  1  1
 14 15  1  0
 16 18  1  0
 17 16  2  0
M  END
$$$$
