GPC.pdb
     RDKit          3D

 18 18  0  0  1  0  0  0  0  0999 V2000
   15.8237  -23.1434  -11.0670 N   0  0  0  0  0  0  0  0  0  0  0  0
   16.8267  -23.1016   -9.9653 C   0  0  0  0  0  0  0  0  0  0  0  0
   16.2757  -23.8262   -8.8230 C   0  0  0  0  0  0  0  0  0  0  0  0
   14.9735  -23.6441   -8.6843 O   0  0  0  0  0  0  0  0  0  0  0  0
   16.8740  -24.6480   -7.8879 N   0  0  0  0  0  0  0  0  0  0  0  0
   18.0326  -25.5239   -8.2618 C   0  0  0  0  0  0  0  0  0  0  0  0
   19.0296  -25.0218   -7.2367 C   0  0  0  0  0  0  0  0  0  0  0  0
   18.1781  -24.6537   -6.0398 C   0  0  0  0  0  0  0  0  0  0  0  0
   16.7220  -24.9657   -6.5414 C   0  0  1  0  0  0  0  0  0  0  0  0
   15.7606  -24.3446   -5.6801 C   0  0  0  0  0  0  0  0  0  0  0  0
   15.5931  -23.1549   -5.4831 O   0  0  0  0  0  0  0  0  0  0  0  0
   14.8767  -25.2359   -4.9518 N   0  0  0  0  0  0  0  0  0  0  0  0
   13.9110  -24.6913   -4.0223 C   0  0  1  0  0  0  0  0  0  0  0  0
   12.8508  -25.7183   -3.6691 C   0  0  0  0  0  0  0  0  0  0  0  0
   11.6755  -24.9589   -2.5218 S   0  0  0  0  0  0  0  0  0  0  0  0
   14.5935  -24.3298   -2.7439 C   0  0  0  0  0  0  0  0  0  0  0  0
   15.5126  -25.0632   -2.3021 O   0  0  0  0  0  0  0  0  0  0  0  0
   14.1848  -23.1879   -2.0848 O   0  0  0  0  0  0  0  0  0  0  0  0
  1  2  1  0
  3  4  2  0
  3  2  1  0
  5  3  1  0
  6  5  1  0
  7  6  1  0
  8  7  1  0
  8  9  1  0
  9  5  1  0
 10 12  1  0
  9 10  1  1
 11 10  2  0
 13 12  1  0
 13 16  1  0
 13 14  1  1
 14 15  1  0
 16 18  1  0
 17 16  2  0
M  END
$$$$
