GPC.pdb
     RDKit          3D

 18 18  0  0  1  0  0  0  0  0999 V2000
   28.2767  -20.9789  -14.4706 N   0  0  0  0  0  0  0  0  0  0  0  0
   27.4742  -20.3020  -13.4126 C   0  0  0  0  0  0  0  0  0  0  0  0
   26.2085  -21.0182  -13.2760 C   0  0  0  0  0  0  0  0  0  0  0  0
   25.7737  -21.5077  -14.4246 O   0  0  0  0  0  0  0  0  0  0  0  0
   25.4112  -21.2617  -12.1747 N   0  0  0  0  0  0  0  0  0  0  0  0
   26.0140  -21.6655  -10.8621 C   0  0  0  0  0  0  0  0  0  0  0  0
   25.4315  -20.5617  -10.0023 C   0  0  0  0  0  0  0  0  0  0  0  0
   24.0860  -20.2705  -10.6329 C   0  0  0  0  0  0  0  0  0  0  0  0
   24.0563  -21.2559  -11.8565 C   0  0  1  0  0  0  0  0  0  0  0  0
   23.0245  -20.8723  -12.7731 C   0  0  0  0  0  0  0  0  0  0  0  0
   22.9526  -19.8508  -13.4317 O   0  0  0  0  0  0  0  0  0  0  0  0
   21.9301  -21.8105  -12.9413 N   0  0  0  0  0  0  0  0  0  0  0  0
   20.8528  -21.5034  -13.8568 C   0  0  1  0  0  0  0  0  0  0  0  0
   20.2202  -22.7703  -14.4032 C   0  0  0  0  0  0  0  0  0  0  0  0
   18.8312  -22.3062  -15.4660 S   0  0  0  0  0  0  0  0  0  0  0  0
   19.7727  -20.7689  -13.1324 C   0  0  0  0  0  0  0  0  0  0  0  0
   19.4679  -21.1089  -11.9623 O   0  0  0  0  0  0  0  0  0  0  0  0
   19.1396  -19.7289  -13.7829 O   0  0  0  0  0  0  0  0  0  0  0  0
  1  2  1  0
  3  4  2  0
  3  2  1  0
  5  3  1  0
  6  5  1  0
  7  6  1  0
  8  7  1  0
  8  9  1  0
  9  5  1  0
 10 12  1  0
  9 10  1  6
 11 10  2  0
 13 12  1  0
 13 16  1  0
 13 14  1  1
 14 15  1  0
 16 18  1  0
 17 16  2  0
M  END
$$$$
