IQD.pdb
     RDKit          3D

 26 25  0  0  1  0  0  0  0  0999 V2000
   28.6693  -20.0475   -5.8617 C   0  0  0  0  0  0  0  0  0  0  0  0
   27.2608  -20.3414   -6.2970 C   0  0  0  0  0  0  0  0  0  0  0  0
   26.9499  -19.8828   -7.6732 C   0  0  2  0  0  0  0  0  0  0  0  0
   27.2369  -18.3963   -7.7369 C   0  0  0  0  0  0  0  0  0  0  0  0
   25.6173  -20.2253   -8.2257 C   0  0  2  0  0  0  0  0  0  0  0  0
   25.5178  -21.7051   -8.1070 N   0  0  0  0  0  0  0  0  0  0  0  0
   25.3799  -19.9311   -9.6366 C   0  0  0  0  0  0  0  0  0  0  0  0
   25.0030  -18.7702  -10.0177 O   0  0  0  0  0  0  0  0  0  0  0  0
   25.9834  -22.4644  -15.5012 N   0  0  0  0  0  0  0  0  0  0  0  0
   25.5424  -23.2928  -14.4410 C   0  0  0  0  0  0  0  0  0  0  0  0
   25.0748  -24.4217  -14.7197 O   0  0  0  0  0  0  0  0  0  0  0  0
   25.6213  -22.8539  -13.0034 C   0  0  0  0  0  0  0  0  0  0  0  0
   26.1288  -21.4376  -12.9171 C   0  0  0  0  0  0  0  0  0  0  0  0
   25.2500  -20.5368  -12.0643 C   0  0  2  0  0  0  0  0  0  0  0  0
   25.5460  -20.8737  -10.6741 N   0  0  0  0  0  0  0  0  0  0  0  0
   23.8380  -20.6140  -12.3407 C   0  0  0  0  0  0  0  0  0  0  0  0
   23.1266  -21.3716  -11.6090 O   0  0  0  0  0  0  0  0  0  0  0  0
   23.1783  -19.9014  -13.3751 N   0  0  0  0  0  0  0  0  0  0  0  0
   21.7151  -19.8955  -13.4647 C   0  0  1  0  0  0  0  0  0  0  0  0
   21.1389  -18.5183  -13.4550 C   0  0  0  0  0  0  0  0  0  0  0  0
   19.6683  -18.4988  -13.5690 C   0  0  0  0  0  0  0  0  0  0  0  0
   18.9972  -19.5440  -13.5609 O   0  0  0  0  0  0  0  0  0  0  0  0
   21.3008  -20.6712  -14.6654 C   0  0  0  0  0  0  0  0  0  0  0  0
   20.1290  -21.4147  -14.7043 O   0  0  0  0  0  0  0  0  0  0  0  0
   19.0333  -17.2718  -13.6876 O   0  0  0  0  0  0  0  0  0  0  0  0
   22.0207  -20.6701  -15.6960 O   0  0  0  0  0  0  0  0  0  0  0  0
  1  2  1  0
  2  3  1  0
  3  5  1  0
  3  4  1  1
  5  7  1  0
  5  6  1  6
  7  8  2  0
  9 10  1  0
 10 12  1  0
 10 11  2  0
 12 13  1  0
 14 13  1  6
 15 14  1  0
 15  7  1  0
 16 17  2  0
 16 14  1  0
 18 16  1  0
 19 18  1  0
 19 23  1  0
 19 20  1  6
 21 20  1  0
 22 21  2  0
 23 24  1  0
 25 21  1  0
 26 23  2  0
M  END
$$$$
