IQD.pdb
     RDKit          3D

 26 25  0  0  1  0  0  0  0  0999 V2000
   28.1549  -27.5064  -16.7930 C   0  0  0  0  0  0  0  0  0  0  0  0
   27.8182  -26.1365  -17.3123 C   0  0  0  0  0  0  0  0  0  0  0  0
   26.9013  -25.3701  -16.4331 C   0  0  2  0  0  0  0  0  0  0  0  0
   25.6529  -26.2052  -16.2333 C   0  0  0  0  0  0  0  0  0  0  0  0
   26.5908  -23.9723  -16.8180 C   0  0  2  0  0  0  0  0  0  0  0  0
   27.9007  -23.2667  -16.8038 N   0  0  0  0  0  0  0  0  0  0  0  0
   25.7263  -23.2062  -15.9240 C   0  0  0  0  0  0  0  0  0  0  0  0
   26.1372  -22.8155  -14.7779 O   0  0  0  0  0  0  0  0  0  0  0  0
   24.4314  -20.4676  -12.8292 N   0  0  0  0  0  0  0  0  0  0  0  0
   23.2223  -19.8490  -13.2292 C   0  0  0  0  0  0  0  0  0  0  0  0
   22.5149  -19.2982  -12.3535 O   0  0  0  0  0  0  0  0  0  0  0  0
   22.7722  -19.8379  -14.6655 C   0  0  0  0  0  0  0  0  0  0  0  0
   23.6968  -20.6773  -15.5088 C   0  0  0  0  0  0  0  0  0  0  0  0
   23.5431  -22.1696  -15.2632 C   0  0  2  0  0  0  0  0  0  0  0  0
   24.4014  -22.8355  -16.2397 N   0  0  0  0  0  0  0  0  0  0  0  0
   22.1917  -22.6663  -15.3174 C   0  0  0  0  0  0  0  0  0  0  0  0
   21.6580  -22.8224  -16.4603 O   0  0  0  0  0  0  0  0  0  0  0  0
   21.4078  -22.9976  -14.1822 N   0  0  0  0  0  0  0  0  0  0  0  0
   20.0450  -23.5146  -14.3385 C   0  0  1  0  0  0  0  0  0  0  0  0
   19.5189  -24.1486  -13.0935 C   0  0  0  0  0  0  0  0  0  0  0  0
   18.1541  -24.6880  -13.2437 C   0  0  0  0  0  0  0  0  0  0  0  0
   17.7858  -25.2565  -14.2849 O   0  0  0  0  0  0  0  0  0  0  0  0
   19.1649  -22.4188  -14.8280 C   0  0  0  0  0  0  0  0  0  0  0  0
   18.1691  -22.6283  -15.7723 O   0  0  0  0  0  0  0  0  0  0  0  0
   17.2705  -24.5482  -12.1841 O   0  0  0  0  0  0  0  0  0  0  0  0
   19.3076  -21.2505  -14.3859 O   0  0  0  0  0  0  0  0  0  0  0  0
  1  2  1  0
  2  3  1  0
  3  5  1  0
  3  4  1  6
  5  7  1  0
  5  6  1  1
  7  8  2  0
  9 10  1  0
 10 12  1  0
 10 11  2  0
 12 13  1  0
 14 13  1  6
 15 14  1  0
 15  7  1  0
 16 17  2  0
 16 14  1  0
 18 16  1  0
 19 18  1  0
 19 23  1  0
 19 20  1  1
 21 20  1  0
 22 21  2  0
 23 24  1  0
 25 21  1  0
 26 23  2  0
M  END
$$$$
