IQD.pdb
     RDKit          3D

 26 25  0  0  1  0  0  0  0  0999 V2000
    8.9483  -13.9955    1.8035 C   0  0  0  0  0  0  0  0  0  0  0  0
   10.0285  -14.6974    1.0288 C   0  0  0  0  0  0  0  0  0  0  0  0
   10.5191  -15.9399    1.6741 C   0  0  2  0  0  0  0  0  0  0  0  0
   10.9567  -15.5841    3.0806 C   0  0  0  0  0  0  0  0  0  0  0  0
   11.5400  -16.7329    0.9481 C   0  0  2  0  0  0  0  0  0  0  0  0
   10.8318  -17.2804   -0.2404 N   0  0  0  0  0  0  0  0  0  0  0  0
   12.1021  -17.8930    1.6348 C   0  0  0  0  0  0  0  0  0  0  0  0
   11.6026  -19.0602    1.4825 O   0  0  0  0  0  0  0  0  0  0  0  0
   15.3930  -21.5142    0.0208 N   0  0  0  0  0  0  0  0  0  0  0  0
   15.2564  -22.0730    1.3145 C   0  0  0  0  0  0  0  0  0  0  0  0
   15.5872  -23.2695    1.4864 O   0  0  0  0  0  0  0  0  0  0  0  0
   14.7292  -21.2722    2.4749 C   0  0  0  0  0  0  0  0  0  0  0  0
   14.2036  -19.9435    1.9962 C   0  0  0  0  0  0  0  0  0  0  0  0
   13.7611  -19.0307    3.1285 C   0  0  2  0  0  0  0  0  0  0  0  0
   13.2174  -17.8306    2.4978 N   0  0  0  0  0  0  0  0  0  0  0  0
   14.7813  -18.7082    4.0934 C   0  0  0  0  0  0  0  0  0  0  0  0
   15.5282  -17.7064    3.8611 O   0  0  0  0  0  0  0  0  0  0  0  0
   15.0148  -19.4300    5.2924 N   0  0  0  0  0  0  0  0  0  0  0  0
   16.0323  -18.9839    6.2487 C   0  0  1  0  0  0  0  0  0  0  0  0
   15.8741  -17.5513    6.6379 C   0  0  0  0  0  0  0  0  0  0  0  0
   16.7579  -17.1455    7.7470 C   0  0  0  0  0  0  0  0  0  0  0  0
   17.1692  -17.9615    8.5884 O   0  0  0  0  0  0  0  0  0  0  0  0
   16.0201  -19.8926    7.4273 C   0  0  0  0  0  0  0  0  0  0  0  0
   16.8865  -19.7331    8.5003 O   0  0  0  0  0  0  0  0  0  0  0  0
   17.1303  -15.8129    7.8385 O   0  0  0  0  0  0  0  0  0  0  0  0
   15.2047  -20.8481    7.4783 O   0  0  0  0  0  0  0  0  0  0  0  0
  1  2  1  0
  2  3  1  0
  3  5  1  0
  3  4  1  1
  5  7  1  0
  5  6  1  6
  7  8  2  0
  9 10  1  0
 10 12  1  0
 10 11  2  0
 12 13  1  0
 14 13  1  6
 15 14  1  0
 15  7  1  0
 16 17  2  0
 16 14  1  0
 18 16  1  0
 19 18  1  0
 19 23  1  0
 19 20  1  1
 21 20  1  0
 22 21  2  0
 23 24  1  0
 25 21  1  0
 26 23  2  0
M  END
$$$$
