IQD.pdb
     RDKit          3D

 26 25  0  0  1  0  0  0  0  0999 V2000
   16.6949  -16.8843  -16.2680 C   0  0  0  0  0  0  0  0  0  0  0  0
   16.2891  -15.4538  -16.0478 C   0  0  0  0  0  0  0  0  0  0  0  0
   17.3952  -14.4817  -16.2285 C   0  0  2  0  0  0  0  0  0  0  0  0
   18.5758  -14.9742  -15.4163 C   0  0  0  0  0  0  0  0  0  0  0  0
   17.0974  -13.0503  -15.9822 C   0  0  2  0  0  0  0  0  0  0  0  0
   16.0219  -12.7062  -16.9511 N   0  0  0  0  0  0  0  0  0  0  0  0
   18.1685  -12.0891  -16.2321 C   0  0  0  0  0  0  0  0  0  0  0  0
   19.1857  -12.0143  -15.4609 O   0  0  0  0  0  0  0  0  0  0  0  0
   22.4368  -12.5531  -17.6166 N   0  0  0  0  0  0  0  0  0  0  0  0
   21.9175  -11.6182  -18.5444 C   0  0  0  0  0  0  0  0  0  0  0  0
   22.6390  -10.6522  -18.8865 O   0  0  0  0  0  0  0  0  0  0  0  0
   20.5347  -11.7562  -19.1228 C   0  0  0  0  0  0  0  0  0  0  0  0
   19.7654  -10.4723  -18.9481 C   0  0  0  0  0  0  0  0  0  0  0  0
   19.2805  -10.2529  -17.5241 C   0  0  2  0  0  0  0  0  0  0  0  0
   18.1775  -11.1882  -17.3188 N   0  0  0  0  0  0  0  0  0  0  0  0
   18.8970   -8.9009  -17.2060 C   0  0  0  0  0  0  0  0  0  0  0  0
   17.7483   -8.5029  -17.5767 O   0  0  0  0  0  0  0  0  0  0  0  0
   19.7114   -7.9754  -16.5037 N   0  0  0  0  0  0  0  0  0  0  0  0
   19.2198   -6.6291  -16.1955 C   0  0  1  0  0  0  0  0  0  0  0  0
   17.9259   -6.6405  -15.4510 C   0  0  0  0  0  0  0  0  0  0  0  0
   17.4974   -5.3021  -15.0025 C   0  0  0  0  0  0  0  0  0  0  0  0
   17.6925   -4.2872  -15.6918 O   0  0  0  0  0  0  0  0  0  0  0  0
   20.2815   -5.8810  -15.4689 C   0  0  0  0  0  0  0  0  0  0  0  0
   20.1534   -4.5390  -15.1373 O   0  0  0  0  0  0  0  0  0  0  0  0
   16.8609   -5.1911  -13.7756 O   0  0  0  0  0  0  0  0  0  0  0  0
   21.3438   -6.4624  -15.1311 O   0  0  0  0  0  0  0  0  0  0  0  0
  1  2  1  0
  2  3  1  0
  3  5  1  0
  3  4  1  1
  5  7  1  0
  5  6  1  6
  7  8  2  0
  9 10  1  0
 10 12  1  0
 10 11  2  0
 12 13  1  0
 14 13  1  6
 15 14  1  0
 15  7  1  0
 16 17  2  0
 16 14  1  0
 18 16  1  0
 19 18  1  0
 19 23  1  0
 19 20  1  1
 21 20  1  0
 22 21  2  0
 23 24  1  0
 25 21  1  0
 26 23  2  0
M  END
$$$$
