IQD.pdb
     RDKit          3D

 26 25  0  0  1  0  0  0  0  0999 V2000
   15.7572  -15.7525  -15.2362 C   0  0  0  0  0  0  0  0  0  0  0  0
   16.6857  -15.5056  -16.3923 C   0  0  0  0  0  0  0  0  0  0  0  0
   17.5627  -14.3222  -16.2155 C   0  0  2  0  0  0  0  0  0  0  0  0
   16.6729  -13.1324  -15.9178 C   0  0  0  0  0  0  0  0  0  0  0  0
   18.5513  -14.0355  -17.2827 C   0  0  2  0  0  0  0  0  0  0  0  0
   19.3728  -15.2713  -17.3915 N   0  0  0  0  0  0  0  0  0  0  0  0
   19.5041  -12.9548  -17.0424 C   0  0  0  0  0  0  0  0  0  0  0  0
   20.4210  -13.0634  -16.1579 O   0  0  0  0  0  0  0  0  0  0  0  0
   23.6120   -9.6175  -18.3814 N   0  0  0  0  0  0  0  0  0  0  0  0
   23.2048  -10.6906  -19.2104 C   0  0  0  0  0  0  0  0  0  0  0  0
   24.0866  -11.4306  -19.7059 O   0  0  0  0  0  0  0  0  0  0  0  0
   21.7539  -10.9600  -19.5068 C   0  0  0  0  0  0  0  0  0  0  0  0
   20.8765  -10.0349  -18.7036 C   0  0  0  0  0  0  0  0  0  0  0  0
   20.4056  -10.6434  -17.3925 C   0  0  2  0  0  0  0  0  0  0  0  0
   19.5000  -11.7327  -17.7489 N   0  0  0  0  0  0  0  0  0  0  0  0
   19.7910   -9.7212  -16.4717 C   0  0  0  0  0  0  0  0  0  0  0  0
   18.5478   -9.8481  -16.2395 O   0  0  0  0  0  0  0  0  0  0  0  0
   20.4754   -8.6760  -15.7994 N   0  0  0  0  0  0  0  0  0  0  0  0
   19.7775   -7.8266  -14.8296 C   0  0  1  0  0  0  0  0  0  0  0  0
   19.1437   -8.6067  -13.7258 C   0  0  0  0  0  0  0  0  0  0  0  0
   18.4853   -7.7591  -12.7138 C   0  0  0  0  0  0  0  0  0  0  0  0
   17.8328   -6.7503  -13.0291 O   0  0  0  0  0  0  0  0  0  0  0  0
   20.7229   -6.7961  -14.3204 C   0  0  0  0  0  0  0  0  0  0  0  0
   20.3244   -5.7755  -13.4678 O   0  0  0  0  0  0  0  0  0  0  0  0
   18.6080   -8.1121  -11.3784 O   0  0  0  0  0  0  0  0  0  0  0  0
   21.9331   -6.8281  -14.6597 O   0  0  0  0  0  0  0  0  0  0  0  0
  1  2  1  0
  2  3  1  0
  3  5  1  0
  3  4  1  6
  5  7  1  0
  5  6  1  1
  7  8  2  0
  9 10  1  0
 10 12  1  0
 10 11  2  0
 12 13  1  0
 14 13  1  6
 15 14  1  0
 15  7  1  0
 16 17  2  0
 16 14  1  0
 18 16  1  0
 19 18  1  0
 19 23  1  0
 19 20  1  1
 21 20  1  0
 22 21  2  0
 23 24  1  0
 25 21  1  0
 26 23  2  0
M  END
$$$$
