IQD.pdb
     RDKit          3D

 26 25  0  0  1  0  0  0  0  0999 V2000
   17.8692  -19.2371  -13.9352 C   0  0  0  0  0  0  0  0  0  0  0  0
   18.9477  -18.6037  -13.1014 C   0  0  0  0  0  0  0  0  0  0  0  0
   19.5396  -17.3868  -13.7095 C   0  0  2  0  0  0  0  0  0  0  0  0
   18.4512  -16.3350  -13.7826 C   0  0  0  0  0  0  0  0  0  0  0  0
   20.2611  -17.5439  -14.9952 C   0  0  2  0  0  0  0  0  0  0  0  0
   21.3705  -18.4915  -14.7033 N   0  0  0  0  0  0  0  0  0  0  0  0
   20.9008  -16.3563  -15.5554 C   0  0  0  0  0  0  0  0  0  0  0  0
   21.9319  -15.8369  -15.0059 O   0  0  0  0  0  0  0  0  0  0  0  0
   22.7679  -15.2986  -21.0662 N   0  0  0  0  0  0  0  0  0  0  0  0
   22.9148  -13.9921  -20.5407 C   0  0  0  0  0  0  0  0  0  0  0  0
   23.5722  -13.1534  -21.2002 O   0  0  0  0  0  0  0  0  0  0  0  0
   22.3067  -13.5920  -19.2232 C   0  0  0  0  0  0  0  0  0  0  0  0
   21.6611  -14.7829  -18.5632 C   0  0  0  0  0  0  0  0  0  0  0  0
   21.0830  -14.4686  -17.1927 C   0  0  2  0  0  0  0  0  0  0  0  0
   20.4534  -15.6997  -16.7221 N   0  0  0  0  0  0  0  0  0  0  0  0
   20.1698  -13.3550  -17.1507 C   0  0  0  0  0  0  0  0  0  0  0  0
   18.9265  -13.6048  -17.0656 O   0  0  0  0  0  0  0  0  0  0  0  0
   20.5581  -11.9911  -17.1961 N   0  0  0  0  0  0  0  0  0  0  0  0
   19.5603  -10.9241  -17.0730 C   0  0  1  0  0  0  0  0  0  0  0  0
   18.7129  -11.0608  -15.8516 C   0  0  0  0  0  0  0  0  0  0  0  0
   17.7936   -9.9253  -15.6475 C   0  0  0  0  0  0  0  0  0  0  0  0
   17.0847   -9.4836  -16.5670 O   0  0  0  0  0  0  0  0  0  0  0  0
   20.2503   -9.6069  -17.1356 C   0  0  0  0  0  0  0  0  0  0  0  0
   21.6226   -9.4922  -17.3108 O   0  0  0  0  0  0  0  0  0  0  0  0
   17.7311   -9.3465  -14.3890 O   0  0  0  0  0  0  0  0  0  0  0  0
   19.5889   -8.5431  -17.0285 O   0  0  0  0  0  0  0  0  0  0  0  0
  1  2  1  0
  2  3  1  0
  3  5  1  0
  3  4  1  6
  5  7  1  0
  5  6  1  1
  7  8  2  0
  9 10  1  0
 10 12  1  0
 10 11  2  0
 12 13  1  0
 14 13  1  6
 15 14  1  0
 15  7  1  0
 16 17  2  0
 16 14  1  0
 18 16  1  0
 19 18  1  0
 19 23  1  0
 19 20  1  1
 21 20  1  0
 22 21  2  0
 23 24  1  0
 25 21  1  0
 26 23  2  0
M  END
$$$$
