IQD.pdb
     RDKit          3D

 26 25  0  0  1  0  0  0  0  0999 V2000
   22.3697  -11.6816  -16.5173 C   0  0  0  0  0  0  0  0  0  0  0  0
   21.5213  -11.3649  -15.3175 C   0  0  0  0  0  0  0  0  0  0  0  0
   21.1228   -9.9389  -15.2238 C   0  0  2  0  0  0  0  0  0  0  0  0
   22.3839   -9.1036  -15.3131 C   0  0  0  0  0  0  0  0  0  0  0  0
   20.2608   -9.5410  -14.0850 C   0  0  2  0  0  0  0  0  0  0  0  0
   19.0536  -10.4041  -14.1931 N   0  0  0  0  0  0  0  0  0  0  0  0
   19.7585   -8.1695  -14.0705 C   0  0  0  0  0  0  0  0  0  0  0  0
   18.9161   -7.7624  -14.9421 O   0  0  0  0  0  0  0  0  0  0  0  0
   19.0450   -4.6774   -9.1045 N   0  0  0  0  0  0  0  0  0  0  0  0
   18.0254   -5.4144   -9.7540 C   0  0  0  0  0  0  0  0  0  0  0  0
   17.0008   -5.7206   -9.1004 O   0  0  0  0  0  0  0  0  0  0  0  0
   18.1424   -5.8338  -11.1949 C   0  0  0  0  0  0  0  0  0  0  0  0
   19.4505   -5.3583  -11.7724 C   0  0  0  0  0  0  0  0  0  0  0  0
   19.6776   -5.8204  -13.2027 C   0  0  2  0  0  0  0  0  0  0  0  0
   20.1435   -7.2022  -13.1172 N   0  0  0  0  0  0  0  0  0  0  0  0
   20.5764   -5.0036  -13.9780 C   0  0  0  0  0  0  0  0  0  0  0  0
   21.7705   -4.8702  -13.5633 O   0  0  0  0  0  0  0  0  0  0  0  0
   20.2256   -4.3340  -15.1786 N   0  0  0  0  0  0  0  0  0  0  0  0
   21.2152   -3.5338  -15.9061 C   0  0  1  0  0  0  0  0  0  0  0  0
   21.9420   -4.3176  -16.9483 C   0  0  0  0  0  0  0  0  0  0  0  0
   22.8384   -3.4934  -17.7808 C   0  0  0  0  0  0  0  0  0  0  0  0
   23.4136   -2.4899  -17.3279 O   0  0  0  0  0  0  0  0  0  0  0  0
   20.5443   -2.3314  -16.4712 C   0  0  0  0  0  0  0  0  0  0  0  0
   19.1783   -2.1151  -16.3516 O   0  0  0  0  0  0  0  0  0  0  0  0
   23.0336   -3.8628  -19.1031 O   0  0  0  0  0  0  0  0  0  0  0  0
   21.2168   -1.4640  -17.0844 O   0  0  0  0  0  0  0  0  0  0  0  0
  1  2  1  0
  2  3  1  0
  3  5  1  0
  3  4  1  1
  5  7  1  0
  5  6  1  6
  7  8  2  0
  9 10  1  0
 10 12  1  0
 10 11  2  0
 12 13  1  0
 14 13  1  1
 15 14  1  0
 15  7  1  0
 16 17  2  0
 16 14  1  0
 18 16  1  0
 19 18  1  0
 19 23  1  0
 19 20  1  6
 21 20  1  0
 22 21  2  0
 23 24  1  0
 25 21  1  0
 26 23  2  0
M  END
$$$$
