IQD.pdb
     RDKit          3D

 26 25  0  0  1  0  0  0  0  0999 V2000
   25.2341  -15.3425  -16.4126 C   0  0  0  0  0  0  0  0  0  0  0  0
   24.2580  -14.6113  -15.5339 C   0  0  0  0  0  0  0  0  0  0  0  0
   23.8723  -13.2743  -16.0484 C   0  0  2  0  0  0  0  0  0  0  0  0
   25.1475  -12.5037  -16.3241 C   0  0  0  0  0  0  0  0  0  0  0  0
   22.8976  -12.4887  -15.2540 C   0  0  2  0  0  0  0  0  0  0  0  0
   21.7408  -13.4016  -15.0481 N   0  0  0  0  0  0  0  0  0  0  0  0
   22.3407  -11.2880  -15.8719 C   0  0  0  0  0  0  0  0  0  0  0  0
   23.0676  -10.2608  -16.0987 O   0  0  0  0  0  0  0  0  0  0  0  0
   16.5221  -10.7297  -18.3210 N   0  0  0  0  0  0  0  0  0  0  0  0
   17.0352   -9.4189  -18.4730 C   0  0  0  0  0  0  0  0  0  0  0  0
   16.3008   -8.5466  -18.9931 O   0  0  0  0  0  0  0  0  0  0  0  0
   18.4262   -9.0531  -18.0294 C   0  0  0  0  0  0  0  0  0  0  0  0
   19.0879  -10.2310  -17.3619 C   0  0  0  0  0  0  0  0  0  0  0  0
   20.4740   -9.9143  -16.8238 C   0  0  2  0  0  0  0  0  0  0  0  0
   20.9914  -11.1616  -16.2667 N   0  0  0  0  0  0  0  0  0  0  0  0
   20.5315   -8.8401  -15.8653 C   0  0  0  0  0  0  0  0  0  0  0  0
   20.7551   -9.1355  -14.6495 O   0  0  0  0  0  0  0  0  0  0  0  0
   20.3572   -7.4677  -16.1803 N   0  0  0  0  0  0  0  0  0  0  0  0
   20.5586   -6.4341  -15.1605 C   0  0  1  0  0  0  0  0  0  0  0  0
   21.9055   -6.5054  -14.5206 C   0  0  0  0  0  0  0  0  0  0  0  0
   22.1549   -5.4144  -13.5596 C   0  0  0  0  0  0  0  0  0  0  0  0
   21.5458   -5.3415  -12.4795 O   0  0  0  0  0  0  0  0  0  0  0  0
   20.2915   -5.1002  -15.7642 C   0  0  0  0  0  0  0  0  0  0  0  0
   20.3831   -3.9213  -15.0368 O   0  0  0  0  0  0  0  0  0  0  0  0
   23.0983   -4.4519  -13.8862 O   0  0  0  0  0  0  0  0  0  0  0  0
   19.9690   -5.0097  -16.9759 O   0  0  0  0  0  0  0  0  0  0  0  0
  1  2  1  0
  2  3  1  0
  3  5  1  0
  3  4  1  1
  5  7  1  0
  5  6  1  6
  7  8  2  0
  9 10  1  0
 10 12  1  0
 10 11  2  0
 12 13  1  0
 14 13  1  1
 15 14  1  0
 15  7  1  0
 16 17  2  0
 16 14  1  0
 18 16  1  0
 19 18  1  0
 19 23  1  0
 19 20  1  6
 21 20  1  0
 22 21  2  0
 23 24  1  0
 25 21  1  0
 26 23  2  0
M  END
$$$$
