IQD.pdb
     RDKit          3D

 26 25  0  0  1  0  0  0  0  0999 V2000
   27.8088  -17.2566  -16.4327 C   0  0  0  0  0  0  0  0  0  0  0  0
   27.4027  -15.9303  -15.8535 C   0  0  0  0  0  0  0  0  0  0  0  0
   26.1934  -15.3454  -16.4832 C   0  0  2  0  0  0  0  0  0  0  0  0
   26.3757  -15.4230  -17.9855 C   0  0  0  0  0  0  0  0  0  0  0  0
   25.7700  -13.9974  -16.0341 C   0  0  2  0  0  0  0  0  0  0  0  0
   25.6860  -14.0918  -14.5516 N   0  0  0  0  0  0  0  0  0  0  0  0
   24.4576  -13.5264  -16.4691 C   0  0  0  0  0  0  0  0  0  0  0  0
   24.2674  -13.0984  -17.6589 O   0  0  0  0  0  0  0  0  0  0  0  0
   19.1372  -15.6964  -14.1907 N   0  0  0  0  0  0  0  0  0  0  0  0
   18.6598  -14.7942  -15.1720 C   0  0  0  0  0  0  0  0  0  0  0  0
   17.4282  -14.7579  -15.4013 O   0  0  0  0  0  0  0  0  0  0  0  0
   19.5866  -13.8882  -15.9372 C   0  0  0  0  0  0  0  0  0  0  0  0
   21.0118  -14.1104  -15.5008 C   0  0  0  0  0  0  0  0  0  0  0  0
   21.9971  -13.1630  -16.1662 C   0  0  2  0  0  0  0  0  0  0  0  0
   23.3153  -13.5080  -15.6399 N   0  0  0  0  0  0  0  0  0  0  0  0
   21.7095  -11.7608  -16.0017 C   0  0  0  0  0  0  0  0  0  0  0  0
   22.0053  -11.2165  -14.8918 O   0  0  0  0  0  0  0  0  0  0  0  0
   21.1180  -10.9368  -16.9937 N   0  0  0  0  0  0  0  0  0  0  0  0
   20.8900   -9.5104  -16.7436 C   0  0  1  0  0  0  0  0  0  0  0  0
   21.2025   -8.6568  -17.9278 C   0  0  0  0  0  0  0  0  0  0  0  0
   20.9495   -7.2219  -17.6974 C   0  0  0  0  0  0  0  0  0  0  0  0
   20.5603   -6.7940  -16.5981 O   0  0  0  0  0  0  0  0  0  0  0  0
   19.4937   -9.3204  -16.2647 C   0  0  0  0  0  0  0  0  0  0  0  0
   19.1775   -8.4837  -15.2030 O   0  0  0  0  0  0  0  0  0  0  0  0
   21.1566   -6.3398  -18.7472 O   0  0  0  0  0  0  0  0  0  0  0  0
   18.5467   -9.9285  -16.8251 O   0  0  0  0  0  0  0  0  0  0  0  0
  1  2  1  0
  2  3  1  0
  3  5  1  0
  3  4  1  6
  5  7  1  0
  5  6  1  1
  7  8  2  0
  9 10  1  0
 10 12  1  0
 10 11  2  0
 12 13  1  0
 14 13  1  1
 15 14  1  0
 15  7  1  0
 16 17  2  0
 16 14  1  0
 18 16  1  0
 19 18  1  0
 19 23  1  0
 19 20  1  6
 21 20  1  0
 22 21  2  0
 23 24  1  0
 25 21  1  0
 26 23  2  0
M  END
$$$$
