IQD.pdb
     RDKit          3D

 26 25  0  0  1  0  0  0  0  0999 V2000
   28.7675  -20.0382   -4.1259 C   0  0  0  0  0  0  0  0  0  0  0  0
   27.4566  -20.1733   -4.8491 C   0  0  0  0  0  0  0  0  0  0  0  0
   27.5145  -19.7724   -6.2763 C   0  0  2  0  0  0  0  0  0  0  0  0
   28.0579  -18.3590   -6.3339 C   0  0  0  0  0  0  0  0  0  0  0  0
   26.2835  -19.9381   -7.0858 C   0  0  2  0  0  0  0  0  0  0  0  0
   25.9549  -21.3867   -6.9987 N   0  0  0  0  0  0  0  0  0  0  0  0
   26.3745  -19.6448   -8.5138 C   0  0  0  0  0  0  0  0  0  0  0  0
   26.3776  -18.4409   -8.9447 O   0  0  0  0  0  0  0  0  0  0  0  0
   30.3149  -22.0485  -12.3039 N   0  0  0  0  0  0  0  0  0  0  0  0
   29.3774  -21.6193  -13.2742 C   0  0  0  0  0  0  0  0  0  0  0  0
   29.6431  -21.8053  -14.4848 O   0  0  0  0  0  0  0  0  0  0  0  0
   28.0839  -20.9525  -12.8898 C   0  0  0  0  0  0  0  0  0  0  0  0
   27.8690  -21.0493  -11.4014 C   0  0  0  0  0  0  0  0  0  0  0  0
   26.6466  -20.2837  -10.9212 C   0  0  2  0  0  0  0  0  0  0  0  0
   26.4699  -20.6357   -9.5146 N   0  0  0  0  0  0  0  0  0  0  0  0
   25.4426  -20.5078  -11.6803 C   0  0  0  0  0  0  0  0  0  0  0  0
   25.1068  -19.6337  -12.5397 O   0  0  0  0  0  0  0  0  0  0  0  0
   24.5993  -21.6401  -11.5396 N   0  0  0  0  0  0  0  0  0  0  0  0
   23.2201  -21.6126  -12.0358 C   0  0  1  0  0  0  0  0  0  0  0  0
   22.4620  -20.4118  -11.5755 C   0  0  0  0  0  0  0  0  0  0  0  0
   21.0754  -20.3679  -12.0770 C   0  0  0  0  0  0  0  0  0  0  0  0
   20.2302  -21.2134  -11.7397 O   0  0  0  0  0  0  0  0  0  0  0  0
   23.2371  -21.7338  -13.5191 C   0  0  0  0  0  0  0  0  0  0  0  0
   24.4104  -21.6715  -14.2584 O   0  0  0  0  0  0  0  0  0  0  0  0
   20.7221  -19.3483  -12.9480 O   0  0  0  0  0  0  0  0  0  0  0  0
   22.1626  -21.8992  -14.1505 O   0  0  0  0  0  0  0  0  0  0  0  0
  1  2  1  0
  2  3  1  0
  3  5  1  0
  3  4  1  1
  5  7  1  0
  5  6  1  6
  7  8  2  0
  9 10  1  0
 10 12  1  0
 10 11  2  0
 12 13  1  0
 14 13  1  6
 15 14  1  0
 15  7  1  0
 16 17  2  0
 16 14  1  0
 18 16  1  0
 19 18  1  0
 19 23  1  0
 19 20  1  6
 21 20  1  0
 22 21  2  0
 23 24  1  0
 25 21  1  0
 26 23  2  0
M  END
$$$$
