IQD.pdb
     RDKit          3D

 26 25  0  0  1  0  0  0  0  0999 V2000
   29.8519  -20.3359  -11.9009 C   0  0  0  0  0  0  0  0  0  0  0  0
   28.5185  -20.3438  -11.2071 C   0  0  0  0  0  0  0  0  0  0  0  0
   27.3781  -20.6596  -12.1020 C   0  0  2  0  0  0  0  0  0  0  0  0
   27.5058  -19.7856  -13.3333 C   0  0  0  0  0  0  0  0  0  0  0  0
   26.0159  -20.6179  -11.5181 C   0  0  2  0  0  0  0  0  0  0  0  0
   26.0298  -21.6328  -10.4302 N   0  0  0  0  0  0  0  0  0  0  0  0
   24.9020  -20.9923  -12.3855 C   0  0  0  0  0  0  0  0  0  0  0  0
   24.8175  -22.1654  -12.8874 O   0  0  0  0  0  0  0  0  0  0  0  0
   18.9976  -19.8683  -11.8576 N   0  0  0  0  0  0  0  0  0  0  0  0
   19.0242  -20.4389  -13.1531 C   0  0  0  0  0  0  0  0  0  0  0  0
   17.9350  -20.7349  -13.6980 O   0  0  0  0  0  0  0  0  0  0  0  0
   20.3156  -20.6953  -13.8826 C   0  0  0  0  0  0  0  0  0  0  0  0
   21.4892  -20.3351  -13.0086 C   0  0  0  0  0  0  0  0  0  0  0  0
   22.8296  -20.5028  -13.7058 C   0  0  2  0  0  0  0  0  0  0  0  0
   23.8483  -20.1192  -12.7317 N   0  0  0  0  0  0  0  0  0  0  0  0
   22.9757  -19.7763  -14.9415 C   0  0  0  0  0  0  0  0  0  0  0  0
   23.2219  -18.5311  -14.8769 O   0  0  0  0  0  0  0  0  0  0  0  0
   22.8658  -20.3520  -16.2336 N   0  0  0  0  0  0  0  0  0  0  0  0
   23.0966  -19.5443  -17.4351 C   0  0  1  0  0  0  0  0  0  0  0  0
   24.3437  -19.9275  -18.1607 C   0  0  0  0  0  0  0  0  0  0  0  0
   24.5208  -19.2109  -19.4379 C   0  0  0  0  0  0  0  0  0  0  0  0
   23.6863  -18.3868  -19.8473 O   0  0  0  0  0  0  0  0  0  0  0  0
   21.8923  -19.6184  -18.3064 C   0  0  0  0  0  0  0  0  0  0  0  0
   21.6317  -18.6828  -19.2984 O   0  0  0  0  0  0  0  0  0  0  0  0
   25.6552  -19.4760  -20.1900 O   0  0  0  0  0  0  0  0  0  0  0  0
   21.0643  -20.5529  -18.1595 O   0  0  0  0  0  0  0  0  0  0  0  0
  1  2  1  0
  2  3  1  0
  3  5  1  0
  3  4  1  6
  5  7  1  0
  5  6  1  1
  7  8  2  0
  9 10  1  0
 10 12  1  0
 10 11  2  0
 12 13  1  0
 14 13  1  1
 15 14  1  0
 15  7  1  0
 16 17  2  0
 16 14  1  0
 18 16  1  0
 19 18  1  0
 19 23  1  0
 19 20  1  6
 21 20  1  0
 22 21  2  0
 23 24  1  0
 25 21  1  0
 26 23  2  0
M  END
$$$$
