IQD.pdb
     RDKit          3D

 26 25  0  0  1  0  0  0  0  0999 V2000
   26.3043  -15.2275  -18.1064 C   0  0  0  0  0  0  0  0  0  0  0  0
   26.1565  -14.1326  -17.0872 C   0  0  0  0  0  0  0  0  0  0  0  0
   25.0706  -13.1695  -17.3943 C   0  0  2  0  0  0  0  0  0  0  0  0
   25.2825  -12.6759  -18.8111 C   0  0  0  0  0  0  0  0  0  0  0  0
   24.8469  -12.0599  -16.4367 C   0  0  2  0  0  0  0  0  0  0  0  0
   24.7302  -12.7146  -15.1057 N   0  0  0  0  0  0  0  0  0  0  0  0
   23.6251  -11.2747  -16.5926 C   0  0  0  0  0  0  0  0  0  0  0  0
   23.4948  -10.4332  -17.5464 O   0  0  0  0  0  0  0  0  0  0  0  0
   16.3743  -11.5399  -15.9307 N   0  0  0  0  0  0  0  0  0  0  0  0
   17.6817  -11.7046  -15.4127 C   0  0  0  0  0  0  0  0  0  0  0  0
   17.9003  -12.6644  -14.6370 O   0  0  0  0  0  0  0  0  0  0  0  0
   18.8020  -10.7644  -15.7682 C   0  0  0  0  0  0  0  0  0  0  0  0
   20.1283  -11.4737  -15.6746 C   0  0  0  0  0  0  0  0  0  0  0  0
   21.3160  -10.5606  -15.9324 C   0  0  2  0  0  0  0  0  0  0  0  0
   22.5107  -11.3770  -15.7323 N   0  0  0  0  0  0  0  0  0  0  0  0
   21.3534   -9.3601  -15.1366 C   0  0  0  0  0  0  0  0  0  0  0  0
   22.1774   -9.3093  -14.1702 O   0  0  0  0  0  0  0  0  0  0  0  0
   20.5343   -8.2222  -15.3540 N   0  0  0  0  0  0  0  0  0  0  0  0
   20.7284   -6.9991  -14.5697 C   0  0  1  0  0  0  0  0  0  0  0  0
   22.1453   -6.5290  -14.5695 C   0  0  0  0  0  0  0  0  0  0  0  0
   22.3380   -5.2527  -13.8553 C   0  0  0  0  0  0  0  0  0  0  0  0
   21.5950   -4.9061  -12.9222 O   0  0  0  0  0  0  0  0  0  0  0  0
   19.7885   -5.9549  -15.0610 C   0  0  0  0  0  0  0  0  0  0  0  0
   19.3910   -4.8812  -14.2760 O   0  0  0  0  0  0  0  0  0  0  0  0
   23.3818   -4.4289  -14.2489 O   0  0  0  0  0  0  0  0  0  0  0  0
   19.3224   -6.0243  -16.2266 O   0  0  0  0  0  0  0  0  0  0  0  0
  1  2  1  0
  2  3  1  0
  3  5  1  0
  3  4  1  6
  5  7  1  0
  5  6  1  1
  7  8  2  0
  9 10  1  0
 10 12  1  0
 10 11  2  0
 12 13  1  0
 14 13  1  1
 15 14  1  0
 15  7  1  0
 16 17  2  0
 16 14  1  0
 18 16  1  0
 19 18  1  0
 19 23  1  0
 19 20  1  6
 21 20  1  0
 22 21  2  0
 23 24  1  0
 25 21  1  0
 26 23  2  0
M  END
$$$$
