LAR.pdb
     RDKit          3D

 25 24  0  0  1  0  0  0  0  0999 V2000
    7.4349  -21.6907   20.3443 C   0  0  0  0  0  0  0  0  0  0  0  0
    6.0913  -21.1384   19.8500 C   0  0  2  0  0  0  0  0  0  0  0  0
    6.4051  -20.4425   18.5465 C   0  0  0  0  0  0  0  0  0  0  0  0
    5.5389  -20.2074   20.8751 C   0  0  0  0  0  0  0  0  0  0  0  0
    5.4702  -20.8331   22.2596 C   0  0  2  0  0  0  0  0  0  0  0  0
    4.1205  -21.3268   22.4432 N   0  0  0  0  0  0  0  0  0  0  0  0
    5.8310  -19.8276   23.2915 C   0  0  0  0  0  0  0  0  0  0  0  0
    5.2160  -18.7092   23.2028 O   0  0  0  0  0  0  0  0  0  0  0  0
    7.3602  -19.5545   26.5828 C   0  0  0  0  0  0  0  0  0  0  0  0
    7.0090  -18.9006   25.2384 C   0  0  2  0  0  0  0  0  0  0  0  0
    6.7695  -20.0140   24.3227 N   0  0  0  0  0  0  0  0  0  0  0  0
    8.2184  -18.1341   24.8407 C   0  0  0  0  0  0  0  0  0  0  0  0
    9.1868  -18.7892   24.3779 O   0  0  0  0  0  0  0  0  0  0  0  0
    6.7804  -11.9454   19.8590 N   0  0  0  0  0  0  0  0  0  0  0  0
    7.6083  -13.0057   19.4312 C   0  0  0  0  0  0  0  0  0  0  0  0
    7.7897  -13.2352   18.1570 N   0  0  0  0  0  0  0  0  0  0  0  0
    8.2822  -13.8728   20.3280 N   0  0  0  0  0  0  0  0  0  0  0  0
    8.1006  -13.6620   21.7986 C   0  0  0  0  0  0  0  0  0  0  0  0
    8.9679  -14.6558   22.4740 C   0  0  0  0  0  0  0  0  0  0  0  0
    9.1276  -14.7340   23.9131 C   0  0  0  0  0  0  0  0  0  0  0  0
    9.5811  -16.0039   24.5341 C   0  0  2  0  0  0  0  0  0  0  0  0
    8.3413  -16.7527   24.9489 N   0  0  0  0  0  0  0  0  0  0  0  0
   10.2001  -15.7363   25.8728 C   0  0  0  0  0  0  0  0  0  0  0  0
   11.5048  -15.5003   26.1643 O   0  0  0  0  0  0  0  0  0  0  0  0
    9.4082  -15.7316   26.8770 O   0  0  0  0  0  0  0  0  0  0  0  0
  2  1  1  1
  3  2  1  0
  4  2  1  0
  5  6  1  1
  5  4  1  0
  7  8  2  0
  7  5  1  0
 10  9  1  1
 10 11  1  0
 11  7  1  0
 12 10  1  0
 12 22  1  0
 13 12  2  0
 15 14  1  0
 16 15  2  0
 17 15  1  0
 18 17  1  0
 19 20  1  0
 19 18  1  0
 21 20  1  1
 21 22  1  0
 21 23  1  0
 23 25  2  0
 23 24  1  0
M  END
$$$$
