LAR.pdb
     RDKit          3D

 25 24  0  0  1  0  0  0  0  0999 V2000
    6.7205  -13.8363   17.8313 C   0  0  0  0  0  0  0  0  0  0  0  0
    7.6278  -13.3921   18.9863 C   0  0  2  0  0  0  0  0  0  0  0  0
    8.9313  -12.9941   18.3349 C   0  0  0  0  0  0  0  0  0  0  0  0
    7.7905  -14.5240   19.9428 C   0  0  0  0  0  0  0  0  0  0  0  0
    8.4332  -14.0970   21.2535 C   0  0  2  0  0  0  0  0  0  0  0  0
    9.4806  -13.1492   20.9314 N   0  0  0  0  0  0  0  0  0  0  0  0
    8.9686  -15.2835   21.9687 C   0  0  0  0  0  0  0  0  0  0  0  0
    8.1533  -16.2620   22.0898 O   0  0  0  0  0  0  0  0  0  0  0  0
   12.1761  -16.6268   23.2180 C   0  0  0  0  0  0  0  0  0  0  0  0
   10.6461  -16.6807   23.0962 C   0  0  2  0  0  0  0  0  0  0  0  0
   10.2645  -15.4007   22.5033 N   0  0  0  0  0  0  0  0  0  0  0  0
   10.1398  -16.7951   24.4887 C   0  0  0  0  0  0  0  0  0  0  0  0
   10.0464  -15.7326   25.1547 O   0  0  0  0  0  0  0  0  0  0  0  0
    4.4955  -22.6509   25.2594 N   0  0  0  0  0  0  0  0  0  0  0  0
    5.3434  -22.4051   26.3610 C   0  0  0  0  0  0  0  0  0  0  0  0
    5.4680  -23.2906   27.3148 N   0  0  0  0  0  0  0  0  0  0  0  0
    6.0980  -21.2138   26.5071 N   0  0  0  0  0  0  0  0  0  0  0  0
    5.9094  -20.1202   25.5029 C   0  0  0  0  0  0  0  0  0  0  0  0
    6.8020  -19.0124   25.9178 C   0  0  0  0  0  0  0  0  0  0  0  0
    8.1580  -19.2099   26.3919 C   0  0  0  0  0  0  0  0  0  0  0  0
    9.0952  -18.0596   26.4377 C   0  0  2  0  0  0  0  0  0  0  0  0
    9.7681  -17.9924   25.0914 N   0  0  0  0  0  0  0  0  0  0  0  0
   10.2682  -18.3789   27.3146 C   0  0  0  0  0  0  0  0  0  0  0  0
   10.3962  -18.1849   28.6521 O   0  0  0  0  0  0  0  0  0  0  0  0
   11.2864  -18.8965   26.7395 O   0  0  0  0  0  0  0  0  0  0  0  0
  2  1  1  6
  3  2  1  0
  4  2  1  0
  5  6  1  6
  5  4  1  0
  7  8  2  0
  7  5  1  0
 10  9  1  1
 10 11  1  0
 11  7  1  0
 12 10  1  0
 12 22  1  0
 13 12  2  0
 15 14  1  0
 16 15  2  0
 17 15  1  0
 18 17  1  0
 19 20  1  0
 19 18  1  0
 21 20  1  6
 21 22  1  0
 21 23  1  0
 23 25  2  0
 23 24  1  0
M  END
$$$$
