LAR.pdb
     RDKit          3D

 25 24  0  0  1  0  0  0  0  0999 V2000
  145.1646 -129.2071  113.7773 C   0  0  0  0  0  0  0  0  0  0  0  0
  143.6487 -128.9853  113.8635 C   0  0  2  0  0  0  0  0  0  0  0  0
  143.0531 -130.3676  113.9905 C   0  0  0  0  0  0  0  0  0  0  0  0
  143.1883 -128.2763  112.6354 C   0  0  0  0  0  0  0  0  0  0  0  0
  144.1420 -127.1738  112.2020 C   0  0  2  0  0  0  0  0  0  0  0  0
  143.9889 -126.0786  113.1380 N   0  0  0  0  0  0  0  0  0  0  0  0
  143.8354 -126.7527  110.8109 C   0  0  0  0  0  0  0  0  0  0  0  0
  144.7785 -126.9331  109.9655 O   0  0  0  0  0  0  0  0  0  0  0  0
  142.3919 -124.8187  112.3087 C   0  0  0  0  0  0  0  0  0  0  0  0
  141.6467 -125.7985  111.3906 C   0  0  2  0  0  0  0  0  0  0  0  0
  142.6226 -126.1889  110.3753 N   0  0  0  0  0  0  0  0  0  0  0  0
  140.5365 -125.0147  110.7894 C   0  0  0  0  0  0  0  0  0  0  0  0
  140.4969 -124.9450  109.5344 O   0  0  0  0  0  0  0  0  0  0  0  0
  143.8201 -122.9869  110.9816 N   0  0  0  0  0  0  0  0  0  0  0  0
  142.9791 -123.3574  112.0531 C   0  0  0  0  0  0  0  0  0  0  0  0
  142.2845 -122.4555  112.6960 N   0  0  0  0  0  0  0  0  0  0  0  0
  142.8330 -124.6964  112.4959 N   0  0  0  0  0  0  0  0  0  0  0  0
  141.7992 -124.9971  113.5355 C   0  0  0  0  0  0  0  0  0  0  0  0
  140.9805 -126.1109  113.0017 C   0  0  0  0  0  0  0  0  0  0  0  0
  139.5353 -126.1660  113.1072 C   0  0  0  0  0  0  0  0  0  0  0  0
  138.7164 -125.0499  112.5712 C   0  0  2  0  0  0  0  0  0  0  0  0
  139.5513 -124.3616  111.5229 N   0  0  0  0  0  0  0  0  0  0  0  0
  138.5983 -123.9559  113.5890 C   0  0  0  0  0  0  0  0  0  0  0  0
  137.5495 -123.1230  113.8112 O   0  0  0  0  0  0  0  0  0  0  0  0
  139.6107 -123.7711  114.3481 O   0  0  0  0  0  0  0  0  0  0  0  0
  2  1  1  6
  3  2  1  0
  4  2  1  0
  5  6  1  1
  5  4  1  0
  7  8  2  0
  7  5  1  0
 10  9  1  1
 10 11  1  0
 11  7  1  0
 12 10  1  0
 12 22  1  0
 13 12  2  0
 15 14  1  0
 16 15  2  0
 17 15  1  0
 18 17  1  0
 19 20  1  0
 19 18  1  0
 21 20  1  1
 21 22  1  0
 21 23  1  0
 23 25  2  0
 23 24  1  0
M  END
$$$$
