LAR.pdb
     RDKit          3D

 25 24  0  0  1  0  0  0  0  0999 V2000
    9.1052  -13.9449   19.1877 C   0  0  0  0  0  0  0  0  0  0  0  0
    7.7648  -13.7603   19.9114 C   0  0  2  0  0  0  0  0  0  0  0  0
    7.3404  -12.3438   19.6029 C   0  0  0  0  0  0  0  0  0  0  0  0
    7.9619  -13.9916   21.3710 C   0  0  0  0  0  0  0  0  0  0  0  0
    8.2964  -15.4393   21.6958 C   0  0  2  0  0  0  0  0  0  0  0  0
    7.3115  -16.2688   21.0318 N   0  0  0  0  0  0  0  0  0  0  0  0
    8.2860  -15.6470   23.1665 C   0  0  0  0  0  0  0  0  0  0  0  0
    9.1461  -14.9621   23.8207 O   0  0  0  0  0  0  0  0  0  0  0  0
    6.2830  -17.1219   25.8623 C   0  0  0  0  0  0  0  0  0  0  0  0
    7.6429  -16.6832   25.2995 C   0  0  2  0  0  0  0  0  0  0  0  0
    7.4261  -16.5145   23.8642 N   0  0  0  0  0  0  0  0  0  0  0  0
    8.5688  -17.8137   25.5695 C   0  0  0  0  0  0  0  0  0  0  0  0
    8.3475  -18.8940   24.9650 O   0  0  0  0  0  0  0  0  0  0  0  0
   13.8553  -19.2854   22.1299 N   0  0  0  0  0  0  0  0  0  0  0  0
   13.2092  -18.0397   21.9766 C   0  0  0  0  0  0  0  0  0  0  0  0
   12.5654  -17.7556   20.8747 N   0  0  0  0  0  0  0  0  0  0  0  0
   13.2132  -17.0364   22.9784 N   0  0  0  0  0  0  0  0  0  0  0  0
   13.4400  -17.4463   24.3998 C   0  0  0  0  0  0  0  0  0  0  0  0
   12.1486  -17.9804   24.8926 C   0  0  0  0  0  0  0  0  0  0  0  0
   11.9402  -18.4504   26.2485 C   0  0  0  0  0  0  0  0  0  0  0  0
   10.5910  -18.9043   26.6696 C   0  0  2  0  0  0  0  0  0  0  0  0
    9.6517  -17.7489   26.4402 N   0  0  0  0  0  0  0  0  0  0  0  0
   10.5235  -19.0200   28.1625 C   0  0  0  0  0  0  0  0  0  0  0  0
   10.9177  -20.0572   28.9447 O   0  0  0  0  0  0  0  0  0  0  0  0
   10.0289  -18.0216   28.7904 O   0  0  0  0  0  0  0  0  0  0  0  0
  2  1  1  6
  3  2  1  0
  4  2  1  0
  5  6  1  6
  5  4  1  0
  7  8  2  0
  7  5  1  0
 10  9  1  1
 10 11  1  0
 11  7  1  0
 12 10  1  0
 12 22  1  0
 13 12  2  0
 15 14  1  0
 16 15  2  0
 17 15  1  0
 18 17  1  0
 19 20  1  0
 19 18  1  0
 21 20  1  1
 21 22  1  0
 21 23  1  0
 23 25  2  0
 23 24  1  0
M  END
$$$$
