LAR.pdb
     RDKit          3D

 25 24  0  0  1  0  0  0  0  0999 V2000
    5.6152  -11.4078   25.8512 C   0  0  0  0  0  0  0  0  0  0  0  0
    6.5403  -12.2235   26.7643 C   0  0  2  0  0  0  0  0  0  0  0  0
    7.4390  -11.2063   27.4273 C   0  0  0  0  0  0  0  0  0  0  0  0
    7.3009  -13.2043   25.9384 C   0  0  0  0  0  0  0  0  0  0  0  0
    6.3952  -14.1853   25.2100 C   0  0  2  0  0  0  0  0  0  0  0  0
    5.7917  -15.0404   26.2119 N   0  0  0  0  0  0  0  0  0  0  0  0
    7.1817  -14.9683   24.2229 C   0  0  0  0  0  0  0  0  0  0  0  0
    7.7733  -16.0012   24.6920 O   0  0  0  0  0  0  0  0  0  0  0  0
    8.2458  -14.8589   20.6734 C   0  0  0  0  0  0  0  0  0  0  0  0
    8.1075  -15.5696   22.0278 C   0  0  2  0  0  0  0  0  0  0  0  0
    7.3162  -14.6626   22.8565 N   0  0  0  0  0  0  0  0  0  0  0  0
    9.4919  -15.6998   22.5522 C   0  0  0  0  0  0  0  0  0  0  0  0
   10.0914  -14.6380   22.8597 O   0  0  0  0  0  0  0  0  0  0  0  0
    9.6991  -22.8676   25.5932 N   0  0  0  0  0  0  0  0  0  0  0  0
   11.0179  -22.4426   25.3228 C   0  0  0  0  0  0  0  0  0  0  0  0
   11.9878  -23.3125   25.2140 N   0  0  0  0  0  0  0  0  0  0  0  0
   11.3738  -21.0805   25.1554 N   0  0  0  0  0  0  0  0  0  0  0  0
   10.3246  -20.0354   25.3720 C   0  0  0  0  0  0  0  0  0  0  0  0
   10.9775  -18.7287   25.1230 C   0  0  0  0  0  0  0  0  0  0  0  0
   11.6475  -18.3907   23.8822 C   0  0  0  0  0  0  0  0  0  0  0  0
   11.5277  -17.0165   23.3333 C   0  0  2  0  0  0  0  0  0  0  0  0
   10.1554  -16.9106   22.7206 N   0  0  0  0  0  0  0  0  0  0  0  0
   12.3849  -16.8674   22.1127 C   0  0  0  0  0  0  0  0  0  0  0  0
   13.6814  -16.4716   22.0384 O   0  0  0  0  0  0  0  0  0  0  0  0
   11.8339  -17.1410   20.9916 O   0  0  0  0  0  0  0  0  0  0  0  0
  2  1  1  6
  3  2  1  0
  4  2  1  0
  5  6  1  1
  5  4  1  0
  7  8  2  0
  7  5  1  0
 10  9  1  6
 10 11  1  0
 11  7  1  0
 12 10  1  0
 12 22  1  0
 13 12  2  0
 15 14  1  0
 16 15  2  0
 17 15  1  0
 18 17  1  0
 19 20  1  0
 19 18  1  0
 21 20  1  6
 21 22  1  0
 21 23  1  0
 23 25  2  0
 23 24  1  0
M  END
$$$$
