LAR.pdb
     RDKit          3D

 25 24  0  0  1  0  0  0  0  0999 V2000
    6.2306  -11.5739   25.3989 C   0  0  0  0  0  0  0  0  0  0  0  0
    6.1038  -12.3659   26.7070 C   0  0  2  0  0  0  0  0  0  0  0  0
    6.3971  -11.3689   27.8032 C   0  0  0  0  0  0  0  0  0  0  0  0
    7.0752  -13.4967   26.6896 C   0  0  0  0  0  0  0  0  0  0  0  0
    6.9072  -14.3959   25.4745 C   0  0  2  0  0  0  0  0  0  0  0  0
    5.5030  -14.7410   25.3843 N   0  0  0  0  0  0  0  0  0  0  0  0
    7.7606  -15.6037   25.6126 C   0  0  0  0  0  0  0  0  0  0  0  0
    8.9705  -15.3802   25.9638 O   0  0  0  0  0  0  0  0  0  0  0  0
    7.5710  -19.2992   25.3902 C   0  0  0  0  0  0  0  0  0  0  0  0
    8.3575  -17.9812   25.4441 C   0  0  2  0  0  0  0  0  0  0  0  0
    7.3447  -16.9291   25.3913 N   0  0  0  0  0  0  0  0  0  0  0  0
    9.2012  -17.9709   24.2209 C   0  0  0  0  0  0  0  0  0  0  0  0
    8.7999  -18.6491   23.2409 O   0  0  0  0  0  0  0  0  0  0  0  0
    8.5373  -12.2935   19.0338 N   0  0  0  0  0  0  0  0  0  0  0  0
    8.1122  -13.6329   18.8990 C   0  0  0  0  0  0  0  0  0  0  0  0
    7.3136  -13.9822   17.9245 N   0  0  0  0  0  0  0  0  0  0  0  0
    8.5094  -14.6648   19.7864 N   0  0  0  0  0  0  0  0  0  0  0  0
    9.8288  -14.5412   20.4819 C   0  0  0  0  0  0  0  0  0  0  0  0
    9.9602  -15.7378   21.3460 C   0  0  0  0  0  0  0  0  0  0  0  0
   11.1112  -15.9953   22.1895 C   0  0  0  0  0  0  0  0  0  0  0  0
   11.2511  -17.3127   22.8595 C   0  0  2  0  0  0  0  0  0  0  0  0
   10.3934  -17.2649   24.0972 N   0  0  0  0  0  0  0  0  0  0  0  0
   12.6121  -17.4417   23.4743 C   0  0  0  0  0  0  0  0  0  0  0  0
   12.9631  -17.3012   24.7781 O   0  0  0  0  0  0  0  0  0  0  0  0
   13.5746  -17.7144   22.6776 O   0  0  0  0  0  0  0  0  0  0  0  0
  2  1  1  6
  3  2  1  0
  4  2  1  0
  5  6  1  1
  5  4  1  0
  7  8  2  0
  7  5  1  0
 10  9  1  6
 10 11  1  0
 11  7  1  0
 12 10  1  0
 12 22  1  0
 13 12  2  0
 15 14  1  0
 16 15  2  0
 17 15  1  0
 18 17  1  0
 19 20  1  0
 19 18  1  0
 21 20  1  1
 21 22  1  0
 21 23  1  0
 23 25  2  0
 23 24  1  0
M  END
$$$$
