LAR.pdb
     RDKit          3D

 25 24  0  0  1  0  0  0  0  0999 V2000
    5.7766  -12.6171   27.4279 C   0  0  0  0  0  0  0  0  0  0  0  0
    7.0717  -12.6777   26.6073 C   0  0  2  0  0  0  0  0  0  0  0  0
    7.5197  -11.2417   26.4686 C   0  0  0  0  0  0  0  0  0  0  0  0
    6.7864  -13.3159   25.2905 C   0  0  0  0  0  0  0  0  0  0  0  0
    6.9000  -14.8318   25.3363 C   0  0  2  0  0  0  0  0  0  0  0  0
    7.6981  -15.1695   26.4973 N   0  0  0  0  0  0  0  0  0  0  0  0
    7.5168  -15.3346   24.0822 C   0  0  0  0  0  0  0  0  0  0  0  0
    6.6966  -15.8077   23.2217 O   0  0  0  0  0  0  0  0  0  0  0  0
   10.4887  -15.1497   22.0293 C   0  0  0  0  0  0  0  0  0  0  0  0
    9.3333  -16.0051   22.5696 C   0  0  2  0  0  0  0  0  0  0  0  0
    8.8920  -15.3268   23.7865 N   0  0  0  0  0  0  0  0  0  0  0  0
    9.9313  -17.3287   22.8840 C   0  0  0  0  0  0  0  0  0  0  0  0
   10.4913  -17.9442   21.9413 O   0  0  0  0  0  0  0  0  0  0  0  0
   11.2396  -20.3106   31.4050 N   0  0  0  0  0  0  0  0  0  0  0  0
   12.4591  -20.1877   30.7047 C   0  0  0  0  0  0  0  0  0  0  0  0
   13.5986  -20.3894   31.3132 N   0  0  0  0  0  0  0  0  0  0  0  0
   12.5325  -19.8456   29.3308 N   0  0  0  0  0  0  0  0  0  0  0  0
   11.4166  -19.0480   28.7320 C   0  0  0  0  0  0  0  0  0  0  0  0
   11.7028  -18.9513   27.2812 C   0  0  0  0  0  0  0  0  0  0  0  0
   10.8199  -18.3026   26.3312 C   0  0  0  0  0  0  0  0  0  0  0  0
   11.1569  -18.3189   24.8855 C   0  0  2  0  0  0  0  0  0  0  0  0
    9.9082  -17.9197   24.1430 N   0  0  0  0  0  0  0  0  0  0  0  0
   11.3220  -19.7293   24.4057 C   0  0  0  0  0  0  0  0  0  0  0  0
   10.3562  -20.6438   24.1334 O   0  0  0  0  0  0  0  0  0  0  0  0
   12.5218  -20.1359   24.2312 O   0  0  0  0  0  0  0  0  0  0  0  0
  2  1  1  1
  3  2  1  0
  4  2  1  0
  5  6  1  1
  5  4  1  0
  7  8  2  0
  7  5  1  0
 10  9  1  1
 10 11  1  0
 11  7  1  0
 12 10  1  0
 12 22  1  0
 13 12  2  0
 15 14  1  0
 16 15  2  0
 17 15  1  0
 18 17  1  0
 19 20  1  0
 19 18  1  0
 21 20  1  1
 21 22  1  0
 21 23  1  0
 23 25  2  0
 23 24  1  0
M  END
$$$$
