LAR.pdb
     RDKit          3D

 25 24  0  0  1  0  0  0  0  0999 V2000
    9.3234  -12.5212   19.5960 C   0  0  0  0  0  0  0  0  0  0  0  0
    8.0674  -13.3961   19.7043 C   0  0  2  0  0  0  0  0  0  0  0  0
    7.0800  -12.5741   20.4989 C   0  0  0  0  0  0  0  0  0  0  0  0
    8.4205  -14.6759   20.3826 C   0  0  0  0  0  0  0  0  0  0  0  0
    9.4171  -15.5056   19.5880 C   0  0  2  0  0  0  0  0  0  0  0  0
    8.8305  -15.7545   18.2869 N   0  0  0  0  0  0  0  0  0  0  0  0
    9.7139  -16.7711   20.3066 C   0  0  0  0  0  0  0  0  0  0  0  0
    8.9055  -17.7347   20.0720 O   0  0  0  0  0  0  0  0  0  0  0  0
   12.3655  -18.3547   22.3209 C   0  0  0  0  0  0  0  0  0  0  0  0
   10.9168  -18.2923   21.8154 C   0  0  2  0  0  0  0  0  0  0  0  0
   10.7844  -16.9753   21.1960 N   0  0  0  0  0  0  0  0  0  0  0  0
   10.0666  -18.3983   23.0296 C   0  0  0  0  0  0  0  0  0  0  0  0
    8.9525  -18.9675   22.9024 O   0  0  0  0  0  0  0  0  0  0  0  0
    5.6574  -23.5610   26.1126 N   0  0  0  0  0  0  0  0  0  0  0  0
    5.5130  -22.3732   25.3635 C   0  0  0  0  0  0  0  0  0  0  0  0
    4.5570  -22.2566   24.4794 N   0  0  0  0  0  0  0  0  0  0  0  0
    6.3711  -21.2544   25.5123 N   0  0  0  0  0  0  0  0  0  0  0  0
    7.5700  -21.3856   26.3984 C   0  0  0  0  0  0  0  0  0  0  0  0
    8.1996  -20.0452   26.4521 C   0  0  0  0  0  0  0  0  0  0  0  0
    8.9170  -19.4511   25.3407 C   0  0  0  0  0  0  0  0  0  0  0  0
    9.6003  -18.1456   25.5210 C   0  0  2  0  0  0  0  0  0  0  0  0
   10.4251  -17.9112   24.2822 N   0  0  0  0  0  0  0  0  0  0  0  0
   10.6820  -18.2627   26.5521 C   0  0  0  0  0  0  0  0  0  0  0  0
   10.5870  -18.0863   27.8948 O   0  0  0  0  0  0  0  0  0  0  0  0
   11.8490  -18.5622   26.1234 O   0  0  0  0  0  0  0  0  0  0  0  0
  2  1  1  1
  3  2  1  0
  4  2  1  0
  5  6  1  6
  5  4  1  0
  7  8  2  0
  7  5  1  0
 10  9  1  1
 10 11  1  0
 11  7  1  0
 12 10  1  0
 12 22  1  0
 13 12  2  0
 15 14  1  0
 16 15  2  0
 17 15  1  0
 18 17  1  0
 19 20  1  0
 19 18  1  0
 21 20  1  6
 21 22  1  0
 21 23  1  0
 23 25  2  0
 23 24  1  0
M  END
$$$$
