LAR.pdb
     RDKit          3D

 25 24  0  0  1  0  0  0  0  0999 V2000
    7.8491  -12.3060   27.5822 C   0  0  0  0  0  0  0  0  0  0  0  0
    6.9340  -12.7610   26.4376 C   0  0  2  0  0  0  0  0  0  0  0  0
    5.8559  -11.7066   26.3498 C   0  0  0  0  0  0  0  0  0  0  0  0
    6.3871  -14.1108   26.7565 C   0  0  0  0  0  0  0  0  0  0  0  0
    7.2879  -15.2377   26.2752 C   0  0  2  0  0  0  0  0  0  0  0  0
    8.6497  -14.8742   26.6105 N   0  0  0  0  0  0  0  0  0  0  0  0
    7.1180  -15.4366   24.8131 C   0  0  0  0  0  0  0  0  0  0  0  0
    6.0273  -16.0063   24.4626 O   0  0  0  0  0  0  0  0  0  0  0  0
    7.5885  -14.0840   21.6968 C   0  0  0  0  0  0  0  0  0  0  0  0
    7.7479  -15.4194   22.4382 C   0  0  2  0  0  0  0  0  0  0  0  0
    8.0413  -15.0553   23.8228 N   0  0  0  0  0  0  0  0  0  0  0  0
    8.9133  -16.0896   21.8048 C   0  0  0  0  0  0  0  0  0  0  0  0
   10.0319  -15.5269   21.9207 O   0  0  0  0  0  0  0  0  0  0  0  0
    9.5325  -14.1252   15.8581 N   0  0  0  0  0  0  0  0  0  0  0  0
    8.3593  -14.2050   16.6392 C   0  0  0  0  0  0  0  0  0  0  0  0
    7.6720  -13.1286   16.9189 N   0  0  0  0  0  0  0  0  0  0  0  0
    7.8579  -15.4240   17.1615 N   0  0  0  0  0  0  0  0  0  0  0  0
    8.8322  -16.4991   17.5287 C   0  0  0  0  0  0  0  0  0  0  0  0
    9.5914  -15.9947   18.6971 C   0  0  0  0  0  0  0  0  0  0  0  0
   10.5243  -16.8038   19.4572 C   0  0  0  0  0  0  0  0  0  0  0  0
   10.0112  -17.8711   20.3525 C   0  0  2  0  0  0  0  0  0  0  0  0
    8.8411  -17.2868   21.1003 N   0  0  0  0  0  0  0  0  0  0  0  0
   10.9680  -18.1071   21.4820 C   0  0  0  0  0  0  0  0  0  0  0  0
   10.7487  -17.9643   22.8141 O   0  0  0  0  0  0  0  0  0  0  0  0
   12.1462  -18.4876   21.1617 O   0  0  0  0  0  0  0  0  0  0  0  0
  2  1  1  1
  3  2  1  0
  4  2  1  0
  5  6  1  6
  5  4  1  0
  7  8  2  0
  7  5  1  0
 10  9  1  6
 10 11  1  0
 11  7  1  0
 12 10  1  0
 12 22  1  0
 13 12  2  0
 15 14  1  0
 16 15  2  0
 17 15  1  0
 18 17  1  0
 19 20  1  0
 19 18  1  0
 21 20  1  6
 21 22  1  0
 21 23  1  0
 23 25  2  0
 23 24  1  0
M  END
$$$$
