LAR.pdb
     RDKit          3D

 25 24  0  0  1  0  0  0  0  0999 V2000
    7.0476  -16.2113   16.1919 C   0  0  0  0  0  0  0  0  0  0  0  0
    8.3477  -15.5212   15.7582 C   0  0  2  0  0  0  0  0  0  0  0  0
    9.0356  -16.5103   14.8469 C   0  0  0  0  0  0  0  0  0  0  0  0
    9.1580  -15.2012   16.9680 C   0  0  0  0  0  0  0  0  0  0  0  0
    8.4414  -14.2575   17.9214 C   0  0  2  0  0  0  0  0  0  0  0  0
    8.5050  -12.9304   17.3435 N   0  0  0  0  0  0  0  0  0  0  0  0
    9.0818  -14.3032   19.2608 C   0  0  0  0  0  0  0  0  0  0  0  0
   10.2305  -13.7449   19.3362 O   0  0  0  0  0  0  0  0  0  0  0  0
    8.2371  -14.9686   22.7723 C   0  0  0  0  0  0  0  0  0  0  0  0
    9.2816  -14.7913   21.6606 C   0  0  2  0  0  0  0  0  0  0  0  0
    8.5316  -14.8976   20.4109 N   0  0  0  0  0  0  0  0  0  0  0  0
   10.2244  -15.9296   21.8150 C   0  0  0  0  0  0  0  0  0  0  0  0
    9.8652  -17.0401   21.3469 O   0  0  0  0  0  0  0  0  0  0  0  0
   13.9119  -13.6376   19.3057 N   0  0  0  0  0  0  0  0  0  0  0  0
   14.7359  -14.4899   18.5392 C   0  0  0  0  0  0  0  0  0  0  0  0
   14.8535  -14.3169   17.2486 N   0  0  0  0  0  0  0  0  0  0  0  0
   15.4728  -15.5640   19.0989 N   0  0  0  0  0  0  0  0  0  0  0  0
   15.4852  -15.7239   20.5869 C   0  0  0  0  0  0  0  0  0  0  0  0
   14.1577  -16.2662   20.9607 C   0  0  0  0  0  0  0  0  0  0  0  0
   13.7592  -16.5395   22.3278 C   0  0  0  0  0  0  0  0  0  0  0  0
   12.3839  -17.0221   22.6097 C   0  0  2  0  0  0  0  0  0  0  0  0
   11.4645  -15.8409   22.4389 N   0  0  0  0  0  0  0  0  0  0  0  0
   12.2167  -17.2897   24.0751 C   0  0  0  0  0  0  0  0  0  0  0  0
   12.5385  -18.4123   24.7674 O   0  0  0  0  0  0  0  0  0  0  0  0
   11.7017  -16.3491   24.7718 O   0  0  0  0  0  0  0  0  0  0  0  0
  2  1  1  1
  3  2  1  0
  4  2  1  0
  5  6  1  6
  5  4  1  0
  7  8  2  0
  7  5  1  0
 10  9  1  1
 10 11  1  0
 11  7  1  0
 12 10  1  0
 12 22  1  0
 13 12  2  0
 15 14  1  0
 16 15  2  0
 17 15  1  0
 18 17  1  0
 19 20  1  0
 19 18  1  0
 21 20  1  1
 21 22  1  0
 21 23  1  0
 23 25  2  0
 23 24  1  0
M  END
$$$$
