LAR.pdb
     RDKit          3D

 25 24  0  0  1  0  0  0  0  0999 V2000
    6.7468  -16.3357   18.4548 C   0  0  0  0  0  0  0  0  0  0  0  0
    6.4887  -17.5262   19.3880 C   0  0  2  0  0  0  0  0  0  0  0  0
    6.6915  -18.7527   18.5299 C   0  0  0  0  0  0  0  0  0  0  0  0
    5.1027  -17.4313   19.9289 C   0  0  0  0  0  0  0  0  0  0  0  0
    4.7115  -18.6457   20.7569 C   0  0  2  0  0  0  0  0  0  0  0  0
    3.2652  -18.6628   20.8404 N   0  0  0  0  0  0  0  0  0  0  0  0
    5.3373  -18.5683   22.1017 C   0  0  0  0  0  0  0  0  0  0  0  0
    5.1995  -17.4483   22.7045 O   0  0  0  0  0  0  0  0  0  0  0  0
    6.7168  -20.7077   24.7358 C   0  0  0  0  0  0  0  0  0  0  0  0
    6.6194  -19.3360   24.0521 C   0  0  2  0  0  0  0  0  0  0  0  0
    6.0462  -19.6052   22.7350 N   0  0  0  0  0  0  0  0  0  0  0  0
    8.0187  -18.8493   23.9351 C   0  0  0  0  0  0  0  0  0  0  0  0
    8.7434  -19.3900   23.0612 O   0  0  0  0  0  0  0  0  0  0  0  0
    8.5605  -12.4465   20.1830 N   0  0  0  0  0  0  0  0  0  0  0  0
    7.5675  -13.3041   20.7039 C   0  0  0  0  0  0  0  0  0  0  0  0
    6.4484  -13.4965   20.0560 N   0  0  0  0  0  0  0  0  0  0  0  0
    7.7095  -13.9973   21.9325 N   0  0  0  0  0  0  0  0  0  0  0  0
    9.0609  -14.0468   22.5737 C   0  0  0  0  0  0  0  0  0  0  0  0
    9.2970  -15.4622   22.9438 C   0  0  0  0  0  0  0  0  0  0  0  0
    9.8470  -15.8762   24.2200 C   0  0  0  0  0  0  0  0  0  0  0  0
    9.9676  -17.3222   24.5337 C   0  0  2  0  0  0  0  0  0  0  0  0
    8.5674  -17.8444   24.7251 N   0  0  0  0  0  0  0  0  0  0  0  0
   10.5212  -17.5107   25.9139 C   0  0  0  0  0  0  0  0  0  0  0  0
   11.8220  -17.5677   26.2981 O   0  0  0  0  0  0  0  0  0  0  0  0
    9.6683  -17.6400   26.8580 O   0  0  0  0  0  0  0  0  0  0  0  0
  2  1  1  6
  3  2  1  0
  4  2  1  0
  5  6  1  1
  5  4  1  0
  7  8  2  0
  7  5  1  0
 10  9  1  1
 10 11  1  0
 11  7  1  0
 12 10  1  0
 12 22  1  0
 13 12  2  0
 15 14  1  0
 16 15  2  0
 17 15  1  0
 18 17  1  0
 19 20  1  0
 19 18  1  0
 21 20  1  1
 21 22  1  0
 21 23  1  0
 23 25  2  0
 23 24  1  0
M  END
$$$$
