LAR.pdb
     RDKit          3D

 25 24  0  0  1  0  0  0  0  0999 V2000
    7.9248  -14.3978   20.7669 C   0  0  0  0  0  0  0  0  0  0  0  0
    8.6855  -13.6520   19.6625 C   0  0  2  0  0  0  0  0  0  0  0  0
    8.0583  -12.2789   19.6081 C   0  0  0  0  0  0  0  0  0  0  0  0
    8.5391  -14.3972   18.3796 C   0  0  0  0  0  0  0  0  0  0  0  0
    9.2844  -15.7230   18.3828 C   0  0  2  0  0  0  0  0  0  0  0  0
    9.1740  -16.2765   19.7171 N   0  0  0  0  0  0  0  0  0  0  0  0
   10.7020  -15.5114   17.9929 C   0  0  0  0  0  0  0  0  0  0  0  0
   10.8803  -14.7823   16.9568 O   0  0  0  0  0  0  0  0  0  0  0  0
   12.1653  -13.7112   19.0211 C   0  0  0  0  0  0  0  0  0  0  0  0
   12.7945  -15.0989   19.2129 C   0  0  2  0  0  0  0  0  0  0  0  0
   11.8217  -16.0394   18.6608 N   0  0  0  0  0  0  0  0  0  0  0  0
   12.9310  -15.2744   20.6822 C   0  0  0  0  0  0  0  0  0  0  0  0
   13.6804  -14.4676   21.2896 O   0  0  0  0  0  0  0  0  0  0  0  0
    6.9321  -15.9661   25.8024 N   0  0  0  0  0  0  0  0  0  0  0  0
    7.2019  -14.7232   25.1899 C   0  0  0  0  0  0  0  0  0  0  0  0
    6.6297  -13.6303   25.6228 N   0  0  0  0  0  0  0  0  0  0  0  0
    8.0871  -14.5765   24.0922 N   0  0  0  0  0  0  0  0  0  0  0  0
    8.5255  -15.8049   23.3580 C   0  0  0  0  0  0  0  0  0  0  0  0
    9.9607  -15.6142   23.0426 C   0  0  0  0  0  0  0  0  0  0  0  0
   10.9967  -16.5560   23.4200 C   0  0  0  0  0  0  0  0  0  0  0  0
   12.3804  -16.3670   22.9164 C   0  0  2  0  0  0  0  0  0  0  0  0
   12.2876  -16.2655   21.4161 N   0  0  0  0  0  0  0  0  0  0  0  0
   13.1632  -17.6376   23.0571 C   0  0  0  0  0  0  0  0  0  0  0  0
   13.8997  -18.0590   24.1168 O   0  0  0  0  0  0  0  0  0  0  0  0
   13.1462  -18.4322   22.0552 O   0  0  0  0  0  0  0  0  0  0  0  0
  2  1  1  1
  3  2  1  0
  4  2  1  0
  5  6  1  1
  5  4  1  0
  7  8  2  0
  7  5  1  0
 10  9  1  1
 10 11  1  0
 11  7  1  0
 12 10  1  0
 12 22  1  0
 13 12  2  0
 15 14  1  0
 16 15  2  0
 17 15  1  0
 18 17  1  0
 19 20  1  0
 19 18  1  0
 21 20  1  1
 21 22  1  0
 21 23  1  0
 23 25  2  0
 23 24  1  0
M  END
$$$$
