LAR.pdb
     RDKit          3D

 25 24  0  0  1  0  0  0  0  0999 V2000
    8.5336  -13.9666   18.2769 C   0  0  0  0  0  0  0  0  0  0  0  0
    7.5203  -13.2544   19.1828 C   0  0  2  0  0  0  0  0  0  0  0  0
    7.2818  -11.9126   18.5312 C   0  0  0  0  0  0  0  0  0  0  0  0
    8.0938  -13.1291   20.5532 C   0  0  0  0  0  0  0  0  0  0  0  0
    8.2307  -14.4704   21.2569 C   0  0  2  0  0  0  0  0  0  0  0  0
    7.0300  -15.2303   20.9740 N   0  0  0  0  0  0  0  0  0  0  0  0
    8.4174  -14.2637   22.7158 C   0  0  0  0  0  0  0  0  0  0  0  0
    9.5863  -13.8807   23.0678 O   0  0  0  0  0  0  0  0  0  0  0  0
    6.5675  -13.8856   25.8460 C   0  0  0  0  0  0  0  0  0  0  0  0
    7.8341  -14.3330   25.1016 C   0  0  2  0  0  0  0  0  0  0  0  0
    7.4323  -14.4538   23.7018 N   0  0  0  0  0  0  0  0  0  0  0  0
    8.1835  -15.6599   25.6723 C   0  0  0  0  0  0  0  0  0  0  0  0
    7.2415  -16.4732   25.8529 O   0  0  0  0  0  0  0  0  0  0  0  0
   12.9700  -16.3163   20.6702 N   0  0  0  0  0  0  0  0  0  0  0  0
   13.5868  -15.8485   21.8507 C   0  0  0  0  0  0  0  0  0  0  0  0
   14.7025  -15.1693   21.7938 N   0  0  0  0  0  0  0  0  0  0  0  0
   13.0552  -16.0764   23.1451 N   0  0  0  0  0  0  0  0  0  0  0  0
   11.9330  -17.0552   23.2951 C   0  0  0  0  0  0  0  0  0  0  0  0
   11.7285  -17.2376   24.7514 C   0  0  0  0  0  0  0  0  0  0  0  0
   10.6500  -18.0245   25.3173 C   0  0  0  0  0  0  0  0  0  0  0  0
    9.8260  -17.4595   26.4153 C   0  0  2  0  0  0  0  0  0  0  0  0
    9.4739  -16.0505   26.0146 N   0  0  0  0  0  0  0  0  0  0  0  0
   10.6762  -17.1968   27.6216 C   0  0  0  0  0  0  0  0  0  0  0  0
   10.9886  -18.0477   28.6322 O   0  0  0  0  0  0  0  0  0  0  0  0
   11.1728  -16.0229   27.7249 O   0  0  0  0  0  0  0  0  0  0  0  0
  2  1  1  6
  3  2  1  0
  4  2  1  0
  5  6  1  1
  5  4  1  0
  7  8  2  0
  7  5  1  0
 10  9  1  1
 10 11  1  0
 11  7  1  0
 12 10  1  0
 12 22  1  0
 13 12  2  0
 15 14  1  0
 16 15  2  0
 17 15  1  0
 18 17  1  0
 19 20  1  0
 19 18  1  0
 21 20  1  6
 21 22  1  0
 21 23  1  0
 23 25  2  0
 23 24  1  0
M  END
$$$$
