LAR.pdb
     RDKit          3D

 25 24  0  0  1  0  0  0  0  0999 V2000
    8.9523  -12.1595   19.0621 C   0  0  0  0  0  0  0  0  0  0  0  0
    8.0353  -13.2128   18.4263 C   0  0  2  0  0  0  0  0  0  0  0  0
    6.6371  -12.6601   18.5724 C   0  0  0  0  0  0  0  0  0  0  0  0
    8.2133  -14.5099   19.1394 C   0  0  0  0  0  0  0  0  0  0  0  0
    9.6670  -14.9535   19.1963 C   0  0  2  0  0  0  0  0  0  0  0  0
   10.0704  -15.2833   17.8445 N   0  0  0  0  0  0  0  0  0  0  0  0
    9.8095  -16.1159   20.1099 C   0  0  0  0  0  0  0  0  0  0  0  0
    9.2832  -15.9690   21.2667 O   0  0  0  0  0  0  0  0  0  0  0  0
   11.4614  -19.4336   20.2668 C   0  0  0  0  0  0  0  0  0  0  0  0
   10.5698  -18.3303   20.8553 C   0  0  2  0  0  0  0  0  0  0  0  0
   10.4606  -17.3240   19.8012 N   0  0  0  0  0  0  0  0  0  0  0  0
   11.3154  -17.7979   22.0254 C   0  0  0  0  0  0  0  0  0  0  0  0
   12.3051  -17.0594   21.7878 O   0  0  0  0  0  0  0  0  0  0  0  0
   10.8074  -13.4379   28.8738 N   0  0  0  0  0  0  0  0  0  0  0  0
   10.3598  -14.7115   29.2868 C   0  0  0  0  0  0  0  0  0  0  0  0
   10.7673  -15.2250   30.4179 N   0  0  0  0  0  0  0  0  0  0  0  0
    9.4623  -15.5017   28.5251 N   0  0  0  0  0  0  0  0  0  0  0  0
    9.3102  -15.2055   27.0660 C   0  0  0  0  0  0  0  0  0  0  0  0
   10.4345  -15.8860   26.3813 C   0  0  0  0  0  0  0  0  0  0  0  0
   10.2868  -16.6373   25.1498 C   0  0  0  0  0  0  0  0  0  0  0  0
   11.4841  -17.2304   24.5029 C   0  0  2  0  0  0  0  0  0  0  0  0
   10.9879  -18.0647   23.3507 N   0  0  0  0  0  0  0  0  0  0  0  0
   12.0744  -18.2949   25.3777 C   0  0  0  0  0  0  0  0  0  0  0  0
   11.8300  -19.6302   25.3593 O   0  0  0  0  0  0  0  0  0  0  0  0
   12.9136  -17.9069   26.2612 O   0  0  0  0  0  0  0  0  0  0  0  0
  2  1  1  1
  3  2  1  0
  4  2  1  0
  5  6  1  6
  5  4  1  0
  7  8  2  0
  7  5  1  0
 10  9  1  6
 10 11  1  0
 11  7  1  0
 12 10  1  0
 12 22  1  0
 13 12  2  0
 15 14  1  0
 16 15  2  0
 17 15  1  0
 18 17  1  0
 19 20  1  0
 19 18  1  0
 21 20  1  1
 21 22  1  0
 21 23  1  0
 23 25  2  0
 23 24  1  0
M  END
$$$$
