LAR.pdb
     RDKit          3D

 25 24  0  0  1  0  0  0  0  0999 V2000
    7.5285  -12.6362   20.3020 C   0  0  0  0  0  0  0  0  0  0  0  0
    8.1924  -13.6535   19.3646 C   0  0  2  0  0  0  0  0  0  0  0  0
    8.0502  -13.0670   17.9798 C   0  0  0  0  0  0  0  0  0  0  0  0
    7.5013  -14.9674   19.5013 C   0  0  0  0  0  0  0  0  0  0  0  0
    8.1718  -16.0697   18.6959 C   0  0  2  0  0  0  0  0  0  0  0  0
    7.1255  -16.9471   18.2116 N   0  0  0  0  0  0  0  0  0  0  0  0
    9.1489  -16.7984   19.5446 C   0  0  0  0  0  0  0  0  0  0  0  0
    8.6532  -17.3833   20.5688 O   0  0  0  0  0  0  0  0  0  0  0  0
   12.6398  -17.9702   19.5385 C   0  0  0  0  0  0  0  0  0  0  0  0
   11.3495  -17.6022   20.2855 C   0  0  2  0  0  0  0  0  0  0  0  0
   10.5328  -16.8859   19.3079 N   0  0  0  0  0  0  0  0  0  0  0  0
   11.7717  -16.7015   21.3895 C   0  0  0  0  0  0  0  0  0  0  0  0
   12.1372  -15.5401   21.0749 O   0  0  0  0  0  0  0  0  0  0  0  0
   10.4846  -16.6838   30.2904 N   0  0  0  0  0  0  0  0  0  0  0  0
   10.7134  -15.3661   29.8387 C   0  0  0  0  0  0  0  0  0  0  0  0
   10.7975  -14.3767   30.6891 N   0  0  0  0  0  0  0  0  0  0  0  0
   10.8632  -15.0317   28.4690 N   0  0  0  0  0  0  0  0  0  0  0  0
   10.5119  -16.0596   27.4395 C   0  0  0  0  0  0  0  0  0  0  0  0
   11.3479  -15.7653   26.2519 C   0  0  0  0  0  0  0  0  0  0  0  0
   11.2880  -16.5282   25.0202 C   0  0  0  0  0  0  0  0  0  0  0  0
   12.0752  -16.0846   23.8422 C   0  0  2  0  0  0  0  0  0  0  0  0
   11.7869  -17.0623   22.7328 N   0  0  0  0  0  0  0  0  0  0  0  0
   13.5347  -16.3447   24.0641 C   0  0  0  0  0  0  0  0  0  0  0  0
   14.4948  -15.4695   24.4579 O   0  0  0  0  0  0  0  0  0  0  0  0
   13.9397  -17.5394   23.8542 O   0  0  0  0  0  0  0  0  0  0  0  0
  2  1  1  1
  3  2  1  0
  4  2  1  0
  5  6  1  1
  5  4  1  0
  7  8  2  0
  7  5  1  0
 10  9  1  6
 10 11  1  0
 11  7  1  0
 12 10  1  0
 12 22  1  0
 13 12  2  0
 15 14  1  0
 16 15  2  0
 17 15  1  0
 18 17  1  0
 19 20  1  0
 19 18  1  0
 21 20  1  1
 21 22  1  0
 21 23  1  0
 23 25  2  0
 23 24  1  0
M  END
$$$$
