EHT.pdb
     RDKit          3D

 27 27  0  0  1  0  0  0  0  0999 V2000
   15.9269  -15.5272   15.1747 N   0  0  0  0  0  0  0  0  0  0  0  0
   14.8692  -16.4669   15.5313 C   0  0  1  0  0  0  0  0  0  0  0  0
   15.3823  -17.2387   16.7158 C   0  0  0  0  0  0  0  0  0  0  0  0
   16.1062  -16.4228   17.7350 C   0  0  0  0  0  0  0  0  0  0  0  0
   16.6120  -17.1758   18.8935 C   0  0  0  0  0  0  0  0  0  0  0  0
   17.2148  -16.5873   19.8261 O   0  0  0  0  0  0  0  0  0  0  0  0
   13.6124  -15.7479   15.8564 C   0  0  0  0  0  0  0  0  0  0  0  0
   13.5929  -14.5856   16.3247 O   0  0  0  0  0  0  0  0  0  0  0  0
   16.4538  -18.5403   19.0125 O   0  0  0  0  0  0  0  0  0  0  0  0
   12.3251  -16.3467   15.6520 N   0  0  0  0  0  0  0  0  0  0  0  0
   11.0814  -15.6896   15.9175 C   0  0  1  0  0  0  0  0  0  0  0  0
    9.8816  -16.3855   15.3306 C   0  0  0  0  0  0  0  0  0  0  0  0
    8.7208  -15.4696   15.1811 C   0  0  0  0  0  0  0  0  0  0  0  0
    8.7235  -14.1226   15.4883 C   0  0  0  0  0  0  0  0  0  0  0  0
    7.5146  -13.5896   15.2366 N   0  0  0  0  0  0  0  0  0  0  0  0
    6.7409  -14.5814   14.7723 C   0  0  0  0  0  0  0  0  0  0  0  0
    7.4759  -15.7216   14.7398 N   0  0  0  0  0  0  0  0  0  0  0  0
   10.8981  -15.5328   17.4065 C   0  0  0  0  0  0  0  0  0  0  0  0
   11.5177  -16.2800   18.2075 O   0  0  0  0  0  0  0  0  0  0  0  0
    9.4700  -12.0594   19.4870 C   0  0  0  0  0  0  0  0  0  0  0  0
    8.7318  -13.3815   19.6401 C   0  0  1  0  0  0  0  0  0  0  0  0
    7.7317  -13.3875   18.6601 O   0  0  0  0  0  0  0  0  0  0  0  0
    9.6847  -14.5051   19.3074 C   0  0  2  0  0  0  0  0  0  0  0  0
   10.0159  -14.5301   17.9005 N   0  0  0  0  0  0  0  0  0  0  0  0
    9.0208  -15.8123   19.6313 C   0  0  0  0  0  0  0  0  0  0  0  0
    8.7928  -16.6699   18.7421 O   0  0  0  0  0  0  0  0  0  0  0  0
    8.6596  -16.0597   20.9448 O   0  0  0  0  0  0  0  0  0  0  0  0
  2  7  1  0
  2  1  1  1
  3  2  1  0
  4  3  1  0
  5  6  2  0
  5  4  1  0
  7  8  2  0
  9  5  1  0
 10 11  1  0
 10  7  1  0
 11 12  1  1
 12 13  1  0
 13 14  2  0
 14 15  1  0
 16 15  1  0
 17 13  1  0
 17 16  2  0
 18 19  2  0
 18 11  1  0
 21 20  1  6
 21 23  1  0
 22 21  1  0
 23 25  1  0
 23 24  1  6
 24 18  1  0
 25 27  1  0
 26 25  2  0
M  END
$$$$
