EHT.pdb
     RDKit          3D

 27 27  0  0  1  0  0  0  0  0999 V2000
    6.2277  -18.2005   20.7543 N   0  0  0  0  0  0  0  0  0  0  0  0
    7.0683  -17.0779   21.1569 C   0  0  1  0  0  0  0  0  0  0  0  0
    6.6065  -15.9011   20.3421 C   0  0  0  0  0  0  0  0  0  0  0  0
    6.8863  -15.9978   18.8790 C   0  0  0  0  0  0  0  0  0  0  0  0
    8.3036  -16.1715   18.5241 C   0  0  0  0  0  0  0  0  0  0  0  0
    8.9013  -17.2465   18.7822 O   0  0  0  0  0  0  0  0  0  0  0  0
    6.9361  -16.8151   22.6114 C   0  0  0  0  0  0  0  0  0  0  0  0
    5.8373  -16.5752   23.1643 O   0  0  0  0  0  0  0  0  0  0  0  0
    9.0350  -15.1817   17.9025 O   0  0  0  0  0  0  0  0  0  0  0  0
    8.0730  -16.8192   23.4860 N   0  0  0  0  0  0  0  0  0  0  0  0
    7.9953  -16.6597   24.9064 C   0  0  1  0  0  0  0  0  0  0  0  0
    8.8774  -17.6043   25.6796 C   0  0  0  0  0  0  0  0  0  0  0  0
    8.2483  -18.9391   25.8570 C   0  0  0  0  0  0  0  0  0  0  0  0
    6.9546  -19.2646   25.4980 C   0  0  0  0  0  0  0  0  0  0  0  0
    6.7037  -20.5523   25.7944 N   0  0  0  0  0  0  0  0  0  0  0  0
    7.8228  -21.0517   26.3384 C   0  0  0  0  0  0  0  0  0  0  0  0
    8.7588  -20.0700   26.3753 N   0  0  0  0  0  0  0  0  0  0  0  0
    8.3303  -15.2363   25.2763 C   0  0  0  0  0  0  0  0  0  0  0  0
    9.4056  -14.7120   24.8853 O   0  0  0  0  0  0  0  0  0  0  0  0
    6.0392  -11.9473   25.1694 C   0  0  0  0  0  0  0  0  0  0  0  0
    6.5353  -12.2598   26.5739 C   0  0  1  0  0  0  0  0  0  0  0  0
    5.5324  -13.0240   27.1826 O   0  0  0  0  0  0  0  0  0  0  0  0
    7.7587  -13.1391   26.4667 C   0  0  2  0  0  0  0  0  0  0  0  0
    7.4182  -14.4879   26.0736 N   0  0  0  0  0  0  0  0  0  0  0  0
    8.4136  -13.2208   27.8153 C   0  0  0  0  0  0  0  0  0  0  0  0
    8.7997  -12.1897   28.4203 O   0  0  0  0  0  0  0  0  0  0  0  0
    8.5868  -14.4692   28.3885 O   0  0  0  0  0  0  0  0  0  0  0  0
  2  7  1  0
  2  1  1  6
  3  2  1  0
  4  3  1  0
  5  6  2  0
  5  4  1  0
  7  8  2  0
  9  5  1  0
 10 11  1  0
 10  7  1  0
 11 12  1  1
 12 13  1  0
 13 14  2  0
 14 15  1  0
 16 15  1  0
 17 13  1  0
 17 16  2  0
 18 19  2  0
 18 11  1  0
 21 20  1  6
 21 23  1  0
 22 21  1  0
 23 25  1  0
 23 24  1  1
 24 18  1  0
 25 27  1  0
 26 25  2  0
M  END
$$$$
