EHT.pdb
     RDKit          3D

 27 27  0  0  1  0  0  0  0  0999 V2000
   13.8323  -14.5094   18.3510 N   0  0  0  0  0  0  0  0  0  0  0  0
   12.8978  -15.5957   18.6258 C   0  0  1  0  0  0  0  0  0  0  0  0
   13.7253  -16.8503   18.6821 C   0  0  0  0  0  0  0  0  0  0  0  0
   15.0848  -16.6834   19.2756 C   0  0  0  0  0  0  0  0  0  0  0  0
   15.9015  -17.9064   19.3202 C   0  0  0  0  0  0  0  0  0  0  0  0
   16.6762  -18.1940   18.3735 O   0  0  0  0  0  0  0  0  0  0  0  0
   12.1793  -15.3629   19.9032 C   0  0  0  0  0  0  0  0  0  0  0  0
   12.6915  -14.7570   20.8734 O   0  0  0  0  0  0  0  0  0  0  0  0
   15.8586  -18.7836   20.3832 O   0  0  0  0  0  0  0  0  0  0  0  0
   10.8365  -15.8231   20.1093 N   0  0  0  0  0  0  0  0  0  0  0  0
   10.0798  -15.5874   21.3013 C   0  0  1  0  0  0  0  0  0  0  0  0
    8.6325  -15.2520   21.0537 C   0  0  0  0  0  0  0  0  0  0  0  0
    8.4730  -14.1676   20.0501 C   0  0  0  0  0  0  0  0  0  0  0  0
    9.5087  -13.5227   19.4019 C   0  0  0  0  0  0  0  0  0  0  0  0
    9.0194  -12.5955   18.5593 N   0  0  0  0  0  0  0  0  0  0  0  0
    7.6834  -12.6418   18.6629 C   0  0  0  0  0  0  0  0  0  0  0  0
    7.3546  -13.5970   19.5688 N   0  0  0  0  0  0  0  0  0  0  0  0
   10.1735  -16.7894   22.2077 C   0  0  0  0  0  0  0  0  0  0  0  0
    9.2783  -17.6739   22.1885 O   0  0  0  0  0  0  0  0  0  0  0  0
   12.7075  -19.2905   22.0952 C   0  0  0  0  0  0  0  0  0  0  0  0
   12.7469  -18.8270   23.5443 C   0  0  1  0  0  0  0  0  0  0  0  0
   13.7601  -17.8635   23.6200 O   0  0  0  0  0  0  0  0  0  0  0  0
   11.4461  -18.1276   23.8606 C   0  0  2  0  0  0  0  0  0  0  0  0
   11.2856  -16.9164   23.0880 N   0  0  0  0  0  0  0  0  0  0  0  0
   11.4500  -17.7338   25.3094 C   0  0  0  0  0  0  0  0  0  0  0  0
   11.4775  -18.5955   26.2231 O   0  0  0  0  0  0  0  0  0  0  0  0
   11.4225  -16.3860   25.6254 O   0  0  0  0  0  0  0  0  0  0  0  0
  2  7  1  0
  2  1  1  1
  3  2  1  0
  4  3  1  0
  5  6  2  0
  5  4  1  0
  7  8  2  0
  9  5  1  0
 10 11  1  0
 10  7  1  0
 11 12  1  6
 12 13  1  0
 13 14  2  0
 14 15  1  0
 16 15  1  0
 17 13  1  0
 17 16  2  0
 18 19  2  0
 18 11  1  0
 21 20  1  6
 21 23  1  0
 22 21  1  0
 23 25  1  0
 23 24  1  6
 24 18  1  0
 25 27  1  0
 26 25  2  0
M  END
$$$$
