EHT.pdb
     RDKit          3D

 27 27  0  0  1  0  0  0  0  0999 V2000
    9.6120  -18.4474   18.3220 N   0  0  0  0  0  0  0  0  0  0  0  0
   10.7975  -17.6055   18.4431 C   0  0  1  0  0  0  0  0  0  0  0  0
   10.9979  -16.9750   17.0924 C   0  0  0  0  0  0  0  0  0  0  0  0
   10.0702  -17.4572   16.0270 C   0  0  0  0  0  0  0  0  0  0  0  0
   10.7210  -17.8866   14.7793 C   0  0  0  0  0  0  0  0  0  0  0  0
   11.4132  -18.9349   14.7459 O   0  0  0  0  0  0  0  0  0  0  0  0
   10.6097  -16.5787   19.4978 C   0  0  0  0  0  0  0  0  0  0  0  0
   11.4648  -15.6990   19.7537 O   0  0  0  0  0  0  0  0  0  0  0  0
   10.6073  -17.1733   13.6047 O   0  0  0  0  0  0  0  0  0  0  0  0
    9.4220  -16.5290   20.3005 N   0  0  0  0  0  0  0  0  0  0  0  0
    9.2113  -15.5988   21.3680 C   0  0  1  0  0  0  0  0  0  0  0  0
    7.9531  -14.7822   21.2316 C   0  0  0  0  0  0  0  0  0  0  0  0
    7.8810  -14.0792   19.9242 C   0  0  0  0  0  0  0  0  0  0  0  0
    8.2625  -12.7703   19.7008 C   0  0  0  0  0  0  0  0  0  0  0  0
    8.0687  -12.4472   18.4097 N   0  0  0  0  0  0  0  0  0  0  0  0
    7.5680  -13.5353   17.8070 C   0  0  0  0  0  0  0  0  0  0  0  0
    7.4550  -14.5245   18.7290 N   0  0  0  0  0  0  0  0  0  0  0  0
    9.1985  -16.3330   22.6856 C   0  0  0  0  0  0  0  0  0  0  0  0
    8.1111  -16.7100   23.1950 O   0  0  0  0  0  0  0  0  0  0  0  0
   10.6122  -19.5505   23.4527 C   0  0  0  0  0  0  0  0  0  0  0  0
   11.2700  -18.6138   24.4557 C   0  0  1  0  0  0  0  0  0  0  0  0
   12.4919  -18.2297   23.8900 O   0  0  0  0  0  0  0  0  0  0  0  0
   10.4256  -17.3671   24.5742 C   0  0  2  0  0  0  0  0  0  0  0  0
   10.4295  -16.5970   23.3508 N   0  0  0  0  0  0  0  0  0  0  0  0
   11.0026  -16.4942   25.6510 C   0  0  0  0  0  0  0  0  0  0  0  0
   11.5688  -15.4062   25.3798 O   0  0  0  0  0  0  0  0  0  0  0  0
   10.8981  -16.9149   26.9660 O   0  0  0  0  0  0  0  0  0  0  0  0
  2  7  1  0
  2  1  1  6
  3  2  1  0
  4  3  1  0
  5  6  2  0
  5  4  1  0
  7  8  2  0
  9  5  1  0
 10 11  1  0
 10  7  1  0
 11 12  1  6
 12 13  1  0
 13 14  2  0
 14 15  1  0
 16 15  1  0
 17 13  1  0
 17 16  2  0
 18 19  2  0
 18 11  1  0
 21 20  1  6
 21 23  1  0
 22 21  1  0
 23 25  1  0
 23 24  1  6
 24 18  1  0
 25 27  1  0
 26 25  2  0
M  END
$$$$
