EHT.pdb
     RDKit          3D

 27 27  0  0  1  0  0  0  0  0999 V2000
    9.7131  -18.1170   16.9723 N   0  0  0  0  0  0  0  0  0  0  0  0
    9.3444  -18.3287   18.3681 C   0  0  1  0  0  0  0  0  0  0  0  0
    9.9350  -19.6563   18.7561 C   0  0  0  0  0  0  0  0  0  0  0  0
    9.0545  -20.8357   18.5068 C   0  0  0  0  0  0  0  0  0  0  0  0
    9.6476  -22.1399   18.8414 C   0  0  0  0  0  0  0  0  0  0  0  0
   10.8293  -22.2171   19.2620 O   0  0  0  0  0  0  0  0  0  0  0  0
    9.8653  -17.2333   19.2230 C   0  0  0  0  0  0  0  0  0  0  0  0
   11.0158  -16.7539   19.0921 O   0  0  0  0  0  0  0  0  0  0  0  0
    8.9501  -23.3223   18.7121 O   0  0  0  0  0  0  0  0  0  0  0  0
    9.0737  -16.6478   20.2661 N   0  0  0  0  0  0  0  0  0  0  0  0
    9.4764  -15.5133   21.0405 C   0  0  1  0  0  0  0  0  0  0  0  0
    8.4287  -14.4360   21.1422 C   0  0  0  0  0  0  0  0  0  0  0  0
    8.0075  -13.9370   19.8071 C   0  0  0  0  0  0  0  0  0  0  0  0
    6.7065  -13.6612   19.4334 C   0  0  0  0  0  0  0  0  0  0  0  0
    6.6742  -13.2276   18.1606 N   0  0  0  0  0  0  0  0  0  0  0  0
    7.9400  -13.2238   17.7184 C   0  0  0  0  0  0  0  0  0  0  0  0
    8.7473  -13.6551   18.7202 N   0  0  0  0  0  0  0  0  0  0  0  0
    9.8794  -15.9602   22.4236 C   0  0  0  0  0  0  0  0  0  0  0  0
    9.0532  -15.9219   23.3722 O   0  0  0  0  0  0  0  0  0  0  0  0
   10.5092  -19.1369   23.7243 C   0  0  0  0  0  0  0  0  0  0  0  0
   11.8329  -18.4153   23.9327 C   0  0  1  0  0  0  0  0  0  0  0  0
   12.6063  -18.6792   22.7957 O   0  0  0  0  0  0  0  0  0  0  0  0
   11.5709  -16.9280   23.9548 C   0  0  2  0  0  0  0  0  0  0  0  0
   11.2057  -16.4272   22.6488 N   0  0  0  0  0  0  0  0  0  0  0  0
   12.8311  -16.2223   24.3651 C   0  0  0  0  0  0  0  0  0  0  0  0
   13.4184  -15.4259   23.5911 O   0  0  0  0  0  0  0  0  0  0  0  0
   13.3416  -16.4677   25.6285 O   0  0  0  0  0  0  0  0  0  0  0  0
  2  7  1  0
  2  1  1  6
  3  2  1  0
  4  3  1  0
  5  6  2  0
  5  4  1  0
  7  8  2  0
  9  5  1  0
 10 11  1  0
 10  7  1  0
 11 12  1  1
 12 13  1  0
 13 14  2  0
 14 15  1  0
 16 15  1  0
 17 13  1  0
 17 16  2  0
 18 19  2  0
 18 11  1  0
 21 20  1  6
 21 23  1  0
 22 21  1  0
 23 25  1  0
 23 24  1  6
 24 18  1  0
 25 27  1  0
 26 25  2  0
M  END
$$$$
