EHT.pdb
     RDKit          3D

 27 27  0  0  1  0  0  0  0  0999 V2000
   10.1098  -16.3922   17.9766 N   0  0  0  0  0  0  0  0  0  0  0  0
    9.3476  -17.1549   18.9596 C   0  0  1  0  0  0  0  0  0  0  0  0
    9.9838  -18.5167   19.0117 C   0  0  0  0  0  0  0  0  0  0  0  0
    9.8510  -19.3234   17.7628 C   0  0  0  0  0  0  0  0  0  0  0  0
   10.4251  -20.6766   17.8291 C   0  0  0  0  0  0  0  0  0  0  0  0
   10.3627  -21.4479   16.8389 O   0  0  0  0  0  0  0  0  0  0  0  0
    9.3823  -16.4896   20.2856 C   0  0  0  0  0  0  0  0  0  0  0  0
   10.4475  -16.2483   20.9002 O   0  0  0  0  0  0  0  0  0  0  0  0
   11.0486  -21.1587   18.9605 O   0  0  0  0  0  0  0  0  0  0  0  0
    8.1828  -16.0761   20.9548 N   0  0  0  0  0  0  0  0  0  0  0  0
    8.1510  -15.4970   22.2634 C   0  0  1  0  0  0  0  0  0  0  0  0
    6.8276  -14.8779   22.6291 C   0  0  0  0  0  0  0  0  0  0  0  0
    6.8817  -14.1725   23.9362 C   0  0  0  0  0  0  0  0  0  0  0  0
    8.0072  -14.0452   24.7272 C   0  0  0  0  0  0  0  0  0  0  0  0
    7.7123  -13.3506   25.8406 N   0  0  0  0  0  0  0  0  0  0  0  0
    6.4115  -13.0335   25.7685 C   0  0  0  0  0  0  0  0  0  0  0  0
    5.9099  -13.5340   24.6113 N   0  0  0  0  0  0  0  0  0  0  0  0
    8.5235  -16.5389   23.2886 C   0  0  0  0  0  0  0  0  0  0  0  0
    7.9042  -17.6334   23.3395 O   0  0  0  0  0  0  0  0  0  0  0  0
   11.5007  -18.3116   23.3495 C   0  0  0  0  0  0  0  0  0  0  0  0
   11.4670  -17.7364   24.7582 C   0  0  1  0  0  0  0  0  0  0  0  0
   12.2340  -16.5654   24.7216 O   0  0  0  0  0  0  0  0  0  0  0  0
   10.0485  -17.3269   25.0762 C   0  0  2  0  0  0  0  0  0  0  0  0
    9.5840  -16.2741   24.2012 N   0  0  0  0  0  0  0  0  0  0  0  0
   10.0037  -16.7919   26.4784 C   0  0  0  0  0  0  0  0  0  0  0  0
    9.7280  -15.5888   26.7127 O   0  0  0  0  0  0  0  0  0  0  0  0
   10.2749  -17.6592   27.5230 O   0  0  0  0  0  0  0  0  0  0  0  0
  2  7  1  0
  2  1  1  6
  3  2  1  0
  4  3  1  0
  5  6  2  0
  5  4  1  0
  7  8  2  0
  9  5  1  0
 10 11  1  0
 10  7  1  0
 11 12  1  1
 12 13  1  0
 13 14  2  0
 14 15  1  0
 16 15  1  0
 17 13  1  0
 17 16  2  0
 18 19  2  0
 18 11  1  0
 21 20  1  6
 21 23  1  0
 22 21  1  0
 23 25  1  0
 23 24  1  6
 24 18  1  0
 25 27  1  0
 26 25  2  0
M  END
$$$$
