EHT.pdb
     RDKit          3D

 27 27  0  0  1  0  0  0  0  0999 V2000
   15.1943  -18.7229   16.1364 N   0  0  0  0  0  0  0  0  0  0  0  0
   14.9155  -19.4527   17.3687 C   0  0  1  0  0  0  0  0  0  0  0  0
   16.1372  -19.2924   18.2310 C   0  0  0  0  0  0  0  0  0  0  0  0
   17.3393  -20.0473   17.7687 C   0  0  0  0  0  0  0  0  0  0  0  0
   18.5349  -19.8958   18.6128 C   0  0  0  0  0  0  0  0  0  0  0  0
   19.4356  -19.0749   18.3059 O   0  0  0  0  0  0  0  0  0  0  0  0
   13.7055  -18.9144   18.0383 C   0  0  0  0  0  0  0  0  0  0  0  0
   13.3067  -17.7365   17.8827 O   0  0  0  0  0  0  0  0  0  0  0  0
   18.7249  -20.6337   19.7619 O   0  0  0  0  0  0  0  0  0  0  0  0
   12.9070  -19.7196   18.9166 N   0  0  0  0  0  0  0  0  0  0  0  0
   11.6791  -19.2858   19.5110 C   0  0  1  0  0  0  0  0  0  0  0  0
   10.5017  -20.1740   19.2058 C   0  0  0  0  0  0  0  0  0  0  0  0
   10.0709  -20.0647   17.7876 C   0  0  0  0  0  0  0  0  0  0  0  0
    9.3714  -19.0033   17.2466 C   0  0  0  0  0  0  0  0  0  0  0  0
    9.1416  -19.2206   15.9393 N   0  0  0  0  0  0  0  0  0  0  0  0
    9.6866  -20.4087   15.6405 C   0  0  0  0  0  0  0  0  0  0  0  0
   10.2500  -20.9188   16.7647 N   0  0  0  0  0  0  0  0  0  0  0  0
   11.8520  -19.1692   21.0049 C   0  0  0  0  0  0  0  0  0  0  0  0
   12.7041  -19.8745   21.6053 O   0  0  0  0  0  0  0  0  0  0  0  0
   11.3325  -15.5722   22.9168 C   0  0  0  0  0  0  0  0  0  0  0  0
   10.6740  -16.7459   23.6277 C   0  0  1  0  0  0  0  0  0  0  0  0
    9.3395  -16.7616   23.2044 O   0  0  0  0  0  0  0  0  0  0  0  0
   11.3101  -18.0242   23.1351 C   0  0  2  0  0  0  0  0  0  0  0  0
   11.0413  -18.2525   21.7331 N   0  0  0  0  0  0  0  0  0  0  0  0
   10.7229  -19.1789   23.8943 C   0  0  0  0  0  0  0  0  0  0  0  0
    9.9154  -19.9756   23.3546 O   0  0  0  0  0  0  0  0  0  0  0  0
   11.0921  -19.3527   25.2173 O   0  0  0  0  0  0  0  0  0  0  0  0
  2  7  1  0
  2  1  1  6
  3  2  1  0
  4  3  1  0
  5  6  2  0
  5  4  1  0
  7  8  2  0
  9  5  1  0
 10 11  1  0
 10  7  1  0
 11 12  1  1
 12 13  1  0
 13 14  2  0
 14 15  1  0
 16 15  1  0
 17 13  1  0
 17 16  2  0
 18 19  2  0
 18 11  1  0
 21 20  1  6
 21 23  1  0
 22 21  1  0
 23 25  1  0
 23 24  1  6
 24 18  1  0
 25 27  1  0
 26 25  2  0
M  END
$$$$
