EHT.pdb
     RDKit          3D

 27 27  0  0  1  0  0  0  0  0999 V2000
    9.7494  -17.5518   17.3159 N   0  0  0  0  0  0  0  0  0  0  0  0
   10.9423  -17.7363   18.1356 C   0  0  1  0  0  0  0  0  0  0  0  0
   12.1003  -17.7863   17.1771 C   0  0  0  0  0  0  0  0  0  0  0  0
   11.8203  -18.4791   15.8849 C   0  0  0  0  0  0  0  0  0  0  0  0
   12.5885  -19.7134   15.6585 C   0  0  0  0  0  0  0  0  0  0  0  0
   12.1012  -20.8339   15.9522 O   0  0  0  0  0  0  0  0  0  0  0  0
   11.0912  -16.6250   19.1077 C   0  0  0  0  0  0  0  0  0  0  0  0
   11.9693  -15.7374   19.0000 O   0  0  0  0  0  0  0  0  0  0  0  0
   13.8592  -19.7037   15.1232 O   0  0  0  0  0  0  0  0  0  0  0  0
   10.2279  -16.4966   20.2460 N   0  0  0  0  0  0  0  0  0  0  0  0
   10.3198  -15.4423   21.2099 C   0  0  1  0  0  0  0  0  0  0  0  0
    9.0238  -14.7127   21.4474 C   0  0  0  0  0  0  0  0  0  0  0  0
    8.4854  -14.1078   20.2011 C   0  0  0  0  0  0  0  0  0  0  0  0
    9.1107  -14.1305   18.9694 C   0  0  0  0  0  0  0  0  0  0  0  0
    8.3551  -13.4942   18.0567 N   0  0  0  0  0  0  0  0  0  0  0  0
    7.2550  -13.0659   18.6924 C   0  0  0  0  0  0  0  0  0  0  0  0
    7.3370  -13.4398   19.9942 N   0  0  0  0  0  0  0  0  0  0  0  0
   10.8383  -15.9920   22.5153 C   0  0  0  0  0  0  0  0  0  0  0  0
   10.0556  -16.1855   23.4816 O   0  0  0  0  0  0  0  0  0  0  0  0
   12.0005  -19.1799   23.3597 C   0  0  0  0  0  0  0  0  0  0  0  0
   13.1998  -18.2935   23.6634 C   0  0  1  0  0  0  0  0  0  0  0  0
   13.9863  -18.2879   22.5050 O   0  0  0  0  0  0  0  0  0  0  0  0
   12.7114  -16.8798   23.8739 C   0  0  2  0  0  0  0  0  0  0  0  0
   12.2243  -16.2913   22.6466 N   0  0  0  0  0  0  0  0  0  0  0  0
   13.8613  -16.0373   24.3454 C   0  0  0  0  0  0  0  0  0  0  0  0
   14.3278  -15.1098   23.6382 O   0  0  0  0  0  0  0  0  0  0  0  0
   14.4059  -16.3039   25.5901 O   0  0  0  0  0  0  0  0  0  0  0  0
  2  7  1  0
  2  1  1  6
  3  2  1  0
  4  3  1  0
  5  6  2  0
  5  4  1  0
  7  8  2  0
  9  5  1  0
 10 11  1  0
 10  7  1  0
 11 12  1  1
 12 13  1  0
 13 14  2  0
 14 15  1  0
 16 15  1  0
 17 13  1  0
 17 16  2  0
 18 19  2  0
 18 11  1  0
 21 20  1  6
 21 23  1  0
 22 21  1  0
 23 25  1  0
 23 24  1  6
 24 18  1  0
 25 27  1  0
 26 25  2  0
M  END
$$$$
