EHT.pdb
     RDKit          3D

 27 27  0  0  1  0  0  0  0  0999 V2000
   11.3164  -17.2721   18.0074 N   0  0  0  0  0  0  0  0  0  0  0  0
   10.3495  -17.7710   18.9795 C   0  0  1  0  0  0  0  0  0  0  0  0
   10.7909  -19.1668   19.3244 C   0  0  0  0  0  0  0  0  0  0  0  0
   11.9639  -19.2485   20.2442 C   0  0  0  0  0  0  0  0  0  0  0  0
   12.4431  -20.6108   20.5260 C   0  0  0  0  0  0  0  0  0  0  0  0
   13.3910  -20.8030   21.3283 O   0  0  0  0  0  0  0  0  0  0  0  0
   10.3136  -16.9016   20.1816 C   0  0  0  0  0  0  0  0  0  0  0  0
   11.3017  -16.2374   20.5730 O   0  0  0  0  0  0  0  0  0  0  0  0
   11.8873  -21.7253   19.9343 O   0  0  0  0  0  0  0  0  0  0  0  0
    9.1301  -16.7660   20.9806 N   0  0  0  0  0  0  0  0  0  0  0  0
    8.9995  -15.8535   22.0758 C   0  0  1  0  0  0  0  0  0  0  0  0
    7.8073  -14.9389   21.9743 C   0  0  0  0  0  0  0  0  0  0  0  0
    7.9247  -13.9904   20.8361 C   0  0  0  0  0  0  0  0  0  0  0  0
    7.3311  -14.1522   19.5992 C   0  0  0  0  0  0  0  0  0  0  0  0
    7.6383  -13.1144   18.8007 N   0  0  0  0  0  0  0  0  0  0  0  0
    8.4212  -12.2925   19.5145 C   0  0  0  0  0  0  0  0  0  0  0  0
    8.5934  -12.8271   20.7498 N   0  0  0  0  0  0  0  0  0  0  0  0
    8.9395  -16.6222   23.3722 C   0  0  0  0  0  0  0  0  0  0  0  0
    7.8498  -17.1032   23.7785 O   0  0  0  0  0  0  0  0  0  0  0  0
   10.4419  -19.7281   24.0742 C   0  0  0  0  0  0  0  0  0  0  0  0
   10.9942  -18.8386   25.1788 C   0  0  1  0  0  0  0  0  0  0  0  0
   12.2362  -18.3772   24.7261 O   0  0  0  0  0  0  0  0  0  0  0  0
   10.0970  -17.6316   25.3174 C   0  0  2  0  0  0  0  0  0  0  0  0
   10.1286  -16.8000   24.1353 N   0  0  0  0  0  0  0  0  0  0  0  0
   10.5879  -16.7946   26.4632 C   0  0  0  0  0  0  0  0  0  0  0  0
   11.0260  -15.6309   26.2846 O   0  0  0  0  0  0  0  0  0  0  0  0
   10.5488  -17.3349   27.7374 O   0  0  0  0  0  0  0  0  0  0  0  0
  2  7  1  0
  2  1  1  6
  3  2  1  0
  4  3  1  0
  5  6  2  0
  5  4  1  0
  7  8  2  0
  9  5  1  0
 10 11  1  0
 10  7  1  0
 11 12  1  6
 12 13  1  0
 13 14  2  0
 14 15  1  0
 16 15  1  0
 17 13  1  0
 17 16  2  0
 18 19  2  0
 18 11  1  0
 21 20  1  6
 21 23  1  0
 22 21  1  0
 23 25  1  0
 23 24  1  6
 24 18  1  0
 25 27  1  0
 26 25  2  0
M  END
$$$$
