EHT.pdb
     RDKit          3D

 27 27  0  0  1  0  0  0  0  0999 V2000
   10.9194  -16.4754   19.9888 N   0  0  0  0  0  0  0  0  0  0  0  0
    9.6330  -16.6909   20.6427 C   0  0  1  0  0  0  0  0  0  0  0  0
    9.4152  -18.1790   20.6492 C   0  0  0  0  0  0  0  0  0  0  0  0
   10.6610  -18.9987   20.7156 C   0  0  0  0  0  0  0  0  0  0  0  0
   10.4567  -20.4536   20.6347 C   0  0  0  0  0  0  0  0  0  0  0  0
   11.4178  -21.2456   20.8030 O   0  0  0  0  0  0  0  0  0  0  0  0
    9.6426  -16.1388   22.0201 C   0  0  0  0  0  0  0  0  0  0  0  0
   10.6629  -16.1381   22.7478 O   0  0  0  0  0  0  0  0  0  0  0  0
    9.2231  -21.0117   20.3742 O   0  0  0  0  0  0  0  0  0  0  0  0
    8.4689  -15.5643   22.6117 N   0  0  0  0  0  0  0  0  0  0  0  0
    8.4463  -14.9180   23.8888 C   0  0  1  0  0  0  0  0  0  0  0  0
    7.3204  -13.9322   24.0584 C   0  0  0  0  0  0  0  0  0  0  0  0
    7.3785  -13.2363   25.3703 C   0  0  0  0  0  0  0  0  0  0  0  0
    6.2957  -12.9963   26.1940 C   0  0  0  0  0  0  0  0  0  0  0  0
    6.6942  -12.3472   27.3025 N   0  0  0  0  0  0  0  0  0  0  0  0
    8.0190  -12.1704   27.1950 C   0  0  0  0  0  0  0  0  0  0  0  0
    8.4316  -12.7111   26.0209 N   0  0  0  0  0  0  0  0  0  0  0  0
    8.3801  -15.9557   24.9815 C   0  0  0  0  0  0  0  0  0  0  0  0
    7.3314  -16.6283   25.1595 O   0  0  0  0  0  0  0  0  0  0  0  0
    9.8650  -19.0209   25.1787 C   0  0  0  0  0  0  0  0  0  0  0  0
   10.3929  -18.3655   26.4468 C   0  0  1  0  0  0  0  0  0  0  0  0
   11.6367  -17.8147   26.1146 O   0  0  0  0  0  0  0  0  0  0  0  0
    9.4821  -17.2164   26.8087 C   0  0  2  0  0  0  0  0  0  0  0  0
    9.5165  -16.1691   25.8128 N   0  0  0  0  0  0  0  0  0  0  0  0
    9.9534  -16.6160   28.1017 C   0  0  0  0  0  0  0  0  0  0  0  0
   10.3715  -15.4329   28.1614 O   0  0  0  0  0  0  0  0  0  0  0  0
    9.9186  -17.3995   29.2427 O   0  0  0  0  0  0  0  0  0  0  0  0
  2  7  1  0
  2  1  1  1
  3  2  1  0
  4  3  1  0
  5  6  2  0
  5  4  1  0
  7  8  2  0
  9  5  1  0
 10 11  1  0
 10  7  1  0
 11 12  1  6
 12 13  1  0
 13 14  2  0
 14 15  1  0
 16 15  1  0
 17 13  1  0
 17 16  2  0
 18 19  2  0
 18 11  1  0
 21 20  1  6
 21 23  1  0
 22 21  1  0
 23 25  1  0
 23 24  1  6
 24 18  1  0
 25 27  1  0
 26 25  2  0
M  END
$$$$
