EHT.pdb
     RDKit          3D

 27 27  0  0  1  0  0  0  0  0999 V2000
   11.2619  -16.7024   19.4239 N   0  0  0  0  0  0  0  0  0  0  0  0
   10.9530  -17.4434   20.6424 C   0  0  1  0  0  0  0  0  0  0  0  0
   12.1850  -18.2435   20.9646 C   0  0  0  0  0  0  0  0  0  0  0  0
   13.3677  -17.4376   21.3891 C   0  0  0  0  0  0  0  0  0  0  0  0
   14.5655  -18.2196   21.7334 C   0  0  0  0  0  0  0  0  0  0  0  0
   14.9280  -18.3423   22.9305 O   0  0  0  0  0  0  0  0  0  0  0  0
   10.6037  -16.5176   21.7483 C   0  0  0  0  0  0  0  0  0  0  0  0
   11.0207  -15.3373   21.8075 O   0  0  0  0  0  0  0  0  0  0  0  0
   15.3376  -18.8455   20.7778 O   0  0  0  0  0  0  0  0  0  0  0  0
    9.7559  -16.9220   22.8324 N   0  0  0  0  0  0  0  0  0  0  0  0
    9.1921  -16.0212   23.7913 C   0  0  1  0  0  0  0  0  0  0  0  0
    7.6863  -16.0225   23.8239 C   0  0  0  0  0  0  0  0  0  0  0  0
    7.1463  -15.0203   24.7794 C   0  0  0  0  0  0  0  0  0  0  0  0
    7.2999  -13.6517   24.6706 C   0  0  0  0  0  0  0  0  0  0  0  0
    6.6896  -13.0358   25.6988 N   0  0  0  0  0  0  0  0  0  0  0  0
    6.1484  -13.9962   26.4621 C   0  0  0  0  0  0  0  0  0  0  0  0
    6.4274  -15.2000   25.9014 N   0  0  0  0  0  0  0  0  0  0  0  0
    9.7288  -16.3405   25.1644 C   0  0  0  0  0  0  0  0  0  0  0  0
   10.0767  -17.5143   25.4559 O   0  0  0  0  0  0  0  0  0  0  0  0
   10.9545  -13.1957   27.7951 C   0  0  0  0  0  0  0  0  0  0  0  0
   10.2904  -14.4356   28.3766 C   0  0  1  0  0  0  0  0  0  0  0  0
    8.9198  -14.1550   28.4349 O   0  0  0  0  0  0  0  0  0  0  0  0
   10.4678  -15.5768   27.4033 C   0  0  2  0  0  0  0  0  0  0  0  0
    9.8391  -15.3008   26.1311 N   0  0  0  0  0  0  0  0  0  0  0  0
    9.8076  -16.8007   27.9694 C   0  0  0  0  0  0  0  0  0  0  0  0
    8.8138  -17.3277   27.4101 O   0  0  0  0  0  0  0  0  0  0  0  0
   10.3200  -17.3459   29.1344 O   0  0  0  0  0  0  0  0  0  0  0  0
  2  7  1  0
  2  1  1  6
  3  2  1  0
  4  3  1  0
  5  6  2  0
  5  4  1  0
  7  8  2  0
  9  5  1  0
 10 11  1  0
 10  7  1  0
 11 12  1  1
 12 13  1  0
 13 14  2  0
 14 15  1  0
 16 15  1  0
 17 13  1  0
 17 16  2  0
 18 19  2  0
 18 11  1  0
 21 20  1  6
 21 23  1  0
 22 21  1  0
 23 25  1  0
 23 24  1  6
 24 18  1  0
 25 27  1  0
 26 25  2  0
M  END
$$$$
