EHT.pdb
     RDKit          3D

 27 27  0  0  1  0  0  0  0  0999 V2000
   11.0596  -15.4410   14.8483 N   0  0  0  0  0  0  0  0  0  0  0  0
   11.3442  -16.4236   15.8887 C   0  0  1  0  0  0  0  0  0  0  0  0
   12.5909  -17.1418   15.4509 C   0  0  0  0  0  0  0  0  0  0  0  0
   13.0728  -18.1984   16.3889 C   0  0  0  0  0  0  0  0  0  0  0  0
   14.2762  -18.9222   15.9496 C   0  0  0  0  0  0  0  0  0  0  0  0
   14.2175  -19.7474   15.0037 O   0  0  0  0  0  0  0  0  0  0  0  0
   11.5340  -15.7604   17.2026 C   0  0  0  0  0  0  0  0  0  0  0  0
   12.3285  -14.8070   17.3772 O   0  0  0  0  0  0  0  0  0  0  0  0
   15.5068  -18.7358   16.5430 O   0  0  0  0  0  0  0  0  0  0  0  0
   10.8105  -16.1752   18.3696 N   0  0  0  0  0  0  0  0  0  0  0  0
   10.8579  -15.4960   19.6287 C   0  0  1  0  0  0  0  0  0  0  0  0
    9.5164  -15.3465   20.2968 C   0  0  0  0  0  0  0  0  0  0  0  0
    8.6706  -14.3216   19.6310 C   0  0  0  0  0  0  0  0  0  0  0  0
    9.0730  -13.5124   18.5860 C   0  0  0  0  0  0  0  0  0  0  0  0
    8.0671  -12.6985   18.2190 N   0  0  0  0  0  0  0  0  0  0  0  0
    7.0277  -12.9795   19.0181 C   0  0  0  0  0  0  0  0  0  0  0  0
    7.3971  -13.9652   19.8744 N   0  0  0  0  0  0  0  0  0  0  0  0
   11.8086  -16.2115   20.5558 C   0  0  0  0  0  0  0  0  0  0  0  0
   11.5711  -17.3904   20.9270 O   0  0  0  0  0  0  0  0  0  0  0  0
   15.7198  -15.6205   20.2561 C   0  0  0  0  0  0  0  0  0  0  0  0
   15.3190  -15.6586   21.7238 C   0  0  1  0  0  0  0  0  0  0  0  0
   15.2251  -14.3246   22.1390 O   0  0  0  0  0  0  0  0  0  0  0  0
   13.9347  -16.2535   21.8286 C   0  0  2  0  0  0  0  0  0  0  0  0
   12.9802  -15.5411   21.0093 N   0  0  0  0  0  0  0  0  0  0  0  0
   13.4688  -16.1435   23.2517 C   0  0  0  0  0  0  0  0  0  0  0  0
   12.4396  -15.4906   23.5560 O   0  0  0  0  0  0  0  0  0  0  0  0
   14.2030  -16.7828   24.2361 O   0  0  0  0  0  0  0  0  0  0  0  0
  2  7  1  0
  2  1  1  6
  3  2  1  0
  4  3  1  0
  5  6  2  0
  5  4  1  0
  7  8  2  0
  9  5  1  0
 10 11  1  0
 10  7  1  0
 11 12  1  1
 12 13  1  0
 13 14  2  0
 14 15  1  0
 16 15  1  0
 17 13  1  0
 17 16  2  0
 18 19  2  0
 18 11  1  0
 21 20  1  6
 21 23  1  0
 22 21  1  0
 23 25  1  0
 23 24  1  6
 24 18  1  0
 25 27  1  0
 26 25  2  0
M  END
$$$$
