EHT.pdb
     RDKit          3D

 27 27  0  0  1  0  0  0  0  0999 V2000
   10.7446  -17.2404   19.7499 N   0  0  0  0  0  0  0  0  0  0  0  0
   11.5693  -17.0217   20.9335 C   0  0  1  0  0  0  0  0  0  0  0  0
   12.2762  -15.7131   20.7103 C   0  0  0  0  0  0  0  0  0  0  0  0
   13.7494  -15.8206   20.4948 C   0  0  0  0  0  0  0  0  0  0  0  0
   14.4371  -14.5464   20.2328 C   0  0  0  0  0  0  0  0  0  0  0  0
   15.0714  -13.9614   21.1464 O   0  0  0  0  0  0  0  0  0  0  0  0
   10.7332  -16.9835   22.1590 C   0  0  0  0  0  0  0  0  0  0  0  0
    9.5462  -16.5816   22.1629 O   0  0  0  0  0  0  0  0  0  0  0  0
   14.4203  -13.9402   18.9945 O   0  0  0  0  0  0  0  0  0  0  0  0
   11.2388  -17.4099   23.4318 N   0  0  0  0  0  0  0  0  0  0  0  0
   10.4452  -17.5132   24.6186 C   0  0  1  0  0  0  0  0  0  0  0  0
   10.4646  -18.8787   25.2536 C   0  0  0  0  0  0  0  0  0  0  0  0
    9.6810  -19.8706   24.4721 C   0  0  0  0  0  0  0  0  0  0  0  0
   10.2035  -20.7355   23.5299 C   0  0  0  0  0  0  0  0  0  0  0  0
    9.2249  -21.4982   23.0108 N   0  0  0  0  0  0  0  0  0  0  0  0
    8.0841  -21.1295   23.6112 C   0  0  0  0  0  0  0  0  0  0  0  0
    8.3641  -20.1411   24.4978 N   0  0  0  0  0  0  0  0  0  0  0  0
   10.8964  -16.4813   25.6221 C   0  0  0  0  0  0  0  0  0  0  0  0
   12.1160  -16.1918   25.7346 O   0  0  0  0  0  0  0  0  0  0  0  0
    9.1839  -12.9433   26.4625 C   0  0  0  0  0  0  0  0  0  0  0  0
    9.3101  -13.8251   27.6966 C   0  0  1  0  0  0  0  0  0  0  0  0
    8.0874  -14.4950   27.8260 O   0  0  0  0  0  0  0  0  0  0  0  0
   10.3640  -14.8740   27.4319 C   0  0  2  0  0  0  0  0  0  0  0  0
    9.9292  -15.8354   26.4437 N   0  0  0  0  0  0  0  0  0  0  0  0
   10.6228  -15.6294   28.7034 C   0  0  0  0  0  0  0  0  0  0  0  0
   10.3514  -16.8516   28.8068 O   0  0  0  0  0  0  0  0  0  0  0  0
   11.1734  -14.9464   29.7746 O   0  0  0  0  0  0  0  0  0  0  0  0
  2  7  1  0
  2  1  1  6
  3  2  1  0
  4  3  1  0
  5  6  2  0
  5  4  1  0
  7  8  2  0
  9  5  1  0
 10 11  1  0
 10  7  1  0
 11 12  1  1
 12 13  1  0
 13 14  2  0
 14 15  1  0
 16 15  1  0
 17 13  1  0
 17 16  2  0
 18 19  2  0
 18 11  1  0
 21 20  1  6
 21 23  1  0
 22 21  1  0
 23 25  1  0
 23 24  1  6
 24 18  1  0
 25 27  1  0
 26 25  2  0
M  END
$$$$
