EHT.pdb
     RDKit          3D

 27 27  0  0  1  0  0  0  0  0999 V2000
   11.1371  -17.1133   19.2991 N   0  0  0  0  0  0  0  0  0  0  0  0
   11.4203  -17.4755   20.6838 C   0  0  1  0  0  0  0  0  0  0  0  0
   12.9091  -17.3427   20.8510 C   0  0  0  0  0  0  0  0  0  0  0  0
   13.7132  -18.4419   20.2397 C   0  0  0  0  0  0  0  0  0  0  0  0
   15.1704  -18.3112   20.3960 C   0  0  0  0  0  0  0  0  0  0  0  0
   15.7208  -18.5565   21.4988 O   0  0  0  0  0  0  0  0  0  0  0  0
   10.6886  -16.5878   21.6213 C   0  0  0  0  0  0  0  0  0  0  0  0
   10.5129  -15.3656   21.4069 O   0  0  0  0  0  0  0  0  0  0  0  0
   15.9911  -17.9195   19.3596 O   0  0  0  0  0  0  0  0  0  0  0  0
   10.1300  -17.0804   22.8472 N   0  0  0  0  0  0  0  0  0  0  0  0
    9.2822  -16.3143   23.7094 C   0  0  1  0  0  0  0  0  0  0  0  0
    7.9200  -16.9190   23.9268 C   0  0  0  0  0  0  0  0  0  0  0  0
    6.9924  -16.6276   22.8028 C   0  0  0  0  0  0  0  0  0  0  0  0
    7.2833  -15.8246   21.7169 C   0  0  0  0  0  0  0  0  0  0  0  0
    6.2272  -15.7722   20.8858 N   0  0  0  0  0  0  0  0  0  0  0  0
    5.2659  -16.5327   21.4294 C   0  0  0  0  0  0  0  0  0  0  0  0
    5.7333  -17.0507   22.5933 N   0  0  0  0  0  0  0  0  0  0  0  0
    9.9635  -16.1091   25.0394 C   0  0  0  0  0  0  0  0  0  0  0  0
   10.8059  -16.9443   25.4600 O   0  0  0  0  0  0  0  0  0  0  0  0
    8.3974  -13.3688   27.8912 C   0  0  0  0  0  0  0  0  0  0  0  0
    9.9085  -13.4559   27.7318 C   0  0  1  0  0  0  0  0  0  0  0  0
   10.4401  -13.4486   29.0272 O   0  0  0  0  0  0  0  0  0  0  0  0
   10.2508  -14.7938   27.1202 C   0  0  2  0  0  0  0  0  0  0  0  0
    9.6455  -14.9599   25.8179 N   0  0  0  0  0  0  0  0  0  0  0  0
    9.7101  -15.8807   28.0038 C   0  0  0  0  0  0  0  0  0  0  0  0
   10.2715  -16.1865   29.0852 O   0  0  0  0  0  0  0  0  0  0  0  0
    8.5665  -16.5489   27.6008 O   0  0  0  0  0  0  0  0  0  0  0  0
  2  7  1  0
  2  1  1  6
  3  2  1  0
  4  3  1  0
  5  6  2  0
  5  4  1  0
  7  8  2  0
  9  5  1  0
 10 11  1  0
 10  7  1  0
 11 12  1  1
 12 13  1  0
 13 14  2  0
 14 15  1  0
 16 15  1  0
 17 13  1  0
 17 16  2  0
 18 19  2  0
 18 11  1  0
 21 20  1  1
 21 23  1  0
 22 21  1  0
 23 25  1  0
 23 24  1  6
 24 18  1  0
 25 27  1  0
 26 25  2  0
M  END
$$$$
