EHT.pdb
     RDKit          3D

 27 27  0  0  1  0  0  0  0  0999 V2000
   11.7394  -18.5191   15.1488 N   0  0  0  0  0  0  0  0  0  0  0  0
   12.3773  -18.9719   16.3805 C   0  0  1  0  0  0  0  0  0  0  0  0
   13.6573  -18.1908   16.4958 C   0  0  0  0  0  0  0  0  0  0  0  0
   14.9046  -19.0005   16.3654 C   0  0  0  0  0  0  0  0  0  0  0  0
   16.1579  -18.2324   16.4315 C   0  0  0  0  0  0  0  0  0  0  0  0
   16.6686  -17.7494   15.3898 O   0  0  0  0  0  0  0  0  0  0  0  0
   11.4930  -18.7384   17.5491 C   0  0  0  0  0  0  0  0  0  0  0  0
   10.6248  -17.8351   17.5781 O   0  0  0  0  0  0  0  0  0  0  0  0
   16.8238  -18.0083   17.6178 O   0  0  0  0  0  0  0  0  0  0  0  0
   11.5785  -19.5429   18.7336 N   0  0  0  0  0  0  0  0  0  0  0  0
   10.6606  -19.4612   19.8289 C   0  0  1  0  0  0  0  0  0  0  0  0
   10.3331  -20.7907   20.4562 C   0  0  0  0  0  0  0  0  0  0  0  0
    9.2418  -20.6828   21.4594 C   0  0  0  0  0  0  0  0  0  0  0  0
    8.5558  -19.5244   21.7693 C   0  0  0  0  0  0  0  0  0  0  0  0
    7.6339  -19.7735   22.7164 N   0  0  0  0  0  0  0  0  0  0  0  0
    7.7242  -21.0778   23.0139 C   0  0  0  0  0  0  0  0  0  0  0  0
    8.7014  -21.6272   22.2493 N   0  0  0  0  0  0  0  0  0  0  0  0
   11.2059  -18.5260   20.8793 C   0  0  0  0  0  0  0  0  0  0  0  0
   12.4438  -18.4655   21.0985 O   0  0  0  0  0  0  0  0  0  0  0  0
    9.5679  -14.8297   21.7929 C   0  0  0  0  0  0  0  0  0  0  0  0
    9.8107  -15.7392   22.9889 C   0  0  1  0  0  0  0  0  0  0  0  0
    8.6047  -16.4118   23.2208 O   0  0  0  0  0  0  0  0  0  0  0  0
   10.8317  -16.7820   22.5999 C   0  0  2  0  0  0  0  0  0  0  0  0
   10.3071  -17.7097   21.6232 N   0  0  0  0  0  0  0  0  0  0  0  0
   11.1960  -17.5788   23.8193 C   0  0  0  0  0  0  0  0  0  0  0  0
   10.8913  -18.7930   23.9243 O   0  0  0  0  0  0  0  0  0  0  0  0
   11.8831  -16.9435   24.8398 O   0  0  0  0  0  0  0  0  0  0  0  0
  2  7  1  0
  2  1  1  6
  3  2  1  0
  4  3  1  0
  5  6  2  0
  5  4  1  0
  7  8  2  0
  9  5  1  0
 10 11  1  0
 10  7  1  0
 11 12  1  1
 12 13  1  0
 13 14  2  0
 14 15  1  0
 16 15  1  0
 17 13  1  0
 17 16  2  0
 18 19  2  0
 18 11  1  0
 21 20  1  6
 21 23  1  0
 22 21  1  0
 23 25  1  0
 23 24  1  6
 24 18  1  0
 25 27  1  0
 26 25  2  0
M  END
$$$$
