MLR.pdb
     RDKit          3D

 28 27  0  0  1  0  0  0  0  0999 V2000
   16.0877  -33.9599   -5.4120 C   0  0  0  0  0  0  0  0  0  0  0  0
   16.0268  -34.7262   -3.7828 S   0  0  0  0  0  0  0  0  0  0  0  0
   17.0033  -33.8253   -2.5679 C   0  0  0  0  0  0  0  0  0  0  0  0
   16.5681  -32.3658   -2.4723 C   0  0  0  0  0  0  0  0  0  0  0  0
   17.5465  -31.6574   -1.5523 C   0  0  2  0  0  0  0  0  0  0  0  0
   17.1744  -32.0541   -0.2026 N   0  0  0  0  0  0  0  0  0  0  0  0
   17.3861  -30.1822   -1.6285 C   0  0  0  0  0  0  0  0  0  0  0  0
   16.6732  -29.5482   -0.8265 O   0  0  0  0  0  0  0  0  0  0  0  0
   18.8616  -26.5143    0.1298 C   0  0  0  0  0  0  0  0  0  0  0  0
   19.5417  -27.3722   -0.9066 C   0  0  2  0  0  0  0  0  0  0  0  0
   21.0467  -27.0756   -0.8178 C   0  0  0  0  0  0  0  0  0  0  0  0
   19.0405  -27.1573   -2.2736 C   0  0  0  0  0  0  0  0  0  0  0  0
   17.9175  -27.9963   -2.7633 C   0  0  2  0  0  0  0  0  0  0  0  0
   18.0575  -29.4063   -2.6482 N   0  0  0  0  0  0  0  0  0  0  0  0
   17.4817  -27.5790   -4.1456 C   0  0  0  0  0  0  0  0  0  0  0  0
   18.1368  -27.9291   -5.1615 O   0  0  0  0  0  0  0  0  0  0  0  0
   12.0388  -20.6355   -4.6776 N   0  0  0  0  0  0  0  0  0  0  0  0
   11.7806  -22.0462   -4.7781 C   0  0  0  0  0  0  0  0  0  0  0  0
   10.6173  -22.4912   -4.4489 N   0  0  0  0  0  0  0  0  0  0  0  0
   12.7890  -22.9369   -5.2325 N   0  0  0  0  0  0  0  0  0  0  0  0
   14.1045  -22.5067   -5.5958 C   0  0  0  0  0  0  0  0  0  0  0  0
   15.0242  -23.6061   -5.9722 C   0  0  0  0  0  0  0  0  0  0  0  0
   15.2825  -24.6606   -4.9663 C   0  0  0  0  0  0  0  0  0  0  0  0
   16.1961  -25.7665   -5.3715 C   0  0  2  0  0  0  0  0  0  0  0  0
   16.3345  -26.7878   -4.3588 N   0  0  0  0  0  0  0  0  0  0  0  0
   17.4489  -25.2952   -5.9531 C   0  0  0  0  0  0  0  0  0  0  0  0
   18.4013  -24.8331   -5.2774 O   0  0  0  0  0  0  0  0  0  0  0  0
   17.6144  -25.3551   -7.3266 O   0  0  0  0  0  0  0  0  0  0  0  0
  2  1  1  0
  3  2  1  0
  4  3  1  0
  5  6  1  1
  5  4  1  0
  7  5  1  0
  8  7  2  0
 10 12  1  0
 10  9  1  1
 11 10  1  0
 13 12  1  6
 13 14  1  0
 14  7  1  0
 15 13  1  0
 15 16  2  0
 18 20  1  0
 18 17  1  0
 19 18  2  0
 21 20  1  0
 22 21  1  0
 23 22  1  0
 24 23  1  1
 24 25  1  0
 25 15  1  0
 26 24  1  0
 27 26  2  0
 28 26  1  0
M  END
$$$$
