MLR.pdb
     RDKit          3D

 28 27  0  0  1  0  0  0  0  0999 V2000
   25.9541  -25.1655  -16.6383 C   0  0  0  0  0  0  0  0  0  0  0  0
   27.6908  -24.9868  -17.0823 S   0  0  0  0  0  0  0  0  0  0  0  0
   28.2231  -23.2670  -17.0775 C   0  0  0  0  0  0  0  0  0  0  0  0
   27.1182  -22.3416  -16.5760 C   0  0  0  0  0  0  0  0  0  0  0  0
   27.6912  -20.9366  -16.5184 C   0  0  2  0  0  0  0  0  0  0  0  0
   28.7916  -20.9996  -15.5684 N   0  0  0  0  0  0  0  0  0  0  0  0
   26.7017  -19.9734  -15.9698 C   0  0  0  0  0  0  0  0  0  0  0  0
   26.2794  -20.0475  -14.7996 O   0  0  0  0  0  0  0  0  0  0  0  0
   26.7526  -15.5350  -14.9767 C   0  0  0  0  0  0  0  0  0  0  0  0
   26.5684  -15.8090  -16.4476 C   0  0  2  0  0  0  0  0  0  0  0  0
   26.5840  -14.4495  -17.1632 C   0  0  0  0  0  0  0  0  0  0  0  0
   25.3400  -16.5568  -16.7605 C   0  0  0  0  0  0  0  0  0  0  0  0
   25.2200  -17.9615  -16.2944 C   0  0  2  0  0  0  0  0  0  0  0  0
   26.1780  -18.8939  -16.7780 N   0  0  0  0  0  0  0  0  0  0  0  0
   23.8075  -18.4702  -16.4398 C   0  0  0  0  0  0  0  0  0  0  0  0
   23.5587  -19.4949  -17.1266 O   0  0  0  0  0  0  0  0  0  0  0  0
   18.7570  -23.5897  -13.2040 N   0  0  0  0  0  0  0  0  0  0  0  0
   19.5117  -23.4344  -14.4179 C   0  0  0  0  0  0  0  0  0  0  0  0
   19.3711  -24.3077  -15.3544 N   0  0  0  0  0  0  0  0  0  0  0  0
   20.3981  -22.3376  -14.5847 N   0  0  0  0  0  0  0  0  0  0  0  0
   20.6424  -21.3686  -13.5604 C   0  0  0  0  0  0  0  0  0  0  0  0
   20.6840  -19.9679  -14.0426 C   0  0  0  0  0  0  0  0  0  0  0  0
   21.2229  -19.7239  -15.3992 C   0  0  0  0  0  0  0  0  0  0  0  0
   21.3509  -18.3013  -15.8255 C   0  0  2  0  0  0  0  0  0  0  0  0
   22.7162  -17.8281  -15.8200 N   0  0  0  0  0  0  0  0  0  0  0  0
   20.3850  -17.4173  -15.1810 C   0  0  0  0  0  0  0  0  0  0  0  0
   20.7050  -16.4030  -14.5132 O   0  0  0  0  0  0  0  0  0  0  0  0
   19.0345  -17.6972  -15.3038 O   0  0  0  0  0  0  0  0  0  0  0  0
  2  1  1  0
  3  2  1  0
  4  3  1  0
  5  6  1  1
  5  4  1  0
  7  5  1  0
  8  7  2  0
 10 12  1  0
 10  9  1  1
 11 10  1  0
 13 12  1  6
 13 14  1  0
 14  7  1  0
 15 13  1  0
 15 16  2  0
 18 20  1  0
 18 17  1  0
 19 18  2  0
 21 20  1  0
 22 21  1  0
 23 22  1  0
 24 23  1  1
 24 25  1  0
 25 15  1  0
 26 24  1  0
 27 26  2  0
 28 26  1  0
M  END
$$$$
