MLR.pdb
     RDKit          3D

 28 27  0  0  1  0  0  0  0  0999 V2000
   23.3660  -28.6129  -15.4735 C   0  0  0  0  0  0  0  0  0  0  0  0
   22.8466  -27.5880  -16.8610 S   0  0  0  0  0  0  0  0  0  0  0  0
   23.2480  -25.8505  -16.6139 C   0  0  0  0  0  0  0  0  0  0  0  0
   23.0579  -25.4346  -15.1581 C   0  0  0  0  0  0  0  0  0  0  0  0
   23.3367  -23.9447  -15.0692 C   0  0  2  0  0  0  0  0  0  0  0  0
   24.6188  -23.8244  -14.3917 N   0  0  0  0  0  0  0  0  0  0  0  0
   22.3316  -23.2586  -14.2165 C   0  0  0  0  0  0  0  0  0  0  0  0
   22.3773  -23.2980  -12.9717 O   0  0  0  0  0  0  0  0  0  0  0  0
   21.1693  -19.5079  -12.1342 C   0  0  0  0  0  0  0  0  0  0  0  0
   21.1232  -19.4560  -13.6401 C   0  0  2  0  0  0  0  0  0  0  0  0
   20.8446  -17.9964  -14.0309 C   0  0  0  0  0  0  0  0  0  0  0  0
   20.1256  -20.3614  -14.2327 C   0  0  0  0  0  0  0  0  0  0  0  0
   20.2703  -21.8235  -14.0176 C   0  0  2  0  0  0  0  0  0  0  0  0
   21.2426  -22.5053  -14.7990 N   0  0  0  0  0  0  0  0  0  0  0  0
   18.9316  -22.5179  -14.0429 C   0  0  0  0  0  0  0  0  0  0  0  0
   18.4041  -22.8621  -15.1324 O   0  0  0  0  0  0  0  0  0  0  0  0
   18.9891  -25.9919   -8.1239 N   0  0  0  0  0  0  0  0  0  0  0  0
   17.6862  -25.3881   -8.0527 C   0  0  0  0  0  0  0  0  0  0  0  0
   17.3871  -24.6725   -7.0242 N   0  0  0  0  0  0  0  0  0  0  0  0
   16.7425  -25.5757   -9.0972 N   0  0  0  0  0  0  0  0  0  0  0  0
   17.0522  -26.2598  -10.3153 C   0  0  0  0  0  0  0  0  0  0  0  0
   17.3747  -25.3659  -11.4525 C   0  0  0  0  0  0  0  0  0  0  0  0
   16.5856  -24.1218  -11.5938 C   0  0  0  0  0  0  0  0  0  0  0  0
   16.8578  -23.2866  -12.7981 C   0  0  2  0  0  0  0  0  0  0  0  0
   18.2201  -22.8092  -12.8611 N   0  0  0  0  0  0  0  0  0  0  0  0
   15.8339  -22.2757  -13.0419 C   0  0  0  0  0  0  0  0  0  0  0  0
   15.6598  -21.2689  -12.3116 O   0  0  0  0  0  0  0  0  0  0  0  0
   14.9989  -22.4182  -14.1373 O   0  0  0  0  0  0  0  0  0  0  0  0
  2  1  1  0
  3  2  1  0
  4  3  1  0
  5  6  1  1
  5  4  1  0
  7  5  1  0
  8  7  2  0
 10 12  1  0
 10  9  1  1
 11 10  1  0
 13 12  1  6
 13 14  1  0
 14  7  1  0
 15 13  1  0
 15 16  2  0
 18 20  1  0
 18 17  1  0
 19 18  2  0
 21 20  1  0
 22 21  1  0
 23 22  1  0
 24 23  1  1
 24 25  1  0
 25 15  1  0
 26 24  1  0
 27 26  2  0
 28 26  1  0
M  END
$$$$
