MLR.pdb
     RDKit          3D

 28 27  0  0  1  0  0  0  0  0999 V2000
   16.5646  -21.4629  -14.2296 C   0  0  0  0  0  0  0  0  0  0  0  0
   18.1008  -20.9730  -13.4262 S   0  0  0  0  0  0  0  0  0  0  0  0
   19.0488  -19.8081  -14.4188 C   0  0  0  0  0  0  0  0  0  0  0  0
   20.3958  -19.4922  -13.7750 C   0  0  0  0  0  0  0  0  0  0  0  0
   21.3584  -20.6001  -14.1644 C   0  0  2  0  0  0  0  0  0  0  0  0
   21.0672  -21.7074  -13.2663 N   0  0  0  0  0  0  0  0  0  0  0  0
   22.7679  -20.2012  -13.9154 C   0  0  0  0  0  0  0  0  0  0  0  0
   23.1498  -19.0180  -14.0026 O   0  0  0  0  0  0  0  0  0  0  0  0
   24.8800  -19.6885  -10.3928 C   0  0  0  0  0  0  0  0  0  0  0  0
   25.0225  -21.1394  -10.7766 C   0  0  2  0  0  0  0  0  0  0  0  0
   25.7447  -21.8420   -9.6166 C   0  0  0  0  0  0  0  0  0  0  0  0
   25.7361  -21.3476  -12.0468 C   0  0  0  0  0  0  0  0  0  0  0  0
   25.1276  -20.8355  -13.3008 C   0  0  2  0  0  0  0  0  0  0  0  0
   23.7719  -21.1787  -13.5562 N   0  0  0  0  0  0  0  0  0  0  0  0
   26.0153  -21.1009  -14.4909 C   0  0  0  0  0  0  0  0  0  0  0  0
   25.9778  -22.2072  -15.0895 O   0  0  0  0  0  0  0  0  0  0  0  0
   27.7211  -16.5385  -19.5896 N   0  0  0  0  0  0  0  0  0  0  0  0
   26.4057  -16.2675  -19.0763 C   0  0  0  0  0  0  0  0  0  0  0  0
   25.4700  -15.9450  -19.9009 N   0  0  0  0  0  0  0  0  0  0  0  0
   26.1393  -16.3531  -17.6841 N   0  0  0  0  0  0  0  0  0  0  0  0
   26.9679  -17.0834  -16.7743 C   0  0  0  0  0  0  0  0  0  0  0  0
   27.7219  -18.1979  -17.3954 C   0  0  0  0  0  0  0  0  0  0  0  0
   28.5151  -19.0724  -16.5029 C   0  0  0  0  0  0  0  0  0  0  0  0
   27.8662  -20.3354  -16.0495 C   0  0  2  0  0  0  0  0  0  0  0  0
   26.9158  -20.1327  -14.9801 N   0  0  0  0  0  0  0  0  0  0  0  0
   28.8123  -21.4267  -15.8406 C   0  0  0  0  0  0  0  0  0  0  0  0
   29.5856  -21.8596  -16.7305 O   0  0  0  0  0  0  0  0  0  0  0  0
   28.8754  -22.0297  -14.5956 O   0  0  0  0  0  0  0  0  0  0  0  0
  2  1  1  0
  3  2  1  0
  4  3  1  0
  5  6  1  1
  5  4  1  0
  7  5  1  0
  8  7  2  0
 10 12  1  0
 10  9  1  1
 11 10  1  0
 13 12  1  1
 13 14  1  0
 14  7  1  0
 15 13  1  0
 15 16  2  0
 18 20  1  0
 18 17  1  0
 19 18  2  0
 21 20  1  0
 22 21  1  0
 23 22  1  0
 24 23  1  1
 24 25  1  0
 25 15  1  0
 26 24  1  0
 27 26  2  0
 28 26  1  0
M  END
$$$$
