MLR.pdb
     RDKit          3D

 28 27  0  0  1  0  0  0  0  0999 V2000
   27.4326  -20.5591  -14.5186 C   0  0  0  0  0  0  0  0  0  0  0  0
   29.1987  -20.2616  -14.7131 S   0  0  0  0  0  0  0  0  0  0  0  0
   30.1135  -20.5653  -13.1926 C   0  0  0  0  0  0  0  0  0  0  0  0
   29.1953  -21.0545  -12.0763 C   0  0  0  0  0  0  0  0  0  0  0  0
   30.0046  -21.0647  -10.7915 C   0  0  2  0  0  0  0  0  0  0  0  0
   30.9179  -22.1912  -10.9113 N   0  0  0  0  0  0  0  0  0  0  0  0
   29.1406  -21.3327   -9.6128 C   0  0  0  0  0  0  0  0  0  0  0  0
   28.4639  -22.3739   -9.5068 O   0  0  0  0  0  0  0  0  0  0  0  0
   28.8400  -21.0897   -4.8494 C   0  0  0  0  0  0  0  0  0  0  0  0
   29.0296  -19.7446   -5.5032 C   0  0  2  0  0  0  0  0  0  0  0  0
   29.0672  -18.6994   -4.3776 C   0  0  0  0  0  0  0  0  0  0  0  0
   27.9915  -19.4171   -6.4938 C   0  0  0  0  0  0  0  0  0  0  0  0
   27.8814  -20.2526   -7.7164 C   0  0  2  0  0  0  0  0  0  0  0  0
   29.0446  -20.3868   -8.5224 N   0  0  0  0  0  0  0  0  0  0  0  0
   26.6663  -19.8803   -8.5289 C   0  0  0  0  0  0  0  0  0  0  0  0
   26.4831  -18.6947   -8.9088 O   0  0  0  0  0  0  0  0  0  0  0  0
   21.1717  -21.9241  -14.8943 N   0  0  0  0  0  0  0  0  0  0  0  0
   21.8070  -20.6397  -15.0111 C   0  0  0  0  0  0  0  0  0  0  0  0
   21.2404  -19.7273  -15.7224 N   0  0  0  0  0  0  0  0  0  0  0  0
   23.0386  -20.3779  -14.3543 N   0  0  0  0  0  0  0  0  0  0  0  0
   23.6231  -21.2752  -13.4052 C   0  0  0  0  0  0  0  0  0  0  0  0
   23.4951  -20.8399  -11.9944 C   0  0  0  0  0  0  0  0  0  0  0  0
   24.6800  -20.9869  -11.1197 C   0  0  0  0  0  0  0  0  0  0  0  0
   24.5214  -20.5690   -9.6977 C   0  0  2  0  0  0  0  0  0  0  0  0
   25.6935  -20.8328   -8.8949 N   0  0  0  0  0  0  0  0  0  0  0  0
   23.2566  -20.9969   -9.1088 C   0  0  0  0  0  0  0  0  0  0  0  0
   22.1311  -20.6817   -9.5685 O   0  0  0  0  0  0  0  0  0  0  0  0
   23.2802  -21.7977   -7.9794 O   0  0  0  0  0  0  0  0  0  0  0  0
  2  1  1  0
  3  2  1  0
  4  3  1  0
  5  6  1  6
  5  4  1  0
  7  5  1  0
  8  7  2  0
 10 12  1  0
 10  9  1  1
 11 10  1  0
 13 12  1  1
 13 14  1  0
 14  7  1  0
 15 13  1  0
 15 16  2  0
 18 20  1  0
 18 17  1  0
 19 18  2  0
 21 20  1  0
 22 21  1  0
 23 22  1  0
 24 23  1  6
 24 25  1  0
 25 15  1  0
 26 24  1  0
 27 26  2  0
 28 26  1  0
M  END
$$$$
