MLR.pdb
     RDKit          3D

 28 27  0  0  1  0  0  0  0  0999 V2000
   26.6729  -17.8044  -13.7722 C   0  0  0  0  0  0  0  0  0  0  0  0
   28.3972  -18.2132  -14.0960 S   0  0  0  0  0  0  0  0  0  0  0  0
   28.7249  -19.9751  -13.9245 C   0  0  0  0  0  0  0  0  0  0  0  0
   28.0464  -20.5515  -12.6851 C   0  0  0  0  0  0  0  0  0  0  0  0
   29.1298  -20.8216  -11.6561 C   0  0  2  0  0  0  0  0  0  0  0  0
   29.8720  -21.9679  -12.1586 N   0  0  0  0  0  0  0  0  0  0  0  0
   28.5447  -21.2244  -10.3510 C   0  0  0  0  0  0  0  0  0  0  0  0
   27.7731  -22.1968  -10.2396 O   0  0  0  0  0  0  0  0  0  0  0  0
   27.7463  -18.4484   -4.8355 C   0  0  0  0  0  0  0  0  0  0  0  0
   27.5639  -19.7225   -5.6205 C   0  0  2  0  0  0  0  0  0  0  0  0
   27.7605  -20.8874   -4.6381 C   0  0  0  0  0  0  0  0  0  0  0  0
   28.4729  -19.8430   -6.7717 C   0  0  0  0  0  0  0  0  0  0  0  0
   27.9571  -20.4381   -8.0306 C   0  0  2  0  0  0  0  0  0  0  0  0
   28.8475  -20.4983   -9.1371 N   0  0  0  0  0  0  0  0  0  0  0  0
   26.6197  -19.8516   -8.4080 C   0  0  0  0  0  0  0  0  0  0  0  0
   26.5188  -18.6460   -8.7543 O   0  0  0  0  0  0  0  0  0  0  0  0
   22.7425  -23.0988  -14.3118 N   0  0  0  0  0  0  0  0  0  0  0  0
   21.6254  -22.4384  -13.6930 C   0  0  0  0  0  0  0  0  0  0  0  0
   20.4474  -22.9386  -13.8393 N   0  0  0  0  0  0  0  0  0  0  0  0
   21.8143  -21.2541  -12.9324 N   0  0  0  0  0  0  0  0  0  0  0  0
   23.1015  -20.6760  -12.6948 C   0  0  0  0  0  0  0  0  0  0  0  0
   23.8449  -21.2841  -11.5661 C   0  0  0  0  0  0  0  0  0  0  0  0
   24.6201  -20.3799  -10.6873 C   0  0  0  0  0  0  0  0  0  0  0  0
   24.2848  -20.4040   -9.2351 C   0  0  2  0  0  0  0  0  0  0  0  0
   25.4372  -20.6191   -8.3904 N   0  0  0  0  0  0  0  0  0  0  0  0
   23.1245  -21.2332   -8.9251 C   0  0  0  0  0  0  0  0  0  0  0  0
   23.1757  -22.2661   -8.2126 O   0  0  0  0  0  0  0  0  0  0  0  0
   21.8887  -20.8743   -9.4363 O   0  0  0  0  0  0  0  0  0  0  0  0
  2  1  1  0
  3  2  1  0
  4  3  1  0
  5  6  1  6
  5  4  1  0
  7  5  1  0
  8  7  2  0
 10 12  1  0
 10  9  1  1
 11 10  1  0
 13 12  1  1
 13 14  1  0
 14  7  1  0
 15 13  1  0
 15 16  2  0
 18 20  1  0
 18 17  1  0
 19 18  2  0
 21 20  1  0
 22 21  1  0
 23 22  1  0
 24 23  1  6
 24 25  1  0
 25 15  1  0
 26 24  1  0
 27 26  2  0
 28 26  1  0
M  END
$$$$
