MLR.pdb
     RDKit          3D

 28 27  0  0  1  0  0  0  0  0999 V2000
   19.5763  -23.8478  -14.6908 C   0  0  0  0  0  0  0  0  0  0  0  0
   18.7598  -22.9482  -13.3606 S   0  0  0  0  0  0  0  0  0  0  0  0
   19.5226  -21.3473  -13.0507 C   0  0  0  0  0  0  0  0  0  0  0  0
   21.0381  -21.4087  -13.2177 C   0  0  0  0  0  0  0  0  0  0  0  0
   21.6059  -20.0923  -12.7174 C   0  0  2  0  0  0  0  0  0  0  0  0
   21.3252  -19.1204  -13.7634 N   0  0  0  0  0  0  0  0  0  0  0  0
   23.0835  -20.1615  -12.5773 C   0  0  0  0  0  0  0  0  0  0  0  0
   23.8548  -19.6023  -13.3808 O   0  0  0  0  0  0  0  0  0  0  0  0
   25.4450  -19.1342   -8.7912 C   0  0  0  0  0  0  0  0  0  0  0  0
   25.0912  -20.5997   -8.7934 C   0  0  2  0  0  0  0  0  0  0  0  0
   25.6355  -21.1951   -7.4858 C   0  0  0  0  0  0  0  0  0  0  0  0
   25.6072  -21.3308   -9.9619 C   0  0  0  0  0  0  0  0  0  0  0  0
   25.1091  -20.9637  -11.3118 C   0  0  2  0  0  0  0  0  0  0  0  0
   23.7007  -20.8890  -11.4899 N   0  0  0  0  0  0  0  0  0  0  0  0
   25.7753  -21.7866  -12.3860 C   0  0  0  0  0  0  0  0  0  0  0  0
   25.7079  -23.0432  -12.3707 O   0  0  0  0  0  0  0  0  0  0  0  0
   25.7193  -26.2661  -15.8111 N   0  0  0  0  0  0  0  0  0  0  0  0
   24.2959  -26.2894  -15.6098 C   0  0  0  0  0  0  0  0  0  0  0  0
   23.7667  -27.3070  -15.0233 N   0  0  0  0  0  0  0  0  0  0  0  0
   23.4842  -25.2101  -16.0490 N   0  0  0  0  0  0  0  0  0  0  0  0
   24.0220  -23.9905  -16.5696 C   0  0  0  0  0  0  0  0  0  0  0  0
   25.2767  -23.5486  -15.9164 C   0  0  0  0  0  0  0  0  0  0  0  0
   25.3094  -22.1845  -15.3430 C   0  0  0  0  0  0  0  0  0  0  0  0
   26.6106  -21.7226  -14.7816 C   0  0  2  0  0  0  0  0  0  0  0  0
   26.4943  -21.1918  -13.4427 N   0  0  0  0  0  0  0  0  0  0  0  0
   27.3799  -20.9008  -15.7105 C   0  0  0  0  0  0  0  0  0  0  0  0
   27.0535  -19.7353  -16.0455 O   0  0  0  0  0  0  0  0  0  0  0  0
   28.5392  -21.4196  -16.2621 O   0  0  0  0  0  0  0  0  0  0  0  0
  2  1  1  0
  3  2  1  0
  4  3  1  0
  5  6  1  6
  5  4  1  0
  7  5  1  0
  8  7  2  0
 10 12  1  0
 10  9  1  6
 11 10  1  0
 13 12  1  1
 13 14  1  0
 14  7  1  0
 15 13  1  0
 15 16  2  0
 18 20  1  0
 18 17  1  0
 19 18  2  0
 21 20  1  0
 22 21  1  0
 23 22  1  0
 24 23  1  6
 24 25  1  0
 25 15  1  0
 26 24  1  0
 27 26  2  0
 28 26  1  0
M  END
$$$$
