MLR.pdb
     RDKit          3D

 28 27  0  0  1  0  0  0  0  0999 V2000
   25.2263  -23.4056  -20.9321 C   0  0  0  0  0  0  0  0  0  0  0  0
   26.8842  -24.0879  -20.7560 S   0  0  0  0  0  0  0  0  0  0  0  0
   27.4929  -23.9745  -19.0655 C   0  0  0  0  0  0  0  0  0  0  0  0
   26.5719  -23.1235  -18.1959 C   0  0  0  0  0  0  0  0  0  0  0  0
   27.4496  -22.1992  -17.3707 C   0  0  2  0  0  0  0  0  0  0  0  0
   28.3415  -23.0703  -16.6204 N   0  0  0  0  0  0  0  0  0  0  0  0
   26.6477  -21.4415  -16.3754 C   0  0  0  0  0  0  0  0  0  0  0  0
   26.3917  -21.8952  -15.2432 O   0  0  0  0  0  0  0  0  0  0  0  0
   27.3857  -17.3769  -14.3342 C   0  0  0  0  0  0  0  0  0  0  0  0
   26.7872  -17.2448  -15.7115 C   0  0  2  0  0  0  0  0  0  0  0  0
   26.7085  -15.7427  -16.0249 C   0  0  0  0  0  0  0  0  0  0  0  0
   25.4676  -17.8825  -15.8463 C   0  0  0  0  0  0  0  0  0  0  0  0
   25.3744  -19.3610  -15.7442 C   0  0  2  0  0  0  0  0  0  0  0  0
   26.1220  -20.1284  -16.6786 N   0  0  0  0  0  0  0  0  0  0  0  0
   23.9394  -19.8163  -15.6531 C   0  0  0  0  0  0  0  0  0  0  0  0
   23.2210  -19.8947  -16.6834 O   0  0  0  0  0  0  0  0  0  0  0  0
   18.9504  -24.7690  -10.7631 N   0  0  0  0  0  0  0  0  0  0  0  0
   18.0722  -23.6419  -10.9229 C   0  0  0  0  0  0  0  0  0  0  0  0
   16.8611  -23.7306  -10.4931 N   0  0  0  0  0  0  0  0  0  0  0  0
   18.5294  -22.4493  -11.5436 N   0  0  0  0  0  0  0  0  0  0  0  0
   19.9145  -22.1662  -11.7652 C   0  0  0  0  0  0  0  0  0  0  0  0
   20.1716  -20.8834  -12.4614 C   0  0  0  0  0  0  0  0  0  0  0  0
   21.5776  -20.5387  -12.7696 C   0  0  0  0  0  0  0  0  0  0  0  0
   21.9365  -20.4059  -14.2103 C   0  0  2  0  0  0  0  0  0  0  0  0
   23.3460  -20.1705  -14.4243 N   0  0  0  0  0  0  0  0  0  0  0  0
   21.0404  -19.5216  -14.9484 C   0  0  0  0  0  0  0  0  0  0  0  0
   21.0136  -18.2747  -14.8012 O   0  0  0  0  0  0  0  0  0  0  0  0
   20.1642  -20.0718  -15.8687 O   0  0  0  0  0  0  0  0  0  0  0  0
  2  1  1  0
  3  2  1  0
  4  3  1  0
  5  6  1  1
  5  4  1  0
  7  5  1  0
  8  7  2  0
 10 12  1  0
 10  9  1  1
 11 10  1  0
 13 12  1  6
 13 14  1  0
 14  7  1  0
 15 13  1  0
 15 16  2  0
 18 20  1  0
 18 17  1  0
 19 18  2  0
 21 20  1  0
 22 21  1  0
 23 22  1  0
 24 23  1  1
 24 25  1  0
 25 15  1  0
 26 24  1  0
 27 26  2  0
 28 26  1  0
M  END
$$$$
