MLR.pdb
     RDKit          3D

 28 27  0  0  1  0  0  0  0  0999 V2000
   19.2980  -19.1366  -14.8621 C   0  0  0  0  0  0  0  0  0  0  0  0
   20.6138  -18.4440  -15.8791 S   0  0  0  0  0  0  0  0  0  0  0  0
   22.2351  -19.0806  -15.4239 C   0  0  0  0  0  0  0  0  0  0  0  0
   22.1970  -19.7933  -14.0751 C   0  0  0  0  0  0  0  0  0  0  0  0
   23.6196  -20.1998  -13.7337 C   0  0  2  0  0  0  0  0  0  0  0  0
   23.9650  -21.2519  -14.6777 N   0  0  0  0  0  0  0  0  0  0  0  0
   23.6981  -20.7958  -12.3749 C   0  0  0  0  0  0  0  0  0  0  0  0
   23.1920  -21.9019  -12.1034 O   0  0  0  0  0  0  0  0  0  0  0  0
   26.3694  -19.7886   -6.7501 C   0  0  0  0  0  0  0  0  0  0  0  0
   25.2925  -20.4185   -7.5963 C   0  0  2  0  0  0  0  0  0  0  0  0
   25.4097  -21.9396   -7.4134 C   0  0  0  0  0  0  0  0  0  0  0  0
   25.3675  -20.0502   -9.0193 C   0  0  0  0  0  0  0  0  0  0  0  0
   24.3268  -20.5628   -9.9462 C   0  0  2  0  0  0  0  0  0  0  0  0
   24.3731  -20.1119  -11.2935 N   0  0  0  0  0  0  0  0  0  0  0  0
   22.9475  -20.4327   -9.3499 C   0  0  0  0  0  0  0  0  0  0  0  0
   22.3481  -19.3262   -9.3467 O   0  0  0  0  0  0  0  0  0  0  0  0
   19.0159  -24.2891  -13.2965 N   0  0  0  0  0  0  0  0  0  0  0  0
   18.4359  -25.0731  -12.2400 C   0  0  0  0  0  0  0  0  0  0  0  0
   18.2217  -26.3273  -12.4412 N   0  0  0  0  0  0  0  0  0  0  0  0
   18.1037  -24.4776  -10.9944 N   0  0  0  0  0  0  0  0  0  0  0  0
   18.4307  -23.1241  -10.6643 C   0  0  0  0  0  0  0  0  0  0  0  0
   19.4606  -22.9851   -9.6079 C   0  0  0  0  0  0  0  0  0  0  0  0
   19.8687  -21.6158   -9.2219 C   0  0  0  0  0  0  0  0  0  0  0  0
   20.9503  -21.4990   -8.2030 C   0  0  2  0  0  0  0  0  0  0  0  0
   22.2761  -21.5320   -8.7769 N   0  0  0  0  0  0  0  0  0  0  0  0
   20.7517  -22.3701   -7.0491 C   0  0  0  0  0  0  0  0  0  0  0  0
   21.4386  -23.3971   -6.8239 O   0  0  0  0  0  0  0  0  0  0  0  0
   19.7543  -22.0606   -6.1398 O   0  0  0  0  0  0  0  0  0  0  0  0
  2  1  1  0
  3  2  1  0
  4  3  1  0
  5  6  1  6
  5  4  1  0
  7  5  1  0
  8  7  2  0
 10 12  1  0
 10  9  1  1
 11 10  1  0
 13 12  1  1
 13 14  1  0
 14  7  1  0
 15 13  1  0
 15 16  2  0
 18 20  1  0
 18 17  1  0
 19 18  2  0
 21 20  1  0
 22 21  1  0
 23 22  1  0
 24 23  1  6
 24 25  1  0
 25 15  1  0
 26 24  1  0
 27 26  2  0
 28 26  1  0
M  END
$$$$
