MLR.pdb
     RDKit          3D

 28 27  0  0  1  0  0  0  0  0999 V2000
   23.6314  -19.9772  -16.9800 C   0  0  0  0  0  0  0  0  0  0  0  0
   24.8719  -18.7382  -16.5659 S   0  0  0  0  0  0  0  0  0  0  0  0
   26.0682  -19.3449  -15.3652 C   0  0  0  0  0  0  0  0  0  0  0  0
   25.3795  -20.0161  -14.1804 C   0  0  0  0  0  0  0  0  0  0  0  0
   26.4615  -20.4312  -13.1992 C   0  0  2  0  0  0  0  0  0  0  0  0
   27.2184  -21.4782  -13.8687 N   0  0  0  0  0  0  0  0  0  0  0  0
   25.8754  -21.0372  -11.9757 C   0  0  0  0  0  0  0  0  0  0  0  0
   25.5421  -22.2369  -11.9215 O   0  0  0  0  0  0  0  0  0  0  0  0
   27.3814  -21.4525   -7.5737 C   0  0  0  0  0  0  0  0  0  0  0  0
   26.7968  -20.1068   -7.9199 C   0  0  2  0  0  0  0  0  0  0  0  0
   26.9943  -19.2024   -6.6937 C   0  0  0  0  0  0  0  0  0  0  0  0
   25.3796  -20.1614   -8.3135 C   0  0  0  0  0  0  0  0  0  0  0  0
   25.0235  -20.7719   -9.6194 C   0  0  2  0  0  0  0  0  0  0  0  0
   25.6628  -20.2535  -10.7784 N   0  0  0  0  0  0  0  0  0  0  0  0
   23.5281  -20.8702   -9.7906 C   0  0  0  0  0  0  0  0  0  0  0  0
   22.8621  -19.8911  -10.2165 O   0  0  0  0  0  0  0  0  0  0  0  0
   16.5760  -24.9440   -6.5492 N   0  0  0  0  0  0  0  0  0  0  0  0
   17.9162  -25.2977   -6.1672 C   0  0  0  0  0  0  0  0  0  0  0  0
   18.1518  -26.4975   -5.7616 N   0  0  0  0  0  0  0  0  0  0  0  0
   18.9650  -24.3426   -6.2349 N   0  0  0  0  0  0  0  0  0  0  0  0
   18.7789  -23.0129   -6.7296 C   0  0  0  0  0  0  0  0  0  0  0  0
   19.3668  -22.7718   -8.0685 C   0  0  0  0  0  0  0  0  0  0  0  0
   20.8261  -22.5373   -8.1460 C   0  0  0  0  0  0  0  0  0  0  0  0
   21.3801  -22.1867   -9.4847 C   0  0  2  0  0  0  0  0  0  0  0  0
   22.8185  -22.0495   -9.4851 N   0  0  0  0  0  0  0  0  0  0  0  0
   20.6533  -21.1068  -10.1444 C   0  0  0  0  0  0  0  0  0  0  0  0
   20.7550  -19.8977   -9.8203 O   0  0  0  0  0  0  0  0  0  0  0  0
   19.7998  -21.4146  -11.1904 O   0  0  0  0  0  0  0  0  0  0  0  0
  2  1  1  0
  3  2  1  0
  4  3  1  0
  5  6  1  6
  5  4  1  0
  7  5  1  0
  8  7  2  0
 10 12  1  0
 10  9  1  1
 11 10  1  0
 13 12  1  1
 13 14  1  0
 14  7  1  0
 15 13  1  0
 15 16  2  0
 18 20  1  0
 18 17  1  0
 19 18  2  0
 21 20  1  0
 22 21  1  0
 23 22  1  0
 24 23  1  1
 24 25  1  0
 25 15  1  0
 26 24  1  0
 27 26  2  0
 28 26  1  0
M  END
$$$$
