MLR.pdb
     RDKit          3D

 28 27  0  0  1  0  0  0  0  0999 V2000
   24.9004  -13.8077  -14.3197 C   0  0  0  0  0  0  0  0  0  0  0  0
   26.4658  -13.9945  -15.1914 S   0  0  0  0  0  0  0  0  0  0  0  0
   26.2627  -14.7804  -16.7983 C   0  0  0  0  0  0  0  0  0  0  0  0
   25.6664  -16.1787  -16.6651 C   0  0  0  0  0  0  0  0  0  0  0  0
   26.7738  -17.1035  -16.1916 C   0  0  2  0  0  0  0  0  0  0  0  0
   27.6065  -17.3495  -17.3594 N   0  0  0  0  0  0  0  0  0  0  0  0
   26.2310  -18.4187  -15.7635 C   0  0  0  0  0  0  0  0  0  0  0  0
   25.8456  -19.2773  -16.5806 O   0  0  0  0  0  0  0  0  0  0  0  0
   27.9492  -22.1299  -13.9872 C   0  0  0  0  0  0  0  0  0  0  0  0
   27.7222  -21.0453  -12.9650 C   0  0  2  0  0  0  0  0  0  0  0  0
   28.3284  -21.5402  -11.6428 C   0  0  0  0  0  0  0  0  0  0  0  0
   26.3064  -20.6814  -12.7936 C   0  0  0  0  0  0  0  0  0  0  0  0
   25.6006  -20.0092  -13.9139 C   0  0  2  0  0  0  0  0  0  0  0  0
   26.1240  -18.7663  -14.3634 N   0  0  0  0  0  0  0  0  0  0  0  0
   24.1140  -19.9443  -13.6668 C   0  0  0  0  0  0  0  0  0  0  0  0
   23.6414  -19.1993  -12.7695 O   0  0  0  0  0  0  0  0  0  0  0  0
   17.1647  -23.0978  -15.2453 N   0  0  0  0  0  0  0  0  0  0  0  0
   16.5512  -21.9142  -15.7838 C   0  0  0  0  0  0  0  0  0  0  0  0
   15.2813  -21.7513  -15.6413 N   0  0  0  0  0  0  0  0  0  0  0  0
   17.3296  -20.9390  -16.4618 N   0  0  0  0  0  0  0  0  0  0  0  0
   18.7458  -21.0518  -16.6331 C   0  0  0  0  0  0  0  0  0  0  0  0
   19.5262  -20.8961  -15.3829 C   0  0  0  0  0  0  0  0  0  0  0  0
   21.0023  -20.8853  -15.4912 C   0  0  0  0  0  0  0  0  0  0  0  0
   21.7681  -20.7385  -14.2208 C   0  0  2  0  0  0  0  0  0  0  0  0
   23.1987  -20.7061  -14.4215 N   0  0  0  0  0  0  0  0  0  0  0  0
   21.3096  -21.6351  -13.1645 C   0  0  0  0  0  0  0  0  0  0  0  0
   21.7671  -22.7905  -12.9830 O   0  0  0  0  0  0  0  0  0  0  0  0
   20.3152  -21.2027  -12.3034 O   0  0  0  0  0  0  0  0  0  0  0  0
  2  1  1  0
  3  2  1  0
  4  3  1  0
  5  6  1  6
  5  4  1  0
  7  5  1  0
  8  7  2  0
 10 12  1  0
 10  9  1  6
 11 10  1  0
 13 12  1  1
 13 14  1  0
 14  7  1  0
 15 13  1  0
 15 16  2  0
 18 20  1  0
 18 17  1  0
 19 18  2  0
 21 20  1  0
 22 21  1  0
 23 22  1  0
 24 23  1  6
 24 25  1  0
 25 15  1  0
 26 24  1  0
 27 26  2  0
 28 26  1  0
M  END
$$$$
