MLR.pdb
     RDKit          3D

 28 27  0  0  1  0  0  0  0  0999 V2000
   26.6105  -15.2615  -14.5287 C   0  0  0  0  0  0  0  0  0  0  0  0
   27.3023  -15.6234  -16.1521 S   0  0  0  0  0  0  0  0  0  0  0  0
   28.2268  -17.1681  -16.1712 C   0  0  0  0  0  0  0  0  0  0  0  0
   27.5834  -18.2156  -15.2671 C   0  0  0  0  0  0  0  0  0  0  0  0
   28.5859  -19.3419  -15.0886 C   0  0  2  0  0  0  0  0  0  0  0  0
   28.6586  -20.0114  -16.3786 N   0  0  0  0  0  0  0  0  0  0  0  0
   28.0990  -20.3461  -14.1077 C   0  0  0  0  0  0  0  0  0  0  0  0
   27.4602  -21.3587  -14.4537 O   0  0  0  0  0  0  0  0  0  0  0  0
   30.4681  -22.6152  -10.8912 C   0  0  0  0  0  0  0  0  0  0  0  0
   29.9757  -21.2801  -10.3931 C   0  0  2  0  0  0  0  0  0  0  0  0
   30.5343  -21.0965   -8.9736 C   0  0  0  0  0  0  0  0  0  0  0  0
   28.5099  -21.1486  -10.4053 C   0  0  0  0  0  0  0  0  0  0  0  0
   27.8098  -21.0729  -11.7126 C   0  0  2  0  0  0  0  0  0  0  0  0
   28.3471  -20.1924  -12.6909 N   0  0  0  0  0  0  0  0  0  0  0  0
   26.3247  -20.8828  -11.5306 C   0  0  0  0  0  0  0  0  0  0  0  0
   25.8683  -19.8340  -11.0058 O   0  0  0  0  0  0  0  0  0  0  0  0
   18.2603  -20.1949  -11.3799 N   0  0  0  0  0  0  0  0  0  0  0  0
   18.9637  -21.3596  -10.9154 C   0  0  0  0  0  0  0  0  0  0  0  0
   18.3580  -22.4965  -10.9217 N   0  0  0  0  0  0  0  0  0  0  0  0
   20.3041  -21.2616  -10.4566 N   0  0  0  0  0  0  0  0  0  0  0  0
   21.0693  -20.0549  -10.5340 C   0  0  0  0  0  0  0  0  0  0  0  0
   22.0821  -20.0426  -11.6158 C   0  0  0  0  0  0  0  0  0  0  0  0
   23.4423  -20.5262  -11.2892 C   0  0  0  0  0  0  0  0  0  0  0  0
   23.9760  -21.6425  -12.1203 C   0  0  2  0  0  0  0  0  0  0  0  0
   25.3926  -21.8598  -11.9359 N   0  0  0  0  0  0  0  0  0  0  0  0
   23.5317  -21.5905  -13.5094 C   0  0  0  0  0  0  0  0  0  0  0  0
   22.5107  -22.1831  -13.9378 O   0  0  0  0  0  0  0  0  0  0  0  0
   24.2649  -20.8487  -14.4201 O   0  0  0  0  0  0  0  0  0  0  0  0
  2  1  1  0
  3  2  1  0
  4  3  1  0
  5  6  1  6
  5  4  1  0
  7  5  1  0
  8  7  2  0
 10 12  1  0
 10  9  1  1
 11 10  1  0
 13 12  1  1
 13 14  1  0
 14  7  1  0
 15 13  1  0
 15 16  2  0
 18 20  1  0
 18 17  1  0
 19 18  2  0
 21 20  1  0
 22 21  1  0
 23 22  1  0
 24 23  1  6
 24 25  1  0
 25 15  1  0
 26 24  1  0
 27 26  2  0
 28 26  1  0
M  END
$$$$
