MLR.pdb
     RDKit          3D

 28 27  0  0  1  0  0  0  0  0999 V2000
   21.6486  -17.5894  -18.8126 C   0  0  0  0  0  0  0  0  0  0  0  0
   23.1567  -16.6087  -18.9085 S   0  0  0  0  0  0  0  0  0  0  0  0
   24.5891  -17.4956  -18.2738 C   0  0  0  0  0  0  0  0  0  0  0  0
   24.1742  -18.7255  -17.4714 C   0  0  0  0  0  0  0  0  0  0  0  0
   25.4361  -19.3366  -16.8884 C   0  0  2  0  0  0  0  0  0  0  0  0
   25.9769  -20.1930  -17.9333 N   0  0  0  0  0  0  0  0  0  0  0  0
   25.1244  -20.2132  -15.7298 C   0  0  0  0  0  0  0  0  0  0  0  0
   24.7104  -21.3802  -15.8709 O   0  0  0  0  0  0  0  0  0  0  0  0
   25.3382  -20.2019   -9.4983 C   0  0  0  0  0  0  0  0  0  0  0  0
   25.2929  -21.0181  -10.7650 C   0  0  2  0  0  0  0  0  0  0  0  0
   26.2277  -22.2199  -10.5587 C   0  0  0  0  0  0  0  0  0  0  0  0
   25.6650  -20.2600  -11.9704 C   0  0  0  0  0  0  0  0  0  0  0  0
   24.9388  -20.5300  -13.2372 C   0  0  2  0  0  0  0  0  0  0  0  0
   25.2894  -19.7467  -14.3705 N   0  0  0  0  0  0  0  0  0  0  0  0
   23.4474  -20.5756  -13.0167 C   0  0  0  0  0  0  0  0  0  0  0  0
   22.7808  -19.5151  -12.8953 O   0  0  0  0  0  0  0  0  0  0  0  0
   17.6852  -23.5976   -9.3859 N   0  0  0  0  0  0  0  0  0  0  0  0
   18.6457  -23.3458   -8.3462 C   0  0  0  0  0  0  0  0  0  0  0  0
   18.8288  -24.2407   -7.4378 N   0  0  0  0  0  0  0  0  0  0  0  0
   19.3821  -22.1319   -8.3184 N   0  0  0  0  0  0  0  0  0  0  0  0
   19.3250  -21.1601   -9.3673 C   0  0  0  0  0  0  0  0  0  0  0  0
   19.6652  -21.6894  -10.7091 C   0  0  0  0  0  0  0  0  0  0  0  0
   21.0620  -21.5369  -11.1740 C   0  0  0  0  0  0  0  0  0  0  0  0
   21.3489  -21.9350  -12.5815 C   0  0  2  0  0  0  0  0  0  0  0  0
   22.7420  -21.7937  -12.9381 N   0  0  0  0  0  0  0  0  0  0  0  0
   20.4026  -21.3775  -13.5424 C   0  0  0  0  0  0  0  0  0  0  0  0
   20.4003  -20.1740  -13.9014 O   0  0  0  0  0  0  0  0  0  0  0  0
   19.4469  -22.2092  -14.1013 O   0  0  0  0  0  0  0  0  0  0  0  0
  2  1  1  0
  3  2  1  0
  4  3  1  0
  5  6  1  6
  5  4  1  0
  7  5  1  0
  8  7  2  0
 10 12  1  0
 10  9  1  1
 11 10  1  0
 13 12  1  1
 13 14  1  0
 14  7  1  0
 15 13  1  0
 15 16  2  0
 18 20  1  0
 18 17  1  0
 19 18  2  0
 21 20  1  0
 22 21  1  0
 23 22  1  0
 24 23  1  1
 24 25  1  0
 25 15  1  0
 26 24  1  0
 27 26  2  0
 28 26  1  0
M  END
$$$$
