DLP.pdb
     RDKit          3D

 24 24  0  0  1  0  0  0  0  0999 V2000
    9.3448  -15.7733   20.5061 N   0  0  0  0  0  0  0  0  0  0  0  0
    9.4120  -16.5283   21.7255 C   0  0  1  0  0  0  0  0  0  0  0  0
   10.5953  -17.4768   21.6167 C   0  0  0  0  0  0  0  0  0  0  0  0
   10.2581  -18.5027   20.5929 C   0  0  0  0  0  0  0  0  0  0  0  0
    9.0713  -18.9601   20.5213 O   0  0  0  0  0  0  0  0  0  0  0  0
    9.5229  -15.6589   22.9201 C   0  0  0  0  0  0  0  0  0  0  0  0
   10.4274  -14.8030   22.9653 O   0  0  0  0  0  0  0  0  0  0  0  0
   11.1890  -18.9956   19.6952 O   0  0  0  0  0  0  0  0  0  0  0  0
    7.5079  -12.0446   25.0494 C   0  0  0  0  0  0  0  0  0  0  0  0
    6.7599  -13.3364   25.0744 C   0  0  2  0  0  0  0  0  0  0  0  0
    5.5099  -13.1154   25.9617 C   0  0  0  0  0  0  0  0  0  0  0  0
    7.4250  -14.5318   25.5866 C   0  0  0  0  0  0  0  0  0  0  0  0
    8.8060  -14.9028   25.2115 C   0  0  2  0  0  0  0  0  0  0  0  0
    8.6335  -15.7656   24.0183 N   0  0  0  0  0  0  0  0  0  0  0  0
    9.5918  -15.6249   26.1937 C   0  0  0  0  0  0  0  0  0  0  0  0
    9.9348  -16.8295   25.8434 O   0  0  0  0  0  0  0  0  0  0  0  0
   10.0461  -15.2513   27.4543 N   0  0  0  0  0  0  0  0  0  0  0  0
    9.6775  -14.1088   28.2370 C   0  0  0  0  0  0  0  0  0  0  0  0
   10.4009  -14.2561   29.5930 C   0  0  0  0  0  0  0  0  0  0  0  0
   11.6619  -14.9650   29.1089 C   0  0  0  0  0  0  0  0  0  0  0  0
   11.0365  -16.0201   28.2252 C   0  0  1  0  0  0  0  0  0  0  0  0
   10.3964  -17.0951   29.0020 C   0  0  0  0  0  0  0  0  0  0  0  0
   11.0642  -18.0451   29.7457 O   0  0  0  0  0  0  0  0  0  0  0  0
    9.1397  -17.1493   28.9842 O   0  0  0  0  0  0  0  0  0  0  0  0
  2  1  1  6
  2  3  1  0
  3  4  1  0
  4  8  1  0
  4  5  2  0
  6  2  1  0
  6  7  2  0
 10  9  1  1
 10 11  1  0
 10 12  1  0
 13 12  1  1
 13 14  1  0
 14  6  1  0
 15 13  1  0
 16 15  2  0
 17 15  1  0
 17 18  1  0
 19 18  1  0
 20 21  1  0
 20 19  1  0
 21 17  1  0
 21 22  1  1
 23 22  1  0
 24 22  2  0
M  END
$$$$
