DLP.pdb
     RDKit          3D

 24 24  0  0  1  0  0  0  0  0999 V2000
   10.3801  -16.1713   20.4835 N   0  0  0  0  0  0  0  0  0  0  0  0
    9.7606  -16.7377   21.6484 C   0  0  1  0  0  0  0  0  0  0  0  0
   10.4671  -18.0482   21.9561 C   0  0  0  0  0  0  0  0  0  0  0  0
    9.8681  -19.0981   21.0882 C   0  0  0  0  0  0  0  0  0  0  0  0
    9.6017  -20.2454   21.5738 O   0  0  0  0  0  0  0  0  0  0  0  0
    9.7971  -15.8172   22.8088 C   0  0  0  0  0  0  0  0  0  0  0  0
   10.8439  -15.1855   23.0490 O   0  0  0  0  0  0  0  0  0  0  0  0
    9.5796  -18.8864   19.7513 O   0  0  0  0  0  0  0  0  0  0  0  0
    5.5867  -13.1142   26.4122 C   0  0  0  0  0  0  0  0  0  0  0  0
    7.0261  -13.2644   26.0459 C   0  0  2  0  0  0  0  0  0  0  0  0
    7.5179  -11.8736   25.5745 C   0  0  0  0  0  0  0  0  0  0  0  0
    7.3965  -14.2117   24.9975 C   0  0  0  0  0  0  0  0  0  0  0  0
    8.7724  -14.7267   24.8329 C   0  0  2  0  0  0  0  0  0  0  0  0
    8.6795  -15.6281   23.6595 N   0  0  0  0  0  0  0  0  0  0  0  0
    9.3429  -15.4685   25.9410 C   0  0  0  0  0  0  0  0  0  0  0  0
    9.3467  -16.7606   25.7917 O   0  0  0  0  0  0  0  0  0  0  0  0
    9.8909  -15.0364   27.1442 N   0  0  0  0  0  0  0  0  0  0  0  0
    9.7482  -13.7639   27.7877 C   0  0  0  0  0  0  0  0  0  0  0  0
   10.4737  -13.8771   29.1459 C   0  0  0  0  0  0  0  0  0  0  0  0
   11.5785  -14.8474   28.7401 C   0  0  0  0  0  0  0  0  0  0  0  0
   10.7549  -15.8720   27.9937 C   0  0  1  0  0  0  0  0  0  0  0  0
    9.9608  -16.7205   28.8983 C   0  0  0  0  0  0  0  0  0  0  0  0
   10.4706  -17.7085   29.7142 O   0  0  0  0  0  0  0  0  0  0  0  0
    8.7181  -16.5268   28.9275 O   0  0  0  0  0  0  0  0  0  0  0  0
  2  1  1  6
  2  3  1  0
  3  4  1  0
  4  8  1  0
  4  5  2  0
  6  2  1  0
  6  7  2  0
 10  9  1  6
 10 11  1  0
 10 12  1  0
 13 12  1  1
 13 14  1  0
 14  6  1  0
 15 13  1  0
 16 15  2  0
 17 15  1  0
 17 18  1  0
 19 18  1  0
 20 21  1  0
 20 19  1  0
 21 17  1  0
 21 22  1  1
 23 22  1  0
 24 22  2  0
M  END
$$$$
