DLP.pdb
     RDKit          3D

 24 24  0  0  1  0  0  0  0  0999 V2000
   10.2485  -16.1530   20.1953 N   0  0  0  0  0  0  0  0  0  0  0  0
    9.7358  -16.7225   21.4095 C   0  0  1  0  0  0  0  0  0  0  0  0
   10.5361  -17.9814   21.7030 C   0  0  0  0  0  0  0  0  0  0  0  0
    9.8267  -19.1249   21.0678 C   0  0  0  0  0  0  0  0  0  0  0  0
   10.2091  -19.5553   19.9314 O   0  0  0  0  0  0  0  0  0  0  0  0
    9.7887  -15.7704   22.5436 C   0  0  0  0  0  0  0  0  0  0  0  0
   10.7676  -15.0067   22.6490 O   0  0  0  0  0  0  0  0  0  0  0  0
    8.7493  -19.7582   21.6624 O   0  0  0  0  0  0  0  0  0  0  0  0
    5.7103  -13.1603   26.2858 C   0  0  0  0  0  0  0  0  0  0  0  0
    7.1473  -13.3142   25.9115 C   0  0  2  0  0  0  0  0  0  0  0  0
    7.6472  -11.9188   25.4625 C   0  0  0  0  0  0  0  0  0  0  0  0
    7.5071  -14.2456   24.8453 C   0  0  0  0  0  0  0  0  0  0  0  0
    8.8795  -14.7645   24.6643 C   0  0  2  0  0  0  0  0  0  0  0  0
    8.7617  -15.6964   23.5173 N   0  0  0  0  0  0  0  0  0  0  0  0
    9.4747  -15.4767   25.7787 C   0  0  0  0  0  0  0  0  0  0  0  0
    9.6503  -16.7507   25.5843 O   0  0  0  0  0  0  0  0  0  0  0  0
    9.8936  -15.0321   27.0284 N   0  0  0  0  0  0  0  0  0  0  0  0
    9.5886  -13.7971   27.6883 C   0  0  0  0  0  0  0  0  0  0  0  0
   10.2233  -13.8838   29.0931 C   0  0  0  0  0  0  0  0  0  0  0  0
   11.4391  -14.7379   28.7476 C   0  0  0  0  0  0  0  0  0  0  0  0
   10.7687  -15.8105   27.9199 C   0  0  1  0  0  0  0  0  0  0  0  0
    9.9942  -16.7535   28.7444 C   0  0  0  0  0  0  0  0  0  0  0  0
   10.5336  -17.6864   29.6048 O   0  0  0  0  0  0  0  0  0  0  0  0
    8.7405  -16.7022   28.6551 O   0  0  0  0  0  0  0  0  0  0  0  0
  2  1  1  6
  2  3  1  0
  3  4  1  0
  4  8  1  0
  4  5  2  0
  6  2  1  0
  6  7  2  0
 10  9  1  6
 10 11  1  0
 10 12  1  0
 13 12  1  1
 13 14  1  0
 14  6  1  0
 15 13  1  0
 16 15  2  0
 17 15  1  0
 17 18  1  0
 19 18  1  0
 20 21  1  0
 20 19  1  0
 21 17  1  0
 21 22  1  1
 23 22  1  0
 24 22  2  0
M  END
$$$$
