DLP.pdb
     RDKit          3D

 24 24  0  0  1  0  0  0  0  0999 V2000
   11.7709  -17.7205   25.4102 N   0  0  0  0  0  0  0  0  0  0  0  0
   11.4206  -16.4765   24.7847 C   0  0  1  0  0  0  0  0  0  0  0  0
   11.8625  -16.5497   23.3318 C   0  0  0  0  0  0  0  0  0  0  0  0
   13.2660  -16.0602   23.2622 C   0  0  0  0  0  0  0  0  0  0  0  0
   13.8734  -15.7240   24.3304 O   0  0  0  0  0  0  0  0  0  0  0  0
    9.9735  -16.1786   24.8963 C   0  0  0  0  0  0  0  0  0  0  0  0
    9.1638  -17.1229   24.9686 O   0  0  0  0  0  0  0  0  0  0  0  0
   13.9597  -15.9495   22.0698 O   0  0  0  0  0  0  0  0  0  0  0  0
    5.5413  -12.8567   26.2906 C   0  0  0  0  0  0  0  0  0  0  0  0
    7.0082  -12.7473   26.5453 C   0  0  2  0  0  0  0  0  0  0  0  0
    7.3117  -11.2487   26.7912 C   0  0  0  0  0  0  0  0  0  0  0  0
    7.9426  -13.1954   25.5157 C   0  0  0  0  0  0  0  0  0  0  0  0
    8.0199  -14.5998   25.0606 C   0  0  2  0  0  0  0  0  0  0  0  0
    9.4744  -14.8525   24.9241 N   0  0  0  0  0  0  0  0  0  0  0  0
    7.3741  -14.9294   23.8045 C   0  0  0  0  0  0  0  0  0  0  0  0
    6.3836  -15.7669   23.9004 O   0  0  0  0  0  0  0  0  0  0  0  0
    7.6308  -14.5032   22.5056 N   0  0  0  0  0  0  0  0  0  0  0  0
    8.6211  -13.5745   22.0468 C   0  0  0  0  0  0  0  0  0  0  0  0
    8.5308  -13.5651   20.5055 C   0  0  0  0  0  0  0  0  0  0  0  0
    7.0346  -13.8229   20.3579 C   0  0  0  0  0  0  0  0  0  0  0  0
    6.8776  -14.9697   21.3302 C   0  0  1  0  0  0  0  0  0  0  0  0
    7.4282  -16.2304   20.8046 C   0  0  0  0  0  0  0  0  0  0  0  0
    6.9389  -16.9188   19.7144 O   0  0  0  0  0  0  0  0  0  0  0  0
    8.4245  -16.7166   21.3992 O   0  0  0  0  0  0  0  0  0  0  0  0
  2  1  1  6
  2  3  1  0
  3  4  1  0
  4  8  1  0
  4  5  2  0
  6  2  1  0
  6  7  2  0
 10  9  1  6
 10 11  1  0
 10 12  1  0
 13 12  1  6
 13 14  1  0
 14  6  1  0
 15 13  1  0
 16 15  2  0
 17 15  1  0
 17 18  1  0
 19 18  1  0
 20 21  1  0
 20 19  1  0
 21 17  1  0
 21 22  1  6
 23 22  1  0
 24 22  2  0
M  END
$$$$
