DLP.pdb
     RDKit          3D

 24 24  0  0  1  0  0  0  0  0999 V2000
    9.6085  -15.8237   20.3324 N   0  0  0  0  0  0  0  0  0  0  0  0
    9.5763  -16.5781   21.5535 C   0  0  1  0  0  0  0  0  0  0  0  0
   10.7595  -17.5327   21.5380 C   0  0  0  0  0  0  0  0  0  0  0  0
   10.4095  -18.6702   20.6448 C   0  0  0  0  0  0  0  0  0  0  0  0
   11.2979  -19.1748   19.8839 O   0  0  0  0  0  0  0  0  0  0  0  0
    9.5977  -15.7084   22.7528 C   0  0  0  0  0  0  0  0  0  0  0  0
   10.4838  -14.8384   22.8552 O   0  0  0  0  0  0  0  0  0  0  0  0
    9.1400  -19.2195   20.5982 O   0  0  0  0  0  0  0  0  0  0  0  0
    7.6352  -12.1116   25.2658 C   0  0  0  0  0  0  0  0  0  0  0  0
    6.7067  -13.2788   25.2011 C   0  0  2  0  0  0  0  0  0  0  0  0
    5.7519  -13.1619   26.4148 C   0  0  0  0  0  0  0  0  0  0  0  0
    7.2611  -14.6297   25.2390 C   0  0  0  0  0  0  0  0  0  0  0  0
    8.6839  -14.9196   24.9617 C   0  0  2  0  0  0  0  0  0  0  0  0
    8.6426  -15.8305   23.7927 N   0  0  0  0  0  0  0  0  0  0  0  0
    9.4518  -15.5551   26.0153 C   0  0  0  0  0  0  0  0  0  0  0  0
    9.7452  -16.8043   25.8028 O   0  0  0  0  0  0  0  0  0  0  0  0
    9.9329  -15.0583   27.2222 N   0  0  0  0  0  0  0  0  0  0  0  0
    9.6479  -13.8027   27.8514 C   0  0  0  0  0  0  0  0  0  0  0  0
   10.3602  -13.8284   29.2209 C   0  0  0  0  0  0  0  0  0  0  0  0
   11.5667  -14.6808   28.8405 C   0  0  0  0  0  0  0  0  0  0  0  0
   10.8664  -15.7920   28.0921 C   0  0  1  0  0  0  0  0  0  0  0  0
   10.1516  -16.7117   28.9931 C   0  0  0  0  0  0  0  0  0  0  0  0
   10.7480  -17.6535   29.8050 O   0  0  0  0  0  0  0  0  0  0  0  0
    8.8967  -16.6301   29.0231 O   0  0  0  0  0  0  0  0  0  0  0  0
  2  1  1  6
  2  3  1  0
  3  4  1  0
  4  8  1  0
  4  5  2  0
  6  2  1  0
  6  7  2  0
 10  9  1  1
 10 11  1  0
 10 12  1  0
 13 12  1  1
 13 14  1  0
 14  6  1  0
 15 13  1  0
 16 15  2  0
 17 15  1  0
 17 18  1  0
 19 18  1  0
 20 21  1  0
 20 19  1  0
 21 17  1  0
 21 22  1  1
 23 22  1  0
 24 22  2  0
M  END
$$$$
