DLP.pdb
     RDKit          3D

 24 24  0  0  1  0  0  0  0  0999 V2000
    9.1114  -15.9641   20.2703 N   0  0  0  0  0  0  0  0  0  0  0  0
    8.3652  -16.3285   21.4416 C   0  0  1  0  0  0  0  0  0  0  0  0
    8.5542  -17.8206   21.6640 C   0  0  0  0  0  0  0  0  0  0  0  0
    8.1271  -18.5193   20.4215 C   0  0  0  0  0  0  0  0  0  0  0  0
    8.1659  -17.9070   19.3051 O   0  0  0  0  0  0  0  0  0  0  0  0
    8.7717  -15.5475   22.6332 C   0  0  0  0  0  0  0  0  0  0  0  0
    9.9691  -15.2314   22.7715 O   0  0  0  0  0  0  0  0  0  0  0  0
    7.6803  -19.8292   20.4177 O   0  0  0  0  0  0  0  0  0  0  0  0
    5.7559  -12.4672   27.0605 C   0  0  0  0  0  0  0  0  0  0  0  0
    7.0776  -12.8608   26.4889 C   0  0  2  0  0  0  0  0  0  0  0  0
    7.8486  -11.5504   26.1944 C   0  0  0  0  0  0  0  0  0  0  0  0
    7.1128  -13.6472   25.2584 C   0  0  0  0  0  0  0  0  0  0  0  0
    8.3033  -14.4121   24.8304 C   0  0  2  0  0  0  0  0  0  0  0  0
    7.8442  -15.1450   23.6262 N   0  0  0  0  0  0  0  0  0  0  0  0
    8.8541  -15.3686   25.7712 C   0  0  0  0  0  0  0  0  0  0  0  0
    8.3151  -16.5516   25.7292 O   0  0  0  0  0  0  0  0  0  0  0  0
    9.8655  -15.2410   26.7175 N   0  0  0  0  0  0  0  0  0  0  0  0
   10.4584  -14.0452   27.2393 C   0  0  0  0  0  0  0  0  0  0  0  0
   11.4458  -14.4909   28.3393 C   0  0  0  0  0  0  0  0  0  0  0  0
   11.8768  -15.8255   27.7392 C   0  0  0  0  0  0  0  0  0  0  0  0
   10.5228  -16.3860   27.3683 C   0  0  1  0  0  0  0  0  0  0  0  0
    9.7639  -16.8443   28.5442 C   0  0  0  0  0  0  0  0  0  0  0  0
   10.0310  -17.9879   29.2670 O   0  0  0  0  0  0  0  0  0  0  0  0
    8.7949  -16.1342   28.9175 O   0  0  0  0  0  0  0  0  0  0  0  0
  2  1  1  6
  2  3  1  0
  3  4  1  0
  4  8  1  0
  4  5  2  0
  6  2  1  0
  6  7  2  0
 10  9  1  6
 10 11  1  0
 10 12  1  0
 13 12  1  1
 13 14  1  0
 14  6  1  0
 15 13  1  0
 16 15  2  0
 17 15  1  0
 17 18  1  0
 19 18  1  0
 20 21  1  0
 20 19  1  0
 21 17  1  0
 21 22  1  1
 23 22  1  0
 24 22  2  0
M  END
$$$$
