DLP.pdb
     RDKit          3D

 24 24  0  0  1  0  0  0  0  0999 V2000
   10.1063  -16.1559   20.3428 N   0  0  0  0  0  0  0  0  0  0  0  0
    9.5713  -16.7347   21.5429 C   0  0  1  0  0  0  0  0  0  0  0  0
   10.3913  -17.9743   21.8632 C   0  0  0  0  0  0  0  0  0  0  0  0
   10.1148  -18.9836   20.8053 C   0  0  0  0  0  0  0  0  0  0  0  0
    9.4051  -18.6656   19.7963 O   0  0  0  0  0  0  0  0  0  0  0  0
    9.5687  -15.7795   22.6755 C   0  0  0  0  0  0  0  0  0  0  0  0
   10.5488  -15.0272   22.8366 O   0  0  0  0  0  0  0  0  0  0  0  0
   10.6001  -20.2784   20.8637 O   0  0  0  0  0  0  0  0  0  0  0  0
    5.3463  -13.2966   26.4052 C   0  0  0  0  0  0  0  0  0  0  0  0
    6.7791  -13.3914   25.9968 C   0  0  2  0  0  0  0  0  0  0  0  0
    7.1845  -11.9997   25.4515 C   0  0  0  0  0  0  0  0  0  0  0  0
    7.1634  -14.3637   24.9767 C   0  0  0  0  0  0  0  0  0  0  0  0
    8.5638  -14.7836   24.7575 C   0  0  2  0  0  0  0  0  0  0  0  0
    8.4869  -15.6898   23.5867 N   0  0  0  0  0  0  0  0  0  0  0  0
    9.2265  -15.4840   25.8409 C   0  0  0  0  0  0  0  0  0  0  0  0
    9.3718  -16.7636   25.6587 O   0  0  0  0  0  0  0  0  0  0  0  0
    9.7377  -15.0230   27.0496 N   0  0  0  0  0  0  0  0  0  0  0  0
    9.5194  -13.7603   27.6912 C   0  0  0  0  0  0  0  0  0  0  0  0
   10.2358  -13.8342   29.0568 C   0  0  0  0  0  0  0  0  0  0  0  0
   11.3960  -14.7429   28.6627 C   0  0  0  0  0  0  0  0  0  0  0  0
   10.6370  -15.8106   27.9082 C   0  0  1  0  0  0  0  0  0  0  0  0
    9.8809  -16.7012   28.8048 C   0  0  0  0  0  0  0  0  0  0  0  0
   10.4373  -17.6386   29.6494 O   0  0  0  0  0  0  0  0  0  0  0  0
    8.6273  -16.5968   28.7982 O   0  0  0  0  0  0  0  0  0  0  0  0
  2  1  1  6
  2  3  1  0
  3  4  1  0
  4  8  1  0
  4  5  2  0
  6  2  1  0
  6  7  2  0
 10  9  1  6
 10 11  1  0
 10 12  1  0
 13 12  1  1
 13 14  1  0
 14  6  1  0
 15 13  1  0
 16 15  2  0
 17 15  1  0
 17 18  1  0
 19 18  1  0
 20 21  1  0
 20 19  1  0
 21 17  1  0
 21 22  1  1
 23 22  1  0
 24 22  2  0
M  END
$$$$
