DLP.pdb
     RDKit          3D

 24 24  0  0  1  0  0  0  0  0999 V2000
   10.2931  -16.0713   20.5685 N   0  0  0  0  0  0  0  0  0  0  0  0
    9.3382  -16.4765   21.5612 C   0  0  1  0  0  0  0  0  0  0  0  0
    9.5639  -17.9534   21.8432 C   0  0  0  0  0  0  0  0  0  0  0  0
   10.8963  -18.3194   21.2910 C   0  0  0  0  0  0  0  0  0  0  0  0
   10.9787  -18.8578   20.1393 O   0  0  0  0  0  0  0  0  0  0  0  0
    9.4357  -15.6678   22.7988 C   0  0  0  0  0  0  0  0  0  0  0  0
   10.5313  -15.1607   23.1071 O   0  0  0  0  0  0  0  0  0  0  0  0
   12.0761  -18.0998   21.9804 O   0  0  0  0  0  0  0  0  0  0  0  0
    5.3577  -13.2035   26.7458 C   0  0  0  0  0  0  0  0  0  0  0  0
    6.7669  -13.2590   26.2562 C   0  0  2  0  0  0  0  0  0  0  0  0
    7.1483  -11.8231   25.8190 C   0  0  0  0  0  0  0  0  0  0  0  0
    7.0941  -14.1342   25.1334 C   0  0  0  0  0  0  0  0  0  0  0  0
    8.4638  -14.6266   24.8742 C   0  0  2  0  0  0  0  0  0  0  0  0
    8.3229  -15.4488   23.6486 N   0  0  0  0  0  0  0  0  0  0  0  0
    9.0867  -15.4358   25.9041 C   0  0  0  0  0  0  0  0  0  0  0  0
    8.9586  -16.7202   25.7445 O   0  0  0  0  0  0  0  0  0  0  0  0
    9.8025  -15.0756   27.0411 N   0  0  0  0  0  0  0  0  0  0  0  0
    9.9090  -13.7884   27.6622 C   0  0  0  0  0  0  0  0  0  0  0  0
   10.7342  -13.9920   28.9511 C   0  0  0  0  0  0  0  0  0  0  0  0
   11.6419  -15.1202   28.4713 C   0  0  0  0  0  0  0  0  0  0  0  0
   10.6105  -16.0200   27.8294 C   0  0  1  0  0  0  0  0  0  0  0  0
    9.7890  -16.7305   28.8239 C   0  0  0  0  0  0  0  0  0  0  0  0
   10.2241  -17.7705   29.6183 O   0  0  0  0  0  0  0  0  0  0  0  0
    8.5951  -16.3574   28.9580 O   0  0  0  0  0  0  0  0  0  0  0  0
  2  1  1  6
  2  3  1  0
  3  4  1  0
  4  8  1  0
  4  5  2  0
  6  2  1  0
  6  7  2  0
 10  9  1  6
 10 11  1  0
 10 12  1  0
 13 12  1  1
 13 14  1  0
 14  6  1  0
 15 13  1  0
 16 15  2  0
 17 15  1  0
 17 18  1  0
 19 18  1  0
 20 21  1  0
 20 19  1  0
 21 17  1  0
 21 22  1  1
 23 22  1  0
 24 22  2  0
M  END
$$$$
