DLP.pdb
     RDKit          3D

 24 24  0  0  1  0  0  0  0  0999 V2000
    8.7691  -17.2612   21.2893 N   0  0  0  0  0  0  0  0  0  0  0  0
   10.0455  -16.6827   21.6020 C   0  0  1  0  0  0  0  0  0  0  0  0
   10.5820  -16.0357   20.3351 C   0  0  0  0  0  0  0  0  0  0  0  0
   11.0099  -17.1267   19.4180 C   0  0  0  0  0  0  0  0  0  0  0  0
   11.9279  -17.9333   19.7779 O   0  0  0  0  0  0  0  0  0  0  0  0
    9.9639  -15.7082   22.7151 C   0  0  0  0  0  0  0  0  0  0  0  0
   10.9290  -14.9495   22.9287 O   0  0  0  0  0  0  0  0  0  0  0  0
   10.4485  -17.3133   18.1668 O   0  0  0  0  0  0  0  0  0  0  0  0
    5.5247  -13.4929   26.3360 C   0  0  0  0  0  0  0  0  0  0  0  0
    6.9656  -13.4219   25.9520 C   0  0  2  0  0  0  0  0  0  0  0  0
    7.2599  -11.9477   25.5798 C   0  0  0  0  0  0  0  0  0  0  0  0
    7.4434  -14.2340   24.8358 C   0  0  0  0  0  0  0  0  0  0  0  0
    8.8365  -14.7187   24.7365 C   0  0  2  0  0  0  0  0  0  0  0  0
    8.8229  -15.6070   23.5495 N   0  0  0  0  0  0  0  0  0  0  0  0
    9.3649  -15.4626   25.8639 C   0  0  0  0  0  0  0  0  0  0  0  0
    9.3599  -16.7551   25.7188 O   0  0  0  0  0  0  0  0  0  0  0  0
    9.8799  -15.0320   27.0822 N   0  0  0  0  0  0  0  0  0  0  0  0
    9.6863  -13.7749   27.7425 C   0  0  0  0  0  0  0  0  0  0  0  0
   10.3939  -13.8861   29.1102 C   0  0  0  0  0  0  0  0  0  0  0  0
   11.5356  -14.8141   28.7075 C   0  0  0  0  0  0  0  0  0  0  0  0
   10.7571  -15.8527   27.9326 C   0  0  1  0  0  0  0  0  0  0  0  0
    9.9769  -16.7402   28.8114 C   0  0  0  0  0  0  0  0  0  0  0  0
   10.5074  -17.7093   29.6368 O   0  0  0  0  0  0  0  0  0  0  0  0
    8.7265  -16.6016   28.8074 O   0  0  0  0  0  0  0  0  0  0  0  0
  2  1  1  6
  2  3  1  0
  3  4  1  0
  4  8  1  0
  4  5  2  0
  6  2  1  0
  6  7  2  0
 10  9  1  6
 10 11  1  0
 10 12  1  0
 13 12  1  1
 13 14  1  0
 14  6  1  0
 15 13  1  0
 16 15  2  0
 17 15  1  0
 17 18  1  0
 19 18  1  0
 20 21  1  0
 20 19  1  0
 21 17  1  0
 21 22  1  1
 23 22  1  0
 24 22  2  0
M  END
$$$$
