DLP.pdb
     RDKit          3D

 24 24  0  0  1  0  0  0  0  0999 V2000
    9.3408  -15.6936   20.4956 N   0  0  0  0  0  0  0  0  0  0  0  0
    9.0597  -16.4011   21.7129 C   0  0  1  0  0  0  0  0  0  0  0  0
   10.0024  -17.5919   21.7831 C   0  0  0  0  0  0  0  0  0  0  0  0
    9.6484  -18.5135   20.6698 C   0  0  0  0  0  0  0  0  0  0  0  0
    8.4302  -18.8298   20.4722 O   0  0  0  0  0  0  0  0  0  0  0  0
    9.1894  -15.5363   22.9090 C   0  0  0  0  0  0  0  0  0  0  0  0
   10.1667  -14.7686   22.9991 O   0  0  0  0  0  0  0  0  0  0  0  0
   10.5963  -19.0562   19.8198 O   0  0  0  0  0  0  0  0  0  0  0  0
    7.3785  -11.8135   25.2718 C   0  0  0  0  0  0  0  0  0  0  0  0
    6.5117  -13.0280   25.2229 C   0  0  2  0  0  0  0  0  0  0  0  0
    5.3406  -12.7847   26.2066 C   0  0  0  0  0  0  0  0  0  0  0  0
    7.0857  -14.3242   25.5750 C   0  0  0  0  0  0  0  0  0  0  0  0
    8.4499  -14.7310   25.1763 C   0  0  2  0  0  0  0  0  0  0  0  0
    8.2380  -15.5506   23.9592 N   0  0  0  0  0  0  0  0  0  0  0  0
    9.2181  -15.5093   26.1291 C   0  0  0  0  0  0  0  0  0  0  0  0
    9.3548  -16.7668   25.8263 O   0  0  0  0  0  0  0  0  0  0  0  0
    9.8387  -15.1432   27.3189 N   0  0  0  0  0  0  0  0  0  0  0  0
    9.6558  -13.9524   28.0951 C   0  0  0  0  0  0  0  0  0  0  0  0
   10.5100  -14.1259   29.3694 C   0  0  0  0  0  0  0  0  0  0  0  0
   11.6460  -14.9545   28.7779 C   0  0  0  0  0  0  0  0  0  0  0  0
   10.8406  -15.9744   28.0056 C   0  0  1  0  0  0  0  0  0  0  0  0
   10.2028  -16.9685   28.8852 C   0  0  0  0  0  0  0  0  0  0  0  0
   10.8666  -17.9564   29.5818 O   0  0  0  0  0  0  0  0  0  0  0  0
    8.9524  -16.9101   29.0097 O   0  0  0  0  0  0  0  0  0  0  0  0
  2  1  1  6
  2  3  1  0
  3  4  1  0
  4  8  1  0
  4  5  2  0
  6  2  1  0
  6  7  2  0
 10  9  1  1
 10 11  1  0
 10 12  1  0
 13 12  1  1
 13 14  1  0
 14  6  1  0
 15 13  1  0
 16 15  2  0
 17 15  1  0
 17 18  1  0
 19 18  1  0
 20 21  1  0
 20 19  1  0
 21 17  1  0
 21 22  1  1
 23 22  1  0
 24 22  2  0
M  END
$$$$
