DLP.pdb
     RDKit          3D

 24 24  0  0  1  0  0  0  0  0999 V2000
   10.7172  -18.1119   21.3878 N   0  0  0  0  0  0  0  0  0  0  0  0
   11.5536  -17.1298   22.0182 C   0  0  1  0  0  0  0  0  0  0  0  0
   12.6100  -16.7071   21.0098 C   0  0  0  0  0  0  0  0  0  0  0  0
   13.7018  -17.7173   21.0503 C   0  0  0  0  0  0  0  0  0  0  0  0
   14.3501  -17.9923   19.9887 O   0  0  0  0  0  0  0  0  0  0  0  0
   10.7806  -15.9665   22.5127 C   0  0  0  0  0  0  0  0  0  0  0  0
   11.3817  -15.0402   23.0900 O   0  0  0  0  0  0  0  0  0  0  0  0
   14.0562  -18.3874   22.2082 O   0  0  0  0  0  0  0  0  0  0  0  0
    8.0573  -12.6650   20.4404 C   0  0  0  0  0  0  0  0  0  0  0  0
    7.5484  -14.0529   20.6486 C   0  0  2  0  0  0  0  0  0  0  0  0
    6.1135  -14.0979   20.0678 C   0  0  0  0  0  0  0  0  0  0  0  0
    7.4615  -14.5804   22.0080 C   0  0  0  0  0  0  0  0  0  0  0  0
    8.6370  -14.7038   22.8960 C   0  0  2  0  0  0  0  0  0  0  0  0
    9.3759  -15.8685   22.3523 N   0  0  0  0  0  0  0  0  0  0  0  0
    8.3856  -14.9337   24.3058 C   0  0  0  0  0  0  0  0  0  0  0  0
    8.7092  -16.1182   24.7344 O   0  0  0  0  0  0  0  0  0  0  0  0
    7.8549  -14.1025   25.2868 N   0  0  0  0  0  0  0  0  0  0  0  0
    7.2724  -12.8014   25.1394 C   0  0  0  0  0  0  0  0  0  0  0  0
    6.7492  -12.3962   26.5344 C   0  0  0  0  0  0  0  0  0  0  0  0
    7.7967  -13.1013   27.3903 C   0  0  0  0  0  0  0  0  0  0  0  0
    7.8074  -14.4538   26.7152 C   0  0  1  0  0  0  0  0  0  0  0  0
    6.6097  -15.2494   27.0337 C   0  0  0  0  0  0  0  0  0  0  0  0
    6.4246  -15.9813   28.1877 O   0  0  0  0  0  0  0  0  0  0  0  0
    5.6825  -15.2608   26.1836 O   0  0  0  0  0  0  0  0  0  0  0  0
  2  1  1  6
  2  3  1  0
  3  4  1  0
  4  8  1  0
  4  5  2  0
  6  2  1  0
  6  7  2  0
 10  9  1  1
 10 11  1  0
 10 12  1  0
 13 12  1  6
 13 14  1  0
 14  6  1  0
 15 13  1  0
 16 15  2  0
 17 15  1  0
 17 18  1  0
 19 18  1  0
 20 21  1  0
 20 19  1  0
 21 17  1  0
 21 22  1  6
 23 22  1  0
 24 22  2  0
M  END
$$$$
