DLP.pdb
     RDKit          3D

 24 24  0  0  1  0  0  0  0  0999 V2000
   10.2372  -16.1806   20.3825 N   0  0  0  0  0  0  0  0  0  0  0  0
    9.6798  -16.7551   21.5744 C   0  0  1  0  0  0  0  0  0  0  0  0
   10.4294  -18.0469   21.8586 C   0  0  0  0  0  0  0  0  0  0  0  0
   10.1538  -18.9844   20.7364 C   0  0  0  0  0  0  0  0  0  0  0  0
    9.1731  -19.7939   20.8135 O   0  0  0  0  0  0  0  0  0  0  0  0
    9.7420  -15.8276   22.7282 C   0  0  0  0  0  0  0  0  0  0  0  0
   10.7807  -15.1664   22.9194 O   0  0  0  0  0  0  0  0  0  0  0  0
   10.9258  -19.0221   19.5884 O   0  0  0  0  0  0  0  0  0  0  0  0
    5.5899  -13.1720   26.4153 C   0  0  0  0  0  0  0  0  0  0  0  0
    7.0205  -13.2791   26.0022 C   0  0  2  0  0  0  0  0  0  0  0  0
    7.4500  -11.8782   25.5005 C   0  0  0  0  0  0  0  0  0  0  0  0
    7.3867  -14.2253   24.9514 C   0  0  0  0  0  0  0  0  0  0  0  0
    8.7652  -14.7280   24.7710 C   0  0  2  0  0  0  0  0  0  0  0  0
    8.6582  -15.6644   23.6266 N   0  0  0  0  0  0  0  0  0  0  0  0
    9.3696  -15.4300   25.8870 C   0  0  0  0  0  0  0  0  0  0  0  0
    9.3821  -16.7259   25.7777 O   0  0  0  0  0  0  0  0  0  0  0  0
    9.9424  -14.9559   27.0626 N   0  0  0  0  0  0  0  0  0  0  0  0
    9.8500  -13.6474   27.6399 C   0  0  0  0  0  0  0  0  0  0  0  0
   10.5823  -13.7159   28.9973 C   0  0  0  0  0  0  0  0  0  0  0  0
   11.6490  -14.7446   28.6354 C   0  0  0  0  0  0  0  0  0  0  0  0
   10.7836  -15.7765   27.9488 C   0  0  1  0  0  0  0  0  0  0  0  0
    9.9677  -16.5483   28.9014 C   0  0  0  0  0  0  0  0  0  0  0  0
   10.4500  -17.5070   29.7675 O   0  0  0  0  0  0  0  0  0  0  0  0
    8.7323  -16.3125   28.9255 O   0  0  0  0  0  0  0  0  0  0  0  0
  2  1  1  6
  2  3  1  0
  3  4  1  0
  4  8  1  0
  4  5  2  0
  6  2  1  0
  6  7  2  0
 10  9  1  6
 10 11  1  0
 10 12  1  0
 13 12  1  1
 13 14  1  0
 14  6  1  0
 15 13  1  0
 16 15  2  0
 17 15  1  0
 17 18  1  0
 19 18  1  0
 20 21  1  0
 20 19  1  0
 21 17  1  0
 21 22  1  1
 23 22  1  0
 24 22  2  0
M  END
$$$$
