DLP.pdb
     RDKit          3D

 24 24  0  0  1  0  0  0  0  0999 V2000
    9.3736  -15.3439   20.4551 N   0  0  0  0  0  0  0  0  0  0  0  0
    9.1571  -16.1530   21.6212 C   0  0  1  0  0  0  0  0  0  0  0  0
   10.1090  -17.3361   21.5456 C   0  0  0  0  0  0  0  0  0  0  0  0
    9.3459  -18.4952   21.0085 C   0  0  0  0  0  0  0  0  0  0  0  0
    8.1395  -18.3390   20.6305 O   0  0  0  0  0  0  0  0  0  0  0  0
    9.3407  -15.3895   22.8777 C   0  0  0  0  0  0  0  0  0  0  0  0
   10.3795  -14.7192   23.0336 O   0  0  0  0  0  0  0  0  0  0  0  0
    9.8927  -19.7616   20.8967 O   0  0  0  0  0  0  0  0  0  0  0  0
    7.5039  -11.6454   25.2430 C   0  0  0  0  0  0  0  0  0  0  0  0
    6.6520  -12.8668   25.1385 C   0  0  2  0  0  0  0  0  0  0  0  0
    5.4228  -12.6375   26.0523 C   0  0  0  0  0  0  0  0  0  0  0  0
    7.2153  -14.1597   25.5191 C   0  0  0  0  0  0  0  0  0  0  0  0
    8.5794  -14.5827   25.1373 C   0  0  2  0  0  0  0  0  0  0  0  0
    8.3735  -15.3938   23.9134 N   0  0  0  0  0  0  0  0  0  0  0  0
    9.3240  -15.3755   26.0967 C   0  0  0  0  0  0  0  0  0  0  0  0
    9.4760  -16.6263   25.7741 O   0  0  0  0  0  0  0  0  0  0  0  0
    9.9083  -15.0293   27.3107 N   0  0  0  0  0  0  0  0  0  0  0  0
    9.7049  -13.8496   28.0986 C   0  0  0  0  0  0  0  0  0  0  0  0
   10.5184  -14.0451   29.3962 C   0  0  0  0  0  0  0  0  0  0  0  0
   11.6697  -14.8687   28.8280 C   0  0  0  0  0  0  0  0  0  0  0  0
   10.8857  -15.8742   28.0157 C   0  0  1  0  0  0  0  0  0  0  0  0
   10.2177  -16.8790   28.8600 C   0  0  0  0  0  0  0  0  0  0  0  0
   10.8593  -17.8527   29.5963 O   0  0  0  0  0  0  0  0  0  0  0  0
    8.9613  -16.8446   28.9123 O   0  0  0  0  0  0  0  0  0  0  0  0
  2  1  1  6
  2  3  1  0
  3  4  1  0
  4  8  1  0
  4  5  2  0
  6  2  1  0
  6  7  2  0
 10  9  1  1
 10 11  1  0
 10 12  1  0
 13 12  1  1
 13 14  1  0
 14  6  1  0
 15 13  1  0
 16 15  2  0
 17 15  1  0
 17 18  1  0
 19 18  1  0
 20 21  1  0
 20 19  1  0
 21 17  1  0
 21 22  1  1
 23 22  1  0
 24 22  2  0
M  END
$$$$
