IQC.pdb
     RDKit          3D

 24 23  0  0  1  0  0  0  0  0999 V2000
   24.2241  -15.0884  -16.0654 C   0  0  0  0  0  0  0  0  0  0  0  0
   23.0731  -14.1529  -15.7354 C   0  0  0  0  0  0  0  0  0  0  0  0
   23.5538  -12.7426  -15.7046 C   0  0  2  0  0  0  0  0  0  0  0  0
   24.6314  -12.6158  -14.6311 C   0  0  0  0  0  0  0  0  0  0  0  0
   22.4625  -11.7351  -15.4697 C   0  0  2  0  0  0  0  0  0  0  0  0
   21.4393  -11.9426  -16.4526 N   0  0  0  0  0  0  0  0  0  0  0  0
   22.9418  -10.3548  -15.3845 C   0  0  0  0  0  0  0  0  0  0  0  0
   23.8008  -10.0604  -14.5138 O   0  0  0  0  0  0  0  0  0  0  0  0
   25.1818   -6.7835  -19.5769 N   0  0  0  0  0  0  0  0  0  0  0  0
   23.8729   -7.3117  -19.7720 C   0  0  0  0  0  0  0  0  0  0  0  0
   23.4780   -7.3858  -20.9704 O   0  0  0  0  0  0  0  0  0  0  0  0
   23.0175   -7.7512  -18.6382 C   0  0  0  0  0  0  0  0  0  0  0  0
   23.7727   -7.5292  -17.3698 C   0  0  0  0  0  0  0  0  0  0  0  0
   23.0140   -7.9435  -16.1385 C   0  0  2  0  0  0  0  0  0  0  0  0
   22.5044   -9.2915  -16.2278 N   0  0  0  0  0  0  0  0  0  0  0  0
   21.9236   -7.0100  -15.8033 C   0  0  0  0  0  0  0  0  0  0  0  0
   20.8160   -7.1012  -16.3922 O   0  0  0  0  0  0  0  0  0  0  0  0
   22.0696   -5.9934  -14.8275 N   0  0  0  0  0  0  0  0  0  0  0  0
   21.0103   -5.0422  -14.5693 C   0  0  1  0  0  0  0  0  0  0  0  0
   20.1971   -5.5254  -13.3922 C   0  0  0  0  0  0  0  0  0  0  0  0
   18.9854   -4.2752  -12.8881 S   0  0  0  0  0  0  0  0  0  0  0  0
   21.5472   -3.6931  -14.2859 C   0  0  0  0  0  0  0  0  0  0  0  0
   22.7077   -3.5818  -13.8262 O   0  0  0  0  0  0  0  0  0  0  0  0
   20.8170   -2.5547  -14.5093 O   0  0  0  0  0  0  0  0  0  0  0  0
  1  2  1  0
  2  3  1  0
  3  4  1  1
  5  7  1  0
  5  3  1  0
  5  6  1  6
  7  8  2  0
 10  9  1  0
 11 10  2  0
 12 10  1  0
 13 12  1  0
 14 13  1  6
 15 14  1  0
 15  7  1  0
 16 17  2  0
 16 14  1  0
 18 16  1  0
 19 22  1  0
 19 18  1  0
 19 20  1  1
 21 20  1  0
 22 24  1  0
 23 22  2  0
M  END
$$$$
