IQC.pdb
     RDKit          3D

 24 23  0  0  1  0  0  0  0  0999 V2000
   18.4121  -13.9158  -17.1945 C   0  0  0  0  0  0  0  0  0  0  0  0
   18.1720  -12.9747  -16.0259 C   0  0  0  0  0  0  0  0  0  0  0  0
   18.4274  -11.5669  -16.4428 C   0  0  2  0  0  0  0  0  0  0  0  0
   19.8619  -11.4600  -16.9532 C   0  0  0  0  0  0  0  0  0  0  0  0
   18.1848  -10.5586  -15.3539 C   0  0  2  0  0  0  0  0  0  0  0  0
   16.8542  -10.7476  -14.8540 N   0  0  0  0  0  0  0  0  0  0  0  0
   18.4887   -9.1817  -15.7461 C   0  0  0  0  0  0  0  0  0  0  0  0
   19.6598   -8.8942  -16.1047 O   0  0  0  0  0  0  0  0  0  0  0  0
   14.4899   -4.4818  -17.1797 N   0  0  0  0  0  0  0  0  0  0  0  0
   15.7467   -3.8113  -17.1476 C   0  0  0  0  0  0  0  0  0  0  0  0
   15.7317   -2.5897  -17.4721 O   0  0  0  0  0  0  0  0  0  0  0  0
   17.0044   -4.5011  -16.7566 C   0  0  0  0  0  0  0  0  0  0  0  0
   16.6815   -5.9278  -16.4590 C   0  0  0  0  0  0  0  0  0  0  0  0
   17.8847   -6.7515  -16.0887 C   0  0  2  0  0  0  0  0  0  0  0  0
   17.5434   -8.1142  -15.7553 N   0  0  0  0  0  0  0  0  0  0  0  0
   18.6738   -6.1455  -15.0009 C   0  0  0  0  0  0  0  0  0  0  0  0
   18.3173   -6.3012  -13.8049 O   0  0  0  0  0  0  0  0  0  0  0  0
   19.8400   -5.3797  -15.2467 N   0  0  0  0  0  0  0  0  0  0  0  0
   20.5461   -4.7196  -14.1701 C   0  0  1  0  0  0  0  0  0  0  0  0
   21.7592   -5.5419  -13.8061 C   0  0  0  0  0  0  0  0  0  0  0  0
   22.7751   -4.6835  -12.5746 S   0  0  0  0  0  0  0  0  0  0  0  0
   20.9648   -3.3527  -14.5509 C   0  0  0  0  0  0  0  0  0  0  0  0
   21.1521   -3.0863  -15.7611 O   0  0  0  0  0  0  0  0  0  0  0  0
   21.1560   -2.3622  -13.6228 O   0  0  0  0  0  0  0  0  0  0  0  0
  1  2  1  0
  2  3  1  0
  3  4  1  1
  5  7  1  0
  5  3  1  0
  5  6  1  6
  7  8  2  0
 10  9  1  0
 11 10  2  0
 12 10  1  0
 13 12  1  0
 14 13  1  1
 15 14  1  0
 15  7  1  0
 16 17  2  0
 16 14  1  0
 18 16  1  0
 19 22  1  0
 19 18  1  0
 19 20  1  6
 21 20  1  0
 22 24  1  0
 23 22  2  0
M  END
$$$$
