IQC.pdb
     RDKit          3D

 24 23  0  0  1  0  0  0  0  0999 V2000
   30.4427  -21.1771  -10.0412 C   0  0  0  0  0  0  0  0  0  0  0  0
   29.9102  -21.4549  -11.4371 C   0  0  0  0  0  0  0  0  0  0  0  0
   28.6145  -20.7470  -11.6398 C   0  0  2  0  0  0  0  0  0  0  0  0
   27.6096  -21.2611  -10.6124 C   0  0  0  0  0  0  0  0  0  0  0  0
   28.0578  -20.8875  -13.0295 C   0  0  2  0  0  0  0  0  0  0  0  0
   29.0802  -20.5155  -13.9636 N   0  0  0  0  0  0  0  0  0  0  0  0
   26.7833  -20.1958  -13.2276 C   0  0  0  0  0  0  0  0  0  0  0  0
   26.7209  -18.9584  -13.0092 O   0  0  0  0  0  0  0  0  0  0  0  0
   25.5365  -21.0808  -17.2095 N   0  0  0  0  0  0  0  0  0  0  0  0
   25.7644  -19.6935  -16.9782 C   0  0  0  0  0  0  0  0  0  0  0  0
   26.6455  -19.1482  -17.7022 O   0  0  0  0  0  0  0  0  0  0  0  0
   25.0142  -18.9270  -15.9486 C   0  0  0  0  0  0  0  0  0  0  0  0
   24.0370  -19.8498  -15.2991 C   0  0  0  0  0  0  0  0  0  0  0  0
   24.3347  -20.1160  -13.8487 C   0  0  2  0  0  0  0  0  0  0  0  0
   25.5781  -20.8246  -13.6581 N   0  0  0  0  0  0  0  0  0  0  0  0
   23.2373  -20.8243  -13.1653 C   0  0  0  0  0  0  0  0  0  0  0  0
   23.1654  -22.0785  -13.2265 O   0  0  0  0  0  0  0  0  0  0  0  0
   22.2389  -20.1422  -12.4271 N   0  0  0  0  0  0  0  0  0  0  0  0
   21.2063  -20.8635  -11.7152 C   0  0  1  0  0  0  0  0  0  0  0  0
   21.1322  -20.3399  -10.3008 C   0  0  0  0  0  0  0  0  0  0  0  0
   22.7065  -20.5879   -9.4374 S   0  0  0  0  0  0  0  0  0  0  0  0
   19.8886  -20.7176  -12.3719 C   0  0  0  0  0  0  0  0  0  0  0  0
   19.7755  -19.9396  -13.3479 O   0  0  0  0  0  0  0  0  0  0  0  0
   18.7815  -21.4063  -11.9489 O   0  0  0  0  0  0  0  0  0  0  0  0
  1  2  1  0
  2  3  1  0
  3  4  1  1
  5  7  1  0
  5  3  1  0
  5  6  1  6
  7  8  2  0
 10  9  1  0
 11 10  2  0
 12 10  1  0
 13 12  1  0
 14 13  1  6
 15 14  1  0
 15  7  1  0
 16 17  2  0
 16 14  1  0
 18 16  1  0
 19 22  1  0
 19 18  1  0
 19 20  1  1
 21 20  1  0
 22 24  1  0
 23 22  2  0
M  END
$$$$
