IQC.pdb
     RDKit          3D

 24 23  0  0  1  0  0  0  0  0999 V2000
   17.4553  -15.2204  -17.3465 C   0  0  0  0  0  0  0  0  0  0  0  0
   17.0456  -13.7620  -17.2265 C   0  0  0  0  0  0  0  0  0  0  0  0
   18.2541  -12.9020  -17.0825 C   0  0  2  0  0  0  0  0  0  0  0  0
   19.0575  -13.3841  -15.8775 C   0  0  0  0  0  0  0  0  0  0  0  0
   17.9433  -11.4368  -16.9497 C   0  0  2  0  0  0  0  0  0  0  0  0
   17.1804  -11.0331  -18.0947 N   0  0  0  0  0  0  0  0  0  0  0  0
   19.1191  -10.6053  -16.6883 C   0  0  0  0  0  0  0  0  0  0  0  0
   19.7344  -10.7444  -15.5998 O   0  0  0  0  0  0  0  0  0  0  0  0
   21.9603   -6.4488  -20.5873 N   0  0  0  0  0  0  0  0  0  0  0  0
   22.6066   -6.1993  -19.3423 C   0  0  0  0  0  0  0  0  0  0  0  0
   23.4867   -5.2921  -19.3466 O   0  0  0  0  0  0  0  0  0  0  0  0
   22.2706   -6.9571  -18.1080 C   0  0  0  0  0  0  0  0  0  0  0  0
   21.2118   -7.9537  -18.4454 C   0  0  0  0  0  0  0  0  0  0  0  0
   20.7266   -8.7400  -17.2581 C   0  0  2  0  0  0  0  0  0  0  0  0
   19.6363   -9.6273  -17.5879 N   0  0  0  0  0  0  0  0  0  0  0  0
   20.3536   -7.8786  -16.1215 C   0  0  0  0  0  0  0  0  0  0  0  0
   19.2266   -7.3205  -16.1001 O   0  0  0  0  0  0  0  0  0  0  0  0
   21.2251   -7.6460  -15.0291 N   0  0  0  0  0  0  0  0  0  0  0  0
   20.8802   -6.7131  -13.9783 C   0  0  1  0  0  0  0  0  0  0  0  0
   20.7066   -7.4758  -12.6866 C   0  0  0  0  0  0  0  0  0  0  0  0
   20.4510   -6.3411  -11.2964 S   0  0  0  0  0  0  0  0  0  0  0  0
   21.9200   -5.6743  -13.8095 C   0  0  0  0  0  0  0  0  0  0  0  0
   23.1013   -5.9336  -14.1378 O   0  0  0  0  0  0  0  0  0  0  0  0
   21.6361   -4.4321  -13.3043 O   0  0  0  0  0  0  0  0  0  0  0  0
  1  2  1  0
  2  3  1  0
  3  4  1  1
  5  7  1  0
  5  3  1  0
  5  6  1  6
  7  8  2  0
 10  9  1  0
 11 10  2  0
 12 10  1  0
 13 12  1  0
 14 13  1  6
 15 14  1  0
 15  7  1  0
 16 17  2  0
 16 14  1  0
 18 16  1  0
 19 22  1  0
 19 18  1  0
 19 20  1  1
 21 20  1  0
 22 24  1  0
 23 22  2  0
M  END
$$$$
