IQC.pdb
     RDKit          3D

 24 23  0  0  1  0  0  0  0  0999 V2000
   27.1736  -15.3058  -15.2372 C   0  0  0  0  0  0  0  0  0  0  0  0
   25.6574  -15.2346  -15.3079 C   0  0  0  0  0  0  0  0  0  0  0  0
   25.2343  -13.9394  -15.9114 C   0  0  2  0  0  0  0  0  0  0  0  0
   25.6710  -12.8038  -14.9896 C   0  0  0  0  0  0  0  0  0  0  0  0
   23.7583  -13.8510  -16.1844 C   0  0  2  0  0  0  0  0  0  0  0  0
   23.3658  -15.0188  -16.9181 N   0  0  0  0  0  0  0  0  0  0  0  0
   23.3464  -12.5888  -16.8001 C   0  0  0  0  0  0  0  0  0  0  0  0
   23.3747  -12.4840  -18.0535 O   0  0  0  0  0  0  0  0  0  0  0  0
   20.9975  -10.9011  -20.3470 N   0  0  0  0  0  0  0  0  0  0  0  0
   20.5079   -9.6959  -19.7656 C   0  0  0  0  0  0  0  0  0  0  0  0
   19.9887   -8.8658  -20.5651 O   0  0  0  0  0  0  0  0  0  0  0  0
   20.5989   -9.4246  -18.3067 C   0  0  0  0  0  0  0  0  0  0  0  0
   21.2086  -10.6167  -17.6470 C   0  0  0  0  0  0  0  0  0  0  0  0
   22.3344  -10.2745  -16.7095 C   0  0  2  0  0  0  0  0  0  0  0  0
   22.9052  -11.4409  -16.0783 N   0  0  0  0  0  0  0  0  0  0  0  0
   21.9418   -9.2862  -15.6887 C   0  0  0  0  0  0  0  0  0  0  0  0
   21.2718   -9.6495  -14.6882 O   0  0  0  0  0  0  0  0  0  0  0  0
   22.2923   -7.9169  -15.7854 N   0  0  0  0  0  0  0  0  0  0  0  0
   21.9810   -6.9849  -14.7234 C   0  0  1  0  0  0  0  0  0  0  0  0
   22.9348   -5.8170  -14.8043 C   0  0  0  0  0  0  0  0  0  0  0  0
   22.7111   -4.7020  -13.3929 S   0  0  0  0  0  0  0  0  0  0  0  0
   20.5867   -6.4990  -14.8167 C   0  0  0  0  0  0  0  0  0  0  0  0
   20.0853   -6.2954  -15.9470 O   0  0  0  0  0  0  0  0  0  0  0  0
   19.8199   -6.2624  -13.7054 O   0  0  0  0  0  0  0  0  0  0  0  0
  1  2  1  0
  2  3  1  0
  3  4  1  1
  5  7  1  0
  5  3  1  0
  5  6  1  6
  7  8  2  0
 10  9  1  0
 11 10  2  0
 12 10  1  0
 13 12  1  0
 14 13  1  1
 15 14  1  0
 15  7  1  0
 16 17  2  0
 16 14  1  0
 18 16  1  0
 19 22  1  0
 19 18  1  0
 19 20  1  6
 21 20  1  0
 22 24  1  0
 23 22  2  0
M  END
$$$$
