IQC.pdb
     RDKit          3D

 24 23  0  0  1  0  0  0  0  0999 V2000
   25.3072  -21.0414   -8.8233 C   0  0  0  0  0  0  0  0  0  0  0  0
   24.0637  -20.7345   -9.6410 C   0  0  0  0  0  0  0  0  0  0  0  0
   24.3464  -20.9247  -11.0917 C   0  0  2  0  0  0  0  0  0  0  0  0
   25.5796  -20.1051  -11.4620 C   0  0  0  0  0  0  0  0  0  0  0  0
   23.1929  -20.5645  -11.9866 C   0  0  2  0  0  0  0  0  0  0  0  0
   22.0471  -21.3191  -11.5694 N   0  0  0  0  0  0  0  0  0  0  0  0
   23.4965  -20.6742  -13.4141 C   0  0  0  0  0  0  0  0  0  0  0  0
   23.6397  -21.8167  -13.9209 O   0  0  0  0  0  0  0  0  0  0  0  0
   22.3417  -16.5315  -17.9888 N   0  0  0  0  0  0  0  0  0  0  0  0
   23.0735  -17.5374  -18.6835 C   0  0  0  0  0  0  0  0  0  0  0  0
   23.1980  -17.3709  -19.9303 O   0  0  0  0  0  0  0  0  0  0  0  0
   23.6583  -18.7151  -17.9897 C   0  0  0  0  0  0  0  0  0  0  0  0
   23.3455  -18.6028  -16.5344 C   0  0  0  0  0  0  0  0  0  0  0  0
   23.9470  -19.7035  -15.7038 C   0  0  2  0  0  0  0  0  0  0  0  0
   23.6468  -19.5657  -14.2983 N   0  0  0  0  0  0  0  0  0  0  0  0
   25.4020  -19.8327  -15.9016 C   0  0  0  0  0  0  0  0  0  0  0  0
   26.1752  -18.9355  -15.4782 O   0  0  0  0  0  0  0  0  0  0  0  0
   25.9814  -20.9449  -16.5607 N   0  0  0  0  0  0  0  0  0  0  0  0
   27.4160  -21.0743  -16.6961 C   0  0  1  0  0  0  0  0  0  0  0  0
   27.8691  -22.2983  -15.9365 C   0  0  0  0  0  0  0  0  0  0  0  0
   27.2711  -22.2546  -14.2260 S   0  0  0  0  0  0  0  0  0  0  0  0
   27.8211  -21.1879  -18.1144 C   0  0  0  0  0  0  0  0  0  0  0  0
   26.9469  -21.1007  -19.0081 O   0  0  0  0  0  0  0  0  0  0  0  0
   29.1250  -21.3861  -18.4880 O   0  0  0  0  0  0  0  0  0  0  0  0
  1  2  1  0
  2  3  1  0
  3  4  1  6
  5  7  1  0
  5  3  1  0
  5  6  1  1
  7  8  2  0
 10  9  1  0
 11 10  2  0
 12 10  1  0
 13 12  1  0
 14 13  1  6
 15 14  1  0
 15  7  1  0
 16 17  2  0
 16 14  1  0
 18 16  1  0
 19 22  1  0
 19 18  1  0
 19 20  1  1
 21 20  1  0
 22 24  1  0
 23 22  2  0
M  END
$$$$
