IQC.pdb
     RDKit          3D

 24 23  0  0  1  0  0  0  0  0999 V2000
   28.6047  -12.5919  -15.4909 C   0  0  0  0  0  0  0  0  0  0  0  0
   27.2445  -13.1743  -15.8367 C   0  0  0  0  0  0  0  0  0  0  0  0
   26.2926  -12.0803  -16.1802 C   0  0  2  0  0  0  0  0  0  0  0  0
   26.1095  -11.1880  -14.9555 C   0  0  0  0  0  0  0  0  0  0  0  0
   24.9589  -12.5695  -16.6730 C   0  0  2  0  0  0  0  0  0  0  0  0
   25.1870  -13.4960  -17.7434 N   0  0  0  0  0  0  0  0  0  0  0  0
   24.0198  -11.4953  -16.9990 C   0  0  0  0  0  0  0  0  0  0  0  0
   24.2512  -10.7651  -17.9969 O   0  0  0  0  0  0  0  0  0  0  0  0
   20.0598  -10.3310  -19.4135 N   0  0  0  0  0  0  0  0  0  0  0  0
   19.3473   -9.4759  -18.5239 C   0  0  0  0  0  0  0  0  0  0  0  0
   18.5508   -8.6555  -19.0627 O   0  0  0  0  0  0  0  0  0  0  0  0
   19.5252   -9.5396  -17.0492 C   0  0  0  0  0  0  0  0  0  0  0  0
   20.5003  -10.6276  -16.7429 C   0  0  0  0  0  0  0  0  0  0  0  0
   21.9190  -10.1440  -16.6135 C   0  0  2  0  0  0  0  0  0  0  0  0
   22.8360  -11.2018  -16.2602 N   0  0  0  0  0  0  0  0  0  0  0  0
   22.0514   -9.0211  -15.6678 C   0  0  0  0  0  0  0  0  0  0  0  0
   22.1078   -9.2449  -14.4314 O   0  0  0  0  0  0  0  0  0  0  0  0
   22.1193   -7.6727  -16.0973 N   0  0  0  0  0  0  0  0  0  0  0  0
   22.2192   -6.5859  -15.1475 C   0  0  1  0  0  0  0  0  0  0  0  0
   23.1629   -5.5430  -15.6971 C   0  0  0  0  0  0  0  0  0  0  0  0
   23.3054   -4.1383  -14.5605 S   0  0  0  0  0  0  0  0  0  0  0  0
   20.8992   -5.9739  -14.8795 C   0  0  0  0  0  0  0  0  0  0  0  0
   20.0796   -5.8536  -15.8199 O   0  0  0  0  0  0  0  0  0  0  0  0
   20.5387   -5.5315  -13.6332 O   0  0  0  0  0  0  0  0  0  0  0  0
  1  2  1  0
  2  3  1  0
  3  4  1  1
  5  7  1  0
  5  3  1  0
  5  6  1  6
  7  8  2  0
 10  9  1  0
 11 10  2  0
 12 10  1  0
 13 12  1  0
 14 13  1  1
 15 14  1  0
 15  7  1  0
 16 17  2  0
 16 14  1  0
 18 16  1  0
 19 22  1  0
 19 18  1  0
 19 20  1  6
 21 20  1  0
 22 24  1  0
 23 22  2  0
M  END
$$$$
