IQC.pdb
     RDKit          3D

 24 23  0  0  1  0  0  0  0  0999 V2000
   28.8563  -17.9970  -17.5907 C   0  0  0  0  0  0  0  0  0  0  0  0
   27.3584  -17.7736  -17.7149 C   0  0  0  0  0  0  0  0  0  0  0  0
   26.7374  -17.7104  -16.3617 C   0  0  2  0  0  0  0  0  0  0  0  0
   27.2540  -16.4666  -15.6434 C   0  0  0  0  0  0  0  0  0  0  0  0
   26.9820  -18.9353  -15.5245 C   0  0  2  0  0  0  0  0  0  0  0  0
   26.7359  -20.0915  -16.3362 N   0  0  0  0  0  0  0  0  0  0  0  0
   26.2624  -18.9326  -14.2501 C   0  0  0  0  0  0  0  0  0  0  0  0
   26.4214  -17.9648  -13.4621 O   0  0  0  0  0  0  0  0  0  0  0  0
   20.7084  -21.4229  -13.0238 N   0  0  0  0  0  0  0  0  0  0  0  0
   21.0863  -20.9406  -11.7374 C   0  0  0  0  0  0  0  0  0  0  0  0
   20.1971  -20.9977  -10.8408 O   0  0  0  0  0  0  0  0  0  0  0  0
   22.4436  -20.4013  -11.4594 C   0  0  0  0  0  0  0  0  0  0  0  0
   23.2219  -20.4157  -12.7332 C   0  0  0  0  0  0  0  0  0  0  0  0
   24.6283  -19.9028  -12.5838 C   0  0  2  0  0  0  0  0  0  0  0  0
   25.3747  -19.9616  -13.8183 N   0  0  0  0  0  0  0  0  0  0  0  0
   25.3702  -20.5869  -11.5093 C   0  0  0  0  0  0  0  0  0  0  0  0
   25.8990  -21.7071  -11.7265 O   0  0  0  0  0  0  0  0  0  0  0  0
   25.5178  -20.0280  -10.2159 N   0  0  0  0  0  0  0  0  0  0  0  0
   26.1566  -20.7652   -9.1473 C   0  0  1  0  0  0  0  0  0  0  0  0
   27.2212  -19.8950   -8.5230 C   0  0  0  0  0  0  0  0  0  0  0  0
   26.4951  -18.3896   -7.8217 S   0  0  0  0  0  0  0  0  0  0  0  0
   25.1823  -21.1814   -8.1147 C   0  0  0  0  0  0  0  0  0  0  0  0
   23.9855  -20.8270   -8.2262 O   0  0  0  0  0  0  0  0  0  0  0  0
   25.5437  -21.9447   -7.0350 O   0  0  0  0  0  0  0  0  0  0  0  0
  1  2  1  0
  2  3  1  0
  3  4  1  1
  5  7  1  0
  5  3  1  0
  5  6  1  6
  7  8  2  0
 10  9  1  0
 11 10  2  0
 12 10  1  0
 13 12  1  0
 14 13  1  6
 15 14  1  0
 15  7  1  0
 16 17  2  0
 16 14  1  0
 18 16  1  0
 19 22  1  0
 19 18  1  0
 19 20  1  1
 21 20  1  0
 22 24  1  0
 23 22  2  0
M  END
$$$$
