IQC.pdb
     RDKit          3D

 24 23  0  0  1  0  0  0  0  0999 V2000
   19.1995  -17.6952  -16.9004 C   0  0  0  0  0  0  0  0  0  0  0  0
   18.3175  -16.5787  -17.4337 C   0  0  0  0  0  0  0  0  0  0  0  0
   18.7543  -15.2696  -16.8712 C   0  0  2  0  0  0  0  0  0  0  0  0
   18.6794  -15.3415  -15.3484 C   0  0  0  0  0  0  0  0  0  0  0  0
   17.9608  -14.0970  -17.3776 C   0  0  2  0  0  0  0  0  0  0  0  0
   17.7367  -14.2783  -18.7823 N   0  0  0  0  0  0  0  0  0  0  0  0
   18.5358  -12.7984  -17.0243 C   0  0  0  0  0  0  0  0  0  0  0  0
   18.7006  -12.5147  -15.8097 O   0  0  0  0  0  0  0  0  0  0  0  0
   20.5060   -8.2023  -20.9315 N   0  0  0  0  0  0  0  0  0  0  0  0
   20.8484   -7.6831  -19.6496 C   0  0  0  0  0  0  0  0  0  0  0  0
   21.2906   -6.4991  -19.6312 O   0  0  0  0  0  0  0  0  0  0  0  0
   20.6972   -8.4809  -18.4042 C   0  0  0  0  0  0  0  0  0  0  0  0
   20.1056   -9.8030  -18.7652 C   0  0  0  0  0  0  0  0  0  0  0  0
   19.5270  -10.5433  -17.5903 C   0  0  2  0  0  0  0  0  0  0  0  0
   18.9340  -11.8049  -17.9665 N   0  0  0  0  0  0  0  0  0  0  0  0
   18.5572   -9.7332  -16.8313 C   0  0  0  0  0  0  0  0  0  0  0  0
   17.3325   -9.7955  -17.1105 O   0  0  0  0  0  0  0  0  0  0  0  0
   18.9503   -8.8695  -15.7794 N   0  0  0  0  0  0  0  0  0  0  0  0
   18.0156   -7.9420  -15.1798 C   0  0  1  0  0  0  0  0  0  0  0  0
   17.5027   -8.5329  -13.8883 C   0  0  0  0  0  0  0  0  0  0  0  0
   16.5631   -7.3035  -12.9443 S   0  0  0  0  0  0  0  0  0  0  0  0
   18.6452   -6.6299  -14.9140 C   0  0  0  0  0  0  0  0  0  0  0  0
   19.8942   -6.5545  -14.8455 O   0  0  0  0  0  0  0  0  0  0  0  0
   17.9075   -5.4878  -14.7390 O   0  0  0  0  0  0  0  0  0  0  0  0
  1  2  1  0
  2  3  1  0
  3  4  1  1
  5  7  1  0
  5  3  1  0
  5  6  1  6
  7  8  2  0
 10  9  1  0
 11 10  2  0
 12 10  1  0
 13 12  1  0
 14 13  1  6
 15 14  1  0
 15  7  1  0
 16 17  2  0
 16 14  1  0
 18 16  1  0
 19 22  1  0
 19 18  1  0
 19 20  1  1
 21 20  1  0
 22 24  1  0
 23 22  2  0
M  END
$$$$
