IQC.pdb
     RDKit          3D

 24 23  0  0  1  0  0  0  0  0999 V2000
   19.2581  -13.4049  -21.9402 C   0  0  0  0  0  0  0  0  0  0  0  0
   19.8635  -13.4502  -20.5472 C   0  0  0  0  0  0  0  0  0  0  0  0
   19.6084  -12.1651  -19.8372 C   0  0  2  0  0  0  0  0  0  0  0  0
   20.4046  -11.0592  -20.5249 C   0  0  0  0  0  0  0  0  0  0  0  0
   19.9350  -12.2077  -18.3700 C   0  0  2  0  0  0  0  0  0  0  0  0
   19.1598  -13.2523  -17.7666 N   0  0  0  0  0  0  0  0  0  0  0  0
   19.8184  -10.9110  -17.7014 C   0  0  0  0  0  0  0  0  0  0  0  0
   18.6762  -10.4881  -17.3863 O   0  0  0  0  0  0  0  0  0  0  0  0
   20.2926   -8.7923  -12.8486 N   0  0  0  0  0  0  0  0  0  0  0  0
   20.6756   -7.5261  -13.3778 C   0  0  0  0  0  0  0  0  0  0  0  0
   20.4671   -6.5274  -12.6315 O   0  0  0  0  0  0  0  0  0  0  0  0
   21.2846   -7.3810  -14.7263 C   0  0  0  0  0  0  0  0  0  0  0  0
   21.3486   -8.7320  -15.3578 C   0  0  0  0  0  0  0  0  0  0  0  0
   20.7723   -8.7740  -16.7468 C   0  0  2  0  0  0  0  0  0  0  0  0
   20.9197  -10.0680  -17.3702 N   0  0  0  0  0  0  0  0  0  0  0  0
   21.3240   -7.7236  -17.6217 C   0  0  0  0  0  0  0  0  0  0  0  0
   22.4930   -7.8324  -18.0727 O   0  0  0  0  0  0  0  0  0  0  0  0
   20.5816   -6.5731  -17.9851 N   0  0  0  0  0  0  0  0  0  0  0  0
   21.1479   -5.5529  -18.8407 C   0  0  1  0  0  0  0  0  0  0  0  0
   20.0571   -4.9971  -19.7248 C   0  0  0  0  0  0  0  0  0  0  0  0
   20.6883   -3.6483  -20.7582 S   0  0  0  0  0  0  0  0  0  0  0  0
   21.7590   -4.4596  -18.0534 C   0  0  0  0  0  0  0  0  0  0  0  0
   21.1617   -4.0299  -17.0390 O   0  0  0  0  0  0  0  0  0  0  0  0
   22.9612   -3.8969  -18.3956 O   0  0  0  0  0  0  0  0  0  0  0  0
  1  2  1  0
  2  3  1  0
  3  4  1  6
  5  7  1  0
  5  3  1  0
  5  6  1  1
  7  8  2  0
 10  9  1  0
 11 10  2  0
 12 10  1  0
 13 12  1  0
 14 13  1  1
 15 14  1  0
 15  7  1  0
 16 17  2  0
 16 14  1  0
 18 16  1  0
 19 22  1  0
 19 18  1  0
 19 20  1  1
 21 20  1  0
 22 24  1  0
 23 22  2  0
M  END
$$$$
