RHP.pdb
     RDKit          3D

 29 30  0  0  1  0  0  0  0  0999 V2000
   30.9327  -22.2500  -19.8972 N   0  0  0  0  0  0  0  0  0  0  0  0
   31.2839  -20.9096  -20.2214 C   0  0  0  0  0  0  0  0  0  0  0  0
   32.0632  -20.6598  -21.1947 N   0  0  0  0  0  0  0  0  0  0  0  0
   30.7558  -19.8287  -19.4446 N   0  0  0  0  0  0  0  0  0  0  0  0
   29.8052  -20.1550  -18.4046 C   0  0  0  0  0  0  0  0  0  0  0  0
   28.4683  -20.5537  -18.9986 C   0  0  0  0  0  0  0  0  0  0  0  0
   27.3246  -19.8521  -18.2924 C   0  0  0  0  0  0  0  0  0  0  0  0
   26.7347  -20.8347  -17.3289 C   0  0  2  0  0  0  0  0  0  0  0  0
   25.8711  -21.7956  -17.9539 N   0  0  0  0  0  0  0  0  0  0  0  0
   26.0781  -20.1846  -16.1553 C   0  0  0  0  0  0  0  0  0  0  0  0
   26.7779  -19.3871  -15.4810 O   0  0  0  0  0  0  0  0  0  0  0  0
   32.2677  -19.6952  -21.4701 N   0  0  0  0  0  0  0  0  0  0  0  0
   24.7516  -20.4178  -15.7813 C   0  0  1  0  0  0  0  0  0  0  0  0
   24.0934  -19.7602  -14.6255 C   0  0  0  0  0  0  0  0  0  0  0  0
   22.7374  -19.2856  -15.0066 C   0  0  0  0  0  0  0  0  0  0  0  0
   22.7205  -18.1865  -16.0012 C   0  0  0  0  0  0  0  0  0  0  0  0
   23.5182  -17.0842  -15.9946 N   0  0  0  0  0  0  0  0  0  0  0  0
   23.1911  -16.2955  -17.0448 C   0  0  0  0  0  0  0  0  0  0  0  0
   22.2032  -16.9256  -17.6723 N   0  0  0  0  0  0  0  0  0  0  0  0
   21.8987  -18.0696  -17.0641 C   0  0  0  0  0  0  0  0  0  0  0  0
   24.0473  -20.7859  -13.5346 O   0  0  0  0  0  0  0  0  0  0  0  0
   23.7170  -21.9952  -13.8714 N   0  0  0  0  0  0  0  0  0  0  0  0
   24.3226  -20.6003  -12.1795 C   0  0  0  0  0  0  0  0  0  0  0  0
   24.9231  -19.3558  -11.6671 C   0  0  0  0  0  0  0  0  0  0  0  0
   25.4934  -19.7211  -10.3177 C   0  0  0  0  0  0  0  0  0  0  0  0
   24.6356  -20.8666   -9.8347 C   0  0  1  0  0  0  0  0  0  0  0  0
   24.0628  -21.5014  -11.0990 C   0  0  0  0  0  0  0  0  0  0  0  0
   22.6073  -21.6719  -10.8133 O   0  0  0  0  0  0  0  0  0  0  0  0
   22.2683  -22.5725  -10.0009 O   0  0  0  0  0  0  0  0  0  0  0  0
  2  1  1  0
  3  2  2  0
  4  2  1  0
  5  4  1  0
  6  5  1  0
  7  6  1  0
  8  7  1  0
  8  9  1  6
 10 12  1  0
 10  8  1  0
 11 10  2  0
 13 14  1  1
 13 12  1  0
 14 15  1  0
 15 19  1  0
 15 16  2  0
 16 17  1  0
 18 17  1  0
 19 18  2  0
 20 21  2  0
 20 13  1  0
 22 20  1  0
 23 22  1  0
 24 23  1  0
 24 25  1  0
 25 26  1  0
 26 22  1  0
 26 27  1  1
 28 27  2  0
 29 27  1  0
M  END
$$$$
