RHP.pdb
     RDKit          3D

 29 30  0  0  1  0  0  0  0  0999 V2000
   23.3019  -25.7320  -17.2187 N   0  0  0  0  0  0  0  0  0  0  0  0
   23.8802  -25.8959  -15.9287 C   0  0  0  0  0  0  0  0  0  0  0  0
   23.1641  -26.2356  -14.9344 N   0  0  0  0  0  0  0  0  0  0  0  0
   25.2834  -25.6762  -15.7457 N   0  0  0  0  0  0  0  0  0  0  0  0
   25.8224  -24.4045  -16.1746 C   0  0  0  0  0  0  0  0  0  0  0  0
   26.0847  -24.4035  -17.6681 C   0  0  0  0  0  0  0  0  0  0  0  0
   26.1615  -22.9893  -18.2093 C   0  0  0  0  0  0  0  0  0  0  0  0
   27.5137  -22.4551  -17.8517 C   0  0  2  0  0  0  0  0  0  0  0  0
   28.5553  -23.4385  -17.9409 N   0  0  0  0  0  0  0  0  0  0  0  0
   27.5362  -21.7460  -16.5373 C   0  0  0  0  0  0  0  0  0  0  0  0
   28.5300  -21.9532  -15.7956 O   0  0  0  0  0  0  0  0  0  0  0  0
   23.5618  -26.2841  -13.9923 N   0  0  0  0  0  0  0  0  0  0  0  0
   26.5257  -20.8827  -16.1044 C   0  0  2  0  0  0  0  0  0  0  0  0
   26.5938  -20.0995  -14.8460 C   0  0  0  0  0  0  0  0  0  0  0  0
   26.2352  -18.6801  -15.1029 C   0  0  0  0  0  0  0  0  0  0  0  0
   27.2720  -17.8964  -15.8158 C   0  0  0  0  0  0  0  0  0  0  0  0
   28.5035  -18.3417  -16.1855 N   0  0  0  0  0  0  0  0  0  0  0  0
   29.1756  -17.3334  -16.7886 C   0  0  0  0  0  0  0  0  0  0  0  0
   28.3478  -16.2935  -16.7768 N   0  0  0  0  0  0  0  0  0  0  0  0
   27.1917  -16.6049  -16.1958 C   0  0  0  0  0  0  0  0  0  0  0  0
   25.6437  -20.7590  -13.8939 O   0  0  0  0  0  0  0  0  0  0  0  0
   24.6657  -21.4399  -14.4087 N   0  0  0  0  0  0  0  0  0  0  0  0
   25.6817  -20.7343  -12.4995 C   0  0  0  0  0  0  0  0  0  0  0  0
   26.7872  -20.1009  -11.7587 C   0  0  0  0  0  0  0  0  0  0  0  0
   26.7202  -20.6921  -10.3711 C   0  0  0  0  0  0  0  0  0  0  0  0
   25.2670  -21.0556  -10.1775 C   0  0  1  0  0  0  0  0  0  0  0  0
   24.7097  -21.2501  -11.5850 C   0  0  0  0  0  0  0  0  0  0  0  0
   23.4282  -20.4841  -11.5961 O   0  0  0  0  0  0  0  0  0  0  0  0
   22.4352  -20.9894  -11.0088 O   0  0  0  0  0  0  0  0  0  0  0  0
  2  1  1  0
  3  2  2  0
  4  2  1  0
  5  4  1  0
  6  5  1  0
  7  6  1  0
  8  7  1  0
  8  9  1  1
 10 12  1  0
 10  8  1  0
 11 10  2  0
 13 14  1  6
 13 12  1  0
 14 15  1  0
 15 19  1  0
 15 16  2  0
 16 17  1  0
 18 17  1  0
 19 18  2  0
 20 21  2  0
 20 13  1  0
 22 20  1  0
 23 22  1  0
 24 23  1  0
 24 25  1  0
 25 26  1  0
 26 22  1  0
 26 27  1  6
 28 27  2  0
 29 27  1  0
M  END
$$$$
