RHP.pdb
     RDKit          3D

 29 30  0  0  1  0  0  0  0  0999 V2000
   28.5404  -21.4060   -9.5293 N   0  0  0  0  0  0  0  0  0  0  0  0
   29.8166  -21.5289  -10.1469 C   0  0  0  0  0  0  0  0  0  0  0  0
   30.8236  -21.9308   -9.4825 N   0  0  0  0  0  0  0  0  0  0  0  0
   29.9712  -21.1965  -11.5312 N   0  0  0  0  0  0  0  0  0  0  0  0
   28.7723  -21.1062  -12.3350 C   0  0  0  0  0  0  0  0  0  0  0  0
   28.1520  -22.4749  -12.5379 C   0  0  0  0  0  0  0  0  0  0  0  0
   26.9495  -22.3998  -13.4584 C   0  0  0  0  0  0  0  0  0  0  0  0
   26.0765  -21.2943  -12.9510 C   0  0  2  0  0  0  0  0  0  0  0  0
   25.6650  -21.4750  -11.5880 N   0  0  0  0  0  0  0  0  0  0  0  0
   24.9145  -21.0065  -13.8441 C   0  0  0  0  0  0  0  0  0  0  0  0
   24.6998  -21.8194  -14.7788 O   0  0  0  0  0  0  0  0  0  0  0  0
   31.7431  -22.0196   -9.9238 N   0  0  0  0  0  0  0  0  0  0  0  0
   24.0744  -19.8997  -13.6916 C   0  0  1  0  0  0  0  0  0  0  0  0
   22.8553  -19.6718  -14.5059 C   0  0  0  0  0  0  0  0  0  0  0  0
   21.7554  -19.1517  -13.6521 C   0  0  0  0  0  0  0  0  0  0  0  0
   21.0191  -20.1869  -12.8882 C   0  0  0  0  0  0  0  0  0  0  0  0
   21.2508  -21.5273  -12.9216 N   0  0  0  0  0  0  0  0  0  0  0  0
   20.3608  -22.1502  -12.1141 C   0  0  0  0  0  0  0  0  0  0  0  0
   19.6031  -21.1846  -11.6037 N   0  0  0  0  0  0  0  0  0  0  0  0
   19.9781  -19.9896  -12.0537 C   0  0  0  0  0  0  0  0  0  0  0  0
   23.2466  -18.7007  -15.5773 O   0  0  0  0  0  0  0  0  0  0  0  0
   23.9930  -17.6987  -15.2255 N   0  0  0  0  0  0  0  0  0  0  0  0
   22.9051  -18.7417  -16.9295 C   0  0  0  0  0  0  0  0  0  0  0  0
   22.1920  -19.8878  -17.5212 C   0  0  0  0  0  0  0  0  0  0  0  0
   22.4434  -19.7830  -19.0063 C   0  0  0  0  0  0  0  0  0  0  0  0
   22.6574  -18.3090  -19.2571 C   0  0  1  0  0  0  0  0  0  0  0  0
   23.1329  -17.7386  -17.9237 C   0  0  0  0  0  0  0  0  0  0  0  0
   22.3082  -16.5109  -17.7193 O   0  0  0  0  0  0  0  0  0  0  0  0
   22.6354  -15.4702  -18.3487 O   0  0  0  0  0  0  0  0  0  0  0  0
  2  1  1  0
  3  2  2  0
  4  2  1  0
  5  4  1  0
  6  5  1  0
  7  6  1  0
  8  7  1  0
  8  9  1  1
 10 12  1  0
 10  8  1  0
 11 10  2  0
 13 14  1  6
 13 12  1  0
 14 15  1  0
 15 19  1  0
 15 16  2  0
 16 17  1  0
 18 17  1  0
 19 18  2  0
 20 21  2  0
 20 13  1  0
 22 20  1  0
 23 22  1  0
 24 23  1  0
 24 25  1  0
 25 26  1  0
 26 22  1  0
 26 27  1  1
 28 27  2  0
 29 27  1  0
M  END
$$$$
