RHP.pdb
     RDKit          3D

 29 30  0  0  1  0  0  0  0  0999 V2000
   28.7367  -27.2077  -16.4578 N   0  0  0  0  0  0  0  0  0  0  0  0
   27.5822  -27.8335  -17.0061 C   0  0  0  0  0  0  0  0  0  0  0  0
   27.2858  -29.0316  -16.7003 N   0  0  0  0  0  0  0  0  0  0  0  0
   26.7437  -27.1084  -17.9127 N   0  0  0  0  0  0  0  0  0  0  0  0
   26.9826  -25.6890  -18.0545 C   0  0  0  0  0  0  0  0  0  0  0  0
   25.9615  -24.8872  -17.2711 C   0  0  0  0  0  0  0  0  0  0  0  0
   25.0608  -24.0941  -18.1977 C   0  0  0  0  0  0  0  0  0  0  0  0
   25.6332  -22.7137  -18.2911 C   0  0  2  0  0  0  0  0  0  0  0  0
   27.0476  -22.6675  -18.0525 N   0  0  0  0  0  0  0  0  0  0  0  0
   24.9002  -21.7161  -17.4552 C   0  0  0  0  0  0  0  0  0  0  0  0
   25.2701  -21.5935  -16.2600 O   0  0  0  0  0  0  0  0  0  0  0  0
   26.5056  -29.5129  -17.1562 N   0  0  0  0  0  0  0  0  0  0  0  0
   23.8459  -20.9312  -17.9307 C   0  0  2  0  0  0  0  0  0  0  0  0
   23.1166  -19.9405  -17.1011 C   0  0  0  0  0  0  0  0  0  0  0  0
   22.5395  -18.8742  -17.9607 C   0  0  0  0  0  0  0  0  0  0  0  0
   21.8038  -17.8159  -17.2284 C   0  0  0  0  0  0  0  0  0  0  0  0
   22.1882  -16.5179  -17.0910 N   0  0  0  0  0  0  0  0  0  0  0  0
   21.2760  -15.8644  -16.3341 C   0  0  0  0  0  0  0  0  0  0  0  0
   20.3541  -16.7698  -16.0224 N   0  0  0  0  0  0  0  0  0  0  0  0
   20.6473  -17.9565  -16.5489 C   0  0  0  0  0  0  0  0  0  0  0  0
   22.0601  -20.7094  -16.3684 O   0  0  0  0  0  0  0  0  0  0  0  0
   21.4506  -21.6505  -17.0225 N   0  0  0  0  0  0  0  0  0  0  0  0
   21.6450  -20.5387  -15.0473 C   0  0  0  0  0  0  0  0  0  0  0  0
   22.2295  -19.5077  -14.1713 C   0  0  0  0  0  0  0  0  0  0  0  0
   21.8970  -19.9507  -12.7668 C   0  0  0  0  0  0  0  0  0  0  0  0
   20.6246  -20.7524  -12.9073 C   0  0  2  0  0  0  0  0  0  0  0  0
   20.6226  -21.2549  -14.3484 C   0  0  0  0  0  0  0  0  0  0  0  0
   19.2487  -20.9592  -14.8525 O   0  0  0  0  0  0  0  0  0  0  0  0
   19.1209  -20.0498  -15.7144 O   0  0  0  0  0  0  0  0  0  0  0  0
  2  1  1  0
  3  2  2  0
  4  2  1  0
  5  4  1  0
  6  5  1  0
  7  6  1  0
  8  7  1  0
  8  9  1  1
 10 12  1  0
 10  8  1  0
 11 10  2  0
 13 14  1  6
 13 12  1  0
 14 15  1  0
 15 19  1  0
 15 16  2  0
 16 17  1  0
 18 17  1  0
 19 18  2  0
 20 21  2  0
 20 13  1  0
 22 20  1  0
 23 22  1  0
 24 23  1  0
 24 25  1  0
 25 26  1  0
 26 22  1  0
 26 27  1  6
 28 27  2  0
 29 27  1  0
M  END
$$$$
