RHP.pdb
     RDKit          3D

 29 30  0  0  1  0  0  0  0  0999 V2000
   26.6247  -24.6582  -16.3476 N   0  0  0  0  0  0  0  0  0  0  0  0
   25.8095  -25.8072  -16.1464 C   0  0  0  0  0  0  0  0  0  0  0  0
   26.0701  -26.9006  -16.7409 N   0  0  0  0  0  0  0  0  0  0  0  0
   24.6827  -25.7338  -15.2657 N   0  0  0  0  0  0  0  0  0  0  0  0
   24.4550  -24.4842  -14.5741 C   0  0  0  0  0  0  0  0  0  0  0  0
   23.1783  -24.5418  -13.7579 C   0  0  0  0  0  0  0  0  0  0  0  0
   21.9844  -24.8726  -14.6321 C   0  0  0  0  0  0  0  0  0  0  0  0
   21.1385  -23.6394  -14.7048 C   0  0  2  0  0  0  0  0  0  0  0  0
   21.8802  -22.4607  -15.0518 N   0  0  0  0  0  0  0  0  0  0  0  0
   20.3044  -23.4265  -13.4841 C   0  0  0  0  0  0  0  0  0  0  0  0
   20.8613  -22.8698  -12.5042 O   0  0  0  0  0  0  0  0  0  0  0  0
   25.4578  -27.7145  -16.6369 N   0  0  0  0  0  0  0  0  0  0  0  0
   18.9638  -23.8096  -13.3843 C   0  0  1  0  0  0  0  0  0  0  0  0
   18.1376  -23.6088  -12.1683 C   0  0  0  0  0  0  0  0  0  0  0  0
   16.7057  -23.4596  -12.5375 C   0  0  0  0  0  0  0  0  0  0  0  0
   15.7868  -23.2540  -11.3925 C   0  0  0  0  0  0  0  0  0  0  0  0
   14.9370  -24.1782  -10.8680 N   0  0  0  0  0  0  0  0  0  0  0  0
   14.2428  -23.6142   -9.8521 C   0  0  0  0  0  0  0  0  0  0  0  0
   14.6773  -22.3605   -9.7737 N   0  0  0  0  0  0  0  0  0  0  0  0
   15.6094  -22.1156  -10.6915 C   0  0  0  0  0  0  0  0  0  0  0  0
   18.3759  -24.8070  -11.3014 O   0  0  0  0  0  0  0  0  0  0  0  0
   18.5731  -25.9420  -11.8997 N   0  0  0  0  0  0  0  0  0  0  0  0
   18.4157  -24.8549   -9.9075 C   0  0  0  0  0  0  0  0  0  0  0  0
   18.3113  -23.6397   -9.0803 C   0  0  0  0  0  0  0  0  0  0  0  0
   18.8707  -24.0315   -7.7338 C   0  0  0  0  0  0  0  0  0  0  0  0
   18.6189  -25.5171   -7.6301 C   0  0  1  0  0  0  0  0  0  0  0  0
   18.5227  -26.0107   -9.0711 C   0  0  0  0  0  0  0  0  0  0  0  0
   17.3024  -26.8705   -9.0982 O   0  0  0  0  0  0  0  0  0  0  0  0
   16.2443  -26.3762   -9.5697 O   0  0  0  0  0  0  0  0  0  0  0  0
  2  1  1  0
  3  2  2  0
  4  2  1  0
  5  4  1  0
  6  5  1  0
  7  6  1  0
  8  7  1  0
  8  9  1  1
 10 12  1  0
 10  8  1  0
 11 10  2  0
 13 14  1  6
 13 12  1  0
 14 15  1  0
 15 19  1  0
 15 16  2  0
 16 17  1  0
 18 17  1  0
 19 18  2  0
 20 21  2  0
 20 13  1  0
 22 20  1  0
 23 22  1  0
 24 23  1  0
 24 25  1  0
 25 26  1  0
 26 22  1  0
 26 27  1  6
 28 27  2  0
 29 27  1  0
M  END
$$$$
