RHP.pdb
     RDKit          3D

 29 30  0  0  1  0  0  0  0  0999 V2000
   22.3677  -33.5422   -7.9720 N   0  0  0  0  0  0  0  0  0  0  0  0
   23.6409  -33.4251   -8.5970 C   0  0  0  0  0  0  0  0  0  0  0  0
   24.5026  -34.3545   -8.4945 N   0  0  0  0  0  0  0  0  0  0  0  0
   23.9576  -32.2488   -9.3497 N   0  0  0  0  0  0  0  0  0  0  0  0
   22.9393  -31.2269   -9.4531 C   0  0  0  0  0  0  0  0  0  0  0  0
   22.5376  -31.0072  -10.8987 C   0  0  0  0  0  0  0  0  0  0  0  0
   21.5375  -29.8743  -11.0225 C   0  0  0  0  0  0  0  0  0  0  0  0
   20.1784  -30.4961  -11.1108 C   0  0  2  0  0  0  0  0  0  0  0  0
   19.9367  -31.1595  -12.3603 N   0  0  0  0  0  0  0  0  0  0  0  0
   19.0757  -29.5490  -10.7672 C   0  0  0  0  0  0  0  0  0  0  0  0
   18.1480  -29.4267  -11.6068 O   0  0  0  0  0  0  0  0  0  0  0  0
   25.4040  -34.2911   -8.9759 N   0  0  0  0  0  0  0  0  0  0  0  0
   19.0298  -28.8092   -9.5820 C   0  0  2  0  0  0  0  0  0  0  0  0
   17.8395  -28.0460   -9.1324 C   0  0  0  0  0  0  0  0  0  0  0  0
   16.6514  -28.9367   -9.0666 C   0  0  0  0  0  0  0  0  0  0  0  0
   15.3855  -28.2579   -8.7002 C   0  0  0  0  0  0  0  0  0  0  0  0
   15.1216  -26.9287   -8.8225 N   0  0  0  0  0  0  0  0  0  0  0  0
   13.8738  -26.6813   -8.3599 C   0  0  0  0  0  0  0  0  0  0  0  0
   13.3986  -27.8577   -7.9638 N   0  0  0  0  0  0  0  0  0  0  0  0
   14.2898  -28.8270   -8.1575 C   0  0  0  0  0  0  0  0  0  0  0  0
   18.1931  -27.4756   -7.7931 O   0  0  0  0  0  0  0  0  0  0  0  0
   18.5820  -28.3094   -6.8774 N   0  0  0  0  0  0  0  0  0  0  0  0
   18.1584  -26.1368   -7.4020 C   0  0  0  0  0  0  0  0  0  0  0  0
   17.6971  -25.0696   -8.3077 C   0  0  0  0  0  0  0  0  0  0  0  0
   18.2544  -23.7924   -7.7263 C   0  0  0  0  0  0  0  0  0  0  0  0
   18.3839  -24.0676   -6.2468 C   0  0  2  0  0  0  0  0  0  0  0  0
   18.5051  -25.5844   -6.1286 C   0  0  0  0  0  0  0  0  0  0  0  0
   17.5484  -25.9594   -5.0455 O   0  0  0  0  0  0  0  0  0  0  0  0
   16.4134  -26.3872   -5.3845 O   0  0  0  0  0  0  0  0  0  0  0  0
  2  1  1  0
  3  2  2  0
  4  2  1  0
  5  4  1  0
  6  5  1  0
  7  6  1  0
  8  7  1  0
  8  9  1  6
 10 12  1  0
 10  8  1  0
 11 10  2  0
 13 14  1  6
 13 12  1  0
 14 15  1  0
 15 19  1  0
 15 16  2  0
 16 17  1  0
 18 17  1  0
 19 18  2  0
 20 21  2  0
 20 13  1  0
 22 20  1  0
 23 22  1  0
 24 23  1  0
 24 25  1  0
 25 26  1  0
 26 22  1  0
 26 27  1  1
 28 27  2  0
 29 27  1  0
M  END
$$$$
