RHP.pdb
     RDKit          3D

 29 30  0  0  1  0  0  0  0  0999 V2000
   29.6602  -22.8742  -17.1618 N   0  0  0  0  0  0  0  0  0  0  0  0
   28.3283  -23.2683  -17.4715 C   0  0  0  0  0  0  0  0  0  0  0  0
   27.9244  -24.4472  -17.2186 N   0  0  0  0  0  0  0  0  0  0  0  0
   27.4313  -22.3291  -18.0749 N   0  0  0  0  0  0  0  0  0  0  0  0
   27.8370  -20.9412  -18.1043 C   0  0  0  0  0  0  0  0  0  0  0  0
   27.7227  -20.3144  -16.7283 C   0  0  0  0  0  0  0  0  0  0  0  0
   26.3020  -19.8652  -16.4479 C   0  0  0  0  0  0  0  0  0  0  0  0
   25.9884  -20.2561  -15.0370 C   0  0  2  0  0  0  0  0  0  0  0  0
   26.1906  -21.6527  -14.7756 N   0  0  0  0  0  0  0  0  0  0  0  0
   24.6386  -19.8010  -14.5877 C   0  0  0  0  0  0  0  0  0  0  0  0
   24.2318  -18.6984  -15.0341 O   0  0  0  0  0  0  0  0  0  0  0  0
   26.9962  -24.7601  -17.5165 N   0  0  0  0  0  0  0  0  0  0  0  0
   23.8261  -20.5285  -13.7133 C   0  0  2  0  0  0  0  0  0  0  0  0
   22.4170  -20.1756  -13.4113 C   0  0  0  0  0  0  0  0  0  0  0  0
   21.6142  -20.1458  -14.6619 C   0  0  0  0  0  0  0  0  0  0  0  0
   21.7640  -18.9103  -15.4672 C   0  0  0  0  0  0  0  0  0  0  0  0
   22.2928  -18.8254  -16.7181 N   0  0  0  0  0  0  0  0  0  0  0  0
   22.2867  -17.5310  -17.1137 C   0  0  0  0  0  0  0  0  0  0  0  0
   21.7576  -16.8496  -16.1025 N   0  0  0  0  0  0  0  0  0  0  0  0
   21.4329  -17.6568  -15.0954 C   0  0  0  0  0  0  0  0  0  0  0  0
   21.9257  -21.2131  -12.4489 O   0  0  0  0  0  0  0  0  0  0  0  0
   22.0377  -22.4555  -12.8082 N   0  0  0  0  0  0  0  0  0  0  0  0
   21.3558  -21.0067  -11.1922 C   0  0  0  0  0  0  0  0  0  0  0  0
   21.1893  -19.6582  -10.6215 C   0  0  0  0  0  0  0  0  0  0  0  0
   21.0160  -19.8779   -9.1378 C   0  0  0  0  0  0  0  0  0  0  0  0
   20.4124  -21.2576   -9.0211 C   0  0  1  0  0  0  0  0  0  0  0  0
   20.8295  -21.9884  -10.2944 C   0  0  0  0  0  0  0  0  0  0  0  0
   19.5766  -22.6290  -10.7933 O   0  0  0  0  0  0  0  0  0  0  0  0
   19.0274  -22.1333  -11.8126 O   0  0  0  0  0  0  0  0  0  0  0  0
  2  1  1  0
  3  2  2  0
  4  2  1  0
  5  4  1  0
  6  5  1  0
  7  6  1  0
  8  7  1  0
  8  9  1  6
 10 12  1  0
 10  8  1  0
 11 10  2  0
 13 14  1  6
 13 12  1  0
 14 15  1  0
 15 19  1  0
 15 16  2  0
 16 17  1  0
 18 17  1  0
 19 18  2  0
 20 21  2  0
 20 13  1  0
 22 20  1  0
 23 22  1  0
 24 23  1  0
 24 25  1  0
 25 26  1  0
 26 22  1  0
 26 27  1  6
 28 27  2  0
 29 27  1  0
M  END
$$$$
