RHP.pdb
     RDKit          3D

 29 30  0  0  1  0  0  0  0  0999 V2000
   19.3529  -24.2123   -8.9514 N   0  0  0  0  0  0  0  0  0  0  0  0
   18.3822  -25.1845   -9.3225 C   0  0  0  0  0  0  0  0  0  0  0  0
   18.5156  -25.8603  -10.3913 N   0  0  0  0  0  0  0  0  0  0  0  0
   17.2417  -25.4056   -8.4853 N   0  0  0  0  0  0  0  0  0  0  0  0
   17.1894  -24.6966   -7.2258 C   0  0  0  0  0  0  0  0  0  0  0  0
   17.9869  -25.4246   -6.1612 C   0  0  0  0  0  0  0  0  0  0  0  0
   17.0807  -26.2435   -5.2628 C   0  0  0  0  0  0  0  0  0  0  0  0
   17.5448  -26.0264   -3.8559 C   0  0  2  0  0  0  0  0  0  0  0  0
   17.8342  -27.2466   -3.1580 N   0  0  0  0  0  0  0  0  0  0  0  0
   16.6349  -25.1427   -3.0671 C   0  0  0  0  0  0  0  0  0  0  0  0
   16.3334  -24.0345   -3.5784 O   0  0  0  0  0  0  0  0  0  0  0  0
   17.7954  -26.5257  -10.6858 N   0  0  0  0  0  0  0  0  0  0  0  0
   16.1157  -25.4840   -1.8150 C   0  0  1  0  0  0  0  0  0  0  0  0
   15.1685  -24.6314   -1.0552 C   0  0  0  0  0  0  0  0  0  0  0  0
   13.8043  -25.2206   -1.0892 C   0  0  0  0  0  0  0  0  0  0  0  0
   12.7912  -24.4886   -0.2921 C   0  0  0  0  0  0  0  0  0  0  0  0
   12.2472  -24.8971    0.8864 N   0  0  0  0  0  0  0  0  0  0  0  0
   11.3407  -23.9795    1.2965 C   0  0  0  0  0  0  0  0  0  0  0  0
   11.3453  -23.0304    0.3660 N   0  0  0  0  0  0  0  0  0  0  0  0
   12.2114  -23.3118   -0.6046 C   0  0  0  0  0  0  0  0  0  0  0  0
   15.7123  -24.5453    0.3380 O   0  0  0  0  0  0  0  0  0  0  0  0
   16.2216  -25.6269    0.8436 N   0  0  0  0  0  0  0  0  0  0  0  0
   15.7426  -23.4275    1.1724 C   0  0  0  0  0  0  0  0  0  0  0  0
   15.2252  -22.1164    0.7419 C   0  0  0  0  0  0  0  0  0  0  0  0
   15.8606  -21.1164    1.6778 C   0  0  0  0  0  0  0  0  0  0  0  0
   16.1168  -21.8891    2.9500 C   0  0  2  0  0  0  0  0  0  0  0  0
   16.2148  -23.3504    2.5207 C   0  0  0  0  0  0  0  0  0  0  0  0
   15.3515  -24.0900    3.4886 O   0  0  0  0  0  0  0  0  0  0  0  0
   14.2521  -24.5413    3.0716 O   0  0  0  0  0  0  0  0  0  0  0  0
  2  1  1  0
  3  2  2  0
  4  2  1  0
  5  4  1  0
  6  5  1  0
  7  6  1  0
  8  7  1  0
  8  9  1  1
 10 12  1  0
 10  8  1  0
 11 10  2  0
 13 14  1  6
 13 12  1  0
 14 15  1  0
 15 19  1  0
 15 16  2  0
 16 17  1  0
 18 17  1  0
 19 18  2  0
 20 21  2  0
 20 13  1  0
 22 20  1  0
 23 22  1  0
 24 23  1  0
 24 25  1  0
 25 26  1  0
 26 22  1  0
 26 27  1  1
 28 27  2  0
 29 27  1  0
M  END
$$$$
