RHP.pdb
     RDKit          3D

 29 30  0  0  1  0  0  0  0  0999 V2000
   27.1946  -28.8324  -18.9706 N   0  0  0  0  0  0  0  0  0  0  0  0
   26.4073  -28.2396  -17.9440 C   0  0  0  0  0  0  0  0  0  0  0  0
   25.3971  -28.8473  -17.4675 N   0  0  0  0  0  0  0  0  0  0  0  0
   26.7542  -26.9446  -17.4406 N   0  0  0  0  0  0  0  0  0  0  0  0
   28.1347  -26.5295  -17.5576 C   0  0  0  0  0  0  0  0  0  0  0  0
   28.2951  -25.4821  -18.6422 C   0  0  0  0  0  0  0  0  0  0  0  0
   27.6489  -24.1716  -18.2373 C   0  0  0  0  0  0  0  0  0  0  0  0
   28.3597  -23.6924  -17.0098 C   0  0  2  0  0  0  0  0  0  0  0  0
   29.5256  -24.4656  -16.6896 N   0  0  0  0  0  0  0  0  0  0  0  0
   27.4569  -23.5419  -15.8294 C   0  0  0  0  0  0  0  0  0  0  0  0
   27.1744  -24.5878  -15.1917 O   0  0  0  0  0  0  0  0  0  0  0  0
   24.8340  -28.4272  -16.7227 N   0  0  0  0  0  0  0  0  0  0  0  0
   26.9239  -22.3191  -15.4116 C   0  0  1  0  0  0  0  0  0  0  0  0
   26.0283  -22.1682  -14.2383 C   0  0  0  0  0  0  0  0  0  0  0  0
   26.5246  -21.0871  -13.3472 C   0  0  0  0  0  0  0  0  0  0  0  0
   25.7106  -20.8633  -12.1287 C   0  0  0  0  0  0  0  0  0  0  0  0
   24.6114  -20.0673  -12.0314 N   0  0  0  0  0  0  0  0  0  0  0  0
   24.1567  -20.0951  -10.7568 C   0  0  0  0  0  0  0  0  0  0  0  0
   24.9823  -20.9032  -10.0994 N   0  0  0  0  0  0  0  0  0  0  0  0
   25.9296  -21.3811  -10.9028 C   0  0  0  0  0  0  0  0  0  0  0  0
   24.6684  -21.8665  -14.7896 O   0  0  0  0  0  0  0  0  0  0  0  0
   24.5968  -20.9905  -15.7448 N   0  0  0  0  0  0  0  0  0  0  0  0
   23.4493  -22.4214  -14.3992 C   0  0  0  0  0  0  0  0  0  0  0  0
   23.3576  -23.4362  -13.3344 C   0  0  0  0  0  0  0  0  0  0  0  0
   22.0228  -24.1092  -13.5467 C   0  0  0  0  0  0  0  0  0  0  0  0
   21.1636  -23.0589  -14.2100 C   0  0  2  0  0  0  0  0  0  0  0  0
   22.1438  -22.1110  -14.8956 C   0  0  0  0  0  0  0  0  0  0  0  0
   21.6804  -20.7438  -14.5151 O   0  0  0  0  0  0  0  0  0  0  0  0
   20.5761  -20.3476  -14.9732 O   0  0  0  0  0  0  0  0  0  0  0  0
  2  1  1  0
  3  2  2  0
  4  2  1  0
  5  4  1  0
  6  5  1  0
  7  6  1  0
  8  7  1  0
  8  9  1  1
 10 12  1  0
 10  8  1  0
 11 10  2  0
 13 14  1  6
 13 12  1  0
 14 15  1  0
 15 19  1  0
 15 16  2  0
 16 17  1  0
 18 17  1  0
 19 18  2  0
 20 21  2  0
 20 13  1  0
 22 20  1  0
 23 22  1  0
 24 23  1  0
 24 25  1  0
 25 26  1  0
 26 22  1  0
 26 27  1  1
 28 27  2  0
 29 27  1  0
M  END
$$$$
