RHP.pdb
     RDKit          3D

 29 30  0  0  1  0  0  0  0  0999 V2000
   15.8779  -13.2839  -23.8825 N   0  0  0  0  0  0  0  0  0  0  0  0
   15.0669  -13.5563  -22.7453 C   0  0  0  0  0  0  0  0  0  0  0  0
   13.8118  -13.7204  -22.8670 N   0  0  0  0  0  0  0  0  0  0  0  0
   15.6682  -13.6467  -21.4488 N   0  0  0  0  0  0  0  0  0  0  0  0
   17.0742  -13.3255  -21.3401 C   0  0  0  0  0  0  0  0  0  0  0  0
   17.5674  -13.5267  -19.9203 C   0  0  0  0  0  0  0  0  0  0  0  0
   19.0271  -13.1385  -19.7879 C   0  0  0  0  0  0  0  0  0  0  0  0
   19.4644  -13.5373  -18.4126 C   0  0  2  0  0  0  0  0  0  0  0  0
   19.1006  -14.8822  -18.0680 N   0  0  0  0  0  0  0  0  0  0  0  0
   19.0456  -12.5656  -17.3583 C   0  0  0  0  0  0  0  0  0  0  0  0
   17.9631  -12.8016  -16.7642 O   0  0  0  0  0  0  0  0  0  0  0  0
   13.2264  -13.9208  -22.0513 N   0  0  0  0  0  0  0  0  0  0  0  0
   19.7856  -11.4319  -17.0106 C   0  0  1  0  0  0  0  0  0  0  0  0
   19.3988  -10.4958  -15.9263 C   0  0  0  0  0  0  0  0  0  0  0  0
   20.0039  -10.9224  -14.6375 C   0  0  0  0  0  0  0  0  0  0  0  0
   19.7036  -10.0373  -13.4869 C   0  0  0  0  0  0  0  0  0  0  0  0
   18.6664  -10.1740  -12.6169 N   0  0  0  0  0  0  0  0  0  0  0  0
   18.7058   -9.1616  -11.7193 C   0  0  0  0  0  0  0  0  0  0  0  0
   19.7609   -8.4262  -12.0547 N   0  0  0  0  0  0  0  0  0  0  0  0
   20.3818   -8.9314  -13.1180 C   0  0  0  0  0  0  0  0  0  0  0  0
   19.8776   -9.1426  -16.3550 O   0  0  0  0  0  0  0  0  0  0  0  0
   21.0690   -9.0693  -16.8649 N   0  0  0  0  0  0  0  0  0  0  0  0
   19.1893   -7.9316  -16.2755 C   0  0  0  0  0  0  0  0  0  0  0  0
   17.8277   -7.8414  -15.7189 C   0  0  0  0  0  0  0  0  0  0  0  0
   17.2746   -6.5377  -16.2425 C   0  0  0  0  0  0  0  0  0  0  0  0
   18.4877   -5.6642  -16.4586 C   0  0  2  0  0  0  0  0  0  0  0  0
   19.6504   -6.6325  -16.6584 C   0  0  0  0  0  0  0  0  0  0  0  0
   20.7359   -6.1108  -15.7760 O   0  0  0  0  0  0  0  0  0  0  0  0
   21.0371   -6.7817  -14.7536 O   0  0  0  0  0  0  0  0  0  0  0  0
  2  1  1  0
  3  2  2  0
  4  2  1  0
  5  4  1  0
  6  5  1  0
  7  6  1  0
  8  7  1  0
  8  9  1  1
 10 12  1  0
 10  8  1  0
 11 10  2  0
 13 14  1  6
 13 12  1  0
 14 15  1  0
 15 19  1  0
 15 16  2  0
 16 17  1  0
 18 17  1  0
 19 18  2  0
 20 21  2  0
 20 13  1  0
 22 20  1  0
 23 22  1  0
 24 23  1  0
 24 25  1  0
 25 26  1  0
 26 22  1  0
 26 27  1  1
 28 27  2  0
 29 27  1  0
M  END
$$$$
