RHP.pdb
     RDKit          3D

 29 30  0  0  1  0  0  0  0  0999 V2000
   24.1916  -20.0729  -23.1907 N   0  0  0  0  0  0  0  0  0  0  0  0
   23.3950  -21.1756  -22.7725 C   0  0  0  0  0  0  0  0  0  0  0  0
   23.1220  -22.1217  -23.5770 N   0  0  0  0  0  0  0  0  0  0  0  0
   22.8939  -21.2223  -21.4318 N   0  0  0  0  0  0  0  0  0  0  0  0
   23.8426  -21.0339  -20.3565 C   0  0  0  0  0  0  0  0  0  0  0  0
   24.8106  -22.1985  -20.2782 C   0  0  0  0  0  0  0  0  0  0  0  0
   25.7961  -22.0154  -19.1406 C   0  0  0  0  0  0  0  0  0  0  0  0
   25.0997  -22.4379  -17.8843 C   0  0  2  0  0  0  0  0  0  0  0  0
   23.6688  -22.3856  -17.9822 N   0  0  0  0  0  0  0  0  0  0  0  0
   25.5956  -21.7242  -16.6694 C   0  0  0  0  0  0  0  0  0  0  0  0
   26.8251  -21.8094  -16.4213 O   0  0  0  0  0  0  0  0  0  0  0  0
   22.4989  -22.8849  -23.2989 N   0  0  0  0  0  0  0  0  0  0  0  0
   24.7735  -20.9833  -15.8156 C   0  0  1  0  0  0  0  0  0  0  0  0
   25.2775  -20.2005  -14.6603 C   0  0  0  0  0  0  0  0  0  0  0  0
   25.0206  -18.7514  -14.8689 C   0  0  0  0  0  0  0  0  0  0  0  0
   25.9689  -18.0782  -15.7881 C   0  0  0  0  0  0  0  0  0  0  0  0
   27.1094  -18.6148  -16.3008 N   0  0  0  0  0  0  0  0  0  0  0  0
   27.7239  -17.6903  -17.0751 C   0  0  0  0  0  0  0  0  0  0  0  0
   26.9527  -16.6089  -17.0223 N   0  0  0  0  0  0  0  0  0  0  0  0
   25.8867  -16.8147  -16.2527 C   0  0  0  0  0  0  0  0  0  0  0  0
   24.5652  -20.7330  -13.4548 O   0  0  0  0  0  0  0  0  0  0  0  0
   23.4290  -21.3288  -13.6526 N   0  0  0  0  0  0  0  0  0  0  0  0
   24.9796  -20.6695  -12.1241 C   0  0  0  0  0  0  0  0  0  0  0  0
   26.2716  -20.0766  -11.7352 C   0  0  0  0  0  0  0  0  0  0  0  0
   26.5552  -20.6223  -10.3562 C   0  0  0  0  0  0  0  0  0  0  0  0
   25.1935  -20.8991   -9.7644 C   0  0  1  0  0  0  0  0  0  0  0  0
   24.2685  -21.1038  -10.9611 C   0  0  0  0  0  0  0  0  0  0  0  0
   23.0677  -20.2689  -10.6609 O   0  0  0  0  0  0  0  0  0  0  0  0
   22.9378  -19.1800  -11.2803 O   0  0  0  0  0  0  0  0  0  0  0  0
  2  1  1  0
  3  2  2  0
  4  2  1  0
  5  4  1  0
  6  5  1  0
  7  6  1  0
  8  7  1  0
  8  9  1  6
 10 12  1  0
 10  8  1  0
 11 10  2  0
 13 14  1  6
 13 12  1  0
 14 15  1  0
 15 19  1  0
 15 16  2  0
 16 17  1  0
 18 17  1  0
 19 18  2  0
 20 21  2  0
 20 13  1  0
 22 20  1  0
 23 22  1  0
 24 23  1  0
 24 25  1  0
 25 26  1  0
 26 22  1  0
 26 27  1  6
 28 27  2  0
 29 27  1  0
M  END
$$$$
