TYM.pdb
     RDKit          3D

 28 28  0  0  1  0  0  0  0  0999 V2000
   10.2531  -20.2974   18.9232 C   0  0  0  0  0  0  0  0  0  0  0  0
   10.1815  -19.3186   20.0516 C   0  0  1  0  0  0  0  0  0  0  0  0
   11.1766  -19.5486   20.9925 O   0  0  0  0  0  0  0  0  0  0  0  0
   10.3289  -17.8953   19.5558 C   0  0  2  0  0  0  0  0  0  0  0  0
   11.6004  -17.7303   18.8606 N   0  0  0  0  0  0  0  0  0  0  0  0
   10.1675  -16.8893   20.6248 C   0  0  0  0  0  0  0  0  0  0  0  0
   11.2159  -16.3312   21.0565 O   0  0  0  0  0  0  0  0  0  0  0  0
    6.4674  -11.7428   26.9928 O   0  0  0  0  0  0  0  0  0  0  0  0
    6.7155  -12.6479   25.9680 C   0  0  0  0  0  0  0  0  0  0  0  0
    7.2556  -12.2306   24.7695 C   0  0  0  0  0  0  0  0  0  0  0  0
    7.5070  -13.1187   23.7441 C   0  0  0  0  0  0  0  0  0  0  0  0
    7.2333  -14.4675   23.8599 C   0  0  0  0  0  0  0  0  0  0  0  0
    7.4896  -15.4205   22.7751 C   0  0  0  0  0  0  0  0  0  0  0  0
    8.8990  -15.4717   22.2742 C   0  0  2  0  0  0  0  0  0  0  0  0
    8.9494  -16.4905   21.2109 N   0  0  0  0  0  0  0  0  0  0  0  0
    9.8450  -15.7756   23.3535 C   0  0  0  0  0  0  0  0  0  0  0  0
   10.8771  -15.0700   23.4733 O   0  0  0  0  0  0  0  0  0  0  0  0
    6.6897  -14.8806   25.0690 C   0  0  0  0  0  0  0  0  0  0  0  0
    6.4379  -13.9932   26.0952 C   0  0  0  0  0  0  0  0  0  0  0  0
   10.7123  -13.4736   29.9557 C   0  0  0  0  0  0  0  0  0  0  0  0
    9.5314  -14.1665   28.7865 S   0  0  0  0  0  0  0  0  0  0  0  0
   10.1562  -15.5417   27.8390 C   0  0  0  0  0  0  0  0  0  0  0  0
    9.6796  -15.6453   26.4364 C   0  0  0  0  0  0  0  0  0  0  0  0
   10.2094  -16.7889   25.6430 C   0  0  2  0  0  0  0  0  0  0  0  0
    9.6756  -16.8301   24.2915 N   0  0  0  0  0  0  0  0  0  0  0  0
    9.9845  -18.0739   26.3101 C   0  0  0  0  0  0  0  0  0  0  0  0
   10.8430  -18.5109   27.3086 O   0  0  0  0  0  0  0  0  0  0  0  0
    9.0150  -18.8473   26.0211 O   0  0  0  0  0  0  0  0  0  0  0  0
  2  4  1  0
  2  1  1  6
  3  2  1  0
  4  6  1  0
  4  5  1  1
  6  7  2  0
  9  8  1  0
  9 10  2  0
 11 10  1  0
 12 11  2  0
 13 12  1  0
 14 13  1  1
 15 14  1  0
 15  6  1  0
 16 14  1  0
 16 17  2  0
 18 19  2  0
 18 12  1  0
 19  9  1  0
 21 20  1  0
 21 22  1  0
 22 23  1  0
 24 23  1  1
 24 25  1  0
 24 26  1  0
 25 16  1  0
 26 28  2  0
 26 27  1  0
M  END
$$$$
