TYM.pdb
     RDKit          3D

 28 28  0  0  1  0  0  0  0  0999 V2000
    7.4524  -20.4825   21.8511 C   0  0  0  0  0  0  0  0  0  0  0  0
    6.3128  -20.2021   20.9243 C   0  0  1  0  0  0  0  0  0  0  0  0
    5.7844  -21.3718   20.3944 O   0  0  0  0  0  0  0  0  0  0  0  0
    5.1956  -19.4652   21.6329 C   0  0  2  0  0  0  0  0  0  0  0  0
    4.0441  -19.3206   20.7496 N   0  0  0  0  0  0  0  0  0  0  0  0
    5.6181  -18.1607   22.1814 C   0  0  0  0  0  0  0  0  0  0  0  0
    5.7441  -17.2040   21.3655 O   0  0  0  0  0  0  0  0  0  0  0  0
    8.7012  -11.8826   27.7959 O   0  0  0  0  0  0  0  0  0  0  0  0
    8.1038  -12.9938   27.2134 C   0  0  0  0  0  0  0  0  0  0  0  0
    8.8030  -14.1718   27.0532 C   0  0  0  0  0  0  0  0  0  0  0  0
    8.2219  -15.2823   26.4767 C   0  0  0  0  0  0  0  0  0  0  0  0
    6.9149  -15.2762   26.0302 C   0  0  0  0  0  0  0  0  0  0  0  0
    6.2878  -16.4477   25.4095 C   0  0  0  0  0  0  0  0  0  0  0  0
    6.5518  -16.6282   23.9475 C   0  0  2  0  0  0  0  0  0  0  0  0
    5.8944  -17.8806   23.5347 N   0  0  0  0  0  0  0  0  0  0  0  0
    7.9896  -16.6565   23.6576 C   0  0  0  0  0  0  0  0  0  0  0  0
    8.6434  -17.6943   23.9274 O   0  0  0  0  0  0  0  0  0  0  0  0
    6.2170  -14.0872   26.1943 C   0  0  0  0  0  0  0  0  0  0  0  0
    6.7972  -12.9759   26.7709 C   0  0  0  0  0  0  0  0  0  0  0  0
    7.1846  -12.3046   19.2780 C   0  0  0  0  0  0  0  0  0  0  0  0
    8.7388  -12.6692   20.1105 S   0  0  0  0  0  0  0  0  0  0  0  0
    8.9831  -14.3947   20.4876 C   0  0  0  0  0  0  0  0  0  0  0  0
   10.1743  -14.7265   21.3100 C   0  0  0  0  0  0  0  0  0  0  0  0
    9.9734  -15.7407   22.3819 C   0  0  2  0  0  0  0  0  0  0  0  0
    8.7105  -15.5748   23.0826 N   0  0  0  0  0  0  0  0  0  0  0  0
   11.0807  -15.7556   23.3413 C   0  0  0  0  0  0  0  0  0  0  0  0
   12.3775  -16.0100   22.9190 O   0  0  0  0  0  0  0  0  0  0  0  0
   10.9244  -15.5434   24.5872 O   0  0  0  0  0  0  0  0  0  0  0  0
  2  4  1  0
  2  1  1  1
  3  2  1  0
  4  6  1  0
  4  5  1  6
  6  7  2  0
  9  8  1  0
  9 10  2  0
 11 10  1  0
 12 11  2  0
 13 12  1  0
 14 13  1  1
 15 14  1  0
 15  6  1  0
 16 14  1  0
 16 17  2  0
 18 19  2  0
 18 12  1  0
 19  9  1  0
 21 20  1  0
 21 22  1  0
 22 23  1  0
 24 23  1  6
 24 25  1  0
 24 26  1  0
 25 16  1  0
 26 28  2  0
 26 27  1  0
M  END
$$$$
