TYM.pdb
     RDKit          3D

 28 28  0  0  1  0  0  0  0  0999 V2000
    9.7557  -13.8366   20.8347 C   0  0  0  0  0  0  0  0  0  0  0  0
    8.3832  -13.5237   20.3300 C   0  0  1  0  0  0  0  0  0  0  0  0
    8.4124  -13.0628   19.0204 O   0  0  0  0  0  0  0  0  0  0  0  0
    7.4888  -14.7449   20.3745 C   0  0  2  0  0  0  0  0  0  0  0  0
    6.2039  -14.4547   19.7483 N   0  0  0  0  0  0  0  0  0  0  0  0
    7.3115  -15.2842   21.7378 C   0  0  0  0  0  0  0  0  0  0  0  0
    6.5428  -14.6501   22.5149 O   0  0  0  0  0  0  0  0  0  0  0  0
    8.0784  -20.5291   28.9785 O   0  0  0  0  0  0  0  0  0  0  0  0
    8.0410  -19.9913   27.6977 C   0  0  0  0  0  0  0  0  0  0  0  0
    9.2020  -19.7801   26.9837 C   0  0  0  0  0  0  0  0  0  0  0  0
    9.1789  -19.2471   25.7114 C   0  0  0  0  0  0  0  0  0  0  0  0
    7.9985  -18.8972   25.0853 C   0  0  0  0  0  0  0  0  0  0  0  0
    7.9611  -18.3236   23.7362 C   0  0  0  0  0  0  0  0  0  0  0  0
    7.7541  -16.8431   23.6648 C   0  0  2  0  0  0  0  0  0  0  0  0
    7.9204  -16.4448   22.2560 N   0  0  0  0  0  0  0  0  0  0  0  0
    8.6873  -16.1244   24.5391 C   0  0  0  0  0  0  0  0  0  0  0  0
    9.8864  -16.0089   24.1836 O   0  0  0  0  0  0  0  0  0  0  0  0
    6.8337  -19.1124   25.8098 C   0  0  0  0  0  0  0  0  0  0  0  0
    6.8556  -19.6455   27.0824 C   0  0  0  0  0  0  0  0  0  0  0  0
    5.7277  -10.7368   25.7439 C   0  0  0  0  0  0  0  0  0  0  0  0
    6.6065  -11.7303   26.9613 S   0  0  0  0  0  0  0  0  0  0  0  0
    7.9884  -12.6453   26.3036 C   0  0  0  0  0  0  0  0  0  0  0  0
    8.6544  -13.5913   27.2346 C   0  0  0  0  0  0  0  0  0  0  0  0
    9.2622  -14.8036   26.6192 C   0  0  2  0  0  0  0  0  0  0  0  0
    8.3270  -15.5378   25.7827 N   0  0  0  0  0  0  0  0  0  0  0  0
    9.8457  -15.6978   27.6225 C   0  0  0  0  0  0  0  0  0  0  0  0
    9.3993  -17.0055   27.7479 O   0  0  0  0  0  0  0  0  0  0  0  0
   10.7715  -15.3388   28.4198 O   0  0  0  0  0  0  0  0  0  0  0  0
  2  4  1  0
  2  1  1  6
  3  2  1  0
  4  6  1  0
  4  5  1  1
  6  7  2  0
  9  8  1  0
  9 10  2  0
 11 10  1  0
 12 11  2  0
 13 12  1  0
 14 13  1  6
 15 14  1  0
 15  6  1  0
 16 14  1  0
 16 17  2  0
 18 19  2  0
 18 12  1  0
 19  9  1  0
 21 20  1  0
 21 22  1  0
 22 23  1  0
 24 23  1  1
 24 25  1  0
 24 26  1  0
 25 16  1  0
 26 28  2  0
 26 27  1  0
M  END
$$$$
