TYM.pdb
     RDKit          3D

 28 28  0  0  1  0  0  0  0  0999 V2000
    8.4710  -20.9458   20.5017 C   0  0  0  0  0  0  0  0  0  0  0  0
    8.9205  -19.6482   21.0939 C   0  0  1  0  0  0  0  0  0  0  0  0
   10.1305  -19.7824   21.7619 O   0  0  0  0  0  0  0  0  0  0  0  0
    9.0921  -18.5867   20.0275 C   0  0  2  0  0  0  0  0  0  0  0  0
   10.0483  -19.0310   19.0199 N   0  0  0  0  0  0  0  0  0  0  0  0
    9.4658  -17.2679   20.5771 C   0  0  0  0  0  0  0  0  0  0  0  0
   10.6674  -16.9028   20.4374 O   0  0  0  0  0  0  0  0  0  0  0  0
    5.8390  -13.8647   27.1876 O   0  0  0  0  0  0  0  0  0  0  0  0
    6.3280  -13.9541   25.8899 C   0  0  0  0  0  0  0  0  0  0  0  0
    6.8939  -12.8603   25.2692 C   0  0  0  0  0  0  0  0  0  0  0  0
    7.3833  -12.9355   23.9815 C   0  0  0  0  0  0  0  0  0  0  0  0
    7.3340  -14.1038   23.2464 C   0  0  0  0  0  0  0  0  0  0  0  0
    7.8445  -14.1949   21.8745 C   0  0  0  0  0  0  0  0  0  0  0  0
    9.0619  -15.0453   21.6891 C   0  0  2  0  0  0  0  0  0  0  0  0
    8.6049  -16.3738   21.2448 N   0  0  0  0  0  0  0  0  0  0  0  0
    9.8514  -15.1346   22.9223 C   0  0  0  0  0  0  0  0  0  0  0  0
   10.3331  -14.0834   23.4126 O   0  0  0  0  0  0  0  0  0  0  0  0
    6.7629  -15.2009   23.8774 C   0  0  0  0  0  0  0  0  0  0  0  0
    6.2732  -15.1268   25.1653 C   0  0  0  0  0  0  0  0  0  0  0  0
   10.0599  -12.9846   28.9041 C   0  0  0  0  0  0  0  0  0  0  0  0
   11.0858  -14.0628   27.8909 S   0  0  0  0  0  0  0  0  0  0  0  0
   10.2663  -15.5446   27.3324 C   0  0  0  0  0  0  0  0  0  0  0  0
    9.8193  -15.5556   25.9163 C   0  0  0  0  0  0  0  0  0  0  0  0
   10.6194  -16.3920   24.9791 C   0  0  2  0  0  0  0  0  0  0  0  0
   10.1159  -16.3466   23.6161 N   0  0  0  0  0  0  0  0  0  0  0  0
   10.7203  -17.7824   25.4300 C   0  0  0  0  0  0  0  0  0  0  0  0
   10.1630  -18.8095   24.6821 O   0  0  0  0  0  0  0  0  0  0  0  0
   11.3081  -18.1235   26.5070 O   0  0  0  0  0  0  0  0  0  0  0  0
  2  4  1  0
  2  1  1  6
  3  2  1  0
  4  6  1  0
  4  5  1  6
  6  7  2  0
  9  8  1  0
  9 10  2  0
 11 10  1  0
 12 11  2  0
 13 12  1  0
 14 13  1  1
 15 14  1  0
 15  6  1  0
 16 14  1  0
 16 17  2  0
 18 19  2  0
 18 12  1  0
 19  9  1  0
 21 20  1  0
 21 22  1  0
 22 23  1  0
 24 23  1  1
 24 25  1  0
 24 26  1  0
 25 16  1  0
 26 28  2  0
 26 27  1  0
M  END
$$$$
