TYM.pdb
     RDKit          3D

 28 28  0  0  1  0  0  0  0  0999 V2000
    7.1977  -20.6991   19.0976 C   0  0  0  0  0  0  0  0  0  0  0  0
    7.9472  -20.0275   20.2039 C   0  0  1  0  0  0  0  0  0  0  0  0
    9.1162  -20.7084   20.5171 O   0  0  0  0  0  0  0  0  0  0  0  0
    8.3200  -18.6074   19.8331 C   0  0  2  0  0  0  0  0  0  0  0  0
    9.2374  -18.6041   18.6993 N   0  0  0  0  0  0  0  0  0  0  0  0
    8.8669  -17.8365   20.9679 C   0  0  0  0  0  0  0  0  0  0  0  0
   10.1233  -17.7192   21.0350 O   0  0  0  0  0  0  0  0  0  0  0  0
    7.8787  -11.8387   18.5152 O   0  0  0  0  0  0  0  0  0  0  0  0
    7.8922  -12.6447   19.6472 C   0  0  0  0  0  0  0  0  0  0  0  0
    9.0009  -12.6980   20.4657 C   0  0  0  0  0  0  0  0  0  0  0  0
    9.0275  -13.4937   21.5924 C   0  0  0  0  0  0  0  0  0  0  0  0
    7.9513  -14.2769   21.9613 C   0  0  0  0  0  0  0  0  0  0  0  0
    7.9695  -15.1321   23.1526 C   0  0  0  0  0  0  0  0  0  0  0  0
    8.7579  -16.3984   23.0317 C   0  0  2  0  0  0  0  0  0  0  0  0
    8.1167  -17.2159   21.9868 N   0  0  0  0  0  0  0  0  0  0  0  0
    8.8249  -17.1170   24.3090 C   0  0  0  0  0  0  0  0  0  0  0  0
    7.7574  -17.5075   24.8431 O   0  0  0  0  0  0  0  0  0  0  0  0
    6.8386  -14.2186   21.1327 C   0  0  0  0  0  0  0  0  0  0  0  0
    6.8110  -13.4230   20.0057 C   0  0  0  0  0  0  0  0  0  0  0  0
   15.1811  -19.1972   24.1989 C   0  0  0  0  0  0  0  0  0  0  0  0
   13.8852  -19.7270   25.3309 S   0  0  0  0  0  0  0  0  0  0  0  0
   12.4393  -18.6837   25.3324 C   0  0  0  0  0  0  0  0  0  0  0  0
   11.3143  -19.1191   26.1985 C   0  0  0  0  0  0  0  0  0  0  0  0
   10.0938  -18.2661   26.1720 C   0  0  2  0  0  0  0  0  0  0  0  0
   10.0326  -17.4093   24.9992 N   0  0  0  0  0  0  0  0  0  0  0  0
    9.9573  -17.4610   27.3885 C   0  0  0  0  0  0  0  0  0  0  0  0
    9.7592  -18.0695   28.6195 O   0  0  0  0  0  0  0  0  0  0  0  0
   10.0093  -16.1886   27.3900 O   0  0  0  0  0  0  0  0  0  0  0  0
  2  4  1  0
  2  1  1  6
  3  2  1  0
  4  6  1  0
  4  5  1  6
  6  7  2  0
  9  8  1  0
  9 10  2  0
 11 10  1  0
 12 11  2  0
 13 12  1  0
 14 13  1  1
 15 14  1  0
 15  6  1  0
 16 14  1  0
 16 17  2  0
 18 19  2  0
 18 12  1  0
 19  9  1  0
 21 20  1  0
 21 22  1  0
 22 23  1  0
 24 23  1  1
 24 25  1  0
 24 26  1  0
 25 16  1  0
 26 28  2  0
 26 27  1  0
M  END
$$$$
