TYM.pdb
     RDKit          3D

 28 28  0  0  1  0  0  0  0  0999 V2000
    8.0689  -21.1940   21.3385 C   0  0  0  0  0  0  0  0  0  0  0  0
    8.8952  -20.0329   21.7920 C   0  0  1  0  0  0  0  0  0  0  0  0
   10.1857  -20.4224   22.1255 O   0  0  0  0  0  0  0  0  0  0  0  0
    8.9919  -18.9724   20.7153 C   0  0  2  0  0  0  0  0  0  0  0  0
    9.5769  -19.5335   19.5028 N   0  0  0  0  0  0  0  0  0  0  0  0
    9.7214  -17.7656   21.1541 C   0  0  0  0  0  0  0  0  0  0  0  0
   10.8552  -17.5556   20.6371 O   0  0  0  0  0  0  0  0  0  0  0  0
    6.9974  -12.9376   17.3016 O   0  0  0  0  0  0  0  0  0  0  0  0
    7.5054  -13.3097   18.5403 C   0  0  0  0  0  0  0  0  0  0  0  0
    6.6632  -13.6001   19.5932 C   0  0  0  0  0  0  0  0  0  0  0  0
    7.1544  -13.9708   20.8280 C   0  0  0  0  0  0  0  0  0  0  0  0
    8.5092  -14.0712   21.0772 C   0  0  0  0  0  0  0  0  0  0  0  0
    9.0439  -14.4576   22.3869 C   0  0  0  0  0  0  0  0  0  0  0  0
   10.0248  -15.5879   22.3809 C   0  0  2  0  0  0  0  0  0  0  0  0
    9.2702  -16.8216   22.0982 N   0  0  0  0  0  0  0  0  0  0  0  0
   10.7487  -15.6817   23.6534 C   0  0  0  0  0  0  0  0  0  0  0  0
   11.4942  -14.7322   23.9996 O   0  0  0  0  0  0  0  0  0  0  0  0
    9.3511  -13.7774   20.0129 C   0  0  0  0  0  0  0  0  0  0  0  0
    8.8610  -13.4065   18.7775 C   0  0  0  0  0  0  0  0  0  0  0  0
    9.5509  -13.4945   30.1936 C   0  0  0  0  0  0  0  0  0  0  0  0
    9.9773  -13.8492   28.4807 S   0  0  0  0  0  0  0  0  0  0  0  0
    9.5828  -15.5062   27.9534 C   0  0  0  0  0  0  0  0  0  0  0  0
    9.6026  -15.7533   26.4892 C   0  0  0  0  0  0  0  0  0  0  0  0
   10.6762  -16.6553   25.9876 C   0  0  2  0  0  0  0  0  0  0  0  0
   10.6662  -16.7896   24.5401 N   0  0  0  0  0  0  0  0  0  0  0  0
   10.6219  -17.9787   26.6141 C   0  0  0  0  0  0  0  0  0  0  0  0
   10.4245  -19.1164   25.8450 O   0  0  0  0  0  0  0  0  0  0  0  0
   10.7476  -18.1602   27.8682 O   0  0  0  0  0  0  0  0  0  0  0  0
  2  4  1  0
  2  1  1  6
  3  2  1  0
  4  6  1  0
  4  5  1  6
  6  7  2  0
  9  8  1  0
  9 10  2  0
 11 10  1  0
 12 11  2  0
 13 12  1  0
 14 13  1  1
 15 14  1  0
 15  6  1  0
 16 14  1  0
 16 17  2  0
 18 19  2  0
 18 12  1  0
 19  9  1  0
 21 20  1  0
 21 22  1  0
 22 23  1  0
 24 23  1  1
 24 25  1  0
 24 26  1  0
 25 16  1  0
 26 28  2  0
 26 27  1  0
M  END
$$$$
