TYM.pdb
     RDKit          3D

 28 28  0  0  1  0  0  0  0  0999 V2000
    9.2020  -16.3340   17.9260 C   0  0  0  0  0  0  0  0  0  0  0  0
    9.3279  -14.8999   17.5211 C   0  0  1  0  0  0  0  0  0  0  0  0
    9.1369  -14.7350   16.1556 O   0  0  0  0  0  0  0  0  0  0  0  0
    8.3155  -14.0338   18.2412 C   0  0  2  0  0  0  0  0  0  0  0  0
    8.3492  -12.6731   17.7173 N   0  0  0  0  0  0  0  0  0  0  0  0
    8.4802  -14.0479   19.7087 C   0  0  0  0  0  0  0  0  0  0  0  0
    9.4016  -13.3321   20.1939 O   0  0  0  0  0  0  0  0  0  0  0  0
    6.6744  -13.6411   28.3404 O   0  0  0  0  0  0  0  0  0  0  0  0
    6.6535  -13.8575   26.9679 C   0  0  0  0  0  0  0  0  0  0  0  0
    6.3933  -15.1098   26.4520 C   0  0  0  0  0  0  0  0  0  0  0  0
    6.3694  -15.3382   25.0917 C   0  0  0  0  0  0  0  0  0  0  0  0
    6.6035  -14.3313   24.1758 C   0  0  0  0  0  0  0  0  0  0  0  0
    6.5877  -14.5626   22.7277 C   0  0  0  0  0  0  0  0  0  0  0  0
    7.9282  -14.7012   22.0768 C   0  0  2  0  0  0  0  0  0  0  0  0
    7.7029  -14.7866   20.6232 N   0  0  0  0  0  0  0  0  0  0  0  0
    8.6528  -15.8745   22.5771 C   0  0  0  0  0  0  0  0  0  0  0  0
    8.0157  -16.9348   22.7947 O   0  0  0  0  0  0  0  0  0  0  0  0
    6.8649  -13.0733   24.7020 C   0  0  0  0  0  0  0  0  0  0  0  0
    6.8890  -12.8436   26.0625 C   0  0  0  0  0  0  0  0  0  0  0  0
   11.0131  -13.8570   29.2135 C   0  0  0  0  0  0  0  0  0  0  0  0
   10.1821  -13.7992   27.6175 S   0  0  0  0  0  0  0  0  0  0  0  0
   10.5823  -15.1553   26.5312 C   0  0  0  0  0  0  0  0  0  0  0  0
   10.0816  -15.0517   25.1370 C   0  0  0  0  0  0  0  0  0  0  0  0
   10.6096  -16.0546   24.1709 C   0  0  2  0  0  0  0  0  0  0  0  0
   10.0498  -15.8997   22.8382 N   0  0  0  0  0  0  0  0  0  0  0  0
   10.4136  -17.4287   24.6402 C   0  0  0  0  0  0  0  0  0  0  0  0
    9.1434  -17.9853   24.6842 O   0  0  0  0  0  0  0  0  0  0  0  0
   11.3703  -18.1747   25.0271 O   0  0  0  0  0  0  0  0  0  0  0  0
  2  4  1  0
  2  1  1  6
  3  2  1  0
  4  6  1  0
  4  5  1  6
  6  7  2  0
  9  8  1  0
  9 10  2  0
 11 10  1  0
 12 11  2  0
 13 12  1  0
 14 13  1  1
 15 14  1  0
 15  6  1  0
 16 14  1  0
 16 17  2  0
 18 19  2  0
 18 12  1  0
 19  9  1  0
 21 20  1  0
 21 22  1  0
 22 23  1  0
 24 23  1  1
 24 25  1  0
 24 26  1  0
 25 16  1  0
 26 28  2  0
 26 27  1  0
M  END
$$$$
