TYM.pdb
     RDKit          3D

 28 28  0  0  1  0  0  0  0  0999 V2000
   10.2055  -20.5271   19.8696 C   0  0  0  0  0  0  0  0  0  0  0  0
   10.2401  -19.3959   20.8473 C   0  0  1  0  0  0  0  0  0  0  0  0
   11.4699  -19.3095   21.4864 O   0  0  0  0  0  0  0  0  0  0  0  0
    9.9753  -18.0703   20.1648 C   0  0  2  0  0  0  0  0  0  0  0  0
   11.0051  -17.7990   19.1683 N   0  0  0  0  0  0  0  0  0  0  0  0
    9.8378  -16.9470   21.1136 C   0  0  0  0  0  0  0  0  0  0  0  0
   10.8259  -16.1687   21.2351 O   0  0  0  0  0  0  0  0  0  0  0  0
    6.3137  -11.2462   27.0843 O   0  0  0  0  0  0  0  0  0  0  0  0
    6.5390  -12.2245   26.1233 C   0  0  0  0  0  0  0  0  0  0  0  0
    6.1335  -13.5265   26.3292 C   0  0  0  0  0  0  0  0  0  0  0  0
    6.3508  -14.5072   25.3835 C   0  0  0  0  0  0  0  0  0  0  0  0
    6.9830  -14.2413   24.1847 C   0  0  0  0  0  0  0  0  0  0  0  0
    7.2260  -15.2762   23.1744 C   0  0  0  0  0  0  0  0  0  0  0  0
    8.6574  -15.4887   22.7928 C   0  0  2  0  0  0  0  0  0  0  0  0
    8.7036  -16.6594   21.8991 N   0  0  0  0  0  0  0  0  0  0  0  0
    9.5081  -15.6807   23.9724 C   0  0  0  0  0  0  0  0  0  0  0  0
    9.7052  -14.7094   24.7438 O   0  0  0  0  0  0  0  0  0  0  0  0
    7.3887  -12.9286   23.9842 C   0  0  0  0  0  0  0  0  0  0  0  0
    7.1718  -11.9469   24.9293 C   0  0  0  0  0  0  0  0  0  0  0  0
   10.3251  -12.9497   28.9362 C   0  0  0  0  0  0  0  0  0  0  0  0
   10.6500  -14.6907   28.6124 S   0  0  0  0  0  0  0  0  0  0  0  0
   10.0800  -15.2612   27.0221 C   0  0  0  0  0  0  0  0  0  0  0  0
   10.2240  -16.7146   26.7539 C   0  0  0  0  0  0  0  0  0  0  0  0
   10.9479  -17.0861   25.5065 C   0  0  2  0  0  0  0  0  0  0  0  0
   10.1374  -16.9089   24.3128 N   0  0  0  0  0  0  0  0  0  0  0  0
   11.4707  -18.4538   25.5589 C   0  0  0  0  0  0  0  0  0  0  0  0
   12.5441  -18.7685   26.3797 O   0  0  0  0  0  0  0  0  0  0  0  0
   10.9861  -19.4105   24.8721 O   0  0  0  0  0  0  0  0  0  0  0  0
  2  4  1  0
  2  1  1  6
  3  2  1  0
  4  6  1  0
  4  5  1  6
  6  7  2  0
  9  8  1  0
  9 10  2  0
 11 10  1  0
 12 11  2  0
 13 12  1  0
 14 13  1  1
 15 14  1  0
 15  6  1  0
 16 14  1  0
 16 17  2  0
 18 19  2  0
 18 12  1  0
 19  9  1  0
 21 20  1  0
 21 22  1  0
 22 23  1  0
 24 23  1  1
 24 25  1  0
 24 26  1  0
 25 16  1  0
 26 28  2  0
 26 27  1  0
M  END
$$$$
