TYM.pdb
     RDKit          3D

 28 28  0  0  1  0  0  0  0  0999 V2000
   10.7970  -20.2897   19.1761 C   0  0  0  0  0  0  0  0  0  0  0  0
   10.6751  -19.3158   20.3044 C   0  0  1  0  0  0  0  0  0  0  0  0
   11.7293  -19.4360   21.2002 O   0  0  0  0  0  0  0  0  0  0  0  0
   10.6530  -17.8883   19.7993 C   0  0  2  0  0  0  0  0  0  0  0  0
   11.8917  -17.5818   19.0930 N   0  0  0  0  0  0  0  0  0  0  0  0
   10.3840  -16.9008   20.8639 C   0  0  0  0  0  0  0  0  0  0  0  0
   11.3777  -16.2916   21.3519 O   0  0  0  0  0  0  0  0  0  0  0  0
    6.0065  -11.6122   26.6662 O   0  0  0  0  0  0  0  0  0  0  0  0
    6.3722  -12.5730   25.7312 C   0  0  0  0  0  0  0  0  0  0  0  0
    7.0211  -12.2179   24.5672 C   0  0  0  0  0  0  0  0  0  0  0  0
    7.3899  -13.1617   23.6308 C   0  0  0  0  0  0  0  0  0  0  0  0
    7.1312  -14.5070   23.8060 C   0  0  0  0  0  0  0  0  0  0  0  0
    7.5119  -15.5191   22.8153 C   0  0  0  0  0  0  0  0  0  0  0  0
    8.9523  -15.5217   22.4092 C   0  0  2  0  0  0  0  0  0  0  0  0
    9.1181  -16.5715   21.3886 N   0  0  0  0  0  0  0  0  0  0  0  0
    9.8369  -15.7461   23.5578 C   0  0  0  0  0  0  0  0  0  0  0  0
   10.8647  -15.0349   23.6812 O   0  0  0  0  0  0  0  0  0  0  0  0
    6.4776  -14.8574   24.9799 C   0  0  0  0  0  0  0  0  0  0  0  0
    6.1084  -13.9143   25.9171 C   0  0  0  0  0  0  0  0  0  0  0  0
   11.1885  -12.9430   28.0829 C   0  0  0  0  0  0  0  0  0  0  0  0
   10.3006  -14.3227   28.8242 S   0  0  0  0  0  0  0  0  0  0  0  0
    9.8795  -15.6247   27.6811 C   0  0  0  0  0  0  0  0  0  0  0  0
   10.7673  -15.7768   26.5005 C   0  0  0  0  0  0  0  0  0  0  0  0
   10.5368  -16.9796   25.6531 C   0  0  2  0  0  0  0  0  0  0  0  0
    9.6114  -16.7280   24.5606 N   0  0  0  0  0  0  0  0  0  0  0  0
   10.0829  -18.1294   26.4396 C   0  0  0  0  0  0  0  0  0  0  0  0
    8.8555  -18.7221   26.1802 O   0  0  0  0  0  0  0  0  0  0  0  0
   10.7676  -18.6399   27.3843 O   0  0  0  0  0  0  0  0  0  0  0  0
  2  4  1  0
  2  1  1  6
  3  2  1  0
  4  6  1  0
  4  5  1  1
  6  7  2  0
  9  8  1  0
  9 10  2  0
 11 10  1  0
 12 11  2  0
 13 12  1  0
 14 13  1  1
 15 14  1  0
 15  6  1  0
 16 14  1  0
 16 17  2  0
 18 19  2  0
 18 12  1  0
 19  9  1  0
 21 20  1  0
 21 22  1  0
 22 23  1  0
 24 23  1  1
 24 25  1  0
 24 26  1  0
 25 16  1  0
 26 28  2  0
 26 27  1  0
M  END
$$$$
