TYM.pdb
     RDKit          3D

 28 28  0  0  1  0  0  0  0  0999 V2000
    7.8304  -13.8964   19.6471 C   0  0  0  0  0  0  0  0  0  0  0  0
    8.1346  -14.5831   20.9403 C   0  0  1  0  0  0  0  0  0  0  0  0
    7.2177  -15.5896   21.2133 O   0  0  0  0  0  0  0  0  0  0  0  0
    9.5160  -15.2035   20.9223 C   0  0  2  0  0  0  0  0  0  0  0  0
    9.6099  -16.2001   19.8617 N   0  0  0  0  0  0  0  0  0  0  0  0
    9.9144  -15.7693   22.2269 C   0  0  0  0  0  0  0  0  0  0  0  0
    9.8539  -17.0249   22.3552 O   0  0  0  0  0  0  0  0  0  0  0  0
   11.6403  -16.2141   31.0191 O   0  0  0  0  0  0  0  0  0  0  0  0
   11.5222  -15.8376   29.6867 C   0  0  0  0  0  0  0  0  0  0  0  0
   10.9801  -14.6176   29.3405 C   0  0  0  0  0  0  0  0  0  0  0  0
   10.8573  -14.2315   28.0218 C   0  0  0  0  0  0  0  0  0  0  0  0
   11.2681  -15.0407   26.9805 C   0  0  0  0  0  0  0  0  0  0  0  0
   11.1368  -14.6448   25.5746 C   0  0  0  0  0  0  0  0  0  0  0  0
   10.5541  -15.6765   24.6604 C   0  0  2  0  0  0  0  0  0  0  0  0
   10.3586  -15.0380   23.3469 N   0  0  0  0  0  0  0  0  0  0  0  0
    9.2957  -16.2161   25.1870 C   0  0  0  0  0  0  0  0  0  0  0  0
    9.3373  -17.0421   26.1322 O   0  0  0  0  0  0  0  0  0  0  0  0
   11.8127  -16.2674   27.3362 C   0  0  0  0  0  0  0  0  0  0  0  0
   11.9361  -16.6546   28.6549 C   0  0  0  0  0  0  0  0  0  0  0  0
    6.5076  -11.2823   27.0203 C   0  0  0  0  0  0  0  0  0  0  0  0
    5.8807  -12.5734   25.9334 S   0  0  0  0  0  0  0  0  0  0  0  0
    6.2827  -14.2309   26.4534 C   0  0  0  0  0  0  0  0  0  0  0  0
    5.7887  -15.3308   25.5865 C   0  0  0  0  0  0  0  0  0  0  0  0
    6.7728  -16.3964   25.2488 C   0  0  2  0  0  0  0  0  0  0  0  0
    8.0084  -15.8654   24.6969 N   0  0  0  0  0  0  0  0  0  0  0  0
    6.2094  -17.4000   24.3421 C   0  0  0  0  0  0  0  0  0  0  0  0
    6.8427  -17.7058   23.1461 O   0  0  0  0  0  0  0  0  0  0  0  0
    5.1330  -18.0341   24.5888 O   0  0  0  0  0  0  0  0  0  0  0  0
  2  4  1  0
  2  1  1  6
  3  2  1  0
  4  6  1  0
  4  5  1  6
  6  7  2  0
  9  8  1  0
  9 10  2  0
 11 10  1  0
 12 11  2  0
 13 12  1  0
 14 13  1  1
 15 14  1  0
 15  6  1  0
 16 14  1  0
 16 17  2  0
 18 19  2  0
 18 12  1  0
 19  9  1  0
 21 20  1  0
 21 22  1  0
 22 23  1  0
 24 23  1  6
 24 25  1  0
 24 26  1  0
 25 16  1  0
 26 28  2  0
 26 27  1  0
M  END
$$$$
