TYM.pdb
     RDKit          3D

 28 28  0  0  1  0  0  0  0  0999 V2000
   10.7773  -17.7542   19.5681 C   0  0  0  0  0  0  0  0  0  0  0  0
    9.8099  -17.6179   18.4358 C   0  0  1  0  0  0  0  0  0  0  0  0
   10.2766  -18.2415   17.2862 O   0  0  0  0  0  0  0  0  0  0  0  0
    8.4670  -18.2255   18.7832 C   0  0  2  0  0  0  0  0  0  0  0  0
    7.5539  -18.1172   17.6510 N   0  0  0  0  0  0  0  0  0  0  0  0
    7.8721  -17.6550   20.0086 C   0  0  0  0  0  0  0  0  0  0  0  0
    7.3376  -16.5139   19.9145 O   0  0  0  0  0  0  0  0  0  0  0  0
    1.8046  -20.1551   20.0388 O   0  0  0  0  0  0  0  0  0  0  0  0
    2.9052  -19.7603   20.7898 C   0  0  0  0  0  0  0  0  0  0  0  0
    4.1013  -20.4419   20.7061 C   0  0  0  0  0  0  0  0  0  0  0  0
    5.2016  -20.0605   21.4459 C   0  0  0  0  0  0  0  0  0  0  0  0
    5.1667  -18.9809   22.3067 C   0  0  0  0  0  0  0  0  0  0  0  0
    6.3272  -18.5696   23.1036 C   0  0  0  0  0  0  0  0  0  0  0  0
    7.2525  -17.5928   22.4482 C   0  0  2  0  0  0  0  0  0  0  0  0
    7.8434  -18.2661   21.2783 N   0  0  0  0  0  0  0  0  0  0  0  0
    8.2873  -17.1231   23.3759 C   0  0  0  0  0  0  0  0  0  0  0  0
    8.8420  -17.9529   24.1381 O   0  0  0  0  0  0  0  0  0  0  0  0
    3.9596  -18.2995   22.3861 C   0  0  0  0  0  0  0  0  0  0  0  0
    2.8585  -18.6801   21.6466 C   0  0  0  0  0  0  0  0  0  0  0  0
    7.2928  -10.7839   27.4045 C   0  0  0  0  0  0  0  0  0  0  0  0
    6.5316  -12.0896   26.4261 S   0  0  0  0  0  0  0  0  0  0  0  0
    7.4850  -13.5940   26.3399 C   0  0  0  0  0  0  0  0  0  0  0  0
    7.5580  -14.2518   25.0106 C   0  0  0  0  0  0  0  0  0  0  0  0
    8.7858  -15.0488   24.7362 C   0  0  2  0  0  0  0  0  0  0  0  0
    8.7164  -15.7717   23.4769 N   0  0  0  0  0  0  0  0  0  0  0  0
    9.0982  -15.9739   25.8286 C   0  0  0  0  0  0  0  0  0  0  0  0
    8.3059  -17.0897   26.0573 O   0  0  0  0  0  0  0  0  0  0  0  0
   10.0876  -15.8139   26.6141 O   0  0  0  0  0  0  0  0  0  0  0  0
  2  4  1  0
  2  1  1  1
  3  2  1  0
  4  6  1  0
  4  5  1  6
  6  7  2  0
  9  8  1  0
  9 10  2  0
 11 10  1  0
 12 11  2  0
 13 12  1  0
 14 13  1  1
 15 14  1  0
 15  6  1  0
 16 14  1  0
 16 17  2  0
 18 19  2  0
 18 12  1  0
 19  9  1  0
 21 20  1  0
 21 22  1  0
 22 23  1  0
 24 23  1  1
 24 25  1  0
 24 26  1  0
 25 16  1  0
 26 28  2  0
 26 27  1  0
M  END
$$$$
