TYM.pdb
     RDKit          3D

 28 28  0  0  1  0  0  0  0  0999 V2000
    5.9090  -20.0200   21.4379 C   0  0  0  0  0  0  0  0  0  0  0  0
    7.0439  -19.1612   21.8973 C   0  0  1  0  0  0  0  0  0  0  0  0
    8.0444  -19.9138   22.4982 O   0  0  0  0  0  0  0  0  0  0  0  0
    7.6621  -18.4019   20.7420 C   0  0  2  0  0  0  0  0  0  0  0  0
    8.2201  -19.3310   19.7660 N   0  0  0  0  0  0  0  0  0  0  0  0
    8.6666  -17.4086   21.1724 C   0  0  0  0  0  0  0  0  0  0  0  0
    9.8830  -17.7057   21.0027 O   0  0  0  0  0  0  0  0  0  0  0  0
    7.6608  -13.3434   16.2202 O   0  0  0  0  0  0  0  0  0  0  0  0
    8.0146  -13.4724   17.5579 C   0  0  0  0  0  0  0  0  0  0  0  0
    7.0586  -13.4283   18.5510 C   0  0  0  0  0  0  0  0  0  0  0  0
    7.3963  -13.5552   19.8826 C   0  0  0  0  0  0  0  0  0  0  0  0
    8.7031  -13.7325   20.2931 C   0  0  0  0  0  0  0  0  0  0  0  0
    9.0756  -13.8619   21.7056 C   0  0  0  0  0  0  0  0  0  0  0  0
    9.4764  -15.2339   22.1491 C   0  0  2  0  0  0  0  0  0  0  0  0
    8.3954  -16.1548   21.7561 N   0  0  0  0  0  0  0  0  0  0  0  0
    9.7243  -15.2835   23.5942 C   0  0  0  0  0  0  0  0  0  0  0  0
   10.7030  -14.6524   24.0647 O   0  0  0  0  0  0  0  0  0  0  0  0
    9.6602  -13.7758   19.2881 C   0  0  0  0  0  0  0  0  0  0  0  0
    9.3237  -13.6491   17.9560 C   0  0  0  0  0  0  0  0  0  0  0  0
    6.3541  -11.3521   26.9472 C   0  0  0  0  0  0  0  0  0  0  0  0
    6.4382  -13.1379   27.1605 S   0  0  0  0  0  0  0  0  0  0  0  0
    7.9538  -13.8765   26.5803 C   0  0  0  0  0  0  0  0  0  0  0  0
    8.0617  -15.3513   26.7168 C   0  0  0  0  0  0  0  0  0  0  0  0
    9.1599  -16.0053   25.9525 C   0  0  2  0  0  0  0  0  0  0  0  0
    8.9226  -16.0070   24.5183 N   0  0  0  0  0  0  0  0  0  0  0  0
    9.4198  -17.3697   26.4191 C   0  0  0  0  0  0  0  0  0  0  0  0
    9.8618  -17.6011   27.7138 O   0  0  0  0  0  0  0  0  0  0  0  0
    9.2617  -18.3980   25.6847 O   0  0  0  0  0  0  0  0  0  0  0  0
  2  4  1  0
  2  1  1  6
  3  2  1  0
  4  6  1  0
  4  5  1  6
  6  7  2  0
  9  8  1  0
  9 10  2  0
 11 10  1  0
 12 11  2  0
 13 12  1  0
 14 13  1  1
 15 14  1  0
 15  6  1  0
 16 14  1  0
 16 17  2  0
 18 19  2  0
 18 12  1  0
 19  9  1  0
 21 20  1  0
 21 22  1  0
 22 23  1  0
 24 23  1  1
 24 25  1  0
 24 26  1  0
 25 16  1  0
 26 28  2  0
 26 27  1  0
M  END
$$$$
