TYM.pdb
     RDKit          3D

 28 28  0  0  1  0  0  0  0  0999 V2000
    4.9585  -19.7789   22.3595 C   0  0  0  0  0  0  0  0  0  0  0  0
    6.2500  -19.0565   22.5754 C   0  0  1  0  0  0  0  0  0  0  0  0
    7.2305  -19.9008   23.0795 O   0  0  0  0  0  0  0  0  0  0  0  0
    6.7686  -18.4585   21.2844 C   0  0  2  0  0  0  0  0  0  0  0  0
    7.0382  -19.5108   20.3112 N   0  0  0  0  0  0  0  0  0  0  0  0
    7.9491  -17.5929   21.4795 C   0  0  0  0  0  0  0  0  0  0  0  0
    9.0826  -18.0998   21.2451 O   0  0  0  0  0  0  0  0  0  0  0  0
    7.5162  -13.0879   16.4137 O   0  0  0  0  0  0  0  0  0  0  0  0
    7.8676  -13.3358   17.7351 C   0  0  0  0  0  0  0  0  0  0  0  0
    7.1489  -12.7839   18.7748 C   0  0  0  0  0  0  0  0  0  0  0  0
    7.4870  -13.0221   20.0910 C   0  0  0  0  0  0  0  0  0  0  0  0
    8.5580  -13.8219   20.4388 C   0  0  0  0  0  0  0  0  0  0  0  0
    8.9317  -14.0773   21.8338 C   0  0  0  0  0  0  0  0  0  0  0  0
    9.1732  -15.5106   22.1901 C   0  0  2  0  0  0  0  0  0  0  0  0
    7.9307  -16.2489   21.9033 N   0  0  0  0  0  0  0  0  0  0  0  0
    9.5730  -15.6583   23.5938 C   0  0  0  0  0  0  0  0  0  0  0  0
   10.6253  -15.0974   23.9880 O   0  0  0  0  0  0  0  0  0  0  0  0
    9.2770  -14.3741   19.3872 C   0  0  0  0  0  0  0  0  0  0  0  0
    8.9397  -14.1366   18.0704 C   0  0  0  0  0  0  0  0  0  0  0  0
    6.0672  -11.8784   26.8436 C   0  0  0  0  0  0  0  0  0  0  0  0
    7.5877  -12.7625   27.2281 S   0  0  0  0  0  0  0  0  0  0  0  0
    7.7797  -14.3070   26.3579 C   0  0  0  0  0  0  0  0  0  0  0  0
    9.0566  -15.0323   26.5782 C   0  0  0  0  0  0  0  0  0  0  0  0
    9.1540  -16.3921   25.9787 C   0  0  2  0  0  0  0  0  0  0  0  0
    8.8424  -16.4036   24.5588 N   0  0  0  0  0  0  0  0  0  0  0  0
    8.3171  -17.3666   26.6834 C   0  0  0  0  0  0  0  0  0  0  0  0
    8.5379  -17.6486   28.0238 O   0  0  0  0  0  0  0  0  0  0  0  0
    7.3632  -17.9979   26.1237 O   0  0  0  0  0  0  0  0  0  0  0  0
  2  4  1  0
  2  1  1  6
  3  2  1  0
  4  6  1  0
  4  5  1  6
  6  7  2  0
  9  8  1  0
  9 10  2  0
 11 10  1  0
 12 11  2  0
 13 12  1  0
 14 13  1  1
 15 14  1  0
 15  6  1  0
 16 14  1  0
 16 17  2  0
 18 19  2  0
 18 12  1  0
 19  9  1  0
 21 20  1  0
 21 22  1  0
 22 23  1  0
 24 23  1  1
 24 25  1  0
 24 26  1  0
 25 16  1  0
 26 28  2  0
 26 27  1  0
M  END
$$$$
