TYM.pdb
     RDKit          3D

 28 28  0  0  1  0  0  0  0  0999 V2000
    9.0595  -12.8143   19.6509 C   0  0  0  0  0  0  0  0  0  0  0  0
    8.1681  -13.5150   18.6757 C   0  0  1  0  0  0  0  0  0  0  0  0
    8.2103  -12.9174   17.4229 O   0  0  0  0  0  0  0  0  0  0  0  0
    8.5648  -14.9674   18.5128 C   0  0  2  0  0  0  0  0  0  0  0  0
    7.6860  -15.6280   17.5544 N   0  0  0  0  0  0  0  0  0  0  0  0
    8.6120  -15.7025   19.7927 C   0  0  0  0  0  0  0  0  0  0  0  0
    7.5081  -15.9726   20.3452 O   0  0  0  0  0  0  0  0  0  0  0  0
   11.3977  -20.4965   26.8202 O   0  0  0  0  0  0  0  0  0  0  0  0
   11.2854  -19.7970   25.6247 C   0  0  0  0  0  0  0  0  0  0  0  0
   10.2005  -19.9836   24.7939 C   0  0  0  0  0  0  0  0  0  0  0  0
   10.0767  -19.2956   23.6046 C   0  0  0  0  0  0  0  0  0  0  0  0
   11.0270  -18.3868   23.1819 C   0  0  0  0  0  0  0  0  0  0  0  0
   10.9104  -17.6542   21.9168 C   0  0  0  0  0  0  0  0  0  0  0  0
    9.7202  -16.7553   21.7934 C   0  0  2  0  0  0  0  0  0  0  0  0
    9.7768  -16.1339   20.4586 N   0  0  0  0  0  0  0  0  0  0  0  0
    9.6951  -15.7436   22.8554 C   0  0  0  0  0  0  0  0  0  0  0  0
   10.5312  -14.8069   22.8220 O   0  0  0  0  0  0  0  0  0  0  0  0
   12.1165  -18.2040   24.0230 C   0  0  0  0  0  0  0  0  0  0  0  0
   12.2413  -18.8916   25.2129 C   0  0  0  0  0  0  0  0  0  0  0  0
    5.8057  -10.4971   27.0295 C   0  0  0  0  0  0  0  0  0  0  0  0
    5.8134  -11.9362   25.9478 S   0  0  0  0  0  0  0  0  0  0  0  0
    7.3473  -12.8455   25.9456 C   0  0  0  0  0  0  0  0  0  0  0  0
    7.4583  -13.9467   24.9555 C   0  0  0  0  0  0  0  0  0  0  0  0
    8.7390  -14.7067   24.9559 C   0  0  2  0  0  0  0  0  0  0  0  0
    8.7760  -15.7456   23.9397 N   0  0  0  0  0  0  0  0  0  0  0  0
    9.0392  -15.2804   26.2703 C   0  0  0  0  0  0  0  0  0  0  0  0
    9.5047  -14.4775   27.3016 O   0  0  0  0  0  0  0  0  0  0  0  0
    8.8965  -16.5171   26.5385 O   0  0  0  0  0  0  0  0  0  0  0  0
  2  4  1  0
  2  1  1  1
  3  2  1  0
  4  6  1  0
  4  5  1  6
  6  7  2  0
  9  8  1  0
  9 10  2  0
 11 10  1  0
 12 11  2  0
 13 12  1  0
 14 13  1  1
 15 14  1  0
 15  6  1  0
 16 14  1  0
 16 17  2  0
 18 19  2  0
 18 12  1  0
 19  9  1  0
 21 20  1  0
 21 22  1  0
 22 23  1  0
 24 23  1  1
 24 25  1  0
 24 26  1  0
 25 16  1  0
 26 28  2  0
 26 27  1  0
M  END
$$$$
