TYM.pdb
     RDKit          3D

 28 28  0  0  1  0  0  0  0  0999 V2000
    9.1735  -13.8891   21.5735 C   0  0  0  0  0  0  0  0  0  0  0  0
    7.8708  -13.9922   20.8462 C   0  0  1  0  0  0  0  0  0  0  0  0
    8.0091  -13.6752   19.5013 O   0  0  0  0  0  0  0  0  0  0  0  0
    7.2981  -15.3911   20.9388 C   0  0  2  0  0  0  0  0  0  0  0  0
    6.0458  -15.4758   20.1961 N   0  0  0  0  0  0  0  0  0  0  0  0
    7.1294  -15.8576   22.3298 C   0  0  0  0  0  0  0  0  0  0  0  0
    6.0851  -15.4914   22.9397 O   0  0  0  0  0  0  0  0  0  0  0  0
    8.3396  -20.5646   29.8839 O   0  0  0  0  0  0  0  0  0  0  0  0
    8.3632  -20.0456   28.5950 C   0  0  0  0  0  0  0  0  0  0  0  0
    7.2162  -19.9941   27.8309 C   0  0  0  0  0  0  0  0  0  0  0  0
    7.2257  -19.4813   26.5502 C   0  0  0  0  0  0  0  0  0  0  0  0
    8.3780  -18.9937   25.9651 C   0  0  0  0  0  0  0  0  0  0  0  0
    8.4026  -18.4524   24.6024 C   0  0  0  0  0  0  0  0  0  0  0  0
    7.7410  -17.1226   24.4191 C   0  0  2  0  0  0  0  0  0  0  0  0
    8.0267  -16.6768   23.0440 N   0  0  0  0  0  0  0  0  0  0  0  0
    8.2093  -16.1454   25.4079 C   0  0  0  0  0  0  0  0  0  0  0  0
    7.8642  -16.2821   26.6078 O   0  0  0  0  0  0  0  0  0  0  0  0
    9.5289  -19.0488   26.7399 C   0  0  0  0  0  0  0  0  0  0  0  0
    9.5204  -19.5614   28.0210 C   0  0  0  0  0  0  0  0  0  0  0  0
    5.2190  -12.1675   27.3125 C   0  0  0  0  0  0  0  0  0  0  0  0
    6.3486  -11.4323   26.1188 S   0  0  0  0  0  0  0  0  0  0  0  0
    7.6268  -12.5336   25.5420 C   0  0  0  0  0  0  0  0  0  0  0  0
    8.4665  -13.1722   26.5872 C   0  0  0  0  0  0  0  0  0  0  0  0
    9.5264  -14.1006   26.1048 C   0  0  2  0  0  0  0  0  0  0  0  0
    9.0413  -15.0343   25.1017 N   0  0  0  0  0  0  0  0  0  0  0  0
   10.1613  -14.8316   27.2045 C   0  0  0  0  0  0  0  0  0  0  0  0
   10.7967  -14.1492   28.2319 O   0  0  0  0  0  0  0  0  0  0  0  0
   10.1699  -16.1026   27.2814 O   0  0  0  0  0  0  0  0  0  0  0  0
  2  4  1  0
  2  1  1  1
  3  2  1  0
  4  6  1  0
  4  5  1  1
  6  7  2  0
  9  8  1  0
  9 10  2  0
 11 10  1  0
 12 11  2  0
 13 12  1  0
 14 13  1  1
 15 14  1  0
 15  6  1  0
 16 14  1  0
 16 17  2  0
 18 19  2  0
 18 12  1  0
 19  9  1  0
 21 20  1  0
 21 22  1  0
 22 23  1  0
 24 23  1  1
 24 25  1  0
 24 26  1  0
 25 16  1  0
 26 28  2  0
 26 27  1  0
M  END
$$$$
