IAQ.pdb
     RDKit          3D

 23 22  0  0  1  0  0  0  0  0999 V2000
   24.3172  -13.3514  -18.4800 C   0  0  0  0  0  0  0  0  0  0  0  0
   24.7141  -12.3920  -17.3617 C   0  0  0  0  0  0  0  0  0  0  0  0
   23.5520  -11.4448  -17.1735 C   0  0  2  0  0  0  0  0  0  0  0  0
   23.3016  -10.7415  -18.4882 C   0  0  0  0  0  0  0  0  0  0  0  0
   23.8160  -10.4557  -16.0559 C   0  0  2  0  0  0  0  0  0  0  0  0
   24.1675  -11.2435  -14.8741 N   0  0  0  0  0  0  0  0  0  0  0  0
   22.6193   -9.6359  -15.7884 C   0  0  0  0  0  0  0  0  0  0  0  0
   22.3251   -8.7403  -16.6266 O   0  0  0  0  0  0  0  0  0  0  0  0
   19.7157   -9.5967  -13.4645 C   0  0  0  0  0  0  0  0  0  0  0  0
   20.6954   -8.8977  -14.4203 C   0  0  2  0  0  0  0  0  0  0  0  0
   21.7914   -9.8029  -14.6473 N   0  0  0  0  0  0  0  0  0  0  0  0
   21.1090   -7.6128  -13.8519 C   0  0  0  0  0  0  0  0  0  0  0  0
   22.1618   -7.4824  -13.1988 O   0  0  0  0  0  0  0  0  0  0  0  0
   23.5124   -1.8561  -16.2455 N   0  0  0  0  0  0  0  0  0  0  0  0
   23.3571   -3.2138  -15.9054 C   0  0  0  0  0  0  0  0  0  0  0  0
   23.9587   -4.1293  -16.5201 O   0  0  0  0  0  0  0  0  0  0  0  0
   22.4433   -3.5539  -14.7745 C   0  0  0  0  0  0  0  0  0  0  0  0
   21.9429   -4.9801  -14.8897 C   0  0  0  0  0  0  0  0  0  0  0  0
   20.7472   -5.1230  -14.0039 C   0  0  2  0  0  0  0  0  0  0  0  0
   20.2846   -6.4750  -14.0498 N   0  0  0  0  0  0  0  0  0  0  0  0
   19.6771   -4.1423  -14.3214 C   0  0  0  0  0  0  0  0  0  0  0  0
   19.6605   -2.9608  -13.6068 O   0  0  0  0  0  0  0  0  0  0  0  0
   18.8071   -4.3359  -15.1908 O   0  0  0  0  0  0  0  0  0  0  0  0
  1  2  1  0
  2  3  1  0
  3  4  1  6
  5  3  1  0
  5  7  1  0
  5  6  1  1
  7 11  1  0
  7  8  2  0
 10  9  1  1
 11 10  1  0
 12 10  1  0
 12 13  2  0
 15 14  1  0
 15 17  1  0
 16 15  2  0
 18 17  1  0
 19 18  1  6
 19 20  1  0
 20 12  1  0
 21 19  1  0
 22 21  1  0
 23 21  2  0
M  END
$$$$
