IAQ.pdb
     RDKit          3D

 23 22  0  0  1  0  0  0  0  0999 V2000
   22.5124  -16.3478  -15.4418 C   0  0  0  0  0  0  0  0  0  0  0  0
   23.8388  -15.8124  -15.9735 C   0  0  0  0  0  0  0  0  0  0  0  0
   23.6138  -14.3555  -16.3051 C   0  0  2  0  0  0  0  0  0  0  0  0
   22.4597  -14.2680  -17.2778 C   0  0  0  0  0  0  0  0  0  0  0  0
   24.8656  -13.7137  -16.8693 C   0  0  2  0  0  0  0  0  0  0  0  0
   25.9123  -13.8801  -15.8605 N   0  0  0  0  0  0  0  0  0  0  0  0
   24.6417  -12.2821  -17.1447 C   0  0  0  0  0  0  0  0  0  0  0  0
   24.3453  -11.5387  -16.1696 O   0  0  0  0  0  0  0  0  0  0  0  0
   24.6773   -9.9818  -20.1038 C   0  0  0  0  0  0  0  0  0  0  0  0
   24.3713  -10.3292  -18.6384 C   0  0  2  0  0  0  0  0  0  0  0  0
   24.7420  -11.7057  -18.4382 N   0  0  0  0  0  0  0  0  0  0  0  0
   22.9614  -10.0575  -18.3498 C   0  0  0  0  0  0  0  0  0  0  0  0
   22.0654  -10.8971  -18.5605 O   0  0  0  0  0  0  0  0  0  0  0  0
   18.6819   -9.3742  -13.7911 N   0  0  0  0  0  0  0  0  0  0  0  0
   18.6791   -9.8268  -15.1246 C   0  0  0  0  0  0  0  0  0  0  0  0
   18.1880  -10.9355  -15.4526 O   0  0  0  0  0  0  0  0  0  0  0  0
   19.2844   -8.9447  -16.1663 C   0  0  0  0  0  0  0  0  0  0  0  0
   20.7169   -9.3477  -16.4547 C   0  0  0  0  0  0  0  0  0  0  0  0
   21.2626   -8.4095  -17.4827 C   0  0  2  0  0  0  0  0  0  0  0  0
   22.5994   -8.7954  -17.8116 N   0  0  0  0  0  0  0  0  0  0  0  0
   21.1646   -6.9855  -17.0699 C   0  0  0  0  0  0  0  0  0  0  0  0
   19.9014   -6.4602  -16.8820 O   0  0  0  0  0  0  0  0  0  0  0  0
   22.1567   -6.2555  -16.8886 O   0  0  0  0  0  0  0  0  0  0  0  0
  1  2  1  0
  2  3  1  0
  3  4  1  6
  5  3  1  0
  5  7  1  0
  5  6  1  1
  7 11  1  0
  7  8  2  0
 10  9  1  6
 11 10  1  0
 12 10  1  0
 12 13  2  0
 15 14  1  0
 15 17  1  0
 16 15  2  0
 18 17  1  0
 19 18  1  1
 19 20  1  0
 20 12  1  0
 21 19  1  0
 22 21  1  0
 23 21  2  0
M  END
$$$$
