IAQ.pdb
     RDKit          3D

 23 22  0  0  1  0  0  0  0  0999 V2000
   11.7522  -12.9349  -11.0928 C   0  0  0  0  0  0  0  0  0  0  0  0
   13.2419  -12.6965  -10.8639 C   0  0  0  0  0  0  0  0  0  0  0  0
   13.4369  -11.1988  -10.8184 C   0  0  2  0  0  0  0  0  0  0  0  0
   12.8908  -10.6149  -12.1015 C   0  0  0  0  0  0  0  0  0  0  0  0
   14.8941  -10.8335  -10.6179 C   0  0  2  0  0  0  0  0  0  0  0  0
   15.3118  -11.4534   -9.3600 N   0  0  0  0  0  0  0  0  0  0  0  0
   15.0624   -9.3698  -10.5489 C   0  0  0  0  0  0  0  0  0  0  0  0
   14.9952   -8.7222  -11.6294 O   0  0  0  0  0  0  0  0  0  0  0  0
   15.3051   -6.7187   -7.9349 C   0  0  0  0  0  0  0  0  0  0  0  0
   15.4781   -7.2341   -9.3723 C   0  0  2  0  0  0  0  0  0  0  0  0
   15.2937   -8.6614   -9.3405 N   0  0  0  0  0  0  0  0  0  0  0  0
   16.7864   -6.8270   -9.8895 C   0  0  0  0  0  0  0  0  0  0  0  0
   17.8541   -7.2250   -9.3857 O   0  0  0  0  0  0  0  0  0  0  0  0
   20.9488   -7.8651  -14.6211 N   0  0  0  0  0  0  0  0  0  0  0  0
   20.8454   -7.5570  -13.2509 C   0  0  0  0  0  0  0  0  0  0  0  0
   21.4204   -8.2402  -12.3675 O   0  0  0  0  0  0  0  0  0  0  0  0
   20.0206   -6.3761  -12.8575 C   0  0  0  0  0  0  0  0  0  0  0  0
   18.8001   -6.8042  -12.0671 C   0  0  0  0  0  0  0  0  0  0  0  0
   18.0485   -5.5729  -11.6750 C   0  0  2  0  0  0  0  0  0  0  0  0
   16.8440   -5.9491  -11.0028 N   0  0  0  0  0  0  0  0  0  0  0  0
   17.8013   -4.6615  -12.8222 C   0  0  0  0  0  0  0  0  0  0  0  0
   18.7955   -3.7600  -13.1478 O   0  0  0  0  0  0  0  0  0  0  0  0
   16.7526   -4.6743  -13.4931 O   0  0  0  0  0  0  0  0  0  0  0  0
  1  2  1  0
  2  3  1  0
  3  4  1  6
  5  3  1  0
  5  7  1  0
  5  6  1  1
  7 11  1  0
  7  8  2  0
 10  9  1  1
 11 10  1  0
 12 10  1  0
 12 13  2  0
 15 14  1  0
 15 17  1  0
 16 15  2  0
 18 17  1  0
 19 18  1  6
 19 20  1  0
 20 12  1  0
 21 19  1  0
 22 21  1  0
 23 21  2  0
M  END
$$$$
