IAQ.pdb
     RDKit          3D

 23 22  0  0  1  0  0  0  0  0999 V2000
   30.2976  -22.0495  -11.0510 C   0  0  0  0  0  0  0  0  0  0  0  0
   28.9440  -21.6168  -10.4951 C   0  0  0  0  0  0  0  0  0  0  0  0
   28.1214  -21.1539  -11.6750 C   0  0  2  0  0  0  0  0  0  0  0  0
   28.9108  -20.0955  -12.4116 C   0  0  0  0  0  0  0  0  0  0  0  0
   26.7667  -20.6330  -11.2385 C   0  0  2  0  0  0  0  0  0  0  0  0
   26.1098  -21.7256  -10.5205 N   0  0  0  0  0  0  0  0  0  0  0  0
   25.9603  -20.2283  -12.4053 C   0  0  0  0  0  0  0  0  0  0  0  0
   26.0460  -19.0291  -12.7874 O   0  0  0  0  0  0  0  0  0  0  0  0
   24.6902  -21.4752  -15.4460 C   0  0  0  0  0  0  0  0  0  0  0  0
   24.3275  -20.6204  -14.2215 C   0  0  2  0  0  0  0  0  0  0  0  0
   25.1022  -21.1113  -13.1119 N   0  0  0  0  0  0  0  0  0  0  0  0
   22.8820  -20.6737  -13.9918 C   0  0  0  0  0  0  0  0  0  0  0  0
   22.3236  -21.6706  -13.4953 O   0  0  0  0  0  0  0  0  0  0  0  0
   19.2653  -15.5032  -14.2962 N   0  0  0  0  0  0  0  0  0  0  0  0
   18.3452  -16.4850  -13.8809 C   0  0  0  0  0  0  0  0  0  0  0  0
   17.1454  -16.2118  -13.6283 O   0  0  0  0  0  0  0  0  0  0  0  0
   18.8324  -17.8897  -13.7428 C   0  0  0  0  0  0  0  0  0  0  0  0
   20.3123  -17.9854  -14.0567 C   0  0  0  0  0  0  0  0  0  0  0  0
   20.6898  -19.4318  -14.0664 C   0  0  2  0  0  0  0  0  0  0  0  0
   22.0867  -19.5532  -14.3458 N   0  0  0  0  0  0  0  0  0  0  0  0
   19.8506  -20.2380  -14.9902 C   0  0  0  0  0  0  0  0  0  0  0  0
   18.7288  -20.8490  -14.4656 O   0  0  0  0  0  0  0  0  0  0  0  0
   20.1103  -20.3850  -16.1989 O   0  0  0  0  0  0  0  0  0  0  0  0
  1  2  1  0
  2  3  1  0
  3  4  1  1
  5  3  1  0
  5  7  1  0
  5  6  1  6
  7 11  1  0
  7  8  2  0
 10  9  1  6
 11 10  1  0
 12 10  1  0
 12 13  2  0
 15 14  1  0
 15 17  1  0
 16 15  2  0
 18 17  1  0
 19 18  1  6
 19 20  1  0
 20 12  1  0
 21 19  1  0
 22 21  1  0
 23 21  2  0
M  END
$$$$
