IAQ.pdb
     RDKit          3D

 23 22  0  0  1  0  0  0  0  0999 V2000
   15.4371  -13.1136  -11.7075 C   0  0  0  0  0  0  0  0  0  0  0  0
   14.9742  -12.3013  -10.5015 C   0  0  0  0  0  0  0  0  0  0  0  0
   15.3732  -10.8685  -10.7679 C   0  0  2  0  0  0  0  0  0  0  0  0
   16.8768  -10.8198  -10.9180 C   0  0  0  0  0  0  0  0  0  0  0  0
   14.8947   -9.9439   -9.6664 C   0  0  2  0  0  0  0  0  0  0  0  0
   13.4419  -10.1003   -9.5903 N   0  0  0  0  0  0  0  0  0  0  0  0
   15.2446   -8.5434   -9.9692 C   0  0  0  0  0  0  0  0  0  0  0  0
   14.6972   -8.0079  -10.9717 O   0  0  0  0  0  0  0  0  0  0  0  0
   16.1032   -5.5187   -8.3918 C   0  0  0  0  0  0  0  0  0  0  0  0
   16.4580   -6.4229   -9.5828 C   0  0  2  0  0  0  0  0  0  0  0  0
   16.1566   -7.7767   -9.1973 N   0  0  0  0  0  0  0  0  0  0  0  0
   17.8599   -6.2217   -9.9560 C   0  0  0  0  0  0  0  0  0  0  0  0
   18.7929   -6.3758   -9.1449 O   0  0  0  0  0  0  0  0  0  0  0  0
   20.6720   -8.4648  -14.4979 N   0  0  0  0  0  0  0  0  0  0  0  0
   20.4065   -8.8924  -13.1828 C   0  0  0  0  0  0  0  0  0  0  0  0
   20.4754  -10.1008  -12.8466 O   0  0  0  0  0  0  0  0  0  0  0  0
   20.0328   -7.8597  -12.1711 C   0  0  0  0  0  0  0  0  0  0  0  0
   19.8770   -6.4972  -12.8167 C   0  0  0  0  0  0  0  0  0  0  0  0
   19.4847   -5.5238  -11.7522 C   0  0  2  0  0  0  0  0  0  0  0  0
   18.1700   -5.8381  -11.2864 N   0  0  0  0  0  0  0  0  0  0  0  0
   19.6120   -4.1102  -12.1918 C   0  0  0  0  0  0  0  0  0  0  0  0
   20.8862   -3.6091  -12.3716 O   0  0  0  0  0  0  0  0  0  0  0  0
   18.6346   -3.3681  -12.4021 O   0  0  0  0  0  0  0  0  0  0  0  0
  1  2  1  0
  2  3  1  0
  3  4  1  1
  5  3  1  0
  5  7  1  0
  5  6  1  6
  7 11  1  0
  7  8  2  0
 10  9  1  1
 11 10  1  0
 12 10  1  0
 12 13  2  0
 15 14  1  0
 15 17  1  0
 16 15  2  0
 18 17  1  0
 19 18  1  6
 19 20  1  0
 20 12  1  0
 21 19  1  0
 22 21  1  0
 23 21  2  0
M  END
$$$$
