IAQ.pdb
     RDKit          3D

 23 22  0  0  1  0  0  0  0  0999 V2000
   19.1913  -17.1219  -19.0455 C   0  0  0  0  0  0  0  0  0  0  0  0
   20.3624  -16.1839  -19.3231 C   0  0  0  0  0  0  0  0  0  0  0  0
   20.1909  -14.9965  -18.4044 C   0  0  2  0  0  0  0  0  0  0  0  0
   18.8116  -14.4212  -18.6331 C   0  0  0  0  0  0  0  0  0  0  0  0
   21.2707  -13.9574  -18.6310 C   0  0  2  0  0  0  0  0  0  0  0  0
   22.5202  -14.6904  -18.8372 N   0  0  0  0  0  0  0  0  0  0  0  0
   21.3882  -13.0614  -17.4654 C   0  0  0  0  0  0  0  0  0  0  0  0
   20.3557  -12.4321  -17.1055 O   0  0  0  0  0  0  0  0  0  0  0  0
   24.0622  -11.9327  -15.0925 C   0  0  0  0  0  0  0  0  0  0  0  0
   22.6268  -11.9397  -15.6417 C   0  0  2  0  0  0  0  0  0  0  0  0
   22.5918  -12.8739  -16.7364 N   0  0  0  0  0  0  0  0  0  0  0  0
   22.2366  -10.5805  -16.0229 C   0  0  0  0  0  0  0  0  0  0  0  0
   22.6382  -10.0427  -17.0725 O   0  0  0  0  0  0  0  0  0  0  0  0
   16.7374   -8.2228  -15.7325 N   0  0  0  0  0  0  0  0  0  0  0  0
   17.4654   -7.0192  -15.7977 C   0  0  0  0  0  0  0  0  0  0  0  0
   16.9040   -5.9070  -15.9583 O   0  0  0  0  0  0  0  0  0  0  0  0
   18.9514   -7.0900  -15.6695 C   0  0  0  0  0  0  0  0  0  0  0  0
   19.4146   -8.5227  -15.4952 C   0  0  0  0  0  0  0  0  0  0  0  0
   20.9082   -8.5210  -15.4335 C   0  0  2  0  0  0  0  0  0  0  0  0
   21.3712   -9.8478  -15.1699 N   0  0  0  0  0  0  0  0  0  0  0  0
   21.4417   -7.5273  -14.4663 C   0  0  0  0  0  0  0  0  0  0  0  0
   21.8268   -7.9889  -13.2230 O   0  0  0  0  0  0  0  0  0  0  0  0
   21.5552   -6.3144  -14.7233 O   0  0  0  0  0  0  0  0  0  0  0  0
  1  2  1  0
  2  3  1  0
  3  4  1  6
  5  3  1  0
  5  7  1  0
  5  6  1  1
  7 11  1  0
  7  8  2  0
 10  9  1  6
 11 10  1  0
 12 10  1  0
 12 13  2  0
 15 14  1  0
 15 17  1  0
 16 15  2  0
 18 17  1  0
 19 18  1  1
 19 20  1  0
 20 12  1  0
 21 19  1  0
 22 21  1  0
 23 21  2  0
M  END
$$$$
