IAQ.pdb
     RDKit          3D

 23 22  0  0  1  0  0  0  0  0999 V2000
   30.3714  -21.9304  -10.3570 C   0  0  0  0  0  0  0  0  0  0  0  0
   28.8742  -21.6550  -10.2524 C   0  0  0  0  0  0  0  0  0  0  0  0
   28.4411  -21.1112  -11.5940 C   0  0  2  0  0  0  0  0  0  0  0  0
   29.3206  -19.9274  -11.9270 C   0  0  0  0  0  0  0  0  0  0  0  0
   26.9741  -20.7303  -11.5925 C   0  0  2  0  0  0  0  0  0  0  0  0
   26.2418  -21.8874  -11.0771 N   0  0  0  0  0  0  0  0  0  0  0  0
   26.5173  -20.3998  -12.9554 C   0  0  0  0  0  0  0  0  0  0  0  0
   26.0331  -19.2508  -13.1471 O   0  0  0  0  0  0  0  0  0  0  0  0
   26.5675  -21.8903  -16.3742 C   0  0  0  0  0  0  0  0  0  0  0  0
   25.9810  -20.9545  -15.3055 C   0  0  2  0  0  0  0  0  0  0  0  0
   26.5947  -21.3004  -14.0501 N   0  0  0  0  0  0  0  0  0  0  0  0
   24.5212  -21.0721  -15.2925 C   0  0  0  0  0  0  0  0  0  0  0  0
   23.9381  -22.0663  -14.8194 O   0  0  0  0  0  0  0  0  0  0  0  0
   20.7069  -21.7231  -13.2456 N   0  0  0  0  0  0  0  0  0  0  0  0
   19.7779  -20.8349  -13.8211 C   0  0  0  0  0  0  0  0  0  0  0  0
   18.5392  -21.0360  -13.7659 O   0  0  0  0  0  0  0  0  0  0  0  0
   20.3038  -19.6214  -14.5143 C   0  0  0  0  0  0  0  0  0  0  0  0
   21.8191  -19.5942  -14.4886 C   0  0  0  0  0  0  0  0  0  0  0  0
   22.3112  -19.9922  -15.8430 C   0  0  2  0  0  0  0  0  0  0  0  0
   23.7406  -20.0195  -15.8366 N   0  0  0  0  0  0  0  0  0  0  0  0
   21.7612  -19.1382  -16.9274 C   0  0  0  0  0  0  0  0  0  0  0  0
   20.4741  -19.3981  -17.3548 O   0  0  0  0  0  0  0  0  0  0  0  0
   22.4003  -18.2120  -17.4601 O   0  0  0  0  0  0  0  0  0  0  0  0
  1  2  1  0
  2  3  1  0
  3  4  1  1
  5  3  1  0
  5  7  1  0
  5  6  1  6
  7 11  1  0
  7  8  2  0
 10  9  1  6
 11 10  1  0
 12 10  1  0
 12 13  2  0
 15 14  1  0
 15 17  1  0
 16 15  2  0
 18 17  1  0
 19 18  1  1
 19 20  1  0
 20 12  1  0
 21 19  1  0
 22 21  1  0
 23 21  2  0
M  END
$$$$
