IAQ.pdb
     RDKit          3D

 23 22  0  0  1  0  0  0  0  0999 V2000
   33.6411  -11.9175  -17.4098 C   0  0  0  0  0  0  0  0  0  0  0  0
   34.2680  -10.5427  -17.1966 C   0  0  0  0  0  0  0  0  0  0  0  0
   33.1272   -9.5811  -16.9576 C   0  0  2  0  0  0  0  0  0  0  0  0
   32.1582   -9.7058  -18.1114 C   0  0  0  0  0  0  0  0  0  0  0  0
   33.6234   -8.1576  -16.8003 C   0  0  2  0  0  0  0  0  0  0  0  0
   34.4611   -8.1365  -15.6009 N   0  0  0  0  0  0  0  0  0  0  0  0
   32.4926   -7.2222  -16.6527 C   0  0  0  0  0  0  0  0  0  0  0  0
   31.8015   -7.3021  -15.6004 O   0  0  0  0  0  0  0  0  0  0  0  0
   31.6202   -3.9113  -17.7523 C   0  0  0  0  0  0  0  0  0  0  0  0
   31.1001   -5.2994  -17.3468 C   0  0  2  0  0  0  0  0  0  0  0  0
   32.1473   -6.2471  -17.6250 N   0  0  0  0  0  0  0  0  0  0  0  0
   29.8512   -5.5861  -18.0561 C   0  0  0  0  0  0  0  0  0  0  0  0
   28.8223   -4.9023  -17.8946 O   0  0  0  0  0  0  0  0  0  0  0  0
   25.3693   -8.2729  -17.4671 N   0  0  0  0  0  0  0  0  0  0  0  0
   25.2901   -8.4763  -18.8583 C   0  0  0  0  0  0  0  0  0  0  0  0
   24.2752   -8.9772  -19.4033 O   0  0  0  0  0  0  0  0  0  0  0  0
   26.4614   -8.0766  -19.6938 C   0  0  0  0  0  0  0  0  0  0  0  0
   27.5830   -7.5311  -18.8324 C   0  0  0  0  0  0  0  0  0  0  0  0
   28.6648   -7.0396  -19.7394 C   0  0  2  0  0  0  0  0  0  0  0  0
   29.8076   -6.6796  -18.9593 N   0  0  0  0  0  0  0  0  0  0  0  0
   28.2118   -5.9396  -20.6297 C   0  0  0  0  0  0  0  0  0  0  0  0
   27.9729   -6.2472  -21.9546 O   0  0  0  0  0  0  0  0  0  0  0  0
   28.0405   -4.7697  -20.2397 O   0  0  0  0  0  0  0  0  0  0  0  0
  1  2  1  0
  2  3  1  0
  3  4  1  6
  5  3  1  0
  5  7  1  0
  5  6  1  1
  7 11  1  0
  7  8  2  0
 10  9  1  6
 11 10  1  0
 12 10  1  0
 12 13  2  0
 15 14  1  0
 15 17  1  0
 16 15  2  0
 18 17  1  0
 19 18  1  1
 19 20  1  0
 20 12  1  0
 21 19  1  0
 22 21  1  0
 23 21  2  0
M  END
$$$$
