IAQ.pdb
     RDKit          3D

 23 22  0  0  1  0  0  0  0  0999 V2000
   25.9777  -20.4240   -8.6778 C   0  0  0  0  0  0  0  0  0  0  0  0
   26.6346  -21.0517   -9.9037 C   0  0  0  0  0  0  0  0  0  0  0  0
   25.6563  -20.8956  -11.0446 C   0  0  2  0  0  0  0  0  0  0  0  0
   24.3560  -21.5532  -10.6416 C   0  0  0  0  0  0  0  0  0  0  0  0
   26.2020  -21.4851  -12.3299 C   0  0  2  0  0  0  0  0  0  0  0  0
   27.4843  -20.8268  -12.5809 N   0  0  0  0  0  0  0  0  0  0  0  0
   25.2743  -21.2455  -13.4513 C   0  0  0  0  0  0  0  0  0  0  0  0
   24.8610  -20.0666  -13.6262 O   0  0  0  0  0  0  0  0  0  0  0  0
   24.1075  -22.9178  -16.5253 C   0  0  0  0  0  0  0  0  0  0  0  0
   23.8614  -21.9540  -15.3538 C   0  0  2  0  0  0  0  0  0  0  0  0
   24.8284  -22.2643  -14.3336 N   0  0  0  0  0  0  0  0  0  0  0  0
   22.4747  -22.0737  -14.8981 C   0  0  0  0  0  0  0  0  0  0  0  0
   22.1603  -22.7356  -13.8905 O   0  0  0  0  0  0  0  0  0  0  0  0
   18.6244  -23.1273  -12.6104 N   0  0  0  0  0  0  0  0  0  0  0  0
   18.2145  -21.7933  -12.4218 C   0  0  0  0  0  0  0  0  0  0  0  0
   17.6608  -21.4083  -11.3621 O   0  0  0  0  0  0  0  0  0  0  0  0
   18.4556  -20.8218  -13.5299 C   0  0  0  0  0  0  0  0  0  0  0  0
   19.9229  -20.7811  -13.9079 C   0  0  0  0  0  0  0  0  0  0  0  0
   20.0700  -21.4086  -15.2567 C   0  0  2  0  0  0  0  0  0  0  0  0
   21.4510  -21.4143  -15.6266 N   0  0  0  0  0  0  0  0  0  0  0  0
   19.2064  -20.7706  -16.2839 C   0  0  0  0  0  0  0  0  0  0  0  0
   17.8797  -21.1510  -16.3290 O   0  0  0  0  0  0  0  0  0  0  0  0
   19.6201  -19.9205  -17.0940 O   0  0  0  0  0  0  0  0  0  0  0  0
  1  2  1  0
  2  3  1  0
  3  4  1  1
  5  3  1  0
  5  7  1  0
  5  6  1  6
  7 11  1  0
  7  8  2  0
 10  9  1  6
 11 10  1  0
 12 10  1  0
 12 13  2  0
 15 14  1  0
 15 17  1  0
 16 15  2  0
 18 17  1  0
 19 18  1  1
 19 20  1  0
 20 12  1  0
 21 19  1  0
 22 21  1  0
 23 21  2  0
M  END
$$$$
