IAQ.pdb
     RDKit          3D

 23 22  0  0  1  0  0  0  0  0999 V2000
   20.2288  -17.8189  -13.6456 C   0  0  0  0  0  0  0  0  0  0  0  0
   19.4449  -17.5759  -14.9320 C   0  0  0  0  0  0  0  0  0  0  0  0
   19.4779  -16.0861  -15.1821 C   0  0  2  0  0  0  0  0  0  0  0  0
   18.8735  -15.3947  -13.9811 C   0  0  0  0  0  0  0  0  0  0  0  0
   18.7483  -15.7201  -16.4592 C   0  0  2  0  0  0  0  0  0  0  0  0
   19.4132  -16.4439  -17.5431 N   0  0  0  0  0  0  0  0  0  0  0  0
   18.8104  -14.2662  -16.6996 C   0  0  0  0  0  0  0  0  0  0  0  0
   19.9488  -13.7502  -16.8705 O   0  0  0  0  0  0  0  0  0  0  0  0
   16.4556  -11.4730  -17.4287 C   0  0  0  0  0  0  0  0  0  0  0  0
   17.8221  -12.0165  -16.9825 C   0  0  2  0  0  0  0  0  0  0  0  0
   17.6656  -13.4281  -16.7479 N   0  0  0  0  0  0  0  0  0  0  0  0
   18.2877  -11.2784  -15.8064 C   0  0  0  0  0  0  0  0  0  0  0  0
   17.8805  -11.5331  -14.6568 O   0  0  0  0  0  0  0  0  0  0  0  0
   23.9832  -10.1838  -14.6064 N   0  0  0  0  0  0  0  0  0  0  0  0
   23.4054   -9.3347  -13.6430 C   0  0  0  0  0  0  0  0  0  0  0  0
   24.0810   -8.8128  -12.7216 O   0  0  0  0  0  0  0  0  0  0  0  0
   21.9409   -9.0593  -13.7383 C   0  0  0  0  0  0  0  0  0  0  0  0
   21.3134   -9.8410  -14.8753 C   0  0  0  0  0  0  0  0  0  0  0  0
   19.8537   -9.5203  -14.9060 C   0  0  2  0  0  0  0  0  0  0  0  0
   19.2355  -10.2364  -15.9780 N   0  0  0  0  0  0  0  0  0  0  0  0
   19.5880   -8.0597  -14.9669 C   0  0  0  0  0  0  0  0  0  0  0  0
   19.3970   -7.4964  -16.2132 O   0  0  0  0  0  0  0  0  0  0  0  0
   19.5307   -7.3316  -13.9586 O   0  0  0  0  0  0  0  0  0  0  0  0
  1  2  1  0
  2  3  1  0
  3  4  1  1
  5  3  1  0
  5  7  1  0
  5  6  1  6
  7 11  1  0
  7  8  2  0
 10  9  1  1
 11 10  1  0
 12 10  1  0
 12 13  2  0
 15 14  1  0
 15 17  1  0
 16 15  2  0
 18 17  1  0
 19 18  1  6
 19 20  1  0
 20 12  1  0
 21 19  1  0
 22 21  1  0
 23 21  2  0
M  END
$$$$
