IAQ.pdb
     RDKit          3D

 23 22  0  0  1  0  0  0  0  0999 V2000
   18.6655  -14.4831  -19.5479 C   0  0  0  0  0  0  0  0  0  0  0  0
   19.9470  -13.6665  -19.6877 C   0  0  0  0  0  0  0  0  0  0  0  0
   20.0950  -12.8742  -18.4096 C   0  0  2  0  0  0  0  0  0  0  0  0
   18.8482  -12.0387  -18.2279 C   0  0  0  0  0  0  0  0  0  0  0  0
   21.3424  -12.0135  -18.4300 C   0  0  2  0  0  0  0  0  0  0  0  0
   22.4747  -12.9219  -18.6128 N   0  0  0  0  0  0  0  0  0  0  0  0
   21.4835  -11.2658  -17.1664 C   0  0  0  0  0  0  0  0  0  0  0  0
   20.5566  -10.4702  -16.8514 O   0  0  0  0  0  0  0  0  0  0  0  0
   23.9391  -11.0008  -14.3485 C   0  0  0  0  0  0  0  0  0  0  0  0
   22.7181  -10.5289  -15.1538 C   0  0  2  0  0  0  0  0  0  0  0  0
   22.5981  -11.3957  -16.2968 N   0  0  0  0  0  0  0  0  0  0  0  0
   22.8749   -9.1163  -15.5075 C   0  0  0  0  0  0  0  0  0  0  0  0
   23.3260   -8.7529  -16.6105 O   0  0  0  0  0  0  0  0  0  0  0  0
   20.5391   -3.3852  -17.9272 N   0  0  0  0  0  0  0  0  0  0  0  0
   20.6126   -4.7166  -17.4747 C   0  0  0  0  0  0  0  0  0  0  0  0
   19.9437   -5.6394  -18.0029 O   0  0  0  0  0  0  0  0  0  0  0  0
   21.5210   -5.0193  -16.3289 C   0  0  0  0  0  0  0  0  0  0  0  0
   21.5349   -6.5039  -16.0233 C   0  0  0  0  0  0  0  0  0  0  0  0
   22.4301   -6.7249  -14.8467 C   0  0  2  0  0  0  0  0  0  0  0  0
   22.5013   -8.1246  -14.5640 N   0  0  0  0  0  0  0  0  0  0  0  0
   22.0296   -5.9228  -13.6619 C   0  0  0  0  0  0  0  0  0  0  0  0
   22.2265   -4.5571  -13.7185 O   0  0  0  0  0  0  0  0  0  0  0  0
   21.5314   -6.4202  -12.6350 O   0  0  0  0  0  0  0  0  0  0  0  0
  1  2  1  0
  2  3  1  0
  3  4  1  6
  5  3  1  0
  5  7  1  0
  5  6  1  1
  7 11  1  0
  7  8  2  0
 10  9  1  6
 11 10  1  0
 12 10  1  0
 12 13  2  0
 15 14  1  0
 15 17  1  0
 16 15  2  0
 18 17  1  0
 19 18  1  6
 19 20  1  0
 20 12  1  0
 21 19  1  0
 22 21  1  0
 23 21  2  0
M  END
$$$$
