ICH.pdb
     RDKit          3D

 25 25  0  0  1  0  0  0  0  0999 V2000
    7.4274  -12.1060   18.4881 C   0  0  0  0  0  0  0  0  0  0  0  0
    7.4705  -13.5446   18.9563 C   0  0  0  0  0  0  0  0  0  0  0  0
    8.1681  -13.5548   20.2955 C   0  0  2  0  0  0  0  0  0  0  0  0
    9.6097  -13.1360   20.0573 C   0  0  0  0  0  0  0  0  0  0  0  0
    8.1971  -14.9322   20.9129 C   0  0  2  0  0  0  0  0  0  0  0  0
    6.8947  -15.5430   20.8244 N   0  0  0  0  0  0  0  0  0  0  0  0
    8.6020  -14.7409   22.3506 C   0  0  0  0  0  0  0  0  0  0  0  0
    9.8000  -14.5326   22.6590 O   0  0  0  0  0  0  0  0  0  0  0  0
    7.6459  -14.7899   23.3981 N   0  0  0  0  0  0  0  0  0  0  0  0
    7.9863  -14.6466   24.8002 C   0  0  1  0  0  0  0  0  0  0  0  0
    6.8646  -13.9256   25.5260 C   0  0  0  0  0  0  0  0  0  0  0  0
    7.1688  -13.8647   27.2945 S   0  0  0  0  0  0  0  0  0  0  0  0
    8.2948  -15.9377   25.4362 C   0  0  0  0  0  0  0  0  0  0  0  0
    7.4337  -16.8520   25.4035 O   0  0  0  0  0  0  0  0  0  0  0  0
    9.5240  -16.2150   26.0933 N   0  0  0  0  0  0  0  0  0  0  0  0
    9.9810  -17.6020   26.3038 C   0  0  1  0  0  0  0  0  0  0  0  0
   10.8555  -17.9566   25.1229 C   0  0  0  0  0  0  0  0  0  0  0  0
   11.4038  -19.3267   25.1903 C   0  0  0  0  0  0  0  0  0  0  0  0
   11.2128  -20.2757   26.1699 C   0  0  0  0  0  0  0  0  0  0  0  0
   11.9055  -21.4006   25.8509 N   0  0  0  0  0  0  0  0  0  0  0  0
   12.5185  -21.1514   24.6872 C   0  0  0  0  0  0  0  0  0  0  0  0
   12.2288  -19.9053   24.2715 N   0  0  0  0  0  0  0  0  0  0  0  0
   10.7208  -17.7250   27.5667 C   0  0  0  0  0  0  0  0  0  0  0  0
   11.1863  -18.8348   27.9050 O   0  0  0  0  0  0  0  0  0  0  0  0
   10.8942  -16.6164   28.3635 O   0  0  0  0  0  0  0  0  0  0  0  0
  2  1  1  0
  2  3  1  0
  3  5  1  0
  3  4  1  6
  5  6  1  1
  5  7  1  0
  7  8  2  0
  9  7  1  0
  9 10  1  0
 10 11  1  1
 12 11  1  0
 13 14  2  0
 13 10  1  0
 15 13  1  0
 16 15  1  0
 16 17  1  6
 18 22  1  0
 18 17  1  0
 19 18  2  0
 20 19  1  0
 20 21  1  0
 21 22  2  0
 23 16  1  0
 24 23  2  0
 25 23  1  0
M  END
$$$$
