ICH.pdb
     RDKit          3D

 25 25  0  0  1  0  0  0  0  0999 V2000
    7.2140  -18.9328   19.3588 C   0  0  0  0  0  0  0  0  0  0  0  0
    6.8575  -17.4624   19.3231 C   0  0  0  0  0  0  0  0  0  0  0  0
    7.4699  -16.8273   20.5487 C   0  0  2  0  0  0  0  0  0  0  0  0
    6.8807  -17.5271   21.7625 C   0  0  0  0  0  0  0  0  0  0  0  0
    7.1252  -15.3619   20.6642 C   0  0  2  0  0  0  0  0  0  0  0  0
    7.5595  -14.6557   19.4853 N   0  0  0  0  0  0  0  0  0  0  0  0
    7.8436  -14.8554   21.8868 C   0  0  0  0  0  0  0  0  0  0  0  0
    9.0953  -14.7767   21.9107 O   0  0  0  0  0  0  0  0  0  0  0  0
    7.1310  -14.4526   23.0460 N   0  0  0  0  0  0  0  0  0  0  0  0
    7.7740  -13.9969   24.2631 C   0  0  1  0  0  0  0  0  0  0  0  0
    6.7349  -13.4027   25.1969 C   0  0  0  0  0  0  0  0  0  0  0  0
    7.4678  -12.9262   26.7653 S   0  0  0  0  0  0  0  0  0  0  0  0
    8.5421  -15.0645   24.9240 C   0  0  0  0  0  0  0  0  0  0  0  0
    7.9334  -16.0808   25.3426 O   0  0  0  0  0  0  0  0  0  0  0  0
    9.9489  -15.0136   25.1192 N   0  0  0  0  0  0  0  0  0  0  0  0
   10.6791  -16.1512   25.7105 C   0  0  1  0  0  0  0  0  0  0  0  0
    9.9282  -16.5484   26.9608 C   0  0  0  0  0  0  0  0  0  0  0  0
   10.0666  -15.5734   28.0619 C   0  0  0  0  0  0  0  0  0  0  0  0
   10.5911  -14.3009   28.0150 C   0  0  0  0  0  0  0  0  0  0  0  0
   10.5403  -13.7448   29.2540 N   0  0  0  0  0  0  0  0  0  0  0  0
    9.9905  -14.6621   30.0592 C   0  0  0  0  0  0  0  0  0  0  0  0
    9.6974  -15.7729   29.3595 N   0  0  0  0  0  0  0  0  0  0  0  0
   10.7616  -17.2711   24.7637 C   0  0  0  0  0  0  0  0  0  0  0  0
   10.1137  -17.2267   23.6955 O   0  0  0  0  0  0  0  0  0  0  0  0
   11.5523  -18.3570   25.0627 O   0  0  0  0  0  0  0  0  0  0  0  0
  2  1  1  0
  2  3  1  0
  3  5  1  0
  3  4  1  1
  5  6  1  6
  5  7  1  0
  7  8  2  0
  9  7  1  0
  9 10  1  0
 10 11  1  1
 12 11  1  0
 13 14  2  0
 13 10  1  0
 15 13  1  0
 16 15  1  0
 16 17  1  1
 18 22  1  0
 18 17  1  0
 19 18  2  0
 20 19  1  0
 20 21  1  0
 21 22  2  0
 23 16  1  0
 24 23  2  0
 25 23  1  0
M  END
$$$$
