ICH.pdb
     RDKit          3D

 25 25  0  0  1  0  0  0  0  0999 V2000
    8.3699  -13.4621   17.1638 C   0  0  0  0  0  0  0  0  0  0  0  0
    7.9988  -12.4104   18.1869 C   0  0  0  0  0  0  0  0  0  0  0  0
    8.2185  -13.0208   19.5506 C   0  0  2  0  0  0  0  0  0  0  0  0
    9.6783  -13.4371   19.6294 C   0  0  0  0  0  0  0  0  0  0  0  0
    7.3858  -14.2625   19.7604 C   0  0  2  0  0  0  0  0  0  0  0  0
    5.9887  -13.9598   19.5767 N   0  0  0  0  0  0  0  0  0  0  0  0
    7.6543  -14.7163   21.1709 C   0  0  0  0  0  0  0  0  0  0  0  0
    7.3656  -13.9843   22.1479 O   0  0  0  0  0  0  0  0  0  0  0  0
    8.2398  -15.9808   21.4392 N   0  0  0  0  0  0  0  0  0  0  0  0
    8.6099  -16.4259   22.7685 C   0  0  1  0  0  0  0  0  0  0  0  0
    7.6010  -17.4467   23.2636 C   0  0  0  0  0  0  0  0  0  0  0  0
    7.9281  -17.9100   24.9672 S   0  0  0  0  0  0  0  0  0  0  0  0
    9.9812  -16.9582   22.8191 C   0  0  0  0  0  0  0  0  0  0  0  0
   10.5216  -17.3470   21.7536 O   0  0  0  0  0  0  0  0  0  0  0  0
   10.7400  -17.0598   24.0165 N   0  0  0  0  0  0  0  0  0  0  0  0
   12.2151  -17.0472   23.9888 C   0  0  1  0  0  0  0  0  0  0  0  0
   12.6288  -15.7101   23.4178 C   0  0  0  0  0  0  0  0  0  0  0  0
   12.8974  -15.7510   21.9657 C   0  0  0  0  0  0  0  0  0  0  0  0
   12.7853  -16.8213   21.1063 C   0  0  0  0  0  0  0  0  0  0  0  0
   13.1382  -16.4334   19.8525 N   0  0  0  0  0  0  0  0  0  0  0  0
   13.4653  -15.1378   19.9342 C   0  0  0  0  0  0  0  0  0  0  0  0
   13.3268  -14.7068   21.2009 N   0  0  0  0  0  0  0  0  0  0  0  0
   12.7671  -17.2416   25.3359 C   0  0  0  0  0  0  0  0  0  0  0  0
   13.9578  -17.5978   25.4708 O   0  0  0  0  0  0  0  0  0  0  0  0
   11.9674  -17.0284   26.4354 O   0  0  0  0  0  0  0  0  0  0  0  0
  2  1  1  0
  2  3  1  0
  3  5  1  0
  3  4  1  6
  5  6  1  1
  5  7  1  0
  7  8  2  0
  9  7  1  0
  9 10  1  0
 10 11  1  6
 12 11  1  0
 13 14  2  0
 13 10  1  0
 15 13  1  0
 16 15  1  0
 16 17  1  1
 18 22  1  0
 18 17  1  0
 19 18  2  0
 20 19  1  0
 20 21  1  0
 21 22  2  0
 23 16  1  0
 24 23  2  0
 25 23  1  0
M  END
$$$$
