ICH.pdb
     RDKit          3D

 25 25  0  0  1  0  0  0  0  0999 V2000
    7.1892  -16.4505   18.6191 C   0  0  0  0  0  0  0  0  0  0  0  0
    6.8742  -15.0775   19.1723 C   0  0  0  0  0  0  0  0  0  0  0  0
    7.4667  -15.0112   20.5597 C   0  0  2  0  0  0  0  0  0  0  0  0
    6.8464  -16.1375   21.3702 C   0  0  0  0  0  0  0  0  0  0  0  0
    7.1327  -13.7167   21.2612 C   0  0  2  0  0  0  0  0  0  0  0  0
    7.5259  -12.5950   20.4461 N   0  0  0  0  0  0  0  0  0  0  0  0
    7.8981  -13.7307   22.5579 C   0  0  0  0  0  0  0  0  0  0  0  0
    9.1328  -13.5098   22.5782 O   0  0  0  0  0  0  0  0  0  0  0  0
    7.2504  -13.9928   23.7930 N   0  0  0  0  0  0  0  0  0  0  0  0
    7.9546  -14.1315   25.0528 C   0  0  1  0  0  0  0  0  0  0  0  0
    7.1356  -13.5038   26.1664 C   0  0  0  0  0  0  0  0  0  0  0  0
    6.1286  -12.1514   25.5491 S   0  0  0  0  0  0  0  0  0  0  0  0
    8.2887  -15.5325   25.3562 C   0  0  0  0  0  0  0  0  0  0  0  0
    7.3630  -16.3805   25.4065 O   0  0  0  0  0  0  0  0  0  0  0  0
    9.6126  -15.9888   25.5986 N   0  0  0  0  0  0  0  0  0  0  0  0
    9.8857  -17.4025   25.9207 C   0  0  1  0  0  0  0  0  0  0  0  0
   11.2187  -17.7424   25.2942 C   0  0  0  0  0  0  0  0  0  0  0  0
   11.2159  -17.6421   23.8203 C   0  0  0  0  0  0  0  0  0  0  0  0
   10.2702  -18.1085   22.9344 C   0  0  0  0  0  0  0  0  0  0  0  0
   10.6573  -17.8170   21.6647 N   0  0  0  0  0  0  0  0  0  0  0  0
   11.8293  -17.1774   21.7629 C   0  0  0  0  0  0  0  0  0  0  0  0
   12.1840  -17.0616   23.0552 N   0  0  0  0  0  0  0  0  0  0  0  0
    9.9142  -17.6137   27.3740 C   0  0  0  0  0  0  0  0  0  0  0  0
    9.7497  -16.6422   28.1433 O   0  0  0  0  0  0  0  0  0  0  0  0
   10.1206  -18.8795   27.8729 O   0  0  0  0  0  0  0  0  0  0  0  0
  2  1  1  0
  2  3  1  0
  3  5  1  0
  3  4  1  1
  5  6  1  6
  5  7  1  0
  7  8  2  0
  9  7  1  0
  9 10  1  0
 10 11  1  1
 12 11  1  0
 13 14  2  0
 13 10  1  0
 15 13  1  0
 16 15  1  0
 16 17  1  1
 18 22  1  0
 18 17  1  0
 19 18  2  0
 20 19  1  0
 20 21  1  0
 21 22  2  0
 23 16  1  0
 24 23  2  0
 25 23  1  0
M  END
$$$$
