ICH.pdb
     RDKit          3D

 25 25  0  0  1  0  0  0  0  0999 V2000
    7.2615  -12.2494   19.3456 C   0  0  0  0  0  0  0  0  0  0  0  0
    8.1733  -13.4203   19.0490 C   0  0  0  0  0  0  0  0  0  0  0  0
    8.0408  -14.3887   20.2001 C   0  0  2  0  0  0  0  0  0  0  0  0
    8.4402  -13.6454   21.4643 C   0  0  0  0  0  0  0  0  0  0  0  0
    8.9707  -15.5700   20.0614 C   0  0  2  0  0  0  0  0  0  0  0  0
    8.5987  -16.3624   18.9164 N   0  0  0  0  0  0  0  0  0  0  0  0
    8.8319  -16.3667   21.3316 C   0  0  0  0  0  0  0  0  0  0  0  0
    8.1350  -17.4093   21.3639 O   0  0  0  0  0  0  0  0  0  0  0  0
    9.4821  -15.9657   22.5275 N   0  0  0  0  0  0  0  0  0  0  0  0
    9.4896  -16.7607   23.7401 C   0  0  1  0  0  0  0  0  0  0  0  0
   10.2787  -18.0368   23.5081 C   0  0  0  0  0  0  0  0  0  0  0  0
   10.3223  -19.0518   24.9886 S   0  0  0  0  0  0  0  0  0  0  0  0
   10.0070  -16.0122   24.8970 C   0  0  0  0  0  0  0  0  0  0  0  0
   11.1526  -15.5010   24.8268 O   0  0  0  0  0  0  0  0  0  0  0  0
    9.2788  -15.8309   26.1039 N   0  0  0  0  0  0  0  0  0  0  0  0
    9.8333  -15.0387   27.2183 C   0  0  1  0  0  0  0  0  0  0  0  0
    8.6587  -14.4117   27.9338 C   0  0  0  0  0  0  0  0  0  0  0  0
    7.8847  -13.4818   27.0861 C   0  0  0  0  0  0  0  0  0  0  0  0
    8.1817  -13.0339   25.8181 C   0  0  0  0  0  0  0  0  0  0  0  0
    7.2104  -12.1798   25.4011 N   0  0  0  0  0  0  0  0  0  0  0  0
    6.3219  -12.0993   26.3993 C   0  0  0  0  0  0  0  0  0  0  0  0
    6.7103  -12.8775   27.4254 N   0  0  0  0  0  0  0  0  0  0  0  0
   10.6158  -15.8870   28.1270 C   0  0  0  0  0  0  0  0  0  0  0  0
   11.1691  -15.3775   29.1255 O   0  0  0  0  0  0  0  0  0  0  0  0
   10.7304  -17.2340   27.8695 O   0  0  0  0  0  0  0  0  0  0  0  0
  2  1  1  0
  2  3  1  0
  3  5  1  0
  3  4  1  1
  5  6  1  6
  5  7  1  0
  7  8  2  0
  9  7  1  0
  9 10  1  0
 10 11  1  6
 12 11  1  0
 13 14  2  0
 13 10  1  0
 15 13  1  0
 16 15  1  0
 16 17  1  1
 18 22  1  0
 18 17  1  0
 19 18  2  0
 20 19  1  0
 20 21  1  0
 21 22  2  0
 23 16  1  0
 24 23  2  0
 25 23  1  0
M  END
$$$$
