ICH.pdb
     RDKit          3D

 25 25  0  0  1  0  0  0  0  0999 V2000
    7.1456  -12.4157   19.3927 C   0  0  0  0  0  0  0  0  0  0  0  0
    7.9457  -13.0434   18.2719 C   0  0  0  0  0  0  0  0  0  0  0  0
    9.0451  -13.8565   18.9128 C   0  0  2  0  0  0  0  0  0  0  0  0
    9.8589  -12.9109   19.7812 C   0  0  0  0  0  0  0  0  0  0  0  0
    9.9856  -14.4490   17.8911 C   0  0  2  0  0  0  0  0  0  0  0  0
    9.2361  -15.0608   16.8229 N   0  0  0  0  0  0  0  0  0  0  0  0
   10.8099  -15.4751   18.6227 C   0  0  0  0  0  0  0  0  0  0  0  0
   10.8795  -16.6575   18.2095 O   0  0  0  0  0  0  0  0  0  0  0  0
   11.5312  -15.1392   19.7976 N   0  0  0  0  0  0  0  0  0  0  0  0
   12.5254  -16.0046   20.4018 C   0  0  1  0  0  0  0  0  0  0  0  0
   13.6319  -16.2861   19.4011 C   0  0  0  0  0  0  0  0  0  0  0  0
   14.4766  -14.7751   18.9244 S   0  0  0  0  0  0  0  0  0  0  0  0
   13.0629  -15.4503   21.6549 C   0  0  0  0  0  0  0  0  0  0  0  0
   14.1966  -14.9087   21.6425 O   0  0  0  0  0  0  0  0  0  0  0  0
   12.3673  -15.4916   22.8934 N   0  0  0  0  0  0  0  0  0  0  0  0
   12.3433  -16.7170   23.7149 C   0  0  1  0  0  0  0  0  0  0  0  0
   11.3558  -17.6585   23.0642 C   0  0  0  0  0  0  0  0  0  0  0  0
   10.0284  -17.0508   22.8383 C   0  0  0  0  0  0  0  0  0  0  0  0
    9.2831  -16.2813   23.7038 C   0  0  0  0  0  0  0  0  0  0  0  0
    8.1140  -15.9315   23.1055 N   0  0  0  0  0  0  0  0  0  0  0  0
    8.1348  -16.4780   21.8836 C   0  0  0  0  0  0  0  0  0  0  0  0
    9.2814  -17.1577   21.7025 N   0  0  0  0  0  0  0  0  0  0  0  0
   13.6793  -17.3223   23.7939 C   0  0  0  0  0  0  0  0  0  0  0  0
   13.9991  -17.9848   24.8046 O   0  0  0  0  0  0  0  0  0  0  0  0
   14.5642  -17.1540   22.7534 O   0  0  0  0  0  0  0  0  0  0  0  0
  2  1  1  0
  2  3  1  0
  3  5  1  0
  3  4  1  1
  5  6  1  6
  5  7  1  0
  7  8  2  0
  9  7  1  0
  9 10  1  0
 10 11  1  6
 12 11  1  0
 13 14  2  0
 13 10  1  0
 15 13  1  0
 16 15  1  0
 16 17  1  6
 18 22  1  0
 18 17  1  0
 19 18  2  0
 20 19  1  0
 20 21  1  0
 21 22  2  0
 23 16  1  0
 24 23  2  0
 25 23  1  0
M  END
$$$$
