ICH.pdb
     RDKit          3D

 25 25  0  0  1  0  0  0  0  0999 V2000
    7.8785  -12.3419   18.2415 C   0  0  0  0  0  0  0  0  0  0  0  0
    7.4056  -13.6137   18.9118 C   0  0  0  0  0  0  0  0  0  0  0  0
    8.1918  -13.7589   20.1929 C   0  0  2  0  0  0  0  0  0  0  0  0
    9.6585  -13.8775   19.8121 C   0  0  0  0  0  0  0  0  0  0  0  0
    7.8220  -15.0118   20.9499 C   0  0  2  0  0  0  0  0  0  0  0  0
    6.4056  -15.0312   21.2152 N   0  0  0  0  0  0  0  0  0  0  0  0
    8.6068  -14.9748   22.2346 C   0  0  0  0  0  0  0  0  0  0  0  0
    8.2318  -14.2629   23.1969 O   0  0  0  0  0  0  0  0  0  0  0  0
    9.7904  -15.7405   22.3971 N   0  0  0  0  0  0  0  0  0  0  0  0
   10.5262  -15.8223   23.6439 C   0  0  1  0  0  0  0  0  0  0  0  0
    9.6363  -16.4122   24.7232 C   0  0  0  0  0  0  0  0  0  0  0  0
   10.5421  -16.6465   26.2557 S   0  0  0  0  0  0  0  0  0  0  0  0
   11.7789  -16.5828   23.5058 C   0  0  0  0  0  0  0  0  0  0  0  0
   11.7215  -17.8331   23.3964 O   0  0  0  0  0  0  0  0  0  0  0  0
   13.0654  -15.9794   23.4886 N   0  0  0  0  0  0  0  0  0  0  0  0
   14.2786  -16.7759   23.2227 C   0  0  1  0  0  0  0  0  0  0  0  0
   15.2120  -15.8949   22.4243 C   0  0  0  0  0  0  0  0  0  0  0  0
   14.6076  -15.3774   21.1796 C   0  0  0  0  0  0  0  0  0  0  0  0
   14.2821  -14.0768   20.8648 C   0  0  0  0  0  0  0  0  0  0  0  0
   13.7365  -14.0355   19.6208 N   0  0  0  0  0  0  0  0  0  0  0  0
   13.7241  -15.2961   19.1701 C   0  0  0  0  0  0  0  0  0  0  0  0
   14.2454  -16.1213   20.0956 N   0  0  0  0  0  0  0  0  0  0  0  0
   14.9056  -17.2121   24.4773 C   0  0  0  0  0  0  0  0  0  0  0  0
   14.4113  -16.8606   25.5704 O   0  0  0  0  0  0  0  0  0  0  0  0
   16.0302  -18.0042   24.4356 O   0  0  0  0  0  0  0  0  0  0  0  0
  2  1  1  0
  2  3  1  0
  3  5  1  0
  3  4  1  6
  5  6  1  1
  5  7  1  0
  7  8  2  0
  9  7  1  0
  9 10  1  0
 10 11  1  1
 12 11  1  0
 13 14  2  0
 13 10  1  0
 15 13  1  0
 16 15  1  0
 16 17  1  1
 18 22  1  0
 18 17  1  0
 19 18  2  0
 20 19  1  0
 20 21  1  0
 21 22  2  0
 23 16  1  0
 24 23  2  0
 25 23  1  0
M  END
$$$$
