ICH.pdb
     RDKit          3D

 25 25  0  0  1  0  0  0  0  0999 V2000
    7.9838  -11.9891   18.6800 C   0  0  0  0  0  0  0  0  0  0  0  0
    7.2185  -13.1251   19.3238 C   0  0  0  0  0  0  0  0  0  0  0  0
    8.0730  -13.6531   20.4514 C   0  0  2  0  0  0  0  0  0  0  0  0
    9.3783  -14.1367   19.8409 C   0  0  0  0  0  0  0  0  0  0  0  0
    7.4368  -14.8341   21.1441 C   0  0  2  0  0  0  0  0  0  0  0  0
    6.1137  -14.4885   21.5993 N   0  0  0  0  0  0  0  0  0  0  0  0
    8.3316  -15.1724   22.3070 C   0  0  0  0  0  0  0  0  0  0  0  0
    8.4128  -14.4093   23.2993 O   0  0  0  0  0  0  0  0  0  0  0  0
    9.1083  -16.3600   22.3178 N   0  0  0  0  0  0  0  0  0  0  0  0
   10.2085  -16.5889   23.2341 C   0  0  1  0  0  0  0  0  0  0  0  0
    9.8394  -17.6932   24.2083 C   0  0  0  0  0  0  0  0  0  0  0  0
   11.1486  -17.9673   25.4060 S   0  0  0  0  0  0  0  0  0  0  0  0
   11.4674  -16.8898   22.5332 C   0  0  0  0  0  0  0  0  0  0  0  0
   11.4218  -17.5130   21.4432 O   0  0  0  0  0  0  0  0  0  0  0  0
   12.7474  -16.5127   23.0221 N   0  0  0  0  0  0  0  0  0  0  0  0
   13.8930  -16.3400   22.1085 C   0  0  1  0  0  0  0  0  0  0  0  0
   13.5409  -15.2016   21.1786 C   0  0  0  0  0  0  0  0  0  0  0  0
   14.6083  -14.8873   20.2069 C   0  0  0  0  0  0  0  0  0  0  0  0
   15.8294  -15.5046   20.0503 C   0  0  0  0  0  0  0  0  0  0  0  0
   16.5169  -14.8989   19.0466 N   0  0  0  0  0  0  0  0  0  0  0  0
   15.7308  -13.9177   18.5867 C   0  0  0  0  0  0  0  0  0  0  0  0
   14.5745  -13.8937   19.2734 N   0  0  0  0  0  0  0  0  0  0  0  0
   15.1229  -16.0511   22.8577 C   0  0  0  0  0  0  0  0  0  0  0  0
   16.2112  -15.9622   22.2489 O   0  0  0  0  0  0  0  0  0  0  0  0
   15.0635  -15.8805   24.2219 O   0  0  0  0  0  0  0  0  0  0  0  0
  2  1  1  0
  2  3  1  0
  3  5  1  0
  3  4  1  6
  5  6  1  1
  5  7  1  0
  7  8  2  0
  9  7  1  0
  9 10  1  0
 10 11  1  1
 12 11  1  0
 13 14  2  0
 13 10  1  0
 15 13  1  0
 16 15  1  0
 16 17  1  6
 18 22  1  0
 18 17  1  0
 19 18  2  0
 20 19  1  0
 20 21  1  0
 21 22  2  0
 23 16  1  0
 24 23  2  0
 25 23  1  0
M  END
$$$$
