ICH.pdb
     RDKit          3D

 25 25  0  0  1  0  0  0  0  0999 V2000
    7.6141  -16.7205   16.7351 C   0  0  0  0  0  0  0  0  0  0  0  0
    7.2066  -15.3875   17.3247 C   0  0  0  0  0  0  0  0  0  0  0  0
    7.7994  -15.3158   18.7117 C   0  0  2  0  0  0  0  0  0  0  0  0
    7.1942  -16.4511   19.5210 C   0  0  0  0  0  0  0  0  0  0  0  0
    7.4494  -14.0267   19.4155 C   0  0  2  0  0  0  0  0  0  0  0  0
    7.9122  -12.8997   18.6455 N   0  0  0  0  0  0  0  0  0  0  0  0
    8.1359  -14.0782   20.7547 C   0  0  0  0  0  0  0  0  0  0  0  0
    9.3877  -14.0913   20.8356 O   0  0  0  0  0  0  0  0  0  0  0  0
    7.3924  -14.1135   21.9628 N   0  0  0  0  0  0  0  0  0  0  0  0
    8.0020  -14.1861   23.2764 C   0  0  1  0  0  0  0  0  0  0  0  0
    6.9899  -13.7771   24.3315 C   0  0  0  0  0  0  0  0  0  0  0  0
    7.6547  -13.9883   25.9859 S   0  0  0  0  0  0  0  0  0  0  0  0
    8.5651  -15.5162   23.5595 C   0  0  0  0  0  0  0  0  0  0  0  0
    7.8304  -16.5271   23.4292 O   0  0  0  0  0  0  0  0  0  0  0  0
    9.9070  -15.7278   23.9766 N   0  0  0  0  0  0  0  0  0  0  0  0
   10.3970  -17.0775   24.3162 C   0  0  1  0  0  0  0  0  0  0  0  0
   11.8168  -17.1669   23.8054 C   0  0  0  0  0  0  0  0  0  0  0  0
   11.9019  -17.3972   22.3486 C   0  0  0  0  0  0  0  0  0  0  0  0
   10.8728  -17.5667   21.4493 C   0  0  0  0  0  0  0  0  0  0  0  0
   11.3861  -17.7629   20.2063 N   0  0  0  0  0  0  0  0  0  0  0  0
   12.7179  -17.7156   20.3341 C   0  0  0  0  0  0  0  0  0  0  0  0
   13.0498  -17.4958   21.6190 N   0  0  0  0  0  0  0  0  0  0  0  0
   10.3401  -17.3072   25.7658 C   0  0  0  0  0  0  0  0  0  0  0  0
    9.9259  -16.4001   26.5198 O   0  0  0  0  0  0  0  0  0  0  0  0
   10.7426  -18.5194   26.2782 O   0  0  0  0  0  0  0  0  0  0  0  0
  2  1  1  0
  2  3  1  0
  3  5  1  0
  3  4  1  1
  5  6  1  6
  5  7  1  0
  7  8  2  0
  9  7  1  0
  9 10  1  0
 10 11  1  1
 12 11  1  0
 13 14  2  0
 13 10  1  0
 15 13  1  0
 16 15  1  0
 16 17  1  1
 18 22  1  0
 18 17  1  0
 19 18  2  0
 20 19  1  0
 20 21  1  0
 21 22  2  0
 23 16  1  0
 24 23  2  0
 25 23  1  0
M  END
$$$$
