ICH.pdb
     RDKit          3D

 25 25  0  0  1  0  0  0  0  0999 V2000
    6.9648  -16.0450   17.9060 C   0  0  0  0  0  0  0  0  0  0  0  0
    7.0239  -14.6628   18.5197 C   0  0  0  0  0  0  0  0  0  0  0  0
    7.5194  -14.8271   19.9367 C   0  0  2  0  0  0  0  0  0  0  0  0
    6.6021  -15.8259   20.6232 C   0  0  0  0  0  0  0  0  0  0  0  0
    7.4456  -13.5383   20.7196 C   0  0  2  0  0  0  0  0  0  0  0  0
    8.1557  -12.4943   20.0245 N   0  0  0  0  0  0  0  0  0  0  0  0
    8.0809  -13.8200   22.0554 C   0  0  0  0  0  0  0  0  0  0  0  0
    9.3265  -13.9175   22.1674 O   0  0  0  0  0  0  0  0  0  0  0  0
    7.2946  -13.9836   23.2253 N   0  0  0  0  0  0  0  0  0  0  0  0
    7.8566  -14.2120   24.5423 C   0  0  1  0  0  0  0  0  0  0  0  0
    6.8387  -13.8340   25.6034 C   0  0  0  0  0  0  0  0  0  0  0  0
    6.4515  -12.0820   25.5374 S   0  0  0  0  0  0  0  0  0  0  0  0
    8.3268  -15.5957   24.7180 C   0  0  0  0  0  0  0  0  0  0  0  0
    7.4829  -16.5015   24.9324 O   0  0  0  0  0  0  0  0  0  0  0  0
    9.6957  -15.9728   24.6588 N   0  0  0  0  0  0  0  0  0  0  0  0
   10.1289  -17.3346   25.0259 C   0  0  1  0  0  0  0  0  0  0  0  0
   11.5326  -17.5042   24.4914 C   0  0  0  0  0  0  0  0  0  0  0  0
   11.5950  -17.5624   23.0166 C   0  0  0  0  0  0  0  0  0  0  0  0
   11.0423  -16.6921   22.1035 C   0  0  0  0  0  0  0  0  0  0  0  0
   11.3273  -17.1166   20.8443 N   0  0  0  0  0  0  0  0  0  0  0  0
   12.0482  -18.2370   20.9758 C   0  0  0  0  0  0  0  0  0  0  0  0
   12.2209  -18.5233   22.2787 N   0  0  0  0  0  0  0  0  0  0  0  0
   10.0899  -17.5232   26.4820 C   0  0  0  0  0  0  0  0  0  0  0  0
    9.9600  -16.5306   27.2307 O   0  0  0  0  0  0  0  0  0  0  0  0
   10.1960  -18.7912   27.0062 O   0  0  0  0  0  0  0  0  0  0  0  0
  2  1  1  0
  2  3  1  0
  3  5  1  0
  3  4  1  1
  5  6  1  6
  5  7  1  0
  7  8  2  0
  9  7  1  0
  9 10  1  0
 10 11  1  1
 12 11  1  0
 13 14  2  0
 13 10  1  0
 15 13  1  0
 16 15  1  0
 16 17  1  1
 18 22  1  0
 18 17  1  0
 19 18  2  0
 20 19  1  0
 20 21  1  0
 21 22  2  0
 23 16  1  0
 24 23  2  0
 25 23  1  0
M  END
$$$$
