ICH.pdb
     RDKit          3D

 25 25  0  0  1  0  0  0  0  0999 V2000
    6.6502  -17.2658   18.9217 C   0  0  0  0  0  0  0  0  0  0  0  0
    6.7169  -15.7670   19.1211 C   0  0  0  0  0  0  0  0  0  0  0  0
    7.2944  -15.5274   20.4957 C   0  0  2  0  0  0  0  0  0  0  0  0
    6.4033  -16.2502   21.4926 C   0  0  0  0  0  0  0  0  0  0  0  0
    7.2905  -14.0644   20.8687 C   0  0  2  0  0  0  0  0  0  0  0  0
    8.0282  -13.3018   19.8934 N   0  0  0  0  0  0  0  0  0  0  0  0
    7.9417  -13.9734   22.2234 C   0  0  0  0  0  0  0  0  0  0  0  0
    9.1508  -14.2705   22.3770 O   0  0  0  0  0  0  0  0  0  0  0  0
    7.2121  -13.5507   23.3647 N   0  0  0  0  0  0  0  0  0  0  0  0
    7.7646  -13.5280   24.7051 C   0  0  1  0  0  0  0  0  0  0  0  0
    6.8415  -12.7478   25.6239 C   0  0  0  0  0  0  0  0  0  0  0  0
    7.4230  -12.7955   27.3219 S   0  0  0  0  0  0  0  0  0  0  0  0
    8.0244  -14.8797   25.2265 C   0  0  0  0  0  0  0  0  0  0  0  0
    7.0829  -15.7112   25.2546 O   0  0  0  0  0  0  0  0  0  0  0  0
    9.2925  -15.3056   25.7060 N   0  0  0  0  0  0  0  0  0  0  0  0
    9.4839  -16.6599   26.2593 C   0  0  1  0  0  0  0  0  0  0  0  0
   10.3738  -17.4046   25.2906 C   0  0  0  0  0  0  0  0  0  0  0  0
   10.7828  -18.7381   25.7772 C   0  0  0  0  0  0  0  0  0  0  0  0
   11.9963  -19.1193   26.3052 C   0  0  0  0  0  0  0  0  0  0  0  0
   11.9580  -20.4412   26.6185 N   0  0  0  0  0  0  0  0  0  0  0  0
   10.7349  -20.8739   26.2884 C   0  0  0  0  0  0  0  0  0  0  0  0
   10.0101  -19.8617   25.7789 N   0  0  0  0  0  0  0  0  0  0  0  0
   10.0893  -16.6001   27.5962 C   0  0  0  0  0  0  0  0  0  0  0  0
   10.6843  -15.5625   27.9596 O   0  0  0  0  0  0  0  0  0  0  0  0
    9.9939  -17.6871   28.4347 O   0  0  0  0  0  0  0  0  0  0  0  0
  2  1  1  0
  2  3  1  0
  3  5  1  0
  3  4  1  1
  5  6  1  6
  5  7  1  0
  7  8  2  0
  9  7  1  0
  9 10  1  0
 10 11  1  1
 12 11  1  0
 13 14  2  0
 13 10  1  0
 15 13  1  0
 16 15  1  0
 16 17  1  6
 18 22  1  0
 18 17  1  0
 19 18  2  0
 20 19  1  0
 20 21  1  0
 21 22  2  0
 23 16  1  0
 24 23  2  0
 25 23  1  0
M  END
$$$$
