ICH.pdb
     RDKit          3D

 25 25  0  0  1  0  0  0  0  0999 V2000
    7.3417  -13.5474   20.7202 C   0  0  0  0  0  0  0  0  0  0  0  0
    8.1614  -14.1800   19.6164 C   0  0  0  0  0  0  0  0  0  0  0  0
    9.3410  -13.2718   19.3633 C   0  0  2  0  0  0  0  0  0  0  0  0
    8.7942  -11.9614   18.8210 C   0  0  0  0  0  0  0  0  0  0  0  0
   10.2790  -13.8322   18.3214 C   0  0  2  0  0  0  0  0  0  0  0  0
    9.5597  -14.1075   17.1032 N   0  0  0  0  0  0  0  0  0  0  0  0
   10.8484  -15.0983   18.9046 C   0  0  0  0  0  0  0  0  0  0  0  0
   10.9163  -16.1477   18.2207 O   0  0  0  0  0  0  0  0  0  0  0  0
   11.3245  -15.1449   20.2406 N   0  0  0  0  0  0  0  0  0  0  0  0
   12.0836  -16.2554   20.7818 C   0  0  1  0  0  0  0  0  0  0  0  0
   13.5069  -16.2044   20.2560 C   0  0  0  0  0  0  0  0  0  0  0  0
   14.2827  -14.6298   20.6334 S   0  0  0  0  0  0  0  0  0  0  0  0
   12.0556  -16.2885   22.2531 C   0  0  0  0  0  0  0  0  0  0  0  0
   12.2370  -15.2198   22.8883 O   0  0  0  0  0  0  0  0  0  0  0  0
   11.8327  -17.4721   23.0074 N   0  0  0  0  0  0  0  0  0  0  0  0
   11.7905  -17.4410   24.4819 C   0  0  1  0  0  0  0  0  0  0  0  0
   10.4235  -17.9413   24.8893 C   0  0  0  0  0  0  0  0  0  0  0  0
    9.3149  -17.1966   24.2578 C   0  0  0  0  0  0  0  0  0  0  0  0
    9.0740  -15.8409   24.2819 C   0  0  0  0  0  0  0  0  0  0  0  0
    7.9403  -15.5705   23.5828 N   0  0  0  0  0  0  0  0  0  0  0  0
    7.4842  -16.7452   23.1308 C   0  0  0  0  0  0  0  0  0  0  0  0
    8.2993  -17.7391   23.5272 N   0  0  0  0  0  0  0  0  0  0  0  0
   12.8532  -18.2772   25.0553 C   0  0  0  0  0  0  0  0  0  0  0  0
   13.5994  -18.9344   24.2976 O   0  0  0  0  0  0  0  0  0  0  0  0
   13.0165  -18.3272   26.4208 O   0  0  0  0  0  0  0  0  0  0  0  0
  2  1  1  0
  2  3  1  0
  3  5  1  0
  3  4  1  6
  5  6  1  6
  5  7  1  0
  7  8  2  0
  9  7  1  0
  9 10  1  0
 10 11  1  1
 12 11  1  0
 13 14  2  0
 13 10  1  0
 15 13  1  0
 16 15  1  0
 16 17  1  6
 18 22  1  0
 18 17  1  0
 19 18  2  0
 20 19  1  0
 20 21  1  0
 21 22  2  0
 23 16  1  0
 24 23  2  0
 25 23  1  0
M  END
$$$$
