ICH.pdb
     RDKit          3D

 25 25  0  0  1  0  0  0  0  0999 V2000
    6.3173  -16.3145   20.0046 C   0  0  0  0  0  0  0  0  0  0  0  0
    7.4485  -15.4015   20.4257 C   0  0  0  0  0  0  0  0  0  0  0  0
    6.8334  -14.0708   20.7880 C   0  0  2  0  0  0  0  0  0  0  0  0
    6.2726  -13.4692   19.5097 C   0  0  0  0  0  0  0  0  0  0  0  0
    7.8541  -13.0997   21.3308 C   0  0  2  0  0  0  0  0  0  0  0  0
    8.9639  -12.9851   20.4185 N   0  0  0  0  0  0  0  0  0  0  0  0
    8.3048  -13.6585   22.6545 C   0  0  0  0  0  0  0  0  0  0  0  0
    9.4105  -14.2407   22.7638 O   0  0  0  0  0  0  0  0  0  0  0  0
    7.4968  -13.5449   23.8156 N   0  0  0  0  0  0  0  0  0  0  0  0
    7.8920  -14.0447   25.1180 C   0  0  1  0  0  0  0  0  0  0  0  0
    7.0287  -13.4074   26.1920 C   0  0  0  0  0  0  0  0  0  0  0  0
    6.4256  -11.7986   25.6708 S   0  0  0  0  0  0  0  0  0  0  0  0
    7.8438  -15.5139   25.1921 C   0  0  0  0  0  0  0  0  0  0  0  0
    7.0135  -16.1312   24.4792 O   0  0  0  0  0  0  0  0  0  0  0  0
    8.6912  -16.2856   26.0324 N   0  0  0  0  0  0  0  0  0  0  0  0
    9.3814  -17.4866   25.5244 C   0  0  1  0  0  0  0  0  0  0  0  0
   10.2520  -17.0350   24.3741 C   0  0  0  0  0  0  0  0  0  0  0  0
   11.0542  -18.1256   23.7831 C   0  0  0  0  0  0  0  0  0  0  0  0
   12.1529  -18.7628   24.3157 C   0  0  0  0  0  0  0  0  0  0  0  0
   12.5991  -19.7021   23.4407 N   0  0  0  0  0  0  0  0  0  0  0  0
   11.7863  -19.6474   22.3783 C   0  0  0  0  0  0  0  0  0  0  0  0
   10.8473  -18.7026   22.5650 N   0  0  0  0  0  0  0  0  0  0  0  0
   10.1842  -18.1169   26.5807 C   0  0  0  0  0  0  0  0  0  0  0  0
   10.2065  -19.3629   26.6800 O   0  0  0  0  0  0  0  0  0  0  0  0
   10.9040  -17.3286   27.4491 O   0  0  0  0  0  0  0  0  0  0  0  0
  2  1  1  0
  2  3  1  0
  3  5  1  0
  3  4  1  6
  5  6  1  6
  5  7  1  0
  7  8  2  0
  9  7  1  0
  9 10  1  0
 10 11  1  1
 12 11  1  0
 13 14  2  0
 13 10  1  0
 15 13  1  0
 16 15  1  0
 16 17  1  6
 18 22  1  0
 18 17  1  0
 19 18  2  0
 20 19  1  0
 20 21  1  0
 21 22  2  0
 23 16  1  0
 24 23  2  0
 25 23  1  0
M  END
$$$$
