ICH.pdb
     RDKit          3D

 25 25  0  0  1  0  0  0  0  0999 V2000
    7.7371  -16.3704   18.0810 C   0  0  0  0  0  0  0  0  0  0  0  0
    7.1412  -15.1587   18.7645 C   0  0  0  0  0  0  0  0  0  0  0  0
    7.8509  -15.0019   20.0882 C   0  0  2  0  0  0  0  0  0  0  0  0
    7.5862  -16.2626   20.8950 C   0  0  0  0  0  0  0  0  0  0  0  0
    7.3170  -13.8374   20.8871 C   0  0  2  0  0  0  0  0  0  0  0  0
    7.4177  -12.6217   20.1198 N   0  0  0  0  0  0  0  0  0  0  0  0
    8.1621  -13.7571   22.1308 C   0  0  0  0  0  0  0  0  0  0  0  0
    9.2661  -13.1614   22.1207 O   0  0  0  0  0  0  0  0  0  0  0  0
    7.7390  -14.3499   23.3487 N   0  0  0  0  0  0  0  0  0  0  0  0
    8.5297  -14.3342   24.5640 C   0  0  1  0  0  0  0  0  0  0  0  0
    7.8837  -13.4100   25.5806 C   0  0  0  0  0  0  0  0  0  0  0  0
    6.0992  -13.6084   25.5972 S   0  0  0  0  0  0  0  0  0  0  0  0
    8.7326  -15.6830   25.1172 C   0  0  0  0  0  0  0  0  0  0  0  0
    7.7431  -16.4493   25.2282 O   0  0  0  0  0  0  0  0  0  0  0  0
    9.9970  -16.1763   25.5387 N   0  0  0  0  0  0  0  0  0  0  0  0
   10.1627  -17.5748   25.9786 C   0  0  1  0  0  0  0  0  0  0  0  0
   11.5623  -17.9915   25.5882 C   0  0  0  0  0  0  0  0  0  0  0  0
   11.7808  -18.0143   24.1274 C   0  0  0  0  0  0  0  0  0  0  0  0
   10.8504  -18.1901   23.1274 C   0  0  0  0  0  0  0  0  0  0  0  0
   11.4724  -18.1542   21.9195 N   0  0  0  0  0  0  0  0  0  0  0  0
   12.7731  -17.9585   22.1684 C   0  0  0  0  0  0  0  0  0  0  0  0
   12.9803  -17.8713   23.4946 N   0  0  0  0  0  0  0  0  0  0  0  0
    9.9585  -17.6969   27.4280 C   0  0  0  0  0  0  0  0  0  0  0  0
    9.7248  -16.6741   28.1078 O   0  0  0  0  0  0  0  0  0  0  0  0
   10.0257  -18.9365   28.0219 O   0  0  0  0  0  0  0  0  0  0  0  0
  2  1  1  0
  2  3  1  0
  3  5  1  0
  3  4  1  1
  5  6  1  6
  5  7  1  0
  7  8  2  0
  9  7  1  0
  9 10  1  0
 10 11  1  1
 12 11  1  0
 13 14  2  0
 13 10  1  0
 15 13  1  0
 16 15  1  0
 16 17  1  1
 18 22  1  0
 18 17  1  0
 19 18  2  0
 20 19  1  0
 20 21  1  0
 21 22  2  0
 23 16  1  0
 24 23  2  0
 25 23  1  0
M  END
$$$$
