ICH.pdb
     RDKit          3D

 25 25  0  0  1  0  0  0  0  0999 V2000
    3.6004  -22.4137   22.9102 C   0  0  0  0  0  0  0  0  0  0  0  0
    3.3897  -21.3324   21.8723 C   0  0  0  0  0  0  0  0  0  0  0  0
    4.5731  -20.3983   21.9580 C   0  0  2  0  0  0  0  0  0  0  0  0
    4.4467  -19.6273   23.2619 C   0  0  0  0  0  0  0  0  0  0  0  0
    4.5832  -19.3864   20.8375 C   0  0  2  0  0  0  0  0  0  0  0  0
    4.6223  -20.0581   19.5630 N   0  0  0  0  0  0  0  0  0  0  0  0
    5.8174  -18.5475   21.0387 C   0  0  0  0  0  0  0  0  0  0  0  0
    6.9613  -19.0541   20.9467 O   0  0  0  0  0  0  0  0  0  0  0  0
    5.7267  -17.1633   21.3374 N   0  0  0  0  0  0  0  0  0  0  0  0
    6.8794  -16.3229   21.5969 C   0  0  1  0  0  0  0  0  0  0  0  0
    6.4900  -14.8631   21.4478 C   0  0  0  0  0  0  0  0  0  0  0  0
    7.8494  -13.7791   21.8960 S   0  0  0  0  0  0  0  0  0  0  0  0
    7.4793  -16.5868   22.9148 C   0  0  0  0  0  0  0  0  0  0  0  0
    6.7261  -16.6919   23.9150 O   0  0  0  0  0  0  0  0  0  0  0  0
    8.8772  -16.7316   23.1261 N   0  0  0  0  0  0  0  0  0  0  0  0
    9.4121  -17.1462   24.4372 C   0  0  1  0  0  0  0  0  0  0  0  0
    8.9008  -18.5454   24.6936 C   0  0  0  0  0  0  0  0  0  0  0  0
    9.3594  -19.1103   25.9792 C   0  0  0  0  0  0  0  0  0  0  0  0
   10.1260  -18.5077   26.9519 C   0  0  0  0  0  0  0  0  0  0  0  0
   10.3299  -19.3813   27.9727 N   0  0  0  0  0  0  0  0  0  0  0  0
    9.6971  -20.5121   27.6364 C   0  0  0  0  0  0  0  0  0  0  0  0
    9.1051  -20.3694   26.4371 N   0  0  0  0  0  0  0  0  0  0  0  0
   10.8804  -17.1099   24.4403 C   0  0  0  0  0  0  0  0  0  0  0  0
   11.4917  -16.7315   23.4176 O   0  0  0  0  0  0  0  0  0  0  0  0
   11.5673  -17.4920   25.5699 O   0  0  0  0  0  0  0  0  0  0  0  0
  2  1  1  0
  2  3  1  0
  3  5  1  0
  3  4  1  1
  5  6  1  6
  5  7  1  0
  7  8  2  0
  9  7  1  0
  9 10  1  0
 10 11  1  1
 12 11  1  0
 13 14  2  0
 13 10  1  0
 15 13  1  0
 16 15  1  0
 16 17  1  6
 18 22  1  0
 18 17  1  0
 19 18  2  0
 20 19  1  0
 20 21  1  0
 21 22  2  0
 23 16  1  0
 24 23  2  0
 25 23  1  0
M  END
$$$$
