HRL.pdb
     RDKit          3D

 30 30  0  0  1  0  0  0  0  0999 V2000
   25.9099  -20.7536  -18.4103 N   0  0  0  0  0  0  0  0  0  0  0  0
   25.9727  -19.7484  -17.3833 C   0  0  1  0  0  0  0  0  0  0  0  0
   24.6151  -19.0127  -17.3379 C   0  0  0  0  0  0  0  0  0  0  0  0
   24.5469  -18.0434  -18.4738 C   0  0  0  0  0  0  0  0  0  0  0  0
   24.8918  -16.7129  -18.4229 C   0  0  0  0  0  0  0  0  0  0  0  0
   24.6885  -16.1665  -19.6317 N   0  0  0  0  0  0  0  0  0  0  0  0
   24.2232  -17.1168  -20.4481 C   0  0  0  0  0  0  0  0  0  0  0  0
   24.1403  -18.2684  -19.7231 N   0  0  0  0  0  0  0  0  0  0  0  0
   26.1431  -20.4256  -16.0634 C   0  0  0  0  0  0  0  0  0  0  0  0
   25.4107  -21.3663  -15.6657 O   0  0  0  0  0  0  0  0  0  0  0  0
   32.5582  -22.5877  -10.9889 N   0  0  0  0  0  0  0  0  0  0  0  0
   31.7030  -22.1936   -9.9479 C   0  0  0  0  0  0  0  0  0  0  0  0
   32.0780  -22.3190   -8.7244 N   0  0  0  0  0  0  0  0  0  0  0  0
   30.4209  -21.6560  -10.2720 N   0  0  0  0  0  0  0  0  0  0  0  0
   30.2074  -21.1513  -11.6096 C   0  0  0  0  0  0  0  0  0  0  0  0
   28.8012  -20.6718  -11.8049 C   0  0  0  0  0  0  0  0  0  0  0  0
   28.6816  -20.1194  -13.2192 C   0  0  0  0  0  0  0  0  0  0  0  0
   27.3701  -20.5913  -13.8618 C   0  0  2  0  0  0  0  0  0  0  0  0
   27.1887  -20.0208  -15.1559 N   0  0  0  0  0  0  0  0  0  0  0  0
   26.3128  -20.1811  -12.8908 C   0  0  0  0  0  0  0  0  0  0  0  0
   26.0625  -18.9474  -12.7206 O   0  0  0  0  0  0  0  0  0  0  0  0
   31.4407  -22.0008   -7.9665 C   0  0  0  0  0  0  0  0  0  0  0  0
   21.8713  -19.4777  -12.7646 C   0  0  1  0  0  0  0  0  0  0  0  0
   22.5521  -20.7886  -12.6958 C   0  0  0  0  0  0  0  0  0  0  0  0
   21.6124  -21.9329  -13.1421 C   0  0  0  0  0  0  0  0  0  0  0  0
   23.2575  -21.1795  -11.4584 C   0  0  2  0  0  0  0  0  0  0  0  0
   24.5771  -20.5858  -11.1497 N   0  0  0  0  0  0  0  0  0  0  0  0
   25.5632  -21.1092  -12.1414 C   0  0  0  0  0  0  0  0  0  0  0  0
   25.1389  -20.7644   -9.8073 O   0  0  0  0  0  0  0  0  0  0  0  0
   26.2093  -21.5534   -9.4725 O   0  0  0  0  0  0  0  0  0  0  0  0
  2  1  1  6
  2  3  1  0
  2  9  1  0
  3  4  1  0
  4  8  1  0
  4  5  2  0
  5  6  1  0
  7  6  1  0
  8  7  2  0
  9 10  2  0
 12 11  1  0
 12 14  1  0
 13 12  2  0
 15 14  1  0
 15 16  1  0
 17 16  1  0
 18 17  1  1
 18 20  1  0
 19 18  1  0
 19  9  1  0
 20 21  2  0
 23 22  1  6
 23 25  1  0
 24 23  1  0
 26 25  1  6
 26 28  1  0
 27 26  1  0
 27 20  1  0
 28 30  2  0
 28 29  1  0
M  END
$$$$
