HRL.pdb
     RDKit          3D

 30 30  0  0  1  0  0  0  0  0999 V2000
   25.1339  -21.2888   -9.7164 N   0  0  0  0  0  0  0  0  0  0  0  0
   24.0987  -21.4977  -10.6930 C   0  0  1  0  0  0  0  0  0  0  0  0
   22.8796  -20.6324  -10.3035 C   0  0  0  0  0  0  0  0  0  0  0  0
   22.2528  -21.1991   -9.0705 C   0  0  0  0  0  0  0  0  0  0  0  0
   22.2365  -20.6098   -7.8278 C   0  0  0  0  0  0  0  0  0  0  0  0
   21.5919  -21.4193   -6.9732 N   0  0  0  0  0  0  0  0  0  0  0  0
   21.1990  -22.5074   -7.6423 C   0  0  0  0  0  0  0  0  0  0  0  0
   21.6120  -22.3599   -8.9332 N   0  0  0  0  0  0  0  0  0  0  0  0
   24.5816  -20.9966  -12.0140 C   0  0  0  0  0  0  0  0  0  0  0  0
   24.9436  -19.8103  -12.2167 O   0  0  0  0  0  0  0  0  0  0  0  0
   28.9647  -23.4116  -18.0967 N   0  0  0  0  0  0  0  0  0  0  0  0
   28.4756  -24.3645  -17.1893 C   0  0  0  0  0  0  0  0  0  0  0  0
   29.2773  -25.2169  -16.6565 N   0  0  0  0  0  0  0  0  0  0  0  0
   27.0835  -24.3679  -16.8732 N   0  0  0  0  0  0  0  0  0  0  0  0
   26.2295  -23.4025  -17.5278 C   0  0  0  0  0  0  0  0  0  0  0  0
   25.9937  -22.1969  -16.6696 C   0  0  0  0  0  0  0  0  0  0  0  0
   25.3761  -22.6633  -15.3578 C   0  0  0  0  0  0  0  0  0  0  0  0
   25.1201  -21.4619  -14.4376 C   0  0  2  0  0  0  0  0  0  0  0  0
   24.6593  -21.8773  -13.1538 N   0  0  0  0  0  0  0  0  0  0  0  0
   24.1199  -20.6356  -15.1763 C   0  0  0  0  0  0  0  0  0  0  0  0
   22.9008  -20.9922  -15.1916 O   0  0  0  0  0  0  0  0  0  0  0  0
   28.8905  -25.9451  -16.0225 C   0  0  0  0  0  0  0  0  0  0  0  0
   21.3684  -16.3488  -17.0032 C   0  0  1  0  0  0  0  0  0  0  0  0
   22.5781  -16.2832  -16.1551 C   0  0  0  0  0  0  0  0  0  0  0  0
   23.1452  -14.8457  -16.0968 C   0  0  0  0  0  0  0  0  0  0  0  0
   23.6786  -17.2424  -16.3799 C   0  0  2  0  0  0  0  0  0  0  0  0
   23.3746  -18.6823  -16.5319 N   0  0  0  0  0  0  0  0  0  0  0  0
   24.4647  -19.4577  -15.8682 C   0  0  0  0  0  0  0  0  0  0  0  0
   23.1791  -19.2280  -17.8786 O   0  0  0  0  0  0  0  0  0  0  0  0
   22.0118  -19.2180  -18.5980 O   0  0  0  0  0  0  0  0  0  0  0  0
  2  1  1  1
  2  3  1  0
  2  9  1  0
  3  4  1  0
  4  8  1  0
  4  5  2  0
  5  6  1  0
  7  6  1  0
  8  7  2  0
  9 10  2  0
 12 11  1  0
 12 14  1  0
 13 12  2  0
 15 14  1  0
 15 16  1  0
 17 16  1  0
 18 17  1  6
 18 20  1  0
 19 18  1  0
 19  9  1  0
 20 21  2  0
 23 22  1  1
 23 25  1  0
 24 23  1  0
 26 25  1  1
 26 28  1  0
 27 26  1  0
 27 20  1  0
 28 30  2  0
 28 29  1  0
M  END
$$$$
