HRL.pdb
     RDKit          3D

 30 30  0  0  1  0  0  0  0  0999 V2000
   23.6848  -21.8168  -12.8886 N   0  0  0  0  0  0  0  0  0  0  0  0
   23.9091  -20.7415  -11.9598 C   0  0  1  0  0  0  0  0  0  0  0  0
   22.6327  -20.5581  -11.1092 C   0  0  0  0  0  0  0  0  0  0  0  0
   21.5376  -20.0311  -11.9796 C   0  0  0  0  0  0  0  0  0  0  0  0
   21.5618  -18.8493  -12.6828 C   0  0  0  0  0  0  0  0  0  0  0  0
   20.3992  -18.7122  -13.3392 N   0  0  0  0  0  0  0  0  0  0  0  0
   19.6381  -19.7773  -13.0700 C   0  0  0  0  0  0  0  0  0  0  0  0
   20.3504  -20.5824  -12.2314 N   0  0  0  0  0  0  0  0  0  0  0  0
   25.0007  -21.1412  -11.0227 C   0  0  0  0  0  0  0  0  0  0  0  0
   24.8731  -22.0351  -10.1486 O   0  0  0  0  0  0  0  0  0  0  0  0
   31.9771  -22.3235   -9.4723 N   0  0  0  0  0  0  0  0  0  0  0  0
   32.2438  -22.6748  -10.8049 C   0  0  0  0  0  0  0  0  0  0  0  0
   33.4489  -22.9278  -11.1750 N   0  0  0  0  0  0  0  0  0  0  0  0
   31.1606  -22.7448  -11.7319 N   0  0  0  0  0  0  0  0  0  0  0  0
   29.8243  -22.4843  -11.2457 C   0  0  0  0  0  0  0  0  0  0  0  0
   29.2218  -21.2764  -11.8964 C   0  0  0  0  0  0  0  0  0  0  0  0
   28.7188  -20.3486  -10.7982 C   0  0  0  0  0  0  0  0  0  0  0  0
   27.3861  -20.8651  -10.2392 C   0  0  2  0  0  0  0  0  0  0  0  0
   26.2926  -20.5020  -11.0791 N   0  0  0  0  0  0  0  0  0  0  0  0
   27.2980  -20.2636   -8.8755 C   0  0  0  0  0  0  0  0  0  0  0  0
   26.6936  -19.1577   -8.7160 O   0  0  0  0  0  0  0  0  0  0  0  0
   33.6361  -23.1330  -12.1773 C   0  0  0  0  0  0  0  0  0  0  0  0
   29.5321  -21.1350   -3.0850 C   0  0  1  0  0  0  0  0  0  0  0  0
   28.6707  -20.4177   -4.0494 C   0  0  0  0  0  0  0  0  0  0  0  0
   27.2708  -20.1410   -3.4535 C   0  0  0  0  0  0  0  0  0  0  0  0
   28.5311  -20.9342   -5.4262 C   0  0  2  0  0  0  0  0  0  0  0  0
   27.9024  -20.0885   -6.4647 N   0  0  0  0  0  0  0  0  0  0  0  0
   27.8592  -20.8718   -7.7353 C   0  0  0  0  0  0  0  0  0  0  0  0
   28.4828  -18.7741   -6.7566 O   0  0  0  0  0  0  0  0  0  0  0  0
   28.0874  -17.5744   -6.2231 O   0  0  0  0  0  0  0  0  0  0  0  0
  2  1  1  6
  2  3  1  0
  2  9  1  0
  3  4  1  0
  4  8  1  0
  4  5  2  0
  5  6  1  0
  7  6  1  0
  8  7  2  0
  9 10  2  0
 12 11  1  0
 12 14  1  0
 13 12  2  0
 15 14  1  0
 15 16  1  0
 17 16  1  0
 18 17  1  6
 18 20  1  0
 19 18  1  0
 19  9  1  0
 20 21  2  0
 23 22  1  1
 23 25  1  0
 24 23  1  0
 26 25  1  1
 26 28  1  0
 27 26  1  0
 27 20  1  0
 28 30  2  0
 28 29  1  0
M  END
$$$$
