HRL.pdb
     RDKit          3D

 30 30  0  0  1  0  0  0  0  0999 V2000
   27.9211  -24.1654  -17.4458 N   0  0  0  0  0  0  0  0  0  0  0  0
   26.6454  -24.2377  -16.7851 C   0  0  1  0  0  0  0  0  0  0  0  0
   26.7130  -25.3505  -15.7157 C   0  0  0  0  0  0  0  0  0  0  0  0
   26.5888  -26.6805  -16.3866 C   0  0  0  0  0  0  0  0  0  0  0  0
   27.5380  -27.6759  -16.3902 C   0  0  0  0  0  0  0  0  0  0  0  0
   27.0732  -28.7147  -17.1016 N   0  0  0  0  0  0  0  0  0  0  0  0
   25.8532  -28.4033  -17.5495 C   0  0  0  0  0  0  0  0  0  0  0  0
   25.5661  -27.1477  -17.1025 N   0  0  0  0  0  0  0  0  0  0  0  0
   26.4107  -22.9536  -16.0603 C   0  0  0  0  0  0  0  0  0  0  0  0
   27.3149  -22.3190  -15.4610 O   0  0  0  0  0  0  0  0  0  0  0  0
   28.1451  -18.4080  -17.6997 N   0  0  0  0  0  0  0  0  0  0  0  0
   27.3993  -17.3234  -17.2121 C   0  0  0  0  0  0  0  0  0  0  0  0
   27.9569  -16.1746  -17.0615 N   0  0  0  0  0  0  0  0  0  0  0  0
   26.0225  -17.5196  -16.8899 N   0  0  0  0  0  0  0  0  0  0  0  0
   25.5638  -18.8662  -16.6331 C   0  0  0  0  0  0  0  0  0  0  0  0
   24.1230  -18.8937  -16.2223 C   0  0  0  0  0  0  0  0  0  0  0  0
   23.7051  -20.3492  -16.0588 C   0  0  0  0  0  0  0  0  0  0  0  0
   24.8083  -21.1384  -15.3409 C   0  0  2  0  0  0  0  0  0  0  0  0
   25.0958  -22.3623  -16.0134 N   0  0  0  0  0  0  0  0  0  0  0  0
   24.2792  -21.3428  -13.9598 C   0  0  0  0  0  0  0  0  0  0  0  0
   23.4081  -22.2430  -13.7491 O   0  0  0  0  0  0  0  0  0  0  0  0
   27.3813  -15.3741  -16.7304 C   0  0  0  0  0  0  0  0  0  0  0  0
   26.3580  -20.1298   -8.4669 C   0  0  1  0  0  0  0  0  0  0  0  0
   25.6364  -20.8468   -9.5402 C   0  0  0  0  0  0  0  0  0  0  0  0
   26.5764  -21.8103  -10.3015 C   0  0  0  0  0  0  0  0  0  0  0  0
   24.8203  -20.0831  -10.5057 C   0  0  2  0  0  0  0  0  0  0  0  0
   24.0439  -20.8036  -11.5387 N   0  0  0  0  0  0  0  0  0  0  0  0
   24.7059  -20.5759  -12.8576 C   0  0  0  0  0  0  0  0  0  0  0  0
   22.6152  -20.5092  -11.6865 O   0  0  0  0  0  0  0  0  0  0  0  0
   21.5832  -21.1502  -11.0507 O   0  0  0  0  0  0  0  0  0  0  0  0
  2  1  1  1
  2  3  1  0
  2  9  1  0
  3  4  1  0
  4  8  1  0
  4  5  2  0
  5  6  1  0
  7  6  1  0
  8  7  2  0
  9 10  2  0
 12 11  1  0
 12 14  1  0
 13 12  2  0
 15 14  1  0
 15 16  1  0
 17 16  1  0
 18 17  1  6
 18 20  1  0
 19 18  1  0
 19  9  1  0
 20 21  2  0
 23 22  1  1
 23 25  1  0
 24 23  1  0
 26 25  1  1
 26 28  1  0
 27 26  1  0
 27 20  1  0
 28 30  2  0
 28 29  1  0
M  END
$$$$
