HRL.pdb
     RDKit          3D

 30 30  0  0  1  0  0  0  0  0999 V2000
   20.6520  -18.8595  -18.1666 N   0  0  0  0  0  0  0  0  0  0  0  0
   21.5759  -19.4500  -17.2356 C   0  0  1  0  0  0  0  0  0  0  0  0
   22.2052  -18.3202  -16.3906 C   0  0  0  0  0  0  0  0  0  0  0  0
   23.1210  -17.5158  -17.2559 C   0  0  0  0  0  0  0  0  0  0  0  0
   22.8896  -16.2380  -17.7094 C   0  0  0  0  0  0  0  0  0  0  0  0
   23.9297  -15.8517  -18.4644 N   0  0  0  0  0  0  0  0  0  0  0  0
   24.8150  -16.8521  -18.5014 C   0  0  0  0  0  0  0  0  0  0  0  0
   24.3053  -17.8716  -17.7532 N   0  0  0  0  0  0  0  0  0  0  0  0
   20.8120  -20.3215  -16.2940 C   0  0  0  0  0  0  0  0  0  0  0  0
   19.7987  -19.9363  -15.6582 O   0  0  0  0  0  0  0  0  0  0  0  0
   22.0692  -28.8250  -13.9873 N   0  0  0  0  0  0  0  0  0  0  0  0
   20.9776  -28.4561  -13.1856 C   0  0  0  0  0  0  0  0  0  0  0  0
   20.4949  -29.2884  -12.3327 N   0  0  0  0  0  0  0  0  0  0  0  0
   20.4197  -27.1506  -13.3349 N   0  0  0  0  0  0  0  0  0  0  0  0
   21.1100  -26.2026  -14.1802 C   0  0  0  0  0  0  0  0  0  0  0  0
   20.4694  -24.8487  -14.1355 C   0  0  0  0  0  0  0  0  0  0  0  0
   21.2001  -23.9465  -15.1214 C   0  0  0  0  0  0  0  0  0  0  0  0
   20.5708  -22.5468  -15.1235 C   0  0  2  0  0  0  0  0  0  0  0  0
   21.2122  -21.6881  -16.0637 N   0  0  0  0  0  0  0  0  0  0  0  0
   20.7106  -22.0752  -13.7139 C   0  0  0  0  0  0  0  0  0  0  0  0
   21.8334  -21.6431  -13.3059 O   0  0  0  0  0  0  0  0  0  0  0  0
   19.6632  -29.0115  -11.7729 C   0  0  0  0  0  0  0  0  0  0  0  0
   21.1995  -19.6689   -9.3391 C   0  0  1  0  0  0  0  0  0  0  0  0
   20.5275  -19.1483  -10.5492 C   0  0  0  0  0  0  0  0  0  0  0  0
   19.2108  -18.4209  -10.1907 C   0  0  0  0  0  0  0  0  0  0  0  0
   20.3014  -20.0458  -11.7003 C   0  0  1  0  0  0  0  0  0  0  0  0
   19.8446  -21.4337  -11.4674 N   0  0  0  0  0  0  0  0  0  0  0  0
   19.6412  -22.0829  -12.7967 C   0  0  0  0  0  0  0  0  0  0  0  0
   18.6423  -21.6588  -10.6591 O   0  0  0  0  0  0  0  0  0  0  0  0
   17.3606  -21.7912  -11.1281 O   0  0  0  0  0  0  0  0  0  0  0  0
  2  1  1  6
  2  3  1  0
  2  9  1  0
  3  4  1  0
  4  8  1  0
  4  5  2  0
  5  6  1  0
  7  6  1  0
  8  7  2  0
  9 10  2  0
 12 11  1  0
 12 14  1  0
 13 12  2  0
 15 14  1  0
 15 16  1  0
 17 16  1  0
 18 17  1  1
 18 20  1  0
 19 18  1  0
 19  9  1  0
 20 21  2  0
 23 22  1  1
 23 25  1  0
 24 23  1  0
 26 25  1  1
 26 28  1  0
 27 26  1  0
 27 20  1  0
 28 30  2  0
 28 29  1  0
M  END
$$$$
