HRL.pdb
     RDKit          3D

 30 30  0  0  1  0  0  0  0  0999 V2000
   22.5529  -19.3235  -16.3528 N   0  0  0  0  0  0  0  0  0  0  0  0
   22.8072  -18.7941  -15.0397 C   0  0  1  0  0  0  0  0  0  0  0  0
   21.4902  -18.2038  -14.4889 C   0  0  0  0  0  0  0  0  0  0  0  0
   21.0981  -17.0251  -15.3205 C   0  0  0  0  0  0  0  0  0  0  0  0
   21.8110  -16.5081  -16.3770 C   0  0  0  0  0  0  0  0  0  0  0  0
   21.1499  -15.4485  -16.8682 N   0  0  0  0  0  0  0  0  0  0  0  0
   20.0356  -15.2801  -16.1497 C   0  0  0  0  0  0  0  0  0  0  0  0
   20.0151  -16.2574  -15.1994 N   0  0  0  0  0  0  0  0  0  0  0  0
   23.1881  -19.9209  -14.1371 C   0  0  0  0  0  0  0  0  0  0  0  0
   22.3525  -20.6551  -13.5522 O   0  0  0  0  0  0  0  0  0  0  0  0
   29.7437  -22.6910  -15.9261 N   0  0  0  0  0  0  0  0  0  0  0  0
   29.4336  -21.6024  -16.7563 C   0  0  0  0  0  0  0  0  0  0  0  0
   30.3002  -21.1706  -17.6023 N   0  0  0  0  0  0  0  0  0  0  0  0
   28.1488  -20.9904  -16.6434 N   0  0  0  0  0  0  0  0  0  0  0  0
   27.0927  -21.7292  -15.9889 C   0  0  0  0  0  0  0  0  0  0  0  0
   27.0756  -21.4827  -14.5109 C   0  0  0  0  0  0  0  0  0  0  0  0
   25.9201  -22.2742  -13.9124 C   0  0  0  0  0  0  0  0  0  0  0  0
   25.0032  -21.3437  -13.1069 C   0  0  2  0  0  0  0  0  0  0  0  0
   24.5748  -20.2301  -13.8875 N   0  0  0  0  0  0  0  0  0  0  0  0
   25.8245  -20.9455  -11.9254 C   0  0  0  0  0  0  0  0  0  0  0  0
   26.5456  -19.9015  -11.9864 O   0  0  0  0  0  0  0  0  0  0  0  0
   30.0350  -20.3981  -18.2463 C   0  0  0  0  0  0  0  0  0  0  0  0
   27.9382  -20.8610   -7.9670 C   0  0  2  0  0  0  0  0  0  0  0  0
   27.3647  -19.6282   -8.5482 C   0  0  0  0  0  0  0  0  0  0  0  0
   27.1913  -18.5294   -7.4740 C   0  0  0  0  0  0  0  0  0  0  0  0
   26.1432  -19.7119   -9.3745 C   0  0  2  0  0  0  0  0  0  0  0  0
   25.4101  -20.9936   -9.4690 N   0  0  0  0  0  0  0  0  0  0  0  0
   25.8393  -21.6805  -10.7235 C   0  0  0  0  0  0  0  0  0  0  0  0
   23.9445  -20.9770   -9.4344 O   0  0  0  0  0  0  0  0  0  0  0  0
   23.1487  -21.5026   -8.4492 O   0  0  0  0  0  0  0  0  0  0  0  0
  2  1  1  6
  2  3  1  0
  2  9  1  0
  3  4  1  0
  4  8  1  0
  4  5  2  0
  5  6  1  0
  7  6  1  0
  8  7  2  0
  9 10  2  0
 12 11  1  0
 12 14  1  0
 13 12  2  0
 15 14  1  0
 15 16  1  0
 17 16  1  0
 18 17  1  6
 18 20  1  0
 19 18  1  0
 19  9  1  0
 20 21  2  0
 23 22  1  6
 23 25  1  0
 24 23  1  0
 26 25  1  1
 26 28  1  0
 27 26  1  0
 27 20  1  0
 28 30  2  0
 28 29  1  0
M  END
$$$$
