HRL.pdb
     RDKit          3D

 30 30  0  0  1  0  0  0  0  0999 V2000
   26.1233  -17.1897  -18.2696 N   0  0  0  0  0  0  0  0  0  0  0  0
   26.3728  -18.1077  -17.1906 C   0  0  1  0  0  0  0  0  0  0  0  0
   27.3911  -17.4605  -16.2259 C   0  0  0  0  0  0  0  0  0  0  0  0
   28.6898  -17.2719  -16.9416 C   0  0  0  0  0  0  0  0  0  0  0  0
   29.6578  -18.2314  -17.1263 C   0  0  0  0  0  0  0  0  0  0  0  0
   30.6812  -17.6890  -17.8042 N   0  0  0  0  0  0  0  0  0  0  0  0
   30.3869  -16.4095  -18.0541 C   0  0  0  0  0  0  0  0  0  0  0  0
   29.1577  -16.1646  -17.5177 N   0  0  0  0  0  0  0  0  0  0  0  0
   25.1064  -18.2953  -16.4221 C   0  0  0  0  0  0  0  0  0  0  0  0
   24.4824  -17.3539  -15.8710 O   0  0  0  0  0  0  0  0  0  0  0  0
   19.3693  -23.6583  -14.8590 N   0  0  0  0  0  0  0  0  0  0  0  0
   18.4277  -22.7044  -15.2761 C   0  0  0  0  0  0  0  0  0  0  0  0
   17.2715  -22.6536  -14.7159 N   0  0  0  0  0  0  0  0  0  0  0  0
   18.7765  -21.8007  -16.3246 N   0  0  0  0  0  0  0  0  0  0  0  0
   20.1542  -21.7547  -16.7599 C   0  0  0  0  0  0  0  0  0  0  0  0
   20.9836  -20.8633  -15.8865 C   0  0  0  0  0  0  0  0  0  0  0  0
   22.3663  -20.7400  -16.5132 C   0  0  0  0  0  0  0  0  0  0  0  0
   23.2581  -19.8352  -15.6522 C   0  0  2  0  0  0  0  0  0  0  0  0
   24.5211  -19.6052  -16.2726 N   0  0  0  0  0  0  0  0  0  0  0  0
   23.3714  -20.5570  -14.3502 C   0  0  0  0  0  0  0  0  0  0  0  0
   23.9669  -21.6782  -14.3047 O   0  0  0  0  0  0  0  0  0  0  0  0
   16.5663  -21.9787  -15.0752 C   0  0  0  0  0  0  0  0  0  0  0  0
   26.0074  -21.4455  -11.6221 C   0  0  1  0  0  0  0  0  0  0  0  0
   25.2705  -20.2092  -11.2823 C   0  0  0  0  0  0  0  0  0  0  0  0
   26.0036  -19.4027  -10.1852 C   0  0  0  0  0  0  0  0  0  0  0  0
   23.8299  -20.2835  -10.9651 C   0  0  2  0  0  0  0  0  0  0  0  0
   22.8996  -20.9109  -11.9294 N   0  0  0  0  0  0  0  0  0  0  0  0
   22.8441  -20.0481  -13.1469 C   0  0  0  0  0  0  0  0  0  0  0  0
   21.5249  -21.1955  -11.5067 O   0  0  0  0  0  0  0  0  0  0  0  0
   21.1386  -22.1056  -10.5565 O   0  0  0  0  0  0  0  0  0  0  0  0
  2  1  1  6
  2  3  1  0
  2  9  1  0
  3  4  1  0
  4  8  1  0
  4  5  2  0
  5  6  1  0
  7  6  1  0
  8  7  2  0
  9 10  2  0
 12 11  1  0
 12 14  1  0
 13 12  2  0
 15 14  1  0
 15 16  1  0
 17 16  1  0
 18 17  1  6
 18 20  1  0
 19 18  1  0
 19  9  1  0
 20 21  2  0
 23 22  1  6
 23 25  1  0
 24 23  1  0
 26 25  1  6
 26 28  1  0
 27 26  1  0
 27 20  1  0
 28 30  2  0
 28 29  1  0
M  END
$$$$
