HRL.pdb
     RDKit          3D

 30 30  0  0  1  0  0  0  0  0999 V2000
   18.1428  -18.3500  -15.1151 N   0  0  0  0  0  0  0  0  0  0  0  0
   17.1421  -17.5027  -15.7067 C   0  0  1  0  0  0  0  0  0  0  0  0
   15.9042  -17.4923  -14.7826 C   0  0  0  0  0  0  0  0  0  0  0  0
   15.2439  -18.8322  -14.8361 C   0  0  0  0  0  0  0  0  0  0  0  0
   15.3242  -19.8121  -13.8742 C   0  0  0  0  0  0  0  0  0  0  0  0
   14.6096  -20.8741  -14.2773 N   0  0  0  0  0  0  0  0  0  0  0  0
   14.0781  -20.5928  -15.4708 C   0  0  0  0  0  0  0  0  0  0  0  0
   14.4761  -19.3322  -15.8043 N   0  0  0  0  0  0  0  0  0  0  0  0
   17.6648  -16.1046  -15.7469 C   0  0  0  0  0  0  0  0  0  0  0  0
   18.3136  -15.5783  -14.8081 O   0  0  0  0  0  0  0  0  0  0  0  0
   18.4081  -10.4721  -22.5522 N   0  0  0  0  0  0  0  0  0  0  0  0
   19.1047   -9.7999  -21.5356 C   0  0  0  0  0  0  0  0  0  0  0  0
   19.6606   -8.6660  -21.7774 N   0  0  0  0  0  0  0  0  0  0  0  0
   19.1826  -10.3950  -20.2404 N   0  0  0  0  0  0  0  0  0  0  0  0
   18.5421  -11.6744  -20.0341 C   0  0  0  0  0  0  0  0  0  0  0  0
   18.5973  -12.0984  -18.5979 C   0  0  0  0  0  0  0  0  0  0  0  0
   17.9381  -13.4667  -18.4827 C   0  0  0  0  0  0  0  0  0  0  0  0
   17.9699  -13.9478  -17.0257 C   0  0  2  0  0  0  0  0  0  0  0  0
   17.4442  -15.2672  -16.9006 N   0  0  0  0  0  0  0  0  0  0  0  0
   17.1712  -12.9294  -16.2814 C   0  0  0  0  0  0  0  0  0  0  0  0
   15.9098  -13.0569  -16.2030 O   0  0  0  0  0  0  0  0  0  0  0  0
   20.2056   -8.2006  -21.0237 C   0  0  0  0  0  0  0  0  0  0  0  0
   14.5385  -10.1444  -12.9638 C   0  0  1  0  0  0  0  0  0  0  0  0
   15.7777  -10.8386  -12.5526 C   0  0  0  0  0  0  0  0  0  0  0  0
   16.6929   -9.9085  -11.7226 C   0  0  0  0  0  0  0  0  0  0  0  0
   16.5825  -11.5534  -13.5640 C   0  0  1  0  0  0  0  0  0  0  0  0
   16.8716  -10.9039  -14.8616 N   0  0  0  0  0  0  0  0  0  0  0  0
   17.7557  -11.8149  -15.6480 C   0  0  0  0  0  0  0  0  0  0  0  0
   17.4714   -9.5661  -14.8673 O   0  0  0  0  0  0  0  0  0  0  0  0
   16.8204   -8.3824  -14.6320 O   0  0  0  0  0  0  0  0  0  0  0  0
  2  1  1  1
  2  3  1  0
  2  9  1  0
  3  4  1  0
  4  8  1  0
  4  5  2  0
  5  6  1  0
  7  6  1  0
  8  7  2  0
  9 10  2  0
 12 11  1  0
 12 14  1  0
 13 12  2  0
 15 14  1  0
 15 16  1  0
 17 16  1  0
 18 17  1  6
 18 20  1  0
 19 18  1  0
 19  9  1  0
 20 21  2  0
 23 22  1  1
 23 25  1  0
 24 23  1  0
 26 25  1  6
 26 28  1  0
 27 26  1  0
 27 20  1  0
 28 30  2  0
 28 29  1  0
M  END
$$$$
