HRL.pdb
     RDKit          3D

 30 30  0  0  1  0  0  0  0  0999 V2000
   22.2373  -12.6608  -16.2577 N   0  0  0  0  0  0  0  0  0  0  0  0
   23.0422  -11.4688  -16.2377 C   0  0  1  0  0  0  0  0  0  0  0  0
   24.1201  -11.5902  -17.3376 C   0  0  0  0  0  0  0  0  0  0  0  0
   25.0505  -12.7068  -16.9883 C   0  0  0  0  0  0  0  0  0  0  0  0
   25.1621  -13.9046  -17.6550 C   0  0  0  0  0  0  0  0  0  0  0  0
   26.0930  -14.6546  -17.0448 N   0  0  0  0  0  0  0  0  0  0  0  0
   26.5746  -13.9627  -16.0077 C   0  0  0  0  0  0  0  0  0  0  0  0
   25.9244  -12.7646  -15.9834 N   0  0  0  0  0  0  0  0  0  0  0  0
   22.1800  -10.3055  -16.6022 C   0  0  0  0  0  0  0  0  0  0  0  0
   22.6215   -9.1422  -16.7788 O   0  0  0  0  0  0  0  0  0  0  0  0
   17.4807  -14.0465  -14.8018 N   0  0  0  0  0  0  0  0  0  0  0  0
   16.5052  -13.1158  -15.1923 C   0  0  0  0  0  0  0  0  0  0  0  0
   15.3010  -13.2235  -14.7547 N   0  0  0  0  0  0  0  0  0  0  0  0
   16.8735  -12.0574  -16.0766 N   0  0  0  0  0  0  0  0  0  0  0  0
   18.0121  -12.2547  -16.9451 C   0  0  0  0  0  0  0  0  0  0  0  0
   18.2316  -11.0801  -17.8493 C   0  0  0  0  0  0  0  0  0  0  0  0
   18.4006   -9.8399  -16.9815 C   0  0  0  0  0  0  0  0  0  0  0  0
   19.8642   -9.3782  -16.9986 C   0  0  2  0  0  0  0  0  0  0  0  0
   20.7572  -10.4671  -16.7755 N   0  0  0  0  0  0  0  0  0  0  0  0
   19.9370   -8.3369  -15.9311 C   0  0  0  0  0  0  0  0  0  0  0  0
   19.9867   -8.6912  -14.7122 O   0  0  0  0  0  0  0  0  0  0  0  0
   14.5800  -12.5538  -15.0917 C   0  0  0  0  0  0  0  0  0  0  0  0
   20.7777   -3.0691  -14.1150 C   0  0  1  0  0  0  0  0  0  0  0  0
   21.7621   -4.1259  -14.4325 C   0  0  0  0  0  0  0  0  0  0  0  0
   23.1112   -3.5190  -14.8829 C   0  0  0  0  0  0  0  0  0  0  0  0
   21.3831   -5.2249  -15.3437 C   0  0  1  0  0  0  0  0  0  0  0  0
   20.1558   -6.0067  -15.0765 N   0  0  0  0  0  0  0  0  0  0  0  0
   19.9561   -6.9564  -16.2115 C   0  0  0  0  0  0  0  0  0  0  0  0
   18.8953   -5.2931  -14.8492 O   0  0  0  0  0  0  0  0  0  0  0  0
   18.4611   -4.7693  -13.6588 O   0  0  0  0  0  0  0  0  0  0  0  0
  2  1  1  6
  2  3  1  0
  2  9  1  0
  3  4  1  0
  4  8  1  0
  4  5  2  0
  5  6  1  0
  7  6  1  0
  8  7  2  0
  9 10  2  0
 12 11  1  0
 12 14  1  0
 13 12  2  0
 15 14  1  0
 15 16  1  0
 17 16  1  0
 18 17  1  1
 18 20  1  0
 19 18  1  0
 19  9  1  0
 20 21  2  0
 23 22  1  1
 23 25  1  0
 24 23  1  0
 26 25  1  1
 26 28  1  0
 27 26  1  0
 27 20  1  0
 28 30  2  0
 28 29  1  0
M  END
$$$$
