HRL.pdb
     RDKit          3D

 30 30  0  0  1  0  0  0  0  0999 V2000
   26.2544  -13.0955  -23.7062 N   0  0  0  0  0  0  0  0  0  0  0  0
   26.8935  -13.8097  -22.6336 C   0  0  1  0  0  0  0  0  0  0  0  0
   28.4177  -13.5799  -22.7353 C   0  0  0  0  0  0  0  0  0  0  0  0
   28.9475  -14.3334  -23.9126 C   0  0  0  0  0  0  0  0  0  0  0  0
   29.8749  -13.8716  -24.8173 C   0  0  0  0  0  0  0  0  0  0  0  0
   30.0941  -14.8242  -25.7370 N   0  0  0  0  0  0  0  0  0  0  0  0
   29.3289  -15.8785  -25.4386 C   0  0  0  0  0  0  0  0  0  0  0  0
   28.6273  -15.5639  -24.3128 N   0  0  0  0  0  0  0  0  0  0  0  0
   26.4514  -13.2170  -21.3364 C   0  0  0  0  0  0  0  0  0  0  0  0
   27.1891  -13.1367  -20.3222 O   0  0  0  0  0  0  0  0  0  0  0  0
   18.5454  -10.1623  -21.3410 N   0  0  0  0  0  0  0  0  0  0  0  0
   18.6730  -11.5085  -21.7178 C   0  0  0  0  0  0  0  0  0  0  0  0
   17.6646  -12.1381  -22.2075 N   0  0  0  0  0  0  0  0  0  0  0  0
   19.9329  -12.1579  -21.5481 N   0  0  0  0  0  0  0  0  0  0  0  0
   21.0319  -11.3910  -21.0062 C   0  0  0  0  0  0  0  0  0  0  0  0
   22.2647  -12.2268  -20.8411 C   0  0  0  0  0  0  0  0  0  0  0  0
   23.3263  -11.3745  -20.1581 C   0  0  0  0  0  0  0  0  0  0  0  0
   24.6067  -12.1940  -19.9469 C   0  0  2  0  0  0  0  0  0  0  0  0
   25.1169  -12.6916  -21.1818 N   0  0  0  0  0  0  0  0  0  0  0  0
   24.2014  -13.2788  -19.0045 C   0  0  0  0  0  0  0  0  0  0  0  0
   23.9374  -14.4360  -19.4571 O   0  0  0  0  0  0  0  0  0  0  0  0
   17.7858  -13.1253  -22.5120 C   0  0  0  0  0  0  0  0  0  0  0  0
   26.1783  -16.0462  -14.2360 C   0  0  1  0  0  0  0  0  0  0  0  0
   25.1047  -15.8450  -15.2328 C   0  0  0  0  0  0  0  0  0  0  0  0
   25.0846  -16.9881  -16.2742 C   0  0  0  0  0  0  0  0  0  0  0  0
   24.9842  -14.5439  -15.9214 C   0  0  2  0  0  0  0  0  0  0  0  0
   23.7927  -14.2635  -16.7526 N   0  0  0  0  0  0  0  0  0  0  0  0
   24.0970  -13.0819  -17.6134 C   0  0  0  0  0  0  0  0  0  0  0  0
   22.5054  -14.0289  -16.0912 O   0  0  0  0  0  0  0  0  0  0  0  0
   21.5784  -14.9820  -15.7557 O   0  0  0  0  0  0  0  0  0  0  0  0
  2  1  1  6
  2  3  1  0
  2  9  1  0
  3  4  1  0
  4  8  1  0
  4  5  2  0
  5  6  1  0
  7  6  1  0
  8  7  2  0
  9 10  2  0
 12 11  1  0
 12 14  1  0
 13 12  2  0
 15 14  1  0
 15 16  1  0
 17 16  1  0
 18 17  1  6
 18 20  1  0
 19 18  1  0
 19  9  1  0
 20 21  2  0
 23 22  1  1
 23 25  1  0
 24 23  1  0
 26 25  1  6
 26 28  1  0
 27 26  1  0
 27 20  1  0
 28 30  2  0
 28 29  1  0
M  END
$$$$
