HRL.pdb
     RDKit          3D

 30 30  0  0  1  0  0  0  0  0999 V2000
   23.2428  -30.9362  -19.3442 N   0  0  0  0  0  0  0  0  0  0  0  0
   23.7742  -31.0232  -18.0104 C   0  0  1  0  0  0  0  0  0  0  0  0
   22.6998  -31.6554  -17.0981 C   0  0  0  0  0  0  0  0  0  0  0  0
   21.6180  -30.6538  -16.8515 C   0  0  0  0  0  0  0  0  0  0  0  0
   20.4029  -30.6015  -17.4939 C   0  0  0  0  0  0  0  0  0  0  0  0
   19.7032  -29.5623  -17.0126 N   0  0  0  0  0  0  0  0  0  0  0  0
   20.4437  -28.9539  -16.0812 C   0  0  0  0  0  0  0  0  0  0  0  0
   21.6210  -29.6356  -15.9912 N   0  0  0  0  0  0  0  0  0  0  0  0
   24.9383  -31.9582  -18.0214 C   0  0  0  0  0  0  0  0  0  0  0  0
   25.0106  -32.9687  -18.7650 O   0  0  0  0  0  0  0  0  0  0  0  0
   32.9037  -31.9200  -15.7805 N   0  0  0  0  0  0  0  0  0  0  0  0
   32.7847  -32.8757  -16.8017 C   0  0  0  0  0  0  0  0  0  0  0  0
   33.6160  -33.8544  -16.8674 N   0  0  0  0  0  0  0  0  0  0  0  0
   31.7323  -32.7403  -17.7567 N   0  0  0  0  0  0  0  0  0  0  0  0
   30.5701  -31.9626  -17.3903 C   0  0  0  0  0  0  0  0  0  0  0  0
   29.6501  -32.7289  -16.4893 C   0  0  0  0  0  0  0  0  0  0  0  0
   28.3663  -31.9251  -16.3295 C   0  0  0  0  0  0  0  0  0  0  0  0
   27.2472  -32.5419  -17.1796 C   0  0  2  0  0  0  0  0  0  0  0  0
   26.0696  -31.7384  -17.1538 N   0  0  0  0  0  0  0  0  0  0  0  0
   27.0399  -33.8986  -16.5918 C   0  0  0  0  0  0  0  0  0  0  0  0
   26.5413  -34.0082  -15.4286 O   0  0  0  0  0  0  0  0  0  0  0  0
   33.5776  -34.4947  -17.6862 C   0  0  0  0  0  0  0  0  0  0  0  0
   25.8303  -38.3811  -14.4739 C   0  0  1  0  0  0  0  0  0  0  0  0
   25.2133  -37.7567  -15.6640 C   0  0  0  0  0  0  0  0  0  0  0  0
   25.0845  -38.7694  -16.8257 C   0  0  0  0  0  0  0  0  0  0  0  0
   25.7482  -36.4788  -16.1764 C   0  0  1  0  0  0  0  0  0  0  0  0
   27.1712  -36.3866  -16.5704 N   0  0  0  0  0  0  0  0  0  0  0  0
   27.3729  -35.0852  -17.2744 C   0  0  0  0  0  0  0  0  0  0  0  0
   27.7484  -37.4497  -17.3989 O   0  0  0  0  0  0  0  0  0  0  0  0
   28.0676  -37.3604  -18.7294 O   0  0  0  0  0  0  0  0  0  0  0  0
  2  1  1  6
  2  3  1  0
  2  9  1  0
  3  4  1  0
  4  8  1  0
  4  5  2  0
  5  6  1  0
  7  6  1  0
  8  7  2  0
  9 10  2  0
 12 11  1  0
 12 14  1  0
 13 12  2  0
 15 14  1  0
 15 16  1  0
 17 16  1  0
 18 17  1  1
 18 20  1  0
 19 18  1  0
 19  9  1  0
 20 21  2  0
 23 22  1  1
 23 25  1  0
 24 23  1  0
 26 25  1  1
 26 28  1  0
 27 26  1  0
 27 20  1  0
 28 30  2  0
 28 29  1  0
M  END
$$$$
