HRL.pdb
     RDKit          3D

 30 30  0  0  1  0  0  0  0  0999 V2000
   25.9241  -20.3317  -18.5933 N   0  0  0  0  0  0  0  0  0  0  0  0
   25.5143  -19.4322  -17.5482 C   0  0  1  0  0  0  0  0  0  0  0  0
   24.3960  -18.5208  -18.1006 C   0  0  0  0  0  0  0  0  0  0  0  0
   24.9860  -17.5705  -19.0921 C   0  0  0  0  0  0  0  0  0  0  0  0
   24.5862  -17.4141  -20.3989 C   0  0  0  0  0  0  0  0  0  0  0  0
   25.3545  -16.4782  -20.9776 N   0  0  0  0  0  0  0  0  0  0  0  0
   26.2317  -16.0370  -20.0710 C   0  0  0  0  0  0  0  0  0  0  0  0
   25.9946  -16.7175  -18.9136 N   0  0  0  0  0  0  0  0  0  0  0  0
   24.9137  -20.2319  -16.4395 C   0  0  0  0  0  0  0  0  0  0  0  0
   24.1318  -21.1983  -16.6247 O   0  0  0  0  0  0  0  0  0  0  0  0
   22.4880  -19.7525   -9.3594 N   0  0  0  0  0  0  0  0  0  0  0  0
   23.2035  -20.7256   -8.6440 C   0  0  0  0  0  0  0  0  0  0  0  0
   22.6594  -21.3158   -7.6397 N   0  0  0  0  0  0  0  0  0  0  0  0
   24.5346  -21.0434   -9.0503 N   0  0  0  0  0  0  0  0  0  0  0  0
   25.0866  -20.3504  -10.1925 C   0  0  0  0  0  0  0  0  0  0  0  0
   24.4096  -20.7530  -11.4673 C   0  0  0  0  0  0  0  0  0  0  0  0
   25.1157  -20.0514  -12.6201 C   0  0  0  0  0  0  0  0  0  0  0  0
   24.5187  -20.5041  -13.9596 C   0  0  2  0  0  0  0  0  0  0  0  0
   25.2127  -19.9248  -15.0622 N   0  0  0  0  0  0  0  0  0  0  0  0
   23.0872  -20.0861  -13.8876 C   0  0  0  0  0  0  0  0  0  0  0  0
   22.7825  -18.8630  -14.0456 O   0  0  0  0  0  0  0  0  0  0  0  0
   23.1797  -22.0782   -7.1602 C   0  0  0  0  0  0  0  0  0  0  0  0
   18.7758  -20.5685  -17.2751 C   0  0  1  0  0  0  0  0  0  0  0  0
   19.1740  -20.0303  -15.9565 C   0  0  0  0  0  0  0  0  0  0  0  0
   18.9805  -18.4973  -15.8944 C   0  0  0  0  0  0  0  0  0  0  0  0
   20.4908  -20.3879  -15.3910 C   0  0  2  0  0  0  0  0  0  0  0  0
   20.6394  -20.5495  -13.9279 N   0  0  0  0  0  0  0  0  0  0  0  0
   22.0374  -20.9956  -13.6513 C   0  0  0  0  0  0  0  0  0  0  0  0
   19.7234  -21.4464  -13.2164 O   0  0  0  0  0  0  0  0  0  0  0  0
   19.9926  -22.7283  -12.8108 O   0  0  0  0  0  0  0  0  0  0  0  0
  2  1  1  6
  2  3  1  0
  2  9  1  0
  3  4  1  0
  4  8  1  0
  4  5  2  0
  5  6  1  0
  7  6  1  0
  8  7  2  0
  9 10  2  0
 12 11  1  0
 12 14  1  0
 13 12  2  0
 15 14  1  0
 15 16  1  0
 17 16  1  0
 18 17  1  1
 18 20  1  0
 19 18  1  0
 19  9  1  0
 20 21  2  0
 23 22  1  1
 23 25  1  0
 24 23  1  0
 26 25  1  1
 26 28  1  0
 27 26  1  0
 27 20  1  0
 28 30  2  0
 28 29  1  0
M  END
$$$$
