HRL.pdb
     RDKit          3D

 30 30  0  0  1  0  0  0  0  0999 V2000
   26.4543  -22.3891  -12.7519 N   0  0  0  0  0  0  0  0  0  0  0  0
   25.9397  -21.1021  -12.3674 C   0  0  1  0  0  0  0  0  0  0  0  0
   27.1096  -20.0933  -12.3557 C   0  0  0  0  0  0  0  0  0  0  0  0
   28.1079  -20.5153  -11.3262 C   0  0  0  0  0  0  0  0  0  0  0  0
   29.4207  -20.8504  -11.5627 C   0  0  0  0  0  0  0  0  0  0  0  0
   29.9991  -21.1833  -10.3983 N   0  0  0  0  0  0  0  0  0  0  0  0
   29.0861  -21.0681   -9.4291 C   0  0  0  0  0  0  0  0  0  0  0  0
   27.9253  -20.6560  -10.0133 N   0  0  0  0  0  0  0  0  0  0  0  0
   24.9798  -20.6406  -13.4138 C   0  0  0  0  0  0  0  0  0  0  0  0
   25.2270  -20.6725  -14.6456 O   0  0  0  0  0  0  0  0  0  0  0  0
   19.3053  -23.2532  -12.5718 N   0  0  0  0  0  0  0  0  0  0  0  0
   19.3170  -22.9890  -11.1932 C   0  0  0  0  0  0  0  0  0  0  0  0
   19.1726  -23.9508  -10.3522 N   0  0  0  0  0  0  0  0  0  0  0  0
   19.4908  -21.6438  -10.7481 N   0  0  0  0  0  0  0  0  0  0  0  0
   19.7479  -20.6220  -11.7379 C   0  0  0  0  0  0  0  0  0  0  0  0
   21.0826  -20.8067  -12.3936 C   0  0  0  0  0  0  0  0  0  0  0  0
   21.3030  -19.6451  -13.3538 C   0  0  0  0  0  0  0  0  0  0  0  0
   22.6901  -19.7512  -14.0021 C   0  0  2  0  0  0  0  0  0  0  0  0
   23.6840  -20.1221  -13.0495 N   0  0  0  0  0  0  0  0  0  0  0  0
   22.9264  -18.4015  -14.5951 C   0  0  0  0  0  0  0  0  0  0  0  0
   22.8944  -17.3744  -13.8483 O   0  0  0  0  0  0  0  0  0  0  0  0
   19.0990  -23.7279   -9.3389 C   0  0  0  0  0  0  0  0  0  0  0  0
   26.0393  -15.5325  -15.1340 C   0  0  2  0  0  0  0  0  0  0  0  0
   25.9830  -16.6536  -16.0966 C   0  0  0  0  0  0  0  0  0  0  0  0
   27.2938  -16.7611  -16.9101 C   0  0  0  0  0  0  0  0  0  0  0  0
   24.8240  -16.7776  -17.0039 C   0  0  2  0  0  0  0  0  0  0  0  0
   23.4558  -16.8153  -16.4422 N   0  0  0  0  0  0  0  0  0  0  0  0
   23.1899  -18.2051  -15.9651 C   0  0  0  0  0  0  0  0  0  0  0  0
   22.3311  -16.3974  -17.2848 O   0  0  0  0  0  0  0  0  0  0  0  0
   21.2583  -17.1694  -17.6500 O   0  0  0  0  0  0  0  0  0  0  0  0
  2  1  1  6
  2  3  1  0
  2  9  1  0
  3  4  1  0
  4  8  1  0
  4  5  2  0
  5  6  1  0
  7  6  1  0
  8  7  2  0
  9 10  2  0
 12 11  1  0
 12 14  1  0
 13 12  2  0
 15 14  1  0
 15 16  1  0
 17 16  1  0
 18 17  1  1
 18 20  1  0
 19 18  1  0
 19  9  1  0
 20 21  2  0
 23 22  1  1
 23 25  1  0
 24 23  1  0
 26 25  1  1
 26 28  1  0
 27 26  1  0
 27 20  1  0
 28 30  2  0
 28 29  1  0
M  END
$$$$
