HRL.pdb
     RDKit          3D

 30 30  0  0  1  0  0  0  0  0999 V2000
   17.0118  -11.7549  -15.0796 N   0  0  0  0  0  0  0  0  0  0  0  0
   17.5191  -10.8661  -16.0905 C   0  0  1  0  0  0  0  0  0  0  0  0
   16.5333   -9.6863  -16.2412 C   0  0  0  0  0  0  0  0  0  0  0  0
   15.2631  -10.1863  -16.8504 C   0  0  0  0  0  0  0  0  0  0  0  0
   14.0387  -10.2522  -16.2273 C   0  0  0  0  0  0  0  0  0  0  0  0
   13.1427  -10.7626  -17.0862 N   0  0  0  0  0  0  0  0  0  0  0  0
   13.7679  -11.0224  -18.2386 C   0  0  0  0  0  0  0  0  0  0  0  0
   15.0736  -10.6631  -18.0807 N   0  0  0  0  0  0  0  0  0  0  0  0
   18.8127  -10.2920  -15.6146 C   0  0  0  0  0  0  0  0  0  0  0  0
   18.9543   -9.7283  -14.5003 O   0  0  0  0  0  0  0  0  0  0  0  0
   26.7582  -12.7168  -16.2916 N   0  0  0  0  0  0  0  0  0  0  0  0
   27.0399  -11.3797  -15.9700 C   0  0  0  0  0  0  0  0  0  0  0  0
   28.2396  -11.0292  -15.6684 N   0  0  0  0  0  0  0  0  0  0  0  0
   25.9776  -10.4262  -15.9845 N   0  0  0  0  0  0  0  0  0  0  0  0
   24.6958  -10.8359  -16.5128 C   0  0  0  0  0  0  0  0  0  0  0  0
   23.7142   -9.7039  -16.5298 C   0  0  0  0  0  0  0  0  0  0  0  0
   22.3737  -10.2469  -17.0072 C   0  0  0  0  0  0  0  0  0  0  0  0
   21.2582   -9.8252  -16.0412 C   0  0  2  0  0  0  0  0  0  0  0  0
   19.9969  -10.3606  -16.4355 N   0  0  0  0  0  0  0  0  0  0  0  0
   21.2910   -8.3328  -16.0658 C   0  0  0  0  0  0  0  0  0  0  0  0
   20.9410   -7.7153  -17.1194 O   0  0  0  0  0  0  0  0  0  0  0  0
   28.4202  -10.0468  -15.3786 C   0  0  0  0  0  0  0  0  0  0  0  0
   20.3659   -3.3332  -14.1372 C   0  0  1  0  0  0  0  0  0  0  0  0
   19.9505   -4.1983  -15.2623 C   0  0  0  0  0  0  0  0  0  0  0  0
   18.4521   -4.0069  -15.5937 C   0  0  0  0  0  0  0  0  0  0  0  0
   20.2719   -5.6396  -15.2305 C   0  0  2  0  0  0  0  0  0  0  0  0
   21.6798   -6.0725  -15.0921 N   0  0  0  0  0  0  0  0  0  0  0  0
   21.6955   -7.5598  -14.9595 C   0  0  0  0  0  0  0  0  0  0  0  0
   22.4927   -5.5077  -14.0105 O   0  0  0  0  0  0  0  0  0  0  0  0
   22.7547   -6.0946  -12.7992 O   0  0  0  0  0  0  0  0  0  0  0  0
  2  1  1  1
  2  3  1  0
  2  9  1  0
  3  4  1  0
  4  8  1  0
  4  5  2  0
  5  6  1  0
  7  6  1  0
  8  7  2  0
  9 10  2  0
 12 11  1  0
 12 14  1  0
 13 12  2  0
 15 14  1  0
 15 16  1  0
 17 16  1  0
 18 17  1  6
 18 20  1  0
 19 18  1  0
 19  9  1  0
 20 21  2  0
 23 22  1  6
 23 25  1  0
 24 23  1  0
 26 25  1  6
 26 28  1  0
 27 26  1  0
 27 20  1  0
 28 30  2  0
 28 29  1  0
M  END
$$$$
