HLY.pdb
     RDKit          3D

 31 32  0  0  1  0  0  0  0  0999 V2000
   10.0775  -19.0891   18.9205 N   0  0  0  0  0  0  0  0  0  0  0  0
    9.2245  -18.6351   20.0001 C   0  0  1  0  0  0  0  0  0  0  0  0
    9.2709  -19.6702   21.0983 C   0  0  0  0  0  0  0  0  0  0  0  0
    8.8023  -20.9541   20.5056 C   0  0  0  0  0  0  0  0  0  0  0  0
    8.4980  -21.1815   19.1796 C   0  0  0  0  0  0  0  0  0  0  0  0
    8.1081  -22.4820   19.0471 N   0  0  0  0  0  0  0  0  0  0  0  0
    8.1681  -23.0510   20.2618 C   0  0  0  0  0  0  0  0  0  0  0  0
    8.5840  -22.1289   21.1255 N   0  0  0  0  0  0  0  0  0  0  0  0
    9.6587  -17.3003   20.4461 C   0  0  0  0  0  0  0  0  0  0  0  0
   10.8596  -16.9953   20.3951 O   0  0  0  0  0  0  0  0  0  0  0  0
    6.0850  -12.9107   20.0757 C   0  0  0  0  0  0  0  0  0  0  0  0
    7.3340  -13.7548   19.9622 C   0  0  1  0  0  0  0  0  0  0  0  0
    8.3080  -13.2724   18.9508 C   0  0  0  0  0  0  0  0  0  0  0  0
    8.0053  -14.0106   21.2807 C   0  0  0  0  0  0  0  0  0  0  0  0
    9.1103  -14.9876   21.2510 C   0  0  2  0  0  0  0  0  0  0  0  0
    8.7261  -16.3336   20.9422 N   0  0  0  0  0  0  0  0  0  0  0  0
    9.9313  -15.0034   22.4909 C   0  0  0  0  0  0  0  0  0  0  0  0
   10.4905  -13.9407   22.8337 O   0  0  0  0  0  0  0  0  0  0  0  0
   10.8696  -15.1444   30.9683 O   0  0  0  0  0  0  0  0  0  0  0  0
   10.5551  -15.2414   29.6264 C   0  0  0  0  0  0  0  0  0  0  0  0
   10.5534  -14.0989   28.8609 C   0  0  0  0  0  0  0  0  0  0  0  0
   10.2478  -14.1424   27.5229 C   0  0  0  0  0  0  0  0  0  0  0  0
    9.9358  -15.3593   26.9345 C   0  0  0  0  0  0  0  0  0  0  0  0
    9.6099  -15.3823   25.4906 C   0  0  0  0  0  0  0  0  0  0  0  0
   10.6279  -16.1033   24.6720 C   0  0  2  0  0  0  0  0  0  0  0  0
   10.1192  -16.1291   23.2993 N   0  0  0  0  0  0  0  0  0  0  0  0
   11.0163  -17.4235   25.1492 C   0  0  0  0  0  0  0  0  0  0  0  0
   12.0429  -17.5576   26.0690 O   0  0  0  0  0  0  0  0  0  0  0  0
    9.9420  -16.4960   27.7158 C   0  0  0  0  0  0  0  0  0  0  0  0
   10.2455  -16.4711   29.0569 C   0  0  0  0  0  0  0  0  0  0  0  0
   10.4576  -18.4901   24.7638 O   0  0  0  0  0  0  0  0  0  0  0  0
  2  3  1  0
  2  1  1  6
  3  4  1  0
  4  5  2  0
  5  6  1  0
  7  6  1  0
  8  4  1  0
  8  7  2  0
  9 16  1  0
  9  2  1  0
 10  9  2  0
 12 11  1  1
 12 13  1  0
 12 14  1  0
 15 14  1  1
 15 16  1  0
 17 18  2  0
 17 15  1  0
 19 20  1  0
 20 21  2  0
 21 22  1  0
 23 24  1  0
 23 22  2  0
 25 26  1  0
 25 24  1  1
 26 17  1  0
 27 25  1  0
 28 27  1  0
 29 23  1  0
 30 29  2  0
 30 20  1  0
 31 27  2  0
M  END
$$$$
