HLY.pdb
     RDKit          3D

 31 32  0  0  1  0  0  0  0  0999 V2000
    9.3499  -19.7170   18.1342 N   0  0  0  0  0  0  0  0  0  0  0  0
    8.7950  -19.3637   19.4252 C   0  0  1  0  0  0  0  0  0  0  0  0
    9.2876  -20.3710   20.4363 C   0  0  0  0  0  0  0  0  0  0  0  0
    8.4400  -21.5869   20.2868 C   0  0  0  0  0  0  0  0  0  0  0  0
    7.0822  -21.6145   20.0456 C   0  0  0  0  0  0  0  0  0  0  0  0
    6.6863  -22.9181   19.9765 N   0  0  0  0  0  0  0  0  0  0  0  0
    7.7719  -23.6843   20.1701 C   0  0  0  0  0  0  0  0  0  0  0  0
    8.8138  -22.8782   20.3545 N   0  0  0  0  0  0  0  0  0  0  0  0
    9.1671  -17.9788   19.7615 C   0  0  0  0  0  0  0  0  0  0  0  0
   10.3033  -17.5637   19.4885 O   0  0  0  0  0  0  0  0  0  0  0  0
    8.2930  -12.6749   20.4749 C   0  0  0  0  0  0  0  0  0  0  0  0
    7.8740  -13.5144   21.6602 C   0  0  1  0  0  0  0  0  0  0  0  0
    6.8287  -12.8922   22.5112 C   0  0  0  0  0  0  0  0  0  0  0  0
    7.5062  -14.9236   21.2951 C   0  0  0  0  0  0  0  0  0  0  0  0
    8.6130  -15.7570   20.7879 C   0  0  2  0  0  0  0  0  0  0  0  0
    8.2466  -17.0877   20.4010 N   0  0  0  0  0  0  0  0  0  0  0  0
    9.7763  -15.8369   21.7110 C   0  0  0  0  0  0  0  0  0  0  0  0
   10.6918  -14.9994   21.5694 O   0  0  0  0  0  0  0  0  0  0  0  0
   10.2307  -14.1753   30.0478 O   0  0  0  0  0  0  0  0  0  0  0  0
   10.0685  -14.5111   28.7175 C   0  0  0  0  0  0  0  0  0  0  0  0
    9.0500  -13.9237   28.0041 C   0  0  0  0  0  0  0  0  0  0  0  0
    8.8472  -14.2240   26.6796 C   0  0  0  0  0  0  0  0  0  0  0  0
    9.6840  -15.1349   26.0516 C   0  0  0  0  0  0  0  0  0  0  0  0
    9.4467  -15.4430   24.6232 C   0  0  0  0  0  0  0  0  0  0  0  0
   10.3566  -16.5002   24.0933 C   0  0  2  0  0  0  0  0  0  0  0  0
    9.9138  -16.7875   22.7276 N   0  0  0  0  0  0  0  0  0  0  0  0
   10.4829  -17.7031   24.9048 C   0  0  0  0  0  0  0  0  0  0  0  0
    9.5253  -18.7005   24.8260 O   0  0  0  0  0  0  0  0  0  0  0  0
   10.7007  -15.7153   26.7808 C   0  0  0  0  0  0  0  0  0  0  0  0
   10.9185  -15.4266   28.1077 C   0  0  0  0  0  0  0  0  0  0  0  0
   11.4427  -17.9007   25.7036 O   0  0  0  0  0  0  0  0  0  0  0  0
  2  3  1  0
  2  1  1  6
  3  4  1  0
  4  5  2  0
  5  6  1  0
  7  6  1  0
  8  4  1  0
  8  7  2  0
  9 16  1  0
  9  2  1  0
 10  9  2  0
 12 11  1  6
 12 13  1  0
 12 14  1  0
 15 14  1  1
 15 16  1  0
 17 18  2  0
 17 15  1  0
 19 20  1  0
 20 21  2  0
 21 22  1  0
 23 24  1  0
 23 22  2  0
 25 26  1  0
 25 24  1  1
 26 17  1  0
 27 25  1  0
 28 27  1  0
 29 23  1  0
 30 29  2  0
 30 20  1  0
 31 27  2  0
M  END
$$$$
