HLY.pdb
     RDKit          3D

 31 32  0  0  1  0  0  0  0  0999 V2000
    7.9118  -15.9560   18.8770 N   0  0  0  0  0  0  0  0  0  0  0  0
    7.5706  -16.5309   20.1625 C   0  0  1  0  0  0  0  0  0  0  0  0
    7.8633  -18.0109   20.1042 C   0  0  0  0  0  0  0  0  0  0  0  0
    6.9494  -18.5948   19.0829 C   0  0  0  0  0  0  0  0  0  0  0  0
    6.0821  -17.8993   18.2663 C   0  0  0  0  0  0  0  0  0  0  0  0
    5.4267  -18.7968   17.4753 N   0  0  0  0  0  0  0  0  0  0  0  0
    5.8751  -20.0223   17.7917 C   0  0  0  0  0  0  0  0  0  0  0  0
    6.7846  -19.8895   18.7533 N   0  0  0  0  0  0  0  0  0  0  0  0
    8.3140  -15.8369   21.2280 C   0  0  0  0  0  0  0  0  0  0  0  0
    9.4964  -15.5126   21.0420 O   0  0  0  0  0  0  0  0  0  0  0  0
    5.7452  -12.9622   25.5227 C   0  0  0  0  0  0  0  0  0  0  0  0
    6.7272  -13.2539   24.4110 C   0  0  1  0  0  0  0  0  0  0  0  0
    7.5272  -12.0805   23.9783 C   0  0  0  0  0  0  0  0  0  0  0  0
    7.6088  -14.4376   24.6869 C   0  0  0  0  0  0  0  0  0  0  0  0
    8.4316  -14.8942   23.5506 C   0  0  2  0  0  0  0  0  0  0  0  0
    7.7060  -15.5218   22.4856 N   0  0  0  0  0  0  0  0  0  0  0  0
    9.5573  -15.7834   23.9434 C   0  0  0  0  0  0  0  0  0  0  0  0
    9.4129  -17.0132   23.7816 O   0  0  0  0  0  0  0  0  0  0  0  0
   11.2085  -16.1981   32.1871 O   0  0  0  0  0  0  0  0  0  0  0  0
   10.9526  -15.9616   30.8501 C   0  0  0  0  0  0  0  0  0  0  0  0
   11.0252  -14.6718   30.3785 C   0  0  0  0  0  0  0  0  0  0  0  0
   10.7798  -14.3847   29.0583 C   0  0  0  0  0  0  0  0  0  0  0  0
   10.4532  -15.4133   28.1867 C   0  0  0  0  0  0  0  0  0  0  0  0
   10.1930  -15.0803   26.7679 C   0  0  0  0  0  0  0  0  0  0  0  0
   11.2362  -15.6096   25.8415 C   0  0  2  0  0  0  0  0  0  0  0  0
   10.7673  -15.3343   24.4821 N   0  0  0  0  0  0  0  0  0  0  0  0
   11.6144  -17.0033   26.0310 C   0  0  0  0  0  0  0  0  0  0  0  0
   10.6772  -18.0088   25.8613 O   0  0  0  0  0  0  0  0  0  0  0  0
   10.3845  -16.7014   28.6752 C   0  0  0  0  0  0  0  0  0  0  0  0
   10.6271  -17.0072   29.9939 C   0  0  0  0  0  0  0  0  0  0  0  0
   12.7824  -17.3653   26.3518 O   0  0  0  0  0  0  0  0  0  0  0  0
  2  3  1  0
  2  1  1  6
  3  4  1  0
  4  5  2  0
  5  6  1  0
  7  6  1  0
  8  4  1  0
  8  7  2  0
  9 16  1  0
  9  2  1  0
 10  9  2  0
 12 11  1  1
 12 13  1  0
 12 14  1  0
 15 14  1  1
 15 16  1  0
 17 18  2  0
 17 15  1  0
 19 20  1  0
 20 21  2  0
 21 22  1  0
 23 24  1  0
 23 22  2  0
 25 26  1  0
 25 24  1  1
 26 17  1  0
 27 25  1  0
 28 27  1  0
 29 23  1  0
 30 29  2  0
 30 20  1  0
 31 27  2  0
M  END
$$$$
