HLY.pdb
     RDKit          3D

 31 32  0  0  1  0  0  0  0  0999 V2000
    9.1239  -16.1851   18.9942 N   0  0  0  0  0  0  0  0  0  0  0  0
    8.3473  -16.6233   20.1363 C   0  0  1  0  0  0  0  0  0  0  0  0
    8.5616  -18.1083   20.3043 C   0  0  0  0  0  0  0  0  0  0  0  0
    7.8906  -18.7772   19.1547 C   0  0  0  0  0  0  0  0  0  0  0  0
    6.7046  -18.3951   18.5631 C   0  0  0  0  0  0  0  0  0  0  0  0
    6.4337  -19.2644   17.5473 N   0  0  0  0  0  0  0  0  0  0  0  0
    7.4275  -20.1665   17.5073 C   0  0  0  0  0  0  0  0  0  0  0  0
    8.2922  -19.8656   18.4722 N   0  0  0  0  0  0  0  0  0  0  0  0
    8.7345  -15.8458   21.3258 C   0  0  0  0  0  0  0  0  0  0  0  0
    9.9309  -15.5941   21.5334 O   0  0  0  0  0  0  0  0  0  0  0  0
    8.0586  -11.7808   24.9749 C   0  0  0  0  0  0  0  0  0  0  0  0
    7.3221  -13.0695   25.2617 C   0  0  1  0  0  0  0  0  0  0  0  0
    6.1371  -12.9134   26.1424 C   0  0  0  0  0  0  0  0  0  0  0  0
    6.9785  -13.8500   24.0259 C   0  0  0  0  0  0  0  0  0  0  0  0
    8.1115  -14.5300   23.3697 C   0  0  2  0  0  0  0  0  0  0  0  0
    7.7607  -15.3666   22.2599 N   0  0  0  0  0  0  0  0  0  0  0  0
    8.9626  -15.3153   24.3028 C   0  0  0  0  0  0  0  0  0  0  0  0
    8.5484  -16.4356   24.6674 O   0  0  0  0  0  0  0  0  0  0  0  0
   11.1324  -16.5950   32.0197 O   0  0  0  0  0  0  0  0  0  0  0  0
   11.2022  -16.0824   30.7386 C   0  0  0  0  0  0  0  0  0  0  0  0
   11.9076  -16.7763   29.7835 C   0  0  0  0  0  0  0  0  0  0  0  0
   12.0067  -16.3090   28.4962 C   0  0  0  0  0  0  0  0  0  0  0  0
   11.3847  -15.1171   28.1542 C   0  0  0  0  0  0  0  0  0  0  0  0
   11.5048  -14.6328   26.7605 C   0  0  0  0  0  0  0  0  0  0  0  0
   11.0251  -15.6234   25.7530 C   0  0  2  0  0  0  0  0  0  0  0  0
   10.1965  -14.8831   24.7997 N   0  0  0  0  0  0  0  0  0  0  0  0
   10.3514  -16.8013   26.2825 C   0  0  0  0  0  0  0  0  0  0  0  0
    9.0422  -16.7149   26.7257 O   0  0  0  0  0  0  0  0  0  0  0  0
   10.6811  -14.4331   29.1234 C   0  0  0  0  0  0  0  0  0  0  0  0
   10.5713  -14.8861   30.4174 C   0  0  0  0  0  0  0  0  0  0  0  0
   10.9047  -17.9349   26.3666 O   0  0  0  0  0  0  0  0  0  0  0  0
  2  3  1  0
  2  1  1  6
  3  4  1  0
  4  5  2  0
  5  6  1  0
  7  6  1  0
  8  4  1  0
  8  7  2  0
  9 16  1  0
  9  2  1  0
 10  9  2  0
 12 11  1  6
 12 13  1  0
 12 14  1  0
 15 14  1  1
 15 16  1  0
 17 18  2  0
 17 15  1  0
 19 20  1  0
 20 21  2  0
 21 22  1  0
 23 24  1  0
 23 22  2  0
 25 26  1  0
 25 24  1  1
 26 17  1  0
 27 25  1  0
 28 27  1  0
 29 23  1  0
 30 29  2  0
 30 20  1  0
 31 27  2  0
M  END
$$$$
