HLY.pdb
     RDKit          3D

 31 32  0  0  1  0  0  0  0  0999 V2000
    8.2759  -17.8264   20.8559 N   0  0  0  0  0  0  0  0  0  0  0  0
    9.6107  -17.4013   20.4856 C   0  0  1  0  0  0  0  0  0  0  0  0
    9.6185  -17.1288   19.0006 C   0  0  0  0  0  0  0  0  0  0  0  0
    9.3385  -18.4238   18.3196 C   0  0  0  0  0  0  0  0  0  0  0  0
    9.1065  -19.6380   18.9317 C   0  0  0  0  0  0  0  0  0  0  0  0
    8.8927  -20.5724   17.9612 N   0  0  0  0  0  0  0  0  0  0  0  0
    8.9892  -19.9549   16.7728 C   0  0  0  0  0  0  0  0  0  0  0  0
    9.2557  -18.6715   16.9991 N   0  0  0  0  0  0  0  0  0  0  0  0
    9.9977  -16.2295   21.2897 C   0  0  0  0  0  0  0  0  0  0  0  0
   11.1428  -15.7646   21.1876 O   0  0  0  0  0  0  0  0  0  0  0  0
    5.9280  -13.1823   23.2132 C   0  0  0  0  0  0  0  0  0  0  0  0
    7.1795  -13.6533   22.5079 C   0  0  1  0  0  0  0  0  0  0  0  0
    7.3869  -13.0543   21.1655 C   0  0  0  0  0  0  0  0  0  0  0  0
    8.4185  -13.5398   23.3483 C   0  0  0  0  0  0  0  0  0  0  0  0
    9.4736  -14.5299   23.0599 C   0  0  2  0  0  0  0  0  0  0  0  0
    9.0818  -15.6042   22.1956 N   0  0  0  0  0  0  0  0  0  0  0  0
   10.1031  -15.1083   24.2768 C   0  0  0  0  0  0  0  0  0  0  0  0
   10.2515  -14.3623   25.2674 O   0  0  0  0  0  0  0  0  0  0  0  0
   11.2154  -14.6287   31.4920 O   0  0  0  0  0  0  0  0  0  0  0  0
   10.8516  -15.1626   30.2707 C   0  0  0  0  0  0  0  0  0  0  0  0
   11.0095  -16.5129   30.0632 C   0  0  0  0  0  0  0  0  0  0  0  0
   10.6629  -17.0917   28.8672 C   0  0  0  0  0  0  0  0  0  0  0  0
   10.1452  -16.3006   27.8521 C   0  0  0  0  0  0  0  0  0  0  0  0
    9.7784  -16.9463   26.5714 C   0  0  0  0  0  0  0  0  0  0  0  0
   10.9319  -17.0878   25.6356 C   0  0  2  0  0  0  0  0  0  0  0  0
   10.5404  -16.4322   24.3864 N   0  0  0  0  0  0  0  0  0  0  0  0
   11.4246  -18.4423   25.4256 C   0  0  0  0  0  0  0  0  0  0  0  0
   12.3642  -18.9834   26.2872 O   0  0  0  0  0  0  0  0  0  0  0  0
    9.9931  -14.9481   28.0758 C   0  0  0  0  0  0  0  0  0  0  0  0
   10.3347  -14.3516   29.2671 C   0  0  0  0  0  0  0  0  0  0  0  0
   11.0365  -19.1796   24.4747 O   0  0  0  0  0  0  0  0  0  0  0  0
  2  3  1  0
  2  1  1  1
  3  4  1  0
  4  5  2  0
  5  6  1  0
  7  6  1  0
  8  4  1  0
  8  7  2  0
  9 16  1  0
  9  2  1  0
 10  9  2  0
 12 11  1  1
 12 13  1  0
 12 14  1  0
 15 14  1  1
 15 16  1  0
 17 18  2  0
 17 15  1  0
 19 20  1  0
 20 21  2  0
 21 22  1  0
 23 24  1  0
 23 22  2  0
 25 26  1  0
 25 24  1  1
 26 17  1  0
 27 25  1  0
 28 27  1  0
 29 23  1  0
 30 29  2  0
 30 20  1  0
 31 27  2  0
M  END
$$$$
