HLY.pdb
     RDKit          3D

 31 32  0  0  1  0  0  0  0  0999 V2000
    9.7718  -13.9722   20.6373 N   0  0  0  0  0  0  0  0  0  0  0  0
    8.5286  -14.2643   21.3219 C   0  0  1  0  0  0  0  0  0  0  0  0
    7.8454  -15.3927   20.5873 C   0  0  0  0  0  0  0  0  0  0  0  0
    7.5577  -14.9035   19.2100 C   0  0  0  0  0  0  0  0  0  0  0  0
    7.3209  -13.5967   18.8375 C   0  0  0  0  0  0  0  0  0  0  0  0
    7.1007  -13.5686   17.4916 N   0  0  0  0  0  0  0  0  0  0  0  0
    7.1979  -14.8282   17.0366 C   0  0  0  0  0  0  0  0  0  0  0  0
    7.4712  -15.6172   18.0720 N   0  0  0  0  0  0  0  0  0  0  0  0
    8.8034  -14.5777   22.7346 C   0  0  0  0  0  0  0  0  0  0  0  0
    9.8957  -15.0702   23.0541 O   0  0  0  0  0  0  0  0  0  0  0  0
    5.6144  -12.0294   26.6845 C   0  0  0  0  0  0  0  0  0  0  0  0
    6.8429  -12.4830   25.9294 C   0  0  1  0  0  0  0  0  0  0  0  0
    8.0562  -11.6679   26.1895 C   0  0  0  0  0  0  0  0  0  0  0  0
    7.1325  -13.9483   26.0829 C   0  0  0  0  0  0  0  0  0  0  0  0
    8.1374  -14.4973   25.1526 C   0  0  2  0  0  0  0  0  0  0  0  0
    7.8370  -14.3281   23.7613 N   0  0  0  0  0  0  0  0  0  0  0  0
    8.4618  -15.9282   25.3952 C   0  0  0  0  0  0  0  0  0  0  0  0
    7.5955  -16.7799   25.1060 O   0  0  0  0  0  0  0  0  0  0  0  0
   11.4915  -18.1958   20.2585 O   0  0  0  0  0  0  0  0  0  0  0  0
   11.4097  -18.2181   21.6376 C   0  0  0  0  0  0  0  0  0  0  0  0
   12.0491  -17.2353   22.3563 C   0  0  0  0  0  0  0  0  0  0  0  0
   11.9980  -17.2133   23.7284 C   0  0  0  0  0  0  0  0  0  0  0  0
   11.2895  -18.1991   24.3997 C   0  0  0  0  0  0  0  0  0  0  0  0
   11.2479  -18.1551   25.8788 C   0  0  0  0  0  0  0  0  0  0  0  0
    9.9181  -17.7423   26.4151 C   0  0  2  0  0  0  0  0  0  0  0  0
    9.6728  -16.3843   25.9259 N   0  0  0  0  0  0  0  0  0  0  0  0
    9.7445  -17.8571   27.8567 C   0  0  0  0  0  0  0  0  0  0  0  0
    9.8937  -19.0844   28.4809 O   0  0  0  0  0  0  0  0  0  0  0  0
   10.6537  -19.1776   23.6644 C   0  0  0  0  0  0  0  0  0  0  0  0
   10.6942  -19.2153   22.2902 C   0  0  0  0  0  0  0  0  0  0  0  0
    9.4560  -16.8751   28.5988 O   0  0  0  0  0  0  0  0  0  0  0  0
  2  3  1  0
  2  1  1  6
  3  4  1  0
  4  5  2  0
  5  6  1  0
  7  6  1  0
  8  4  1  0
  8  7  2  0
  9 16  1  0
  9  2  1  0
 10  9  2  0
 12 11  1  1
 12 13  1  0
 12 14  1  0
 15 14  1  1
 15 16  1  0
 17 18  2  0
 17 15  1  0
 19 20  1  0
 20 21  2  0
 21 22  1  0
 23 24  1  0
 23 22  2  0
 25 26  1  0
 25 24  1  1
 26 17  1  0
 27 25  1  0
 28 27  1  0
 29 23  1  0
 30 29  2  0
 30 20  1  0
 31 27  2  0
M  END
$$$$
