HLY.pdb
     RDKit          3D

 31 32  0  0  1  0  0  0  0  0999 V2000
   10.0525  -16.4822   20.5139 N   0  0  0  0  0  0  0  0  0  0  0  0
    9.0989  -16.7885   21.5609 C   0  0  1  0  0  0  0  0  0  0  0  0
    9.2688  -18.2409   21.9365 C   0  0  0  0  0  0  0  0  0  0  0  0
    8.7180  -19.0480   20.8120 C   0  0  0  0  0  0  0  0  0  0  0  0
    7.6745  -18.6929   19.9829 C   0  0  0  0  0  0  0  0  0  0  0  0
    7.4790  -19.7012   19.0852 N   0  0  0  0  0  0  0  0  0  0  0  0
    8.3795  -20.6617   19.3491 C   0  0  0  0  0  0  0  0  0  0  0  0
    9.1144  -20.2606   20.3827 N   0  0  0  0  0  0  0  0  0  0  0  0
    9.2986  -15.8714   22.6960 C   0  0  0  0  0  0  0  0  0  0  0  0
   10.4487  -15.5664   23.0453 O   0  0  0  0  0  0  0  0  0  0  0  0
    8.4377  -11.7421   26.0741 C   0  0  0  0  0  0  0  0  0  0  0  0
    7.3893  -12.8258   26.1817 C   0  0  1  0  0  0  0  0  0  0  0  0
    6.0734  -12.3558   26.6834 C   0  0  0  0  0  0  0  0  0  0  0  0
    7.2322  -13.6332   24.9256 C   0  0  0  0  0  0  0  0  0  0  0  0
    8.3704  -14.5092   24.5880 C   0  0  2  0  0  0  0  0  0  0  0  0
    8.1929  -15.3153   23.4161 N   0  0  0  0  0  0  0  0  0  0  0  0
    8.8027  -15.3896   25.7059 C   0  0  0  0  0  0  0  0  0  0  0  0
    8.0635  -16.3483   26.0126 O   0  0  0  0  0  0  0  0  0  0  0  0
   13.1200  -19.4009   22.8791 O   0  0  0  0  0  0  0  0  0  0  0  0
   12.7919  -18.6687   24.0039 C   0  0  0  0  0  0  0  0  0  0  0  0
   13.2173  -17.3640   24.0940 C   0  0  0  0  0  0  0  0  0  0  0  0
   12.9174  -16.5945   25.1910 C   0  0  0  0  0  0  0  0  0  0  0  0
   12.1730  -17.1432   26.2251 C   0  0  0  0  0  0  0  0  0  0  0  0
   11.8614  -16.2950   27.3977 C   0  0  0  0  0  0  0  0  0  0  0  0
   10.4002  -16.0459   27.5685 C   0  0  2  0  0  0  0  0  0  0  0  0
    9.9821  -15.2158   26.4372 N   0  0  0  0  0  0  0  0  0  0  0  0
    9.9900  -15.4907   28.8511 C   0  0  0  0  0  0  0  0  0  0  0  0
   10.1303  -16.2360   30.0098 O   0  0  0  0  0  0  0  0  0  0  0  0
   11.7539  -18.4530   26.1197 C   0  0  0  0  0  0  0  0  0  0  0  0
   12.0449  -19.2381   25.0286 C   0  0  0  0  0  0  0  0  0  0  0  0
    9.4971  -14.3334   28.9777 O   0  0  0  0  0  0  0  0  0  0  0  0
  2  3  1  0
  2  1  1  6
  3  4  1  0
  4  5  2  0
  5  6  1  0
  7  6  1  0
  8  4  1  0
  8  7  2  0
  9 16  1  0
  9  2  1  0
 10  9  2  0
 12 11  1  6
 12 13  1  0
 12 14  1  0
 15 14  1  1
 15 16  1  0
 17 18  2  0
 17 15  1  0
 19 20  1  0
 20 21  2  0
 21 22  1  0
 23 24  1  0
 23 22  2  0
 25 26  1  0
 25 24  1  1
 26 17  1  0
 27 25  1  0
 28 27  1  0
 29 23  1  0
 30 29  2  0
 30 20  1  0
 31 27  2  0
M  END
$$$$
