HLY.pdb
     RDKit          3D

 31 32  0  0  1  0  0  0  0  0999 V2000
    7.1624  -16.8945   19.4550 N   0  0  0  0  0  0  0  0  0  0  0  0
    8.4318  -17.2875   20.0326 C   0  0  1  0  0  0  0  0  0  0  0  0
    9.4433  -17.3821   18.9157 C   0  0  0  0  0  0  0  0  0  0  0  0
    8.9192  -18.3761   17.9376 C   0  0  0  0  0  0  0  0  0  0  0  0
    9.1425  -19.7371   17.9533 C   0  0  0  0  0  0  0  0  0  0  0  0
    8.4906  -20.2900   16.8902 N   0  0  0  0  0  0  0  0  0  0  0  0
    7.8757  -19.2966   16.2281 C   0  0  0  0  0  0  0  0  0  0  0  0
    8.1388  -18.1577   16.8629 N   0  0  0  0  0  0  0  0  0  0  0  0
    8.8171  -16.3272   21.0808 C   0  0  0  0  0  0  0  0  0  0  0  0
    9.9193  -15.7620   21.0219 O   0  0  0  0  0  0  0  0  0  0  0  0
    8.1410  -12.2648   24.6610 C   0  0  0  0  0  0  0  0  0  0  0  0
    7.5813  -13.6017   25.0911 C   0  0  1  0  0  0  0  0  0  0  0  0
    6.4839  -13.5132   26.0871 C   0  0  0  0  0  0  0  0  0  0  0  0
    7.1981  -14.4877   23.9411 C   0  0  0  0  0  0  0  0  0  0  0  0
    8.3228  -15.1163   23.2223 C   0  0  2  0  0  0  0  0  0  0  0  0
    7.9480  -16.0233   22.1775 N   0  0  0  0  0  0  0  0  0  0  0  0
    9.2982  -15.7992   24.1134 C   0  0  0  0  0  0  0  0  0  0  0  0
    8.9881  -16.9207   24.5668 O   0  0  0  0  0  0  0  0  0  0  0  0
   10.2001  -15.8072   31.5967 O   0  0  0  0  0  0  0  0  0  0  0  0
   10.6124  -15.5377   30.3058 C   0  0  0  0  0  0  0  0  0  0  0  0
   11.3628  -16.4776   29.6389 C   0  0  0  0  0  0  0  0  0  0  0  0
   11.7968  -16.2576   28.3549 C   0  0  0  0  0  0  0  0  0  0  0  0
   11.4724  -15.0672   27.7207 C   0  0  0  0  0  0  0  0  0  0  0  0
   11.9509  -14.8518   26.3364 C   0  0  0  0  0  0  0  0  0  0  0  0
   11.4928  -15.9084   25.3875 C   0  0  2  0  0  0  0  0  0  0  0  0
   10.5403  -15.2694   24.4777 N   0  0  0  0  0  0  0  0  0  0  0  0
   10.9620  -17.1240   25.9893 C   0  0  0  0  0  0  0  0  0  0  0  0
   11.7639  -18.2459   26.1168 O   0  0  0  0  0  0  0  0  0  0  0  0
   10.7192  -14.1347   28.4030 C   0  0  0  0  0  0  0  0  0  0  0  0
   10.2761  -14.3382   29.6890 C   0  0  0  0  0  0  0  0  0  0  0  0
    9.7761  -17.2234   26.4161 O   0  0  0  0  0  0  0  0  0  0  0  0
  2  3  1  0
  2  1  1  6
  3  4  1  0
  4  5  2  0
  5  6  1  0
  7  6  1  0
  8  4  1  0
  8  7  2  0
  9 16  1  0
  9  2  1  0
 10  9  2  0
 12 11  1  6
 12 13  1  0
 12 14  1  0
 15 14  1  1
 15 16  1  0
 17 18  2  0
 17 15  1  0
 19 20  1  0
 20 21  2  0
 21 22  1  0
 23 24  1  0
 23 22  2  0
 25 26  1  0
 25 24  1  1
 26 17  1  0
 27 25  1  0
 28 27  1  0
 29 23  1  0
 30 29  2  0
 30 20  1  0
 31 27  2  0
M  END
$$$$
