HLY.pdb
     RDKit          3D

 31 32  0  0  1  0  0  0  0  0999 V2000
   10.0889  -19.9073   19.0915 N   0  0  0  0  0  0  0  0  0  0  0  0
    9.1967  -19.3031   20.0602 C   0  0  1  0  0  0  0  0  0  0  0  0
    9.3126  -20.0801   21.3496 C   0  0  0  0  0  0  0  0  0  0  0  0
    8.6674  -21.4030   21.1194 C   0  0  0  0  0  0  0  0  0  0  0  0
    7.8515  -21.7435   20.0607 C   0  0  0  0  0  0  0  0  0  0  0  0
    7.4667  -23.0427   20.2176 N   0  0  0  0  0  0  0  0  0  0  0  0
    8.0297  -23.5006   21.3474 C   0  0  0  0  0  0  0  0  0  0  0  0
    8.7448  -22.5124   21.8778 N   0  0  0  0  0  0  0  0  0  0  0  0
    9.5267  -17.8760   20.2143 C   0  0  0  0  0  0  0  0  0  0  0  0
   10.6962  -17.4947   20.0568 O   0  0  0  0  0  0  0  0  0  0  0  0
    9.1127  -12.5977   19.8680 C   0  0  0  0  0  0  0  0  0  0  0  0
    8.0589  -13.1361   20.8087 C   0  0  1  0  0  0  0  0  0  0  0  0
    6.8257  -12.3126   20.8812 C   0  0  0  0  0  0  0  0  0  0  0  0
    7.7305  -14.5824   20.5745 C   0  0  0  0  0  0  0  0  0  0  0  0
    8.8460  -15.5268   20.7754 C   0  0  2  0  0  0  0  0  0  0  0  0
    8.5273  -16.9051   20.5442 N   0  0  0  0  0  0  0  0  0  0  0  0
    9.4995  -15.4099   22.1062 C   0  0  0  0  0  0  0  0  0  0  0  0
   10.0246  -14.3166   22.4041 O   0  0  0  0  0  0  0  0  0  0  0  0
    5.6880  -11.6046   26.3059 O   0  0  0  0  0  0  0  0  0  0  0  0
    6.3646  -12.7715   26.0066 C   0  0  0  0  0  0  0  0  0  0  0  0
    5.6440  -13.8730   25.6081 C   0  0  0  0  0  0  0  0  0  0  0  0
    6.2695  -15.0558   25.2995 C   0  0  0  0  0  0  0  0  0  0  0  0
    7.6511  -15.1402   25.3915 C   0  0  0  0  0  0  0  0  0  0  0  0
    8.3038  -16.4253   25.0537 C   0  0  0  0  0  0  0  0  0  0  0  0
    9.6768  -16.2554   24.4948 C   0  0  2  0  0  0  0  0  0  0  0  0
    9.5655  -16.4427   23.0470 N   0  0  0  0  0  0  0  0  0  0  0  0
   10.7174  -17.0847   25.0874 C   0  0  0  0  0  0  0  0  0  0  0  0
   11.4952  -17.9045   24.2869 O   0  0  0  0  0  0  0  0  0  0  0  0
    8.3594  -14.0268   25.7927 C   0  0  0  0  0  0  0  0  0  0  0  0
    7.7497  -12.8343   26.1055 C   0  0  0  0  0  0  0  0  0  0  0  0
   10.9631  -17.1046   26.3274 O   0  0  0  0  0  0  0  0  0  0  0  0
  2  3  1  0
  2  1  1  6
  3  4  1  0
  4  5  2  0
  5  6  1  0
  7  6  1  0
  8  4  1  0
  8  7  2  0
  9 16  1  0
  9  2  1  0
 10  9  2  0
 12 11  1  6
 12 13  1  0
 12 14  1  0
 15 14  1  1
 15 16  1  0
 17 18  2  0
 17 15  1  0
 19 20  1  0
 20 21  2  0
 21 22  1  0
 23 24  1  0
 23 22  2  0
 25 26  1  0
 25 24  1  1
 26 17  1  0
 27 25  1  0
 28 27  1  0
 29 23  1  0
 30 29  2  0
 30 20  1  0
 31 27  2  0
M  END
$$$$
