HLY.pdb
     RDKit          3D

 31 32  0  0  1  0  0  0  0  0999 V2000
    7.8256  -17.5932   20.7689 N   0  0  0  0  0  0  0  0  0  0  0  0
    8.7435  -16.5827   20.2834 C   0  0  1  0  0  0  0  0  0  0  0  0
    8.1669  -15.9987   19.0161 C   0  0  0  0  0  0  0  0  0  0  0  0
    8.2768  -17.0482   17.9646 C   0  0  0  0  0  0  0  0  0  0  0  0
    8.8314  -18.3023   18.1136 C   0  0  0  0  0  0  0  0  0  0  0  0
    8.7377  -18.9561   16.9200 N   0  0  0  0  0  0  0  0  0  0  0  0
    8.1389  -18.1287   16.0483 C   0  0  0  0  0  0  0  0  0  0  0  0
    7.8681  -16.9918   16.6833 N   0  0  0  0  0  0  0  0  0  0  0  0
    8.9699  -15.5744   21.3329 C   0  0  0  0  0  0  0  0  0  0  0  0
    9.9205  -14.7844   21.2321 O   0  0  0  0  0  0  0  0  0  0  0  0
    7.9332  -11.9781   25.1518 C   0  0  0  0  0  0  0  0  0  0  0  0
    7.5452  -13.3697   25.5969 C   0  0  1  0  0  0  0  0  0  0  0  0
    6.4580  -13.4076   26.6072 C   0  0  0  0  0  0  0  0  0  0  0  0
    7.2575  -14.3040   24.4573 C   0  0  0  0  0  0  0  0  0  0  0  0
    8.4018  -14.5980   23.5736 C   0  0  2  0  0  0  0  0  0  0  0  0
    8.1163  -15.4778   22.4786 N   0  0  0  0  0  0  0  0  0  0  0  0
    9.5988  -15.1110   24.2919 C   0  0  0  0  0  0  0  0  0  0  0  0
   10.3938  -14.2756   24.7712 O   0  0  0  0  0  0  0  0  0  0  0  0
    9.6384  -14.0425   30.6986 O   0  0  0  0  0  0  0  0  0  0  0  0
    9.8754  -14.9318   29.6681 C   0  0  0  0  0  0  0  0  0  0  0  0
    8.8720  -15.1789   28.7607 C   0  0  0  0  0  0  0  0  0  0  0  0
    9.0577  -16.0541   27.7189 C   0  0  0  0  0  0  0  0  0  0  0  0
   10.2780  -16.6991   27.5803 C   0  0  0  0  0  0  0  0  0  0  0  0
   10.4557  -17.6381   26.4496 C   0  0  0  0  0  0  0  0  0  0  0  0
   11.0267  -16.9887   25.2336 C   0  0  2  0  0  0  0  0  0  0  0  0
    9.8940  -16.4668   24.4668 N   0  0  0  0  0  0  0  0  0  0  0  0
   11.9172  -17.8111   24.4260 C   0  0  0  0  0  0  0  0  0  0  0  0
   11.6046  -18.0867   23.1053 O   0  0  0  0  0  0  0  0  0  0  0  0
   11.2742  -16.4406   28.4986 C   0  0  0  0  0  0  0  0  0  0  0  0
   11.1058  -15.5674   29.5478 C   0  0  0  0  0  0  0  0  0  0  0  0
   12.9927  -18.3064   24.8692 O   0  0  0  0  0  0  0  0  0  0  0  0
  2  3  1  0
  2  1  1  1
  3  4  1  0
  4  5  2  0
  5  6  1  0
  7  6  1  0
  8  4  1  0
  8  7  2  0
  9 16  1  0
  9  2  1  0
 10  9  2  0
 12 11  1  6
 12 13  1  0
 12 14  1  0
 15 14  1  1
 15 16  1  0
 17 18  2  0
 17 15  1  0
 19 20  1  0
 20 21  2  0
 21 22  1  0
 23 24  1  0
 23 22  2  0
 25 26  1  0
 25 24  1  1
 26 17  1  0
 27 25  1  0
 28 27  1  0
 29 23  1  0
 30 29  2  0
 30 20  1  0
 31 27  2  0
M  END
$$$$
