ESW.pdb
     RDKit          3D

 30 31  0  0  1  0  0  0  0  0999 V2000
   11.1081  -16.2967   19.9007 N   0  0  0  0  0  0  0  0  0  0  0  0
    9.9099  -15.7674   20.3951 C   0  0  1  0  0  0  0  0  0  0  0  0
    8.7641  -15.9710   19.4811 C   0  0  0  0  0  0  0  0  0  0  0  0
    9.0391  -16.2072   18.0412 C   0  0  0  0  0  0  0  0  0  0  0  0
    7.9107  -16.5099   17.1720 C   0  0  0  0  0  0  0  0  0  0  0  0
    7.2883  -15.6869   16.4576 O   0  0  0  0  0  0  0  0  0  0  0  0
    9.5902  -16.2165   21.7909 C   0  0  0  0  0  0  0  0  0  0  0  0
    8.4910  -15.8692   22.2824 O   0  0  0  0  0  0  0  0  0  0  0  0
    7.3957  -17.8280   17.0568 O   0  0  0  0  0  0  0  0  0  0  0  0
   12.0692  -19.2423   23.8191 O   0  0  0  0  0  0  0  0  0  0  0  0
   10.7375  -19.0104   23.9654 C   0  0  0  0  0  0  0  0  0  0  0  0
   10.2486  -17.6188   23.7902 C   0  0  2  0  0  0  0  0  0  0  0  0
   10.5116  -17.0043   22.5105 N   0  0  0  0  0  0  0  0  0  0  0  0
   10.5235  -16.7093   24.9126 C   0  0  0  0  0  0  0  0  0  0  0  0
   11.4977  -15.8830   24.8976 O   0  0  0  0  0  0  0  0  0  0  0  0
    9.7322  -16.6744   26.0894 N   0  0  0  0  0  0  0  0  0  0  0  0
   10.2215  -15.9037   27.2772 C   0  0  1  0  0  0  0  0  0  0  0  0
    8.9743  -15.2489   27.8123 C   0  0  0  0  0  0  0  0  0  0  0  0
    7.9519  -14.9076   26.8404 C   0  0  0  0  0  0  0  0  0  0  0  0
    7.0276  -15.6453   26.1547 C   0  0  0  0  0  0  0  0  0  0  0  0
    6.2665  -14.8314   25.3792 N   0  0  0  0  0  0  0  0  0  0  0  0
    6.6731  -13.5352   25.5379 C   0  0  0  0  0  0  0  0  0  0  0  0
    6.2381  -12.3457   24.9973 C   0  0  0  0  0  0  0  0  0  0  0  0
    6.8290  -11.1590   25.3428 C   0  0  0  0  0  0  0  0  0  0  0  0
    7.8612  -11.1933   26.2386 C   0  0  0  0  0  0  0  0  0  0  0  0
    8.3093  -12.3818   26.7883 C   0  0  0  0  0  0  0  0  0  0  0  0
    7.7137  -13.5895   26.4415 C   0  0  0  0  0  0  0  0  0  0  0  0
   10.7539  -16.8351   28.2766 C   0  0  0  0  0  0  0  0  0  0  0  0
   11.2726  -16.4312   29.3277 O   0  0  0  0  0  0  0  0  0  0  0  0
   10.6852  -18.1961   28.0569 O   0  0  0  0  0  0  0  0  0  0  0  0
  2  1  1  6
  2  7  1  0
  2  3  1  0
  4  3  1  0
  5  4  1  0
  5  6  2  0
  7  8  2  0
  9  5  1  0
 10 11  1  0
 12 11  1  1
 13 12  1  0
 13  7  1  0
 14 12  1  0
 14 15  2  0
 16 14  1  0
 17 16  1  0
 17 28  1  0
 17 18  1  1
 19 27  1  0
 19 18  1  0
 20 19  2  0
 21 20  1  0
 21 22  1  0
 22 27  2  0
 23 22  1  0
 23 24  2  0
 24 25  1  0
 25 26  2  0
 27 26  1  0
 28 29  2  0
 28 30  1  0
M  END
$$$$
