ESW.pdb
     RDKit          3D

 30 31  0  0  1  0  0  0  0  0999 V2000
   10.6264  -16.2314   17.5802 N   0  0  0  0  0  0  0  0  0  0  0  0
   11.2537  -16.5145   18.7994 C   0  0  1  0  0  0  0  0  0  0  0  0
   12.3551  -15.5786   19.1169 C   0  0  0  0  0  0  0  0  0  0  0  0
   13.4727  -15.4444   18.1486 C   0  0  0  0  0  0  0  0  0  0  0  0
   14.5032  -14.4546   18.4293 C   0  0  0  0  0  0  0  0  0  0  0  0
   14.6503  -13.8281   19.5068 O   0  0  0  0  0  0  0  0  0  0  0  0
   10.2954  -16.6498   19.9463 C   0  0  0  0  0  0  0  0  0  0  0  0
    9.3202  -15.8642   19.9927 O   0  0  0  0  0  0  0  0  0  0  0  0
   15.4745  -14.0987   17.4569 O   0  0  0  0  0  0  0  0  0  0  0  0
    9.9788  -20.2406   22.5196 O   0  0  0  0  0  0  0  0  0  0  0  0
    9.1033  -19.2470   22.2113 C   0  0  0  0  0  0  0  0  0  0  0  0
    9.6369  -17.8688   22.0623 C   0  0  2  0  0  0  0  0  0  0  0  0
   10.5036  -17.6367   20.9312 N   0  0  0  0  0  0  0  0  0  0  0  0
   10.1538  -17.2575   23.2959 C   0  0  0  0  0  0  0  0  0  0  0  0
   11.1282  -16.4313   23.2906 O   0  0  0  0  0  0  0  0  0  0  0  0
    9.6128  -17.5310   24.5783 N   0  0  0  0  0  0  0  0  0  0  0  0
   10.1782  -16.8297   25.7753 C   0  0  1  0  0  0  0  0  0  0  0  0
    9.6693  -15.4187   25.6319 C   0  0  0  0  0  0  0  0  0  0  0  0
    8.2382  -15.2265   25.7784 C   0  0  0  0  0  0  0  0  0  0  0  0
    7.1665  -16.0715   25.6995 C   0  0  0  0  0  0  0  0  0  0  0  0
    6.0195  -15.3920   25.9558 N   0  0  0  0  0  0  0  0  0  0  0  0
    6.3109  -14.0803   26.2108 C   0  0  0  0  0  0  0  0  0  0  0  0
    5.5277  -12.9928   26.5276 C   0  0  0  0  0  0  0  0  0  0  0  0
    6.0893  -11.7629   26.7484 C   0  0  0  0  0  0  0  0  0  0  0  0
    7.4478  -11.6500   26.6443 C   0  0  0  0  0  0  0  0  0  0  0  0
    8.2464  -12.7343   26.3251 C   0  0  0  0  0  0  0  0  0  0  0  0
    7.6823  -13.9851   26.0998 C   0  0  0  0  0  0  0  0  0  0  0  0
    9.6278  -17.4280   26.9955 C   0  0  0  0  0  0  0  0  0  0  0  0
    8.7283  -18.2801   26.9510 O   0  0  0  0  0  0  0  0  0  0  0  0
   10.1102  -17.0438   28.2304 O   0  0  0  0  0  0  0  0  0  0  0  0
  2  1  1  6
  2  7  1  0
  2  3  1  0
  4  3  1  0
  5  4  1  0
  5  6  2  0
  7  8  2  0
  9  5  1  0
 10 11  1  0
 12 11  1  1
 13 12  1  0
 13  7  1  0
 14 12  1  0
 14 15  2  0
 16 14  1  0
 17 16  1  0
 17 28  1  0
 17 18  1  6
 19 27  1  0
 19 18  1  0
 20 19  2  0
 21 20  1  0
 21 22  1  0
 22 27  2  0
 23 22  1  0
 23 24  2  0
 24 25  1  0
 25 26  2  0
 27 26  1  0
 28 29  2  0
 28 30  1  0
M  END
$$$$
