ESW.pdb
     RDKit          3D

 30 31  0  0  1  0  0  0  0  0999 V2000
    9.6609  -18.2211   17.5611 N   0  0  0  0  0  0  0  0  0  0  0  0
   10.3351  -18.4239   18.7713 C   0  0  1  0  0  0  0  0  0  0  0  0
   11.7929  -18.1911   18.6700 C   0  0  0  0  0  0  0  0  0  0  0  0
   12.4392  -18.3107   17.3386 C   0  0  0  0  0  0  0  0  0  0  0  0
   13.8810  -18.1220   17.2609 C   0  0  0  0  0  0  0  0  0  0  0  0
   14.7516  -19.0084   17.4383 O   0  0  0  0  0  0  0  0  0  0  0  0
    9.7339  -17.6721   19.9225 C   0  0  0  0  0  0  0  0  0  0  0  0
    9.7371  -16.4200   19.8722 O   0  0  0  0  0  0  0  0  0  0  0  0
   14.4484  -16.8549   16.9638 O   0  0  0  0  0  0  0  0  0  0  0  0
    7.2941  -19.6710   23.0490 O   0  0  0  0  0  0  0  0  0  0  0  0
    7.2266  -18.4083   22.5494 C   0  0  0  0  0  0  0  0  0  0  0  0
    8.4925  -17.7578   22.1245 C   0  0  2  0  0  0  0  0  0  0  0  0
    9.1875  -18.3715   21.0178 N   0  0  0  0  0  0  0  0  0  0  0  0
    9.4037  -17.3816   23.2157 C   0  0  0  0  0  0  0  0  0  0  0  0
   10.5116  -17.9849   23.4171 O   0  0  0  0  0  0  0  0  0  0  0  0
    9.1290  -16.3245   24.1208 N   0  0  0  0  0  0  0  0  0  0  0  0
   10.0253  -16.1235   25.3043 C   0  0  1  0  0  0  0  0  0  0  0  0
    9.5339  -14.8320   25.9050 C   0  0  0  0  0  0  0  0  0  0  0  0
    8.0990  -14.6140   25.8915 C   0  0  0  0  0  0  0  0  0  0  0  0
    7.0230  -15.4559   25.9391 C   0  0  0  0  0  0  0  0  0  0  0  0
    5.8709  -14.7377   25.9350 N   0  0  0  0  0  0  0  0  0  0  0  0
    6.1631  -13.4026   25.8852 C   0  0  0  0  0  0  0  0  0  0  0  0
    5.3757  -12.2729   25.8681 C   0  0  0  0  0  0  0  0  0  0  0  0
    5.9385  -11.0246   25.8256 C   0  0  0  0  0  0  0  0  0  0  0  0
    7.3027  -10.9366   25.8006 C   0  0  0  0  0  0  0  0  0  0  0  0
    8.1057  -12.0637   25.8157 C   0  0  0  0  0  0  0  0  0  0  0  0
    7.5403  -13.3333   25.8588 C   0  0  0  0  0  0  0  0  0  0  0  0
    9.8231  -17.2171   26.2598 C   0  0  0  0  0  0  0  0  0  0  0  0
    8.8748  -18.0079   26.1490 O   0  0  0  0  0  0  0  0  0  0  0  0
   10.6992  -17.3831   27.3136 O   0  0  0  0  0  0  0  0  0  0  0  0
  2  1  1  6
  2  7  1  0
  2  3  1  0
  4  3  1  0
  5  4  1  0
  5  6  2  0
  7  8  2  0
  9  5  1  0
 10 11  1  0
 12 11  1  1
 13 12  1  0
 13  7  1  0
 14 12  1  0
 14 15  2  0
 16 14  1  0
 17 16  1  0
 17 28  1  0
 17 18  1  1
 19 27  1  0
 19 18  1  0
 20 19  2  0
 21 20  1  0
 21 22  1  0
 22 27  2  0
 23 22  1  0
 23 24  2  0
 24 25  1  0
 25 26  2  0
 27 26  1  0
 28 29  2  0
 28 30  1  0
M  END
$$$$
