ESW.pdb
     RDKit          3D

 30 31  0  0  1  0  0  0  0  0999 V2000
   10.0844  -14.4078   17.2171 N   0  0  0  0  0  0  0  0  0  0  0  0
   10.5093  -15.3689   18.1423 C   0  0  1  0  0  0  0  0  0  0  0  0
   11.9792  -15.4039   18.3097 C   0  0  0  0  0  0  0  0  0  0  0  0
   12.6465  -14.2476   18.9596 C   0  0  0  0  0  0  0  0  0  0  0  0
   14.0962  -14.2828   19.0920 C   0  0  0  0  0  0  0  0  0  0  0  0
   14.9257  -13.9610   18.2069 O   0  0  0  0  0  0  0  0  0  0  0  0
    9.8045  -15.2774   19.4641 C   0  0  0  0  0  0  0  0  0  0  0  0
    9.6223  -14.1390   19.9551 O   0  0  0  0  0  0  0  0  0  0  0  0
   14.7213  -14.7065   20.2943 O   0  0  0  0  0  0  0  0  0  0  0  0
    7.8572  -18.7762   21.4543 O   0  0  0  0  0  0  0  0  0  0  0  0
    7.5522  -17.4516   21.4906 C   0  0  0  0  0  0  0  0  0  0  0  0
    8.6667  -16.4761   21.3786 C   0  0  2  0  0  0  0  0  0  0  0  0
    9.3687  -16.4482   20.1174 N   0  0  0  0  0  0  0  0  0  0  0  0
    9.5829  -16.4329   22.5281 C   0  0  0  0  0  0  0  0  0  0  0  0
   10.8085  -16.7817   22.4362 O   0  0  0  0  0  0  0  0  0  0  0  0
    9.1829  -15.9997   23.8182 N   0  0  0  0  0  0  0  0  0  0  0  0
   10.1527  -16.0973   24.9558 C   0  0  1  0  0  0  0  0  0  0  0  0
    9.7609  -14.9526   25.8539 C   0  0  0  0  0  0  0  0  0  0  0  0
    8.3388  -14.7356   26.0465 C   0  0  0  0  0  0  0  0  0  0  0  0
    7.2670  -15.5787   26.1420 C   0  0  0  0  0  0  0  0  0  0  0  0
    6.1329  -14.8651   26.3604 N   0  0  0  0  0  0  0  0  0  0  0  0
    6.4333  -13.5320   26.4146 C   0  0  0  0  0  0  0  0  0  0  0  0
    5.6645  -12.4075   26.6172 C   0  0  0  0  0  0  0  0  0  0  0  0
    6.2332  -11.1613   26.6349 C   0  0  0  0  0  0  0  0  0  0  0  0
    7.5841  -11.0699   26.4455 C   0  0  0  0  0  0  0  0  0  0  0  0
    8.3682  -12.1916   26.2394 C   0  0  0  0  0  0  0  0  0  0  0  0
    7.7968  -13.4592   26.2203 C   0  0  0  0  0  0  0  0  0  0  0  0
    9.9497  -17.3663   25.6617 C   0  0  0  0  0  0  0  0  0  0  0  0
    8.9484  -18.0684   25.4581 O   0  0  0  0  0  0  0  0  0  0  0  0
   10.8849  -17.8031   26.5782 O   0  0  0  0  0  0  0  0  0  0  0  0
  2  1  1  6
  2  7  1  0
  2  3  1  0
  4  3  1  0
  5  4  1  0
  5  6  2  0
  7  8  2  0
  9  5  1  0
 10 11  1  0
 12 11  1  1
 13 12  1  0
 13  7  1  0
 14 12  1  0
 14 15  2  0
 16 14  1  0
 17 16  1  0
 17 28  1  0
 17 18  1  1
 19 27  1  0
 19 18  1  0
 20 19  2  0
 21 20  1  0
 21 22  1  0
 22 27  2  0
 23 22  1  0
 23 24  2  0
 24 25  1  0
 25 26  2  0
 27 26  1  0
 28 29  2  0
 28 30  1  0
M  END
$$$$
