ESW.pdb
     RDKit          3D

 30 31  0  0  1  0  0  0  0  0999 V2000
   11.5560  -19.5220   19.0319 N   0  0  0  0  0  0  0  0  0  0  0  0
   11.9199  -18.1796   19.1925 C   0  0  1  0  0  0  0  0  0  0  0  0
   12.0351  -17.4516   17.9093 C   0  0  0  0  0  0  0  0  0  0  0  0
   12.7851  -18.0888   16.7975 C   0  0  0  0  0  0  0  0  0  0  0  0
   12.9928  -17.3137   15.5824 C   0  0  0  0  0  0  0  0  0  0  0  0
   12.5806  -17.6148   14.4359 O   0  0  0  0  0  0  0  0  0  0  0  0
   11.0561  -17.4402   20.1719 C   0  0  0  0  0  0  0  0  0  0  0  0
   11.3287  -16.2397   20.4061 O   0  0  0  0  0  0  0  0  0  0  0  0
   13.7164  -16.0922   15.5963 O   0  0  0  0  0  0  0  0  0  0  0  0
    7.6664  -19.3822   22.3421 O   0  0  0  0  0  0  0  0  0  0  0  0
    7.7638  -18.0875   21.9385 C   0  0  0  0  0  0  0  0  0  0  0  0
    9.1213  -17.5006   21.7997 C   0  0  2  0  0  0  0  0  0  0  0  0
    9.9760  -18.0941   20.7988 N   0  0  0  0  0  0  0  0  0  0  0  0
    9.8314  -17.2518   23.0632 C   0  0  0  0  0  0  0  0  0  0  0  0
   10.8603  -17.9246   23.4107 O   0  0  0  0  0  0  0  0  0  0  0  0
    9.4363  -16.2499   23.9863 N   0  0  0  0  0  0  0  0  0  0  0  0
   10.1729  -16.1199   25.2842 C   0  0  1  0  0  0  0  0  0  0  0  0
    9.5910  -14.8728   25.8980 C   0  0  0  0  0  0  0  0  0  0  0  0
    8.1433  -14.7994   25.9705 C   0  0  0  0  0  0  0  0  0  0  0  0
    7.1553  -15.7441   25.9532 C   0  0  0  0  0  0  0  0  0  0  0  0
    5.9421  -15.1498   26.0877 N   0  0  0  0  0  0  0  0  0  0  0  0
    6.1044  -13.7962   26.1976 C   0  0  0  0  0  0  0  0  0  0  0  0
    5.2143  -12.7576   26.3572 C   0  0  0  0  0  0  0  0  0  0  0  0
    5.6542  -11.4636   26.4523 C   0  0  0  0  0  0  0  0  0  0  0  0
    7.0007  -11.2371   26.3837 C   0  0  0  0  0  0  0  0  0  0  0  0
    7.9059  -12.2715   26.2219 C   0  0  0  0  0  0  0  0  0  0  0  0
    7.4656  -13.5869   26.1247 C   0  0  0  0  0  0  0  0  0  0  0  0
    9.8676  -17.2740   26.1356 C   0  0  0  0  0  0  0  0  0  0  0  0
    8.9543  -18.0636   25.8541 O   0  0  0  0  0  0  0  0  0  0  0  0
   10.6038  -17.5001   27.2811 O   0  0  0  0  0  0  0  0  0  0  0  0
  2  1  1  6
  2  7  1  0
  2  3  1  0
  4  3  1  0
  5  4  1  0
  5  6  2  0
  7  8  2  0
  9  5  1  0
 10 11  1  0
 12 11  1  1
 13 12  1  0
 13  7  1  0
 14 12  1  0
 14 15  2  0
 16 14  1  0
 17 16  1  0
 17 28  1  0
 17 18  1  1
 19 27  1  0
 19 18  1  0
 20 19  2  0
 21 20  1  0
 21 22  1  0
 22 27  2  0
 23 22  1  0
 23 24  2  0
 24 25  1  0
 25 26  2  0
 27 26  1  0
 28 29  2  0
 28 30  1  0
M  END
$$$$
