ESW.pdb
     RDKit          3D

 30 31  0  0  1  0  0  0  0  0999 V2000
   11.4365  -18.3342   18.0701 N   0  0  0  0  0  0  0  0  0  0  0  0
   11.7089  -18.7480   19.3796 C   0  0  1  0  0  0  0  0  0  0  0  0
   13.1385  -18.6263   19.7416 C   0  0  0  0  0  0  0  0  0  0  0  0
   14.1505  -18.6637   18.6557 C   0  0  0  0  0  0  0  0  0  0  0  0
   15.5552  -18.5746   19.0291 C   0  0  0  0  0  0  0  0  0  0  0  0
   16.0062  -18.5337   20.1995 O   0  0  0  0  0  0  0  0  0  0  0  0
   10.8223  -18.1046   20.4053 C   0  0  0  0  0  0  0  0  0  0  0  0
   10.5395  -16.8925   20.2600 O   0  0  0  0  0  0  0  0  0  0  0  0
   16.5814  -18.5229   18.0492 O   0  0  0  0  0  0  0  0  0  0  0  0
    8.4633  -20.3990   23.4503 O   0  0  0  0  0  0  0  0  0  0  0  0
    8.2399  -19.2352   22.7837 C   0  0  0  0  0  0  0  0  0  0  0  0
    9.4077  -18.3671   22.4855 C   0  0  2  0  0  0  0  0  0  0  0  0
   10.3330  -18.8579   21.4918 N   0  0  0  0  0  0  0  0  0  0  0  0
   10.0947  -17.8109   23.6608 C   0  0  0  0  0  0  0  0  0  0  0  0
   11.2568  -18.2020   24.0194 O   0  0  0  0  0  0  0  0  0  0  0  0
    9.5279  -16.8010   24.4798 N   0  0  0  0  0  0  0  0  0  0  0  0
   10.2589  -16.3627   25.7118 C   0  0  1  0  0  0  0  0  0  0  0  0
    9.7666  -14.9559   25.9337 C   0  0  0  0  0  0  0  0  0  0  0  0
    8.3309  -14.7529   25.8709 C   0  0  0  0  0  0  0  0  0  0  0  0
    7.2670  -15.6066   25.7807 C   0  0  0  0  0  0  0  0  0  0  0  0
    6.1055  -14.9039   25.7912 N   0  0  0  0  0  0  0  0  0  0  0  0
    6.3790  -13.5675   25.8897 C   0  0  0  0  0  0  0  0  0  0  0  0
    5.5760  -12.4503   25.9467 C   0  0  0  0  0  0  0  0  0  0  0  0
    6.1208  -11.1981   26.0571 C   0  0  0  0  0  0  0  0  0  0  0  0
    7.4830  -11.0936   26.1087 C   0  0  0  0  0  0  0  0  0  0  0  0
    8.3017  -12.2080   26.0509 C   0  0  0  0  0  0  0  0  0  0  0  0
    7.7546  -13.4814   25.9387 C   0  0  0  0  0  0  0  0  0  0  0  0
    9.8585  -17.2065   26.8421 C   0  0  0  0  0  0  0  0  0  0  0  0
   10.3273  -17.0353   27.9769 O   0  0  0  0  0  0  0  0  0  0  0  0
    8.9404  -18.2201   26.6549 O   0  0  0  0  0  0  0  0  0  0  0  0
  2  1  1  6
  2  7  1  0
  2  3  1  0
  4  3  1  0
  5  4  1  0
  5  6  2  0
  7  8  2  0
  9  5  1  0
 10 11  1  0
 12 11  1  1
 13 12  1  0
 13  7  1  0
 14 12  1  0
 14 15  2  0
 16 14  1  0
 17 16  1  0
 17 28  1  0
 17 18  1  1
 19 27  1  0
 19 18  1  0
 20 19  2  0
 21 20  1  0
 21 22  1  0
 22 27  2  0
 23 22  1  0
 23 24  2  0
 24 25  1  0
 25 26  2  0
 27 26  1  0
 28 29  2  0
 28 30  1  0
M  END
$$$$
