ESW.pdb
     RDKit          3D

 30 31  0  0  1  0  0  0  0  0999 V2000
    7.4063  -20.0407   20.6930 N   0  0  0  0  0  0  0  0  0  0  0  0
    7.1407  -19.0680   21.6643 C   0  0  1  0  0  0  0  0  0  0  0  0
    6.5840  -19.6320   22.9140 C   0  0  0  0  0  0  0  0  0  0  0  0
    7.5129  -20.2761   23.8767 C   0  0  0  0  0  0  0  0  0  0  0  0
    6.9586  -20.7842   25.1237 C   0  0  0  0  0  0  0  0  0  0  0  0
    5.7434  -20.8043   25.4367 O   0  0  0  0  0  0  0  0  0  0  0  0
    8.3066  -18.1635   21.9374 C   0  0  0  0  0  0  0  0  0  0  0  0
    9.3927  -18.6904   22.2736 O   0  0  0  0  0  0  0  0  0  0  0  0
    7.7904  -21.3249   26.1394 O   0  0  0  0  0  0  0  0  0  0  0  0
    8.1206  -14.3848   20.3893 O   0  0  0  0  0  0  0  0  0  0  0  0
    9.2156  -14.6068   21.1641 C   0  0  0  0  0  0  0  0  0  0  0  0
    9.2184  -15.8066   22.0399 C   0  0  2  0  0  0  0  0  0  0  0  0
    8.1639  -16.7664   21.8142 N   0  0  0  0  0  0  0  0  0  0  0  0
    9.4342  -15.5410   23.4701 C   0  0  0  0  0  0  0  0  0  0  0  0
    9.5085  -14.3551   23.9395 O   0  0  0  0  0  0  0  0  0  0  0  0
    9.5712  -16.5720   24.4346 N   0  0  0  0  0  0  0  0  0  0  0  0
   10.5082  -16.3759   25.5868 C   0  0  1  0  0  0  0  0  0  0  0  0
    9.8075  -15.3525   26.4425 C   0  0  0  0  0  0  0  0  0  0  0  0
    8.4017  -15.1248   26.1625 C   0  0  0  0  0  0  0  0  0  0  0  0
    7.3497  -15.9600   25.9090 C   0  0  0  0  0  0  0  0  0  0  0  0
    6.2122  -15.2375   25.7447 N   0  0  0  0  0  0  0  0  0  0  0  0
    6.4901  -13.9060   25.8875 C   0  0  0  0  0  0  0  0  0  0  0  0
    5.7068  -12.7751   25.8248 C   0  0  0  0  0  0  0  0  0  0  0  0
    6.2496  -11.5326   26.0204 C   0  0  0  0  0  0  0  0  0  0  0  0
    7.5897  -11.4515   26.2790 C   0  0  0  0  0  0  0  0  0  0  0  0
    8.3886  -12.5797   26.3432 C   0  0  0  0  0  0  0  0  0  0  0  0
    7.8435  -13.8436   26.1455 C   0  0  0  0  0  0  0  0  0  0  0  0
   10.6354  -17.6330   26.3308 C   0  0  0  0  0  0  0  0  0  0  0  0
    9.9577  -18.6296   26.0404 O   0  0  0  0  0  0  0  0  0  0  0  0
   11.5247  -17.7251   27.3825 O   0  0  0  0  0  0  0  0  0  0  0  0
  2  1  1  6
  2  7  1  0
  2  3  1  0
  4  3  1  0
  5  4  1  0
  5  6  2  0
  7  8  2  0
  9  5  1  0
 10 11  1  0
 12 11  1  6
 13 12  1  0
 13  7  1  0
 14 12  1  0
 14 15  2  0
 16 14  1  0
 17 16  1  0
 17 28  1  0
 17 18  1  1
 19 27  1  0
 19 18  1  0
 20 19  2  0
 21 20  1  0
 21 22  1  0
 22 27  2  0
 23 22  1  0
 23 24  2  0
 24 25  1  0
 25 26  2  0
 27 26  1  0
 28 29  2  0
 28 30  1  0
M  END
$$$$
