ESW.pdb
     RDKit          3D

 30 31  0  0  1  0  0  0  0  0999 V2000
   10.0397  -19.2873   17.5758 N   0  0  0  0  0  0  0  0  0  0  0  0
   10.1443  -17.9244   17.8786 C   0  0  1  0  0  0  0  0  0  0  0  0
    9.9212  -17.0501   16.7058 C   0  0  0  0  0  0  0  0  0  0  0  0
   10.2912  -17.5595   15.3611 C   0  0  0  0  0  0  0  0  0  0  0  0
   11.5087  -17.0468   14.7487 C   0  0  0  0  0  0  0  0  0  0  0  0
   11.5690  -16.2753   13.7606 O   0  0  0  0  0  0  0  0  0  0  0  0
    9.3016  -17.5065   19.0479 C   0  0  0  0  0  0  0  0  0  0  0  0
    8.4159  -16.6414   18.8543 O   0  0  0  0  0  0  0  0  0  0  0  0
   12.7925  -17.3965   15.2442 O   0  0  0  0  0  0  0  0  0  0  0  0
    8.4531  -20.0828   22.4361 O   0  0  0  0  0  0  0  0  0  0  0  0
    7.8368  -18.9890   21.9142 C   0  0  0  0  0  0  0  0  0  0  0  0
    8.6868  -17.8520   21.4768 C   0  0  2  0  0  0  0  0  0  0  0  0
    9.5156  -18.0814   20.3172 N   0  0  0  0  0  0  0  0  0  0  0  0
    9.4115  -17.1581   22.5520 C   0  0  0  0  0  0  0  0  0  0  0  0
   10.3142  -16.2864   22.3131 O   0  0  0  0  0  0  0  0  0  0  0  0
    9.1642  -17.3965   23.9282 N   0  0  0  0  0  0  0  0  0  0  0  0
    9.9571  -16.6465   24.9544 C   0  0  1  0  0  0  0  0  0  0  0  0
    9.4479  -15.2337   24.8319 C   0  0  0  0  0  0  0  0  0  0  0  0
    8.0890  -14.9919   25.2807 C   0  0  0  0  0  0  0  0  0  0  0  0
    6.9917  -15.7952   25.4206 C   0  0  0  0  0  0  0  0  0  0  0  0
    5.9531  -15.0793   25.9223 N   0  0  0  0  0  0  0  0  0  0  0  0
    6.3443  -13.7846   26.1255 C   0  0  0  0  0  0  0  0  0  0  0  0
    5.6902  -12.6757   26.6142 C   0  0  0  0  0  0  0  0  0  0  0  0
    6.3347  -11.4719   26.7256 C   0  0  0  0  0  0  0  0  0  0  0  0
    7.6440  -11.4070   26.3373 C   0  0  0  0  0  0  0  0  0  0  0  0
    8.3128  -12.5133   25.8431 C   0  0  0  0  0  0  0  0  0  0  0  0
    7.6640  -13.7377   25.7275 C   0  0  0  0  0  0  0  0  0  0  0  0
    9.6432  -17.1670   26.2887 C   0  0  0  0  0  0  0  0  0  0  0  0
   10.2299  -16.7547   27.3000 O   0  0  0  0  0  0  0  0  0  0  0  0
    8.6755  -18.1398   26.4395 O   0  0  0  0  0  0  0  0  0  0  0  0
  2  1  1  6
  2  7  1  0
  2  3  1  0
  4  3  1  0
  5  4  1  0
  5  6  2  0
  7  8  2  0
  9  5  1  0
 10 11  1  0
 12 11  1  1
 13 12  1  0
 13  7  1  0
 14 12  1  0
 14 15  2  0
 16 14  1  0
 17 16  1  0
 17 28  1  0
 17 18  1  1
 19 27  1  0
 19 18  1  0
 20 19  2  0
 21 20  1  0
 21 22  1  0
 22 27  2  0
 23 22  1  0
 23 24  2  0
 24 25  1  0
 25 26  2  0
 27 26  1  0
 28 29  2  0
 28 30  1  0
M  END
$$$$
