ESW.pdb
     RDKit          3D

 30 31  0  0  1  0  0  0  0  0999 V2000
    9.7191  -20.1535   21.4239 N   0  0  0  0  0  0  0  0  0  0  0  0
   10.9716  -19.5284   21.4504 C   0  0  1  0  0  0  0  0  0  0  0  0
   11.7628  -19.7609   20.2217 C   0  0  0  0  0  0  0  0  0  0  0  0
   11.0573  -20.2296   19.0022 C   0  0  0  0  0  0  0  0  0  0  0  0
   11.8253  -20.3403   17.7699 C   0  0  0  0  0  0  0  0  0  0  0  0
   11.7207  -19.5943   16.7661 O   0  0  0  0  0  0  0  0  0  0  0  0
   10.9033  -18.0696   21.7961 C   0  0  0  0  0  0  0  0  0  0  0  0
   11.9816  -17.4401   21.9027 O   0  0  0  0  0  0  0  0  0  0  0  0
   12.8041  -21.3536   17.5944 O   0  0  0  0  0  0  0  0  0  0  0  0
    7.0552  -15.9870   21.9449 O   0  0  0  0  0  0  0  0  0  0  0  0
    8.2603  -15.4035   21.7086 C   0  0  0  0  0  0  0  0  0  0  0  0
    9.4702  -16.0438   22.2851 C   0  0  2  0  0  0  0  0  0  0  0  0
    9.6546  -17.4452   21.9911 N   0  0  0  0  0  0  0  0  0  0  0  0
    9.7355  -15.7306   23.6973 C   0  0  0  0  0  0  0  0  0  0  0  0
    9.8912  -14.5323   24.1120 O   0  0  0  0  0  0  0  0  0  0  0  0
    9.8340  -16.7257   24.7033 N   0  0  0  0  0  0  0  0  0  0  0  0
   10.1648  -16.3172   26.1061 C   0  0  1  0  0  0  0  0  0  0  0  0
    8.8547  -16.4645   26.8358 C   0  0  0  0  0  0  0  0  0  0  0  0
    7.7102  -15.7833   26.2593 C   0  0  0  0  0  0  0  0  0  0  0  0
    6.6132  -16.2158   25.5676 C   0  0  0  0  0  0  0  0  0  0  0  0
    5.8037  -15.1654   25.2769 N   0  0  0  0  0  0  0  0  0  0  0  0
    6.3506  -14.0141   25.7727 C   0  0  0  0  0  0  0  0  0  0  0  0
    5.9375  -12.7005   25.7578 C   0  0  0  0  0  0  0  0  0  0  0  0
    6.6884  -11.7209   26.3524 C   0  0  0  0  0  0  0  0  0  0  0  0
    7.8573  -12.0881   26.9590 C   0  0  0  0  0  0  0  0  0  0  0  0
    8.2849  -13.4042   26.9800 C   0  0  0  0  0  0  0  0  0  0  0  0
    7.5272  -14.4028   26.3782 C   0  0  0  0  0  0  0  0  0  0  0  0
   11.1463  -17.2511   26.6669 C   0  0  0  0  0  0  0  0  0  0  0  0
   11.5480  -18.2325   26.0246 O   0  0  0  0  0  0  0  0  0  0  0  0
   11.6435  -17.0480   27.9385 O   0  0  0  0  0  0  0  0  0  0  0  0
  2  1  1  6
  2  7  1  0
  2  3  1  0
  4  3  1  0
  5  4  1  0
  5  6  2  0
  7  8  2  0
  9  5  1  0
 10 11  1  0
 12 11  1  1
 13 12  1  0
 13  7  1  0
 14 12  1  0
 14 15  2  0
 16 14  1  0
 17 16  1  0
 17 28  1  0
 17 18  1  1
 19 27  1  0
 19 18  1  0
 20 19  2  0
 21 20  1  0
 21 22  1  0
 22 27  2  0
 23 22  1  0
 23 24  2  0
 24 25  1  0
 25 26  2  0
 27 26  1  0
 28 29  2  0
 28 30  1  0
M  END
$$$$
