ESW.pdb
     RDKit          3D

 30 31  0  0  1  0  0  0  0  0999 V2000
    9.5274  -19.8851   20.8677 N   0  0  0  0  0  0  0  0  0  0  0  0
   10.6672  -19.0730   20.9077 C   0  0  1  0  0  0  0  0  0  0  0  0
   11.4808  -19.1530   19.6743 C   0  0  0  0  0  0  0  0  0  0  0  0
   10.7864  -19.1066   18.3627 C   0  0  0  0  0  0  0  0  0  0  0  0
   11.6043  -19.0942   17.1579 C   0  0  0  0  0  0  0  0  0  0  0  0
   12.4308  -19.9755   16.8183 O   0  0  0  0  0  0  0  0  0  0  0  0
   10.3735  -17.6505   21.2850 C   0  0  0  0  0  0  0  0  0  0  0  0
   11.3404  -16.8618   21.4005 O   0  0  0  0  0  0  0  0  0  0  0  0
   11.5304  -18.0290   16.2221 O   0  0  0  0  0  0  0  0  0  0  0  0
    6.2474  -16.3205   21.9610 O   0  0  0  0  0  0  0  0  0  0  0  0
    7.2657  -15.4960   21.5978 C   0  0  0  0  0  0  0  0  0  0  0  0
    8.6524  -15.9127   21.9290 C   0  0  2  0  0  0  0  0  0  0  0  0
    9.0437  -17.2341   21.4987 N   0  0  0  0  0  0  0  0  0  0  0  0
    9.0849  -15.6231   23.3044 C   0  0  0  0  0  0  0  0  0  0  0  0
    8.9999  -14.4546   23.8138 O   0  0  0  0  0  0  0  0  0  0  0  0
    9.6220  -16.6111   24.1688 N   0  0  0  0  0  0  0  0  0  0  0  0
   10.1035  -16.2091   25.5293 C   0  0  1  0  0  0  0  0  0  0  0  0
    8.8884  -16.3889   26.4021 C   0  0  0  0  0  0  0  0  0  0  0  0
    7.7359  -15.5642   26.0887 C   0  0  0  0  0  0  0  0  0  0  0  0
    6.4973  -15.8397   25.5800 C   0  0  0  0  0  0  0  0  0  0  0  0
    5.7602  -14.7017   25.5107 N   0  0  0  0  0  0  0  0  0  0  0  0
    6.4987  -13.6481   25.9745 C   0  0  0  0  0  0  0  0  0  0  0  0
    6.2244  -12.3067   26.1216 C   0  0  0  0  0  0  0  0  0  0  0  0
    7.1625  -11.4497   26.6339 C   0  0  0  0  0  0  0  0  0  0  0  0
    8.3759  -11.9672   26.9932 C   0  0  0  0  0  0  0  0  0  0  0  0
    8.6651  -13.3130   26.8492 C   0  0  0  0  0  0  0  0  0  0  0  0
    7.7172  -14.1877   26.3298 C   0  0  0  0  0  0  0  0  0  0  0  0
   11.1598  -17.1286   25.9637 C   0  0  0  0  0  0  0  0  0  0  0  0
   11.4938  -18.1039   25.2751 O   0  0  0  0  0  0  0  0  0  0  0  0
   11.8063  -16.9182   27.1650 O   0  0  0  0  0  0  0  0  0  0  0  0
  2  1  1  6
  2  7  1  0
  2  3  1  0
  4  3  1  0
  5  4  1  0
  5  6  2  0
  7  8  2  0
  9  5  1  0
 10 11  1  0
 12 11  1  1
 13 12  1  0
 13  7  1  0
 14 12  1  0
 14 15  2  0
 16 14  1  0
 17 16  1  0
 17 28  1  0
 17 18  1  1
 19 27  1  0
 19 18  1  0
 20 19  2  0
 21 20  1  0
 21 22  1  0
 22 27  2  0
 23 22  1  0
 23 24  2  0
 24 25  1  0
 25 26  2  0
 27 26  1  0
 28 29  2  0
 28 30  1  0
M  END
$$$$
