ESW.pdb
     RDKit          3D

 30 31  0  0  1  0  0  0  0  0999 V2000
   12.1704  -16.3993   20.2510 N   0  0  0  0  0  0  0  0  0  0  0  0
   10.7867  -16.2695   20.4205 C   0  0  1  0  0  0  0  0  0  0  0  0
   10.0119  -16.7340   19.2485 C   0  0  0  0  0  0  0  0  0  0  0  0
   10.7460  -17.3348   18.1062 C   0  0  0  0  0  0  0  0  0  0  0  0
    9.9649  -17.8916   17.0105 C   0  0  0  0  0  0  0  0  0  0  0  0
   10.4259  -18.3946   15.9572 O   0  0  0  0  0  0  0  0  0  0  0  0
   10.2816  -16.8810   21.6945 C   0  0  0  0  0  0  0  0  0  0  0  0
    9.0644  -16.7550   21.9645 O   0  0  0  0  0  0  0  0  0  0  0  0
    8.5457  -17.9108   17.0460 O   0  0  0  0  0  0  0  0  0  0  0  0
   12.7984  -19.5424   24.1245 O   0  0  0  0  0  0  0  0  0  0  0  0
   11.4397  -19.5002   24.0971 C   0  0  0  0  0  0  0  0  0  0  0  0
   10.7885  -18.2005   23.7919 C   0  0  2  0  0  0  0  0  0  0  0  0
   11.1656  -17.5719   22.5482 N   0  0  0  0  0  0  0  0  0  0  0  0
   10.7394  -17.2440   24.9079 C   0  0  0  0  0  0  0  0  0  0  0  0
   11.4635  -16.1919   24.9362 O   0  0  0  0  0  0  0  0  0  0  0  0
    9.8877  -17.4102   26.0299 N   0  0  0  0  0  0  0  0  0  0  0  0
   10.0459  -16.5001   27.2094 C   0  0  1  0  0  0  0  0  0  0  0  0
    8.6271  -16.1677   27.5927 C   0  0  0  0  0  0  0  0  0  0  0  0
    7.8089  -15.5392   26.5719 C   0  0  0  0  0  0  0  0  0  0  0  0
    7.0333  -16.0306   25.5591 C   0  0  0  0  0  0  0  0  0  0  0  0
    6.4337  -15.0090   24.8959 N   0  0  0  0  0  0  0  0  0  0  0  0
    6.8014  -13.8182   25.4593 C   0  0  0  0  0  0  0  0  0  0  0  0
    6.4767  -12.5101   25.1767 C   0  0  0  0  0  0  0  0  0  0  0  0
    6.9897  -11.4818   25.9225 C   0  0  0  0  0  0  0  0  0  0  0  0
    7.8318  -11.7949   26.9531 C   0  0  0  0  0  0  0  0  0  0  0  0
    8.1676  -13.1050   27.2469 C   0  0  0  0  0  0  0  0  0  0  0  0
    7.6502  -14.1529   26.4934 C   0  0  0  0  0  0  0  0  0  0  0  0
   10.6918  -17.2301   28.3048 C   0  0  0  0  0  0  0  0  0  0  0  0
   10.9766  -18.4324   28.2034 O   0  0  0  0  0  0  0  0  0  0  0  0
   10.9952  -16.5787   29.4833 O   0  0  0  0  0  0  0  0  0  0  0  0
  2  1  1  6
  2  7  1  0
  2  3  1  0
  4  3  1  0
  5  4  1  0
  5  6  2  0
  7  8  2  0
  9  5  1  0
 10 11  1  0
 12 11  1  1
 13 12  1  0
 13  7  1  0
 14 12  1  0
 14 15  2  0
 16 14  1  0
 17 16  1  0
 17 28  1  0
 17 18  1  1
 19 27  1  0
 19 18  1  0
 20 19  2  0
 21 20  1  0
 21 22  1  0
 22 27  2  0
 23 22  1  0
 23 24  2  0
 24 25  1  0
 25 26  2  0
 27 26  1  0
 28 29  2  0
 28 30  1  0
M  END
$$$$
