ESW.pdb
     RDKit          3D

 30 31  0  0  1  0  0  0  0  0999 V2000
   10.1227  -18.0108   17.5907 N   0  0  0  0  0  0  0  0  0  0  0  0
   10.8292  -18.1238   18.7942 C   0  0  1  0  0  0  0  0  0  0  0  0
   12.1680  -17.4955   18.7429 C   0  0  0  0  0  0  0  0  0  0  0  0
   13.3032  -18.2883   18.2068 C   0  0  0  0  0  0  0  0  0  0  0  0
   14.6355  -17.7045   18.2753 C   0  0  0  0  0  0  0  0  0  0  0  0
   15.5216  -17.9858   19.1183 O   0  0  0  0  0  0  0  0  0  0  0  0
   10.0481  -17.6637   19.9901 C   0  0  0  0  0  0  0  0  0  0  0  0
    9.5429  -16.5175   19.9563 O   0  0  0  0  0  0  0  0  0  0  0  0
   15.0618  -16.7183   17.3472 O   0  0  0  0  0  0  0  0  0  0  0  0
    8.6689  -20.3809   23.2728 O   0  0  0  0  0  0  0  0  0  0  0  0
    8.1609  -19.2420   22.7310 C   0  0  0  0  0  0  0  0  0  0  0  0
    9.1163  -18.1980   22.2799 C   0  0  2  0  0  0  0  0  0  0  0  0
    9.8992  -18.5100   21.1077 N   0  0  0  0  0  0  0  0  0  0  0  0
    9.9250  -17.5835   23.3434 C   0  0  0  0  0  0  0  0  0  0  0  0
   11.1888  -17.7529   23.4228 O   0  0  0  0  0  0  0  0  0  0  0  0
    9.3712  -16.7569   24.3544 N   0  0  0  0  0  0  0  0  0  0  0  0
   10.2478  -16.2816   25.4723 C   0  0  1  0  0  0  0  0  0  0  0  0
    9.7102  -14.9090   25.7845 C   0  0  0  0  0  0  0  0  0  0  0  0
    8.2673  -14.7826   25.8782 C   0  0  0  0  0  0  0  0  0  0  0  0
    7.2463  -15.6914   25.8923 C   0  0  0  0  0  0  0  0  0  0  0  0
    6.0573  -15.0519   26.0355 N   0  0  0  0  0  0  0  0  0  0  0  0
    6.2693  -13.7035   26.1200 C   0  0  0  0  0  0  0  0  0  0  0  0
    5.4195  -12.6311   26.2759 C   0  0  0  0  0  0  0  0  0  0  0  0
    5.9065  -11.3524   26.3423 C   0  0  0  0  0  0  0  0  0  0  0  0
    7.2590  -11.1754   26.2490 C   0  0  0  0  0  0  0  0  0  0  0  0
    8.1241  -12.2441   26.0906 C   0  0  0  0  0  0  0  0  0  0  0  0
    7.6357  -13.5442   26.0225 C   0  0  0  0  0  0  0  0  0  0  0  0
   10.0693  -17.1548   26.6365 C   0  0  0  0  0  0  0  0  0  0  0  0
    9.1772  -18.0150   26.6710 O   0  0  0  0  0  0  0  0  0  0  0  0
   10.9047  -17.0284   27.7281 O   0  0  0  0  0  0  0  0  0  0  0  0
  2  1  1  6
  2  7  1  0
  2  3  1  0
  4  3  1  0
  5  4  1  0
  5  6  2  0
  7  8  2  0
  9  5  1  0
 10 11  1  0
 12 11  1  1
 13 12  1  0
 13  7  1  0
 14 12  1  0
 14 15  2  0
 16 14  1  0
 17 16  1  0
 17 28  1  0
 17 18  1  1
 19 27  1  0
 19 18  1  0
 20 19  2  0
 21 20  1  0
 21 22  1  0
 22 27  2  0
 23 22  1  0
 23 24  2  0
 24 25  1  0
 25 26  2  0
 27 26  1  0
 28 29  2  0
 28 30  1  0
M  END
$$$$
