ESW.pdb
     RDKit          3D

 30 31  0  0  1  0  0  0  0  0999 V2000
   10.8195  -17.4239   17.4959 N   0  0  0  0  0  0  0  0  0  0  0  0
   11.3600  -17.9416   18.6792 C   0  0  1  0  0  0  0  0  0  0  0  0
   12.8154  -17.7059   18.8047 C   0  0  0  0  0  0  0  0  0  0  0  0
   13.7205  -18.3043   17.7911 C   0  0  0  0  0  0  0  0  0  0  0  0
   15.1552  -18.2306   18.0295 C   0  0  0  0  0  0  0  0  0  0  0  0
   15.8783  -17.2173   17.8705 O   0  0  0  0  0  0  0  0  0  0  0  0
   10.6215  -17.5088   19.9119 C   0  0  0  0  0  0  0  0  0  0  0  0
   10.4987  -16.2795   20.1218 O   0  0  0  0  0  0  0  0  0  0  0  0
   15.8905  -19.3571   18.4836 O   0  0  0  0  0  0  0  0  0  0  0  0
    8.8895  -20.3786   22.9126 O   0  0  0  0  0  0  0  0  0  0  0  0
    8.3470  -19.2453   22.3927 C   0  0  0  0  0  0  0  0  0  0  0  0
    9.2709  -18.1720   21.9448 C   0  0  2  0  0  0  0  0  0  0  0  0
   10.0900  -18.4712   20.7943 N   0  0  0  0  0  0  0  0  0  0  0  0
   10.0325  -17.5104   23.0148 C   0  0  0  0  0  0  0  0  0  0  0  0
   11.3090  -17.5375   23.0598 O   0  0  0  0  0  0  0  0  0  0  0  0
    9.4154  -16.7916   24.0705 N   0  0  0  0  0  0  0  0  0  0  0  0
   10.2614  -16.2640   25.1886 C   0  0  1  0  0  0  0  0  0  0  0  0
    9.7230  -14.8749   25.4146 C   0  0  0  0  0  0  0  0  0  0  0  0
    8.2980  -14.7637   25.6662 C   0  0  0  0  0  0  0  0  0  0  0  0
    7.2918  -15.6824   25.7776 C   0  0  0  0  0  0  0  0  0  0  0  0
    6.1204  -15.0564   26.0585 N   0  0  0  0  0  0  0  0  0  0  0  0
    6.3294  -13.7072   26.1395 C   0  0  0  0  0  0  0  0  0  0  0  0
    5.4930  -12.6454   26.4026 C   0  0  0  0  0  0  0  0  0  0  0  0
    5.9740  -11.3630   26.4346 C   0  0  0  0  0  0  0  0  0  0  0  0
    7.3069  -11.1718   26.1977 C   0  0  0  0  0  0  0  0  0  0  0  0
    8.1582  -12.2298   25.9305 C   0  0  0  0  0  0  0  0  0  0  0  0
    7.6758  -13.5335   25.8965 C   0  0  0  0  0  0  0  0  0  0  0  0
   10.0431  -17.0760   26.3898 C   0  0  0  0  0  0  0  0  0  0  0  0
   10.6905  -16.8830   27.4292 O   0  0  0  0  0  0  0  0  0  0  0  0
    9.0997  -18.0835   26.3792 O   0  0  0  0  0  0  0  0  0  0  0  0
  2  1  1  6
  2  7  1  0
  2  3  1  0
  4  3  1  0
  5  4  1  0
  5  6  2  0
  7  8  2  0
  9  5  1  0
 10 11  1  0
 12 11  1  1
 13 12  1  0
 13  7  1  0
 14 12  1  0
 14 15  2  0
 16 14  1  0
 17 16  1  0
 17 28  1  0
 17 18  1  1
 19 27  1  0
 19 18  1  0
 20 19  2  0
 21 20  1  0
 21 22  1  0
 22 27  2  0
 23 22  1  0
 23 24  2  0
 24 25  1  0
 25 26  2  0
 27 26  1  0
 28 29  2  0
 28 30  1  0
M  END
$$$$
