ESW.pdb
     RDKit          3D

 30 31  0  0  1  0  0  0  0  0999 V2000
    9.2667  -19.8899   20.4827 N   0  0  0  0  0  0  0  0  0  0  0  0
   10.3933  -19.0588   20.4978 C   0  0  1  0  0  0  0  0  0  0  0  0
   11.1177  -19.0389   19.2077 C   0  0  0  0  0  0  0  0  0  0  0  0
   10.5255  -18.2854   18.0736 C   0  0  0  0  0  0  0  0  0  0  0  0
   11.2055  -18.3429   16.7872 C   0  0  0  0  0  0  0  0  0  0  0  0
   12.2453  -18.9973   16.5311 O   0  0  0  0  0  0  0  0  0  0  0  0
   10.1046  -17.6712   20.9911 C   0  0  0  0  0  0  0  0  0  0  0  0
   11.0725  -16.8919   21.1527 O   0  0  0  0  0  0  0  0  0  0  0  0
   10.7236  -17.6257   15.6606 O   0  0  0  0  0  0  0  0  0  0  0  0
    5.9685  -16.3038   21.7415 O   0  0  0  0  0  0  0  0  0  0  0  0
    7.0097  -15.5271   21.3399 C   0  0  0  0  0  0  0  0  0  0  0  0
    8.3834  -15.9601   21.7029 C   0  0  2  0  0  0  0  0  0  0  0  0
    8.7781  -17.2759   21.2589 N   0  0  0  0  0  0  0  0  0  0  0  0
    8.7777  -15.6997   23.0955 C   0  0  0  0  0  0  0  0  0  0  0  0
    8.5389  -14.5863   23.6746 O   0  0  0  0  0  0  0  0  0  0  0  0
    9.4449  -16.6580   23.9009 N   0  0  0  0  0  0  0  0  0  0  0  0
    9.7996  -16.3065   25.3133 C   0  0  1  0  0  0  0  0  0  0  0  0
    8.5035  -16.4898   26.0597 C   0  0  0  0  0  0  0  0  0  0  0  0
    7.4761  -15.4903   25.8321 C   0  0  0  0  0  0  0  0  0  0  0  0
    6.1905  -15.5562   25.3721 C   0  0  0  0  0  0  0  0  0  0  0  0
    5.6303  -14.3196   25.3804 N   0  0  0  0  0  0  0  0  0  0  0  0
    6.5369  -13.4087   25.8483 C   0  0  0  0  0  0  0  0  0  0  0  0
    6.4734  -12.0492   26.0585 C   0  0  0  0  0  0  0  0  0  0  0  0
    7.5496  -11.3644   26.5581 C   0  0  0  0  0  0  0  0  0  0  0  0
    8.6852  -12.0715   26.8403 C   0  0  0  0  0  0  0  0  0  0  0  0
    8.7630  -13.4376   26.6323 C   0  0  0  0  0  0  0  0  0  0  0  0
    7.6741  -14.1382   26.1255 C   0  0  0  0  0  0  0  0  0  0  0  0
   10.7945  -17.2585   25.8170 C   0  0  0  0  0  0  0  0  0  0  0  0
   11.2551  -17.1684   26.9645 O   0  0  0  0  0  0  0  0  0  0  0  0
   11.2403  -18.2836   25.0072 O   0  0  0  0  0  0  0  0  0  0  0  0
  2  1  1  6
  2  7  1  0
  2  3  1  0
  4  3  1  0
  5  4  1  0
  5  6  2  0
  7  8  2  0
  9  5  1  0
 10 11  1  0
 12 11  1  1
 13 12  1  0
 13  7  1  0
 14 12  1  0
 14 15  2  0
 16 14  1  0
 17 16  1  0
 17 28  1  0
 17 18  1  1
 19 27  1  0
 19 18  1  0
 20 19  2  0
 21 20  1  0
 21 22  1  0
 22 27  2  0
 23 22  1  0
 23 24  2  0
 24 25  1  0
 25 26  2  0
 27 26  1  0
 28 29  2  0
 28 30  1  0
M  END
$$$$
