ESW.pdb
     RDKit          3D

 30 31  0  0  1  0  0  0  0  0999 V2000
   11.8404  -18.9194   18.6755 N   0  0  0  0  0  0  0  0  0  0  0  0
   11.7740  -17.5313   18.8456 C   0  0  1  0  0  0  0  0  0  0  0  0
   11.5299  -16.8023   17.5812 C   0  0  0  0  0  0  0  0  0  0  0  0
   10.8962  -17.5313   16.4535 C   0  0  0  0  0  0  0  0  0  0  0  0
   10.8532  -16.8741   15.1547 C   0  0  0  0  0  0  0  0  0  0  0  0
   11.7167  -16.9724   14.2494 O   0  0  0  0  0  0  0  0  0  0  0  0
   10.8179  -17.1071   19.9217 C   0  0  0  0  0  0  0  0  0  0  0  0
   10.7159  -15.8825   20.1675 O   0  0  0  0  0  0  0  0  0  0  0  0
    9.7763  -16.0243   14.7886 O   0  0  0  0  0  0  0  0  0  0  0  0
    8.3258  -19.9681   22.3991 O   0  0  0  0  0  0  0  0  0  0  0  0
    8.0384  -18.7352   21.9029 C   0  0  0  0  0  0  0  0  0  0  0  0
    9.1612  -17.7822   21.7095 C   0  0  2  0  0  0  0  0  0  0  0  0
   10.0669  -18.0720   20.6232 N   0  0  0  0  0  0  0  0  0  0  0  0
    9.8697  -17.3874   22.9362 C   0  0  0  0  0  0  0  0  0  0  0  0
   11.1085  -17.6403   23.1192 O   0  0  0  0  0  0  0  0  0  0  0  0
    9.2400  -16.6958   24.0026 N   0  0  0  0  0  0  0  0  0  0  0  0
   10.0201  -16.4067   25.2485 C   0  0  1  0  0  0  0  0  0  0  0  0
    9.5690  -15.0219   25.6350 C   0  0  0  0  0  0  0  0  0  0  0  0
    8.1455  -14.8394   25.8516 C   0  0  0  0  0  0  0  0  0  0  0  0
    7.0919  -15.7063   25.9353 C   0  0  0  0  0  0  0  0  0  0  0  0
    5.9469  -15.0225   26.1889 N   0  0  0  0  0  0  0  0  0  0  0  0
    6.2216  -13.6857   26.2790 C   0  0  0  0  0  0  0  0  0  0  0  0
    5.4334  -12.5835   26.5244 C   0  0  0  0  0  0  0  0  0  0  0  0
    5.9775  -11.3271   26.5721 C   0  0  0  0  0  0  0  0  0  0  0  0
    7.3238  -11.2030   26.3689 C   0  0  0  0  0  0  0  0  0  0  0  0
    8.1271  -12.3021   26.1198 C   0  0  0  0  0  0  0  0  0  0  0  0
    7.5807  -13.5798   26.0700 C   0  0  0  0  0  0  0  0  0  0  0  0
    9.6355  -17.3580   26.2958 C   0  0  0  0  0  0  0  0  0  0  0  0
    8.6503  -18.0997   26.1680 O   0  0  0  0  0  0  0  0  0  0  0  0
   10.3761  -17.4414   27.4577 O   0  0  0  0  0  0  0  0  0  0  0  0
  2  1  1  6
  2  7  1  0
  2  3  1  0
  4  3  1  0
  5  4  1  0
  5  6  2  0
  7  8  2  0
  9  5  1  0
 10 11  1  0
 12 11  1  1
 13 12  1  0
 13  7  1  0
 14 12  1  0
 14 15  2  0
 16 14  1  0
 17 16  1  0
 17 28  1  0
 17 18  1  1
 19 27  1  0
 19 18  1  0
 20 19  2  0
 21 20  1  0
 21 22  1  0
 22 27  2  0
 23 22  1  0
 23 24  2  0
 24 25  1  0
 25 26  2  0
 27 26  1  0
 28 29  2  0
 28 30  1  0
M  END
$$$$
