IVQ.pdb
     RDKit          3D

 25 24  0  0  1  0  0  0  0  0999 V2000
   30.0994  -20.9948  -10.8354 C   0  0  0  0  0  0  0  0  0  0  0  0
   28.6472  -21.0968  -10.4207 C   0  0  0  0  0  0  0  0  0  0  0  0
   27.7461  -20.9974  -11.6200 C   0  0  2  0  0  0  0  0  0  0  0  0
   28.1099  -19.7596  -12.4198 C   0  0  0  0  0  0  0  0  0  0  0  0
   26.2907  -21.0585  -11.3040 C   0  0  2  0  0  0  0  0  0  0  0  0
   26.0374  -22.1715  -10.4517 N   0  0  0  0  0  0  0  0  0  0  0  0
   25.4336  -21.1756  -12.5266 C   0  0  0  0  0  0  0  0  0  0  0  0
   25.5982  -22.1361  -13.3212 O   0  0  0  0  0  0  0  0  0  0  0  0
   22.0036  -21.8392  -12.8828 C   0  0  0  0  0  0  0  0  0  0  0  0
   22.0793  -20.4165  -13.4005 C   0  0  2  0  0  0  0  0  0  0  0  0
   21.1161  -20.3399  -14.5553 C   0  0  0  0  0  0  0  0  0  0  0  0
   23.4776  -20.1183  -13.8171 C   0  0  2  0  0  0  0  0  0  0  0  0
   24.4639  -20.2059  -12.7556 N   0  0  0  0  0  0  0  0  0  0  0  0
   23.7315  -18.9309  -14.6132 C   0  0  0  0  0  0  0  0  0  0  0  0
   23.5657  -17.7801  -14.0507 O   0  0  0  0  0  0  0  0  0  0  0  0
   28.1921  -17.1073  -18.3762 N   0  0  0  0  0  0  0  0  0  0  0  0
   27.2821  -16.0507  -18.5221 C   0  0  0  0  0  0  0  0  0  0  0  0
   27.6034  -15.0126  -19.1153 O   0  0  0  0  0  0  0  0  0  0  0  0
   25.9128  -16.1780  -17.9573 C   0  0  0  0  0  0  0  0  0  0  0  0
   25.7406  -17.4660  -17.1997 C   0  0  0  0  0  0  0  0  0  0  0  0
   24.3704  -17.5497  -16.6327 C   0  0  2  0  0  0  0  0  0  0  0  0
   24.1529  -18.8380  -15.9581 N   0  0  0  0  0  0  0  0  0  0  0  0
   23.3389  -17.3022  -17.6353 C   0  0  0  0  0  0  0  0  0  0  0  0
   22.9460  -16.0923  -17.8789 O   0  0  0  0  0  0  0  0  0  0  0  0
   22.6893  -18.2437  -18.4083 O   0  0  0  0  0  0  0  0  0  0  0  0
  1  2  1  0
  3  2  1  0
  3  5  1  0
  3  4  1  1
  5  6  1  1
  7  5  1  0
  7  8  2  0
 10  9  1  6
 10 12  1  0
 11 10  1  0
 12 13  1  1
 12 14  1  0
 13  7  1  0
 14 22  1  0
 15 14  2  0
 17 16  1  0
 17 19  1  0
 18 17  2  0
 20 19  1  0
 21 20  1  6
 21 23  1  0
 22 21  1  0
 23 24  2  0
 23 25  1  0
M  END
$$$$
