IVQ.pdb
     RDKit          3D

 25 24  0  0  1  0  0  0  0  0999 V2000
   26.7401  -20.3467   -3.6822 C   0  0  0  0  0  0  0  0  0  0  0  0
   27.5996  -19.8557   -4.8274 C   0  0  0  0  0  0  0  0  0  0  0  0
   26.8977  -20.0600   -6.1411 C   0  0  2  0  0  0  0  0  0  0  0  0
   26.4423  -21.5041   -6.2477 C   0  0  0  0  0  0  0  0  0  0  0  0
   27.6811  -19.6251   -7.3324 C   0  0  2  0  0  0  0  0  0  0  0  0
   28.1189  -18.2822   -7.1469 N   0  0  0  0  0  0  0  0  0  0  0  0
   26.8992  -19.7113   -8.6069 C   0  0  0  0  0  0  0  0  0  0  0  0
   25.9957  -18.8712   -8.8494 O   0  0  0  0  0  0  0  0  0  0  0  0
   29.1473  -20.9102  -11.6437 C   0  0  0  0  0  0  0  0  0  0  0  0
   27.8019  -21.6014  -11.7440 C   0  0  2  0  0  0  0  0  0  0  0  0
   27.4244  -21.5721  -13.2013 C   0  0  0  0  0  0  0  0  0  0  0  0
   26.8137  -20.8802  -10.8951 C   0  0  2  0  0  0  0  0  0  0  0  0
   27.1961  -20.7326   -9.5025 N   0  0  0  0  0  0  0  0  0  0  0  0
   25.4152  -21.2627  -10.9721 C   0  0  0  0  0  0  0  0  0  0  0  0
   24.8934  -21.8529   -9.9486 O   0  0  0  0  0  0  0  0  0  0  0  0
   19.7614  -20.9848  -10.3333 N   0  0  0  0  0  0  0  0  0  0  0  0
   20.0862  -19.8035  -11.0150 C   0  0  0  0  0  0  0  0  0  0  0  0
   19.2212  -18.9519  -11.2584 O   0  0  0  0  0  0  0  0  0  0  0  0
   21.4880  -19.5698  -11.4518 C   0  0  0  0  0  0  0  0  0  0  0  0
   22.4341  -20.5694  -10.8451 C   0  0  0  0  0  0  0  0  0  0  0  0
   23.0699  -21.3872  -11.9095 C   0  0  2  0  0  0  0  0  0  0  0  0
   24.5018  -21.0767  -12.0334 N   0  0  0  0  0  0  0  0  0  0  0  0
   22.3908  -21.2508  -13.1943 C   0  0  0  0  0  0  0  0  0  0  0  0
   21.3588  -21.9850  -13.4653 O   0  0  0  0  0  0  0  0  0  0  0  0
   22.7203  -20.3879  -14.2202 O   0  0  0  0  0  0  0  0  0  0  0  0
  1  2  1  0
  3  2  1  0
  3  5  1  0
  3  4  1  6
  5  6  1  1
  7  5  1  0
  7  8  2  0
 10  9  1  6
 10 12  1  0
 11 10  1  0
 12 13  1  1
 12 14  1  0
 13  7  1  0
 14 22  1  0
 15 14  2  0
 17 16  1  0
 17 19  1  0
 18 17  2  0
 20 19  1  0
 21 20  1  1
 21 23  1  0
 22 21  1  0
 23 24  2  0
 23 25  1  0
M  END
$$$$
