IVQ.pdb
     RDKit          3D

 25 24  0  0  1  0  0  0  0  0999 V2000
   13.2631  -10.7608  -16.1697 C   0  0  0  0  0  0  0  0  0  0  0  0
   14.6458  -11.3607  -16.3090 C   0  0  0  0  0  0  0  0  0  0  0  0
   15.6690  -10.4960  -15.6268 C   0  0  2  0  0  0  0  0  0  0  0  0
   15.6004   -9.0914  -16.1983 C   0  0  0  0  0  0  0  0  0  0  0  0
   17.0538  -11.0473  -15.6471 C   0  0  2  0  0  0  0  0  0  0  0  0
   17.0595  -12.3358  -15.0394 N   0  0  0  0  0  0  0  0  0  0  0  0
   18.0404  -10.1702  -14.9396 C   0  0  0  0  0  0  0  0  0  0  0  0
   18.0231  -10.0876  -13.6850 O   0  0  0  0  0  0  0  0  0  0  0  0
   21.5868  -10.1696  -14.4055 C   0  0  0  0  0  0  0  0  0  0  0  0
   21.3846   -9.0290  -15.3832 C   0  0  2  0  0  0  0  0  0  0  0  0
   22.3978   -7.9779  -15.0148 C   0  0  0  0  0  0  0  0  0  0  0  0
   19.9880   -8.5248  -15.2691 C   0  0  2  0  0  0  0  0  0  0  0  0
   18.9634   -9.4593  -15.6983 N   0  0  0  0  0  0  0  0  0  0  0  0
   19.6784   -7.2022  -15.7817 C   0  0  0  0  0  0  0  0  0  0  0  0
   19.5945   -7.0554  -17.0621 O   0  0  0  0  0  0  0  0  0  0  0  0
   15.8537   -2.7403  -13.8914 N   0  0  0  0  0  0  0  0  0  0  0  0
   15.5617   -3.6009  -14.9591 C   0  0  0  0  0  0  0  0  0  0  0  0
   14.3980   -3.7527  -15.3531 O   0  0  0  0  0  0  0  0  0  0  0  0
   16.6641   -4.3414  -15.6275 C   0  0  0  0  0  0  0  0  0  0  0  0
   17.9970   -4.0436  -14.9974 C   0  0  0  0  0  0  0  0  0  0  0  0
   19.0809   -4.7456  -15.7314 C   0  0  2  0  0  0  0  0  0  0  0  0
   19.4409   -6.0071  -15.0672 N   0  0  0  0  0  0  0  0  0  0  0  0
   20.2558   -3.9018  -15.9263 C   0  0  0  0  0  0  0  0  0  0  0  0
   21.2251   -3.9286  -15.0678 O   0  0  0  0  0  0  0  0  0  0  0  0
   20.4868   -3.0283  -16.9701 O   0  0  0  0  0  0  0  0  0  0  0  0
  1  2  1  0
  3  2  1  0
  3  5  1  0
  3  4  1  6
  5  6  1  1
  7  5  1  0
  7  8  2  0
 10  9  1  1
 10 12  1  0
 11 10  1  0
 12 13  1  6
 12 14  1  0
 13  7  1  0
 14 22  1  0
 15 14  2  0
 17 16  1  0
 17 19  1  0
 18 17  2  0
 20 19  1  0
 21 20  1  1
 21 23  1  0
 22 21  1  0
 23 24  2  0
 23 25  1  0
M  END
$$$$
