IVQ.pdb
     RDKit          3D

 25 24  0  0  1  0  0  0  0  0999 V2000
   22.1413  -38.5444  -13.2933 C   0  0  0  0  0  0  0  0  0  0  0  0
   22.7791  -37.1739  -13.3713 C   0  0  0  0  0  0  0  0  0  0  0  0
   23.5531  -36.8782  -12.1169 C   0  0  2  0  0  0  0  0  0  0  0  0
   22.6454  -37.0564  -10.9133 C   0  0  0  0  0  0  0  0  0  0  0  0
   24.2415  -35.5561  -12.1147 C   0  0  2  0  0  0  0  0  0  0  0  0
   25.1341  -35.4851  -13.2228 N   0  0  0  0  0  0  0  0  0  0  0  0
   25.0083  -35.3006  -10.8538 C   0  0  0  0  0  0  0  0  0  0  0  0
   26.1588  -35.7863  -10.7072 O   0  0  0  0  0  0  0  0  0  0  0  0
   25.4788  -31.7603   -9.2569 C   0  0  0  0  0  0  0  0  0  0  0  0
   24.7122  -32.6336   -8.2836 C   0  0  2  0  0  0  0  0  0  0  0  0
   25.2030  -32.2594   -6.9101 C   0  0  0  0  0  0  0  0  0  0  0  0
   24.9700  -34.0658   -8.5993 C   0  0  2  0  0  0  0  0  0  0  0  0
   24.4206  -34.5221   -9.8631 N   0  0  0  0  0  0  0  0  0  0  0  0
   24.7158  -35.0638   -7.5758 C   0  0  0  0  0  0  0  0  0  0  0  0
   23.5068  -35.4983   -7.4431 O   0  0  0  0  0  0  0  0  0  0  0  0
   25.8859  -41.3789   -4.3068 N   0  0  0  0  0  0  0  0  0  0  0  0
   26.1910  -40.2893   -5.1348 C   0  0  0  0  0  0  0  0  0  0  0  0
   27.0260  -40.3952   -6.0426 O   0  0  0  0  0  0  0  0  0  0  0  0
   25.5028  -38.9890   -4.9202 C   0  0  0  0  0  0  0  0  0  0  0  0
   25.9684  -37.9448   -5.8976 C   0  0  0  0  0  0  0  0  0  0  0  0
   25.2154  -36.6804   -5.6965 C   0  0  2  0  0  0  0  0  0  0  0  0
   25.6238  -35.6587   -6.6719 N   0  0  0  0  0  0  0  0  0  0  0  0
   25.3302  -36.1773   -4.3311 C   0  0  0  0  0  0  0  0  0  0  0  0
   25.9436  -35.0604   -4.0993 O   0  0  0  0  0  0  0  0  0  0  0  0
   24.8384  -36.7680   -3.1844 O   0  0  0  0  0  0  0  0  0  0  0  0
  1  2  1  0
  3  2  1  0
  3  5  1  0
  3  4  1  1
  5  6  1  6
  7  5  1  0
  7  8  2  0
 10  9  1  6
 10 12  1  0
 11 10  1  0
 12 13  1  6
 12 14  1  0
 13  7  1  0
 14 22  1  0
 15 14  2  0
 17 16  1  0
 17 19  1  0
 18 17  2  0
 20 19  1  0
 21 20  1  1
 21 23  1  0
 22 21  1  0
 23 24  2  0
 23 25  1  0
M  END
$$$$
