IVQ.pdb
     RDKit          3D

 25 24  0  0  1  0  0  0  0  0999 V2000
   16.7179  -16.9743  -17.3961 C   0  0  0  0  0  0  0  0  0  0  0  0
   16.8590  -15.8891  -16.3502 C   0  0  0  0  0  0  0  0  0  0  0  0
   17.3262  -14.6059  -16.9788 C   0  0  2  0  0  0  0  0  0  0  0  0
   18.6068  -14.8629  -17.7523 C   0  0  0  0  0  0  0  0  0  0  0  0
   17.4598  -13.4664  -16.0271 C   0  0  2  0  0  0  0  0  0  0  0  0
   16.2373  -13.2980  -15.3154 N   0  0  0  0  0  0  0  0  0  0  0  0
   17.8101  -12.1783  -16.7062 C   0  0  0  0  0  0  0  0  0  0  0  0
   18.7984  -12.1239  -17.4817 O   0  0  0  0  0  0  0  0  0  0  0  0
   15.5300   -9.7946  -18.7650 C   0  0  0  0  0  0  0  0  0  0  0  0
   15.9235   -9.0875  -17.4832 C   0  0  2  0  0  0  0  0  0  0  0  0
   16.1155   -7.6390  -17.8466 C   0  0  0  0  0  0  0  0  0  0  0  0
   17.1701   -9.7000  -16.9462 C   0  0  2  0  0  0  0  0  0  0  0  0
   17.0229  -11.0594  -16.4586 N   0  0  0  0  0  0  0  0  0  0  0  0
   17.9763   -8.9375  -16.0098 C   0  0  0  0  0  0  0  0  0  0  0  0
   17.4923   -8.7229  -14.8317 O   0  0  0  0  0  0  0  0  0  0  0  0
   23.0298   -9.9180  -13.4490 N   0  0  0  0  0  0  0  0  0  0  0  0
   23.1713   -9.5251  -14.7874 C   0  0  0  0  0  0  0  0  0  0  0  0
   24.1526   -9.8800  -15.4535 O   0  0  0  0  0  0  0  0  0  0  0  0
   22.1293   -8.6709  -15.4158 C   0  0  0  0  0  0  0  0  0  0  0  0
   20.9870   -8.4030  -14.4746 C   0  0  0  0  0  0  0  0  0  0  0  0
   19.9408   -7.5957  -15.1526 C   0  0  2  0  0  0  0  0  0  0  0  0
   19.2597   -8.3774  -16.1952 N   0  0  0  0  0  0  0  0  0  0  0  0
   20.4675   -6.3467  -15.6939 C   0  0  0  0  0  0  0  0  0  0  0  0
   20.4135   -6.1160  -16.9672 O   0  0  0  0  0  0  0  0  0  0  0  0
   21.0478   -5.3138  -14.9851 O   0  0  0  0  0  0  0  0  0  0  0  0
  1  2  1  0
  3  2  1  0
  3  5  1  0
  3  4  1  1
  5  6  1  6
  7  5  1  0
  7  8  2  0
 10  9  1  6
 10 12  1  0
 11 10  1  0
 12 13  1  1
 12 14  1  0
 13  7  1  0
 14 22  1  0
 15 14  2  0
 17 16  1  0
 17 19  1  0
 18 17  2  0
 20 19  1  0
 21 20  1  6
 21 23  1  0
 22 21  1  0
 23 24  2  0
 23 25  1  0
M  END
$$$$
