IVQ.pdb
     RDKit          3D

 25 24  0  0  1  0  0  0  0  0999 V2000
   14.7850  -11.6905  -17.8577 C   0  0  0  0  0  0  0  0  0  0  0  0
   16.2947  -11.5809  -17.8511 C   0  0  0  0  0  0  0  0  0  0  0  0
   16.7756  -10.9732  -16.5629 C   0  0  2  0  0  0  0  0  0  0  0  0
   16.0814   -9.6407  -16.3467 C   0  0  0  0  0  0  0  0  0  0  0  0
   18.2578  -10.8634  -16.4489 C   0  0  2  0  0  0  0  0  0  0  0  0
   18.8470  -12.1377  -16.6907 N   0  0  0  0  0  0  0  0  0  0  0  0
   18.7036  -10.3665  -15.1082 C   0  0  0  0  0  0  0  0  0  0  0  0
   18.6496  -11.1242  -14.1061 O   0  0  0  0  0  0  0  0  0  0  0  0
   22.0567   -8.9450  -14.1203 C   0  0  0  0  0  0  0  0  0  0  0  0
   21.0653   -7.8033  -14.0138 C   0  0  2  0  0  0  0  0  0  0  0  0
   21.4949   -6.9860  -12.8244 C   0  0  0  0  0  0  0  0  0  0  0  0
   19.6932   -8.3572  -13.8462 C   0  0  2  0  0  0  0  0  0  0  0  0
   19.1724   -9.0618  -15.0037 N   0  0  0  0  0  0  0  0  0  0  0  0
   18.6564   -7.5018  -13.2970 C   0  0  0  0  0  0  0  0  0  0  0  0
   18.1106   -6.6341  -14.0826 O   0  0  0  0  0  0  0  0  0  0  0  0
   14.9672   -7.7648   -8.1071 N   0  0  0  0  0  0  0  0  0  0  0  0
   14.5082   -6.6238   -8.7803 C   0  0  0  0  0  0  0  0  0  0  0  0
   13.5125   -6.0071   -8.3795 O   0  0  0  0  0  0  0  0  0  0  0  0
   15.2265   -6.1477   -9.9918 C   0  0  0  0  0  0  0  0  0  0  0  0
   16.3834   -7.0433  -10.3410 C   0  0  0  0  0  0  0  0  0  0  0  0
   17.0370   -6.5754  -11.5900 C   0  0  2  0  0  0  0  0  0  0  0  0
   18.1298   -7.4758  -11.9866 N   0  0  0  0  0  0  0  0  0  0  0  0
   17.5046   -5.1964  -11.4887 C   0  0  0  0  0  0  0  0  0  0  0  0
   18.6230   -4.9314  -10.8919 O   0  0  0  0  0  0  0  0  0  0  0  0
   16.8763   -4.0686  -11.9777 O   0  0  0  0  0  0  0  0  0  0  0  0
  1  2  1  0
  3  2  1  0
  3  5  1  0
  3  4  1  6
  5  6  1  1
  7  5  1  0
  7  8  2  0
 10  9  1  1
 10 12  1  0
 11 10  1  0
 12 13  1  6
 12 14  1  0
 13  7  1  0
 14 22  1  0
 15 14  2  0
 17 16  1  0
 17 19  1  0
 18 17  2  0
 20 19  1  0
 21 20  1  1
 21 23  1  0
 22 21  1  0
 23 24  2  0
 23 25  1  0
M  END
$$$$
