IVQ.pdb
     RDKit          3D

 25 24  0  0  1  0  0  0  0  0999 V2000
   27.3057  -19.7812   -3.5452 C   0  0  0  0  0  0  0  0  0  0  0  0
   28.0623  -19.5072   -4.8273 C   0  0  0  0  0  0  0  0  0  0  0  0
   27.1594  -19.6656   -6.0187 C   0  0  2  0  0  0  0  0  0  0  0  0
   26.4518  -21.0061   -5.9376 C   0  0  0  0  0  0  0  0  0  0  0  0
   27.8318  -19.4601   -7.3332 C   0  0  2  0  0  0  0  0  0  0  0  0
   28.4831  -18.1931   -7.3390 N   0  0  0  0  0  0  0  0  0  0  0  0
   26.8824  -19.5256   -8.4897 C   0  0  0  0  0  0  0  0  0  0  0  0
   26.0869  -18.5761   -8.7058 O   0  0  0  0  0  0  0  0  0  0  0  0
   28.7527  -20.9109  -11.6345 C   0  0  0  0  0  0  0  0  0  0  0  0
   27.4104  -21.6084  -11.5367 C   0  0  2  0  0  0  0  0  0  0  0  0
   26.9064  -21.7453  -12.9489 C   0  0  0  0  0  0  0  0  0  0  0  0
   26.4935  -20.7947  -10.6914 C   0  0  2  0  0  0  0  0  0  0  0  0
   26.9047  -20.6504   -9.3067 N   0  0  0  0  0  0  0  0  0  0  0  0
   25.0682  -21.0667  -10.7443 C   0  0  0  0  0  0  0  0  0  0  0  0
   24.5871  -21.9299   -9.9127 O   0  0  0  0  0  0  0  0  0  0  0  0
   19.1713  -20.7107  -10.9299 N   0  0  0  0  0  0  0  0  0  0  0  0
   19.5405  -19.6968  -11.8251 C   0  0  0  0  0  0  0  0  0  0  0  0
   18.7036  -19.1726  -12.5717 O   0  0  0  0  0  0  0  0  0  0  0  0
   20.9558  -19.2447  -11.8791 C   0  0  0  0  0  0  0  0  0  0  0  0
   21.8145  -19.9841  -10.8900 C   0  0  0  0  0  0  0  0  0  0  0  0
   22.6892  -20.9563  -11.5942 C   0  0  2  0  0  0  0  0  0  0  0  0
   24.0892  -20.5070  -11.5948 N   0  0  0  0  0  0  0  0  0  0  0  0
   22.2280  -21.2367  -12.9504 C   0  0  0  0  0  0  0  0  0  0  0  0
   21.3312  -22.1480  -13.1567 O   0  0  0  0  0  0  0  0  0  0  0  0
   22.6435  -20.6192  -14.1131 O   0  0  0  0  0  0  0  0  0  0  0  0
  1  2  1  0
  3  2  1  0
  3  5  1  0
  3  4  1  6
  5  6  1  1
  7  5  1  0
  7  8  2  0
 10  9  1  6
 10 12  1  0
 11 10  1  0
 12 13  1  1
 12 14  1  0
 13  7  1  0
 14 22  1  0
 15 14  2  0
 17 16  1  0
 17 19  1  0
 18 17  2  0
 20 19  1  0
 21 20  1  6
 21 23  1  0
 22 21  1  0
 23 24  2  0
 23 25  1  0
M  END
$$$$
