IVQ.pdb
     RDKit          3D

 25 24  0  0  1  0  0  0  0  0999 V2000
   16.6401  -12.8341  -20.9231 C   0  0  0  0  0  0  0  0  0  0  0  0
   17.8118  -13.4839  -20.2186 C   0  0  0  0  0  0  0  0  0  0  0  0
   18.3332  -12.5922  -19.1264 C   0  0  2  0  0  0  0  0  0  0  0  0
   18.7075  -11.2440  -19.7149 C   0  0  0  0  0  0  0  0  0  0  0  0
   19.4398  -13.1850  -18.3226 C   0  0  2  0  0  0  0  0  0  0  0  0
   19.0398  -14.4626  -17.8358 N   0  0  0  0  0  0  0  0  0  0  0  0
   19.8429  -12.3260  -17.1638 C   0  0  0  0  0  0  0  0  0  0  0  0
   19.0843  -12.2170  -16.1670 O   0  0  0  0  0  0  0  0  0  0  0  0
   23.1012  -12.6024  -15.2288 C   0  0  0  0  0  0  0  0  0  0  0  0
   23.1112  -11.2381  -15.8893 C   0  0  2  0  0  0  0  0  0  0  0  0
   23.7511  -10.2996  -14.9009 C   0  0  0  0  0  0  0  0  0  0  0  0
   21.7142  -10.8395  -16.2163 C   0  0  2  0  0  0  0  0  0  0  0  0
   21.0627  -11.6612  -17.2202 N   0  0  0  0  0  0  0  0  0  0  0  0
   21.4305   -9.4404  -16.4814 C   0  0  0  0  0  0  0  0  0  0  0  0
   21.9225   -8.9176  -17.5550 O   0  0  0  0  0  0  0  0  0  0  0  0
   16.8359   -5.6385  -17.2489 N   0  0  0  0  0  0  0  0  0  0  0  0
   16.8435   -6.5901  -16.2191 C   0  0  0  0  0  0  0  0  0  0  0  0
   15.8009   -6.8882  -15.6218 O   0  0  0  0  0  0  0  0  0  0  0  0
   18.1202   -7.2502  -15.8390 C   0  0  0  0  0  0  0  0  0  0  0  0
   19.2589   -6.8064  -16.7159 C   0  0  0  0  0  0  0  0  0  0  0  0
   20.5583   -7.1044  -16.0609 C   0  0  2  0  0  0  0  0  0  0  0  0
   20.6654   -8.5304  -15.7187 N   0  0  0  0  0  0  0  0  0  0  0  0
   20.7952   -6.2652  -14.8905 C   0  0  0  0  0  0  0  0  0  0  0  0
   20.9412   -6.8049  -13.7223 O   0  0  0  0  0  0  0  0  0  0  0  0
   20.8941   -4.8885  -14.8622 O   0  0  0  0  0  0  0  0  0  0  0  0
  1  2  1  0
  3  2  1  0
  3  5  1  0
  3  4  1  6
  5  6  1  1
  7  5  1  0
  7  8  2  0
 10  9  1  1
 10 12  1  0
 11 10  1  0
 12 13  1  6
 12 14  1  0
 13  7  1  0
 14 22  1  0
 15 14  2  0
 17 16  1  0
 17 19  1  0
 18 17  2  0
 20 19  1  0
 21 20  1  1
 21 23  1  0
 22 21  1  0
 23 24  2  0
 23 25  1  0
M  END
$$$$
