IVQ.pdb
     RDKit          3D

 25 24  0  0  1  0  0  0  0  0999 V2000
   23.6652  -20.6867   -6.7991 C   0  0  0  0  0  0  0  0  0  0  0  0
   24.9494  -20.9361   -7.5607 C   0  0  0  0  0  0  0  0  0  0  0  0
   24.7771  -20.5953   -9.0147 C   0  0  2  0  0  0  0  0  0  0  0  0
   23.5217  -21.2661   -9.5421 C   0  0  0  0  0  0  0  0  0  0  0  0
   25.9700  -20.8835   -9.8608 C   0  0  2  0  0  0  0  0  0  0  0  0
   27.1339  -20.3504   -9.2358 N   0  0  0  0  0  0  0  0  0  0  0  0
   25.8552  -20.3163  -11.2422 C   0  0  0  0  0  0  0  0  0  0  0  0
   25.8304  -19.0706  -11.4112 O   0  0  0  0  0  0  0  0  0  0  0  0
   28.0807  -20.9177  -14.1180 C   0  0  0  0  0  0  0  0  0  0  0  0
   26.7481  -21.4710  -14.5825 C   0  0  2  0  0  0  0  0  0  0  0  0
   26.6085  -21.0680  -16.0265 C   0  0  0  0  0  0  0  0  0  0  0  0
   25.6597  -20.9079  -13.7363 C   0  0  2  0  0  0  0  0  0  0  0  0
   25.7777  -21.1936  -12.3180 N   0  0  0  0  0  0  0  0  0  0  0  0
   24.2817  -21.0977  -14.1525 C   0  0  0  0  0  0  0  0  0  0  0  0
   23.7154  -22.2236  -13.8700 O   0  0  0  0  0  0  0  0  0  0  0  0
   18.2794  -21.3433  -14.3226 N   0  0  0  0  0  0  0  0  0  0  0  0
   18.9023  -20.0874  -14.3439 C   0  0  0  0  0  0  0  0  0  0  0  0
   18.7494  -19.2863  -13.4126 O   0  0  0  0  0  0  0  0  0  0  0  0
   19.7582  -19.7121  -15.5002 C   0  0  0  0  0  0  0  0  0  0  0  0
   21.1553  -19.3607  -15.0678 C   0  0  0  0  0  0  0  0  0  0  0  0
   22.0454  -20.5430  -15.1943 C   0  0  2  0  0  0  0  0  0  0  0  0
   23.4317  -20.2039  -14.8407 N   0  0  0  0  0  0  0  0  0  0  0  0
   21.9760  -21.1506  -16.5196 C   0  0  0  0  0  0  0  0  0  0  0  0
   22.8007  -20.7821  -17.4478 O   0  0  0  0  0  0  0  0  0  0  0  0
   21.0966  -22.1283  -16.9398 O   0  0  0  0  0  0  0  0  0  0  0  0
  1  2  1  0
  3  2  1  0
  3  5  1  0
  3  4  1  6
  5  6  1  1
  7  5  1  0
  7  8  2  0
 10  9  1  1
 10 12  1  0
 11 10  1  0
 12 13  1  1
 12 14  1  0
 13  7  1  0
 14 22  1  0
 15 14  2  0
 17 16  1  0
 17 19  1  0
 18 17  2  0
 20 19  1  0
 21 20  1  6
 21 23  1  0
 22 21  1  0
 23 24  2  0
 23 25  1  0
M  END
$$$$
