IVQ.pdb
     RDKit          3D

 25 24  0  0  1  0  0  0  0  0999 V2000
   25.9528  -19.4948  -17.9175 C   0  0  0  0  0  0  0  0  0  0  0  0
   25.6662  -20.9797  -17.9824 C   0  0  0  0  0  0  0  0  0  0  0  0
   25.0047  -21.4468  -16.7159 C   0  0  2  0  0  0  0  0  0  0  0  0
   23.6426  -20.7889  -16.5889 C   0  0  0  0  0  0  0  0  0  0  0  0
   25.8325  -21.2738  -15.4883 C   0  0  2  0  0  0  0  0  0  0  0  0
   27.0791  -21.9415  -15.6599 N   0  0  0  0  0  0  0  0  0  0  0  0
   25.1634  -21.7995  -14.2557 C   0  0  0  0  0  0  0  0  0  0  0  0
   24.8922  -23.0235  -14.1599 O   0  0  0  0  0  0  0  0  0  0  0  0
   26.0829  -20.9611  -10.4950 C   0  0  0  0  0  0  0  0  0  0  0  0
   24.7016  -20.4208  -10.8082 C   0  0  2  0  0  0  0  0  0  0  0  0
   23.8749  -20.6430   -9.5695 C   0  0  0  0  0  0  0  0  0  0  0  0
   24.1474  -21.1409  -11.9879 C   0  0  2  0  0  0  0  0  0  0  0  0
   24.8546  -20.9084  -13.2341 N   0  0  0  0  0  0  0  0  0  0  0  0
   22.7166  -21.0891  -12.2295 C   0  0  0  0  0  0  0  0  0  0  0  0
   22.2372  -20.0295  -12.7912 O   0  0  0  0  0  0  0  0  0  0  0  0
   17.9305  -25.3334  -12.0923 N   0  0  0  0  0  0  0  0  0  0  0  0
   17.2698  -24.1002  -12.1841 C   0  0  0  0  0  0  0  0  0  0  0  0
   16.0336  -24.0424  -12.2170 O   0  0  0  0  0  0  0  0  0  0  0  0
   18.0638  -22.8446  -12.2428 C   0  0  0  0  0  0  0  0  0  0  0  0
   19.5328  -23.1056  -12.0523 C   0  0  0  0  0  0  0  0  0  0  0  0
   20.3042  -21.8470  -12.2177 C   0  0  2  0  0  0  0  0  0  0  0  0
   21.7320  -22.0591  -11.9379 N   0  0  0  0  0  0  0  0  0  0  0  0
   19.7676  -20.7569  -11.4089 C   0  0  0  0  0  0  0  0  0  0  0  0
   20.1230  -20.6309  -10.1698 O   0  0  0  0  0  0  0  0  0  0  0  0
   18.8803  -19.7805  -11.8151 O   0  0  0  0  0  0  0  0  0  0  0  0
  1  2  1  0
  3  2  1  0
  3  5  1  0
  3  4  1  1
  5  6  1  6
  7  5  1  0
  7  8  2  0
 10  9  1  1
 10 12  1  0
 11 10  1  0
 12 13  1  6
 12 14  1  0
 13  7  1  0
 14 22  1  0
 15 14  2  0
 17 16  1  0
 17 19  1  0
 18 17  2  0
 20 19  1  0
 21 20  1  1
 21 23  1  0
 22 21  1  0
 23 24  2  0
 23 25  1  0
M  END
$$$$
