IVQ.pdb
     RDKit          3D

 25 24  0  0  1  0  0  0  0  0999 V2000
   28.8967  -19.2289   -5.9622 C   0  0  0  0  0  0  0  0  0  0  0  0
   28.3978  -19.1289   -7.3878 C   0  0  0  0  0  0  0  0  0  0  0  0
   27.4835  -20.2779   -7.7103 C   0  0  2  0  0  0  0  0  0  0  0  0
   28.2123  -21.5854   -7.4581 C   0  0  0  0  0  0  0  0  0  0  0  0
   26.8792  -20.2212   -9.0718 C   0  0  2  0  0  0  0  0  0  0  0  0
   26.5192  -18.8765   -9.3745 N   0  0  0  0  0  0  0  0  0  0  0  0
   25.6688  -21.0927   -9.2086 C   0  0  0  0  0  0  0  0  0  0  0  0
   24.5694  -20.7240   -8.7225 O   0  0  0  0  0  0  0  0  0  0  0  0
   23.5907  -21.2600  -11.5880 C   0  0  0  0  0  0  0  0  0  0  0  0
   24.2696  -22.5965  -11.8131 C   0  0  2  0  0  0  0  0  0  0  0  0
   23.2276  -23.4977  -12.4208 C   0  0  0  0  0  0  0  0  0  0  0  0
   24.7715  -23.1188  -10.5120 C   0  0  2  0  0  0  0  0  0  0  0  0
   25.7930  -22.3043   -9.8791 N   0  0  0  0  0  0  0  0  0  0  0  0
   25.1456  -24.5186  -10.4183 C   0  0  0  0  0  0  0  0  0  0  0  0
   26.1002  -24.9406  -11.1791 O   0  0  0  0  0  0  0  0  0  0  0  0
   25.3808  -31.0775   -6.9552 N   0  0  0  0  0  0  0  0  0  0  0  0
   25.0894  -29.7097   -7.0567 C   0  0  0  0  0  0  0  0  0  0  0  0
   24.5982  -29.0922   -6.1028 O   0  0  0  0  0  0  0  0  0  0  0  0
   25.3740  -28.9909   -8.3266 C   0  0  0  0  0  0  0  0  0  0  0  0
   24.8653  -27.5758   -8.2913 C   0  0  0  0  0  0  0  0  0  0  0  0
   25.1075  -26.9098   -9.5966 C   0  0  2  0  0  0  0  0  0  0  0  0
   24.6086  -25.5266   -9.5873 N   0  0  0  0  0  0  0  0  0  0  0  0
   24.5477  -27.6615  -10.7155 C   0  0  0  0  0  0  0  0  0  0  0  0
   23.4533  -27.2642  -11.2830 O   0  0  0  0  0  0  0  0  0  0  0  0
   25.0633  -28.8077  -11.2866 O   0  0  0  0  0  0  0  0  0  0  0  0
  1  2  1  0
  3  2  1  0
  3  5  1  0
  3  4  1  6
  5  6  1  1
  7  5  1  0
  7  8  2  0
 10  9  1  1
 10 12  1  0
 11 10  1  0
 12 13  1  6
 12 14  1  0
 13  7  1  0
 14 22  1  0
 15 14  2  0
 17 16  1  0
 17 19  1  0
 18 17  2  0
 20 19  1  0
 21 20  1  1
 21 23  1  0
 22 21  1  0
 23 24  2  0
 23 25  1  0
M  END
$$$$
