IVQ.pdb
     RDKit          3D

 25 24  0  0  1  0  0  0  0  0999 V2000
   24.8151  -15.9312  -15.3627 C   0  0  0  0  0  0  0  0  0  0  0  0
   24.8147  -14.4396  -15.6201 C   0  0  0  0  0  0  0  0  0  0  0  0
   23.6865  -14.0615  -16.5390 C   0  0  2  0  0  0  0  0  0  0  0  0
   23.7836  -14.8776  -17.8152 C   0  0  0  0  0  0  0  0  0  0  0  0
   23.5759  -12.5998  -16.8099 C   0  0  2  0  0  0  0  0  0  0  0  0
   23.6326  -11.8845  -15.5793 N   0  0  0  0  0  0  0  0  0  0  0  0
   22.3137  -12.2345  -17.5286 C   0  0  0  0  0  0  0  0  0  0  0  0
   22.0852  -12.6977  -18.6750 O   0  0  0  0  0  0  0  0  0  0  0  0
   17.6911  -11.1141  -17.5243 C   0  0  0  0  0  0  0  0  0  0  0  0
   18.9598  -11.7286  -16.9669 C   0  0  2  0  0  0  0  0  0  0  0  0
   18.7798  -11.7764  -15.4728 C   0  0  0  0  0  0  0  0  0  0  0  0
   20.1267  -10.8931  -17.3638 C   0  0  2  0  0  0  0  0  0  0  0  0
   21.4135  -11.3805  -16.9013 N   0  0  0  0  0  0  0  0  0  0  0  0
   20.0571   -9.4563  -17.1664 C   0  0  0  0  0  0  0  0  0  0  0  0
   20.4581   -8.9824  -16.0338 O   0  0  0  0  0  0  0  0  0  0  0  0
   19.8934   -2.4834  -19.6682 N   0  0  0  0  0  0  0  0  0  0  0  0
   19.8334   -3.8766  -19.8139 C   0  0  0  0  0  0  0  0  0  0  0  0
   19.7944   -4.3970  -20.9366 O   0  0  0  0  0  0  0  0  0  0  0  0
   19.8163   -4.7411  -18.6045 C   0  0  0  0  0  0  0  0  0  0  0  0
   19.6705   -6.1950  -18.9615 C   0  0  0  0  0  0  0  0  0  0  0  0
   19.6438   -7.0263  -17.7309 C   0  0  2  0  0  0  0  0  0  0  0  0
   19.6054   -8.4591  -18.0590 N   0  0  0  0  0  0  0  0  0  0  0  0
   18.5465   -6.6630  -16.8395 C   0  0  0  0  0  0  0  0  0  0  0  0
   17.3858   -7.2211  -16.9764 O   0  0  0  0  0  0  0  0  0  0  0  0
   18.5849   -5.7505  -15.8043 O   0  0  0  0  0  0  0  0  0  0  0  0
  1  2  1  0
  3  2  1  0
  3  5  1  0
  3  4  1  6
  5  6  1  1
  7  5  1  0
  7  8  2  0
 10  9  1  6
 10 12  1  0
 11 10  1  0
 12 13  1  1
 12 14  1  0
 13  7  1  0
 14 22  1  0
 15 14  2  0
 17 16  1  0
 17 19  1  0
 18 17  2  0
 20 19  1  0
 21 20  1  6
 21 23  1  0
 22 21  1  0
 23 24  2  0
 23 25  1  0
M  END
$$$$
