IAR.pdb
     RDKit          3D

 25 24  0  0  1  0  0  0  0  0999 V2000
   26.6827  -21.5404  -16.0682 C   0  0  0  0  0  0  0  0  0  0  0  0
   26.5701  -20.8543  -17.3853 C   0  0  0  0  0  0  0  0  0  0  0  0
   26.5542  -19.3717  -17.3633 C   0  0  2  0  0  0  0  0  0  0  0  0
   25.6314  -18.8551  -16.2715 C   0  0  0  0  0  0  0  0  0  0  0  0
   26.4640  -18.6532  -18.6512 C   0  0  2  0  0  0  0  0  0  0  0  0
   27.4555  -19.2696  -19.5626 N   0  0  0  0  0  0  0  0  0  0  0  0
   26.6785  -17.2030  -18.6329 C   0  0  0  0  0  0  0  0  0  0  0  0
   25.9971  -16.3913  -17.9611 O   0  0  0  0  0  0  0  0  0  0  0  0
   29.2427  -14.8388  -20.0619 C   0  0  0  0  0  0  0  0  0  0  0  0
   27.8638  -15.2436  -19.5449 C   0  0  2  0  0  0  0  0  0  0  0  0
   27.7232  -16.6530  -19.4209 N   0  0  0  0  0  0  0  0  0  0  0  0
   26.7916  -14.6282  -20.3835 C   0  0  0  0  0  0  0  0  0  0  0  0
   26.2712  -15.2854  -21.3208 O   0  0  0  0  0  0  0  0  0  0  0  0
   21.2545   -7.2689  -19.8370 N   0  0  0  0  0  0  0  0  0  0  0  0
   20.9311   -8.1753  -20.8648 C   0  0  0  0  0  0  0  0  0  0  0  0
   19.8376   -7.9669  -21.5418 N   0  0  0  0  0  0  0  0  0  0  0  0
   21.7342   -9.3016  -21.1995 N   0  0  0  0  0  0  0  0  0  0  0  0
   22.9174   -9.6550  -20.3961 C   0  0  0  0  0  0  0  0  0  0  0  0
   23.5086  -10.8680  -21.0095 C   0  0  0  0  0  0  0  0  0  0  0  0
   24.6551  -11.5003  -20.3360 C   0  0  0  0  0  0  0  0  0  0  0  0
   25.2761  -12.6909  -20.9675 C   0  0  2  0  0  0  0  0  0  0  0  0
   26.3200  -13.3050  -20.1685 N   0  0  0  0  0  0  0  0  0  0  0  0
   25.7056  -12.5054  -22.3716 C   0  0  0  0  0  0  0  0  0  0  0  0
   26.8765  -12.1668  -22.6644 O   0  0  0  0  0  0  0  0  0  0  0  0
   24.8156  -12.7032  -23.4108 O   0  0  0  0  0  0  0  0  0  0  0  0
  2  3  1  0
  2  1  1  0
  3  4  1  1
  5  3  1  0
  5  6  1  6
  7  5  1  0
  7  8  2  0
 10  9  1  6
 10 12  1  0
 11 10  1  0
 11  7  1  0
 12 13  2  0
 12 22  1  0
 15 16  2  0
 15 14  1  0
 17 15  1  0
 18 19  1  0
 18 17  1  0
 20 19  1  0
 21 20  1  1
 21 23  1  0
 22 21  1  0
 23 24  2  0
 23 25  1  0
M  END
$$$$
