IAR.pdb
     RDKit          3D

 25 24  0  0  1  0  0  0  0  0999 V2000
   24.3856  -26.1379  -17.8568 C   0  0  0  0  0  0  0  0  0  0  0  0
   24.5274  -26.1677  -16.3746 C   0  0  0  0  0  0  0  0  0  0  0  0
   23.6002  -25.3074  -15.6007 C   0  0  2  0  0  0  0  0  0  0  0  0
   22.1559  -25.7221  -15.8302 C   0  0  0  0  0  0  0  0  0  0  0  0
   23.8393  -23.8493  -15.5934 C   0  0  2  0  0  0  0  0  0  0  0  0
   25.2420  -23.6415  -15.1659 N   0  0  0  0  0  0  0  0  0  0  0  0
   22.9640  -23.0248  -14.7547 C   0  0  0  0  0  0  0  0  0  0  0  0
   22.8184  -23.1728  -13.5173 O   0  0  0  0  0  0  0  0  0  0  0  0
   20.9320  -19.8946  -15.2574 C   0  0  0  0  0  0  0  0  0  0  0  0
   21.2898  -21.2228  -14.5936 C   0  0  2  0  0  0  0  0  0  0  0  0
   22.2184  -21.9794  -15.3597 N   0  0  0  0  0  0  0  0  0  0  0  0
   20.0516  -21.9911  -14.2646 C   0  0  0  0  0  0  0  0  0  0  0  0
   19.5892  -22.8214  -15.0880 O   0  0  0  0  0  0  0  0  0  0  0  0
   18.4695  -25.3415   -6.6562 N   0  0  0  0  0  0  0  0  0  0  0  0
   17.6360  -25.9404   -7.6202 C   0  0  0  0  0  0  0  0  0  0  0  0
   17.2013  -27.1465   -7.3878 N   0  0  0  0  0  0  0  0  0  0  0  0
   17.2467  -25.2981   -8.8291 N   0  0  0  0  0  0  0  0  0  0  0  0
   17.9423  -24.0894   -9.3038 C   0  0  0  0  0  0  0  0  0  0  0  0
   17.3028  -23.6977  -10.5823 C   0  0  0  0  0  0  0  0  0  0  0  0
   17.7858  -22.4823  -11.2586 C   0  0  0  0  0  0  0  0  0  0  0  0
   18.1601  -22.5732  -12.6916 C   0  0  2  0  0  0  0  0  0  0  0  0
   19.3544  -21.8252  -13.0374 N   0  0  0  0  0  0  0  0  0  0  0  0
   17.0601  -22.3111  -13.6463 C   0  0  0  0  0  0  0  0  0  0  0  0
   16.9511  -21.2139  -14.2426 O   0  0  0  0  0  0  0  0  0  0  0  0
   16.1114  -23.2817  -13.9093 O   0  0  0  0  0  0  0  0  0  0  0  0
  2  3  1  0
  2  1  1  0
  3  4  1  6
  5  3  1  0
  5  6  1  1
  7  5  1  0
  7  8  2  0
 10  9  1  6
 10 12  1  0
 11 10  1  0
 11  7  1  0
 12 13  2  0
 12 22  1  0
 15 16  2  0
 15 14  1  0
 17 15  1  0
 18 19  1  0
 18 17  1  0
 20 19  1  0
 21 20  1  1
 21 23  1  0
 22 21  1  0
 23 24  2  0
 23 25  1  0
M  END
$$$$
