IAR.pdb
     RDKit          3D

 25 24  0  0  1  0  0  0  0  0999 V2000
   22.3522  -16.9038  -20.1977 C   0  0  0  0  0  0  0  0  0  0  0  0
   23.0467  -15.5871  -20.1510 C   0  0  0  0  0  0  0  0  0  0  0  0
   22.7015  -14.6933  -19.0193 C   0  0  2  0  0  0  0  0  0  0  0  0
   21.1963  -14.6297  -18.8177 C   0  0  0  0  0  0  0  0  0  0  0  0
   23.4030  -13.3973  -18.9114 C   0  0  2  0  0  0  0  0  0  0  0  0
   24.8376  -13.6572  -19.1715 N   0  0  0  0  0  0  0  0  0  0  0  0
   23.2783  -12.6642  -17.6479 C   0  0  0  0  0  0  0  0  0  0  0  0
   22.1896  -12.4009  -17.0824 O   0  0  0  0  0  0  0  0  0  0  0  0
   25.7345  -11.0657  -15.2469 C   0  0  0  0  0  0  0  0  0  0  0  0
   24.3666  -11.3710  -15.8537 C   0  0  2  0  0  0  0  0  0  0  0  0
   24.4557  -12.2096  -16.9984 N   0  0  0  0  0  0  0  0  0  0  0  0
   23.6217  -10.1044  -16.1228 C   0  0  0  0  0  0  0  0  0  0  0  0
   23.7991   -9.4881  -17.2045 O   0  0  0  0  0  0  0  0  0  0  0  0
   16.4757  -10.5957  -18.8406 N   0  0  0  0  0  0  0  0  0  0  0  0
   16.6734  -10.9874  -17.5027 C   0  0  0  0  0  0  0  0  0  0  0  0
   15.8340  -11.8386  -16.9847 N   0  0  0  0  0  0  0  0  0  0  0  0
   17.7382  -10.5028  -16.6921 N   0  0  0  0  0  0  0  0  0  0  0  0
   18.7221   -9.5448  -17.2255 C   0  0  0  0  0  0  0  0  0  0  0  0
   19.7331   -9.3285  -16.1635 C   0  0  0  0  0  0  0  0  0  0  0  0
   20.8916   -8.4727  -16.4692 C   0  0  0  0  0  0  0  0  0  0  0  0
   21.9541   -8.3299  -15.4433 C   0  0  2  0  0  0  0  0  0  0  0  0
   22.7006   -9.5490  -15.1940 N   0  0  0  0  0  0  0  0  0  0  0  0
   21.5262   -7.6877  -14.1805 C   0  0  0  0  0  0  0  0  0  0  0  0
   20.9832   -6.5580  -14.1656 O   0  0  0  0  0  0  0  0  0  0  0  0
   21.7161   -8.3248  -12.9684 O   0  0  0  0  0  0  0  0  0  0  0  0
  2  3  1  0
  2  1  1  0
  3  4  1  6
  5  3  1  0
  5  6  1  1
  7  5  1  0
  7  8  2  0
 10  9  1  6
 10 12  1  0
 11 10  1  0
 11  7  1  0
 12 13  2  0
 12 22  1  0
 15 16  2  0
 15 14  1  0
 17 15  1  0
 18 19  1  0
 18 17  1  0
 20 19  1  0
 21 20  1  6
 21 23  1  0
 22 21  1  0
 23 24  2  0
 23 25  1  0
M  END
$$$$
