IAR.pdb
     RDKit          3D

 25 24  0  0  1  0  0  0  0  0999 V2000
   32.7691  -22.2275   -9.5193 C   0  0  0  0  0  0  0  0  0  0  0  0
   31.8385  -22.6379  -10.6073 C   0  0  0  0  0  0  0  0  0  0  0  0
   30.6242  -21.8071  -10.7919 C   0  0  2  0  0  0  0  0  0  0  0  0
   29.9426  -21.5388   -9.4600 C   0  0  0  0  0  0  0  0  0  0  0  0
   29.7122  -22.1378  -11.9065 C   0  0  2  0  0  0  0  0  0  0  0  0
   30.5498  -22.3137  -13.1152 N   0  0  0  0  0  0  0  0  0  0  0  0
   28.6414  -21.1835  -12.2099 C   0  0  0  0  0  0  0  0  0  0  0  0
   27.6758  -20.9319  -11.4492 O   0  0  0  0  0  0  0  0  0  0  0  0
   27.9583  -18.7805  -15.0566 C   0  0  0  0  0  0  0  0  0  0  0  0
   27.6740  -19.5209  -13.7514 C   0  0  2  0  0  0  0  0  0  0  0  0
   28.6758  -20.4818  -13.4433 N   0  0  0  0  0  0  0  0  0  0  0  0
   26.2999  -20.1067  -13.7734 C   0  0  0  0  0  0  0  0  0  0  0  0
   26.1101  -21.2470  -14.2685 O   0  0  0  0  0  0  0  0  0  0  0  0
   18.9098  -20.4769  -11.9365 N   0  0  0  0  0  0  0  0  0  0  0  0
   19.1591  -21.5216  -11.0259 C   0  0  0  0  0  0  0  0  0  0  0  0
   18.2982  -22.4977  -10.9651 N   0  0  0  0  0  0  0  0  0  0  0  0
   20.2978  -21.5648  -10.1733 N   0  0  0  0  0  0  0  0  0  0  0  0
   21.3468  -20.5337  -10.2561 C   0  0  0  0  0  0  0  0  0  0  0  0
   22.0347  -20.7216  -11.5555 C   0  0  0  0  0  0  0  0  0  0  0  0
   23.1751  -19.8459  -11.8724 C   0  0  0  0  0  0  0  0  0  0  0  0
   23.8427  -20.0043  -13.1882 C   0  0  2  0  0  0  0  0  0  0  0  0
   25.1702  -19.4219  -13.2496 N   0  0  0  0  0  0  0  0  0  0  0  0
   23.0247  -19.6156  -14.3587 C   0  0  0  0  0  0  0  0  0  0  0  0
   23.1965  -18.5241  -14.9507 O   0  0  0  0  0  0  0  0  0  0  0  0
   22.0369  -20.4566  -14.8364 O   0  0  0  0  0  0  0  0  0  0  0  0
  2  3  1  0
  2  1  1  0
  3  4  1  1
  5  3  1  0
  5  6  1  6
  7  5  1  0
  7  8  2  0
 10  9  1  6
 10 12  1  0
 11 10  1  0
 11  7  1  0
 12 13  2  0
 12 22  1  0
 15 16  2  0
 15 14  1  0
 17 15  1  0
 18 19  1  0
 18 17  1  0
 20 19  1  0
 21 20  1  1
 21 23  1  0
 22 21  1  0
 23 24  2  0
 23 25  1  0
M  END
$$$$
