IAR.pdb
     RDKit          3D

 25 24  0  0  1  0  0  0  0  0999 V2000
    9.2685  -10.1362   -7.8290 C   0  0  0  0  0  0  0  0  0  0  0  0
   10.5752  -10.4293   -8.4808 C   0  0  0  0  0  0  0  0  0  0  0  0
   11.4083   -9.2610   -8.8547 C   0  0  2  0  0  0  0  0  0  0  0  0
   10.5669   -8.1863   -9.5237 C   0  0  0  0  0  0  0  0  0  0  0  0
   12.7216   -9.5103   -9.4844 C   0  0  2  0  0  0  0  0  0  0  0  0
   13.4871  -10.3802   -8.5621 N   0  0  0  0  0  0  0  0  0  0  0  0
   13.5422   -8.3431   -9.8214 C   0  0  0  0  0  0  0  0  0  0  0  0
   13.3102   -7.5616  -10.7753 O   0  0  0  0  0  0  0  0  0  0  0  0
   16.1585   -6.3407   -8.0800 C   0  0  0  0  0  0  0  0  0  0  0  0
   15.4981   -6.9270   -9.3261 C   0  0  2  0  0  0  0  0  0  0  0  0
   14.6842   -8.0544   -9.0293 N   0  0  0  0  0  0  0  0  0  0  0  0
   16.5242   -7.2155  -10.3728 C   0  0  0  0  0  0  0  0  0  0  0  0
   17.1188   -8.3235  -10.3821 O   0  0  0  0  0  0  0  0  0  0  0  0
   16.7753  -11.2974  -17.4478 N   0  0  0  0  0  0  0  0  0  0  0  0
   17.8102  -10.3505  -17.5695 C   0  0  0  0  0  0  0  0  0  0  0  0
   18.6009  -10.4385  -18.6012 N   0  0  0  0  0  0  0  0  0  0  0  0
   18.0349   -9.3078  -16.6272 N   0  0  0  0  0  0  0  0  0  0  0  0
   17.2385   -9.2181  -15.3910 C   0  0  0  0  0  0  0  0  0  0  0  0
   17.7862   -8.0862  -14.6063 C   0  0  0  0  0  0  0  0  0  0  0  0
   17.1849   -7.7931  -13.2946 C   0  0  0  0  0  0  0  0  0  0  0  0
   17.6747   -6.6121  -12.5415 C   0  0  2  0  0  0  0  0  0  0  0  0
   16.8691   -6.2766  -11.3823 N   0  0  0  0  0  0  0  0  0  0  0  0
   17.9644   -5.4173  -13.3654 C   0  0  0  0  0  0  0  0  0  0  0  0
   18.8234   -5.4374  -14.2781 O   0  0  0  0  0  0  0  0  0  0  0  0
   17.2866   -4.2322  -13.1477 O   0  0  0  0  0  0  0  0  0  0  0  0
  2  3  1  0
  2  1  1  0
  3  4  1  6
  5  3  1  0
  5  6  1  1
  7  5  1  0
  7  8  2  0
 10  9  1  1
 10 12  1  0
 11 10  1  0
 11  7  1  0
 12 13  2  0
 12 22  1  0
 15 16  2  0
 15 14  1  0
 17 15  1  0
 18 19  1  0
 18 17  1  0
 20 19  1  0
 21 20  1  6
 21 23  1  0
 22 21  1  0
 23 24  2  0
 23 25  1  0
M  END
$$$$
