IAR.pdb
     RDKit          3D

 25 24  0  0  1  0  0  0  0  0999 V2000
   28.9407  -14.4613  -23.1395 C   0  0  0  0  0  0  0  0  0  0  0  0
   29.5702  -14.2718  -21.8031 C   0  0  0  0  0  0  0  0  0  0  0  0
   28.7286  -14.5807  -20.6220 C   0  0  2  0  0  0  0  0  0  0  0  0
   27.3223  -14.0318  -20.7992 C   0  0  0  0  0  0  0  0  0  0  0  0
   29.3109  -14.3886  -19.2777 C   0  0  2  0  0  0  0  0  0  0  0  0
   30.4894  -15.2806  -19.1835 N   0  0  0  0  0  0  0  0  0  0  0  0
   28.4413  -14.6331  -18.1229 C   0  0  0  0  0  0  0  0  0  0  0  0
   28.1402  -15.7705  -17.6871 O   0  0  0  0  0  0  0  0  0  0  0  0
   26.8672  -12.4756  -15.4645 C   0  0  0  0  0  0  0  0  0  0  0  0
   27.0150  -13.7263  -16.3286 C   0  0  2  0  0  0  0  0  0  0  0  0
   27.8886  -13.5232  -17.4320 N   0  0  0  0  0  0  0  0  0  0  0  0
   25.6729  -14.2360  -16.7414 C   0  0  0  0  0  0  0  0  0  0  0  0
   25.1320  -13.8048  -17.7915 O   0  0  0  0  0  0  0  0  0  0  0  0
   20.2584  -21.2941  -14.3491 N   0  0  0  0  0  0  0  0  0  0  0  0
   19.7185  -20.4883  -15.3699 C   0  0  0  0  0  0  0  0  0  0  0  0
   18.6094  -20.8765  -15.9327 N   0  0  0  0  0  0  0  0  0  0  0  0
   20.3200  -19.2779  -15.8153 N   0  0  0  0  0  0  0  0  0  0  0  0
   21.5438  -18.7602  -15.1792 C   0  0  0  0  0  0  0  0  0  0  0  0
   21.9694  -17.5761  -15.9626 C   0  0  0  0  0  0  0  0  0  0  0  0
   23.2348  -16.9179  -15.5973 C   0  0  0  0  0  0  0  0  0  0  0  0
   23.6730  -15.7417  -16.3888 C   0  0  2  0  0  0  0  0  0  0  0  0
   24.9609  -15.2075  -15.9872 N   0  0  0  0  0  0  0  0  0  0  0  0
   22.6624  -14.6703  -16.5344 C   0  0  0  0  0  0  0  0  0  0  0  0
   22.6211  -13.6914  -15.7525 O   0  0  0  0  0  0  0  0  0  0  0  0
   21.7254  -14.7212  -17.5495 O   0  0  0  0  0  0  0  0  0  0  0  0
  2  3  1  0
  2  1  1  0
  3  4  1  1
  5  3  1  0
  5  6  1  1
  7  5  1  0
  7  8  2  0
 10  9  1  6
 10 12  1  0
 11 10  1  0
 11  7  1  0
 12 13  2  0
 12 22  1  0
 15 16  2  0
 15 14  1  0
 17 15  1  0
 18 19  1  0
 18 17  1  0
 20 19  1  0
 21 20  1  1
 21 23  1  0
 22 21  1  0
 23 24  2  0
 23 25  1  0
M  END
$$$$
