IAR.pdb
     RDKit          3D

 25 24  0  0  1  0  0  0  0  0999 V2000
   25.0030  -19.2625  -21.0795 C   0  0  0  0  0  0  0  0  0  0  0  0
   23.7748  -18.9166  -20.3115 C   0  0  0  0  0  0  0  0  0  0  0  0
   23.6603  -19.4881  -18.9480 C   0  0  2  0  0  0  0  0  0  0  0  0
   24.1096  -20.9401  -18.9288 C   0  0  0  0  0  0  0  0  0  0  0  0
   22.4385  -19.2003  -18.1685 C   0  0  2  0  0  0  0  0  0  0  0  0
   22.3537  -17.7291  -18.0216 N   0  0  0  0  0  0  0  0  0  0  0  0
   22.3227  -19.8138  -16.8419 C   0  0  0  0  0  0  0  0  0  0  0  0
   22.4680  -21.0382  -16.6091 O   0  0  0  0  0  0  0  0  0  0  0  0
   21.7893  -18.5109  -13.3331 C   0  0  0  0  0  0  0  0  0  0  0  0
   21.8232  -19.5612  -14.4414 C   0  0  2  0  0  0  0  0  0  0  0  0
   22.0266  -18.9876  -15.7264 N   0  0  0  0  0  0  0  0  0  0  0  0
   20.6042  -20.4225  -14.3804 C   0  0  0  0  0  0  0  0  0  0  0  0
   19.6090  -20.1560  -15.1014 O   0  0  0  0  0  0  0  0  0  0  0  0
   16.4623  -25.1074  -10.2207 N   0  0  0  0  0  0  0  0  0  0  0  0
   16.2611  -26.1638  -11.1297 C   0  0  0  0  0  0  0  0  0  0  0  0
   15.1140  -26.7810  -11.1051 N   0  0  0  0  0  0  0  0  0  0  0  0
   17.2423  -26.5888  -12.0689 N   0  0  0  0  0  0  0  0  0  0  0  0
   18.5612  -25.9358  -12.1358 C   0  0  0  0  0  0  0  0  0  0  0  0
   18.3345  -24.5548  -12.6240 C   0  0  0  0  0  0  0  0  0  0  0  0
   19.5018  -23.6710  -12.7794 C   0  0  0  0  0  0  0  0  0  0  0  0
   19.2891  -22.3115  -13.3347 C   0  0  2  0  0  0  0  0  0  0  0  0
   20.5124  -21.5553  -13.5271 N   0  0  0  0  0  0  0  0  0  0  0  0
   18.2556  -21.5062  -12.6465 C   0  0  0  0  0  0  0  0  0  0  0  0
   18.5532  -20.6593  -11.7715 O   0  0  0  0  0  0  0  0  0  0  0  0
   16.9177  -21.6683  -12.9543 O   0  0  0  0  0  0  0  0  0  0  0  0
  2  3  1  0
  2  1  1  0
  3  4  1  6
  5  3  1  0
  5  6  1  1
  7  5  1  0
  7  8  2  0
 10  9  1  1
 10 12  1  0
 11 10  1  0
 11  7  1  0
 12 13  2  0
 12 22  1  0
 15 16  2  0
 15 14  1  0
 17 15  1  0
 18 19  1  0
 18 17  1  0
 20 19  1  0
 21 20  1  1
 21 23  1  0
 22 21  1  0
 23 24  2  0
 23 25  1  0
M  END
$$$$
