IAR.pdb
     RDKit          3D

 25 24  0  0  1  0  0  0  0  0999 V2000
   24.7163  -14.8430  -15.6666 C   0  0  0  0  0  0  0  0  0  0  0  0
   23.3925  -14.2982  -16.0772 C   0  0  0  0  0  0  0  0  0  0  0  0
   23.0675  -12.9257  -15.6197 C   0  0  2  0  0  0  0  0  0  0  0  0
   23.3722  -12.7607  -14.1396 C   0  0  0  0  0  0  0  0  0  0  0  0
   21.7965  -12.3204  -16.0684 C   0  0  2  0  0  0  0  0  0  0  0  0
   21.7791  -12.3940  -17.5476 N   0  0  0  0  0  0  0  0  0  0  0  0
   21.5252  -10.9382  -15.6621 C   0  0  0  0  0  0  0  0  0  0  0  0
   21.2991  -10.5746  -14.4826 O   0  0  0  0  0  0  0  0  0  0  0  0
   21.3861   -7.6076  -17.4544 C   0  0  0  0  0  0  0  0  0  0  0  0
   21.1461   -8.5903  -16.3101 C   0  0  2  0  0  0  0  0  0  0  0  0
   21.5119   -9.9211  -16.6521 N   0  0  0  0  0  0  0  0  0  0  0  0
   19.7386   -8.4864  -15.8206 C   0  0  0  0  0  0  0  0  0  0  0  0
   18.8268   -9.1447  -16.3833 O   0  0  0  0  0  0  0  0  0  0  0  0
   14.5879  -10.0958   -8.9543 N   0  0  0  0  0  0  0  0  0  0  0  0
   13.9113   -9.2784   -9.8799 C   0  0  0  0  0  0  0  0  0  0  0  0
   12.6430   -9.0538   -9.6841 N   0  0  0  0  0  0  0  0  0  0  0  0
   14.5397   -8.6884  -11.0124 N   0  0  0  0  0  0  0  0  0  0  0  0
   15.9349   -9.0103  -11.3590 C   0  0  0  0  0  0  0  0  0  0  0  0
   16.2951   -8.1685  -12.5245 C   0  0  0  0  0  0  0  0  0  0  0  0
   17.6442   -8.3119  -13.0964 C   0  0  0  0  0  0  0  0  0  0  0  0
   18.0010   -7.4892  -14.2788 C   0  0  2  0  0  0  0  0  0  0  0  0
   19.3713   -7.6603  -14.7242 N   0  0  0  0  0  0  0  0  0  0  0  0
   17.6364   -6.0582  -14.1818 C   0  0  0  0  0  0  0  0  0  0  0  0
   16.4507   -5.6894  -14.0098 O   0  0  0  0  0  0  0  0  0  0  0  0
   18.6060   -5.0776  -14.2795 O   0  0  0  0  0  0  0  0  0  0  0  0
  2  3  1  0
  2  1  1  0
  3  4  1  1
  5  3  1  0
  5  6  1  6
  7  5  1  0
  7  8  2  0
 10  9  1  6
 10 12  1  0
 11 10  1  0
 11  7  1  0
 12 13  2  0
 12 22  1  0
 15 16  2  0
 15 14  1  0
 17 15  1  0
 18 19  1  0
 18 17  1  0
 20 19  1  0
 21 20  1  1
 21 23  1  0
 22 21  1  0
 23 24  2  0
 23 25  1  0
M  END
$$$$
