IAR.pdb
     RDKit          3D

 25 24  0  0  1  0  0  0  0  0999 V2000
   29.7450  -18.7426  -12.0137 C   0  0  0  0  0  0  0  0  0  0  0  0
   28.6176  -19.4534  -12.6783 C   0  0  0  0  0  0  0  0  0  0  0  0
   28.3096  -20.8179  -12.1862 C   0  0  2  0  0  0  0  0  0  0  0  0
   29.5810  -21.6338  -12.0175 C   0  0  0  0  0  0  0  0  0  0  0  0
   27.1765  -21.5434  -12.7970 C   0  0  2  0  0  0  0  0  0  0  0  0
   27.5499  -21.8282  -14.2016 N   0  0  0  0  0  0  0  0  0  0  0  0
   25.8659  -20.8864  -12.7816 C   0  0  0  0  0  0  0  0  0  0  0  0
   25.1696  -20.7116  -11.7526 O   0  0  0  0  0  0  0  0  0  0  0  0
   24.0012  -18.6517  -15.0911 C   0  0  0  0  0  0  0  0  0  0  0  0
   24.0702  -19.7356  -14.0173 C   0  0  2  0  0  0  0  0  0  0  0  0
   25.3243  -20.4054  -14.0023 N   0  0  0  0  0  0  0  0  0  0  0  0
   22.9160  -20.6747  -14.1500 C   0  0  0  0  0  0  0  0  0  0  0  0
   23.0509  -21.7511  -14.7859 O   0  0  0  0  0  0  0  0  0  0  0  0
   17.1447  -23.5831   -8.4296 N   0  0  0  0  0  0  0  0  0  0  0  0
   18.3658  -23.9961   -8.9964 C   0  0  0  0  0  0  0  0  0  0  0  0
   19.1307  -24.7826   -8.2938 N   0  0  0  0  0  0  0  0  0  0  0  0
   18.8039  -23.5997  -10.2912 N   0  0  0  0  0  0  0  0  0  0  0  0
   17.9619  -22.7481  -11.1491 C   0  0  0  0  0  0  0  0  0  0  0  0
   18.7047  -22.5430  -12.4153 C   0  0  0  0  0  0  0  0  0  0  0  0
   19.8469  -21.6140  -12.4096 C   0  0  0  0  0  0  0  0  0  0  0  0
   20.5082  -21.3003  -13.7005 C   0  0  2  0  0  0  0  0  0  0  0  0
   21.6430  -20.4043  -13.5790 N   0  0  0  0  0  0  0  0  0  0  0  0
   19.5967  -20.8775  -14.7871 C   0  0  0  0  0  0  0  0  0  0  0  0
   19.2722  -19.6773  -14.9468 O   0  0  0  0  0  0  0  0  0  0  0  0
   19.0723  -21.8067  -15.6661 O   0  0  0  0  0  0  0  0  0  0  0  0
  2  3  1  0
  2  1  1  0
  3  4  1  6
  5  3  1  0
  5  6  1  6
  7  5  1  0
  7  8  2  0
 10  9  1  6
 10 12  1  0
 11 10  1  0
 11  7  1  0
 12 13  2  0
 12 22  1  0
 15 16  2  0
 15 14  1  0
 17 15  1  0
 18 19  1  0
 18 17  1  0
 20 19  1  0
 21 20  1  1
 21 23  1  0
 22 21  1  0
 23 24  2  0
 23 25  1  0
M  END
$$$$
