IAR.pdb
     RDKit          3D

 25 24  0  0  1  0  0  0  0  0999 V2000
   18.0980  -23.9981   -7.7504 C   0  0  0  0  0  0  0  0  0  0  0  0
   19.4386  -23.3984   -7.5028 C   0  0  0  0  0  0  0  0  0  0  0  0
   19.9868  -22.5312   -8.5733 C   0  0  2  0  0  0  0  0  0  0  0  0
   19.7201  -23.1285   -9.9454 C   0  0  0  0  0  0  0  0  0  0  0  0
   21.3380  -21.9620   -8.3902 C   0  0  2  0  0  0  0  0  0  0  0  0
   21.3209  -21.2037   -7.1181 N   0  0  0  0  0  0  0  0  0  0  0  0
   21.8544  -21.0914   -9.4508 C   0  0  0  0  0  0  0  0  0  0  0  0
   21.3608  -19.9809   -9.7633 O   0  0  0  0  0  0  0  0  0  0  0  0
   24.9449  -21.0006  -11.5815 C   0  0  0  0  0  0  0  0  0  0  0  0
   23.4758  -20.7221  -11.2704 C   0  0  2  0  0  0  0  0  0  0  0  0
   22.9910  -21.5103  -10.1908 N   0  0  0  0  0  0  0  0  0  0  0  0
   22.6462  -20.8617  -12.5048 C   0  0  0  0  0  0  0  0  0  0  0  0
   22.2208  -21.9929  -12.8522 O   0  0  0  0  0  0  0  0  0  0  0  0
   20.9204  -17.7311  -18.9140 N   0  0  0  0  0  0  0  0  0  0  0  0
   21.1163  -16.4817  -18.2951 C   0  0  0  0  0  0  0  0  0  0  0  0
   20.3526  -15.4918  -18.6614 N   0  0  0  0  0  0  0  0  0  0  0  0
   22.1013  -16.2470  -17.2949 N   0  0  0  0  0  0  0  0  0  0  0  0
   22.7323  -17.3664  -16.5745 C   0  0  0  0  0  0  0  0  0  0  0  0
   22.0381  -17.4861  -15.2704 C   0  0  0  0  0  0  0  0  0  0  0  0
   21.0658  -18.5780  -15.0969 C   0  0  0  0  0  0  0  0  0  0  0  0
   21.5476  -19.8731  -14.5559 C   0  0  2  0  0  0  0  0  0  0  0  0
   22.3064  -19.7520  -13.3251 N   0  0  0  0  0  0  0  0  0  0  0  0
   22.2349  -20.7459  -15.5336 C   0  0  0  0  0  0  0  0  0  0  0  0
   23.4788  -20.8999  -15.5207 O   0  0  0  0  0  0  0  0  0  0  0  0
   21.5141  -21.4235  -16.4993 O   0  0  0  0  0  0  0  0  0  0  0  0
  2  3  1  0
  2  1  1  0
  3  4  1  6
  5  3  1  0
  5  6  1  1
  7  5  1  0
  7  8  2  0
 10  9  1  6
 10 12  1  0
 11 10  1  0
 11  7  1  0
 12 13  2  0
 12 22  1  0
 15 16  2  0
 15 14  1  0
 17 15  1  0
 18 19  1  0
 18 17  1  0
 20 19  1  0
 21 20  1  6
 21 23  1  0
 22 21  1  0
 23 24  2  0
 23 25  1  0
M  END
$$$$
