IAR.pdb
     RDKit          3D

 25 24  0  0  1  0  0  0  0  0999 V2000
   28.6778  -18.9728   -6.7496 C   0  0  0  0  0  0  0  0  0  0  0  0
   28.6182  -20.1913   -7.6040 C   0  0  0  0  0  0  0  0  0  0  0  0
   27.7055  -20.1405   -8.7715 C   0  0  2  0  0  0  0  0  0  0  0  0
   26.3264  -19.6501   -8.3613 C   0  0  0  0  0  0  0  0  0  0  0  0
   27.7106  -21.2781   -9.7144 C   0  0  2  0  0  0  0  0  0  0  0  0
   29.1268  -21.5697  -10.0352 N   0  0  0  0  0  0  0  0  0  0  0  0
   26.9662  -21.1209  -10.9676 C   0  0  0  0  0  0  0  0  0  0  0  0
   27.3283  -20.3936  -11.9239 O   0  0  0  0  0  0  0  0  0  0  0  0
   24.5958  -23.2372  -12.7807 C   0  0  0  0  0  0  0  0  0  0  0  0
   25.0951  -21.8451  -12.3997 C   0  0  2  0  0  0  0  0  0  0  0  0
   25.7482  -21.8298  -11.1367 N   0  0  0  0  0  0  0  0  0  0  0  0
   23.9835  -20.8510  -12.4865 C   0  0  0  0  0  0  0  0  0  0  0  0
   23.4469  -20.4141  -11.4365 O   0  0  0  0  0  0  0  0  0  0  0  0
   22.4247  -14.5692  -17.2128 N   0  0  0  0  0  0  0  0  0  0  0  0
   23.6936  -15.1457  -17.4131 C   0  0  0  0  0  0  0  0  0  0  0  0
   24.7035  -14.3467  -17.6111 N   0  0  0  0  0  0  0  0  0  0  0  0
   23.9272  -16.5496  -17.4101 N   0  0  0  0  0  0  0  0  0  0  0  0
   22.8370  -17.4993  -17.1275 C   0  0  0  0  0  0  0  0  0  0  0  0
   23.0194  -17.9624  -15.7314 C   0  0  0  0  0  0  0  0  0  0  0  0
   22.0944  -18.9822  -15.2098 C   0  0  0  0  0  0  0  0  0  0  0  0
   22.3236  -19.5098  -13.8419 C   0  0  2  0  0  0  0  0  0  0  0  0
   23.4913  -20.3634  -13.7273 N   0  0  0  0  0  0  0  0  0  0  0  0
   21.1396  -20.1203  -13.1973 C   0  0  0  0  0  0  0  0  0  0  0  0
   20.3130  -19.4346  -12.5508 O   0  0  0  0  0  0  0  0  0  0  0  0
   20.9106  -21.4804  -13.2921 O   0  0  0  0  0  0  0  0  0  0  0  0
  2  3  1  0
  2  1  1  0
  3  4  1  1
  5  3  1  0
  5  6  1  6
  7  5  1  0
  7  8  2  0
 10  9  1  1
 10 12  1  0
 11 10  1  0
 11  7  1  0
 12 13  2  0
 12 22  1  0
 15 16  2  0
 15 14  1  0
 17 15  1  0
 18 19  1  0
 18 17  1  0
 20 19  1  0
 21 20  1  6
 21 23  1  0
 22 21  1  0
 23 24  2  0
 23 25  1  0
M  END
$$$$
