IAR.pdb
     RDKit          3D

 25 24  0  0  1  0  0  0  0  0999 V2000
   31.6222  -24.6006  -15.5985 C   0  0  0  0  0  0  0  0  0  0  0  0
   30.5688  -23.6853  -16.1189 C   0  0  0  0  0  0  0  0  0  0  0  0
   29.3426  -24.3214  -16.6581 C   0  0  2  0  0  0  0  0  0  0  0  0
   29.6923  -25.4647  -17.5967 C   0  0  0  0  0  0  0  0  0  0  0  0
   28.2446  -23.4466  -17.1188 C   0  0  2  0  0  0  0  0  0  0  0  0
   28.8498  -22.4120  -17.9888 N   0  0  0  0  0  0  0  0  0  0  0  0
   27.4324  -22.7841  -16.0937 C   0  0  0  0  0  0  0  0  0  0  0  0
   26.7753  -23.3841  -15.2089 O   0  0  0  0  0  0  0  0  0  0  0  0
   26.7076  -19.1846  -15.1753 C   0  0  0  0  0  0  0  0  0  0  0  0
   26.4912  -20.6965  -15.1816 C   0  0  2  0  0  0  0  0  0  0  0  0
   27.3679  -21.3663  -16.0785 N   0  0  0  0  0  0  0  0  0  0  0  0
   25.0538  -21.0161  -15.4331 C   0  0  0  0  0  0  0  0  0  0  0  0
   24.6185  -21.0705  -16.6115 O   0  0  0  0  0  0  0  0  0  0  0  0
   17.8268  -22.9305  -11.1295 N   0  0  0  0  0  0  0  0  0  0  0  0
   17.6075  -23.5545  -12.3725 C   0  0  0  0  0  0  0  0  0  0  0  0
   16.3793  -23.8269  -12.7113 N   0  0  0  0  0  0  0  0  0  0  0  0
   18.6542  -23.9008  -13.2725 N   0  0  0  0  0  0  0  0  0  0  0  0
   20.0677  -23.7556  -12.8838 C   0  0  0  0  0  0  0  0  0  0  0  0
   20.6825  -22.8041  -13.8396 C   0  0  0  0  0  0  0  0  0  0  0  0
   22.1019  -22.4566  -13.6601 C   0  0  0  0  0  0  0  0  0  0  0  0
   22.7140  -21.4818  -14.5966 C   0  0  2  0  0  0  0  0  0  0  0  0
   24.1327  -21.2675  -14.3805 N   0  0  0  0  0  0  0  0  0  0  0  0
   21.9864  -20.2005  -14.7343 C   0  0  0  0  0  0  0  0  0  0  0  0
   22.2265  -19.2217  -13.9887 O   0  0  0  0  0  0  0  0  0  0  0  0
   21.0102  -20.0468  -15.7010 O   0  0  0  0  0  0  0  0  0  0  0  0
  2  3  1  0
  2  1  1  0
  3  4  1  6
  5  3  1  0
  5  6  1  6
  7  5  1  0
  7  8  2  0
 10  9  1  6
 10 12  1  0
 11 10  1  0
 11  7  1  0
 12 13  2  0
 12 22  1  0
 15 16  2  0
 15 14  1  0
 17 15  1  0
 18 19  1  0
 18 17  1  0
 20 19  1  0
 21 20  1  1
 21 23  1  0
 22 21  1  0
 23 24  2  0
 23 25  1  0
M  END
$$$$
