IAR.pdb
     RDKit          3D

 25 24  0  0  1  0  0  0  0  0999 V2000
   28.0387  -18.3100  -21.1924 C   0  0  0  0  0  0  0  0  0  0  0  0
   27.6998  -17.7808  -19.8421 C   0  0  0  0  0  0  0  0  0  0  0  0
   27.4838  -18.7827  -18.7705 C   0  0  2  0  0  0  0  0  0  0  0  0
   26.6168  -19.9287  -19.2658 C   0  0  0  0  0  0  0  0  0  0  0  0
   27.1637  -18.2972  -17.4121 C   0  0  2  0  0  0  0  0  0  0  0  0
   28.1168  -17.2059  -17.1054 N   0  0  0  0  0  0  0  0  0  0  0  0
   27.1982  -19.2740  -16.3194 C   0  0  0  0  0  0  0  0  0  0  0  0
   26.5293  -20.3353  -16.2923 O   0  0  0  0  0  0  0  0  0  0  0  0
   29.2089  -19.6766  -13.1487 C   0  0  0  0  0  0  0  0  0  0  0  0
   28.0212  -19.9013  -14.0822 C   0  0  2  0  0  0  0  0  0  0  0  0
   28.0386  -19.0262  -15.2027 N   0  0  0  0  0  0  0  0  0  0  0  0
   26.7388  -19.8357  -13.3187 C   0  0  0  0  0  0  0  0  0  0  0  0
   26.1262  -18.7429  -13.2108 O   0  0  0  0  0  0  0  0  0  0  0  0
   19.1720  -21.5727  -10.7160 N   0  0  0  0  0  0  0  0  0  0  0  0
   19.2826  -21.0263  -12.0090 C   0  0  0  0  0  0  0  0  0  0  0  0
   18.3793  -20.1678  -12.3890 N   0  0  0  0  0  0  0  0  0  0  0  0
   20.3259  -21.3627  -12.9166 N   0  0  0  0  0  0  0  0  0  0  0  0
   21.3619  -22.3443  -12.5512 C   0  0  0  0  0  0  0  0  0  0  0  0
   22.4751  -21.5864  -11.9322 C   0  0  0  0  0  0  0  0  0  0  0  0
   23.7884  -21.6109  -12.5973 C   0  0  0  0  0  0  0  0  0  0  0  0
   24.9282  -20.9299  -11.9346 C   0  0  2  0  0  0  0  0  0  0  0  0
   26.1640  -20.9753  -12.6936 N   0  0  0  0  0  0  0  0  0  0  0  0
   25.1465  -21.3031  -10.5193 C   0  0  0  0  0  0  0  0  0  0  0  0
   25.6416  -22.4087  -10.1971 O   0  0  0  0  0  0  0  0  0  0  0  0
   24.8060  -20.4313   -9.5019 O   0  0  0  0  0  0  0  0  0  0  0  0
  2  3  1  0
  2  1  1  0
  3  4  1  6
  5  3  1  0
  5  6  1  1
  7  5  1  0
  7  8  2  0
 10  9  1  1
 10 12  1  0
 11 10  1  0
 11  7  1  0
 12 13  2  0
 12 22  1  0
 15 16  2  0
 15 14  1  0
 17 15  1  0
 18 19  1  0
 18 17  1  0
 20 19  1  0
 21 20  1  6
 21 23  1  0
 22 21  1  0
 23 24  2  0
 23 25  1  0
M  END
$$$$
