IAR.pdb
     RDKit          3D

 25 24  0  0  1  0  0  0  0  0999 V2000
   18.1493  -20.8126  -12.0395 C   0  0  0  0  0  0  0  0  0  0  0  0
   18.8574  -20.1501  -10.9092 C   0  0  0  0  0  0  0  0  0  0  0  0
   20.2773  -19.7875  -11.1353 C   0  0  2  0  0  0  0  0  0  0  0  0
   20.3881  -18.4713  -11.8876 C   0  0  0  0  0  0  0  0  0  0  0  0
   21.2072  -20.8448  -11.5832 C   0  0  2  0  0  0  0  0  0  0  0  0
   21.1893  -21.9051  -10.5493 N   0  0  0  0  0  0  0  0  0  0  0  0
   22.5983  -20.4584  -11.8378 C   0  0  0  0  0  0  0  0  0  0  0  0
   22.9550  -19.5944  -12.6750 O   0  0  0  0  0  0  0  0  0  0  0  0
   25.9222  -21.2736  -10.2406 C   0  0  0  0  0  0  0  0  0  0  0  0
   24.9936  -20.7508  -11.3347 C   0  0  2  0  0  0  0  0  0  0  0  0
   23.6330  -21.0900  -11.0994 N   0  0  0  0  0  0  0  0  0  0  0  0
   25.4736  -21.1904  -12.6793 C   0  0  0  0  0  0  0  0  0  0  0  0
   25.3650  -22.3951  -13.0231 O   0  0  0  0  0  0  0  0  0  0  0  0
   24.4520  -18.4255  -18.7634 N   0  0  0  0  0  0  0  0  0  0  0  0
   25.5134  -18.7304  -19.6371 C   0  0  0  0  0  0  0  0  0  0  0  0
   25.5961  -18.0645  -20.7539 N   0  0  0  0  0  0  0  0  0  0  0  0
   26.4949  -19.7239  -19.3631 N   0  0  0  0  0  0  0  0  0  0  0  0
   26.4453  -20.5173  -18.1228 C   0  0  0  0  0  0  0  0  0  0  0  0
   27.3835  -19.8826  -17.1669 C   0  0  0  0  0  0  0  0  0  0  0  0
   26.8951  -19.5751  -15.8124 C   0  0  0  0  0  0  0  0  0  0  0  0
   26.5612  -20.7040  -14.9090 C   0  0  2  0  0  0  0  0  0  0  0  0
   26.0607  -20.2920  -13.6109 N   0  0  0  0  0  0  0  0  0  0  0  0
   27.6112  -21.7392  -14.7823 C   0  0  0  0  0  0  0  0  0  0  0  0
   27.6956  -22.6957  -15.5881 O   0  0  0  0  0  0  0  0  0  0  0  0
   28.5388  -21.6780  -13.7591 O   0  0  0  0  0  0  0  0  0  0  0  0
  2  3  1  0
  2  1  1  0
  3  4  1  6
  5  3  1  0
  5  6  1  1
  7  5  1  0
  7  8  2  0
 10  9  1  1
 10 12  1  0
 11 10  1  0
 11  7  1  0
 12 13  2  0
 12 22  1  0
 15 16  2  0
 15 14  1  0
 17 15  1  0
 18 19  1  0
 18 17  1  0
 20 19  1  0
 21 20  1  1
 21 23  1  0
 22 21  1  0
 23 24  2  0
 23 25  1  0
M  END
$$$$
