IAR.pdb
     RDKit          3D

 25 24  0  0  1  0  0  0  0  0999 V2000
   25.4264  -14.4468  -18.8981 C   0  0  0  0  0  0  0  0  0  0  0  0
   26.3364  -15.1686  -17.9660 C   0  0  0  0  0  0  0  0  0  0  0  0
   25.7139  -16.1833  -17.0818 C   0  0  2  0  0  0  0  0  0  0  0  0
   24.3877  -15.6838  -16.5322 C   0  0  0  0  0  0  0  0  0  0  0  0
   26.5736  -16.8821  -16.1041 C   0  0  2  0  0  0  0  0  0  0  0  0
   27.6347  -17.5715  -16.8737 N   0  0  0  0  0  0  0  0  0  0  0  0
   25.9321  -17.8527  -15.2120 C   0  0  0  0  0  0  0  0  0  0  0  0
   24.9647  -17.5935  -14.4561 O   0  0  0  0  0  0  0  0  0  0  0  0
   26.3377  -21.5609  -14.5807 C   0  0  0  0  0  0  0  0  0  0  0  0
   25.8400  -20.1433  -14.3060 C   0  0  2  0  0  0  0  0  0  0  0  0
   26.4199  -19.1854  -15.1823 N   0  0  0  0  0  0  0  0  0  0  0  0
   26.0274  -19.7953  -12.8654 C   0  0  0  0  0  0  0  0  0  0  0  0
   27.1548  -19.4253  -12.4492 O   0  0  0  0  0  0  0  0  0  0  0  0
   20.1091  -22.6710   -6.7929 N   0  0  0  0  0  0  0  0  0  0  0  0
   20.0929  -22.8347   -8.1913 C   0  0  0  0  0  0  0  0  0  0  0  0
   19.0405  -23.3817   -8.7305 N   0  0  0  0  0  0  0  0  0  0  0  0
   21.1624  -22.4347   -9.0408 N   0  0  0  0  0  0  0  0  0  0  0  0
   22.3212  -21.6988   -8.5061 C   0  0  0  0  0  0  0  0  0  0  0  0
   23.2352  -21.4467   -9.6454 C   0  0  0  0  0  0  0  0  0  0  0  0
   23.9276  -20.1488   -9.7082 C   0  0  0  0  0  0  0  0  0  0  0  0
   25.1807  -20.0546  -10.4975 C   0  0  2  0  0  0  0  0  0  0  0  0
   24.9685  -19.8638  -11.9201 N   0  0  0  0  0  0  0  0  0  0  0  0
   26.1706  -21.1230  -10.2349 C   0  0  0  0  0  0  0  0  0  0  0  0
   27.0477  -21.0063   -9.3469 O   0  0  0  0  0  0  0  0  0  0  0  0
   26.1541  -22.2929  -10.9711 O   0  0  0  0  0  0  0  0  0  0  0  0
  2  3  1  0
  2  1  1  0
  3  4  1  1
  5  3  1  0
  5  6  1  6
  7  5  1  0
  7  8  2  0
 10  9  1  1
 10 12  1  0
 11 10  1  0
 11  7  1  0
 12 13  2  0
 12 22  1  0
 15 16  2  0
 15 14  1  0
 17 15  1  0
 18 19  1  0
 18 17  1  0
 20 19  1  0
 21 20  1  1
 21 23  1  0
 22 21  1  0
 23 24  2  0
 23 25  1  0
M  END
$$$$
