IAR.pdb
     RDKit          3D

 25 24  0  0  1  0  0  0  0  0999 V2000
   28.5151  -12.0885  -19.7971 C   0  0  0  0  0  0  0  0  0  0  0  0
   28.8673  -13.4710  -19.3697 C   0  0  0  0  0  0  0  0  0  0  0  0
   27.8693  -14.1835  -18.5359 C   0  0  2  0  0  0  0  0  0  0  0  0
   27.3608  -13.2901  -17.4162 C   0  0  0  0  0  0  0  0  0  0  0  0
   28.1535  -15.5792  -18.1430 C   0  0  2  0  0  0  0  0  0  0  0  0
   28.4671  -16.3242  -19.3841 N   0  0  0  0  0  0  0  0  0  0  0  0
   27.1088  -16.3017  -17.4109 C   0  0  0  0  0  0  0  0  0  0  0  0
   26.6596  -15.9603  -16.2901 O   0  0  0  0  0  0  0  0  0  0  0  0
   24.8493  -19.2318  -18.1400 C   0  0  0  0  0  0  0  0  0  0  0  0
   25.6321  -18.2688  -17.2498 C   0  0  2  0  0  0  0  0  0  0  0  0
   26.5495  -17.4717  -17.9879 N   0  0  0  0  0  0  0  0  0  0  0  0
   26.2837  -19.0092  -16.1279 C   0  0  0  0  0  0  0  0  0  0  0  0
   27.4379  -19.4860  -16.2755 O   0  0  0  0  0  0  0  0  0  0  0  0
   22.4278  -20.4660   -9.1051 N   0  0  0  0  0  0  0  0  0  0  0  0
   22.9587  -21.6989   -9.5302 C   0  0  0  0  0  0  0  0  0  0  0  0
   22.1880  -22.7479   -9.4749 N   0  0  0  0  0  0  0  0  0  0  0  0
   24.2878  -21.8560  -10.0145 N   0  0  0  0  0  0  0  0  0  0  0  0
   25.1945  -20.7007  -10.1297 C   0  0  0  0  0  0  0  0  0  0  0  0
   25.8947  -20.8299  -11.4297 C   0  0  0  0  0  0  0  0  0  0  0  0
   25.5093  -19.9202  -12.5214 C   0  0  0  0  0  0  0  0  0  0  0  0
   26.1768  -20.0743  -13.8377 C   0  0  2  0  0  0  0  0  0  0  0  0
   25.6477  -19.2055  -14.8723 N   0  0  0  0  0  0  0  0  0  0  0  0
   26.3099  -21.4687  -14.3154 C   0  0  0  0  0  0  0  0  0  0  0  0
   25.3715  -22.0579  -14.9016 O   0  0  0  0  0  0  0  0  0  0  0  0
   27.4876  -22.1674  -14.1256 O   0  0  0  0  0  0  0  0  0  0  0  0
  2  3  1  0
  2  1  1  0
  3  4  1  1
  5  3  1  0
  5  6  1  6
  7  5  1  0
  7  8  2  0
 10  9  1  6
 10 12  1  0
 11 10  1  0
 11  7  1  0
 12 13  2  0
 12 22  1  0
 15 16  2  0
 15 14  1  0
 17 15  1  0
 18 19  1  0
 18 17  1  0
 20 19  1  0
 21 20  1  1
 21 23  1  0
 22 21  1  0
 23 24  2  0
 23 25  1  0
M  END
$$$$
