IAR.pdb
     RDKit          3D

 25 24  0  0  1  0  0  0  0  0999 V2000
   29.1434  -19.5323   -3.5241 C   0  0  0  0  0  0  0  0  0  0  0  0
   28.5973  -18.8684   -4.7403 C   0  0  0  0  0  0  0  0  0  0  0  0
   28.2926  -19.7456   -5.8963 C   0  0  2  0  0  0  0  0  0  0  0  0
   29.3813  -20.7891   -6.0876 C   0  0  0  0  0  0  0  0  0  0  0  0
   27.8008  -19.1186   -7.1407 C   0  0  2  0  0  0  0  0  0  0  0  0
   26.7282  -18.1727   -6.7556 N   0  0  0  0  0  0  0  0  0  0  0  0
   27.2914  -20.0070   -8.1898 C   0  0  0  0  0  0  0  0  0  0  0  0
   28.0057  -20.7672   -8.8872 O   0  0  0  0  0  0  0  0  0  0  0  0
   23.8643  -20.9540   -9.4657 C   0  0  0  0  0  0  0  0  0  0  0  0
   25.3823  -20.8002   -9.5323 C   0  0  2  0  0  0  0  0  0  0  0  0
   25.8972  -20.0279   -8.4552 N   0  0  0  0  0  0  0  0  0  0  0  0
   25.7946  -20.2741  -10.8683 C   0  0  0  0  0  0  0  0  0  0  0  0
   25.7958  -19.0352  -11.0833 O   0  0  0  0  0  0  0  0  0  0  0  0
   31.2204  -22.6688  -17.0021 N   0  0  0  0  0  0  0  0  0  0  0  0
   30.6718  -23.0124  -15.7516 C   0  0  0  0  0  0  0  0  0  0  0  0
   31.4479  -23.5969  -14.8836 N   0  0  0  0  0  0  0  0  0  0  0  0
   29.3196  -22.7547  -15.3902 N   0  0  0  0  0  0  0  0  0  0  0  0
   28.4083  -22.0549  -16.3122 C   0  0  0  0  0  0  0  0  0  0  0  0
   27.5789  -21.1428  -15.4894 C   0  0  0  0  0  0  0  0  0  0  0  0
   27.3199  -21.5117  -14.0877 C   0  0  0  0  0  0  0  0  0  0  0  0
   26.4011  -20.6605  -13.2919 C   0  0  2  0  0  0  0  0  0  0  0  0
   26.1948  -21.1259  -11.9331 N   0  0  0  0  0  0  0  0  0  0  0  0
   25.1189  -20.3306  -13.9532 C   0  0  0  0  0  0  0  0  0  0  0  0
   24.1392  -21.1120  -13.9204 O   0  0  0  0  0  0  0  0  0  0  0  0
   24.9655  -19.1368  -14.6332 O   0  0  0  0  0  0  0  0  0  0  0  0
  2  3  1  0
  2  1  1  0
  3  4  1  6
  5  3  1  0
  5  6  1  1
  7  5  1  0
  7  8  2  0
 10  9  1  6
 10 12  1  0
 11 10  1  0
 11  7  1  0
 12 13  2  0
 12 22  1  0
 15 16  2  0
 15 14  1  0
 17 15  1  0
 18 19  1  0
 18 17  1  0
 20 19  1  0
 21 20  1  6
 21 23  1  0
 22 21  1  0
 23 24  2  0
 23 25  1  0
M  END
$$$$
