IAR.pdb
     RDKit          3D

 25 24  0  0  1  0  0  0  0  0999 V2000
   11.3576  -14.9345    3.4419 C   0  0  0  0  0  0  0  0  0  0  0  0
   11.3554  -16.4034    3.6882 C   0  0  0  0  0  0  0  0  0  0  0  0
   12.5552  -17.1535    3.2450 C   0  0  2  0  0  0  0  0  0  0  0  0
   12.9147  -16.8035    1.8101 C   0  0  0  0  0  0  0  0  0  0  0  0
   12.6469  -18.5895    3.5809 C   0  0  2  0  0  0  0  0  0  0  0  0
   12.8209  -18.6816    5.0488 N   0  0  0  0  0  0  0  0  0  0  0  0
   13.7045  -19.3697    2.9311 C   0  0  0  0  0  0  0  0  0  0  0  0
   13.8337  -19.4976    1.6895 O   0  0  0  0  0  0  0  0  0  0  0  0
   16.7610  -21.2377    4.1418 C   0  0  0  0  0  0  0  0  0  0  0  0
   15.6833  -20.8243    3.1417 C   0  0  2  0  0  0  0  0  0  0  0  0
   14.6617  -20.0365    3.7396 N   0  0  0  0  0  0  0  0  0  0  0  0
   15.1456  -22.0227    2.4301 C   0  0  0  0  0  0  0  0  0  0  0  0
   14.0747  -22.5561    2.8171 O   0  0  0  0  0  0  0  0  0  0  0  0
   16.2688  -25.1372   -5.7928 N   0  0  0  0  0  0  0  0  0  0  0  0
   16.0951  -25.5469   -4.4569 C   0  0  0  0  0  0  0  0  0  0  0  0
   16.8886  -26.4701   -3.9927 N   0  0  0  0  0  0  0  0  0  0  0  0
   15.1017  -25.0063   -3.5930 N   0  0  0  0  0  0  0  0  0  0  0  0
   15.1075  -23.5784   -3.2305 C   0  0  0  0  0  0  0  0  0  0  0  0
   14.7199  -23.4943   -1.8024 C   0  0  0  0  0  0  0  0  0  0  0  0
   15.7121  -23.8861   -0.7876 C   0  0  0  0  0  0  0  0  0  0  0  0
   15.3292  -23.8020    0.6436 C   0  0  2  0  0  0  0  0  0  0  0  0
   15.8011  -22.6029    1.3106 N   0  0  0  0  0  0  0  0  0  0  0  0
   15.6133  -25.0150    1.4424 C   0  0  0  0  0  0  0  0  0  0  0  0
   16.4685  -25.0164    2.3590 O   0  0  0  0  0  0  0  0  0  0  0  0
   14.9344  -26.1938    1.1961 O   0  0  0  0  0  0  0  0  0  0  0  0
  2  3  1  0
  2  1  1  0
  3  4  1  6
  5  3  1  0
  5  6  1  1
  7  5  1  0
  7  8  2  0
 10  9  1  1
 10 12  1  0
 11 10  1  0
 11  7  1  0
 12 13  2  0
 12 22  1  0
 15 16  2  0
 15 14  1  0
 17 15  1  0
 18 19  1  0
 18 17  1  0
 20 19  1  0
 21 20  1  6
 21 23  1  0
 22 21  1  0
 23 24  2  0
 23 25  1  0
M  END
$$$$
