NCE.pdb
     RDKit          3D

 24 23  0  0  1  0  0  0  0  0999 V2000
    7.4510  -16.5062   17.2493 N   0  0  0  0  0  0  0  0  0  0  0  0
    7.9077  -15.1705   17.3422 C   0  0  0  0  0  0  0  0  0  0  0  0
    8.0295  -14.5218   16.2563 O   0  0  0  0  0  0  0  0  0  0  0  0
    8.2403  -14.5187   18.6327 C   0  0  0  0  0  0  0  0  0  0  0  0
    8.2105  -15.5690   19.7158 C   0  0  2  0  0  0  0  0  0  0  0  0
    6.8156  -16.0032   19.8594 N   0  0  0  0  0  0  0  0  0  0  0  0
    8.7086  -15.0709   21.0082 C   0  0  0  0  0  0  0  0  0  0  0  0
    9.9075  -14.7565   21.2434 O   0  0  0  0  0  0  0  0  0  0  0  0
    7.8015  -14.9221   22.0864 N   0  0  0  0  0  0  0  0  0  0  0  0
    8.2049  -14.6463   23.4402 C   0  0  1  0  0  0  0  0  0  0  0  0
    6.9834  -14.1595   24.2297 C   0  0  0  0  0  0  0  0  0  0  0  0
    7.5780  -13.7830   25.9074 S   0  0  0  0  0  0  0  0  0  0  0  0
    8.7466  -15.7877   24.1636 C   0  0  0  0  0  0  0  0  0  0  0  0
    8.0859  -16.8417   24.2617 O   0  0  0  0  0  0  0  0  0  0  0  0
   10.0218  -15.7087   24.7563 N   0  0  0  0  0  0  0  0  0  0  0  0
   10.6759  -16.8622   25.4055 C   0  0  1  0  0  0  0  0  0  0  0  0
   12.1323  -16.7685   25.0659 C   0  0  0  0  0  0  0  0  0  0  0  0
   12.5141  -17.1825   23.6910 C   0  0  0  0  0  0  0  0  0  0  0  0
   13.9297  -16.9303   23.3464 C   0  0  0  0  0  0  0  0  0  0  0  0
   14.7185  -16.4138   24.1986 O   0  0  0  0  0  0  0  0  0  0  0  0
   10.5205  -16.7484   26.8740 C   0  0  0  0  0  0  0  0  0  0  0  0
   10.8609  -17.7406   27.7637 O   0  0  0  0  0  0  0  0  0  0  0  0
   14.3877  -17.2751   22.0573 O   0  0  0  0  0  0  0  0  0  0  0  0
   10.0479  -15.6820   27.3612 O   0  0  0  0  0  0  0  0  0  0  0  0
  2  1  1  0
  3  2  2  0
  4  2  1  0
  4  5  1  0
  5  6  1  1
  7  5  1  0
  7  8  2  0
  9  7  1  0
 10  9  1  0
 10 13  1  0
 10 11  1  1
 12 11  1  0
 13 15  1  0
 14 13  2  0
 15 16  1  0
 16 21  1  0
 16 17  1  1
 18 17  1  0
 19 23  1  0
 19 18  1  0
 20 19  2  0
 21 24  2  0
 21 22  1  0
M  END
$$$$
