NCE.pdb
     RDKit          3D

 24 23  0  0  1  0  0  0  0  0999 V2000
    7.9637  -12.7864   16.3644 N   0  0  0  0  0  0  0  0  0  0  0  0
    7.5257  -13.7385   17.3147 C   0  0  0  0  0  0  0  0  0  0  0  0
    6.9486  -14.7796   16.8698 O   0  0  0  0  0  0  0  0  0  0  0  0
    7.7137  -13.5662   18.7762 C   0  0  0  0  0  0  0  0  0  0  0  0
    8.4076  -14.7941   19.3128 C   0  0  2  0  0  0  0  0  0  0  0  0
    7.4252  -15.8848   19.3049 N   0  0  0  0  0  0  0  0  0  0  0  0
    8.9265  -14.6062   20.6774 C   0  0  0  0  0  0  0  0  0  0  0  0
   10.0663  -14.1426   20.9552 O   0  0  0  0  0  0  0  0  0  0  0  0
    8.1116  -14.9618   21.7806 N   0  0  0  0  0  0  0  0  0  0  0  0
    8.5706  -14.9731   23.1446 C   0  0  1  0  0  0  0  0  0  0  0  0
    7.3537  -14.9025   24.0755 C   0  0  0  0  0  0  0  0  0  0  0  0
    7.1660  -13.1526   24.5369 S   0  0  0  0  0  0  0  0  0  0  0  0
    9.3262  -16.1571   23.5280 C   0  0  0  0  0  0  0  0  0  0  0  0
    8.9550  -17.2885   23.1548 O   0  0  0  0  0  0  0  0  0  0  0  0
   10.4827  -16.0315   24.3221 N   0  0  0  0  0  0  0  0  0  0  0  0
   11.3858  -17.1643   24.6061 C   0  0  1  0  0  0  0  0  0  0  0  0
   12.7359  -16.7680   24.0909 C   0  0  0  0  0  0  0  0  0  0  0  0
   13.8474  -17.7151   24.3646 C   0  0  0  0  0  0  0  0  0  0  0  0
   15.1591  -17.2910   23.8301 C   0  0  0  0  0  0  0  0  0  0  0  0
   15.5537  -16.0907   23.9676 O   0  0  0  0  0  0  0  0  0  0  0  0
   11.4740  -17.3625   26.0712 C   0  0  0  0  0  0  0  0  0  0  0  0
   11.8974  -18.5280   26.6666 O   0  0  0  0  0  0  0  0  0  0  0  0
   15.9635  -18.2422   23.1679 O   0  0  0  0  0  0  0  0  0  0  0  0
   11.1450  -16.4151   26.8405 O   0  0  0  0  0  0  0  0  0  0  0  0
  2  1  1  0
  3  2  2  0
  4  2  1  0
  4  5  1  0
  5  6  1  1
  7  5  1  0
  7  8  2  0
  9  7  1  0
 10  9  1  0
 10 13  1  0
 10 11  1  1
 12 11  1  0
 13 15  1  0
 14 13  2  0
 15 16  1  0
 16 21  1  0
 16 17  1  1
 18 17  1  0
 19 23  1  0
 19 18  1  0
 20 19  2  0
 21 24  2  0
 21 22  1  0
M  END
$$$$
