NCE.pdb
     RDKit          3D

 24 23  0  0  1  0  0  0  0  0999 V2000
    7.8893  -12.5418   17.3613 N   0  0  0  0  0  0  0  0  0  0  0  0
    8.1467  -13.6018   18.2621 C   0  0  0  0  0  0  0  0  0  0  0  0
    7.8620  -14.7773   17.8718 O   0  0  0  0  0  0  0  0  0  0  0  0
    8.7237  -13.3919   19.6126 C   0  0  0  0  0  0  0  0  0  0  0  0
    8.2051  -14.4774   20.5236 C   0  0  2  0  0  0  0  0  0  0  0  0
    6.7399  -14.4492   20.4401 N   0  0  0  0  0  0  0  0  0  0  0  0
    8.6240  -14.2969   21.9230 C   0  0  0  0  0  0  0  0  0  0  0  0
    9.8173  -14.3504   22.3285 O   0  0  0  0  0  0  0  0  0  0  0  0
    7.6402  -14.0430   22.9105 N   0  0  0  0  0  0  0  0  0  0  0  0
    7.9192  -13.9786   24.3210 C   0  0  1  0  0  0  0  0  0  0  0  0
    6.9481  -12.9854   24.9714 C   0  0  0  0  0  0  0  0  0  0  0  0
    6.2421  -13.8354   26.4168 S   0  0  0  0  0  0  0  0  0  0  0  0
    7.7723  -15.2396   25.0338 C   0  0  0  0  0  0  0  0  0  0  0  0
    6.8573  -16.0315   24.7294 O   0  0  0  0  0  0  0  0  0  0  0  0
    8.6645  -15.5735   26.0712 N   0  0  0  0  0  0  0  0  0  0  0  0
    9.2954  -16.9032   26.1877 C   0  0  1  0  0  0  0  0  0  0  0  0
   10.2152  -17.0389   25.0126 C   0  0  0  0  0  0  0  0  0  0  0  0
   11.0643  -18.2577   24.9805 C   0  0  0  0  0  0  0  0  0  0  0  0
   11.9553  -18.3526   23.8044 C   0  0  0  0  0  0  0  0  0  0  0  0
   11.8987  -17.4813   22.8807 O   0  0  0  0  0  0  0  0  0  0  0  0
   10.0991  -16.9547   27.4306 C   0  0  0  0  0  0  0  0  0  0  0  0
   10.4059  -15.8534   28.1957 O   0  0  0  0  0  0  0  0  0  0  0  0
   12.8688  -19.4250   23.7279 O   0  0  0  0  0  0  0  0  0  0  0  0
   10.5403  -18.0693   27.8315 O   0  0  0  0  0  0  0  0  0  0  0  0
  2  1  1  0
  3  2  2  0
  4  2  1  0
  4  5  1  0
  5  6  1  1
  7  5  1  0
  7  8  2  0
  9  7  1  0
 10  9  1  0
 10 13  1  0
 10 11  1  1
 12 11  1  0
 13 15  1  0
 14 13  2  0
 15 16  1  0
 16 21  1  0
 16 17  1  6
 18 17  1  0
 19 23  1  0
 19 18  1  0
 20 19  2  0
 21 24  2  0
 21 22  1  0
M  END
$$$$
