NCE.pdb
     RDKit          3D

 24 23  0  0  1  0  0  0  0  0999 V2000
    8.6327  -14.8906   16.7589 N   0  0  0  0  0  0  0  0  0  0  0  0
    9.9571  -14.6198   17.1762 C   0  0  0  0  0  0  0  0  0  0  0  0
   10.8914  -14.9041   16.3630 O   0  0  0  0  0  0  0  0  0  0  0  0
   10.2828  -14.0296   18.4976 C   0  0  0  0  0  0  0  0  0  0  0  0
    8.9940  -13.8233   19.2552 C   0  0  2  0  0  0  0  0  0  0  0  0
    8.3903  -12.5833   18.7526 N   0  0  0  0  0  0  0  0  0  0  0  0
    9.1967  -13.7203   20.7094 C   0  0  0  0  0  0  0  0  0  0  0  0
    9.1323  -12.6474   21.3698 O   0  0  0  0  0  0  0  0  0  0  0  0
    9.4866  -14.8926   21.4505 N   0  0  0  0  0  0  0  0  0  0  0  0
    9.0826  -15.0969   22.8167 C   0  0  1  0  0  0  0  0  0  0  0  0
    7.5785  -14.8205   22.9332 C   0  0  0  0  0  0  0  0  0  0  0  0
    7.1760  -14.9299   24.7041 S   0  0  0  0  0  0  0  0  0  0  0  0
    9.3046  -16.4420   23.3276 C   0  0  0  0  0  0  0  0  0  0  0  0
    8.7026  -17.4130   22.8258 O   0  0  0  0  0  0  0  0  0  0  0  0
   10.2026  -16.6550   24.3916 N   0  0  0  0  0  0  0  0  0  0  0  0
   10.5048  -17.9970   24.9278 C   0  0  1  0  0  0  0  0  0  0  0  0
   10.7458  -17.8209   26.3962 C   0  0  0  0  0  0  0  0  0  0  0  0
   11.5302  -16.6235   26.7941 C   0  0  0  0  0  0  0  0  0  0  0  0
   11.8053  -16.5254   28.2435 C   0  0  0  0  0  0  0  0  0  0  0  0
   10.8522  -16.3860   29.0727 O   0  0  0  0  0  0  0  0  0  0  0  0
    9.3263  -18.8742   24.7400 C   0  0  0  0  0  0  0  0  0  0  0  0
    8.0425  -18.4124   24.5648 O   0  0  0  0  0  0  0  0  0  0  0  0
   13.1427  -16.5913   28.6880 O   0  0  0  0  0  0  0  0  0  0  0  0
    9.4876  -20.1279   24.7369 O   0  0  0  0  0  0  0  0  0  0  0  0
  2  1  1  0
  3  2  2  0
  4  2  1  0
  4  5  1  0
  5  6  1  6
  7  5  1  0
  7  8  2  0
  9  7  1  0
 10  9  1  0
 10 13  1  0
 10 11  1  6
 12 11  1  0
 13 15  1  0
 14 13  2  0
 15 16  1  0
 16 21  1  0
 16 17  1  1
 18 17  1  0
 19 23  1  0
 19 18  1  0
 20 19  2  0
 21 24  2  0
 21 22  1  0
M  END
$$$$
