NCE.pdb
     RDKit          3D

 24 23  0  0  1  0  0  0  0  0999 V2000
    7.6261  -15.2498   12.9712 N   0  0  0  0  0  0  0  0  0  0  0  0
    8.6062  -15.7650   13.8519 C   0  0  0  0  0  0  0  0  0  0  0  0
    9.1286  -16.8831   13.5488 O   0  0  0  0  0  0  0  0  0  0  0  0
    9.0334  -15.0607   15.0857 C   0  0  0  0  0  0  0  0  0  0  0  0
    9.1853  -16.0822   16.1860 C   0  0  2  0  0  0  0  0  0  0  0  0
    7.8800  -16.7313   16.3573 N   0  0  0  0  0  0  0  0  0  0  0  0
    9.6126  -15.4871   17.4627 C   0  0  0  0  0  0  0  0  0  0  0  0
   10.8119  -15.3744   17.8373 O   0  0  0  0  0  0  0  0  0  0  0  0
    8.6305  -14.9955   18.3579 N   0  0  0  0  0  0  0  0  0  0  0  0
    8.9194  -14.5396   19.6921 C   0  0  1  0  0  0  0  0  0  0  0  0
    7.6659  -13.8678   20.2663 C   0  0  0  0  0  0  0  0  0  0  0  0
    7.5946  -12.2065   19.5280 S   0  0  0  0  0  0  0  0  0  0  0  0
    9.3030  -15.5862   20.6286 C   0  0  0  0  0  0  0  0  0  0  0  0
    8.6302  -16.6338   20.7117 O   0  0  0  0  0  0  0  0  0  0  0  0
   10.4382  -15.4223   21.4460 N   0  0  0  0  0  0  0  0  0  0  0  0
   11.0387  -16.5310   22.2141 C   0  0  1  0  0  0  0  0  0  0  0  0
   11.4978  -17.5421   21.2080 C   0  0  0  0  0  0  0  0  0  0  0  0
   12.1800  -18.7454   21.7504 C   0  0  0  0  0  0  0  0  0  0  0  0
   12.5872  -19.7320   20.7271 C   0  0  0  0  0  0  0  0  0  0  0  0
   13.7256  -19.6485   20.1682 O   0  0  0  0  0  0  0  0  0  0  0  0
   12.2173  -16.0281   22.9565 C   0  0  0  0  0  0  0  0  0  0  0  0
   12.7405  -16.6359   24.0741 O   0  0  0  0  0  0  0  0  0  0  0  0
   11.6911  -20.7666   20.3852 O   0  0  0  0  0  0  0  0  0  0  0  0
   12.7936  -14.9769   22.5556 O   0  0  0  0  0  0  0  0  0  0  0  0
  2  1  1  0
  3  2  2  0
  4  2  1  0
  4  5  1  0
  5  6  1  1
  7  5  1  0
  7  8  2  0
  9  7  1  0
 10  9  1  0
 10 13  1  0
 10 11  1  1
 12 11  1  0
 13 15  1  0
 14 13  2  0
 15 16  1  0
 16 21  1  0
 16 17  1  6
 18 17  1  0
 19 23  1  0
 19 18  1  0
 20 19  2  0
 21 24  2  0
 21 22  1  0
M  END
$$$$
