NCE.pdb
     RDKit          3D

 24 23  0  0  1  0  0  0  0  0999 V2000
    7.1286  -13.8493   20.6088 N   0  0  0  0  0  0  0  0  0  0  0  0
    8.0311  -14.6281   19.8469 C   0  0  0  0  0  0  0  0  0  0  0  0
    8.3909  -14.1633   18.7202 O   0  0  0  0  0  0  0  0  0  0  0  0
    8.5582  -15.9358   20.3083 C   0  0  0  0  0  0  0  0  0  0  0  0
    7.9449  -16.2467   21.6516 C   0  0  2  0  0  0  0  0  0  0  0  0
    6.4952  -16.0580   21.5197 N   0  0  0  0  0  0  0  0  0  0  0  0
    8.4597  -15.3843   22.7276 C   0  0  0  0  0  0  0  0  0  0  0  0
    9.6817  -15.2215   22.9955 O   0  0  0  0  0  0  0  0  0  0  0  0
    7.5427  -14.6717   23.5392 N   0  0  0  0  0  0  0  0  0  0  0  0
    7.8930  -14.0543   24.7912 C   0  0  1  0  0  0  0  0  0  0  0  0
    6.6667  -13.3108   25.3352 C   0  0  0  0  0  0  0  0  0  0  0  0
    7.2522  -12.3300   26.7512 S   0  0  0  0  0  0  0  0  0  0  0  0
    8.3217  -14.9778   25.8320 C   0  0  0  0  0  0  0  0  0  0  0  0
    7.5665  -15.8975   26.2072 O   0  0  0  0  0  0  0  0  0  0  0  0
    9.5937  -14.8386   26.4206 N   0  0  0  0  0  0  0  0  0  0  0  0
   10.0462  -15.6685   27.5548 C   0  0  1  0  0  0  0  0  0  0  0  0
   11.3461  -16.2847   27.1355 C   0  0  0  0  0  0  0  0  0  0  0  0
   11.2700  -17.3174   26.0700 C   0  0  0  0  0  0  0  0  0  0  0  0
   12.5825  -17.8041   25.5939 C   0  0  0  0  0  0  0  0  0  0  0  0
   13.6585  -17.3584   26.1027 O   0  0  0  0  0  0  0  0  0  0  0  0
   10.2875  -14.7995   28.7295 C   0  0  0  0  0  0  0  0  0  0  0  0
   10.1699  -13.4291   28.7109 O   0  0  0  0  0  0  0  0  0  0  0  0
   12.6177  -18.7721   24.5681 O   0  0  0  0  0  0  0  0  0  0  0  0
   10.6232  -15.3289   29.8271 O   0  0  0  0  0  0  0  0  0  0  0  0
  2  1  1  0
  3  2  2  0
  4  2  1  0
  4  5  1  0
  5  6  1  6
  7  5  1  0
  7  8  2  0
  9  7  1  0
 10  9  1  0
 10 13  1  0
 10 11  1  1
 12 11  1  0
 13 15  1  0
 14 13  2  0
 15 16  1  0
 16 21  1  0
 16 17  1  6
 18 17  1  0
 19 23  1  0
 19 18  1  0
 20 19  2  0
 21 24  2  0
 21 22  1  0
M  END
$$$$
