NCE.pdb
     RDKit          3D

 24 23  0  0  1  0  0  0  0  0999 V2000
    7.7174  -16.8992   15.4755 N   0  0  0  0  0  0  0  0  0  0  0  0
    8.5995  -17.7232   16.2133 C   0  0  0  0  0  0  0  0  0  0  0  0
    8.5100  -18.9779   16.0321 O   0  0  0  0  0  0  0  0  0  0  0  0
    9.6002  -17.1846   17.1669 C   0  0  0  0  0  0  0  0  0  0  0  0
    9.1870  -17.5825   18.5626 C   0  0  2  0  0  0  0  0  0  0  0  0
    7.7270  -17.4494   18.6364 N   0  0  0  0  0  0  0  0  0  0  0  0
    9.8124  -16.7495   19.6026 C   0  0  0  0  0  0  0  0  0  0  0  0
   11.0556  -16.5853   19.7405 O   0  0  0  0  0  0  0  0  0  0  0  0
    8.9864  -16.0695   20.5313 N   0  0  0  0  0  0  0  0  0  0  0  0
    9.4852  -15.3804   21.6923 C   0  0  1  0  0  0  0  0  0  0  0  0
    8.3359  -14.5883   22.3279 C   0  0  0  0  0  0  0  0  0  0  0  0
    7.1897  -15.8202   23.0199 S   0  0  0  0  0  0  0  0  0  0  0  0
   10.0278  -16.2432   22.7319 C   0  0  0  0  0  0  0  0  0  0  0  0
    9.5772  -17.3958   22.8917 O   0  0  0  0  0  0  0  0  0  0  0  0
   11.0669  -15.7814   23.5631 N   0  0  0  0  0  0  0  0  0  0  0  0
   12.0042  -16.6899   24.2529 C   0  0  1  0  0  0  0  0  0  0  0  0
   13.3820  -16.1833   23.9525 C   0  0  0  0  0  0  0  0  0  0  0  0
   14.5070  -16.9404   24.5596 C   0  0  0  0  0  0  0  0  0  0  0  0
   15.8438  -16.3647   24.2993 C   0  0  0  0  0  0  0  0  0  0  0  0
   15.9765  -15.3694   23.5200 O   0  0  0  0  0  0  0  0  0  0  0  0
   11.7750  -16.6100   25.7139 C   0  0  0  0  0  0  0  0  0  0  0  0
   12.2715  -17.5159   26.6222 O   0  0  0  0  0  0  0  0  0  0  0  0
   16.9665  -16.9383   24.9325 O   0  0  0  0  0  0  0  0  0  0  0  0
   11.0832  -15.6584   26.1764 O   0  0  0  0  0  0  0  0  0  0  0  0
  2  1  1  0
  3  2  2  0
  4  2  1  0
  4  5  1  0
  5  6  1  6
  7  5  1  0
  7  8  2  0
  9  7  1  0
 10  9  1  0
 10 13  1  0
 10 11  1  1
 12 11  1  0
 13 15  1  0
 14 13  2  0
 15 16  1  0
 16 21  1  0
 16 17  1  1
 18 17  1  0
 19 23  1  0
 19 18  1  0
 20 19  2  0
 21 24  2  0
 21 22  1  0
M  END
$$$$
