NCE.pdb
     RDKit          3D

 24 23  0  0  1  0  0  0  0  0999 V2000
    4.7770  -12.4045   26.4944 N   0  0  0  0  0  0  0  0  0  0  0  0
    6.1512  -12.0986   26.3541 C   0  0  0  0  0  0  0  0  0  0  0  0
    6.5509  -10.9909   26.8318 O   0  0  0  0  0  0  0  0  0  0  0  0
    7.1162  -13.0053   25.6852 C   0  0  0  0  0  0  0  0  0  0  0  0
    6.3620  -14.2108   25.1801 C   0  0  2  0  0  0  0  0  0  0  0  0
    5.8471  -14.9231   26.3557 N   0  0  0  0  0  0  0  0  0  0  0  0
    7.2033  -15.1175   24.3821 C   0  0  0  0  0  0  0  0  0  0  0  0
    7.7698  -16.1521   24.8294 O   0  0  0  0  0  0  0  0  0  0  0  0
    7.4115  -14.8362   23.0091 N   0  0  0  0  0  0  0  0  0  0  0  0
    8.2531  -15.6253   22.1485 C   0  0  1  0  0  0  0  0  0  0  0  0
    8.0929  -15.1249   20.7076 C   0  0  0  0  0  0  0  0  0  0  0  0
    8.4190  -13.3355   20.7503 S   0  0  0  0  0  0  0  0  0  0  0  0
    9.6743  -15.5674   22.4591 C   0  0  0  0  0  0  0  0  0  0  0  0
   10.2686  -14.4705   22.4845 O   0  0  0  0  0  0  0  0  0  0  0  0
   10.3867  -16.7508   22.7345 N   0  0  0  0  0  0  0  0  0  0  0  0
   11.8229  -16.7596   23.0765 C   0  0  1  0  0  0  0  0  0  0  0  0
   12.0024  -17.8200   24.1198 C   0  0  0  0  0  0  0  0  0  0  0  0
   11.3163  -17.5878   25.4171 C   0  0  0  0  0  0  0  0  0  0  0  0
   11.4388  -18.7010   26.3826 C   0  0  0  0  0  0  0  0  0  0  0  0
   12.0445  -19.7707   26.0597 O   0  0  0  0  0  0  0  0  0  0  0  0
   12.6077  -17.1331   21.8773 C   0  0  0  0  0  0  0  0  0  0  0  0
   12.0493  -17.5181   20.6806 O   0  0  0  0  0  0  0  0  0  0  0  0
   10.8736  -18.5529   27.6667 O   0  0  0  0  0  0  0  0  0  0  0  0
   13.8701  -17.1029   21.9350 O   0  0  0  0  0  0  0  0  0  0  0  0
  2  1  1  0
  3  2  2  0
  4  2  1  0
  4  5  1  0
  5  6  1  1
  7  5  1  0
  7  8  2  0
  9  7  1  0
 10  9  1  0
 10 13  1  0
 10 11  1  6
 12 11  1  0
 13 15  1  0
 14 13  2  0
 15 16  1  0
 16 21  1  0
 16 17  1  1
 18 17  1  0
 19 23  1  0
 19 18  1  0
 20 19  2  0
 21 24  2  0
 21 22  1  0
M  END
$$$$
