NCE.pdb
     RDKit          3D

 24 23  0  0  1  0  0  0  0  0999 V2000
    8.7145  -13.3369   17.4858 N   0  0  0  0  0  0  0  0  0  0  0  0
    7.6316  -13.1956   18.3851 C   0  0  0  0  0  0  0  0  0  0  0  0
    6.4600  -13.2990   17.9036 O   0  0  0  0  0  0  0  0  0  0  0  0
    7.8139  -12.9377   19.8345 C   0  0  0  0  0  0  0  0  0  0  0  0
    7.7326  -14.2560   20.5644 C   0  0  2  0  0  0  0  0  0  0  0  0
    6.3123  -14.6164   20.6503 N   0  0  0  0  0  0  0  0  0  0  0  0
    8.3100  -14.1963   21.9170 C   0  0  0  0  0  0  0  0  0  0  0  0
    9.5438  -14.1196   22.1690 O   0  0  0  0  0  0  0  0  0  0  0  0
    7.4448  -14.2249   23.0386 N   0  0  0  0  0  0  0  0  0  0  0  0
    7.9022  -14.2914   24.4017 C   0  0  1  0  0  0  0  0  0  0  0  0
    6.7030  -14.0857   25.3354 C   0  0  0  0  0  0  0  0  0  0  0  0
    6.9459  -12.4660   26.1276 S   0  0  0  0  0  0  0  0  0  0  0  0
    8.5196  -15.5542   24.7807 C   0  0  0  0  0  0  0  0  0  0  0  0
    7.8921  -16.6251   24.6521 O   0  0  0  0  0  0  0  0  0  0  0  0
    9.8311  -15.5742   25.2941 N   0  0  0  0  0  0  0  0  0  0  0  0
   10.5990  -16.8212   25.4807 C   0  0  1  0  0  0  0  0  0  0  0  0
   11.9697  -16.5591   24.9351 C   0  0  0  0  0  0  0  0  0  0  0  0
   12.9603  -17.6551   25.0933 C   0  0  0  0  0  0  0  0  0  0  0  0
   14.2131  -17.4631   24.3319 C   0  0  0  0  0  0  0  0  0  0  0  0
   14.3957  -18.0665   23.2282 O   0  0  0  0  0  0  0  0  0  0  0  0
   10.7100  -17.1139   26.9282 C   0  0  0  0  0  0  0  0  0  0  0  0
   11.0955  -18.3309   27.4406 O   0  0  0  0  0  0  0  0  0  0  0  0
   15.1989  -16.5978   24.8513 O   0  0  0  0  0  0  0  0  0  0  0  0
   10.4386  -16.2034   27.7620 O   0  0  0  0  0  0  0  0  0  0  0  0
  2  1  1  0
  3  2  2  0
  4  2  1  0
  4  5  1  0
  5  6  1  1
  7  5  1  0
  7  8  2  0
  9  7  1  0
 10  9  1  0
 10 13  1  0
 10 11  1  1
 12 11  1  0
 13 15  1  0
 14 13  2  0
 15 16  1  0
 16 21  1  0
 16 17  1  1
 18 17  1  0
 19 23  1  0
 19 18  1  0
 20 19  2  0
 21 24  2  0
 21 22  1  0
M  END
$$$$
