NCE.pdb
     RDKit          3D

 24 23  0  0  1  0  0  0  0  0999 V2000
    9.5977  -14.5927   19.9734 N   0  0  0  0  0  0  0  0  0  0  0  0
    8.3639  -14.0194   19.5855 C   0  0  0  0  0  0  0  0  0  0  0  0
    8.3809  -13.2180   18.5993 O   0  0  0  0  0  0  0  0  0  0  0  0
    7.0838  -14.3155   20.2741 C   0  0  0  0  0  0  0  0  0  0  0  0
    7.3522  -15.3313   21.3574 C   0  0  2  0  0  0  0  0  0  0  0  0
    6.0523  -15.8648   21.7821 N   0  0  0  0  0  0  0  0  0  0  0  0
    8.0538  -14.7574   22.5171 C   0  0  0  0  0  0  0  0  0  0  0  0
    9.3058  -14.6353   22.6113 O   0  0  0  0  0  0  0  0  0  0  0  0
    7.2972  -14.2995   23.6241 N   0  0  0  0  0  0  0  0  0  0  0  0
    7.8802  -13.8260   24.8518 C   0  0  1  0  0  0  0  0  0  0  0  0
    6.8100  -13.0665   25.6457 C   0  0  0  0  0  0  0  0  0  0  0  0
    7.6216  -12.4827   27.1657 S   0  0  0  0  0  0  0  0  0  0  0  0
    8.3948  -14.8681   25.7287 C   0  0  0  0  0  0  0  0  0  0  0  0
    7.6494  -15.7922   26.1126 O   0  0  0  0  0  0  0  0  0  0  0  0
    9.7392  -14.8395   26.1476 N   0  0  0  0  0  0  0  0  0  0  0  0
   10.3240  -15.8663   27.0327 C   0  0  1  0  0  0  0  0  0  0  0  0
   11.7374  -16.0630   26.5757 C   0  0  0  0  0  0  0  0  0  0  0  0
   11.9163  -16.5282   25.1760 C   0  0  0  0  0  0  0  0  0  0  0  0
   13.3248  -16.6134   24.7343 C   0  0  0  0  0  0  0  0  0  0  0  0
   13.6075  -16.9624   23.5453 O   0  0  0  0  0  0  0  0  0  0  0  0
   10.3392  -15.3597   28.4243 C   0  0  0  0  0  0  0  0  0  0  0  0
   10.6190  -16.1371   29.5241 O   0  0  0  0  0  0  0  0  0  0  0  0
   14.3466  -16.2987   25.6547 O   0  0  0  0  0  0  0  0  0  0  0  0
   10.0821  -14.1405   28.6374 O   0  0  0  0  0  0  0  0  0  0  0  0
  2  1  1  0
  3  2  2  0
  4  2  1  0
  4  5  1  0
  5  6  1  1
  7  5  1  0
  7  8  2  0
  9  7  1  0
 10  9  1  0
 10 13  1  0
 10 11  1  1
 12 11  1  0
 13 15  1  0
 14 13  2  0
 15 16  1  0
 16 21  1  0
 16 17  1  6
 18 17  1  0
 19 23  1  0
 19 18  1  0
 20 19  2  0
 21 24  2  0
 21 22  1  0
M  END
$$$$
