NCE.pdb
     RDKit          3D

 24 23  0  0  1  0  0  0  0  0999 V2000
   -1.9262  -27.5645   28.5800 N   0  0  0  0  0  0  0  0  0  0  0  0
   -1.6068  -26.7340   29.6798 C   0  0  0  0  0  0  0  0  0  0  0  0
   -0.5046  -26.9545   30.2727 O   0  0  0  0  0  0  0  0  0  0  0  0
   -2.4931  -25.6418   30.1514 C   0  0  0  0  0  0  0  0  0  0  0  0
   -3.7307  -25.6297   29.2881 C   0  0  2  0  0  0  0  0  0  0  0  0
   -3.4258  -24.8148   28.1058 N   0  0  0  0  0  0  0  0  0  0  0  0
   -4.9049  -25.0752   29.9811 C   0  0  0  0  0  0  0  0  0  0  0  0
   -5.4516  -25.5913   30.9941 O   0  0  0  0  0  0  0  0  0  0  0  0
   -5.4870  -23.8759   29.5010 N   0  0  0  0  0  0  0  0  0  0  0  0
   -6.6491  -23.2598   30.0854 C   0  0  1  0  0  0  0  0  0  0  0  0
   -6.6561  -21.7709   29.7171 C   0  0  0  0  0  0  0  0  0  0  0  0
   -8.1082  -21.0489   30.5418 S   0  0  0  0  0  0  0  0  0  0  0  0
   -7.9227  -23.8092   29.6431 C   0  0  0  0  0  0  0  0  0  0  0  0
   -8.1926  -23.8716   28.4265 O   0  0  0  0  0  0  0  0  0  0  0  0
   -8.8579  -24.2753   30.5876 N   0  0  0  0  0  0  0  0  0  0  0  0
  -10.1630  -24.8502   30.2057 C   0  0  1  0  0  0  0  0  0  0  0  0
  -10.4687  -25.9131   31.2167 C   0  0  0  0  0  0  0  0  0  0  0  0
  -11.7720  -26.6098   31.0635 C   0  0  0  0  0  0  0  0  0  0  0  0
  -12.0354  -27.6474   32.0834 C   0  0  0  0  0  0  0  0  0  0  0  0
  -11.2042  -27.8540   33.0225 O   0  0  0  0  0  0  0  0  0  0  0  0
  -11.2027  -23.7988   30.2901 C   0  0  0  0  0  0  0  0  0  0  0  0
  -12.2984  -23.7309   29.4613 O   0  0  0  0  0  0  0  0  0  0  0  0
  -13.2250  -28.4008   31.9958 O   0  0  0  0  0  0  0  0  0  0  0  0
  -11.0963  -22.8985   31.1710 O   0  0  0  0  0  0  0  0  0  0  0  0
  2  1  1  0
  3  2  2  0
  4  2  1  0
  4  5  1  0
  5  6  1  6
  7  5  1  0
  7  8  2  0
  9  7  1  0
 10  9  1  0
 10 13  1  0
 10 11  1  6
 12 11  1  0
 13 15  1  0
 14 13  2  0
 15 16  1  0
 16 21  1  0
 16 17  1  1
 18 17  1  0
 19 23  1  0
 19 18  1  0
 20 19  2  0
 21 24  2  0
 21 22  1  0
M  END
$$$$
