NCE.pdb
     RDKit          3D

 24 23  0  0  1  0  0  0  0  0999 V2000
    5.2111  -22.5176   21.1841 N   0  0  0  0  0  0  0  0  0  0  0  0
    6.2745  -23.2041   21.8162 C   0  0  0  0  0  0  0  0  0  0  0  0
    6.1830  -24.4692   21.8953 O   0  0  0  0  0  0  0  0  0  0  0  0
    7.4626  -22.5135   22.3750 C   0  0  0  0  0  0  0  0  0  0  0  0
    7.2514  -21.0252   22.2429 C   0  0  2  0  0  0  0  0  0  0  0  0
    7.7185  -20.6387   20.9061 N   0  0  0  0  0  0  0  0  0  0  0  0
    7.9786  -20.2525   23.2631 C   0  0  0  0  0  0  0  0  0  0  0  0
    9.2348  -20.2047   23.3682 O   0  0  0  0  0  0  0  0  0  0  0  0
    7.2440  -19.4970   24.2102 N   0  0  0  0  0  0  0  0  0  0  0  0
    7.8458  -18.7819   25.3047 C   0  0  1  0  0  0  0  0  0  0  0  0
    6.8130  -17.8081   25.8854 C   0  0  0  0  0  0  0  0  0  0  0  0
    6.5246  -16.5480   24.6052 S   0  0  0  0  0  0  0  0  0  0  0  0
    8.3030  -19.6173   26.4060 C   0  0  0  0  0  0  0  0  0  0  0  0
    7.8275  -20.7594   26.5688 O   0  0  0  0  0  0  0  0  0  0  0  0
    9.2870  -19.1406   27.2938 N   0  0  0  0  0  0  0  0  0  0  0  0
   10.1597  -20.0369   28.0780 C   0  0  1  0  0  0  0  0  0  0  0  0
   10.9630  -20.8199   27.0847 C   0  0  0  0  0  0  0  0  0  0  0  0
   11.8993  -21.8280   27.6457 C   0  0  0  0  0  0  0  0  0  0  0  0
   12.6305  -22.6164   26.6309 C   0  0  0  0  0  0  0  0  0  0  0  0
   13.8797  -22.4520   26.4639 O   0  0  0  0  0  0  0  0  0  0  0  0
   11.0826  -19.2219   28.9010 C   0  0  0  0  0  0  0  0  0  0  0  0
   11.5440  -19.5973   30.1413 O   0  0  0  0  0  0  0  0  0  0  0  0
   11.9174  -23.5541   25.8546 O   0  0  0  0  0  0  0  0  0  0  0  0
   11.4837  -18.1091   28.4553 O   0  0  0  0  0  0  0  0  0  0  0  0
  2  1  1  0
  3  2  2  0
  4  2  1  0
  4  5  1  0
  5  6  1  6
  7  5  1  0
  7  8  2  0
  9  7  1  0
 10  9  1  0
 10 13  1  0
 10 11  1  1
 12 11  1  0
 13 15  1  0
 14 13  2  0
 15 16  1  0
 16 21  1  0
 16 17  1  6
 18 17  1  0
 19 23  1  0
 19 18  1  0
 20 19  2  0
 21 24  2  0
 21 22  1  0
M  END
$$$$
