NCE.pdb
     RDKit          3D

 24 23  0  0  1  0  0  0  0  0999 V2000
    7.8291  -15.0319   18.3533 N   0  0  0  0  0  0  0  0  0  0  0  0
    7.9638  -13.6719   18.7190 C   0  0  0  0  0  0  0  0  0  0  0  0
    7.9910  -12.8179   17.7783 O   0  0  0  0  0  0  0  0  0  0  0  0
    8.0712  -13.2215   20.1284 C   0  0  0  0  0  0  0  0  0  0  0  0
    7.9741  -14.4335   21.0221 C   0  0  2  0  0  0  0  0  0  0  0  0
    6.5648  -14.8436   21.0438 N   0  0  0  0  0  0  0  0  0  0  0  0
    8.4329  -14.1686   22.3954 C   0  0  0  0  0  0  0  0  0  0  0  0
    9.6375  -14.1982   22.7688 O   0  0  0  0  0  0  0  0  0  0  0  0
    7.4778  -13.8545   23.3936 N   0  0  0  0  0  0  0  0  0  0  0  0
    7.7940  -13.7221   24.7914 C   0  0  1  0  0  0  0  0  0  0  0  0
    6.6603  -12.9553   25.4835 C   0  0  0  0  0  0  0  0  0  0  0  0
    7.0724  -12.9260   27.2553 S   0  0  0  0  0  0  0  0  0  0  0  0
    7.9499  -14.9803   25.5071 C   0  0  0  0  0  0  0  0  0  0  0  0
    6.9712  -15.7371   25.6698 O   0  0  0  0  0  0  0  0  0  0  0  0
    9.2085  -15.3514   26.0190 N   0  0  0  0  0  0  0  0  0  0  0  0
    9.4253  -16.5915   26.7902 C   0  0  1  0  0  0  0  0  0  0  0  0
   10.1515  -17.5341   25.8796 C   0  0  0  0  0  0  0  0  0  0  0  0
   11.6184  -17.3312   25.7587 C   0  0  0  0  0  0  0  0  0  0  0  0
   12.2877  -18.2488   24.8121 C   0  0  0  0  0  0  0  0  0  0  0  0
   11.6036  -18.9619   24.0126 O   0  0  0  0  0  0  0  0  0  0  0  0
   10.2883  -16.2960   27.9569 C   0  0  0  0  0  0  0  0  0  0  0  0
   10.5101  -17.1734   28.9928 O   0  0  0  0  0  0  0  0  0  0  0  0
   13.6969  -18.3164   24.8115 O   0  0  0  0  0  0  0  0  0  0  0  0
   10.8666  -15.1740   28.0252 O   0  0  0  0  0  0  0  0  0  0  0  0
  2  1  1  0
  3  2  2  0
  4  2  1  0
  4  5  1  0
  5  6  1  1
  7  5  1  0
  7  8  2  0
  9  7  1  0
 10  9  1  0
 10 13  1  0
 10 11  1  1
 12 11  1  0
 13 15  1  0
 14 13  2  0
 15 16  1  0
 16 21  1  0
 16 17  1  6
 18 17  1  0
 19 23  1  0
 19 18  1  0
 20 19  2  0
 21 24  2  0
 21 22  1  0
M  END
$$$$
