VKE.pdb
     RDKit          3D

 26 25  0  0  1  0  0  0  0  0999 V2000
    8.6535  -12.5588   19.2883 C   0  0  0  0  0  0  0  0  0  0  0  0
    8.3943  -13.4740   20.4322 C   0  0  1  0  0  0  0  0  0  0  0  0
    7.4270  -12.8267   21.4438 C   0  0  0  0  0  0  0  0  0  0  0  0
    7.8343  -14.8105   20.1042 C   0  0  2  0  0  0  0  0  0  0  0  0
    6.6893  -14.6154   19.1940 N   0  0  0  0  0  0  0  0  0  0  0  0
    7.4501  -15.6187   21.2674 C   0  0  0  0  0  0  0  0  0  0  0  0
    6.4084  -15.3444   21.8960 O   0  0  0  0  0  0  0  0  0  0  0  0
    8.2369  -16.7291   21.7256 N   0  0  0  0  0  0  0  0  0  0  0  0
    7.8186  -17.4881   22.9074 C   0  0  1  0  0  0  0  0  0  0  0  0
    7.5503  -18.9029   22.5755 C   0  0  0  0  0  0  0  0  0  0  0  0
    7.2193  -19.7819   23.7376 C   0  0  0  0  0  0  0  0  0  0  0  0
    6.9524  -21.2009   23.2011 C   0  0  0  0  0  0  0  0  0  0  0  0
    6.5194  -22.1283   24.2982 C   0  0  0  0  0  0  0  0  0  0  0  0
    6.1896  -23.4265   23.7275 N   0  0  0  0  0  0  0  0  0  0  0  0
    8.8053  -17.2063   23.9634 C   0  0  0  0  0  0  0  0  0  0  0  0
   10.0200  -17.0352   23.6399 O   0  0  0  0  0  0  0  0  0  0  0  0
    8.5673  -17.0891   25.3357 N   0  0  0  0  0  0  0  0  0  0  0  0
    9.5697  -16.7226   26.3391 C   0  0  1  0  0  0  0  0  0  0  0  0
    9.2405  -15.4871   27.0325 C   0  0  0  0  0  0  0  0  0  0  0  0
   10.1623  -15.0837   28.1183 C   0  0  0  0  0  0  0  0  0  0  0  0
    9.9157  -13.8083   28.7802 C   0  0  0  0  0  0  0  0  0  0  0  0
   10.6455  -13.4838   29.7826 O   0  0  0  0  0  0  0  0  0  0  0  0
    9.8477  -17.8760   27.1423 C   0  0  0  0  0  0  0  0  0  0  0  0
   11.1340  -18.1225   27.6098 O   0  0  0  0  0  0  0  0  0  0  0  0
    8.8974  -12.9671   28.3165 O   0  0  0  0  0  0  0  0  0  0  0  0
    8.9640  -18.7009   27.4544 O   0  0  0  0  0  0  0  0  0  0  0  0
  2  4  1  0
  2  1  1  6
  3  2  1  0
  4  5  1  6
  6  4  1  0
  6  7  2  0
  8  6  1  0
  9  8  1  0
  9 10  1  6
 11 12  1  0
 11 10  1  0
 12 13  1  0
 13 14  1  0
 15 17  1  0
 15  9  1  0
 16 15  2  0
 18 17  1  0
 18 19  1  1
 19 20  1  0
 20 21  1  0
 21 22  2  0
 23 18  1  0
 24 23  1  0
 25 21  1  0
 26 23  2  0
M  END
$$$$
