VKE.pdb
     RDKit          3D

 26 25  0  0  1  0  0  0  0  0999 V2000
    7.9067  -18.6564   20.7975 C   0  0  0  0  0  0  0  0  0  0  0  0
    8.2932  -17.8308   19.6218 C   0  0  1  0  0  0  0  0  0  0  0  0
    7.6783  -18.3990   18.3268 C   0  0  0  0  0  0  0  0  0  0  0  0
    7.9296  -16.3911   19.6686 C   0  0  2  0  0  0  0  0  0  0  0  0
    8.4183  -15.7558   18.4296 N   0  0  0  0  0  0  0  0  0  0  0  0
    8.4126  -15.6729   20.8539 C   0  0  0  0  0  0  0  0  0  0  0  0
    9.6230  -15.3907   20.9573 O   0  0  0  0  0  0  0  0  0  0  0  0
    7.5384  -15.2772   21.9221 N   0  0  0  0  0  0  0  0  0  0  0  0
    8.0820  -14.6062   23.1062 C   0  0  1  0  0  0  0  0  0  0  0  0
    7.0171  -13.9521   23.8948 C   0  0  0  0  0  0  0  0  0  0  0  0
    7.4417  -13.4148   25.2228 C   0  0  0  0  0  0  0  0  0  0  0  0
    6.2246  -12.7275   25.8701 C   0  0  0  0  0  0  0  0  0  0  0  0
    6.5606  -12.1847   27.2280 C   0  0  0  0  0  0  0  0  0  0  0  0
    5.3932  -11.5107   27.7782 N   0  0  0  0  0  0  0  0  0  0  0  0
    8.9402  -15.5863   23.7924 C   0  0  0  0  0  0  0  0  0  0  0  0
    8.5017  -16.7617   23.9811 O   0  0  0  0  0  0  0  0  0  0  0  0
   10.2357  -15.3851   24.2773 N   0  0  0  0  0  0  0  0  0  0  0  0
   11.1560  -16.4456   24.6947 C   0  0  1  0  0  0  0  0  0  0  0  0
   12.4937  -16.2705   24.1511 C   0  0  0  0  0  0  0  0  0  0  0  0
   13.5056  -17.2632   24.5780 C   0  0  0  0  0  0  0  0  0  0  0  0
   14.8605  -17.1183   24.0594 C   0  0  0  0  0  0  0  0  0  0  0  0
   15.0755  -16.2621   23.1302 O   0  0  0  0  0  0  0  0  0  0  0  0
   11.0369  -16.6149   26.1124 C   0  0  0  0  0  0  0  0  0  0  0  0
   10.7650  -15.5285   26.9369 O   0  0  0  0  0  0  0  0  0  0  0  0
   15.8940  -17.9072   24.5779 O   0  0  0  0  0  0  0  0  0  0  0  0
   11.1705  -17.7262   26.6656 O   0  0  0  0  0  0  0  0  0  0  0  0
  2  4  1  0
  2  1  1  1
  3  2  1  0
  4  5  1  6
  6  4  1  0
  6  7  2  0
  8  6  1  0
  9  8  1  0
  9 10  1  1
 11 12  1  0
 11 10  1  0
 12 13  1  0
 13 14  1  0
 15 17  1  0
 15  9  1  0
 16 15  2  0
 18 17  1  0
 18 19  1  1
 19 20  1  0
 20 21  1  0
 21 22  2  0
 23 18  1  0
 24 23  1  0
 25 21  1  0
 26 23  2  0
M  END
$$$$
