VKE.pdb
     RDKit          3D

 26 25  0  0  1  0  0  0  0  0999 V2000
    8.3238  -18.7475   19.7947 C   0  0  0  0  0  0  0  0  0  0  0  0
    8.6473  -17.9843   21.0301 C   0  0  1  0  0  0  0  0  0  0  0  0
    9.8793  -18.5834   21.7379 C   0  0  0  0  0  0  0  0  0  0  0  0
    8.9155  -16.5322   20.8666 C   0  0  2  0  0  0  0  0  0  0  0  0
   10.0475  -16.3789   19.9325 N   0  0  0  0  0  0  0  0  0  0  0  0
    9.1646  -15.8079   22.1185 C   0  0  0  0  0  0  0  0  0  0  0  0
   10.3318  -15.6801   22.5390 O   0  0  0  0  0  0  0  0  0  0  0  0
    8.1046  -15.2331   22.8981 N   0  0  0  0  0  0  0  0  0  0  0  0
    8.4065  -14.5520   24.1601 C   0  0  1  0  0  0  0  0  0  0  0  0
    7.2801  -13.7028   24.6002 C   0  0  0  0  0  0  0  0  0  0  0  0
    7.4655  -13.0259   25.9194 C   0  0  0  0  0  0  0  0  0  0  0  0
    6.1990  -12.1999   26.2134 C   0  0  0  0  0  0  0  0  0  0  0  0
    6.2952  -11.5037   27.5391 C   0  0  0  0  0  0  0  0  0  0  0  0
    5.0759  -10.7426   27.7714 N   0  0  0  0  0  0  0  0  0  0  0  0
    8.8938  -15.5826   25.0921 C   0  0  0  0  0  0  0  0  0  0  0  0
    8.2441  -16.6664   25.2045 O   0  0  0  0  0  0  0  0  0  0  0  0
   10.0337  -15.5242   25.8989 N   0  0  0  0  0  0  0  0  0  0  0  0
   10.5761  -16.6404   26.6773 C   0  0  1  0  0  0  0  0  0  0  0  0
   11.6734  -17.3130   25.9998 C   0  0  0  0  0  0  0  0  0  0  0  0
   12.3014  -18.4357   26.7325 C   0  0  0  0  0  0  0  0  0  0  0  0
   13.4766  -19.0617   26.1387 C   0  0  0  0  0  0  0  0  0  0  0  0
   13.6545  -20.3199   26.3063 O   0  0  0  0  0  0  0  0  0  0  0  0
   10.8064  -16.1872   28.0168 C   0  0  0  0  0  0  0  0  0  0  0  0
   10.6540  -14.8453   28.3485 O   0  0  0  0  0  0  0  0  0  0  0  0
   14.3823  -18.2885   25.4032 O   0  0  0  0  0  0  0  0  0  0  0  0
   11.1502  -16.9616   28.9338 O   0  0  0  0  0  0  0  0  0  0  0  0
  2  4  1  0
  2  1  1  6
  3  2  1  0
  4  5  1  6
  6  4  1  0
  6  7  2  0
  8  6  1  0
  9  8  1  0
  9 10  1  1
 11 12  1  0
 11 10  1  0
 12 13  1  0
 13 14  1  0
 15 17  1  0
 15  9  1  0
 16 15  2  0
 18 17  1  0
 18 19  1  6
 19 20  1  0
 20 21  1  0
 21 22  2  0
 23 18  1  0
 24 23  1  0
 25 21  1  0
 26 23  2  0
M  END
$$$$
