VKE.pdb
     RDKit          3D

 26 25  0  0  1  0  0  0  0  0999 V2000
    6.3426  -11.3258   26.9329 C   0  0  0  0  0  0  0  0  0  0  0  0
    6.9934  -12.3165   26.0338 C   0  0  1  0  0  0  0  0  0  0  0  0
    8.1238  -13.0646   26.7690 C   0  0  0  0  0  0  0  0  0  0  0  0
    6.1144  -13.3551   25.4373 C   0  0  2  0  0  0  0  0  0  0  0  0
    5.5486  -14.1611   26.5363 N   0  0  0  0  0  0  0  0  0  0  0  0
    6.7642  -14.2109   24.4377 C   0  0  0  0  0  0  0  0  0  0  0  0
    7.0711  -15.3836   24.7311 O   0  0  0  0  0  0  0  0  0  0  0  0
    7.0726  -13.7485   23.1137 N   0  0  0  0  0  0  0  0  0  0  0  0
    7.7092  -14.6505   22.1499 C   0  0  1  0  0  0  0  0  0  0  0  0
    7.5661  -14.1527   20.7659 C   0  0  0  0  0  0  0  0  0  0  0  0
    8.1353  -15.0376   19.7049 C   0  0  0  0  0  0  0  0  0  0  0  0
    8.7752  -14.1404   18.6287 C   0  0  0  0  0  0  0  0  0  0  0  0
    8.1611  -14.3797   17.2807 C   0  0  0  0  0  0  0  0  0  0  0  0
    8.6555  -13.3811   16.3436 N   0  0  0  0  0  0  0  0  0  0  0  0
    9.0701  -14.9112   22.6481 C   0  0  0  0  0  0  0  0  0  0  0  0
    9.6466  -14.0275   23.3525 O   0  0  0  0  0  0  0  0  0  0  0  0
    9.8412  -16.0591   22.4447 N   0  0  0  0  0  0  0  0  0  0  0  0
   10.9414  -16.5015   23.3048 C   0  0  1  0  0  0  0  0  0  0  0  0
   10.4862  -17.3195   24.4180 C   0  0  0  0  0  0  0  0  0  0  0  0
   11.5445  -17.9107   25.2677 C   0  0  0  0  0  0  0  0  0  0  0  0
   11.1282  -18.7125   26.4120 C   0  0  0  0  0  0  0  0  0  0  0  0
   10.7792  -19.9301   26.2161 O   0  0  0  0  0  0  0  0  0  0  0  0
   11.9778  -17.0371   22.4731 C   0  0  0  0  0  0  0  0  0  0  0  0
   13.2706  -17.1931   22.9612 O   0  0  0  0  0  0  0  0  0  0  0  0
   11.1160  -18.1471   27.6925 O   0  0  0  0  0  0  0  0  0  0  0  0
   11.7735  -17.3821   21.2907 O   0  0  0  0  0  0  0  0  0  0  0  0
  2  4  1  0
  2  1  1  1
  3  2  1  0
  4  5  1  1
  6  4  1  0
  6  7  2  0
  8  6  1  0
  9  8  1  0
  9 10  1  6
 11 12  1  0
 11 10  1  0
 12 13  1  0
 13 14  1  0
 15 17  1  0
 15  9  1  0
 16 15  2  0
 18 17  1  0
 18 19  1  1
 19 20  1  0
 20 21  1  0
 21 22  2  0
 23 18  1  0
 24 23  1  0
 25 21  1  0
 26 23  2  0
M  END
$$$$
