VKE.pdb
     RDKit          3D

 26 25  0  0  1  0  0  0  0  0999 V2000
    8.5292  -15.7952   18.5664 C   0  0  0  0  0  0  0  0  0  0  0  0
    8.4451  -14.3101   18.5879 C   0  0  1  0  0  0  0  0  0  0  0  0
    7.5705  -13.7936   17.4276 C   0  0  0  0  0  0  0  0  0  0  0  0
    7.9144  -13.6894   19.8290 C   0  0  2  0  0  0  0  0  0  0  0  0
    8.0104  -12.2240   19.6842 N   0  0  0  0  0  0  0  0  0  0  0  0
    8.5615  -14.1393   21.0671 C   0  0  0  0  0  0  0  0  0  0  0  0
    9.6755  -13.6787   21.3870 O   0  0  0  0  0  0  0  0  0  0  0  0
    7.9604  -15.1075   21.9406 N   0  0  0  0  0  0  0  0  0  0  0  0
    8.6428  -15.5081   23.1741 C   0  0  1  0  0  0  0  0  0  0  0  0
    7.7174  -16.1765   24.1125 C   0  0  0  0  0  0  0  0  0  0  0  0
    8.3667  -16.8886   25.2544 C   0  0  0  0  0  0  0  0  0  0  0  0
    7.2577  -17.5354   26.1055 C   0  0  0  0  0  0  0  0  0  0  0  0
    7.8305  -18.2915   27.2680 C   0  0  0  0  0  0  0  0  0  0  0  0
    8.3743  -17.3475   28.2339 N   0  0  0  0  0  0  0  0  0  0  0  0
    9.8558  -16.2383   22.7697 C   0  0  0  0  0  0  0  0  0  0  0  0
    9.7487  -17.2037   21.9536 O   0  0  0  0  0  0  0  0  0  0  0  0
   11.1693  -15.9910   23.1786 N   0  0  0  0  0  0  0  0  0  0  0  0
   12.3112  -16.8756   22.9343 C   0  0  1  0  0  0  0  0  0  0  0  0
   13.4502  -16.1731   22.3643 C   0  0  0  0  0  0  0  0  0  0  0  0
   13.1861  -15.3946   21.1331 C   0  0  0  0  0  0  0  0  0  0  0  0
   14.3070  -14.6923   20.5199 C   0  0  0  0  0  0  0  0  0  0  0  0
   14.9182  -13.7953   21.2013 O   0  0  0  0  0  0  0  0  0  0  0  0
   12.5399  -17.6546   24.1148 C   0  0  0  0  0  0  0  0  0  0  0  0
   13.5059  -18.6549   24.1293 O   0  0  0  0  0  0  0  0  0  0  0  0
   14.6941  -15.0045   19.2114 O   0  0  0  0  0  0  0  0  0  0  0  0
   11.8934  -17.4763   25.1679 O   0  0  0  0  0  0  0  0  0  0  0  0
  2  4  1  0
  2  1  1  1
  3  2  1  0
  4  5  1  6
  6  4  1  0
  6  7  2  0
  8  6  1  0
  9  8  1  0
  9 10  1  1
 11 12  1  0
 11 10  1  0
 12 13  1  0
 13 14  1  0
 15 17  1  0
 15  9  1  0
 16 15  2  0
 18 17  1  0
 18 19  1  1
 19 20  1  0
 20 21  1  0
 21 22  2  0
 23 18  1  0
 24 23  1  0
 25 21  1  0
 26 23  2  0
M  END
$$$$
