VKE.pdb
     RDKit          3D

 26 25  0  0  1  0  0  0  0  0999 V2000
    9.7887  -13.4202   20.3008 C   0  0  0  0  0  0  0  0  0  0  0  0
    8.3109  -13.3155   20.1649 C   0  0  1  0  0  0  0  0  0  0  0  0
    7.9320  -12.5036   18.9098 C   0  0  0  0  0  0  0  0  0  0  0  0
    7.5553  -14.5924   20.0891 C   0  0  2  0  0  0  0  0  0  0  0  0
    6.1489  -14.2733   19.7767 N   0  0  0  0  0  0  0  0  0  0  0  0
    7.6501  -15.4353   21.2868 C   0  0  0  0  0  0  0  0  0  0  0  0
    7.1822  -15.0292   22.3692 O   0  0  0  0  0  0  0  0  0  0  0  0
    8.2732  -16.7288   21.2691 N   0  0  0  0  0  0  0  0  0  0  0  0
    8.4493  -17.4769   22.5169 C   0  0  1  0  0  0  0  0  0  0  0  0
    7.6352  -18.7102   22.5285 C   0  0  0  0  0  0  0  0  0  0  0  0
    6.1560  -18.5016   22.4952 C   0  0  0  0  0  0  0  0  0  0  0  0
    5.4779  -19.8813   22.5914 C   0  0  0  0  0  0  0  0  0  0  0  0
    3.9844  -19.7642   22.5062 C   0  0  0  0  0  0  0  0  0  0  0  0
    3.3865  -21.0722   22.7330 N   0  0  0  0  0  0  0  0  0  0  0  0
    9.9001  -17.6104   22.7302 C   0  0  0  0  0  0  0  0  0  0  0  0
   10.6437  -17.8892   21.7410 O   0  0  0  0  0  0  0  0  0  0  0  0
   10.5975  -17.4550   23.9315 N   0  0  0  0  0  0  0  0  0  0  0  0
   12.0159  -17.7618   24.1310 C   0  0  1  0  0  0  0  0  0  0  0  0
   12.8903  -16.7121   23.6317 C   0  0  0  0  0  0  0  0  0  0  0  0
   14.3376  -16.8949   23.8837 C   0  0  0  0  0  0  0  0  0  0  0  0
   15.2483  -15.8701   23.3876 C   0  0  0  0  0  0  0  0  0  0  0  0
   16.4940  -15.9625   23.6748 O   0  0  0  0  0  0  0  0  0  0  0  0
   12.2003  -18.1843   25.4876 C   0  0  0  0  0  0  0  0  0  0  0  0
   11.4308  -17.6418   26.5111 O   0  0  0  0  0  0  0  0  0  0  0  0
   14.7544  -14.8130   22.6143 O   0  0  0  0  0  0  0  0  0  0  0  0
   13.0467  -19.0437   25.8100 O   0  0  0  0  0  0  0  0  0  0  0  0
  2  4  1  0
  2  1  1  6
  3  2  1  0
  4  5  1  1
  6  4  1  0
  6  7  2  0
  8  6  1  0
  9  8  1  0
  9 10  1  6
 11 12  1  0
 11 10  1  0
 12 13  1  0
 13 14  1  0
 15 17  1  0
 15  9  1  0
 16 15  2  0
 18 17  1  0
 18 19  1  1
 19 20  1  0
 20 21  1  0
 21 22  2  0
 23 18  1  0
 24 23  1  0
 25 21  1  0
 26 23  2  0
M  END
$$$$
