VKE.pdb
     RDKit          3D

 26 25  0  0  1  0  0  0  0  0999 V2000
    8.8580  -20.5468   21.0097 C   0  0  0  0  0  0  0  0  0  0  0  0
    8.8319  -20.1848   19.5669 C   0  0  1  0  0  0  0  0  0  0  0  0
    8.1008  -21.2646   18.7439 C   0  0  0  0  0  0  0  0  0  0  0  0
    8.2036  -18.8851   19.2160 C   0  0  2  0  0  0  0  0  0  0  0  0
    8.2510  -18.7361   17.7487 N   0  0  0  0  0  0  0  0  0  0  0  0
    8.7918  -17.7175   19.8828 C   0  0  0  0  0  0  0  0  0  0  0  0
    9.9120  -17.2998   19.5274 O   0  0  0  0  0  0  0  0  0  0  0  0
    8.1252  -17.0243   20.9491 N   0  0  0  0  0  0  0  0  0  0  0  0
    8.7386  -15.8368   21.5502 C   0  0  1  0  0  0  0  0  0  0  0  0
    7.7180  -14.8552   21.9726 C   0  0  0  0  0  0  0  0  0  0  0  0
    6.9082  -14.2575   20.8682 C   0  0  0  0  0  0  0  0  0  0  0  0
    7.8768  -13.5849   19.8772 C   0  0  0  0  0  0  0  0  0  0  0  0
    7.1419  -12.9897   18.7122 C   0  0  0  0  0  0  0  0  0  0  0  0
    8.1034  -12.4284   17.7740 N   0  0  0  0  0  0  0  0  0  0  0  0
    9.6890  -16.3188   22.5663 C   0  0  0  0  0  0  0  0  0  0  0  0
    9.3448  -17.2751   23.3255 O   0  0  0  0  0  0  0  0  0  0  0  0
   10.9815  -15.8455   22.8093 N   0  0  0  0  0  0  0  0  0  0  0  0
   11.9757  -16.5022   23.6616 C   0  0  1  0  0  0  0  0  0  0  0  0
   13.3408  -16.1653   23.2893 C   0  0  0  0  0  0  0  0  0  0  0  0
   14.4109  -16.8156   24.0790 C   0  0  0  0  0  0  0  0  0  0  0  0
   15.7927  -16.4830   23.7540 C   0  0  0  0  0  0  0  0  0  0  0  0
   16.0174  -15.5718   22.8810 O   0  0  0  0  0  0  0  0  0  0  0  0
   11.5976  -16.3067   25.0297 C   0  0  0  0  0  0  0  0  0  0  0  0
   12.1226  -17.1131   26.0337 O   0  0  0  0  0  0  0  0  0  0  0  0
   16.8409  -17.1558   24.3927 O   0  0  0  0  0  0  0  0  0  0  0  0
   10.7920  -15.4193   25.3794 O   0  0  0  0  0  0  0  0  0  0  0  0
  2  4  1  0
  2  1  1  1
  3  2  1  0
  4  5  1  6
  6  4  1  0
  6  7  2  0
  8  6  1  0
  9  8  1  0
  9 10  1  1
 11 12  1  0
 11 10  1  0
 12 13  1  0
 13 14  1  0
 15 17  1  0
 15  9  1  0
 16 15  2  0
 18 17  1  0
 18 19  1  1
 19 20  1  0
 20 21  1  0
 21 22  2  0
 23 18  1  0
 24 23  1  0
 25 21  1  0
 26 23  2  0
M  END
$$$$
