VKE.pdb
     RDKit          3D

 26 25  0  0  1  0  0  0  0  0999 V2000
    7.0380  -13.7427   18.8152 C   0  0  0  0  0  0  0  0  0  0  0  0
    7.8965  -13.5760   20.0187 C   0  0  1  0  0  0  0  0  0  0  0  0
    7.1541  -12.7881   21.1169 C   0  0  0  0  0  0  0  0  0  0  0  0
    8.4018  -14.8195   20.6557 C   0  0  2  0  0  0  0  0  0  0  0  0
    7.2435  -15.6846   20.9515 N   0  0  0  0  0  0  0  0  0  0  0  0
    9.2201  -14.6073   21.8555 C   0  0  0  0  0  0  0  0  0  0  0  0
   10.3513  -14.0926   21.7511 O   0  0  0  0  0  0  0  0  0  0  0  0
    8.7702  -14.9770   23.1680 N   0  0  0  0  0  0  0  0  0  0  0  0
    9.6625  -14.8250   24.3206 C   0  0  1  0  0  0  0  0  0  0  0  0
    8.9019  -14.6881   25.5801 C   0  0  0  0  0  0  0  0  0  0  0  0
    9.7295  -14.5422   26.8156 C   0  0  0  0  0  0  0  0  0  0  0  0
    8.7755  -14.4743   28.0231 C   0  0  0  0  0  0  0  0  0  0  0  0
    9.5290  -14.2769   29.3055 C   0  0  0  0  0  0  0  0  0  0  0  0
   10.3737  -15.4374   29.5498 N   0  0  0  0  0  0  0  0  0  0  0  0
   10.6561  -15.9082   24.2334 C   0  0  0  0  0  0  0  0  0  0  0  0
   10.2666  -17.0765   23.9284 O   0  0  0  0  0  0  0  0  0  0  0  0
   12.0346  -15.8122   24.4437 N   0  0  0  0  0  0  0  0  0  0  0  0
   12.9924  -16.9089   24.2826 C   0  0  1  0  0  0  0  0  0  0  0  0
   14.1863  -16.5058   23.5562 C   0  0  0  0  0  0  0  0  0  0  0  0
   15.2488  -17.5289   23.4299 C   0  0  0  0  0  0  0  0  0  0  0  0
   16.5121  -17.1253   22.8243 C   0  0  0  0  0  0  0  0  0  0  0  0
   16.6953  -15.8867   22.5503 O   0  0  0  0  0  0  0  0  0  0  0  0
   13.1763  -17.5388   25.5562 C   0  0  0  0  0  0  0  0  0  0  0  0
   13.0052  -16.8209   26.7348 O   0  0  0  0  0  0  0  0  0  0  0  0
   17.4944  -18.0853   22.5542 O   0  0  0  0  0  0  0  0  0  0  0  0
   13.4943  -18.7411   25.6666 O   0  0  0  0  0  0  0  0  0  0  0  0
  2  4  1  0
  2  1  1  6
  3  2  1  0
  4  5  1  1
  6  4  1  0
  6  7  2  0
  8  6  1  0
  9  8  1  0
  9 10  1  1
 11 12  1  0
 11 10  1  0
 12 13  1  0
 13 14  1  0
 15 17  1  0
 15  9  1  0
 16 15  2  0
 18 17  1  0
 18 19  1  1
 19 20  1  0
 20 21  1  0
 21 22  2  0
 23 18  1  0
 24 23  1  0
 25 21  1  0
 26 23  2  0
M  END
$$$$
