VKE.pdb
     RDKit          3D

 26 25  0  0  1  0  0  0  0  0999 V2000
    6.0238  -11.1452   26.8348 C   0  0  0  0  0  0  0  0  0  0  0  0
    6.8216  -12.1445   26.0744 C   0  0  1  0  0  0  0  0  0  0  0  0
    7.7961  -12.8921   27.0068 C   0  0  0  0  0  0  0  0  0  0  0  0
    6.0599  -13.1836   25.3346 C   0  0  2  0  0  0  0  0  0  0  0  0
    5.3231  -13.9984   26.3200 N   0  0  0  0  0  0  0  0  0  0  0  0
    6.8718  -14.0308   24.4532 C   0  0  0  0  0  0  0  0  0  0  0  0
    7.2630  -15.1456   24.8530 O   0  0  0  0  0  0  0  0  0  0  0  0
    7.2471  -13.6243   23.1282 N   0  0  0  0  0  0  0  0  0  0  0  0
    7.9641  -14.5529   22.2499 C   0  0  1  0  0  0  0  0  0  0  0  0
    7.9937  -14.0657   20.8552 C   0  0  0  0  0  0  0  0  0  0  0  0
    8.7891  -14.8980   19.9026 C   0  0  0  0  0  0  0  0  0  0  0  0
    7.8047  -15.6181   18.9621 C   0  0  0  0  0  0  0  0  0  0  0  0
    8.5293  -16.4163   17.9184 C   0  0  0  0  0  0  0  0  0  0  0  0
    7.5698  -17.2255   17.1806 N   0  0  0  0  0  0  0  0  0  0  0  0
    9.2514  -14.8449   22.9022 C   0  0  0  0  0  0  0  0  0  0  0  0
    9.6304  -14.1155   23.8685 O   0  0  0  0  0  0  0  0  0  0  0  0
   10.1467  -15.8712   22.5879 N   0  0  0  0  0  0  0  0  0  0  0  0
   11.1070  -16.4694   23.5185 C   0  0  1  0  0  0  0  0  0  0  0  0
   10.4720  -16.9883   24.7198 C   0  0  0  0  0  0  0  0  0  0  0  0
   11.3798  -17.5451   25.7481 C   0  0  0  0  0  0  0  0  0  0  0  0
   10.7811  -18.0801   26.9650 C   0  0  0  0  0  0  0  0  0  0  0  0
    9.7833  -18.8777   26.8608 O   0  0  0  0  0  0  0  0  0  0  0  0
   11.9542  -17.3603   22.7827 C   0  0  0  0  0  0  0  0  0  0  0  0
   13.2814  -17.5467   23.1538 O   0  0  0  0  0  0  0  0  0  0  0  0
   11.2989  -17.7188   28.2143 O   0  0  0  0  0  0  0  0  0  0  0  0
   11.5487  -17.9997   21.7900 O   0  0  0  0  0  0  0  0  0  0  0  0
  2  4  1  0
  2  1  1  1
  3  2  1  0
  4  5  1  1
  6  4  1  0
  6  7  2  0
  8  6  1  0
  9  8  1  0
  9 10  1  6
 11 12  1  0
 11 10  1  0
 12 13  1  0
 13 14  1  0
 15 17  1  0
 15  9  1  0
 16 15  2  0
 18 17  1  0
 18 19  1  1
 19 20  1  0
 20 21  1  0
 21 22  2  0
 23 18  1  0
 24 23  1  0
 25 21  1  0
 26 23  2  0
M  END
$$$$
