VKE.pdb
     RDKit          3D

 26 25  0  0  1  0  0  0  0  0999 V2000
    7.8702  -11.7847   25.2428 C   0  0  0  0  0  0  0  0  0  0  0  0
    7.1223  -12.7093   26.1367 C   0  0  1  0  0  0  0  0  0  0  0  0
    6.2383  -11.9213   27.1245 C   0  0  0  0  0  0  0  0  0  0  0  0
    6.2391  -13.7060   25.4780 C   0  0  2  0  0  0  0  0  0  0  0  0
    5.4063  -14.3376   26.5197 N   0  0  0  0  0  0  0  0  0  0  0  0
    6.9414  -14.7181   24.6804 C   0  0  0  0  0  0  0  0  0  0  0  0
    6.3625  -15.7809   24.3787 O   0  0  0  0  0  0  0  0  0  0  0  0
    8.2920  -14.5385   24.2272 N   0  0  0  0  0  0  0  0  0  0  0  0
    8.8828  -15.4900   23.2821 C   0  0  1  0  0  0  0  0  0  0  0  0
    8.0722  -15.6056   22.0519 C   0  0  0  0  0  0  0  0  0  0  0  0
    8.5611  -16.6046   21.0541 C   0  0  0  0  0  0  0  0  0  0  0  0
    7.6644  -16.5092   19.8054 C   0  0  0  0  0  0  0  0  0  0  0  0
    8.0883  -17.4888   18.7509 C   0  0  0  0  0  0  0  0  0  0  0  0
    7.1225  -17.4699   17.6616 N   0  0  0  0  0  0  0  0  0  0  0  0
   10.3004  -15.1191   23.1373 C   0  0  0  0  0  0  0  0  0  0  0  0
   10.7072  -14.6684   22.0234 O   0  0  0  0  0  0  0  0  0  0  0  0
   11.2993  -15.1938   24.1121 N   0  0  0  0  0  0  0  0  0  0  0  0
   11.8569  -16.4338   24.6574 C   0  0  1  0  0  0  0  0  0  0  0  0
   10.9545  -17.0888   25.5914 C   0  0  0  0  0  0  0  0  0  0  0  0
   11.4395  -18.3542   26.1873 C   0  0  0  0  0  0  0  0  0  0  0  0
   10.9070  -18.7404   27.4885 C   0  0  0  0  0  0  0  0  0  0  0  0
   11.4925  -18.3117   28.5450 O   0  0  0  0  0  0  0  0  0  0  0  0
   12.3641  -17.2175   23.5706 C   0  0  0  0  0  0  0  0  0  0  0  0
   13.7023  -17.5937   23.5302 O   0  0  0  0  0  0  0  0  0  0  0  0
    9.7776  -19.5639   27.5635 O   0  0  0  0  0  0  0  0  0  0  0  0
   11.6417  -17.5925   22.6238 O   0  0  0  0  0  0  0  0  0  0  0  0
  2  4  1  0
  2  1  1  6
  3  2  1  0
  4  5  1  1
  6  4  1  0
  6  7  2  0
  8  6  1  0
  9  8  1  0
  9 10  1  6
 11 12  1  0
 11 10  1  0
 12 13  1  0
 13 14  1  0
 15 17  1  0
 15  9  1  0
 16 15  2  0
 18 17  1  0
 18 19  1  6
 19 20  1  0
 20 21  1  0
 21 22  2  0
 23 18  1  0
 24 23  1  0
 25 21  1  0
 26 23  2  0
M  END
$$$$
