VKE.pdb
     RDKit          3D

 26 25  0  0  1  0  0  0  0  0999 V2000
    8.1735  -12.1726   26.0396 C   0  0  0  0  0  0  0  0  0  0  0  0
    7.2181  -13.0626   26.7528 C   0  0  1  0  0  0  0  0  0  0  0  0
    6.3319  -12.2524   27.7204 C   0  0  0  0  0  0  0  0  0  0  0  0
    6.2989  -13.8684   25.9085 C   0  0  2  0  0  0  0  0  0  0  0  0
    5.6271  -14.8544   26.7769 N   0  0  0  0  0  0  0  0  0  0  0  0
    6.9349  -14.5253   24.7605 C   0  0  0  0  0  0  0  0  0  0  0  0
    7.3197  -15.7077   24.8578 O   0  0  0  0  0  0  0  0  0  0  0  0
    7.1423  -13.8538   23.5084 N   0  0  0  0  0  0  0  0  0  0  0  0
    7.7838  -14.5576   22.3944 C   0  0  1  0  0  0  0  0  0  0  0  0
    7.5568  -13.8611   21.1111 C   0  0  0  0  0  0  0  0  0  0  0  0
    8.2433  -14.4603   19.9268 C   0  0  0  0  0  0  0  0  0  0  0  0
    7.8760  -13.6216   18.6881 C   0  0  0  0  0  0  0  0  0  0  0  0
    8.4598  -14.2088   17.4369 C   0  0  0  0  0  0  0  0  0  0  0  0
    7.9865  -13.4535   16.2857 N   0  0  0  0  0  0  0  0  0  0  0  0
    9.1763  -14.8126   22.7997 C   0  0  0  0  0  0  0  0  0  0  0  0
    9.7684  -13.9634   23.5330 O   0  0  0  0  0  0  0  0  0  0  0  0
    9.9635  -15.9209   22.4750 N   0  0  0  0  0  0  0  0  0  0  0  0
   11.3068  -16.1852   22.9962 C   0  0  1  0  0  0  0  0  0  0  0  0
   11.2991  -16.5396   24.4069 C   0  0  0  0  0  0  0  0  0  0  0  0
   10.9272  -17.9366   24.7257 C   0  0  0  0  0  0  0  0  0  0  0  0
   10.9326  -18.3381   26.1273 C   0  0  0  0  0  0  0  0  0  0  0  0
   12.0585  -18.4709   26.7251 O   0  0  0  0  0  0  0  0  0  0  0  0
   11.9734  -17.0779   22.0954 C   0  0  0  0  0  0  0  0  0  0  0  0
   13.3388  -17.3152   22.2115 O   0  0  0  0  0  0  0  0  0  0  0  0
    9.7223  -18.5698   26.7912 O   0  0  0  0  0  0  0  0  0  0  0  0
   11.3710  -17.6740   21.1785 O   0  0  0  0  0  0  0  0  0  0  0  0
  2  4  1  0
  2  1  1  6
  3  2  1  0
  4  5  1  1
  6  4  1  0
  6  7  2  0
  8  6  1  0
  9  8  1  0
  9 10  1  6
 11 12  1  0
 11 10  1  0
 12 13  1  0
 13 14  1  0
 15 17  1  0
 15  9  1  0
 16 15  2  0
 18 17  1  0
 18 19  1  1
 19 20  1  0
 20 21  1  0
 21 22  2  0
 23 18  1  0
 24 23  1  0
 25 21  1  0
 26 23  2  0
M  END
$$$$
