VKE.pdb
     RDKit          3D

 26 25  0  0  1  0  0  0  0  0999 V2000
   17.1593  -18.9632   17.6962 C   0  0  0  0  0  0  0  0  0  0  0  0
   16.1339  -18.4440   16.7517 C   0  0  1  0  0  0  0  0  0  0  0  0
   16.4082  -18.9400   15.3176 C   0  0  0  0  0  0  0  0  0  0  0  0
   14.7181  -18.7784   17.0534 C   0  0  2  0  0  0  0  0  0  0  0  0
   13.8727  -18.1752   16.0051 N   0  0  0  0  0  0  0  0  0  0  0  0
   14.2633  -18.3793   18.3905 C   0  0  0  0  0  0  0  0  0  0  0  0
   14.2075  -17.1702   18.6910 O   0  0  0  0  0  0  0  0  0  0  0  0
   13.8770  -19.3366   19.3885 N   0  0  0  0  0  0  0  0  0  0  0  0
   13.5075  -18.8874   20.7337 C   0  0  1  0  0  0  0  0  0  0  0  0
   12.5167  -19.7917   21.3536 C   0  0  0  0  0  0  0  0  0  0  0  0
   12.1301  -19.4531   22.7567 C   0  0  0  0  0  0  0  0  0  0  0  0
   10.9874  -20.3965   23.1772 C   0  0  0  0  0  0  0  0  0  0  0  0
   10.4572  -20.0426   24.5354 C   0  0  0  0  0  0  0  0  0  0  0  0
    9.3238  -20.9017   24.8474 N   0  0  0  0  0  0  0  0  0  0  0  0
   14.7651  -18.6460   21.4604 C   0  0  0  0  0  0  0  0  0  0  0  0
   15.7016  -19.4967   21.3680 O   0  0  0  0  0  0  0  0  0  0  0  0
   15.0796  -17.5494   22.2681 N   0  0  0  0  0  0  0  0  0  0  0  0
   16.3683  -17.3283   22.9286 C   0  0  1  0  0  0  0  0  0  0  0  0
   17.0881  -16.1886   22.3822 C   0  0  0  0  0  0  0  0  0  0  0  0
   18.3832  -15.8675   23.0232 C   0  0  0  0  0  0  0  0  0  0  0  0
   19.1140  -14.7048   22.5336 C   0  0  0  0  0  0  0  0  0  0  0  0
   19.8524  -14.8350   21.4941 O   0  0  0  0  0  0  0  0  0  0  0  0
   16.1608  -17.3596   24.3459 C   0  0  0  0  0  0  0  0  0  0  0  0
   14.8760  -17.3181   24.8765 O   0  0  0  0  0  0  0  0  0  0  0  0
   18.9995  -13.4782   23.1982 O   0  0  0  0  0  0  0  0  0  0  0  0
   17.1070  -17.4234   25.1579 O   0  0  0  0  0  0  0  0  0  0  0  0
  2  4  1  0
  2  1  1  1
  3  2  1  0
  4  5  1  6
  6  4  1  0
  6  7  2  0
  8  6  1  0
  9  8  1  0
  9 10  1  1
 11 12  1  0
 11 10  1  0
 12 13  1  0
 13 14  1  0
 15 17  1  0
 15  9  1  0
 16 15  2  0
 18 17  1  0
 18 19  1  6
 19 20  1  0
 20 21  1  0
 21 22  2  0
 23 18  1  0
 24 23  1  0
 25 21  1  0
 26 23  2  0
M  END
$$$$
