VKE.pdb
     RDKit          3D

 26 25  0  0  1  0  0  0  0  0999 V2000
    9.4354  -13.6004   21.5530 C   0  0  0  0  0  0  0  0  0  0  0  0
    8.1356  -13.3041   20.8926 C   0  0  1  0  0  0  0  0  0  0  0  0
    8.3279  -12.3216   19.7197 C   0  0  0  0  0  0  0  0  0  0  0  0
    7.3801  -14.4649   20.3549 C   0  0  2  0  0  0  0  0  0  0  0  0
    6.1621  -13.9526   19.6978 N   0  0  0  0  0  0  0  0  0  0  0  0
    7.0494  -15.4959   21.3457 C   0  0  0  0  0  0  0  0  0  0  0  0
    6.1998  -15.2586   22.2273 O   0  0  0  0  0  0  0  0  0  0  0  0
    7.6754  -16.7882   21.3485 N   0  0  0  0  0  0  0  0  0  0  0  0
    7.3437  -17.7632   22.3912 C   0  0  1  0  0  0  0  0  0  0  0  0
    6.7062  -18.9688   21.8223 C   0  0  0  0  0  0  0  0  0  0  0  0
    6.4197  -20.0631   22.7986 C   0  0  0  0  0  0  0  0  0  0  0  0
    5.7641  -21.2268   22.0314 C   0  0  0  0  0  0  0  0  0  0  0  0
    5.3089  -22.3100   22.9645 C   0  0  0  0  0  0  0  0  0  0  0  0
    4.5632  -23.3094   22.2129 N   0  0  0  0  0  0  0  0  0  0  0  0
    8.5592  -17.9473   23.2015 C   0  0  0  0  0  0  0  0  0  0  0  0
    9.6863  -17.9811   22.6202 O   0  0  0  0  0  0  0  0  0  0  0  0
    8.6384  -18.0875   24.5900 N   0  0  0  0  0  0  0  0  0  0  0  0
    9.8720  -18.3118   25.3477 C   0  0  1  0  0  0  0  0  0  0  0  0
    9.7112  -18.0451   26.7685 C   0  0  0  0  0  0  0  0  0  0  0  0
   10.1164  -19.1341   27.6858 C   0  0  0  0  0  0  0  0  0  0  0  0
   10.0044  -18.8920   29.1192 C   0  0  0  0  0  0  0  0  0  0  0  0
    9.5206  -17.7743   29.5186 O   0  0  0  0  0  0  0  0  0  0  0  0
   10.4074  -19.5865   24.9722 C   0  0  0  0  0  0  0  0  0  0  0  0
   11.7786  -19.7651   24.8246 O   0  0  0  0  0  0  0  0  0  0  0  0
   10.4222  -19.8721   30.0269 O   0  0  0  0  0  0  0  0  0  0  0  0
    9.6811  -20.5800   24.7621 O   0  0  0  0  0  0  0  0  0  0  0  0
  2  4  1  0
  2  1  1  6
  3  2  1  0
  4  5  1  1
  6  4  1  0
  6  7  2  0
  8  6  1  0
  9  8  1  0
  9 10  1  6
 11 12  1  0
 11 10  1  0
 12 13  1  0
 13 14  1  0
 15 17  1  0
 15  9  1  0
 16 15  2  0
 18 17  1  0
 18 19  1  1
 19 20  1  0
 20 21  1  0
 21 22  2  0
 23 18  1  0
 24 23  1  0
 25 21  1  0
 26 23  2  0
M  END
$$$$
