VKE.pdb
     RDKit          3D

 26 25  0  0  1  0  0  0  0  0999 V2000
    6.7242  -18.2785   18.6047 C   0  0  0  0  0  0  0  0  0  0  0  0
    7.3594  -17.6430   19.7905 C   0  0  1  0  0  0  0  0  0  0  0  0
    8.6997  -18.3273   20.1272 C   0  0  0  0  0  0  0  0  0  0  0  0
    7.6373  -16.1865   19.6986 C   0  0  2  0  0  0  0  0  0  0  0  0
    8.5501  -15.9663   18.5602 N   0  0  0  0  0  0  0  0  0  0  0  0
    8.1713  -15.5835   20.9255 C   0  0  0  0  0  0  0  0  0  0  0  0
    9.4036  -15.4530   21.0665 O   0  0  0  0  0  0  0  0  0  0  0  0
    7.3230  -15.1329   21.9928 N   0  0  0  0  0  0  0  0  0  0  0  0
    7.9033  -14.4623   23.1596 C   0  0  1  0  0  0  0  0  0  0  0  0
    6.8710  -13.7589   23.9489 C   0  0  0  0  0  0  0  0  0  0  0  0
    7.3410  -13.1730   25.2407 C   0  0  0  0  0  0  0  0  0  0  0  0
    6.1424  -12.4770   25.9125 C   0  0  0  0  0  0  0  0  0  0  0  0
    6.5232  -11.8919   27.2407 C   0  0  0  0  0  0  0  0  0  0  0  0
    5.3697  -11.2146   27.8156 N   0  0  0  0  0  0  0  0  0  0  0  0
    8.7349  -15.4606   23.8523 C   0  0  0  0  0  0  0  0  0  0  0  0
    8.2630  -16.6209   24.0534 O   0  0  0  0  0  0  0  0  0  0  0  0
   10.0372  -15.2927   24.3313 N   0  0  0  0  0  0  0  0  0  0  0  0
   10.9172  -16.3731   24.7834 C   0  0  1  0  0  0  0  0  0  0  0  0
   12.2796  -16.2251   24.2957 C   0  0  0  0  0  0  0  0  0  0  0  0
   13.2611  -17.2151   24.7937 C   0  0  0  0  0  0  0  0  0  0  0  0
   14.6556  -17.0443   24.4043 C   0  0  0  0  0  0  0  0  0  0  0  0
   15.1191  -15.8557   24.2813 O   0  0  0  0  0  0  0  0  0  0  0  0
   10.7364  -16.5425   26.1945 C   0  0  0  0  0  0  0  0  0  0  0  0
   11.1486  -17.7098   26.8281 O   0  0  0  0  0  0  0  0  0  0  0  0
   15.4581  -18.1677   24.1733 O   0  0  0  0  0  0  0  0  0  0  0  0
   10.2084  -15.6660   26.9099 O   0  0  0  0  0  0  0  0  0  0  0  0
  2  4  1  0
  2  1  1  6
  3  2  1  0
  4  5  1  6
  6  4  1  0
  6  7  2  0
  8  6  1  0
  9  8  1  0
  9 10  1  1
 11 12  1  0
 11 10  1  0
 12 13  1  0
 13 14  1  0
 15 17  1  0
 15  9  1  0
 16 15  2  0
 18 17  1  0
 18 19  1  1
 19 20  1  0
 20 21  1  0
 21 22  2  0
 23 18  1  0
 24 23  1  0
 25 21  1  0
 26 23  2  0
M  END
$$$$
