VMH.pdb
     RDKit          3D

 26 26  0  0  1  0  0  0  0  0999 V2000
    7.0567  -15.8791   20.0231 C   0  0  0  0  0  0  0  0  0  0  0  0
    7.8848  -14.7787   19.4446 C   0  0  1  0  0  0  0  0  0  0  0  0
    7.4499  -14.5363   18.0149 C   0  0  0  0  0  0  0  0  0  0  0  0
    7.7869  -13.4984   20.2690 C   0  0  2  0  0  0  0  0  0  0  0  0
    8.5594  -12.4675   19.6192 N   0  0  0  0  0  0  0  0  0  0  0  0
    8.3489  -13.7483   21.6214 C   0  0  0  0  0  0  0  0  0  0  0  0
    9.6059  -13.8126   21.7931 O   0  0  0  0  0  0  0  0  0  0  0  0
    7.2343  -11.0195   27.6771 C   0  0  0  0  0  0  0  0  0  0  0  0
    6.0780  -11.9127   26.6056 S   0  0  0  0  0  0  0  0  0  0  0  0
    6.9550  -12.3482   25.0553 C   0  0  0  0  0  0  0  0  0  0  0  0
    7.2280  -13.8179   25.1246 C   0  0  0  0  0  0  0  0  0  0  0  0
    8.1403  -14.3336   24.0422 C   0  0  2  0  0  0  0  0  0  0  0  0
    7.5519  -13.9259   22.7719 N   0  0  0  0  0  0  0  0  0  0  0  0
    8.2966  -15.8207   24.0912 C   0  0  0  0  0  0  0  0  0  0  0  0
    7.9830  -16.5359   23.1068 O   0  0  0  0  0  0  0  0  0  0  0  0
    8.8116  -16.4252   25.2810 N   0  0  0  0  0  0  0  0  0  0  0  0
    9.9461  -17.2916   25.3290 C   0  0  1  0  0  0  0  0  0  0  0  0
   11.1130  -16.7960   24.5489 C   0  0  0  0  0  0  0  0  0  0  0  0
   11.0659  -17.1341   23.1329 C   0  0  0  0  0  0  0  0  0  0  0  0
   10.1127  -17.8187   22.4131 C   0  0  0  0  0  0  0  0  0  0  0  0
   10.4836  -17.9144   21.1245 N   0  0  0  0  0  0  0  0  0  0  0  0
   11.6749  -17.2939   21.0055 C   0  0  0  0  0  0  0  0  0  0  0  0
   12.0229  -16.8266   22.2102 N   0  0  0  0  0  0  0  0  0  0  0  0
   10.2765  -17.7401   26.7162 C   0  0  0  0  0  0  0  0  0  0  0  0
   10.4038  -16.7910   27.7113 O   0  0  0  0  0  0  0  0  0  0  0  0
   10.4473  -18.9343   27.0490 O   0  0  0  0  0  0  0  0  0  0  0  0
  2  1  1  1
  2  3  1  0
  4  6  1  0
  4  2  1  0
  4  5  1  6
  6  7  2  0
  9  8  1  0
 10  9  1  0
 11 10  1  0
 12 11  1  1
 13  6  1  0
 13 12  1  0
 14 15  2  0
 14 12  1  0
 16 14  1  0
 17 16  1  0
 18 19  1  0
 17 18  1  1
 19 20  2  0
 21 20  1  0
 22 21  1  0
 23 22  2  0
 23 19  1  0
 24 17  1  0
 24 25  1  0
 26 24  2  0
M  END
$$$$
