VMH.pdb
     RDKit          3D

 26 26  0  0  1  0  0  0  0  0999 V2000
    7.0578  -17.5730   20.8734 C   0  0  0  0  0  0  0  0  0  0  0  0
    7.5512  -16.5509   19.9022 C   0  0  1  0  0  0  0  0  0  0  0  0
    6.8960  -16.7929   18.5590 C   0  0  0  0  0  0  0  0  0  0  0  0
    7.2881  -15.1289   20.3892 C   0  0  2  0  0  0  0  0  0  0  0  0
    7.8168  -14.2007   19.4193 N   0  0  0  0  0  0  0  0  0  0  0  0
    7.9819  -14.9247   21.6869 C   0  0  0  0  0  0  0  0  0  0  0  0
    9.2463  -14.8085   21.7284 O   0  0  0  0  0  0  0  0  0  0  0  0
    7.6027  -11.5969   27.4894 C   0  0  0  0  0  0  0  0  0  0  0  0
    6.1096  -12.2626   26.7081 S   0  0  0  0  0  0  0  0  0  0  0  0
    6.5603  -12.8686   25.0372 C   0  0  0  0  0  0  0  0  0  0  0  0
    7.0467  -14.2725   25.2155 C   0  0  0  0  0  0  0  0  0  0  0  0
    8.0411  -14.7236   24.1774 C   0  0  2  0  0  0  0  0  0  0  0  0
    7.3072  -14.8479   22.9236 N   0  0  0  0  0  0  0  0  0  0  0  0
    8.6858  -16.0253   24.5356 C   0  0  0  0  0  0  0  0  0  0  0  0
    8.0395  -17.1016   24.4852 O   0  0  0  0  0  0  0  0  0  0  0  0
   10.0581  -16.0316   24.9395 N   0  0  0  0  0  0  0  0  0  0  0  0
   10.8080  -17.2048   25.2580 C   0  0  1  0  0  0  0  0  0  0  0  0
   12.1715  -17.2257   24.6610 C   0  0  0  0  0  0  0  0  0  0  0  0
   12.9823  -18.3629   25.0748 C   0  0  0  0  0  0  0  0  0  0  0  0
   13.4080  -18.7428   26.3277 C   0  0  0  0  0  0  0  0  0  0  0  0
   14.1530  -19.8588   26.2465 N   0  0  0  0  0  0  0  0  0  0  0  0
   14.2121  -20.2047   24.9445 C   0  0  0  0  0  0  0  0  0  0  0  0
   13.5099  -19.3071   24.2431 N   0  0  0  0  0  0  0  0  0  0  0  0
   10.7660  -17.5443   26.7132 C   0  0  0  0  0  0  0  0  0  0  0  0
   10.6820  -16.5193   27.6348 O   0  0  0  0  0  0  0  0  0  0  0  0
   10.7996  -18.7104   27.1662 O   0  0  0  0  0  0  0  0  0  0  0  0
  2  1  1  1
  2  3  1  0
  4  6  1  0
  4  2  1  0
  4  5  1  6
  6  7  2  0
  9  8  1  0
 10  9  1  0
 11 10  1  0
 12 11  1  1
 13  6  1  0
 13 12  1  0
 14 15  2  0
 14 12  1  0
 16 14  1  0
 17 16  1  0
 18 19  1  0
 17 18  1  1
 19 20  2  0
 21 20  1  0
 22 21  1  0
 23 22  2  0
 23 19  1  0
 24 17  1  0
 24 25  1  0
 26 24  2  0
M  END
$$$$
