VMH.pdb
     RDKit          3D

 26 26  0  0  1  0  0  0  0  0999 V2000
    7.7849  -18.7970   19.4985 C   0  0  0  0  0  0  0  0  0  0  0  0
    8.3239  -18.1317   20.7225 C   0  0  1  0  0  0  0  0  0  0  0  0
    9.5951  -18.8370   21.1455 C   0  0  0  0  0  0  0  0  0  0  0  0
    8.5747  -16.6434   20.4981 C   0  0  2  0  0  0  0  0  0  0  0  0
    9.6370  -16.4917   19.5336 N   0  0  0  0  0  0  0  0  0  0  0  0
    8.9909  -16.0228   21.7821 C   0  0  0  0  0  0  0  0  0  0  0  0
   10.2184  -15.9784   22.1064 O   0  0  0  0  0  0  0  0  0  0  0  0
    6.6296  -11.3224   27.6352 C   0  0  0  0  0  0  0  0  0  0  0  0
    6.2451  -12.3344   26.1823 S   0  0  0  0  0  0  0  0  0  0  0  0
    7.7258  -13.3365   25.7753 C   0  0  0  0  0  0  0  0  0  0  0  0
    7.4233  -14.0295   24.4840 C   0  0  0  0  0  0  0  0  0  0  0  0
    8.5380  -14.9034   23.9703 C   0  0  2  0  0  0  0  0  0  0  0  0
    8.0818  -15.4578   22.7013 N   0  0  0  0  0  0  0  0  0  0  0  0
    8.8850  -16.0019   24.9249 C   0  0  0  0  0  0  0  0  0  0  0  0
    8.0714  -16.9285   25.1666 O   0  0  0  0  0  0  0  0  0  0  0  0
   10.1642  -15.9863   25.5649 N   0  0  0  0  0  0  0  0  0  0  0  0
   10.6375  -16.9904   26.4639 C   0  0  1  0  0  0  0  0  0  0  0  0
   12.0063  -17.4821   26.1471 C   0  0  0  0  0  0  0  0  0  0  0  0
   12.1320  -18.0719   24.8211 C   0  0  0  0  0  0  0  0  0  0  0  0
   11.3300  -18.9848   24.1740 C   0  0  0  0  0  0  0  0  0  0  0  0
   11.8317  -19.2644   22.9586 N   0  0  0  0  0  0  0  0  0  0  0  0
   12.9571  -18.5357   22.8146 C   0  0  0  0  0  0  0  0  0  0  0  0
   13.1360  -17.8212   23.9319 N   0  0  0  0  0  0  0  0  0  0  0  0
   10.4277  -16.6307   27.8996 C   0  0  0  0  0  0  0  0  0  0  0  0
   10.7495  -17.5562   28.8727 O   0  0  0  0  0  0  0  0  0  0  0  0
    9.9756  -15.5318   28.2921 O   0  0  0  0  0  0  0  0  0  0  0  0
  2  1  1  6
  2  3  1  0
  4  6  1  0
  4  2  1  0
  4  5  1  6
  6  7  2  0
  9  8  1  0
 10  9  1  0
 11 10  1  0
 12 11  1  1
 13  6  1  0
 13 12  1  0
 14 15  2  0
 14 12  1  0
 16 14  1  0
 17 16  1  0
 18 19  1  0
 17 18  1  1
 19 20  2  0
 21 20  1  0
 22 21  1  0
 23 22  2  0
 23 19  1  0
 24 17  1  0
 24 25  1  0
 26 24  2  0
M  END
$$$$
