VMH.pdb
     RDKit          3D

 26 26  0  0  1  0  0  0  0  0999 V2000
    7.0584  -16.2320   19.6467 C   0  0  0  0  0  0  0  0  0  0  0  0
    7.7730  -15.1121   18.9637 C   0  0  1  0  0  0  0  0  0  0  0  0
    7.3710  -15.0905   17.5043 C   0  0  0  0  0  0  0  0  0  0  0  0
    7.4904  -13.7674   19.6273 C   0  0  2  0  0  0  0  0  0  0  0  0
    8.1403  -12.7283   18.8661 N   0  0  0  0  0  0  0  0  0  0  0  0
    8.0453  -13.7807   21.0054 C   0  0  0  0  0  0  0  0  0  0  0  0
    9.3006  -13.8366   21.1923 O   0  0  0  0  0  0  0  0  0  0  0  0
    6.5158  -11.8177   28.4271 C   0  0  0  0  0  0  0  0  0  0  0  0
    5.9108  -12.2634   26.7784 S   0  0  0  0  0  0  0  0  0  0  0  0
    7.2970  -13.0191   25.8456 C   0  0  0  0  0  0  0  0  0  0  0  0
    6.8148  -13.1894   24.4393 C   0  0  0  0  0  0  0  0  0  0  0  0
    7.8378  -13.7670   23.4960 C   0  0  2  0  0  0  0  0  0  0  0  0
    7.2432  -13.7336   22.1651 N   0  0  0  0  0  0  0  0  0  0  0  0
    8.2214  -15.1663   23.8609 C   0  0  0  0  0  0  0  0  0  0  0  0
    7.4728  -16.1354   23.5795 O   0  0  0  0  0  0  0  0  0  0  0  0
    9.4604  -15.3913   24.5394 N   0  0  0  0  0  0  0  0  0  0  0  0
   10.1276  -16.6517   24.6204 C   0  0  1  0  0  0  0  0  0  0  0  0
   11.1985  -16.8303   23.6021 C   0  0  0  0  0  0  0  0  0  0  0  0
   11.9105  -18.0967   23.7067 C   0  0  0  0  0  0  0  0  0  0  0  0
   12.6918  -18.5964   24.7241 C   0  0  0  0  0  0  0  0  0  0  0  0
   13.1687  -19.8084   24.3911 N   0  0  0  0  0  0  0  0  0  0  0  0
   12.6992  -20.0971   23.1604 C   0  0  0  0  0  0  0  0  0  0  0  0
   11.9451  -19.0701   22.7512 N   0  0  0  0  0  0  0  0  0  0  0  0
   10.5363  -17.0044   26.0144 C   0  0  0  0  0  0  0  0  0  0  0  0
   10.6215  -18.3367   26.3675 O   0  0  0  0  0  0  0  0  0  0  0  0
   10.8142  -16.1659   26.9009 O   0  0  0  0  0  0  0  0  0  0  0  0
  2  1  1  1
  2  3  1  0
  4  6  1  0
  4  2  1  0
  4  5  1  6
  6  7  2  0
  9  8  1  0
 10  9  1  0
 11 10  1  0
 12 11  1  1
 13  6  1  0
 13 12  1  0
 14 15  2  0
 14 12  1  0
 16 14  1  0
 17 16  1  0
 18 19  1  0
 17 18  1  6
 19 20  2  0
 21 20  1  0
 22 21  1  0
 23 22  2  0
 23 19  1  0
 24 17  1  0
 24 25  1  0
 26 24  2  0
M  END
$$$$
