VMH.pdb
     RDKit          3D

 26 26  0  0  1  0  0  0  0  0999 V2000
    7.2481  -17.8203   20.7225 C   0  0  0  0  0  0  0  0  0  0  0  0
    8.3878  -17.2831   19.9202 C   0  0  1  0  0  0  0  0  0  0  0  0
    8.1906  -17.6663   18.4688 C   0  0  0  0  0  0  0  0  0  0  0  0
    8.5277  -15.7711   20.0709 C   0  0  2  0  0  0  0  0  0  0  0  0
    9.5749  -15.3116   19.1911 N   0  0  0  0  0  0  0  0  0  0  0  0
    8.8981  -15.4559   21.4747 C   0  0  0  0  0  0  0  0  0  0  0  0
   10.0596  -15.7306   21.9100 O   0  0  0  0  0  0  0  0  0  0  0  0
    6.6223  -11.6088   27.9559 C   0  0  0  0  0  0  0  0  0  0  0  0
    6.2149  -12.3131   26.3369 S   0  0  0  0  0  0  0  0  0  0  0  0
    7.5847  -13.4244   25.8358 C   0  0  0  0  0  0  0  0  0  0  0  0
    7.3300  -13.7887   24.4070 C   0  0  0  0  0  0  0  0  0  0  0  0
    8.3866  -14.6685   23.7908 C   0  0  2  0  0  0  0  0  0  0  0  0
    8.0150  -14.8494   22.3926 N   0  0  0  0  0  0  0  0  0  0  0  0
    8.4945  -15.9934   24.4775 C   0  0  0  0  0  0  0  0  0  0  0  0
    8.0269  -17.0338   23.9506 O   0  0  0  0  0  0  0  0  0  0  0  0
    9.1414  -16.0637   25.7514 N   0  0  0  0  0  0  0  0  0  0  0  0
   10.2487  -16.9127   26.0568 C   0  0  1  0  0  0  0  0  0  0  0  0
   11.2757  -16.9698   24.9807 C   0  0  0  0  0  0  0  0  0  0  0  0
   11.1352  -18.1119   24.0876 C   0  0  0  0  0  0  0  0  0  0  0  0
   10.0331  -18.8845   23.7982 C   0  0  0  0  0  0  0  0  0  0  0  0
   10.3601  -19.8505   22.9223 N   0  0  0  0  0  0  0  0  0  0  0  0
   11.6713  -19.7072   22.6421 C   0  0  0  0  0  0  0  0  0  0  0  0
   12.1348  -18.6647   23.3413 N   0  0  0  0  0  0  0  0  0  0  0  0
   10.8014  -16.6772   27.4257 C   0  0  0  0  0  0  0  0  0  0  0  0
   11.2730  -17.7550   28.1489 O   0  0  0  0  0  0  0  0  0  0  0  0
   10.8716  -15.5544   27.9739 O   0  0  0  0  0  0  0  0  0  0  0  0
  2  1  1  1
  2  3  1  0
  4  6  1  0
  4  2  1  0
  4  5  1  6
  6  7  2  0
  9  8  1  0
 10  9  1  0
 11 10  1  0
 12 11  1  1
 13  6  1  0
 13 12  1  0
 14 15  2  0
 14 12  1  0
 16 14  1  0
 17 16  1  0
 18 19  1  0
 17 18  1  6
 19 20  2  0
 21 20  1  0
 22 21  1  0
 23 22  2  0
 23 19  1  0
 24 17  1  0
 24 25  1  0
 26 24  2  0
M  END
$$$$
