VMH.pdb
     RDKit          3D

 26 26  0  0  1  0  0  0  0  0999 V2000
    7.0877  -17.8572   20.7999 C   0  0  0  0  0  0  0  0  0  0  0  0
    8.0567  -17.2950   19.8117 C   0  0  1  0  0  0  0  0  0  0  0  0
    7.6182  -17.6864   18.4165 C   0  0  0  0  0  0  0  0  0  0  0  0
    8.1847  -15.7798   19.9383 C   0  0  2  0  0  0  0  0  0  0  0  0
    9.1372  -15.3110   18.9612 N   0  0  0  0  0  0  0  0  0  0  0  0
    8.6796  -15.4470   21.2990 C   0  0  0  0  0  0  0  0  0  0  0  0
    9.8996  -15.6308   21.6020 O   0  0  0  0  0  0  0  0  0  0  0  0
    6.9710  -11.4098   27.8378 C   0  0  0  0  0  0  0  0  0  0  0  0
    6.5020  -12.0392   26.2047 S   0  0  0  0  0  0  0  0  0  0  0  0
    7.7626  -13.2632   25.6802 C   0  0  0  0  0  0  0  0  0  0  0  0
    7.4212  -13.6428   24.2736 C   0  0  0  0  0  0  0  0  0  0  0  0
    8.3961  -14.5952   23.6315 C   0  0  2  0  0  0  0  0  0  0  0  0
    7.8563  -14.9208   22.3167 N   0  0  0  0  0  0  0  0  0  0  0  0
    8.5900  -15.8401   24.4386 C   0  0  0  0  0  0  0  0  0  0  0  0
    7.6349  -16.6292   24.6481 O   0  0  0  0  0  0  0  0  0  0  0  0
    9.8856  -16.1250   24.9737 N   0  0  0  0  0  0  0  0  0  0  0  0
   10.1763  -17.1901   25.8800 C   0  0  1  0  0  0  0  0  0  0  0  0
   11.4213  -17.9361   25.5495 C   0  0  0  0  0  0  0  0  0  0  0  0
   11.4286  -18.5139   24.2124 C   0  0  0  0  0  0  0  0  0  0  0  0
   10.4532  -18.5204   23.2409 C   0  0  0  0  0  0  0  0  0  0  0  0
   10.8839  -19.1852   22.1547 N   0  0  0  0  0  0  0  0  0  0  0  0
   12.1361  -19.6104   22.4181 C   0  0  0  0  0  0  0  0  0  0  0  0
   12.4615  -19.2072   23.6520 N   0  0  0  0  0  0  0  0  0  0  0  0
   10.0642  -16.7804   27.3133 C   0  0  0  0  0  0  0  0  0  0  0  0
   10.2408  -17.7351   28.2954 O   0  0  0  0  0  0  0  0  0  0  0  0
    9.8199  -15.6143   27.6960 O   0  0  0  0  0  0  0  0  0  0  0  0
  2  1  1  1
  2  3  1  0
  4  6  1  0
  4  2  1  0
  4  5  1  6
  6  7  2  0
  9  8  1  0
 10  9  1  0
 11 10  1  0
 12 11  1  1
 13  6  1  0
 13 12  1  0
 14 15  2  0
 14 12  1  0
 16 14  1  0
 17 16  1  0
 18 19  1  0
 17 18  1  1
 19 20  2  0
 21 20  1  0
 22 21  1  0
 23 22  2  0
 23 19  1  0
 24 17  1  0
 24 25  1  0
 26 24  2  0
M  END
$$$$
