VMH.pdb
     RDKit          3D

 26 26  0  0  1  0  0  0  0  0999 V2000
    8.3904  -19.0277   22.1273 C   0  0  0  0  0  0  0  0  0  0  0  0
    8.9065  -18.2297   20.9749 C   0  0  1  0  0  0  0  0  0  0  0  0
    8.6298  -18.9843   19.6918 C   0  0  0  0  0  0  0  0  0  0  0  0
    8.2938  -16.8330   20.9292 C   0  0  2  0  0  0  0  0  0  0  0  0
    8.8203  -16.1322   19.7832 N   0  0  0  0  0  0  0  0  0  0  0  0
    8.6698  -16.0980   22.1643 C   0  0  0  0  0  0  0  0  0  0  0  0
    9.8281  -15.5897   22.2822 O   0  0  0  0  0  0  0  0  0  0  0  0
    8.2078  -11.4265   27.0279 C   0  0  0  0  0  0  0  0  0  0  0  0
    6.9610  -12.3406   26.0829 S   0  0  0  0  0  0  0  0  0  0  0  0
    7.1336  -14.1220   26.4820 C   0  0  0  0  0  0  0  0  0  0  0  0
    6.9213  -14.8632   25.1995 C   0  0  0  0  0  0  0  0  0  0  0  0
    8.1779  -15.1037   24.4039 C   0  0  2  0  0  0  0  0  0  0  0  0
    7.7956  -15.9188   23.2570 N   0  0  0  0  0  0  0  0  0  0  0  0
    9.2350  -15.7950   25.2059 C   0  0  0  0  0  0  0  0  0  0  0  0
    9.9800  -15.1496   25.9851 O   0  0  0  0  0  0  0  0  0  0  0  0
    9.3898  -17.2110   25.0752 N   0  0  0  0  0  0  0  0  0  0  0  0
   10.2137  -18.0213   25.9148 C   0  0  1  0  0  0  0  0  0  0  0  0
   11.6716  -17.7741   25.7434 C   0  0  0  0  0  0  0  0  0  0  0  0
   12.1558  -18.0013   24.3885 C   0  0  0  0  0  0  0  0  0  0  0  0
   11.8541  -17.3481   23.2148 C   0  0  0  0  0  0  0  0  0  0  0  0
   12.5252  -17.9012   22.1897 N   0  0  0  0  0  0  0  0  0  0  0  0
   13.2619  -18.9116   22.6943 C   0  0  0  0  0  0  0  0  0  0  0  0
   13.0395  -18.9706   24.0126 N   0  0  0  0  0  0  0  0  0  0  0  0
    9.7537  -18.0397   27.3370 C   0  0  0  0  0  0  0  0  0  0  0  0
   10.5026  -18.7279   28.2711 O   0  0  0  0  0  0  0  0  0  0  0  0
    8.7223  -17.4651   27.7517 O   0  0  0  0  0  0  0  0  0  0  0  0
  2  1  1  1
  2  3  1  0
  4  6  1  0
  4  2  1  0
  4  5  1  6
  6  7  2  0
  9  8  1  0
 10  9  1  0
 11 10  1  0
 12 11  1  1
 13  6  1  0
 13 12  1  0
 14 15  2  0
 14 12  1  0
 16 14  1  0
 17 16  1  0
 18 19  1  0
 17 18  1  1
 19 20  2  0
 21 20  1  0
 22 21  1  0
 23 22  2  0
 23 19  1  0
 24 17  1  0
 24 25  1  0
 26 24  2  0
M  END
$$$$
