VMH.pdb
     RDKit          3D

 26 26  0  0  1  0  0  0  0  0999 V2000
    7.9395  -17.9786   19.3006 C   0  0  0  0  0  0  0  0  0  0  0  0
    8.3817  -17.5560   20.6634 C   0  0  1  0  0  0  0  0  0  0  0  0
    9.4472  -18.5137   21.1531 C   0  0  0  0  0  0  0  0  0  0  0  0
    8.8932  -16.1184   20.6759 C   0  0  2  0  0  0  0  0  0  0  0  0
   10.1048  -16.0498   19.8955 N   0  0  0  0  0  0  0  0  0  0  0  0
    9.1930  -15.7226   22.0761 C   0  0  0  0  0  0  0  0  0  0  0  0
   10.3680  -15.8488   22.5421 O   0  0  0  0  0  0  0  0  0  0  0  0
    5.0504  -12.0494   26.6071 C   0  0  0  0  0  0  0  0  0  0  0  0
    6.8516  -11.9155   26.4629 S   0  0  0  0  0  0  0  0  0  0  0  0
    7.5377  -13.6061   26.2796 C   0  0  0  0  0  0  0  0  0  0  0  0
    7.4577  -13.9373   24.8225 C   0  0  0  0  0  0  0  0  0  0  0  0
    8.5737  -14.8168   24.3216 C   0  0  2  0  0  0  0  0  0  0  0  0
    8.2254  -15.1960   22.9575 N   0  0  0  0  0  0  0  0  0  0  0  0
    8.7617  -16.0349   25.1698 C   0  0  0  0  0  0  0  0  0  0  0  0
    7.8160  -16.8392   25.3636 O   0  0  0  0  0  0  0  0  0  0  0  0
   10.0409  -16.2765   25.7628 N   0  0  0  0  0  0  0  0  0  0  0  0
   10.3360  -17.3550   26.6516 C   0  0  1  0  0  0  0  0  0  0  0  0
   11.6102  -18.0584   26.3392 C   0  0  0  0  0  0  0  0  0  0  0  0
   11.6249  -18.7064   25.0347 C   0  0  0  0  0  0  0  0  0  0  0  0
   10.5833  -19.1230   24.2367 C   0  0  0  0  0  0  0  0  0  0  0  0
   11.0567  -19.6883   23.1126 N   0  0  0  0  0  0  0  0  0  0  0  0
   12.4027  -19.6399   23.1784 C   0  0  0  0  0  0  0  0  0  0  0  0
   12.7420  -19.0511   24.3312 N   0  0  0  0  0  0  0  0  0  0  0  0
   10.1726  -16.9837   28.0904 C   0  0  0  0  0  0  0  0  0  0  0  0
    9.9230  -15.6647   28.4144 O   0  0  0  0  0  0  0  0  0  0  0  0
   10.2443  -17.7953   29.0403 O   0  0  0  0  0  0  0  0  0  0  0  0
  2  1  1  6
  2  3  1  0
  4  6  1  0
  4  2  1  0
  4  5  1  6
  6  7  2  0
  9  8  1  0
 10  9  1  0
 11 10  1  0
 12 11  1  1
 13  6  1  0
 13 12  1  0
 14 15  2  0
 14 12  1  0
 16 14  1  0
 17 16  1  0
 18 19  1  0
 17 18  1  1
 19 20  2  0
 21 20  1  0
 22 21  1  0
 23 22  2  0
 23 19  1  0
 24 17  1  0
 24 25  1  0
 26 24  2  0
M  END
$$$$
