VMH.pdb
     RDKit          3D

 26 26  0  0  1  0  0  0  0  0999 V2000
    7.4630  -19.6199   22.6140 C   0  0  0  0  0  0  0  0  0  0  0  0
    7.5714  -19.0994   21.2181 C   0  0  1  0  0  0  0  0  0  0  0  0
    6.8871  -20.0688   20.2779 C   0  0  0  0  0  0  0  0  0  0  0  0
    6.9786  -17.6996   21.0846 C   0  0  2  0  0  0  0  0  0  0  0  0
    7.0938  -17.2758   19.7102 N   0  0  0  0  0  0  0  0  0  0  0  0
    7.7445  -16.7643   21.9481 C   0  0  0  0  0  0  0  0  0  0  0  0
    8.9300  -16.4285   21.6387 O   0  0  0  0  0  0  0  0  0  0  0  0
    6.4059  -11.1395   26.1684 C   0  0  0  0  0  0  0  0  0  0  0  0
    6.4758  -12.8396   26.7909 S   0  0  0  0  0  0  0  0  0  0  0  0
    7.8061  -13.7240   25.8905 C   0  0  0  0  0  0  0  0  0  0  0  0
    7.1238  -14.6215   24.9066 C   0  0  0  0  0  0  0  0  0  0  0  0
    8.0605  -15.3921   24.0129 C   0  0  2  0  0  0  0  0  0  0  0  0
    7.2258  -16.2019   23.1335 N   0  0  0  0  0  0  0  0  0  0  0  0
    8.9988  -16.2621   24.7883 C   0  0  0  0  0  0  0  0  0  0  0  0
    8.5844  -17.2863   25.3868 O   0  0  0  0  0  0  0  0  0  0  0  0
   10.3849  -15.9126   24.8415 N   0  0  0  0  0  0  0  0  0  0  0  0
   11.4287  -16.7849   25.2772 C   0  0  1  0  0  0  0  0  0  0  0  0
   11.3694  -18.1422   24.6689 C   0  0  0  0  0  0  0  0  0  0  0  0
   10.3435  -19.0036   25.2408 C   0  0  0  0  0  0  0  0  0  0  0  0
    9.4883  -18.7873   26.2978 C   0  0  0  0  0  0  0  0  0  0  0  0
    8.7085  -19.8650   26.4924 N   0  0  0  0  0  0  0  0  0  0  0  0
    9.0549  -20.7803   25.5647 C   0  0  0  0  0  0  0  0  0  0  0  0
   10.0351  -20.2627   24.8151 N   0  0  0  0  0  0  0  0  0  0  0  0
   12.7789  -16.1451   25.2287 C   0  0  0  0  0  0  0  0  0  0  0  0
   13.8388  -16.7768   25.8489 O   0  0  0  0  0  0  0  0  0  0  0  0
   13.0246  -15.0604   24.6551 O   0  0  0  0  0  0  0  0  0  0  0  0
  2  1  1  1
  2  3  1  0
  4  6  1  0
  4  2  1  0
  4  5  1  6
  6  7  2  0
  9  8  1  0
 10  9  1  0
 11 10  1  0
 12 11  1  1
 13  6  1  0
 13 12  1  0
 14 15  2  0
 14 12  1  0
 16 14  1  0
 17 16  1  0
 18 19  1  0
 17 18  1  6
 19 20  2  0
 21 20  1  0
 22 21  1  0
 23 22  2  0
 23 19  1  0
 24 17  1  0
 24 25  1  0
 26 24  2  0
M  END
$$$$
