VMH.pdb
     RDKit          3D

 26 26  0  0  1  0  0  0  0  0999 V2000
    7.1049  -13.6542   19.2707 C   0  0  0  0  0  0  0  0  0  0  0  0
    7.4811  -14.3726   20.5251 C   0  0  1  0  0  0  0  0  0  0  0  0
    7.5930  -15.8530   20.2287 C   0  0  0  0  0  0  0  0  0  0  0  0
    8.7793  -13.8361   21.1212 C   0  0  2  0  0  0  0  0  0  0  0  0
    9.8608  -14.1191   20.2091 N   0  0  0  0  0  0  0  0  0  0  0  0
    9.0398  -14.5224   22.4128 C   0  0  0  0  0  0  0  0  0  0  0  0
   10.2151  -14.8976   22.7157 O   0  0  0  0  0  0  0  0  0  0  0  0
    5.8873  -11.4948   27.7469 C   0  0  0  0  0  0  0  0  0  0  0  0
    7.2466  -11.9131   26.6243 S   0  0  0  0  0  0  0  0  0  0  0  0
    6.5540  -12.8623   25.2165 C   0  0  0  0  0  0  0  0  0  0  0  0
    6.9664  -14.2856   25.4248 C   0  0  0  0  0  0  0  0  0  0  0  0
    8.2836  -14.6512   24.7915 C   0  0  2  0  0  0  0  0  0  0  0  0
    8.0330  -14.7964   23.3625 N   0  0  0  0  0  0  0  0  0  0  0  0
    8.8523  -15.9163   25.3524 C   0  0  0  0  0  0  0  0  0  0  0  0
    9.0285  -16.0526   26.5890 O   0  0  0  0  0  0  0  0  0  0  0  0
    9.1962  -16.9785   24.4582 N   0  0  0  0  0  0  0  0  0  0  0  0
    9.9835  -18.1171   24.8104 C   0  0  1  0  0  0  0  0  0  0  0  0
   10.9916  -18.4911   23.7810 C   0  0  0  0  0  0  0  0  0  0  0  0
   10.4531  -18.5850   22.4309 C   0  0  0  0  0  0  0  0  0  0  0  0
    9.2122  -18.9910   21.9944 C   0  0  0  0  0  0  0  0  0  0  0  0
    9.1497  -18.9328   20.6528 N   0  0  0  0  0  0  0  0  0  0  0  0
   10.3465  -18.4901   20.2169 C   0  0  0  0  0  0  0  0  0  0  0  0
   11.1270  -18.2820   21.2838 N   0  0  0  0  0  0  0  0  0  0  0  0
   10.5215  -18.0434   26.2032 C   0  0  0  0  0  0  0  0  0  0  0  0
   11.2933  -19.0863   26.6760 O   0  0  0  0  0  0  0  0  0  0  0  0
   10.3223  -17.0875   26.9860 O   0  0  0  0  0  0  0  0  0  0  0  0
  2  1  1  6
  2  3  1  0
  4  6  1  0
  4  2  1  0
  4  5  1  6
  6  7  2  0
  9  8  1  0
 10  9  1  0
 11 10  1  0
 12 11  1  1
 13  6  1  0
 13 12  1  0
 14 15  2  0
 14 12  1  0
 16 14  1  0
 17 16  1  0
 18 19  1  0
 17 18  1  6
 19 20  2  0
 21 20  1  0
 22 21  1  0
 23 22  2  0
 23 19  1  0
 24 17  1  0
 24 25  1  0
 26 24  2  0
M  END
$$$$
