VMH.pdb
     RDKit          3D

 26 26  0  0  1  0  0  0  0  0999 V2000
    7.2871  -18.0056   21.1303 C   0  0  0  0  0  0  0  0  0  0  0  0
    8.3100  -17.4639   20.1861 C   0  0  1  0  0  0  0  0  0  0  0  0
    7.9814  -17.9323   18.7844 C   0  0  0  0  0  0  0  0  0  0  0  0
    8.3919  -15.9414   20.2472 C   0  0  2  0  0  0  0  0  0  0  0  0
    9.3811  -15.4912   19.2983 N   0  0  0  0  0  0  0  0  0  0  0  0
    8.8070  -15.5327   21.6139 C   0  0  0  0  0  0  0  0  0  0  0  0
   10.0019  -15.7158   22.0044 O   0  0  0  0  0  0  0  0  0  0  0  0
    7.4109  -10.8769   27.1263 C   0  0  0  0  0  0  0  0  0  0  0  0
    6.3729  -12.1985   26.4489 S   0  0  0  0  0  0  0  0  0  0  0  0
    7.4565  -13.6153   26.0234 C   0  0  0  0  0  0  0  0  0  0  0  0
    7.2599  -13.8718   24.5623 C   0  0  0  0  0  0  0  0  0  0  0  0
    8.3328  -14.7190   23.9289 C   0  0  2  0  0  0  0  0  0  0  0  0
    7.9318  -14.9323   22.5434 N   0  0  0  0  0  0  0  0  0  0  0  0
    8.5091  -16.0297   24.6286 C   0  0  0  0  0  0  0  0  0  0  0  0
    7.5832  -16.8787   24.6525 O   0  0  0  0  0  0  0  0  0  0  0  0
    9.7541  -16.3086   25.2755 N   0  0  0  0  0  0  0  0  0  0  0  0
   10.0522  -17.5127   25.9837 C   0  0  1  0  0  0  0  0  0  0  0  0
   11.2503  -18.2306   25.4688 C   0  0  0  0  0  0  0  0  0  0  0  0
   11.0832  -18.7774   24.1291 C   0  0  0  0  0  0  0  0  0  0  0  0
    9.9802  -18.7915   23.3054 C   0  0  0  0  0  0  0  0  0  0  0  0
   10.2700  -19.4181   22.1518 N   0  0  0  0  0  0  0  0  0  0  0  0
   11.5580  -19.8108   22.2242 C   0  0  0  0  0  0  0  0  0  0  0  0
   12.0444  -19.4261   23.4100 N   0  0  0  0  0  0  0  0  0  0  0  0
   10.0295  -17.3349   27.4678 C   0  0  0  0  0  0  0  0  0  0  0  0
    9.8905  -16.0619   27.9848 O   0  0  0  0  0  0  0  0  0  0  0  0
   10.1267  -18.2720   28.2915 O   0  0  0  0  0  0  0  0  0  0  0  0
  2  1  1  1
  2  3  1  0
  4  6  1  0
  4  2  1  0
  4  5  1  6
  6  7  2  0
  9  8  1  0
 10  9  1  0
 11 10  1  0
 12 11  1  1
 13  6  1  0
 13 12  1  0
 14 15  2  0
 14 12  1  0
 16 14  1  0
 17 16  1  0
 18 19  1  0
 17 18  1  6
 19 20  2  0
 21 20  1  0
 22 21  1  0
 23 22  2  0
 23 19  1  0
 24 17  1  0
 24 25  1  0
 26 24  2  0
M  END
$$$$
