VMH.pdb
     RDKit          3D

 26 26  0  0  1  0  0  0  0  0999 V2000
    6.9185  -17.8005   18.5441 C   0  0  0  0  0  0  0  0  0  0  0  0
    7.4797  -17.4004   19.8693 C   0  0  1  0  0  0  0  0  0  0  0  0
    8.4060  -18.4926   20.3604 C   0  0  0  0  0  0  0  0  0  0  0  0
    8.2057  -16.0601   19.7992 C   0  0  2  0  0  0  0  0  0  0  0  0
    9.3497  -16.1966   18.9307 N   0  0  0  0  0  0  0  0  0  0  0  0
    8.6697  -15.6882   21.1606 C   0  0  0  0  0  0  0  0  0  0  0  0
    9.8315  -16.0168   21.5557 O   0  0  0  0  0  0  0  0  0  0  0  0
    6.7263  -11.6695   27.6824 C   0  0  0  0  0  0  0  0  0  0  0  0
    6.3156  -12.2789   26.0263 S   0  0  0  0  0  0  0  0  0  0  0  0
    7.6492  -13.4168   25.4887 C   0  0  0  0  0  0  0  0  0  0  0  0
    7.3564  -13.7651   24.0632 C   0  0  0  0  0  0  0  0  0  0  0  0
    8.3348  -14.7291   23.4441 C   0  0  2  0  0  0  0  0  0  0  0  0
    7.8785  -14.9677   22.0800 N   0  0  0  0  0  0  0  0  0  0  0  0
    8.4179  -16.0181   24.1992 C   0  0  0  0  0  0  0  0  0  0  0  0
    7.6863  -16.9932   23.8948 O   0  0  0  0  0  0  0  0  0  0  0  0
    9.3472  -16.1296   25.2809 N   0  0  0  0  0  0  0  0  0  0  0  0
   10.1950  -17.2554   25.5136 C   0  0  1  0  0  0  0  0  0  0  0  0
   10.9025  -17.7357   24.2951 C   0  0  0  0  0  0  0  0  0  0  0  0
   11.7661  -18.8858   24.5259 C   0  0  0  0  0  0  0  0  0  0  0  0
   12.0233  -19.5871   25.6823 C   0  0  0  0  0  0  0  0  0  0  0  0
   12.9011  -20.5761   25.4402 N   0  0  0  0  0  0  0  0  0  0  0  0
   13.2145  -20.5190   24.1299 C   0  0  0  0  0  0  0  0  0  0  0  0
   12.5334  -19.5052   23.5829 N   0  0  0  0  0  0  0  0  0  0  0  0
   11.0741  -17.0834   26.7104 C   0  0  0  0  0  0  0  0  0  0  0  0
   11.2207  -15.8226   27.2544 O   0  0  0  0  0  0  0  0  0  0  0  0
   11.6967  -18.0152   27.2674 O   0  0  0  0  0  0  0  0  0  0  0  0
  2  1  1  6
  2  3  1  0
  4  6  1  0
  4  2  1  0
  4  5  1  6
  6  7  2  0
  9  8  1  0
 10  9  1  0
 11 10  1  0
 12 11  1  1
 13  6  1  0
 13 12  1  0
 14 15  2  0
 14 12  1  0
 16 14  1  0
 17 16  1  0
 18 19  1  0
 17 18  1  6
 19 20  2  0
 21 20  1  0
 22 21  1  0
 23 22  2  0
 23 19  1  0
 24 17  1  0
 24 25  1  0
 26 24  2  0
M  END
$$$$
