VMH.pdb
     RDKit          3D

 26 26  0  0  1  0  0  0  0  0999 V2000
    6.9243  -17.8862   19.2287 C   0  0  0  0  0  0  0  0  0  0  0  0
    7.5876  -17.3308   20.4464 C   0  0  1  0  0  0  0  0  0  0  0  0
    8.8523  -18.1172   20.7187 C   0  0  0  0  0  0  0  0  0  0  0  0
    7.8915  -15.8425   20.3009 C   0  0  2  0  0  0  0  0  0  0  0  0
    8.9016  -15.6721   19.2849 N   0  0  0  0  0  0  0  0  0  0  0  0
    8.4089  -15.3246   21.5935 C   0  0  0  0  0  0  0  0  0  0  0  0
    9.6596  -15.2707   21.8099 O   0  0  0  0  0  0  0  0  0  0  0  0
    6.6770  -10.7420   26.7805 C   0  0  0  0  0  0  0  0  0  0  0  0
    6.0287  -12.4337   26.7528 S   0  0  0  0  0  0  0  0  0  0  0  0
    7.3517  -13.5428   26.1347 C   0  0  0  0  0  0  0  0  0  0  0  0
    7.0471  -13.7983   24.6921 C   0  0  0  0  0  0  0  0  0  0  0  0
    8.1154  -14.5648   23.9563 C   0  0  2  0  0  0  0  0  0  0  0  0
    7.5750  -14.8712   22.6373 N   0  0  0  0  0  0  0  0  0  0  0  0
    8.5031  -15.8234   24.6664 C   0  0  0  0  0  0  0  0  0  0  0  0
    7.6720  -16.7498   24.8389 O   0  0  0  0  0  0  0  0  0  0  0  0
    9.8418  -15.9622   25.1509 N   0  0  0  0  0  0  0  0  0  0  0  0
   10.3385  -17.0999   25.8575 C   0  0  1  0  0  0  0  0  0  0  0  0
   11.7026  -17.5199   25.4351 C   0  0  0  0  0  0  0  0  0  0  0  0
   11.7944  -17.9151   24.0361 C   0  0  0  0  0  0  0  0  0  0  0  0
   10.8331  -18.4195   23.1894 C   0  0  0  0  0  0  0  0  0  0  0  0
   11.3619  -18.6598   21.9771 N   0  0  0  0  0  0  0  0  0  0  0  0
   12.6637  -18.3129   22.0341 C   0  0  0  0  0  0  0  0  0  0  0  0
   12.9217  -17.8666   23.2690 N   0  0  0  0  0  0  0  0  0  0  0  0
   10.1569  -16.9898   27.3372 C   0  0  0  0  0  0  0  0  0  0  0  0
   10.3527  -18.1116   28.1184 O   0  0  0  0  0  0  0  0  0  0  0  0
    9.8369  -15.9360   27.9316 O   0  0  0  0  0  0  0  0  0  0  0  0
  2  1  1  6
  2  3  1  0
  4  6  1  0
  4  2  1  0
  4  5  1  6
  6  7  2  0
  9  8  1  0
 10  9  1  0
 11 10  1  0
 12 11  1  1
 13  6  1  0
 13 12  1  0
 14 15  2  0
 14 12  1  0
 16 14  1  0
 17 16  1  0
 18 19  1  0
 17 18  1  1
 19 20  2  0
 21 20  1  0
 22 21  1  0
 23 22  2  0
 23 19  1  0
 24 17  1  0
 24 25  1  0
 26 24  2  0
M  END
$$$$
