VMH.pdb
     RDKit          3D

 26 26  0  0  1  0  0  0  0  0999 V2000
    7.2272  -17.7052   18.8463 C   0  0  0  0  0  0  0  0  0  0  0  0
    7.7176  -17.2753   20.1902 C   0  0  1  0  0  0  0  0  0  0  0  0
    8.9825  -18.0394   20.5191 C   0  0  0  0  0  0  0  0  0  0  0  0
    7.9577  -15.7697   20.2540 C   0  0  2  0  0  0  0  0  0  0  0  0
    9.0542  -15.4368   19.3773 N   0  0  0  0  0  0  0  0  0  0  0  0
    8.3164  -15.3945   21.6460 C   0  0  0  0  0  0  0  0  0  0  0  0
    9.5316  -15.3837   22.0159 O   0  0  0  0  0  0  0  0  0  0  0  0
    7.1341  -11.7858   28.1113 C   0  0  0  0  0  0  0  0  0  0  0  0
    6.8759  -12.1389   26.3530 S   0  0  0  0  0  0  0  0  0  0  0  0
    6.7128  -13.9543   26.1524 C   0  0  0  0  0  0  0  0  0  0  0  0
    6.5318  -14.2015   24.6877 C   0  0  0  0  0  0  0  0  0  0  0  0
    7.7669  -14.6995   23.9830 C   0  0  2  0  0  0  0  0  0  0  0  0
    7.3636  -15.0356   22.6227 N   0  0  0  0  0  0  0  0  0  0  0  0
    8.3653  -15.8923   24.6594 C   0  0  0  0  0  0  0  0  0  0  0  0
    7.7107  -16.9568   24.7899 O   0  0  0  0  0  0  0  0  0  0  0  0
    9.7026  -15.8073   25.1601 N   0  0  0  0  0  0  0  0  0  0  0  0
   10.3387  -16.8069   25.9579 C   0  0  1  0  0  0  0  0  0  0  0  0
   11.7754  -17.0136   25.6277 C   0  0  0  0  0  0  0  0  0  0  0  0
   12.0029  -17.6028   24.3152 C   0  0  0  0  0  0  0  0  0  0  0  0
   11.1044  -18.0573   23.3763 C   0  0  0  0  0  0  0  0  0  0  0  0
   11.7568  -18.5395   22.3044 N   0  0  0  0  0  0  0  0  0  0  0  0
   13.0763  -18.3993   22.5445 C   0  0  0  0  0  0  0  0  0  0  0  0
   13.2225  -17.8377   23.7503 N   0  0  0  0  0  0  0  0  0  0  0  0
   10.0569  -16.6516   27.4178 C   0  0  0  0  0  0  0  0  0  0  0  0
   10.4976  -17.6277   28.2895 O   0  0  0  0  0  0  0  0  0  0  0  0
    9.4418  -15.6832   27.9177 O   0  0  0  0  0  0  0  0  0  0  0  0
  2  1  1  6
  2  3  1  0
  4  6  1  0
  4  2  1  0
  4  5  1  6
  6  7  2  0
  9  8  1  0
 10  9  1  0
 11 10  1  0
 12 11  1  1
 13  6  1  0
 13 12  1  0
 14 15  2  0
 14 12  1  0
 16 14  1  0
 17 16  1  0
 18 19  1  0
 17 18  1  1
 19 20  2  0
 21 20  1  0
 22 21  1  0
 23 22  2  0
 23 19  1  0
 24 17  1  0
 24 25  1  0
 26 24  2  0
M  END
$$$$
