VMH.pdb
     RDKit          3D

 26 26  0  0  1  0  0  0  0  0999 V2000
    8.3662  -18.6056   21.2785 C   0  0  0  0  0  0  0  0  0  0  0  0
    9.0723  -17.8385   20.2088 C   0  0  1  0  0  0  0  0  0  0  0  0
    8.7518  -18.4597   18.8659 C   0  0  0  0  0  0  0  0  0  0  0  0
    8.6992  -16.3590   20.2283 C   0  0  2  0  0  0  0  0  0  0  0  0
    9.4081  -15.6873   19.1661 N   0  0  0  0  0  0  0  0  0  0  0  0
    9.1065  -15.7734   21.5315 C   0  0  0  0  0  0  0  0  0  0  0  0
   10.3363  -15.6594   21.8286 O   0  0  0  0  0  0  0  0  0  0  0  0
    6.8369  -11.7229   27.8640 C   0  0  0  0  0  0  0  0  0  0  0  0
    6.5367  -12.3252   26.1817 S   0  0  0  0  0  0  0  0  0  0  0  0
    7.7261  -13.6780   25.8381 C   0  0  0  0  0  0  0  0  0  0  0  0
    7.5239  -14.0627   24.4062 C   0  0  0  0  0  0  0  0  0  0  0  0
    8.6269  -14.9103   23.8274 C   0  0  2  0  0  0  0  0  0  0  0  0
    8.1860  -15.3177   22.4987 N   0  0  0  0  0  0  0  0  0  0  0  0
    8.9227  -16.1109   24.6698 C   0  0  0  0  0  0  0  0  0  0  0  0
    8.0409  -16.9784   24.8902 O   0  0  0  0  0  0  0  0  0  0  0  0
   10.2317  -16.2622   25.2263 N   0  0  0  0  0  0  0  0  0  0  0  0
   10.6068  -17.2734   26.1629 C   0  0  1  0  0  0  0  0  0  0  0  0
   11.9925  -17.7828   25.9731 C   0  0  0  0  0  0  0  0  0  0  0  0
   12.2329  -18.3721   24.6628 C   0  0  0  0  0  0  0  0  0  0  0  0
   11.7433  -18.0192   23.4254 C   0  0  0  0  0  0  0  0  0  0  0  0
   12.2196  -18.8511   22.4830 N   0  0  0  0  0  0  0  0  0  0  0  0
   13.0172  -19.7430   23.1048 C   0  0  0  0  0  0  0  0  0  0  0  0
   13.0243  -19.4548   24.4116 N   0  0  0  0  0  0  0  0  0  0  0  0
   10.2696  -16.9125   27.5739 C   0  0  0  0  0  0  0  0  0  0  0  0
   10.3977  -17.8740   28.5568 O   0  0  0  0  0  0  0  0  0  0  0  0
    9.8747  -15.7820   27.9371 O   0  0  0  0  0  0  0  0  0  0  0  0
  2  1  1  1
  2  3  1  0
  4  6  1  0
  4  2  1  0
  4  5  1  6
  6  7  2  0
  9  8  1  0
 10  9  1  0
 11 10  1  0
 12 11  1  1
 13  6  1  0
 13 12  1  0
 14 15  2  0
 14 12  1  0
 16 14  1  0
 17 16  1  0
 18 19  1  0
 17 18  1  1
 19 20  2  0
 21 20  1  0
 22 21  1  0
 23 22  2  0
 23 19  1  0
 24 17  1  0
 24 25  1  0
 26 24  2  0
M  END
$$$$
