ENF.pdb
     RDKit          3D

 29 29  0  0  1  0  0  0  0  0999 V2000
    8.1455  -13.1478   18.8009 N   0  0  0  0  0  0  0  0  0  0  0  0
    8.7669  -14.1628   19.5929 C   0  0  1  0  0  0  0  0  0  0  0  0
   10.1867  -13.7013   19.8821 C   0  0  0  0  0  0  0  0  0  0  0  0
   11.0559  -14.3757   18.8364 C   0  0  0  0  0  0  0  0  0  0  0  0
   12.4948  -14.0981   19.0572 C   0  0  0  0  0  0  0  0  0  0  0  0
   13.3851  -14.5094   18.2767 O   0  0  0  0  0  0  0  0  0  0  0  0
    8.0274  -14.5253   20.8105 C   0  0  0  0  0  0  0  0  0  0  0  0
    7.2311  -13.7015   21.3328 O   0  0  0  0  0  0  0  0  0  0  0  0
   12.8471  -13.3606   20.1643 O   0  0  0  0  0  0  0  0  0  0  0  0
    5.5554  -16.6943   20.5775 N   0  0  0  0  0  0  0  0  0  0  0  0
    5.8596  -17.6557   21.5596 C   0  0  0  0  0  0  0  0  0  0  0  0
    5.2875  -18.7738   21.4784 O   0  0  0  0  0  0  0  0  0  0  0  0
    6.7965  -17.4612   22.6804 C   0  0  0  0  0  0  0  0  0  0  0  0
    7.4132  -16.0927   22.7069 C   0  0  2  0  0  0  0  0  0  0  0  0
    8.1277  -15.7710   21.4867 N   0  0  0  0  0  0  0  0  0  0  0  0
    8.4366  -16.1015   23.8042 C   0  0  0  0  0  0  0  0  0  0  0  0
    9.5783  -16.6138   23.6650 O   0  0  0  0  0  0  0  0  0  0  0  0
    8.1582  -15.5214   25.0729 N   0  0  0  0  0  0  0  0  0  0  0  0
    9.1406  -15.5209   26.1704 C   0  0  1  0  0  0  0  0  0  0  0  0
    8.9523  -14.3063   27.0168 C   0  0  0  0  0  0  0  0  0  0  0  0
    8.0009  -13.3869   26.3850 C   0  0  0  0  0  0  0  0  0  0  0  0
    8.3270  -12.5806   25.3063 C   0  0  0  0  0  0  0  0  0  0  0  0
    7.4189  -11.7230   24.7197 C   0  0  0  0  0  0  0  0  0  0  0  0
    6.1326  -11.6499   25.2100 C   0  0  0  0  0  0  0  0  0  0  0  0
    5.7968  -12.4495   26.2854 C   0  0  0  0  0  0  0  0  0  0  0  0
    6.6923  -13.3064   26.8767 C   0  0  0  0  0  0  0  0  0  0  0  0
    9.0290  -16.8035   26.8647 C   0  0  0  0  0  0  0  0  0  0  0  0
    9.8040  -17.0933   27.8236 O   0  0  0  0  0  0  0  0  0  0  0  0
    8.0969  -17.7704   26.5400 O   0  0  0  0  0  0  0  0  0  0  0  0
  2  1  1  1
  3  4  1  0
  3  2  1  0
  5  4  1  0
  6  5  2  0
  7  2  1  0
  7  8  2  0
  9  5  1  0
 11 10  1  0
 12 11  2  0
 14 13  1  6
 13 11  1  0
 14 15  1  0
 15  7  1  0
 16 14  1  0
 17 16  2  0
 18 16  1  0
 19 27  1  0
 19 18  1  0
 20 21  1  0
 19 20  1  1
 21 22  2  0
 22 23  1  0
 24 23  2  0
 25 24  1  0
 26 21  1  0
 26 25  2  0
 27 29  1  0
 28 27  2  0
M  END
$$$$
