ENF.pdb
     RDKit          3D

 29 29  0  0  1  0  0  0  0  0999 V2000
   10.1923  -18.3065   18.8026 N   0  0  0  0  0  0  0  0  0  0  0  0
    9.7847  -18.0859   20.1549 C   0  0  1  0  0  0  0  0  0  0  0  0
   10.5461  -19.0767   21.0215 C   0  0  0  0  0  0  0  0  0  0  0  0
   10.8531  -20.2571   20.1180 C   0  0  0  0  0  0  0  0  0  0  0  0
   10.1361  -21.4799   20.5505 C   0  0  0  0  0  0  0  0  0  0  0  0
    9.9693  -21.7681   21.7587 O   0  0  0  0  0  0  0  0  0  0  0  0
    9.9285  -16.6980   20.6172 C   0  0  0  0  0  0  0  0  0  0  0  0
   11.0583  -16.1423   20.6010 O   0  0  0  0  0  0  0  0  0  0  0  0
    9.6428  -22.3171   19.5761 O   0  0  0  0  0  0  0  0  0  0  0  0
    8.0049  -12.4158   18.7102 N   0  0  0  0  0  0  0  0  0  0  0  0
    7.7410  -13.5687   19.4735 C   0  0  0  0  0  0  0  0  0  0  0  0
    7.3961  -14.6102   18.8570 O   0  0  0  0  0  0  0  0  0  0  0  0
    7.8352  -13.6580   20.9415 C   0  0  0  0  0  0  0  0  0  0  0  0
    9.0040  -14.4744   21.4120 C   0  0  2  0  0  0  0  0  0  0  0  0
    8.8692  -15.8848   21.1028 N   0  0  0  0  0  0  0  0  0  0  0  0
    9.0278  -14.3719   22.9087 C   0  0  0  0  0  0  0  0  0  0  0  0
    9.1617  -13.2754   23.5130 O   0  0  0  0  0  0  0  0  0  0  0  0
    8.8978  -15.5286   23.7264 N   0  0  0  0  0  0  0  0  0  0  0  0
    8.8728  -15.4535   25.1973 C   0  0  1  0  0  0  0  0  0  0  0  0
    7.4642  -15.3225   25.6728 C   0  0  0  0  0  0  0  0  0  0  0  0
    7.1642  -13.9252   25.9997 C   0  0  0  0  0  0  0  0  0  0  0  0
    5.8928  -13.3814   25.9122 C   0  0  0  0  0  0  0  0  0  0  0  0
    5.6255  -12.0649   26.2275 C   0  0  0  0  0  0  0  0  0  0  0  0
    6.6481  -11.2415   26.6477 C   0  0  0  0  0  0  0  0  0  0  0  0
    7.9200  -11.7734   26.7383 C   0  0  0  0  0  0  0  0  0  0  0  0
    8.1972  -13.0819   26.4272 C   0  0  0  0  0  0  0  0  0  0  0  0
    9.6132  -16.6054   25.7117 C   0  0  0  0  0  0  0  0  0  0  0  0
    9.9738  -17.5434   24.9410 O   0  0  0  0  0  0  0  0  0  0  0  0
    9.9680  -16.7560   27.0386 O   0  0  0  0  0  0  0  0  0  0  0  0
  2  1  1  6
  3  4  1  0
  3  2  1  0
  5  4  1  0
  6  5  2  0
  7  2  1  0
  7  8  2  0
  9  5  1  0
 11 10  1  0
 12 11  2  0
 14 13  1  1
 13 11  1  0
 14 15  1  0
 15  7  1  0
 16 14  1  0
 17 16  2  0
 18 16  1  0
 19 27  1  0
 19 18  1  0
 20 21  1  0
 19 20  1  1
 21 22  2  0
 22 23  1  0
 24 23  2  0
 25 24  1  0
 26 21  1  0
 26 25  2  0
 27 29  1  0
 28 27  2  0
M  END
$$$$
