ENF.pdb
     RDKit          3D

 29 29  0  0  1  0  0  0  0  0999 V2000
   11.1142  -18.4917   16.5180 N   0  0  0  0  0  0  0  0  0  0  0  0
   10.4931  -17.4981   17.3369 C   0  0  1  0  0  0  0  0  0  0  0  0
    9.2036  -17.0862   16.6441 C   0  0  0  0  0  0  0  0  0  0  0  0
    9.6258  -16.1820   15.5004 C   0  0  0  0  0  0  0  0  0  0  0  0
    8.4584  -15.6830   14.7359 C   0  0  0  0  0  0  0  0  0  0  0  0
    7.8436  -14.6386   15.0556 O   0  0  0  0  0  0  0  0  0  0  0  0
   10.2838  -17.9025   18.7345 C   0  0  0  0  0  0  0  0  0  0  0  0
    9.4340  -18.7889   19.0135 O   0  0  0  0  0  0  0  0  0  0  0  0
    8.0492  -16.4055   13.6386 O   0  0  0  0  0  0  0  0  0  0  0  0
   11.1577  -19.9341   23.6798 N   0  0  0  0  0  0  0  0  0  0  0  0
   11.8691  -18.8080   23.2247 C   0  0  0  0  0  0  0  0  0  0  0  0
   12.4129  -18.0730   24.0895 O   0  0  0  0  0  0  0  0  0  0  0  0
   12.0310  -18.4162   21.8133 C   0  0  0  0  0  0  0  0  0  0  0  0
   10.7895  -17.8176   21.2180 C   0  0  2  0  0  0  0  0  0  0  0  0
   10.9780  -17.3669   19.8527 N   0  0  0  0  0  0  0  0  0  0  0  0
   10.4704  -16.5937   22.0252 C   0  0  0  0  0  0  0  0  0  0  0  0
   11.1861  -15.5580   22.0015 O   0  0  0  0  0  0  0  0  0  0  0  0
    9.3254  -16.5476   22.8681 N   0  0  0  0  0  0  0  0  0  0  0  0
    9.0526  -15.4099   23.7630 C   0  0  1  0  0  0  0  0  0  0  0  0
    7.7032  -14.8457   23.4663 C   0  0  0  0  0  0  0  0  0  0  0  0
    7.7349  -14.0773   22.2181 C   0  0  0  0  0  0  0  0  0  0  0  0
    7.1742  -14.5291   21.0343 C   0  0  0  0  0  0  0  0  0  0  0  0
    7.2086  -13.7921   19.8682 C   0  0  0  0  0  0  0  0  0  0  0  0
    7.8194  -12.5563   19.8584 C   0  0  0  0  0  0  0  0  0  0  0  0
    8.3819  -12.0962   21.0334 C   0  0  0  0  0  0  0  0  0  0  0  0
    8.3534  -12.8211   22.1994 C   0  0  0  0  0  0  0  0  0  0  0  0
    9.2629  -15.8671   25.1365 C   0  0  0  0  0  0  0  0  0  0  0  0
    9.4136  -17.0974   25.3962 O   0  0  0  0  0  0  0  0  0  0  0  0
    9.3134  -15.0185   26.2258 O   0  0  0  0  0  0  0  0  0  0  0  0
  2  1  1  6
  3  4  1  0
  3  2  1  0
  5  4  1  0
  6  5  2  0
  7  2  1  0
  7  8  2  0
  9  5  1  0
 11 10  1  0
 12 11  2  0
 14 13  1  1
 13 11  1  0
 14 15  1  0
 15  7  1  0
 16 14  1  0
 17 16  2  0
 18 16  1  0
 19 27  1  0
 19 18  1  0
 20 21  1  0
 19 20  1  1
 21 22  2  0
 22 23  1  0
 24 23  2  0
 25 24  1  0
 26 21  1  0
 26 25  2  0
 27 29  1  0
 28 27  2  0
M  END
$$$$
