ENF.pdb
     RDKit          3D

 29 29  0  0  1  0  0  0  0  0999 V2000
    9.5323  -13.0198   19.4370 N   0  0  0  0  0  0  0  0  0  0  0  0
    8.1676  -13.4261   19.5633 C   0  0  1  0  0  0  0  0  0  0  0  0
    7.6432  -13.6837   18.1593 C   0  0  0  0  0  0  0  0  0  0  0  0
    8.8360  -14.1807   17.3630 C   0  0  0  0  0  0  0  0  0  0  0  0
    8.4694  -14.4892   15.9607 C   0  0  0  0  0  0  0  0  0  0  0  0
    8.4308  -13.6101   15.0682 O   0  0  0  0  0  0  0  0  0  0  0  0
    7.9505  -14.5633   20.4691 C   0  0  0  0  0  0  0  0  0  0  0  0
    6.7915  -15.0287   20.6296 O   0  0  0  0  0  0  0  0  0  0  0  0
    8.1634  -15.7934   15.6459 O   0  0  0  0  0  0  0  0  0  0  0  0
    8.3391  -18.8984   19.9850 N   0  0  0  0  0  0  0  0  0  0  0  0
    9.4303  -18.0872   20.3490 C   0  0  0  0  0  0  0  0  0  0  0  0
   10.2764  -17.8134   19.4585 O   0  0  0  0  0  0  0  0  0  0  0  0
    9.6657  -17.5291   21.6925 C   0  0  0  0  0  0  0  0  0  0  0  0
    8.7430  -16.3950   22.0334 C   0  0  2  0  0  0  0  0  0  0  0  0
    8.9667  -15.2188   21.2153 N   0  0  0  0  0  0  0  0  0  0  0  0
    9.0567  -15.9923   23.4443 C   0  0  0  0  0  0  0  0  0  0  0  0
   10.1079  -15.3737   23.7571 O   0  0  0  0  0  0  0  0  0  0  0  0
    8.1655  -16.2965   24.5106 N   0  0  0  0  0  0  0  0  0  0  0  0
    8.4352  -15.8922   25.9011 C   0  0  1  0  0  0  0  0  0  0  0  0
    7.1737  -15.4204   26.5439 C   0  0  0  0  0  0  0  0  0  0  0  0
    6.9576  -13.9983   26.2600 C   0  0  0  0  0  0  0  0  0  0  0  0
    5.7264  -13.4751   25.8990 C   0  0  0  0  0  0  0  0  0  0  0  0
    5.5379  -12.1332   25.6389 C   0  0  0  0  0  0  0  0  0  0  0  0
    6.6019  -11.2621   25.7359 C   0  0  0  0  0  0  0  0  0  0  0  0
    7.8342  -11.7732   26.0950 C   0  0  0  0  0  0  0  0  0  0  0  0
    8.0330  -13.1066   26.3561 C   0  0  0  0  0  0  0  0  0  0  0  0
    9.1077  -17.0093   26.5640 C   0  0  0  0  0  0  0  0  0  0  0  0
    9.5374  -16.8978   27.7502 O   0  0  0  0  0  0  0  0  0  0  0  0
    9.3199  -18.2373   25.9673 O   0  0  0  0  0  0  0  0  0  0  0  0
  2  1  1  6
  3  4  1  0
  3  2  1  0
  5  4  1  0
  6  5  2  0
  7  2  1  0
  7  8  2  0
  9  5  1  0
 11 10  1  0
 12 11  2  0
 14 13  1  6
 13 11  1  0
 14 15  1  0
 15  7  1  0
 16 14  1  0
 17 16  2  0
 18 16  1  0
 19 27  1  0
 19 18  1  0
 20 21  1  0
 19 20  1  1
 21 22  2  0
 22 23  1  0
 24 23  2  0
 25 24  1  0
 26 21  1  0
 26 25  2  0
 27 29  1  0
 28 27  2  0
M  END
$$$$
