ENF.pdb
     RDKit          3D

 29 29  0  0  1  0  0  0  0  0999 V2000
    8.1560  -16.6101   19.4525 N   0  0  0  0  0  0  0  0  0  0  0  0
    8.9520  -17.1644   20.5027 C   0  0  1  0  0  0  0  0  0  0  0  0
   10.3183  -16.5010   20.4292 C   0  0  0  0  0  0  0  0  0  0  0  0
   11.1245  -17.3347   19.4500 C   0  0  0  0  0  0  0  0  0  0  0  0
   12.5304  -16.8739   19.3648 C   0  0  0  0  0  0  0  0  0  0  0  0
   13.3536  -17.0556   20.2922 O   0  0  0  0  0  0  0  0  0  0  0  0
    8.3472  -17.0747   21.8394 C   0  0  0  0  0  0  0  0  0  0  0  0
    7.5551  -16.1342   22.1108 O   0  0  0  0  0  0  0  0  0  0  0  0
   12.9283  -16.2249   18.2184 O   0  0  0  0  0  0  0  0  0  0  0  0
    6.0811  -18.2288   26.5138 N   0  0  0  0  0  0  0  0  0  0  0  0
    6.9812  -19.2250   26.0912 C   0  0  0  0  0  0  0  0  0  0  0  0
    7.2568  -20.1452   26.9043 O   0  0  0  0  0  0  0  0  0  0  0  0
    7.6309  -19.2805   24.7696 C   0  0  0  0  0  0  0  0  0  0  0  0
    7.9083  -17.9245   24.1879 C   0  0  2  0  0  0  0  0  0  0  0  0
    8.5793  -17.9869   22.9039 N   0  0  0  0  0  0  0  0  0  0  0  0
    8.8571  -17.2382   25.1260 C   0  0  0  0  0  0  0  0  0  0  0  0
   10.1066  -17.3740   25.0491 O   0  0  0  0  0  0  0  0  0  0  0  0
    8.3797  -16.3886   26.1623 N   0  0  0  0  0  0  0  0  0  0  0  0
    9.2865  -15.7119   27.1053 C   0  0  1  0  0  0  0  0  0  0  0  0
    8.5466  -14.6445   27.8404 C   0  0  0  0  0  0  0  0  0  0  0  0
    7.8397  -13.7722   26.8975 C   0  0  0  0  0  0  0  0  0  0  0  0
    6.4640  -13.6069   26.9019 C   0  0  0  0  0  0  0  0  0  0  0  0
    5.8133  -12.7788   26.0103 C   0  0  0  0  0  0  0  0  0  0  0  0
    6.5408  -12.0799   25.0708 C   0  0  0  0  0  0  0  0  0  0  0  0
    7.9133  -12.2375   25.0575 C   0  0  0  0  0  0  0  0  0  0  0  0
    8.5709  -13.0587   25.9400 C   0  0  0  0  0  0  0  0  0  0  0  0
    9.9093  -16.7419   27.9365 C   0  0  0  0  0  0  0  0  0  0  0  0
   10.7682  -16.4363   28.8157 O   0  0  0  0  0  0  0  0  0  0  0  0
    9.6179  -18.0885   27.8323 O   0  0  0  0  0  0  0  0  0  0  0  0
  2  1  1  6
  3  4  1  0
  3  2  1  0
  5  4  1  0
  6  5  2  0
  7  2  1  0
  7  8  2  0
  9  5  1  0
 11 10  1  0
 12 11  2  0
 14 13  1  1
 13 11  1  0
 14 15  1  0
 15  7  1  0
 16 14  1  0
 17 16  2  0
 18 16  1  0
 19 27  1  0
 19 18  1  0
 20 21  1  0
 19 20  1  1
 21 22  2  0
 22 23  1  0
 24 23  2  0
 25 24  1  0
 26 21  1  0
 26 25  2  0
 27 29  1  0
 28 27  2  0
M  END
$$$$
