ENF.pdb
     RDKit          3D

 29 29  0  0  1  0  0  0  0  0999 V2000
    6.1419  -17.4614   20.0549 N   0  0  0  0  0  0  0  0  0  0  0  0
    7.1496  -16.9116   20.9070 C   0  0  1  0  0  0  0  0  0  0  0  0
    7.3456  -15.4614   20.4940 C   0  0  0  0  0  0  0  0  0  0  0  0
    8.2027  -15.5059   19.2420 C   0  0  0  0  0  0  0  0  0  0  0  0
    8.4467  -14.1501   18.6957 C   0  0  0  0  0  0  0  0  0  0  0  0
    8.0350  -13.1127   19.2660 O   0  0  0  0  0  0  0  0  0  0  0  0
    6.8824  -17.0626   22.3445 C   0  0  0  0  0  0  0  0  0  0  0  0
    5.7483  -16.7728   22.8085 O   0  0  0  0  0  0  0  0  0  0  0  0
    9.1525  -14.0461   17.5190 O   0  0  0  0  0  0  0  0  0  0  0  0
    6.9934  -20.8747   23.5696 N   0  0  0  0  0  0  0  0  0  0  0  0
    6.6690  -19.9471   24.5774 C   0  0  0  0  0  0  0  0  0  0  0  0
    5.4683  -19.8860   24.9494 O   0  0  0  0  0  0  0  0  0  0  0  0
    7.6228  -19.0371   25.2362 C   0  0  0  0  0  0  0  0  0  0  0  0
    7.5464  -17.6273   24.7259 C   0  0  2  0  0  0  0  0  0  0  0  0
    7.8214  -17.5246   23.3058 N   0  0  0  0  0  0  0  0  0  0  0  0
    8.6300  -16.8571   25.4214 C   0  0  0  0  0  0  0  0  0  0  0  0
    9.8222  -16.8441   25.0164 O   0  0  0  0  0  0  0  0  0  0  0  0
    8.3546  -16.0936   26.5897 N   0  0  0  0  0  0  0  0  0  0  0  0
    9.4066  -15.3660   27.3202 C   0  0  1  0  0  0  0  0  0  0  0  0
    8.8324  -14.1368   27.9419 C   0  0  0  0  0  0  0  0  0  0  0  0
    8.0583  -13.3794   26.9536 C   0  0  0  0  0  0  0  0  0  0  0  0
    6.6976  -13.1463   27.0722 C   0  0  0  0  0  0  0  0  0  0  0  0
    5.9835  -12.4277   26.1353 C   0  0  0  0  0  0  0  0  0  0  0  0
    6.6289  -11.9132   25.0312 C   0  0  0  0  0  0  0  0  0  0  0  0
    7.9857  -12.1399   24.9030 C   0  0  0  0  0  0  0  0  0  0  0  0
    8.7061  -12.8533   25.8291 C   0  0  0  0  0  0  0  0  0  0  0  0
   10.0383  -16.3095   28.2423 C   0  0  0  0  0  0  0  0  0  0  0  0
    9.5173  -17.4405   28.4733 O   0  0  0  0  0  0  0  0  0  0  0  0
   11.2181  -16.0498   28.9130 O   0  0  0  0  0  0  0  0  0  0  0  0
  2  1  1  6
  3  4  1  0
  3  2  1  0
  5  4  1  0
  6  5  2  0
  7  2  1  0
  7  8  2  0
  9  5  1  0
 11 10  1  0
 12 11  2  0
 14 13  1  1
 13 11  1  0
 14 15  1  0
 15  7  1  0
 16 14  1  0
 17 16  2  0
 18 16  1  0
 19 27  1  0
 19 18  1  0
 20 21  1  0
 19 20  1  1
 21 22  2  0
 22 23  1  0
 24 23  2  0
 25 24  1  0
 26 21  1  0
 26 25  2  0
 27 29  1  0
 28 27  2  0
M  END
$$$$
