ENF.pdb
     RDKit          3D

 29 29  0  0  1  0  0  0  0  0999 V2000
    7.4295  -19.3005   20.5993 N   0  0  0  0  0  0  0  0  0  0  0  0
    6.9418  -18.2013   21.3724 C   0  0  1  0  0  0  0  0  0  0  0  0
    6.3860  -18.7735   22.6670 C   0  0  0  0  0  0  0  0  0  0  0  0
    7.2328  -19.9963   22.9693 C   0  0  0  0  0  0  0  0  0  0  0  0
    6.8272  -20.6442   24.2389 C   0  0  0  0  0  0  0  0  0  0  0  0
    7.5016  -20.5414   25.2903 O   0  0  0  0  0  0  0  0  0  0  0  0
    7.9236  -17.1309   21.5987 C   0  0  0  0  0  0  0  0  0  0  0  0
    9.1364  -17.4165   21.7808 O   0  0  0  0  0  0  0  0  0  0  0  0
    5.6651  -21.3813   24.2445 O   0  0  0  0  0  0  0  0  0  0  0  0
    6.8448  -12.7746   19.1800 N   0  0  0  0  0  0  0  0  0  0  0  0
    7.9406  -13.3743   19.8288 C   0  0  0  0  0  0  0  0  0  0  0  0
    8.7916  -13.9633   19.1128 O   0  0  0  0  0  0  0  0  0  0  0  0
    8.1754  -13.3700   21.2837 C   0  0  0  0  0  0  0  0  0  0  0  0
    8.6179  -14.7018   21.8169 C   0  0  2  0  0  0  0  0  0  0  0  0
    7.6246  -15.7422   21.6339 N   0  0  0  0  0  0  0  0  0  0  0  0
    8.7888  -14.5386   23.2985 C   0  0  0  0  0  0  0  0  0  0  0  0
    8.3708  -13.5289   23.9240 O   0  0  0  0  0  0  0  0  0  0  0  0
    9.4419  -15.5343   24.0768 N   0  0  0  0  0  0  0  0  0  0  0  0
    9.4180  -15.5228   25.5496 C   0  0  1  0  0  0  0  0  0  0  0  0
    8.0067  -15.4680   26.0317 C   0  0  0  0  0  0  0  0  0  0  0  0
    7.6299  -14.0875   26.3507 C   0  0  0  0  0  0  0  0  0  0  0  0
    6.3926  -13.5473   26.0392 C   0  0  0  0  0  0  0  0  0  0  0  0
    6.0513  -12.2469   26.3498 C   0  0  0  0  0  0  0  0  0  0  0  0
    6.9614  -11.4367   26.9945 C   0  0  0  0  0  0  0  0  0  0  0  0
    8.1983  -11.9652   27.3096 C   0  0  0  0  0  0  0  0  0  0  0  0
    8.5484  -13.2577   27.0054 C   0  0  0  0  0  0  0  0  0  0  0  0
   10.2048  -16.6653   26.0137 C   0  0  0  0  0  0  0  0  0  0  0  0
   10.4633  -17.6339   25.2398 O   0  0  0  0  0  0  0  0  0  0  0  0
   10.7137  -16.7741   27.2936 O   0  0  0  0  0  0  0  0  0  0  0  0
  2  1  1  1
  3  4  1  0
  3  2  1  0
  5  4  1  0
  6  5  2  0
  7  2  1  0
  7  8  2  0
  9  5  1  0
 11 10  1  0
 12 11  2  0
 14 13  1  1
 13 11  1  0
 14 15  1  0
 15  7  1  0
 16 14  1  0
 17 16  2  0
 18 16  1  0
 19 27  1  0
 19 18  1  0
 20 21  1  0
 19 20  1  6
 21 22  2  0
 22 23  1  0
 24 23  2  0
 25 24  1  0
 26 21  1  0
 26 25  2  0
 27 29  1  0
 28 27  2  0
M  END
$$$$
