ENF.pdb
     RDKit          3D

 29 29  0  0  1  0  0  0  0  0999 V2000
    7.9642  -18.2310   20.7352 N   0  0  0  0  0  0  0  0  0  0  0  0
    9.1541  -19.0067   20.8969 C   0  0  1  0  0  0  0  0  0  0  0  0
    9.5349  -19.5377   19.5238 C   0  0  0  0  0  0  0  0  0  0  0  0
    8.2271  -19.9308   18.8613 C   0  0  0  0  0  0  0  0  0  0  0  0
    8.4462  -20.5038   17.5122 C   0  0  0  0  0  0  0  0  0  0  0  0
    7.7913  -20.1315   16.5105 O   0  0  0  0  0  0  0  0  0  0  0  0
   10.2589  -18.2988   21.5596 C   0  0  0  0  0  0  0  0  0  0  0  0
   11.3774  -18.8615   21.6935 O   0  0  0  0  0  0  0  0  0  0  0  0
    9.4074  -21.4787   17.3737 O   0  0  0  0  0  0  0  0  0  0  0  0
   12.6735  -16.2810   20.1957 N   0  0  0  0  0  0  0  0  0  0  0  0
   12.2597  -15.0797   20.8015 C   0  0  0  0  0  0  0  0  0  0  0  0
   12.4651  -14.0087   20.1734 O   0  0  0  0  0  0  0  0  0  0  0  0
   11.6027  -14.9711   22.1162 C   0  0  0  0  0  0  0  0  0  0  0  0
   11.2911  -16.3030   22.7351 C   0  0  2  0  0  0  0  0  0  0  0  0
   10.1850  -16.9819   22.0881 N   0  0  0  0  0  0  0  0  0  0  0  0
   10.8527  -16.0323   24.1442 C   0  0  0  0  0  0  0  0  0  0  0  0
   11.5955  -15.4699   24.9912 O   0  0  0  0  0  0  0  0  0  0  0  0
    9.5559  -16.4053   24.5946 N   0  0  0  0  0  0  0  0  0  0  0  0
    9.1320  -16.2405   25.9956 C   0  0  1  0  0  0  0  0  0  0  0  0
    7.6859  -15.8752   26.0465 C   0  0  0  0  0  0  0  0  0  0  0  0
    7.5312  -14.4239   26.1857 C   0  0  0  0  0  0  0  0  0  0  0  0
    6.8327  -13.6446   25.2775 C   0  0  0  0  0  0  0  0  0  0  0  0
    6.6923  -12.2798   25.4245 C   0  0  0  0  0  0  0  0  0  0  0  0
    7.2609  -11.6471   26.5092 C   0  0  0  0  0  0  0  0  0  0  0  0
    7.9598  -12.4146   27.4209 C   0  0  0  0  0  0  0  0  0  0  0  0
    8.1056  -13.7732   27.2845 C   0  0  0  0  0  0  0  0  0  0  0  0
    9.5066  -17.4566   26.7171 C   0  0  0  0  0  0  0  0  0  0  0  0
    9.4331  -17.5118   27.9802 O   0  0  0  0  0  0  0  0  0  0  0  0
    9.9555  -18.6066   26.0965 O   0  0  0  0  0  0  0  0  0  0  0  0
  2  1  1  6
  3  4  1  0
  3  2  1  0
  5  4  1  0
  6  5  2  0
  7  2  1  0
  7  8  2  0
  9  5  1  0
 11 10  1  0
 12 11  2  0
 14 13  1  6
 13 11  1  0
 14 15  1  0
 15  7  1  0
 16 14  1  0
 17 16  2  0
 18 16  1  0
 19 27  1  0
 19 18  1  0
 20 21  1  0
 19 20  1  6
 21 22  2  0
 22 23  1  0
 24 23  2  0
 25 24  1  0
 26 21  1  0
 26 25  2  0
 27 29  1  0
 28 27  2  0
M  END
$$$$
