ENF.pdb
     RDKit          3D

 29 29  0  0  1  0  0  0  0  0999 V2000
    9.2010  -12.8557   19.6133 N   0  0  0  0  0  0  0  0  0  0  0  0
    7.9806  -13.5932   19.7162 C   0  0  1  0  0  0  0  0  0  0  0  0
    7.5004  -13.8680   18.2998 C   0  0  0  0  0  0  0  0  0  0  0  0
    8.7413  -13.8014   17.4281 C   0  0  0  0  0  0  0  0  0  0  0  0
    8.4307  -14.0926   16.0086 C   0  0  0  0  0  0  0  0  0  0  0  0
    7.2639  -14.0454   15.5535 O   0  0  0  0  0  0  0  0  0  0  0  0
    8.0710  -14.8121   20.5327 C   0  0  0  0  0  0  0  0  0  0  0  0
    7.0722  -15.5706   20.6453 O   0  0  0  0  0  0  0  0  0  0  0  0
    9.4740  -14.4249   15.1750 O   0  0  0  0  0  0  0  0  0  0  0  0
    9.3770  -17.7623   19.4883 N   0  0  0  0  0  0  0  0  0  0  0  0
   10.4348  -17.8996   20.4067 C   0  0  0  0  0  0  0  0  0  0  0  0
   11.4233  -18.5963   20.0582 O   0  0  0  0  0  0  0  0  0  0  0  0
   10.4814  -17.2927   21.7489 C   0  0  0  0  0  0  0  0  0  0  0  0
    9.2868  -16.4362   22.0541 C   0  0  2  0  0  0  0  0  0  0  0  0
    9.2277  -15.2378   21.2398 N   0  0  0  0  0  0  0  0  0  0  0  0
    9.4383  -15.9739   23.4734 C   0  0  0  0  0  0  0  0  0  0  0  0
   10.3151  -15.1427   23.8278 O   0  0  0  0  0  0  0  0  0  0  0  0
    8.5834  -16.4622   24.5003 N   0  0  0  0  0  0  0  0  0  0  0  0
    8.7605  -16.0903   25.9145 C   0  0  1  0  0  0  0  0  0  0  0  0
    7.4522  -15.6651   26.4930 C   0  0  0  0  0  0  0  0  0  0  0  0
    7.2934  -14.2119   26.3813 C   0  0  0  0  0  0  0  0  0  0  0  0
    6.1630  -13.6105   25.8518 C   0  0  0  0  0  0  0  0  0  0  0  0
    6.0266  -12.2406   25.7572 C   0  0  0  0  0  0  0  0  0  0  0  0
    7.0421  -11.4204   26.2003 C   0  0  0  0  0  0  0  0  0  0  0  0
    8.1739  -12.0096   26.7299 C   0  0  0  0  0  0  0  0  0  0  0  0
    8.3201  -13.3714   26.8289 C   0  0  0  0  0  0  0  0  0  0  0  0
    9.4196  -17.2097   26.5870 C   0  0  0  0  0  0  0  0  0  0  0  0
    9.7676  -17.1244   27.8017 O   0  0  0  0  0  0  0  0  0  0  0  0
    9.7048  -18.4123   25.9694 O   0  0  0  0  0  0  0  0  0  0  0  0
  2  1  1  6
  3  4  1  0
  3  2  1  0
  5  4  1  0
  6  5  2  0
  7  2  1  0
  7  8  2  0
  9  5  1  0
 11 10  1  0
 12 11  2  0
 14 13  1  6
 13 11  1  0
 14 15  1  0
 15  7  1  0
 16 14  1  0
 17 16  2  0
 18 16  1  0
 19 27  1  0
 19 18  1  0
 20 21  1  0
 19 20  1  1
 21 22  2  0
 22 23  1  0
 24 23  2  0
 25 24  1  0
 26 21  1  0
 26 25  2  0
 27 29  1  0
 28 27  2  0
M  END
$$$$
