ISL.pdb
     RDKit          3D

 23 22  0  0  1  0  0  0  0  0999 V2000
   22.6488  -20.5332   -7.8931 C   0  0  0  0  0  0  0  0  0  0  0  0
   24.0712  -20.8797   -8.3078 C   0  0  0  0  0  0  0  0  0  0  0  0
   24.3504  -20.4671   -9.7233 C   0  0  2  0  0  0  0  0  0  0  0  0
   23.3205  -21.0583  -10.6635 C   0  0  0  0  0  0  0  0  0  0  0  0
   25.7536  -20.7669  -10.1561 C   0  0  2  0  0  0  0  0  0  0  0  0
   26.6858  -20.1806   -9.2111 N   0  0  0  0  0  0  0  0  0  0  0  0
   26.0409  -20.2939  -11.5462 C   0  0  0  0  0  0  0  0  0  0  0  0
   26.1298  -19.0762  -11.8425 O   0  0  0  0  0  0  0  0  0  0  0  0
   27.7606  -21.3422  -15.8681 O   0  0  0  0  0  0  0  0  0  0  0  0
   27.4289  -21.7619  -14.5933 C   0  0  0  0  0  0  0  0  0  0  0  0
   26.5038  -20.7427  -13.9637 C   0  0  2  0  0  0  0  0  0  0  0  0
   26.2317  -21.2089  -12.6199 N   0  0  0  0  0  0  0  0  0  0  0  0
   25.2462  -20.5918  -14.6900 C   0  0  0  0  0  0  0  0  0  0  0  0
   24.3154  -21.3979  -14.4648 O   0  0  0  0  0  0  0  0  0  0  0  0
   21.6326  -16.4087  -16.5845 C   0  0  0  0  0  0  0  0  0  0  0  0
   21.9393  -17.8903  -16.8810 C   0  0  2  0  0  0  0  0  0  0  0  0
   20.7621  -18.6437  -16.2685 C   0  0  0  0  0  0  0  0  0  0  0  0
   23.1950  -18.2059  -16.1595 C   0  0  0  0  0  0  0  0  0  0  0  0
   23.8416  -19.5087  -16.4335 C   0  0  2  0  0  0  0  0  0  0  0  0
   25.0687  -19.5672  -15.6264 N   0  0  0  0  0  0  0  0  0  0  0  0
   24.1993  -19.8031  -17.8195 C   0  0  0  0  0  0  0  0  0  0  0  0
   23.4050  -20.3920  -18.5781 O   0  0  0  0  0  0  0  0  0  0  0  0
   25.4326  -19.4308  -18.3174 O   0  0  0  0  0  0  0  0  0  0  0  0
  2  1  1  0
  3  2  1  0
  3  4  1  6
  5  3  1  0
  5  6  1  1
  7  5  1  0
  7  8  2  0
  9 10  1  0
 11 10  1  6
 12 11  1  0
 12  7  1  0
 13 14  2  0
 13 11  1  0
 16 17  1  1
 16 15  1  0
 18 16  1  0
 19 20  1  0
 19 18  1  6
 20 13  1  0
 21 19  1  0
 22 21  2  0
 23 21  1  0
M  END
$$$$
