ISL.pdb
     RDKit          3D

 23 22  0  0  1  0  0  0  0  0999 V2000
   16.2152  -15.3468  -17.3293 C   0  0  0  0  0  0  0  0  0  0  0  0
   16.4558  -14.5251  -18.5871 C   0  0  0  0  0  0  0  0  0  0  0  0
   17.3295  -13.3364  -18.3123 C   0  0  2  0  0  0  0  0  0  0  0  0
   16.7409  -12.4875  -17.2044 C   0  0  0  0  0  0  0  0  0  0  0  0
   17.6341  -12.5351  -19.5415 C   0  0  2  0  0  0  0  0  0  0  0  0
   18.1511  -13.4135  -20.5744 N   0  0  0  0  0  0  0  0  0  0  0  0
   18.5865  -11.4122  -19.2756 C   0  0  0  0  0  0  0  0  0  0  0  0
   19.8083  -11.5994  -19.0507 O   0  0  0  0  0  0  0  0  0  0  0  0
   17.2871   -7.4532  -18.7736 O   0  0  0  0  0  0  0  0  0  0  0  0
   18.4347   -7.7109  -19.5001 C   0  0  0  0  0  0  0  0  0  0  0  0
   19.0766   -8.9772  -18.9753 C   0  0  2  0  0  0  0  0  0  0  0  0
   18.1545  -10.0558  -19.2638 N   0  0  0  0  0  0  0  0  0  0  0  0
   19.3354   -8.9298  -17.5391 C   0  0  0  0  0  0  0  0  0  0  0  0
   18.4547   -9.3413  -16.7504 O   0  0  0  0  0  0  0  0  0  0  0  0
   23.7247  -10.0490  -13.9040 C   0  0  0  0  0  0  0  0  0  0  0  0
   22.4384   -9.1994  -13.8817 C   0  0  2  0  0  0  0  0  0  0  0  0
   21.5317   -9.9232  -12.8903 C   0  0  0  0  0  0  0  0  0  0  0  0
   21.8744   -9.2653  -15.2509 C   0  0  0  0  0  0  0  0  0  0  0  0
   20.7608   -8.3496  -15.5852 C   0  0  2  0  0  0  0  0  0  0  0  0
   20.5440   -8.4349  -17.0366 N   0  0  0  0  0  0  0  0  0  0  0  0
   20.9219   -6.9399  -15.2356 C   0  0  0  0  0  0  0  0  0  0  0  0
   21.3117   -6.1083  -16.0781 O   0  0  0  0  0  0  0  0  0  0  0  0
   20.6426   -6.5005  -13.9564 O   0  0  0  0  0  0  0  0  0  0  0  0
  2  1  1  0
  3  2  1  0
  3  4  1  1
  5  3  1  0
  5  6  1  6
  7  5  1  0
  7  8  2  0
  9 10  1  0
 11 10  1  1
 12 11  1  0
 12  7  1  0
 13 14  2  0
 13 11  1  0
 16 17  1  1
 16 15  1  0
 18 16  1  0
 19 20  1  0
 19 18  1  6
 20 13  1  0
 21 19  1  0
 22 21  2  0
 23 21  1  0
M  END
$$$$
