ISL.pdb
     RDKit          3D

 23 22  0  0  1  0  0  0  0  0999 V2000
   26.6552  -20.1894   -7.4385 C   0  0  0  0  0  0  0  0  0  0  0  0
   26.0747  -21.0789   -8.5280 C   0  0  0  0  0  0  0  0  0  0  0  0
   25.9439  -20.3446   -9.8301 C   0  0  2  0  0  0  0  0  0  0  0  0
   25.0951  -19.1020   -9.6579 C   0  0  0  0  0  0  0  0  0  0  0  0
   25.4569  -21.2151  -10.9485 C   0  0  2  0  0  0  0  0  0  0  0  0
   26.2981  -22.3936  -11.0442 N   0  0  0  0  0  0  0  0  0  0  0  0
   25.4046  -20.4941  -12.2585 C   0  0  0  0  0  0  0  0  0  0  0  0
   24.6769  -19.4878  -12.4492 O   0  0  0  0  0  0  0  0  0  0  0  0
   27.5386  -21.9530  -15.3623 O   0  0  0  0  0  0  0  0  0  0  0  0
   27.4188  -20.5757  -15.3716 C   0  0  0  0  0  0  0  0  0  0  0  0
   26.1629  -20.1849  -14.6227 C   0  0  2  0  0  0  0  0  0  0  0  0
   26.1861  -20.9141  -13.3718 N   0  0  0  0  0  0  0  0  0  0  0  0
   24.9413  -20.5109  -15.3530 C   0  0  0  0  0  0  0  0  0  0  0  0
   24.3228  -21.5596  -15.0625 O   0  0  0  0  0  0  0  0  0  0  0  0
   20.8367  -19.8071  -15.2759 C   0  0  0  0  0  0  0  0  0  0  0  0
   21.7039  -18.5782  -15.6144 C   0  0  2  0  0  0  0  0  0  0  0  0
   20.7035  -17.4289  -15.6991 C   0  0  0  0  0  0  0  0  0  0  0  0
   22.3045  -18.8480  -16.9424 C   0  0  0  0  0  0  0  0  0  0  0  0
   23.2110  -20.0112  -17.0682 C   0  0  2  0  0  0  0  0  0  0  0  0
   24.4567  -19.6742  -16.3645 N   0  0  0  0  0  0  0  0  0  0  0  0
   23.5600  -20.4482  -18.4183 C   0  0  0  0  0  0  0  0  0  0  0  0
   22.7904  -21.1715  -19.0799 O   0  0  0  0  0  0  0  0  0  0  0  0
   24.7574  -20.0644  -18.9897 O   0  0  0  0  0  0  0  0  0  0  0  0
  2  1  1  0
  3  2  1  0
  3  4  1  1
  5  3  1  0
  5  6  1  6
  7  5  1  0
  7  8  2  0
  9 10  1  0
 11 10  1  6
 12 11  1  0
 12  7  1  0
 13 14  2  0
 13 11  1  0
 16 17  1  6
 16 15  1  0
 18 16  1  0
 19 20  1  0
 19 18  1  6
 20 13  1  0
 21 19  1  0
 22 21  2  0
 23 21  1  0
M  END
$$$$
