ISL.pdb
     RDKit          3D

 23 22  0  0  1  0  0  0  0  0999 V2000
   18.0307  -13.2277    3.1442 C   0  0  0  0  0  0  0  0  0  0  0  0
   17.2429  -14.4285    3.6468 C   0  0  0  0  0  0  0  0  0  0  0  0
   18.1382  -15.6005    3.9240 C   0  0  2  0  0  0  0  0  0  0  0  0
   18.9902  -15.9181    2.7126 C   0  0  0  0  0  0  0  0  0  0  0  0
   17.3951  -16.8008    4.4268 C   0  0  2  0  0  0  0  0  0  0  0  0
   16.5874  -16.4237    5.5718 N   0  0  0  0  0  0  0  0  0  0  0  0
   18.3041  -17.9382    4.7714 C   0  0  0  0  0  0  0  0  0  0  0  0
   19.0928  -18.4511    3.9388 O   0  0  0  0  0  0  0  0  0  0  0  0
   18.4538  -19.3550    8.6339 O   0  0  0  0  0  0  0  0  0  0  0  0
   19.6184  -19.3269    7.8894 C   0  0  0  0  0  0  0  0  0  0  0  0
   19.2761  -19.5391    6.4304 C   0  0  2  0  0  0  0  0  0  0  0  0
   18.3248  -18.5062    6.0766 N   0  0  0  0  0  0  0  0  0  0  0  0
   18.6896  -20.8504    6.1694 C   0  0  0  0  0  0  0  0  0  0  0  0
   17.4528  -20.9380    5.9968 O   0  0  0  0  0  0  0  0  0  0  0  0
   18.5859  -23.8035    2.8779 C   0  0  0  0  0  0  0  0  0  0  0  0
   19.9237  -23.5616    3.6050 C   0  0  2  0  0  0  0  0  0  0  0  0
   20.9256  -24.4175    2.8353 C   0  0  0  0  0  0  0  0  0  0  0  0
   19.7453  -24.0770    4.9833 C   0  0  0  0  0  0  0  0  0  0  0  0
   18.8641  -23.3165    5.8976 C   0  0  2  0  0  0  0  0  0  0  0  0
   19.4841  -22.0008    6.1100 N   0  0  0  0  0  0  0  0  0  0  0  0
   18.5895  -23.9022    7.2079 C   0  0  0  0  0  0  0  0  0  0  0  0
   19.1619  -23.4837    8.2328 O   0  0  0  0  0  0  0  0  0  0  0  0
   17.6839  -24.9372    7.3351 O   0  0  0  0  0  0  0  0  0  0  0  0
  2  1  1  0
  3  2  1  0
  3  4  1  6
  5  3  1  0
  5  6  1  1
  7  5  1  0
  7  8  2  0
  9 10  1  0
 11 10  1  1
 12 11  1  0
 12  7  1  0
 13 14  2  0
 13 11  1  0
 16 17  1  6
 16 15  1  0
 18 16  1  0
 19 20  1  0
 19 18  1  6
 20 13  1  0
 21 19  1  0
 22 21  2  0
 23 21  1  0
M  END
$$$$
