ISL.pdb
     RDKit          3D

 23 22  0  0  1  0  0  0  0  0999 V2000
   27.2762  -18.9892  -16.7939 C   0  0  0  0  0  0  0  0  0  0  0  0
   27.1764  -20.1010  -15.7599 C   0  0  0  0  0  0  0  0  0  0  0  0
   26.9248  -19.5560  -14.3846 C   0  0  2  0  0  0  0  0  0  0  0  0
   27.9296  -18.4735  -14.0485 C   0  0  0  0  0  0  0  0  0  0  0  0
   26.8645  -20.6218  -13.3328 C   0  0  2  0  0  0  0  0  0  0  0  0
   25.9444  -21.6625  -13.7525 N   0  0  0  0  0  0  0  0  0  0  0  0
   26.4799  -20.0849  -11.9902 C   0  0  0  0  0  0  0  0  0  0  0  0
   27.0386  -19.0841  -11.4757 O   0  0  0  0  0  0  0  0  0  0  0  0
   22.7845  -19.9407  -10.3556 O   0  0  0  0  0  0  0  0  0  0  0  0
   23.6945  -20.6726   -9.6158 C   0  0  0  0  0  0  0  0  0  0  0  0
   25.0903  -20.1674   -9.9113 C   0  0  2  0  0  0  0  0  0  0  0  0
   25.4479  -20.6857  -11.2153 N   0  0  0  0  0  0  0  0  0  0  0  0
   26.0742  -20.6077   -8.9265 C   0  0  0  0  0  0  0  0  0  0  0  0
   26.6327  -21.7172   -9.0815 O   0  0  0  0  0  0  0  0  0  0  0  0
   28.0848  -19.5807   -3.9288 C   0  0  0  0  0  0  0  0  0  0  0  0
   29.0160  -19.4228   -5.1474 C   0  0  2  0  0  0  0  0  0  0  0  0
   29.8262  -18.1676   -4.8363 C   0  0  0  0  0  0  0  0  0  0  0  0
   28.1334  -19.1993   -6.3171 C   0  0  0  0  0  0  0  0  0  0  0  0
   27.2968  -20.3297   -6.7785 C   0  0  2  0  0  0  0  0  0  0  0  0
   26.3988  -19.8132   -7.8212 N   0  0  0  0  0  0  0  0  0  0  0  0
   26.4799  -21.0133   -5.7781 C   0  0  0  0  0  0  0  0  0  0  0  0
   25.3181  -20.6369   -5.5293 O   0  0  0  0  0  0  0  0  0  0  0  0
   26.9839  -22.0968   -5.0856 O   0  0  0  0  0  0  0  0  0  0  0  0
  2  1  1  0
  3  2  1  0
  3  4  1  1
  5  3  1  0
  5  6  1  6
  7  5  1  0
  7  8  2  0
  9 10  1  0
 11 10  1  1
 12 11  1  0
 12  7  1  0
 13 14  2  0
 13 11  1  0
 16 17  1  1
 16 15  1  0
 18 16  1  0
 19 20  1  0
 19 18  1  1
 20 13  1  0
 21 19  1  0
 22 21  2  0
 23 21  1  0
M  END
$$$$
