ISL.pdb
     RDKit          3D

 23 22  0  0  1  0  0  0  0  0999 V2000
   26.1163  -21.0047  -17.5538 C   0  0  0  0  0  0  0  0  0  0  0  0
   26.0281  -21.8110  -16.2664 C   0  0  0  0  0  0  0  0  0  0  0  0
   26.1338  -20.9317  -15.0550 C   0  0  2  0  0  0  0  0  0  0  0  0
   27.3604  -20.0475  -15.1440 C   0  0  0  0  0  0  0  0  0  0  0  0
   26.0769  -21.6968  -13.7676 C   0  0  2  0  0  0  0  0  0  0  0  0
   24.9195  -22.5720  -13.7772 N   0  0  0  0  0  0  0  0  0  0  0  0
   26.0555  -20.8037  -12.5674 C   0  0  0  0  0  0  0  0  0  0  0  0
   26.9538  -19.9558  -12.3381 O   0  0  0  0  0  0  0  0  0  0  0  0
   22.8842  -20.9826  -10.0317 O   0  0  0  0  0  0  0  0  0  0  0  0
   23.5104  -19.7548  -10.1384 C   0  0  0  0  0  0  0  0  0  0  0  0
   24.9707  -19.9732  -10.4714 C   0  0  2  0  0  0  0  0  0  0  0  0
   25.0037  -20.8671  -11.6102 N   0  0  0  0  0  0  0  0  0  0  0  0
   25.7227  -20.5637   -9.3679 C   0  0  0  0  0  0  0  0  0  0  0  0
   25.9331  -21.7977   -9.3692 O   0  0  0  0  0  0  0  0  0  0  0  0
   27.7023  -19.6315   -4.3187 C   0  0  0  0  0  0  0  0  0  0  0  0
   28.6899  -19.8040   -5.4899 C   0  0  2  0  0  0  0  0  0  0  0  0
   29.7770  -18.7688   -5.2154 C   0  0  0  0  0  0  0  0  0  0  0  0
   27.9381  -19.4596   -6.7200 C   0  0  0  0  0  0  0  0  0  0  0  0
   26.8947  -20.4032   -7.1801 C   0  0  2  0  0  0  0  0  0  0  0  0
   26.2075  -19.7759   -8.3179 N   0  0  0  0  0  0  0  0  0  0  0  0
   25.8808  -20.8094   -6.2093 C   0  0  0  0  0  0  0  0  0  0  0  0
   24.7925  -20.2079   -6.1253 O   0  0  0  0  0  0  0  0  0  0  0  0
   26.1117  -21.8752   -5.3617 O   0  0  0  0  0  0  0  0  0  0  0  0
  2  1  1  0
  3  2  1  0
  3  4  1  6
  5  3  1  0
  5  6  1  6
  7  5  1  0
  7  8  2  0
  9 10  1  0
 11 10  1  1
 12 11  1  0
 12  7  1  0
 13 14  2  0
 13 11  1  0
 16 17  1  1
 16 15  1  0
 18 16  1  0
 19 20  1  0
 19 18  1  1
 20 13  1  0
 21 19  1  0
 22 21  2  0
 23 21  1  0
M  END
$$$$
