ISL.pdb
     RDKit          3D

 23 22  0  0  1  0  0  0  0  0999 V2000
   16.7601  -16.6039  -14.7988 C   0  0  0  0  0  0  0  0  0  0  0  0
   18.1989  -16.8555  -15.2253 C   0  0  0  0  0  0  0  0  0  0  0  0
   18.8487  -17.9132  -14.3821 C   0  0  2  0  0  0  0  0  0  0  0  0
   18.7585  -17.5535  -12.9136 C   0  0  0  0  0  0  0  0  0  0  0  0
   20.2523  -18.2220  -14.8066 C   0  0  2  0  0  0  0  0  0  0  0  0
   20.2622  -18.5895  -16.2104 N   0  0  0  0  0  0  0  0  0  0  0  0
   20.8831  -19.2934  -13.9742 C   0  0  0  0  0  0  0  0  0  0  0  0
   20.7816  -19.3264  -12.7225 O   0  0  0  0  0  0  0  0  0  0  0  0
   22.9794  -22.4711  -15.6976 O   0  0  0  0  0  0  0  0  0  0  0  0
   22.3254  -22.6165  -14.4883 C   0  0  0  0  0  0  0  0  0  0  0  0
   22.3628  -21.2980  -13.7459 C   0  0  2  0  0  0  0  0  0  0  0  0
   21.6404  -20.3452  -14.5630 N   0  0  0  0  0  0  0  0  0  0  0  0
   23.7208  -20.8123  -13.5185 C   0  0  0  0  0  0  0  0  0  0  0  0
   24.1803  -19.9225  -14.2695 O   0  0  0  0  0  0  0  0  0  0  0  0
   25.5245  -19.2465   -9.7026 C   0  0  0  0  0  0  0  0  0  0  0  0
   25.4011  -20.7799   -9.8054 C   0  0  2  0  0  0  0  0  0  0  0  0
   25.9349  -21.2866   -8.4686 C   0  0  0  0  0  0  0  0  0  0  0  0
   26.2920  -21.1938  -10.9154 C   0  0  0  0  0  0  0  0  0  0  0  0
   25.8861  -20.8445  -12.2952 C   0  0  2  0  0  0  0  0  0  0  0  0
   24.5090  -21.3235  -12.4814 N   0  0  0  0  0  0  0  0  0  0  0  0
   26.6988  -21.3727  -13.3888 C   0  0  0  0  0  0  0  0  0  0  0  0
   26.3518  -22.3937  -14.0137 O   0  0  0  0  0  0  0  0  0  0  0  0
   27.8742  -20.7453  -13.7526 O   0  0  0  0  0  0  0  0  0  0  0  0
  2  1  1  0
  3  2  1  0
  3  4  1  1
  5  3  1  0
  5  6  1  6
  7  5  1  0
  7  8  2  0
  9 10  1  0
 11 10  1  6
 12 11  1  0
 12  7  1  0
 13 14  2  0
 13 11  1  0
 16 17  1  1
 16 15  1  0
 18 16  1  0
 19 20  1  0
 19 18  1  1
 20 13  1  0
 21 19  1  0
 22 21  2  0
 23 21  1  0
M  END
$$$$
