ISL.pdb
     RDKit          3D

 23 22  0  0  1  0  0  0  0  0999 V2000
   14.9823  -24.0264   -6.5526 C   0  0  0  0  0  0  0  0  0  0  0  0
   16.2865  -24.7724   -6.3122 C   0  0  0  0  0  0  0  0  0  0  0  0
   16.2530  -25.5441   -5.0257 C   0  0  2  0  0  0  0  0  0  0  0  0
   15.9890  -24.6186   -3.8561 C   0  0  0  0  0  0  0  0  0  0  0  0
   17.4721  -26.3904   -4.8169 C   0  0  2  0  0  0  0  0  0  0  0  0
   17.6340  -27.2898   -5.9442 N   0  0  0  0  0  0  0  0  0  0  0  0
   17.4292  -27.1549   -3.5315 C   0  0  0  0  0  0  0  0  0  0  0  0
   16.3984  -27.7524   -3.1329 O   0  0  0  0  0  0  0  0  0  0  0  0
   20.8482  -28.4076   -1.6153 O   0  0  0  0  0  0  0  0  0  0  0  0
   19.6262  -29.0518   -1.5600 C   0  0  0  0  0  0  0  0  0  0  0  0
   18.5273  -28.0163   -1.4549 C   0  0  2  0  0  0  0  0  0  0  0  0
   18.5675  -27.2478   -2.6816 N   0  0  0  0  0  0  0  0  0  0  0  0
   18.6977  -27.1208   -0.3144 C   0  0  0  0  0  0  0  0  0  0  0  0
   19.3910  -26.0878   -0.4528 O   0  0  0  0  0  0  0  0  0  0  0  0
   16.4866  -24.2228    2.4913 C   0  0  0  0  0  0  0  0  0  0  0  0
   16.0547  -25.7001    2.4021 C   0  0  2  0  0  0  0  0  0  0  0  0
   14.8563  -25.7947    3.3421 C   0  0  0  0  0  0  0  0  0  0  0  0
   17.1918  -26.4963    2.9221 C   0  0  0  0  0  0  0  0  0  0  0  0
   18.4172  -26.5739    2.0956 C   0  0  2  0  0  0  0  0  0  0  0  0
   18.1017  -27.3990    0.9208 N   0  0  0  0  0  0  0  0  0  0  0  0
   19.6172  -27.1232    2.7231 C   0  0  0  0  0  0  0  0  0  0  0  0
   20.1832  -26.5282    3.6606 O   0  0  0  0  0  0  0  0  0  0  0  0
   20.1493  -28.3204    2.2858 O   0  0  0  0  0  0  0  0  0  0  0  0
  2  1  1  0
  3  2  1  0
  3  4  1  1
  5  3  1  0
  5  6  1  6
  7  5  1  0
  7  8  2  0
  9 10  1  0
 11 10  1  6
 12 11  1  0
 12  7  1  0
 13 14  2  0
 13 11  1  0
 16 17  1  1
 16 15  1  0
 18 16  1  0
 19 20  1  0
 19 18  1  1
 20 13  1  0
 21 19  1  0
 22 21  2  0
 23 21  1  0
M  END
$$$$
