ISL.pdb
     RDKit          3D

 23 22  0  0  1  0  0  0  0  0999 V2000
   29.5606  -17.9799  -17.5224 C   0  0  0  0  0  0  0  0  0  0  0  0
   28.6656  -17.5522  -16.3686 C   0  0  0  0  0  0  0  0  0  0  0  0
   27.7598  -18.6651  -15.9295 C   0  0  2  0  0  0  0  0  0  0  0  0
   27.0009  -19.2320  -17.1114 C   0  0  0  0  0  0  0  0  0  0  0  0
   26.8501  -18.2725  -14.8052 C   0  0  2  0  0  0  0  0  0  0  0  0
   27.6438  -17.8246  -13.6761 N   0  0  0  0  0  0  0  0  0  0  0  0
   25.9271  -19.3777  -14.3985 C   0  0  0  0  0  0  0  0  0  0  0  0
   25.0861  -19.8813  -15.1842 O   0  0  0  0  0  0  0  0  0  0  0  0
   25.3539  -20.2780  -10.4159 O   0  0  0  0  0  0  0  0  0  0  0  0
   25.3926  -21.3581  -11.2779 C   0  0  0  0  0  0  0  0  0  0  0  0
   24.9735  -20.9023  -12.6589 C   0  0  2  0  0  0  0  0  0  0  0  0
   25.9533  -19.9246  -13.0844 N   0  0  0  0  0  0  0  0  0  0  0  0
   23.6441  -20.2988  -12.6788 C   0  0  0  0  0  0  0  0  0  0  0  0
   23.5363  -19.0634  -12.5076 O   0  0  0  0  0  0  0  0  0  0  0  0
   19.4579  -20.2738  -15.9105 C   0  0  0  0  0  0  0  0  0  0  0  0
   20.2760  -19.1530  -15.2385 C   0  0  2  0  0  0  0  0  0  0  0  0
   20.7309  -18.2760  -16.4016 C   0  0  0  0  0  0  0  0  0  0  0  0
   21.4368  -19.8149  -14.5970 C   0  0  0  0  0  0  0  0  0  0  0  0
   21.2321  -20.4366  -13.2695 C   0  0  2  0  0  0  0  0  0  0  0  0
   22.4986  -21.0757  -12.8850 N   0  0  0  0  0  0  0  0  0  0  0  0
   20.1700  -21.4332  -13.1508 C   0  0  0  0  0  0  0  0  0  0  0  0
   20.3993  -22.6437  -13.3386 O   0  0  0  0  0  0  0  0  0  0  0  0
   18.8838  -21.0490  -12.8256 O   0  0  0  0  0  0  0  0  0  0  0  0
  2  1  1  0
  3  2  1  0
  3  4  1  6
  5  3  1  0
  5  6  1  1
  7  5  1  0
  7  8  2  0
  9 10  1  0
 11 10  1  1
 12 11  1  0
 12  7  1  0
 13 14  2  0
 13 11  1  0
 16 17  1  6
 16 15  1  0
 18 16  1  0
 19 20  1  0
 19 18  1  6
 20 13  1  0
 21 19  1  0
 22 21  2  0
 23 21  1  0
M  END
$$$$
