ISL.pdb
     RDKit          3D

 23 22  0  0  1  0  0  0  0  0999 V2000
   26.6486  -14.2327  -17.2426 C   0  0  0  0  0  0  0  0  0  0  0  0
   25.9884  -15.6027  -17.2926 C   0  0  0  0  0  0  0  0  0  0  0  0
   25.6653  -16.1112  -15.9183 C   0  0  2  0  0  0  0  0  0  0  0  0
   26.9056  -16.1220  -15.0490 C   0  0  0  0  0  0  0  0  0  0  0  0
   24.9692  -17.4383  -15.9321 C   0  0  2  0  0  0  0  0  0  0  0  0
   23.8171  -17.3698  -16.8116 N   0  0  0  0  0  0  0  0  0  0  0  0
   24.5652  -17.8909  -14.5644 C   0  0  0  0  0  0  0  0  0  0  0  0
   23.6931  -17.2951  -13.8839 O   0  0  0  0  0  0  0  0  0  0  0  0
   24.4236  -21.5397  -13.7345 O   0  0  0  0  0  0  0  0  0  0  0  0
   23.8284  -20.6627  -12.8469 C   0  0  0  0  0  0  0  0  0  0  0  0
   24.7444  -19.4762  -12.6370 C   0  0  2  0  0  0  0  0  0  0  0  0
   25.1536  -19.0345  -13.9540 N   0  0  0  0  0  0  0  0  0  0  0  0
   25.9264  -19.8040  -11.8450 C   0  0  0  0  0  0  0  0  0  0  0  0
   27.0223  -19.9632  -12.4286 O   0  0  0  0  0  0  0  0  0  0  0  0
   28.9374  -19.6092   -7.3489 C   0  0  0  0  0  0  0  0  0  0  0  0
   27.5314  -19.0352   -7.6148 C   0  0  2  0  0  0  0  0  0  0  0  0
   26.9807  -18.7397   -6.2226 C   0  0  0  0  0  0  0  0  0  0  0  0
   26.7573  -20.1195   -8.2645 C   0  0  0  0  0  0  0  0  0  0  0  0
   27.0230  -20.3988   -9.6934 C   0  0  2  0  0  0  0  0  0  0  0  0
   25.8516  -19.9415  -10.4545 N   0  0  0  0  0  0  0  0  0  0  0  0
   27.2909  -21.7855  -10.0685 C   0  0  0  0  0  0  0  0  0  0  0  0
   26.3628  -22.6054  -10.2084 O   0  0  0  0  0  0  0  0  0  0  0  0
   28.5868  -22.2156  -10.2767 O   0  0  0  0  0  0  0  0  0  0  0  0
  2  1  1  0
  3  2  1  0
  3  4  1  1
  5  3  1  0
  5  6  1  6
  7  5  1  0
  7  8  2  0
  9 10  1  0
 11 10  1  6
 12 11  1  0
 12  7  1  0
 13 14  2  0
 13 11  1  0
 16 17  1  1
 16 15  1  0
 18 16  1  0
 19 20  1  0
 19 18  1  1
 20 13  1  0
 21 19  1  0
 22 21  2  0
 23 21  1  0
M  END
$$$$
