ISL.pdb
     RDKit          3D

 23 22  0  0  1  0  0  0  0  0999 V2000
   22.2571  -31.3614   -9.9013 C   0  0  0  0  0  0  0  0  0  0  0  0
   23.7420  -31.6747   -9.7915 C   0  0  0  0  0  0  0  0  0  0  0  0
   24.0338  -32.5660   -8.6201 C   0  0  2  0  0  0  0  0  0  0  0  0
   23.4052  -32.0110   -7.3588 C   0  0  0  0  0  0  0  0  0  0  0  0
   25.4952  -32.8509   -8.4490 C   0  0  2  0  0  0  0  0  0  0  0  0
   26.0202  -33.4307   -9.6713 N   0  0  0  0  0  0  0  0  0  0  0  0
   25.7754  -33.7396   -7.2784 C   0  0  0  0  0  0  0  0  0  0  0  0
   25.4182  -34.9435   -7.2411 O   0  0  0  0  0  0  0  0  0  0  0  0
   27.6790  -32.3539   -3.7784 O   0  0  0  0  0  0  0  0  0  0  0  0
   28.0281  -33.5565   -4.3643 C   0  0  0  0  0  0  0  0  0  0  0  0
   26.8088  -34.1495   -5.0369 C   0  0  2  0  0  0  0  0  0  0  0  0
   26.4705  -33.2632   -6.1310 N   0  0  0  0  0  0  0  0  0  0  0  0
   25.6653  -34.2694   -4.1369 C   0  0  0  0  0  0  0  0  0  0  0  0
   24.8069  -33.3585   -4.1226 O   0  0  0  0  0  0  0  0  0  0  0  0
   22.2437  -36.7100   -4.2531 C   0  0  0  0  0  0  0  0  0  0  0  0
   23.5097  -37.4727   -3.8145 C   0  0  2  0  0  0  0  0  0  0  0  0
   23.0430  -38.9189   -3.6746 C   0  0  0  0  0  0  0  0  0  0  0  0
   23.8922  -36.9163   -2.4949 C   0  0  0  0  0  0  0  0  0  0  0  0
   24.3295  -35.5034   -2.4403 C   0  0  2  0  0  0  0  0  0  0  0  0
   25.5172  -35.3790   -3.2973 N   0  0  0  0  0  0  0  0  0  0  0  0
   24.6610  -34.9528   -1.1279 C   0  0  0  0  0  0  0  0  0  0  0  0
   23.8024  -34.8720   -0.2282 O   0  0  0  0  0  0  0  0  0  0  0  0
   25.9411  -34.5094   -0.8587 O   0  0  0  0  0  0  0  0  0  0  0  0
  2  1  1  0
  3  2  1  0
  3  4  1  1
  5  3  1  0
  5  6  1  6
  7  5  1  0
  7  8  2  0
  9 10  1  0
 11 10  1  1
 12 11  1  0
 12  7  1  0
 13 14  2  0
 13 11  1  0
 16 17  1  1
 16 15  1  0
 18 16  1  0
 19 20  1  0
 19 18  1  1
 20 13  1  0
 21 19  1  0
 22 21  2  0
 23 21  1  0
M  END
$$$$
