ISL.pdb
     RDKit          3D

 23 22  0  0  1  0  0  0  0  0999 V2000
   21.4545  -20.1144  -15.7915 C   0  0  0  0  0  0  0  0  0  0  0  0
   20.8235  -20.1775  -14.4084 C   0  0  0  0  0  0  0  0  0  0  0  0
   21.6499  -20.9962  -13.4605 C   0  0  2  0  0  0  0  0  0  0  0  0
   20.7776  -21.9760  -12.7031 C   0  0  0  0  0  0  0  0  0  0  0  0
   22.4935  -20.1613  -12.5456 C   0  0  2  0  0  0  0  0  0  0  0  0
   23.2613  -19.2119  -13.3296 N   0  0  0  0  0  0  0  0  0  0  0  0
   23.3946  -20.9855  -11.6810 C   0  0  0  0  0  0  0  0  0  0  0  0
   22.9685  -21.9148  -10.9508 O   0  0  0  0  0  0  0  0  0  0  0  0
   27.4700  -20.5835  -11.9229 O   0  0  0  0  0  0  0  0  0  0  0  0
   26.9368  -21.7765  -11.4716 C   0  0  0  0  0  0  0  0  0  0  0  0
   25.6510  -21.4912  -10.7258 C   0  0  2  0  0  0  0  0  0  0  0  0
   24.7993  -20.7586  -11.6396 N   0  0  0  0  0  0  0  0  0  0  0  0
   25.8595  -20.7009   -9.5160 C   0  0  0  0  0  0  0  0  0  0  0  0
   25.3028  -19.5840   -9.4179 O   0  0  0  0  0  0  0  0  0  0  0  0
   29.5957  -21.2479   -4.7217 C   0  0  0  0  0  0  0  0  0  0  0  0
   28.5012  -20.3266   -5.2963 C   0  0  2  0  0  0  0  0  0  0  0  0
   27.4678  -20.2336   -4.1772 C   0  0  0  0  0  0  0  0  0  0  0  0
   27.9383  -21.0344   -6.4707 C   0  0  0  0  0  0  0  0  0  0  0  0
   27.0195  -20.2840   -7.3557 C   0  0  2  0  0  0  0  0  0  0  0  0
   26.6661  -21.1707   -8.4735 N   0  0  0  0  0  0  0  0  0  0  0  0
   27.5049  -19.0245   -7.9156 C   0  0  0  0  0  0  0  0  0  0  0  0
   28.2142  -19.0065   -8.9402 O   0  0  0  0  0  0  0  0  0  0  0  0
   27.1837  -17.8227   -7.3155 O   0  0  0  0  0  0  0  0  0  0  0  0
  2  1  1  0
  3  2  1  0
  3  4  1  1
  5  3  1  0
  5  6  1  6
  7  5  1  0
  7  8  2  0
  9 10  1  0
 11 10  1  6
 12 11  1  0
 12  7  1  0
 13 14  2  0
 13 11  1  0
 16 17  1  1
 16 15  1  0
 18 16  1  0
 19 20  1  0
 19 18  1  6
 20 13  1  0
 21 19  1  0
 22 21  2  0
 23 21  1  0
M  END
$$$$
