ISL.pdb
     RDKit          3D

 23 22  0  0  1  0  0  0  0  0999 V2000
   17.0387  -12.6454  -20.6725 C   0  0  0  0  0  0  0  0  0  0  0  0
   18.1730  -11.6318  -20.7050 C   0  0  0  0  0  0  0  0  0  0  0  0
   18.3433  -10.9498  -19.3792 C   0  0  2  0  0  0  0  0  0  0  0  0
   17.0565  -10.2688  -18.9613 C   0  0  0  0  0  0  0  0  0  0  0  0
   19.5167  -10.0181  -19.3449 C   0  0  2  0  0  0  0  0  0  0  0  0
   20.7406  -10.7766  -19.5243 N   0  0  0  0  0  0  0  0  0  0  0  0
   19.5739   -9.2103  -18.0867 C   0  0  0  0  0  0  0  0  0  0  0  0
   18.6032   -8.5266  -17.6761 O   0  0  0  0  0  0  0  0  0  0  0  0
   23.0718   -8.9397  -15.8364 O   0  0  0  0  0  0  0  0  0  0  0  0
   21.8567   -9.0424  -15.1850 C   0  0  0  0  0  0  0  0  0  0  0  0
   20.7814   -8.4141  -16.0452 C   0  0  2  0  0  0  0  0  0  0  0  0
   20.7447   -9.1734  -17.2778 N   0  0  0  0  0  0  0  0  0  0  0  0
   21.0437   -7.0098  -16.3469 C   0  0  0  0  0  0  0  0  0  0  0  0
   21.6100   -6.7165  -17.4241 O   0  0  0  0  0  0  0  0  0  0  0  0
   18.3654   -1.8582  -15.9316 C   0  0  0  0  0  0  0  0  0  0  0  0
   19.8124   -2.3789  -16.0411 C   0  0  2  0  0  0  0  0  0  0  0  0
   20.2242   -2.0355  -17.4699 C   0  0  0  0  0  0  0  0  0  0  0  0
   19.7392   -3.8478  -15.8565 C   0  0  0  0  0  0  0  0  0  0  0  0
   21.0119   -4.5958  -15.7491 C   0  0  2  0  0  0  0  0  0  0  0  0
   20.6738   -5.9960  -15.4562 N   0  0  0  0  0  0  0  0  0  0  0  0
   21.9737   -4.1449  -14.7456 C   0  0  0  0  0  0  0  0  0  0  0  0
   21.8883   -4.5168  -13.5592 O   0  0  0  0  0  0  0  0  0  0  0  0
   23.0025   -3.2927  -15.0965 O   0  0  0  0  0  0  0  0  0  0  0  0
  2  1  1  0
  3  2  1  0
  3  4  1  6
  5  3  1  0
  5  6  1  1
  7  5  1  0
  7  8  2  0
  9 10  1  0
 11 10  1  1
 12 11  1  0
 12  7  1  0
 13 14  2  0
 13 11  1  0
 16 17  1  6
 16 15  1  0
 18 16  1  0
 19 20  1  0
 19 18  1  1
 20 13  1  0
 21 19  1  0
 22 21  2  0
 23 21  1  0
M  END
$$$$
