SQC.pdb
     RDKit          3D

 22 21  0  0  1  0  0  0  0  0999 V2000
    7.0255  -17.6327   19.4673 O   0  0  0  0  0  0  0  0  0  0  0  0
    6.2869  -17.1455   20.5586 C   0  0  0  0  0  0  0  0  0  0  0  0
    5.9731  -18.3077   21.4573 C   0  0  2  0  0  0  0  0  0  0  0  0
    4.7487  -18.9851   21.1855 N   0  0  0  0  0  0  0  0  0  0  0  0
    6.0316  -17.8518   22.8852 C   0  0  0  0  0  0  0  0  0  0  0  0
    4.9678  -17.4841   23.4816 O   0  0  0  0  0  0  0  0  0  0  0  0
    9.4380  -20.0609   27.6117 N   0  0  0  0  0  0  0  0  0  0  0  0
    8.6243  -19.0455   28.2102 C   0  0  0  0  0  0  0  0  0  0  0  0
    8.5701  -18.9350   29.4500 O   0  0  0  0  0  0  0  0  0  0  0  0
    7.8756  -18.1740   27.3058 C   0  0  0  0  0  0  0  0  0  0  0  0
    7.9006  -18.4530   25.8565 C   0  0  0  0  0  0  0  0  0  0  0  0
    7.2481  -17.4293   24.9915 C   0  0  2  0  0  0  0  0  0  0  0  0
    7.2386  -17.8080   23.6126 N   0  0  0  0  0  0  0  0  0  0  0  0
    8.0075  -16.1482   25.1501 C   0  0  0  0  0  0  0  0  0  0  0  0
    9.0487  -15.9901   24.4901 O   0  0  0  0  0  0  0  0  0  0  0  0
    7.5455  -15.1475   26.0295 N   0  0  0  0  0  0  0  0  0  0  0  0
    8.2465  -13.8986   26.2468 C   0  0  1  0  0  0  0  0  0  0  0  0
    7.2817  -12.7950   26.5887 C   0  0  0  0  0  0  0  0  0  0  0  0
    5.5731  -13.3546   26.5187 S   0  0  0  0  0  0  0  0  0  0  0  0
    9.2759  -14.0360   27.2926 C   0  0  0  0  0  0  0  0  0  0  0  0
   10.1862  -13.0346   27.5756 O   0  0  0  0  0  0  0  0  0  0  0  0
    9.3260  -15.1017   27.9498 O   0  0  0  0  0  0  0  0  0  0  0  0
  1  2  1  0
  3  5  1  0
  3  4  1  6
  3  2  1  0
  5  6  2  0
  7  8  1  0
  8 10  1  0
  9  8  2  0
 10 11  1  0
 12 11  1  1
 12 14  1  0
 13 12  1  0
 13  5  1  0
 14 15  2  0
 14 16  1  0
 16 17  1  0
 17 20  1  0
 17 18  1  1
 19 18  1  0
 20 22  2  0
 20 21  1  0
M  END
$$$$
