SQC.pdb
     RDKit          3D

 22 21  0  0  1  0  0  0  0  0999 V2000
    8.7750  -19.3022   19.3035 O   0  0  0  0  0  0  0  0  0  0  0  0
    7.7197  -18.5157   18.8117 C   0  0  0  0  0  0  0  0  0  0  0  0
    8.2996  -17.2152   18.3328 C   0  0  2  0  0  0  0  0  0  0  0  0
    9.1632  -17.3036   17.2023 N   0  0  0  0  0  0  0  0  0  0  0  0
    8.9819  -16.5317   19.4805 C   0  0  0  0  0  0  0  0  0  0  0  0
   10.2479  -16.3900   19.4772 O   0  0  0  0  0  0  0  0  0  0  0  0
    8.0666  -15.4642   25.2110 N   0  0  0  0  0  0  0  0  0  0  0  0
    6.8758  -15.7307   24.4612 C   0  0  0  0  0  0  0  0  0  0  0  0
    5.9057  -16.2933   25.0039 O   0  0  0  0  0  0  0  0  0  0  0  0
    6.8678  -15.3212   23.0575 C   0  0  0  0  0  0  0  0  0  0  0  0
    8.0257  -14.5802   22.5199 C   0  0  0  0  0  0  0  0  0  0  0  0
    8.9517  -15.3684   21.6578 C   0  0  2  0  0  0  0  0  0  0  0  0
    8.2699  -16.0301   20.5891 N   0  0  0  0  0  0  0  0  0  0  0  0
    9.6246  -16.3874   22.5249 C   0  0  0  0  0  0  0  0  0  0  0  0
    9.1860  -17.5503   22.5232 O   0  0  0  0  0  0  0  0  0  0  0  0
   10.7310  -16.0291   23.3222 N   0  0  0  0  0  0  0  0  0  0  0  0
   11.4822  -16.9846   24.1101 C   0  0  1  0  0  0  0  0  0  0  0  0
   12.9598  -16.7136   24.0152 C   0  0  0  0  0  0  0  0  0  0  0  0
   13.9281  -17.9904   24.8336 S   0  0  0  0  0  0  0  0  0  0  0  0
   11.0401  -16.9863   25.5161 C   0  0  0  0  0  0  0  0  0  0  0  0
   10.1113  -16.0860   26.0042 O   0  0  0  0  0  0  0  0  0  0  0  0
   11.5253  -17.8374   26.2974 O   0  0  0  0  0  0  0  0  0  0  0  0
  1  2  1  0
  3  5  1  0
  3  4  1  6
  3  2  1  0
  5  6  2  0
  7  8  1  0
  8 10  1  0
  9  8  2  0
 10 11  1  0
 12 11  1  1
 12 14  1  0
 13 12  1  0
 13  5  1  0
 14 15  2  0
 14 16  1  0
 16 17  1  0
 17 20  1  0
 17 18  1  1
 19 18  1  0
 20 22  2  0
 20 21  1  0
M  END
$$$$
