SQC.pdb
     RDKit          3D

 22 21  0  0  1  0  0  0  0  0999 V2000
    7.4534  -12.3757   17.8024 O   0  0  0  0  0  0  0  0  0  0  0  0
    8.3163  -13.2628   18.4675 C   0  0  0  0  0  0  0  0  0  0  0  0
    9.1606  -13.9476   17.4306 C   0  0  2  0  0  0  0  0  0  0  0  0
    8.4614  -14.8107   16.5372 N   0  0  0  0  0  0  0  0  0  0  0  0
   10.2820  -14.6726   18.1137 C   0  0  0  0  0  0  0  0  0  0  0  0
   10.2349  -15.9385   18.2486 O   0  0  0  0  0  0  0  0  0  0  0  0
   16.3949  -13.4995   17.7256 N   0  0  0  0  0  0  0  0  0  0  0  0
   16.3384  -14.5380   18.7102 C   0  0  0  0  0  0  0  0  0  0  0  0
   17.3891  -15.0353   19.1584 O   0  0  0  0  0  0  0  0  0  0  0  0
   15.0111  -14.9737   19.1422 C   0  0  0  0  0  0  0  0  0  0  0  0
   13.8267  -14.2121   18.6993 C   0  0  0  0  0  0  0  0  0  0  0  0
   12.5121  -14.7325   19.1713 C   0  0  2  0  0  0  0  0  0  0  0  0
   11.4102  -14.0010   18.6275 N   0  0  0  0  0  0  0  0  0  0  0  0
   12.4902  -14.6271   20.6650 C   0  0  0  0  0  0  0  0  0  0  0  0
   12.1222  -13.5569   21.1790 O   0  0  0  0  0  0  0  0  0  0  0  0
   12.8788  -15.7215   21.4647 N   0  0  0  0  0  0  0  0  0  0  0  0
   12.2953  -16.0026   22.7604 C   0  0  1  0  0  0  0  0  0  0  0  0
   10.8093  -16.2126   22.6447 C   0  0  0  0  0  0  0  0  0  0  0  0
   10.0585  -16.5733   24.2395 S   0  0  0  0  0  0  0  0  0  0  0  0
   12.9395  -17.1647   23.3983 C   0  0  0  0  0  0  0  0  0  0  0  0
   13.2498  -17.1959   24.7453 O   0  0  0  0  0  0  0  0  0  0  0  0
   13.2153  -18.1618   22.6913 O   0  0  0  0  0  0  0  0  0  0  0  0
  1  2  1  0
  3  5  1  0
  3  4  1  1
  3  2  1  0
  5  6  2  0
  7  8  1  0
  8 10  1  0
  9  8  2  0
 10 11  1  0
 12 11  1  6
 12 14  1  0
 13 12  1  0
 13  5  1  0
 14 15  2  0
 14 16  1  0
 16 17  1  0
 17 20  1  0
 17 18  1  6
 19 18  1  0
 20 22  2  0
 20 21  1  0
M  END
$$$$
