SQC.pdb
     RDKit          3D

 22 21  0  0  1  0  0  0  0  0999 V2000
    9.6645  -13.2210   20.2156 O   0  0  0  0  0  0  0  0  0  0  0  0
    9.0749  -14.4373   19.8324 C   0  0  0  0  0  0  0  0  0  0  0  0
    7.6024  -14.3440   20.1152 C   0  0  2  0  0  0  0  0  0  0  0  0
    6.9662  -13.1429   19.6857 N   0  0  0  0  0  0  0  0  0  0  0  0
    7.3688  -14.5849   21.5772 C   0  0  0  0  0  0  0  0  0  0  0  0
    6.9841  -13.6300   22.3276 O   0  0  0  0  0  0  0  0  0  0  0  0
    7.5184  -20.1975   24.8132 N   0  0  0  0  0  0  0  0  0  0  0  0
    7.0053  -19.2402   25.7468 C   0  0  0  0  0  0  0  0  0  0  0  0
    6.6575  -19.6007   26.8875 O   0  0  0  0  0  0  0  0  0  0  0  0
    6.9095  -17.8535   25.2929 C   0  0  0  0  0  0  0  0  0  0  0  0
    7.2731  -17.5280   23.8998 C   0  0  0  0  0  0  0  0  0  0  0  0
    7.1568  -16.0908   23.5220 C   0  0  2  0  0  0  0  0  0  0  0  0
    7.5629  -15.8480   22.1726 N   0  0  0  0  0  0  0  0  0  0  0  0
    8.0272  -15.3035   24.4525 C   0  0  0  0  0  0  0  0  0  0  0  0
    9.2363  -15.1961   24.1855 O   0  0  0  0  0  0  0  0  0  0  0  0
    7.4807  -14.6995   25.6034 N   0  0  0  0  0  0  0  0  0  0  0  0
    8.2783  -13.9794   26.5748 C   0  0  1  0  0  0  0  0  0  0  0  0
    7.4255  -13.0240   27.3659 C   0  0  0  0  0  0  0  0  0  0  0  0
    6.3600  -12.0397   26.3014 S   0  0  0  0  0  0  0  0  0  0  0  0
    8.9966  -14.9038   27.4703 C   0  0  0  0  0  0  0  0  0  0  0  0
    9.8646  -14.4631   28.4521 O   0  0  0  0  0  0  0  0  0  0  0  0
    8.8117  -16.1358   27.3356 O   0  0  0  0  0  0  0  0  0  0  0  0
  1  2  1  0
  3  5  1  0
  3  4  1  1
  3  2  1  0
  5  6  2  0
  7  8  1  0
  8 10  1  0
  9  8  2  0
 10 11  1  0
 12 11  1  1
 12 14  1  0
 13 12  1  0
 13  5  1  0
 14 15  2  0
 14 16  1  0
 16 17  1  0
 17 20  1  0
 17 18  1  1
 19 18  1  0
 20 22  2  0
 20 21  1  0
M  END
$$$$
