SQC.pdb
     RDKit          3D

 22 21  0  0  1  0  0  0  0  0999 V2000
    8.2802  -12.7106   17.5741 O   0  0  0  0  0  0  0  0  0  0  0  0
    7.8525  -13.1321   18.8442 C   0  0  0  0  0  0  0  0  0  0  0  0
    8.1387  -14.6022   18.9617 C   0  0  2  0  0  0  0  0  0  0  0  0
    7.4250  -15.4440   18.0596 N   0  0  0  0  0  0  0  0  0  0  0  0
    7.9240  -15.0304   20.3831 C   0  0  0  0  0  0  0  0  0  0  0  0
    6.7702  -15.4089   20.7681 O   0  0  0  0  0  0  0  0  0  0  0  0
   11.9342  -18.4017   23.6020 N   0  0  0  0  0  0  0  0  0  0  0  0
   12.2933  -17.0410   23.3359 C   0  0  0  0  0  0  0  0  0  0  0  0
   13.4833  -16.6799   23.4125 O   0  0  0  0  0  0  0  0  0  0  0  0
   11.2102  -16.1235   22.9852 C   0  0  0  0  0  0  0  0  0  0  0  0
    9.8251  -16.6319   22.9420 C   0  0  0  0  0  0  0  0  0  0  0  0
    8.7769  -15.6212   22.6234 C   0  0  2  0  0  0  0  0  0  0  0  0
    8.9643  -15.0303   21.3347 N   0  0  0  0  0  0  0  0  0  0  0  0
    8.8384  -14.5548   23.6731 C   0  0  0  0  0  0  0  0  0  0  0  0
    9.1591  -13.4037   23.3314 O   0  0  0  0  0  0  0  0  0  0  0  0
    8.5371  -14.8565   25.0172 N   0  0  0  0  0  0  0  0  0  0  0  0
    8.2274  -13.8443   26.0060 C   0  0  1  0  0  0  0  0  0  0  0  0
    7.0311  -13.0330   25.5859 C   0  0  0  0  0  0  0  0  0  0  0  0
    6.5197  -11.8811   26.8700 S   0  0  0  0  0  0  0  0  0  0  0  0
    8.0132  -14.4416   27.3363 C   0  0  0  0  0  0  0  0  0  0  0  0
    8.2882  -13.7626   28.5089 O   0  0  0  0  0  0  0  0  0  0  0  0
    7.5640  -15.6093   27.4052 O   0  0  0  0  0  0  0  0  0  0  0  0
  1  2  1  0
  3  5  1  0
  3  4  1  6
  3  2  1  0
  5  6  2  0
  7  8  1  0
  8 10  1  0
  9  8  2  0
 10 11  1  0
 12 11  1  1
 12 14  1  0
 13 12  1  0
 13  5  1  0
 14 15  2  0
 14 16  1  0
 16 17  1  0
 17 20  1  0
 17 18  1  6
 19 18  1  0
 20 22  2  0
 20 21  1  0
M  END
$$$$
