SQC.pdb
     RDKit          3D

 22 21  0  0  1  0  0  0  0  0999 V2000
    8.2843  -17.8072   19.5807 O   0  0  0  0  0  0  0  0  0  0  0  0
    7.2648  -17.1838   20.3195 C   0  0  0  0  0  0  0  0  0  0  0  0
    6.6071  -18.2319   21.1714 C   0  0  2  0  0  0  0  0  0  0  0  0
    5.3479  -18.7077   20.7024 N   0  0  0  0  0  0  0  0  0  0  0  0
    6.5012  -17.7230   22.5785 C   0  0  0  0  0  0  0  0  0  0  0  0
    5.4583  -17.0945   22.9528 O   0  0  0  0  0  0  0  0  0  0  0  0
    9.5806  -19.6057   27.8614 N   0  0  0  0  0  0  0  0  0  0  0  0
    8.8268  -18.4622   28.2800 C   0  0  0  0  0  0  0  0  0  0  0  0
    8.7955  -18.1373   29.4824 O   0  0  0  0  0  0  0  0  0  0  0  0
    8.1096  -17.7220   27.2427 C   0  0  0  0  0  0  0  0  0  0  0  0
    8.2054  -18.1760   25.8414 C   0  0  0  0  0  0  0  0  0  0  0  0
    7.3976  -17.4021   24.8563 C   0  0  2  0  0  0  0  0  0  0  0  0
    7.5281  -17.9106   23.5262 N   0  0  0  0  0  0  0  0  0  0  0  0
    7.8714  -15.9818   24.8944 C   0  0  0  0  0  0  0  0  0  0  0  0
    8.9570  -15.7040   24.3568 O   0  0  0  0  0  0  0  0  0  0  0  0
    7.0979  -14.9869   25.5268 N   0  0  0  0  0  0  0  0  0  0  0  0
    7.5486  -13.6205   25.6946 C   0  0  1  0  0  0  0  0  0  0  0  0
    6.3812  -12.6707   25.7221 C   0  0  0  0  0  0  0  0  0  0  0  0
    5.3719  -12.8936   27.1949 S   0  0  0  0  0  0  0  0  0  0  0  0
    8.3720  -13.4723   26.9081 C   0  0  0  0  0  0  0  0  0  0  0  0
    9.1315  -12.3442   27.1576 O   0  0  0  0  0  0  0  0  0  0  0  0
    8.3824  -14.4051   27.7446 O   0  0  0  0  0  0  0  0  0  0  0  0
  1  2  1  0
  3  5  1  0
  3  4  1  6
  3  2  1  0
  5  6  2  0
  7  8  1  0
  8 10  1  0
  9  8  2  0
 10 11  1  0
 12 11  1  1
 12 14  1  0
 13 12  1  0
 13  5  1  0
 14 15  2  0
 14 16  1  0
 16 17  1  0
 17 20  1  0
 17 18  1  1
 19 18  1  0
 20 22  2  0
 20 21  1  0
M  END
$$$$
