SQC.pdb
     RDKit          3D

 22 21  0  0  1  0  0  0  0  0999 V2000
    8.5354  -12.4314   18.9165 O   0  0  0  0  0  0  0  0  0  0  0  0
    8.0659  -12.8344   20.1779 C   0  0  0  0  0  0  0  0  0  0  0  0
    7.8452  -14.3197   20.1336 C   0  0  2  0  0  0  0  0  0  0  0  0
    6.6925  -14.7513   19.4146 N   0  0  0  0  0  0  0  0  0  0  0  0
    7.8387  -14.8554   21.5347 C   0  0  0  0  0  0  0  0  0  0  0  0
    6.7522  -14.8918   22.1987 O   0  0  0  0  0  0  0  0  0  0  0  0
   10.6169  -19.7500   23.7493 N   0  0  0  0  0  0  0  0  0  0  0  0
   10.3092  -19.1076   24.9918 C   0  0  0  0  0  0  0  0  0  0  0  0
   10.3296  -19.7563   26.0552 O   0  0  0  0  0  0  0  0  0  0  0  0
    9.9721  -17.6857   24.9400 C   0  0  0  0  0  0  0  0  0  0  0  0
    9.9847  -16.9925   23.6369 C   0  0  0  0  0  0  0  0  0  0  0  0
    8.9459  -15.9388   23.4570 C   0  0  2  0  0  0  0  0  0  0  0  0
    9.0076  -15.3284   22.1653 N   0  0  0  0  0  0  0  0  0  0  0  0
    9.1667  -14.8971   24.5102 C   0  0  0  0  0  0  0  0  0  0  0  0
   10.2490  -14.2862   24.5227 O   0  0  0  0  0  0  0  0  0  0  0  0
    8.1647  -14.6199   25.4627 N   0  0  0  0  0  0  0  0  0  0  0  0
    8.3426  -13.6773   26.5481 C   0  0  1  0  0  0  0  0  0  0  0  0
    7.0181  -13.1194   26.9958 C   0  0  0  0  0  0  0  0  0  0  0  0
    6.1123  -12.3713   25.6330 S   0  0  0  0  0  0  0  0  0  0  0  0
    9.0608  -14.2909   27.6794 C   0  0  0  0  0  0  0  0  0  0  0  0
    9.4368  -13.5720   28.7989 O   0  0  0  0  0  0  0  0  0  0  0  0
    9.3400  -15.5111   27.6229 O   0  0  0  0  0  0  0  0  0  0  0  0
  1  2  1  0
  3  5  1  0
  3  4  1  1
  3  2  1  0
  5  6  2  0
  7  8  1  0
  8 10  1  0
  9  8  2  0
 10 11  1  0
 12 11  1  6
 12 14  1  0
 13 12  1  0
 13  5  1  0
 14 15  2  0
 14 16  1  0
 16 17  1  0
 17 20  1  0
 17 18  1  1
 19 18  1  0
 20 22  2  0
 20 21  1  0
M  END
$$$$
