SQC.pdb
     RDKit          3D

 22 21  0  0  1  0  0  0  0  0999 V2000
    8.9584  -12.6013   19.5375 O   0  0  0  0  0  0  0  0  0  0  0  0
    9.3109  -13.9611   19.5118 C   0  0  0  0  0  0  0  0  0  0  0  0
    8.0433  -14.7660   19.5593 C   0  0  2  0  0  0  0  0  0  0  0  0
    6.9780  -14.2885   18.7413 N   0  0  0  0  0  0  0  0  0  0  0  0
    7.6058  -14.9058   20.9872 C   0  0  0  0  0  0  0  0  0  0  0  0
    6.5551  -14.3111   21.3936 O   0  0  0  0  0  0  0  0  0  0  0  0
    9.2986  -18.5346   26.1112 N   0  0  0  0  0  0  0  0  0  0  0  0
    7.8778  -18.5298   25.9308 C   0  0  0  0  0  0  0  0  0  0  0  0
    7.1369  -19.0729   26.7724 O   0  0  0  0  0  0  0  0  0  0  0  0
    7.3618  -17.8740   24.7300 C   0  0  0  0  0  0  0  0  0  0  0  0
    8.3038  -17.1771   23.8324 C   0  0  0  0  0  0  0  0  0  0  0  0
    7.8049  -15.9055   23.2357 C   0  0  2  0  0  0  0  0  0  0  0  0
    8.3224  -15.6809   21.9217 N   0  0  0  0  0  0  0  0  0  0  0  0
    8.2268  -14.7844   24.1347 C   0  0  0  0  0  0  0  0  0  0  0  0
    9.3954  -14.3687   24.0562 O   0  0  0  0  0  0  0  0  0  0  0  0
    7.3133  -14.2170   25.0468 N   0  0  0  0  0  0  0  0  0  0  0  0
    7.6835  -13.1999   26.0094 C   0  0  1  0  0  0  0  0  0  0  0  0
    6.6971  -12.0630   25.9938 C   0  0  0  0  0  0  0  0  0  0  0  0
    5.4619  -12.2312   27.2914 S   0  0  0  0  0  0  0  0  0  0  0  0
    7.8094  -13.7645   27.3650 C   0  0  0  0  0  0  0  0  0  0  0  0
    8.3928  -13.0697   28.4083 O   0  0  0  0  0  0  0  0  0  0  0  0
    7.3697  -14.9183   27.5784 O   0  0  0  0  0  0  0  0  0  0  0  0
  1  2  1  0
  3  5  1  0
  3  4  1  6
  3  2  1  0
  5  6  2  0
  7  8  1  0
  8 10  1  0
  9  8  2  0
 10 11  1  0
 12 11  1  1
 12 14  1  0
 13 12  1  0
 13  5  1  0
 14 15  2  0
 14 16  1  0
 16 17  1  0
 17 20  1  0
 17 18  1  1
 19 18  1  0
 20 22  2  0
 20 21  1  0
M  END
$$$$
