SQC.pdb
     RDKit          3D

 22 21  0  0  1  0  0  0  0  0999 V2000
    9.3906  -14.9594   16.7453 O   0  0  0  0  0  0  0  0  0  0  0  0
    8.2478  -15.2226   17.5189 C   0  0  0  0  0  0  0  0  0  0  0  0
    7.9984  -14.0265   18.3930 C   0  0  2  0  0  0  0  0  0  0  0  0
    7.8839  -12.7786   17.7136 N   0  0  0  0  0  0  0  0  0  0  0  0
    9.0565  -13.9672   19.4546 C   0  0  0  0  0  0  0  0  0  0  0  0
   10.0099  -13.1278   19.3589 O   0  0  0  0  0  0  0  0  0  0  0  0
   10.1845  -17.0298   25.0895 N   0  0  0  0  0  0  0  0  0  0  0  0
    9.6290  -17.6538   23.9262 C   0  0  0  0  0  0  0  0  0  0  0  0
    9.4544  -18.8871   23.8988 O   0  0  0  0  0  0  0  0  0  0  0  0
    9.2940  -16.7833   22.8001 C   0  0  0  0  0  0  0  0  0  0  0  0
    9.6658  -15.3561   22.8614 C   0  0  0  0  0  0  0  0  0  0  0  0
   10.0742  -14.7400   21.5670 C   0  0  2  0  0  0  0  0  0  0  0  0
    9.0449  -14.8197   20.5775 N   0  0  0  0  0  0  0  0  0  0  0  0
   11.2895  -15.4671   21.0800 C   0  0  0  0  0  0  0  0  0  0  0  0
   11.1421  -16.5839   20.5549 O   0  0  0  0  0  0  0  0  0  0  0  0
   12.5695  -14.8914   21.2163 N   0  0  0  0  0  0  0  0  0  0  0  0
   13.7851  -15.5523   20.7876 C   0  0  1  0  0  0  0  0  0  0  0  0
   14.6199  -14.6367   19.9328 C   0  0  0  0  0  0  0  0  0  0  0  0
   13.7363  -14.1091   18.4569 S   0  0  0  0  0  0  0  0  0  0  0  0
   14.5621  -16.0460   21.9386 C   0  0  0  0  0  0  0  0  0  0  0  0
   14.1340  -15.8940   23.2445 O   0  0  0  0  0  0  0  0  0  0  0  0
   15.6518  -16.6259   21.7234 O   0  0  0  0  0  0  0  0  0  0  0  0
  1  2  1  0
  3  5  1  0
  3  4  1  6
  3  2  1  0
  5  6  2  0
  7  8  1  0
  8 10  1  0
  9  8  2  0
 10 11  1  0
 12 11  1  1
 12 14  1  0
 13 12  1  0
 13  5  1  0
 14 15  2  0
 14 16  1  0
 16 17  1  0
 17 20  1  0
 17 18  1  1
 19 18  1  0
 20 22  2  0
 20 21  1  0
M  END
$$$$
