SQC.pdb
     RDKit          3D

 22 21  0  0  1  0  0  0  0  0999 V2000
   -2.5881  -28.5332   29.2893 O   0  0  0  0  0  0  0  0  0  0  0  0
   -2.8258  -27.2779   29.8736 C   0  0  0  0  0  0  0  0  0  0  0  0
   -2.5696  -26.2285   28.8295 C   0  0  2  0  0  0  0  0  0  0  0  0
   -1.2349  -25.7319   28.7679 N   0  0  0  0  0  0  0  0  0  0  0  0
   -3.5533  -25.1102   29.0082 C   0  0  0  0  0  0  0  0  0  0  0  0
   -3.4069  -24.2781   29.9615 O   0  0  0  0  0  0  0  0  0  0  0  0
   -7.0728  -21.9875   24.7806 N   0  0  0  0  0  0  0  0  0  0  0  0
   -7.4881  -21.4533   26.0429 C   0  0  0  0  0  0  0  0  0  0  0  0
   -8.2328  -20.4556   26.0874 O   0  0  0  0  0  0  0  0  0  0  0  0
   -6.9946  -22.1251   27.2444 C   0  0  0  0  0  0  0  0  0  0  0  0
   -6.0890  -23.2816   27.0988 C   0  0  0  0  0  0  0  0  0  0  0  0
   -5.5969  -23.8795   28.3725 C   0  0  2  0  0  0  0  0  0  0  0  0
   -4.6591  -24.9362   28.1511 N   0  0  0  0  0  0  0  0  0  0  0  0
   -6.7837  -24.4148   29.1127 C   0  0  0  0  0  0  0  0  0  0  0  0
   -7.2678  -25.5010   28.7514 O   0  0  0  0  0  0  0  0  0  0  0  0
   -7.3341  -23.6980   30.1950 N   0  0  0  0  0  0  0  0  0  0  0  0
   -8.4657  -24.1716   30.9653 C   0  0  1  0  0  0  0  0  0  0  0  0
   -8.0247  -24.6656   32.3171 C   0  0  0  0  0  0  0  0  0  0  0  0
   -9.4255  -25.0233   33.3882 S   0  0  0  0  0  0  0  0  0  0  0  0
   -9.4972  -23.1277   31.1009 C   0  0  0  0  0  0  0  0  0  0  0  0
  -10.8495  -23.4154   31.1068 O   0  0  0  0  0  0  0  0  0  0  0  0
   -9.1327  -21.9343   31.2158 O   0  0  0  0  0  0  0  0  0  0  0  0
  1  2  1  0
  3  5  1  0
  3  4  1  1
  3  2  1  0
  5  6  2  0
  7  8  1  0
  8 10  1  0
  9  8  2  0
 10 11  1  0
 12 11  1  6
 12 14  1  0
 13 12  1  0
 13  5  1  0
 14 15  2  0
 14 16  1  0
 16 17  1  0
 17 20  1  0
 17 18  1  1
 19 18  1  0
 20 22  2  0
 20 21  1  0
M  END
$$$$
