SQC.pdb
     RDKit          3D

 22 21  0  0  1  0  0  0  0  0999 V2000
    7.0596  -12.1580   18.2680 O   0  0  0  0  0  0  0  0  0  0  0  0
    8.3974  -12.4452   18.5869 C   0  0  0  0  0  0  0  0  0  0  0  0
    8.8592  -13.5509   17.6808 C   0  0  2  0  0  0  0  0  0  0  0  0
    7.8284  -14.2621   16.9999 N   0  0  0  0  0  0  0  0  0  0  0  0
    9.7367  -14.4865   18.4585 C   0  0  0  0  0  0  0  0  0  0  0  0
    9.3287  -15.6608   18.7366 O   0  0  0  0  0  0  0  0  0  0  0  0
   16.0808  -15.9074   17.7920 N   0  0  0  0  0  0  0  0  0  0  0  0
   15.2230  -14.7613   17.8313 C   0  0  0  0  0  0  0  0  0  0  0  0
   15.6905  -13.6212   17.6473 O   0  0  0  0  0  0  0  0  0  0  0  0
   13.8055  -15.0001   18.0997 C   0  0  0  0  0  0  0  0  0  0  0  0
   13.2870  -14.7811   19.4642 C   0  0  0  0  0  0  0  0  0  0  0  0
   11.8295  -15.0335   19.6483 C   0  0  2  0  0  0  0  0  0  0  0  0
   11.0203  -14.1156   18.9082 N   0  0  0  0  0  0  0  0  0  0  0  0
   11.5250  -14.8993   21.1085 C   0  0  0  0  0  0  0  0  0  0  0  0
   11.4165  -13.7584   21.5895 O   0  0  0  0  0  0  0  0  0  0  0  0
   11.3651  -16.0457   21.9138 N   0  0  0  0  0  0  0  0  0  0  0  0
   10.9814  -15.9862   23.3093 C   0  0  1  0  0  0  0  0  0  0  0  0
    9.6308  -15.3405   23.4667 C   0  0  0  0  0  0  0  0  0  0  0  0
    8.3294  -16.3154   22.6963 S   0  0  0  0  0  0  0  0  0  0  0  0
   10.9967  -17.3241   23.9275 C   0  0  0  0  0  0  0  0  0  0  0  0
   11.1522  -18.4824   23.1889 O   0  0  0  0  0  0  0  0  0  0  0  0
   10.8640  -17.4131   25.1704 O   0  0  0  0  0  0  0  0  0  0  0  0
  1  2  1  0
  3  5  1  0
  3  4  1  1
  3  2  1  0
  5  6  2  0
  7  8  1  0
  8 10  1  0
  9  8  2  0
 10 11  1  0
 12 11  1  1
 12 14  1  0
 13 12  1  0
 13  5  1  0
 14 15  2  0
 14 16  1  0
 16 17  1  0
 17 20  1  0
 17 18  1  6
 19 18  1  0
 20 22  2  0
 20 21  1  0
M  END
$$$$
