SQC.pdb
     RDKit          3D

 22 21  0  0  1  0  0  0  0  0999 V2000
    9.5182  -11.8529   18.8201 O   0  0  0  0  0  0  0  0  0  0  0  0
    8.5885  -12.3087   19.7698 C   0  0  0  0  0  0  0  0  0  0  0  0
    8.2832  -13.7469   19.4614 C   0  0  2  0  0  0  0  0  0  0  0  0
    7.2519  -13.9671   18.5023 N   0  0  0  0  0  0  0  0  0  0  0  0
    7.9918  -14.4708   20.7425 C   0  0  0  0  0  0  0  0  0  0  0  0
    6.7865  -14.6511   21.1133 O   0  0  0  0  0  0  0  0  0  0  0  0
   10.9949  -19.4146   23.0582 N   0  0  0  0  0  0  0  0  0  0  0  0
    9.9809  -19.1627   24.0379 C   0  0  0  0  0  0  0  0  0  0  0  0
    9.7651  -19.9898   24.9442 O   0  0  0  0  0  0  0  0  0  0  0  0
    9.2293  -17.9148   23.9116 C   0  0  0  0  0  0  0  0  0  0  0  0
    9.5390  -17.0007   22.7948 C   0  0  0  0  0  0  0  0  0  0  0  0
    8.7021  -15.7696   22.7182 C   0  0  2  0  0  0  0  0  0  0  0  0
    9.0145  -14.9693   21.5749 N   0  0  0  0  0  0  0  0  0  0  0  0
    8.9466  -14.9745   23.9636 C   0  0  0  0  0  0  0  0  0  0  0  0
   10.0697  -14.4705   24.1348 O   0  0  0  0  0  0  0  0  0  0  0  0
    7.9208  -14.8044   24.9160 N   0  0  0  0  0  0  0  0  0  0  0  0
    8.0733  -13.9968   26.1088 C   0  0  1  0  0  0  0  0  0  0  0  0
    6.7426  -13.4651   26.5697 C   0  0  0  0  0  0  0  0  0  0  0  0
    6.1219  -12.1776   25.4767 S   0  0  0  0  0  0  0  0  0  0  0  0
    8.7365  -14.7519   27.1869 C   0  0  0  0  0  0  0  0  0  0  0  0
    9.1370  -14.1606   28.3708 O   0  0  0  0  0  0  0  0  0  0  0  0
    8.9439  -15.9767   27.0227 O   0  0  0  0  0  0  0  0  0  0  0  0
  1  2  1  0
  3  5  1  0
  3  4  1  6
  3  2  1  0
  5  6  2  0
  7  8  1  0
  8 10  1  0
  9  8  2  0
 10 11  1  0
 12 11  1  1
 12 14  1  0
 13 12  1  0
 13  5  1  0
 14 15  2  0
 14 16  1  0
 16 17  1  0
 17 20  1  0
 17 18  1  1
 19 18  1  0
 20 22  2  0
 20 21  1  0
M  END
$$$$
