SQC.pdb
     RDKit          3D

 22 21  0  0  1  0  0  0  0  0999 V2000
    7.5093  -17.4658   19.4271 O   0  0  0  0  0  0  0  0  0  0  0  0
    7.9730  -16.4352   18.5924 C   0  0  0  0  0  0  0  0  0  0  0  0
    9.1147  -16.9786   17.7812 C   0  0  2  0  0  0  0  0  0  0  0  0
    8.9143  -18.2757   17.2250 N   0  0  0  0  0  0  0  0  0  0  0  0
   10.3664  -16.9333   18.6064 C   0  0  0  0  0  0  0  0  0  0  0  0
   10.7362  -17.9614   19.2615 O   0  0  0  0  0  0  0  0  0  0  0  0
   15.3757  -13.0019   18.0311 N   0  0  0  0  0  0  0  0  0  0  0  0
   15.7338  -13.8928   19.0938 C   0  0  0  0  0  0  0  0  0  0  0  0
   16.8772  -13.8531   19.5870 O   0  0  0  0  0  0  0  0  0  0  0  0
   14.7089  -14.8311   19.5492 C   0  0  0  0  0  0  0  0  0  0  0  0
   13.3631  -14.7718   18.9459 C   0  0  0  0  0  0  0  0  0  0  0  0
   12.3914  -15.7904   19.4359 C   0  0  2  0  0  0  0  0  0  0  0  0
   11.1688  -15.7774   18.6942 N   0  0  0  0  0  0  0  0  0  0  0  0
   12.1034  -15.4899   20.8746 C   0  0  0  0  0  0  0  0  0  0  0  0
   11.4041  -14.4988   21.1452 O   0  0  0  0  0  0  0  0  0  0  0  0
   12.6165  -16.3177   21.8943 N   0  0  0  0  0  0  0  0  0  0  0  0
   12.2122  -16.2093   23.2811 C   0  0  1  0  0  0  0  0  0  0  0  0
   10.7158  -16.3056   23.4121 C   0  0  0  0  0  0  0  0  0  0  0  0
   10.1998  -16.4008   25.1332 S   0  0  0  0  0  0  0  0  0  0  0  0
   12.8768  -17.2268   24.1149 C   0  0  0  0  0  0  0  0  0  0  0  0
   13.6313  -18.2523   23.5758 O   0  0  0  0  0  0  0  0  0  0  0  0
   12.7526  -17.1579   25.3598 O   0  0  0  0  0  0  0  0  0  0  0  0
  1  2  1  0
  3  5  1  0
  3  4  1  1
  3  2  1  0
  5  6  2  0
  7  8  1  0
  8 10  1  0
  9  8  2  0
 10 11  1  0
 12 11  1  6
 12 14  1  0
 13 12  1  0
 13  5  1  0
 14 15  2  0
 14 16  1  0
 16 17  1  0
 17 20  1  0
 17 18  1  6
 19 18  1  0
 20 22  2  0
 20 21  1  0
M  END
$$$$
