SQC.pdb
     RDKit          3D

 22 21  0  0  1  0  0  0  0  0999 V2000
    9.0559  -14.7548   19.8309 O   0  0  0  0  0  0  0  0  0  0  0  0
    9.3373  -16.1150   20.0422 C   0  0  0  0  0  0  0  0  0  0  0  0
    8.0288  -16.8489   20.1201 C   0  0  2  0  0  0  0  0  0  0  0  0
    7.0798  -16.5280   19.1061 N   0  0  0  0  0  0  0  0  0  0  0  0
    7.4420  -16.6589   21.4874 C   0  0  0  0  0  0  0  0  0  0  0  0
    6.3602  -16.0019   21.6317 O   0  0  0  0  0  0  0  0  0  0  0  0
    8.8247  -19.6621   27.0410 N   0  0  0  0  0  0  0  0  0  0  0  0
    7.5496  -19.0327   27.2115 C   0  0  0  0  0  0  0  0  0  0  0  0
    6.8803  -19.2405   28.2416 O   0  0  0  0  0  0  0  0  0  0  0  0
    7.0883  -18.1608   26.1321 C   0  0  0  0  0  0  0  0  0  0  0  0
    7.9251  -18.0086   24.9258 C   0  0  0  0  0  0  0  0  0  0  0  0
    7.4471  -17.0060   23.9317 C   0  0  2  0  0  0  0  0  0  0  0  0
    8.0488  -17.1838   22.6467 N   0  0  0  0  0  0  0  0  0  0  0  0
    7.7886  -15.6456   24.4567 C   0  0  0  0  0  0  0  0  0  0  0  0
    8.8985  -15.1623   24.1749 O   0  0  0  0  0  0  0  0  0  0  0  0
    6.8667  -14.9338   25.2516 N   0  0  0  0  0  0  0  0  0  0  0  0
    7.1566  -13.6397   25.8342 C   0  0  1  0  0  0  0  0  0  0  0  0
    5.8871  -12.9311   26.2241 C   0  0  0  0  0  0  0  0  0  0  0  0
    6.2201  -11.4003   27.1090 S   0  0  0  0  0  0  0  0  0  0  0  0
    8.0630  -13.7625   26.9899 C   0  0  0  0  0  0  0  0  0  0  0  0
    8.7864  -12.6928   27.4840 O   0  0  0  0  0  0  0  0  0  0  0  0
    8.1808  -14.8797   27.5450 O   0  0  0  0  0  0  0  0  0  0  0  0
  1  2  1  0
  3  5  1  0
  3  4  1  6
  3  2  1  0
  5  6  2  0
  7  8  1  0
  8 10  1  0
  9  8  2  0
 10 11  1  0
 12 11  1  1
 12 14  1  0
 13 12  1  0
 13  5  1  0
 14 15  2  0
 14 16  1  0
 16 17  1  0
 17 20  1  0
 17 18  1  1
 19 18  1  0
 20 22  2  0
 20 21  1  0
M  END
$$$$
