SQC.pdb
     RDKit          3D

 22 21  0  0  1  0  0  0  0  0999 V2000
   10.0929  -12.6396   19.7938 O   0  0  0  0  0  0  0  0  0  0  0  0
    9.8713  -13.9079   19.2315 C   0  0  0  0  0  0  0  0  0  0  0  0
    8.3871  -14.1342   19.1774 C   0  0  2  0  0  0  0  0  0  0  0  0
    7.6291  -13.1084   18.5411 N   0  0  0  0  0  0  0  0  0  0  0  0
    7.8813  -14.3964   20.5651 C   0  0  0  0  0  0  0  0  0  0  0  0
    7.1966  -13.5104   21.1725 O   0  0  0  0  0  0  0  0  0  0  0  0
    7.4636  -19.1595   26.1265 N   0  0  0  0  0  0  0  0  0  0  0  0
    7.2499  -19.0289   24.7163 C   0  0  0  0  0  0  0  0  0  0  0  0
    7.2375  -20.0392   23.9875 O   0  0  0  0  0  0  0  0  0  0  0  0
    7.0592  -17.6761   24.1949 C   0  0  0  0  0  0  0  0  0  0  0  0
    7.7827  -17.2693   22.9743 C   0  0  0  0  0  0  0  0  0  0  0  0
    7.5330  -15.8745   22.5115 C   0  0  2  0  0  0  0  0  0  0  0  0
    8.1376  -15.6051   21.2439 N   0  0  0  0  0  0  0  0  0  0  0  0
    8.0996  -14.9451   23.5402 C   0  0  0  0  0  0  0  0  0  0  0  0
    8.8395  -14.0210   23.1615 O   0  0  0  0  0  0  0  0  0  0  0  0
    7.7957  -15.1195   24.9060 N   0  0  0  0  0  0  0  0  0  0  0  0
    7.7632  -14.0266   25.8561 C   0  0  1  0  0  0  0  0  0  0  0  0
    6.7409  -12.9974   25.4542 C   0  0  0  0  0  0  0  0  0  0  0  0
    6.5167  -11.7449   26.7264 S   0  0  0  0  0  0  0  0  0  0  0  0
    7.5066  -14.5121   27.2239 C   0  0  0  0  0  0  0  0  0  0  0  0
    8.0304  -13.8920   28.3431 O   0  0  0  0  0  0  0  0  0  0  0  0
    6.7854  -15.5255   27.3762 O   0  0  0  0  0  0  0  0  0  0  0  0
  1  2  1  0
  3  5  1  0
  3  4  1  1
  3  2  1  0
  5  6  2  0
  7  8  1  0
  8 10  1  0
  9  8  2  0
 10 11  1  0
 12 11  1  1
 12 14  1  0
 13 12  1  0
 13  5  1  0
 14 15  2  0
 14 16  1  0
 16 17  1  0
 17 20  1  0
 17 18  1  6
 19 18  1  0
 20 22  2  0
 20 21  1  0
M  END
$$$$
