SQC.pdb
     RDKit          3D

 22 21  0  0  1  0  0  0  0  0999 V2000
    9.0849  -12.3553   19.9798 O   0  0  0  0  0  0  0  0  0  0  0  0
    7.8719  -12.5803   19.3076 C   0  0  0  0  0  0  0  0  0  0  0  0
    7.6557  -14.0651   19.2334 C   0  0  2  0  0  0  0  0  0  0  0  0
    6.5118  -14.4861   18.4943 N   0  0  0  0  0  0  0  0  0  0  0  0
    7.6357  -14.6267   20.6242 C   0  0  0  0  0  0  0  0  0  0  0  0
    6.5360  -14.7141   21.2612 O   0  0  0  0  0  0  0  0  0  0  0  0
   11.6126  -18.8127   23.2750 N   0  0  0  0  0  0  0  0  0  0  0  0
   10.7557  -18.4296   24.3567 C   0  0  0  0  0  0  0  0  0  0  0  0
   10.8336  -19.0122   25.4552 O   0  0  0  0  0  0  0  0  0  0  0  0
    9.8048  -17.3486   24.1013 C   0  0  0  0  0  0  0  0  0  0  0  0
    9.7829  -16.7122   22.7697 C   0  0  0  0  0  0  0  0  0  0  0  0
    8.7405  -15.6651   22.5726 C   0  0  2  0  0  0  0  0  0  0  0  0
    8.8058  -15.0695   21.2741 N   0  0  0  0  0  0  0  0  0  0  0  0
    8.9518  -14.6103   23.6145 C   0  0  0  0  0  0  0  0  0  0  0  0
    9.3628  -13.4941   23.2541 O   0  0  0  0  0  0  0  0  0  0  0  0
    8.6874  -14.8836   24.9724 N   0  0  0  0  0  0  0  0  0  0  0  0
    8.2934  -13.8646   25.9234 C   0  0  1  0  0  0  0  0  0  0  0  0
    7.0611  -13.1397   25.4524 C   0  0  0  0  0  0  0  0  0  0  0  0
    6.4825  -11.9450   26.6669 S   0  0  0  0  0  0  0  0  0  0  0  0
    8.0830  -14.4359   27.2657 C   0  0  0  0  0  0  0  0  0  0  0  0
    8.5323  -13.8151   28.4165 O   0  0  0  0  0  0  0  0  0  0  0  0
    7.4729  -15.5258   27.3658 O   0  0  0  0  0  0  0  0  0  0  0  0
  1  2  1  0
  3  5  1  0
  3  4  1  1
  3  2  1  0
  5  6  2  0
  7  8  1  0
  8 10  1  0
  9  8  2  0
 10 11  1  0
 12 11  1  6
 12 14  1  0
 13 12  1  0
 13  5  1  0
 14 15  2  0
 14 16  1  0
 16 17  1  0
 17 20  1  0
 17 18  1  6
 19 18  1  0
 20 22  2  0
 20 21  1  0
M  END
$$$$
