SQC.pdb
     RDKit          3D

 22 21  0  0  1  0  0  0  0  0999 V2000
    7.0929  -20.2300   22.8294 O   0  0  0  0  0  0  0  0  0  0  0  0
    7.7025  -20.0928   21.5711 C   0  0  0  0  0  0  0  0  0  0  0  0
    7.0989  -18.8942   20.8958 C   0  0  2  0  0  0  0  0  0  0  0  0
    6.4264  -19.1522   19.6657 N   0  0  0  0  0  0  0  0  0  0  0  0
    8.1576  -17.8458   20.7220 C   0  0  0  0  0  0  0  0  0  0  0  0
    9.3246  -18.1761   20.3324 O   0  0  0  0  0  0  0  0  0  0  0  0
    7.3201  -12.3509   18.3679 N   0  0  0  0  0  0  0  0  0  0  0  0
    7.6463  -13.5910   17.7298 C   0  0  0  0  0  0  0  0  0  0  0  0
    7.4103  -13.7536   16.5173 O   0  0  0  0  0  0  0  0  0  0  0  0
    8.2498  -14.6296   18.5636 C   0  0  0  0  0  0  0  0  0  0  0  0
    8.5070  -14.3457   19.9891 C   0  0  0  0  0  0  0  0  0  0  0  0
    8.9501  -15.5093   20.8085 C   0  0  2  0  0  0  0  0  0  0  0  0
    7.9148  -16.4810   20.9788 N   0  0  0  0  0  0  0  0  0  0  0  0
    9.3691  -14.9891   22.1490 C   0  0  0  0  0  0  0  0  0  0  0  0
    9.0914  -13.8138   22.4426 O   0  0  0  0  0  0  0  0  0  0  0  0
   10.0620  -15.8198   23.0535 N   0  0  0  0  0  0  0  0  0  0  0  0
    9.7201  -15.9209   24.4574 C   0  0  1  0  0  0  0  0  0  0  0  0
    8.2675  -16.2751   24.6311 C   0  0  0  0  0  0  0  0  0  0  0  0
    7.4766  -15.2585   25.8874 S   0  0  0  0  0  0  0  0  0  0  0  0
   10.5823  -16.8946   25.1509 C   0  0  0  0  0  0  0  0  0  0  0  0
   11.3041  -16.5726   26.2853 O   0  0  0  0  0  0  0  0  0  0  0  0
   10.6625  -18.0585   24.6937 O   0  0  0  0  0  0  0  0  0  0  0  0
  1  2  1  0
  3  5  1  0
  3  4  1  6
  3  2  1  0
  5  6  2  0
  7  8  1  0
  8 10  1  0
  9  8  2  0
 10 11  1  0
 12 11  1  6
 12 14  1  0
 13 12  1  0
 13  5  1  0
 14 15  2  0
 14 16  1  0
 16 17  1  0
 17 20  1  0
 17 18  1  6
 19 18  1  0
 20 22  2  0
 20 21  1  0
M  END
$$$$
