QCM.pdb
     RDKit          3D

 24 23  0  0  1  0  0  0  0  0999 V2000
   19.4763  -15.6072  -15.3682 N   0  0  0  0  0  0  0  0  0  0  0  0
   18.9891  -15.7789  -16.7199 C   0  0  0  0  0  0  0  0  0  0  0  0
   18.9849  -16.9599  -17.1430 O   0  0  0  0  0  0  0  0  0  0  0  0
   18.5410  -14.6280  -17.4967 C   0  0  0  0  0  0  0  0  0  0  0  0
   18.5201  -13.3204  -16.8147 C   0  0  0  0  0  0  0  0  0  0  0  0
   19.1724  -12.1728  -17.4999 C   0  0  2  0  0  0  0  0  0  0  0  0
   20.2800  -12.5995  -18.3075 N   0  0  0  0  0  0  0  0  0  0  0  0
   19.6563  -11.1315  -16.5554 C   0  0  0  0  0  0  0  0  0  0  0  0
   18.8907  -10.6492  -15.6830 O   0  0  0  0  0  0  0  0  0  0  0  0
   20.9902  -10.6190  -16.5717 N   0  0  0  0  0  0  0  0  0  0  0  0
   21.4217   -9.5637  -15.6767 C   0  0  1  0  0  0  0  0  0  0  0  0
   22.8576   -9.9277  -15.2753 C   0  0  0  0  0  0  0  0  0  0  0  0
   23.9432  -10.0010  -16.6933 S   0  0  0  0  0  0  0  0  0  0  0  0
   21.3858   -8.2367  -16.3337 C   0  0  0  0  0  0  0  0  0  0  0  0
   21.6733   -8.0955  -17.5523 O   0  0  0  0  0  0  0  0  0  0  0  0
   17.3746   -2.3956  -18.7088 C   0  0  0  0  0  0  0  0  0  0  0  0
   17.6476   -4.0330  -18.0393 S   0  0  0  0  0  0  0  0  0  0  0  0
   19.2678   -4.2477  -17.3149 C   0  0  0  0  0  0  0  0  0  0  0  0
   19.5461   -5.6194  -16.7806 C   0  0  0  0  0  0  0  0  0  0  0  0
   20.9315   -5.7575  -16.1705 C   0  0  2  0  0  0  0  0  0  0  0  0
   21.0206   -7.1051  -15.5755 N   0  0  0  0  0  0  0  0  0  0  0  0
   21.1744   -4.7795  -15.1072 C   0  0  0  0  0  0  0  0  0  0  0  0
   21.0520   -5.1037  -13.9072 O   0  0  0  0  0  0  0  0  0  0  0  0
   21.5433   -3.4860  -15.4247 O   0  0  0  0  0  0  0  0  0  0  0  0
  1  2  1  0
  2  4  1  0
  3  2  2  0
  5  4  1  0
  6  5  1  0
  6  7  1  1
  8 10  1  0
  8  6  1  0
  9  8  2  0
 11 10  1  0
 11 14  1  0
 11 12  1  6
 13 12  1  0
 14 15  2  0
 14 21  1  0
 16 17  1  0
 18 17  1  0
 19 18  1  0
 20 19  1  1
 20 22  1  0
 21 20  1  0
 22 24  1  0
 23 22  2  0
M  END
$$$$
