QCM.pdb
     RDKit          3D

 24 23  0  0  1  0  0  0  0  0999 V2000
   24.1402  -15.2523  -15.5137 N   0  0  0  0  0  0  0  0  0  0  0  0
   25.2449  -14.8799  -16.3709 C   0  0  0  0  0  0  0  0  0  0  0  0
   25.2686  -13.6763  -16.7236 O   0  0  0  0  0  0  0  0  0  0  0  0
   26.2400  -15.8705  -16.7678 C   0  0  0  0  0  0  0  0  0  0  0  0
   26.0740  -17.2401  -16.2463 C   0  0  0  0  0  0  0  0  0  0  0  0
   26.5833  -17.5255  -14.8784 C   0  0  2  0  0  0  0  0  0  0  0  0
   28.0153  -17.4427  -14.8194 N   0  0  0  0  0  0  0  0  0  0  0  0
   26.1710  -18.8613  -14.3724 C   0  0  0  0  0  0  0  0  0  0  0  0
   25.5283  -19.6557  -15.1044 O   0  0  0  0  0  0  0  0  0  0  0  0
   26.4682  -19.3246  -13.0536 N   0  0  0  0  0  0  0  0  0  0  0  0
   26.0733  -20.6405  -12.5915 C   0  0  1  0  0  0  0  0  0  0  0  0
   26.8914  -21.6323  -13.4298 C   0  0  0  0  0  0  0  0  0  0  0  0
   28.6475  -21.3348  -13.2803 S   0  0  0  0  0  0  0  0  0  0  0  0
   26.3540  -20.8237  -11.1487 C   0  0  0  0  0  0  0  0  0  0  0  0
   27.4673  -20.5116  -10.6480 O   0  0  0  0  0  0  0  0  0  0  0  0
   27.8641  -18.0093   -6.8786 C   0  0  0  0  0  0  0  0  0  0  0  0
   28.2648  -19.6791   -6.3737 S   0  0  0  0  0  0  0  0  0  0  0  0
   27.1608  -20.9134   -7.0472 C   0  0  0  0  0  0  0  0  0  0  0  0
   26.5984  -20.5909   -8.3978 C   0  0  0  0  0  0  0  0  0  0  0  0
   25.5689  -21.6013   -8.8775 C   0  0  2  0  0  0  0  0  0  0  0  0
   25.3496  -21.3603  -10.3169 N   0  0  0  0  0  0  0  0  0  0  0  0
   24.2807  -21.4538   -8.1955 C   0  0  0  0  0  0  0  0  0  0  0  0
   24.1750  -21.7097   -6.9776 O   0  0  0  0  0  0  0  0  0  0  0  0
   23.1687  -21.0276   -8.8968 O   0  0  0  0  0  0  0  0  0  0  0  0
  1  2  1  0
  2  4  1  0
  3  2  2  0
  5  4  1  0
  6  5  1  0
  6  7  1  6
  8 10  1  0
  8  6  1  0
  9  8  2  0
 11 10  1  0
 11 14  1  0
 11 12  1  6
 13 12  1  0
 14 15  2  0
 14 21  1  0
 16 17  1  0
 18 17  1  0
 19 18  1  0
 20 19  1  1
 20 22  1  0
 21 20  1  0
 22 24  1  0
 23 22  2  0
M  END
$$$$
