QCM.pdb
     RDKit          3D

 24 23  0  0  1  0  0  0  0  0999 V2000
   11.4678  -10.9108   -9.1158 N   0  0  0  0  0  0  0  0  0  0  0  0
   11.9515   -9.7405   -8.4157 C   0  0  0  0  0  0  0  0  0  0  0  0
   11.4921   -9.5786   -7.2596 O   0  0  0  0  0  0  0  0  0  0  0  0
   12.9100   -8.8420   -9.0503 C   0  0  0  0  0  0  0  0  0  0  0  0
   13.3172   -9.1570  -10.4325 C   0  0  0  0  0  0  0  0  0  0  0  0
   14.7710   -9.3094  -10.7072 C   0  0  2  0  0  0  0  0  0  0  0  0
   15.4759   -9.8098   -9.5610 N   0  0  0  0  0  0  0  0  0  0  0  0
   15.4168   -8.0409  -11.1363 C   0  0  0  0  0  0  0  0  0  0  0  0
   14.8461   -7.2725  -11.9511 O   0  0  0  0  0  0  0  0  0  0  0  0
   16.6977   -7.6164  -10.6655 N   0  0  0  0  0  0  0  0  0  0  0  0
   17.2833   -6.3505  -11.0599 C   0  0  1  0  0  0  0  0  0  0  0  0
   16.6948   -5.3090  -10.0983 C   0  0  0  0  0  0  0  0  0  0  0  0
   17.0307   -5.7194   -8.3914 S   0  0  0  0  0  0  0  0  0  0  0  0
   18.7609   -6.3737  -10.9607 C   0  0  0  0  0  0  0  0  0  0  0  0
   19.3552   -7.1109  -10.1295 O   0  0  0  0  0  0  0  0  0  0  0  0
   23.9932   -9.6834  -13.7912 C   0  0  0  0  0  0  0  0  0  0  0  0
   22.5322   -9.0744  -12.9555 S   0  0  0  0  0  0  0  0  0  0  0  0
   21.5883   -7.9070  -13.9261 C   0  0  0  0  0  0  0  0  0  0  0  0
   20.4133   -7.3011  -13.2212 C   0  0  0  0  0  0  0  0  0  0  0  0
   20.7552   -6.0242  -12.4707 C   0  0  2  0  0  0  0  0  0  0  0  0
   19.5193   -5.5501  -11.8181 N   0  0  0  0  0  0  0  0  0  0  0  0
   21.2294   -4.9620  -13.3613 C   0  0  0  0  0  0  0  0  0  0  0  0
   20.4210   -4.3004  -14.0459 O   0  0  0  0  0  0  0  0  0  0  0  0
   22.5798   -4.6818  -13.4501 O   0  0  0  0  0  0  0  0  0  0  0  0
  1  2  1  0
  2  4  1  0
  3  2  2  0
  5  4  1  0
  6  5  1  0
  6  7  1  1
  8 10  1  0
  8  6  1  0
  9  8  2  0
 11 10  1  0
 11 14  1  0
 11 12  1  1
 13 12  1  0
 14 15  2  0
 14 21  1  0
 16 17  1  0
 18 17  1  0
 19 18  1  0
 20 19  1  6
 20 22  1  0
 21 20  1  0
 22 24  1  0
 23 22  2  0
M  END
$$$$
