QCM.pdb
     RDKit          3D

 24 23  0  0  1  0  0  0  0  0999 V2000
   12.9496  -11.3519   -9.6851 N   0  0  0  0  0  0  0  0  0  0  0  0
   13.5281  -12.3048  -10.6077 C   0  0  0  0  0  0  0  0  0  0  0  0
   13.3274  -13.5114  -10.3291 O   0  0  0  0  0  0  0  0  0  0  0  0
   14.2815  -11.8460  -11.7698 C   0  0  0  0  0  0  0  0  0  0  0  0
   14.4158  -10.3889  -11.9546 C   0  0  0  0  0  0  0  0  0  0  0  0
   15.7505   -9.7808  -11.7077 C   0  0  2  0  0  0  0  0  0  0  0  0
   16.3037  -10.2107  -10.4546 N   0  0  0  0  0  0  0  0  0  0  0  0
   15.7227   -8.2944  -11.7210 C   0  0  0  0  0  0  0  0  0  0  0  0
   15.2407   -7.6692  -12.6992 O   0  0  0  0  0  0  0  0  0  0  0  0
   16.2281   -7.4924  -10.6515 N   0  0  0  0  0  0  0  0  0  0  0  0
   16.1657   -6.0445  -10.6776 C   0  0  1  0  0  0  0  0  0  0  0  0
   16.4694   -5.5949   -9.2418 C   0  0  0  0  0  0  0  0  0  0  0  0
   15.1571   -6.0459   -8.1152 S   0  0  0  0  0  0  0  0  0  0  0  0
   17.1506   -5.4688  -11.6222 C   0  0  0  0  0  0  0  0  0  0  0  0
   18.3574   -5.8311  -11.6199 O   0  0  0  0  0  0  0  0  0  0  0  0
   18.1153   -3.0957  -18.9811 C   0  0  0  0  0  0  0  0  0  0  0  0
   17.0986   -3.7538  -17.6631 S   0  0  0  0  0  0  0  0  0  0  0  0
   17.8155   -3.5503  -16.0382 C   0  0  0  0  0  0  0  0  0  0  0  0
   17.0367   -4.1726  -14.9198 C   0  0  0  0  0  0  0  0  0  0  0  0
   17.6388   -3.9103  -13.5489 C   0  0  2  0  0  0  0  0  0  0  0  0
   16.7256   -4.4916  -12.5459 N   0  0  0  0  0  0  0  0  0  0  0  0
   17.7716   -2.4800  -13.2608 C   0  0  0  0  0  0  0  0  0  0  0  0
   16.8430   -1.8561  -12.7056 O   0  0  0  0  0  0  0  0  0  0  0  0
   18.9301   -1.8079  -13.6013 O   0  0  0  0  0  0  0  0  0  0  0  0
  1  2  1  0
  2  4  1  0
  3  2  2  0
  5  4  1  0
  6  5  1  0
  6  7  1  1
  8 10  1  0
  8  6  1  0
  9  8  2  0
 11 10  1  0
 11 14  1  0
 11 12  1  1
 13 12  1  0
 14 15  2  0
 14 21  1  0
 16 17  1  0
 18 17  1  0
 19 18  1  0
 20 19  1  6
 20 22  1  0
 21 20  1  0
 22 24  1  0
 23 22  2  0
M  END
$$$$
