QCM.pdb
     RDKit          3D

 24 23  0  0  1  0  0  0  0  0999 V2000
   19.4071  -14.8202  -15.1162 N   0  0  0  0  0  0  0  0  0  0  0  0
   18.1555  -15.4518  -15.4745 C   0  0  0  0  0  0  0  0  0  0  0  0
   17.9656  -16.5876  -14.9769 O   0  0  0  0  0  0  0  0  0  0  0  0
   17.2095  -14.7734  -16.3542 C   0  0  0  0  0  0  0  0  0  0  0  0
   17.6023  -13.4510  -16.8760 C   0  0  0  0  0  0  0  0  0  0  0  0
   16.7102  -12.2983  -16.5804 C   0  0  2  0  0  0  0  0  0  0  0  0
   15.4600  -12.4048  -17.2782 N   0  0  0  0  0  0  0  0  0  0  0  0
   17.3243  -10.9873  -16.9188 C   0  0  0  0  0  0  0  0  0  0  0  0
   16.9831  -10.3664  -17.9571 O   0  0  0  0  0  0  0  0  0  0  0  0
   18.3190  -10.3566  -16.1094 N   0  0  0  0  0  0  0  0  0  0  0  0
   18.8975   -9.0742  -16.4583 C   0  0  1  0  0  0  0  0  0  0  0  0
   17.7767   -8.0473  -16.2462 C   0  0  0  0  0  0  0  0  0  0  0  0
   17.1160   -8.1214  -14.5871 S   0  0  0  0  0  0  0  0  0  0  0  0
   20.0675   -8.7498  -15.6100 C   0  0  0  0  0  0  0  0  0  0  0  0
   20.1922   -9.2225  -14.4487 O   0  0  0  0  0  0  0  0  0  0  0  0
   26.7756  -11.0464  -15.1469 C   0  0  0  0  0  0  0  0  0  0  0  0
   25.1428  -10.8145  -15.8424 S   0  0  0  0  0  0  0  0  0  0  0  0
   24.6357   -9.1020  -15.9197 C   0  0  0  0  0  0  0  0  0  0  0  0
   23.2477   -8.8750  -16.4357 C   0  0  0  0  0  0  0  0  0  0  0  0
   22.4450   -7.8973  -15.5927 C   0  0  2  0  0  0  0  0  0  0  0  0
   21.0651   -7.8910  -16.1159 N   0  0  0  0  0  0  0  0  0  0  0  0
   22.9639   -6.5299  -15.6761 C   0  0  0  0  0  0  0  0  0  0  0  0
   22.4755   -5.7145  -16.4864 O   0  0  0  0  0  0  0  0  0  0  0  0
   24.0010   -6.1295  -14.8550 O   0  0  0  0  0  0  0  0  0  0  0  0
  1  2  1  0
  2  4  1  0
  3  2  2  0
  5  4  1  0
  6  5  1  0
  6  7  1  6
  8 10  1  0
  8  6  1  0
  9  8  2  0
 11 10  1  0
 11 14  1  0
 11 12  1  1
 13 12  1  0
 14 15  2  0
 14 21  1  0
 16 17  1  0
 18 17  1  0
 19 18  1  0
 20 19  1  6
 20 22  1  0
 21 20  1  0
 22 24  1  0
 23 22  2  0
M  END
$$$$
