QCM.pdb
     RDKit          3D

 24 23  0  0  1  0  0  0  0  0999 V2000
   14.4250  -12.7292  -13.3335 N   0  0  0  0  0  0  0  0  0  0  0  0
   15.4824  -11.8796  -12.8294 C   0  0  0  0  0  0  0  0  0  0  0  0
   16.5478  -11.8986  -13.4915 O   0  0  0  0  0  0  0  0  0  0  0  0
   15.2753  -11.0719  -11.6321 C   0  0  0  0  0  0  0  0  0  0  0  0
   13.9608  -11.1705  -10.9707 C   0  0  0  0  0  0  0  0  0  0  0  0
   13.7825  -10.4581   -9.6773 C   0  0  2  0  0  0  0  0  0  0  0  0
   12.4414  -10.5895   -9.1819 N   0  0  0  0  0  0  0  0  0  0  0  0
   14.1099   -9.0104   -9.7619 C   0  0  0  0  0  0  0  0  0  0  0  0
   13.3583   -8.2165  -10.3822 O   0  0  0  0  0  0  0  0  0  0  0  0
   15.2709   -8.4340   -9.1600 N   0  0  0  0  0  0  0  0  0  0  0  0
   15.6301   -7.0432   -9.3542 C   0  0  1  0  0  0  0  0  0  0  0  0
   15.4374   -6.3749   -7.9861 C   0  0  0  0  0  0  0  0  0  0  0  0
   13.7111   -6.0749   -7.6330 S   0  0  0  0  0  0  0  0  0  0  0  0
   17.0309   -6.8960   -9.8123 C   0  0  0  0  0  0  0  0  0  0  0  0
   17.9559   -7.6153   -9.3491 O   0  0  0  0  0  0  0  0  0  0  0  0
   22.4891   -8.7648  -14.0556 C   0  0  0  0  0  0  0  0  0  0  0  0
   20.8515   -8.7686  -13.3331 S   0  0  0  0  0  0  0  0  0  0  0  0
   20.3458   -7.1746  -12.7011 C   0  0  0  0  0  0  0  0  0  0  0  0
   19.0319   -7.1665  -11.9813 C   0  0  0  0  0  0  0  0  0  0  0  0
   18.6786   -5.8115  -11.3897 C   0  0  2  0  0  0  0  0  0  0  0  0
   17.3349   -5.9269  -10.7906 N   0  0  0  0  0  0  0  0  0  0  0  0
   18.6300   -4.7545  -12.4029 C   0  0  0  0  0  0  0  0  0  0  0  0
   17.5655   -4.5019  -13.0053 O   0  0  0  0  0  0  0  0  0  0  0  0
   19.7656   -4.0250  -12.7002 O   0  0  0  0  0  0  0  0  0  0  0  0
  1  2  1  0
  2  4  1  0
  3  2  2  0
  5  4  1  0
  6  5  1  0
  6  7  1  6
  8 10  1  0
  8  6  1  0
  9  8  2  0
 11 10  1  0
 11 14  1  0
 11 12  1  1
 13 12  1  0
 14 15  2  0
 14 21  1  0
 16 17  1  0
 18 17  1  0
 19 18  1  0
 20 19  1  6
 20 22  1  0
 21 20  1  0
 22 24  1  0
 23 22  2  0
M  END
$$$$
