QCM.pdb
     RDKit          3D

 24 23  0  0  1  0  0  0  0  0999 V2000
   20.5577  -15.1565  -18.2858 N   0  0  0  0  0  0  0  0  0  0  0  0
   21.6716  -16.0714  -18.1594 C   0  0  0  0  0  0  0  0  0  0  0  0
   21.4195  -17.2667  -18.4446 O   0  0  0  0  0  0  0  0  0  0  0  0
   22.9800  -15.5893  -17.7300 C   0  0  0  0  0  0  0  0  0  0  0  0
   23.1302  -14.1363  -17.5261 C   0  0  0  0  0  0  0  0  0  0  0  0
   23.2155  -13.2737  -18.7347 C   0  0  2  0  0  0  0  0  0  0  0  0
   24.4415  -13.4866  -19.4507 N   0  0  0  0  0  0  0  0  0  0  0  0
   23.1019  -11.8245  -18.4228 C   0  0  0  0  0  0  0  0  0  0  0  0
   24.1149  -11.1558  -18.0963 O   0  0  0  0  0  0  0  0  0  0  0  0
   21.8663  -11.1080  -18.4709 N   0  0  0  0  0  0  0  0  0  0  0  0
   21.7697   -9.7115  -18.0951 C   0  0  1  0  0  0  0  0  0  0  0  0
   21.0660   -9.0182  -19.2698 C   0  0  0  0  0  0  0  0  0  0  0  0
   19.5320   -9.8307  -19.6954 S   0  0  0  0  0  0  0  0  0  0  0  0
   20.9958   -9.5307  -16.8452 C   0  0  0  0  0  0  0  0  0  0  0  0
   19.9652  -10.2136  -16.6024 O   0  0  0  0  0  0  0  0  0  0  0  0
   23.2235  -10.5168  -11.3465 C   0  0  0  0  0  0  0  0  0  0  0  0
   21.9942   -9.3311  -10.8113 S   0  0  0  0  0  0  0  0  0  0  0  0
   21.0333   -8.6432  -12.1527 C   0  0  0  0  0  0  0  0  0  0  0  0
   21.5412   -8.9640  -13.5251 C   0  0  0  0  0  0  0  0  0  0  0  0
   20.7089   -8.3425  -14.6350 C   0  0  2  0  0  0  0  0  0  0  0  0
   21.4243   -8.5706  -15.9054 N   0  0  0  0  0  0  0  0  0  0  0  0
   20.5418   -6.8969  -14.4662 C   0  0  0  0  0  0  0  0  0  0  0  0
   19.5658   -6.4407  -13.8343 O   0  0  0  0  0  0  0  0  0  0  0  0
   21.4670   -6.0234  -15.0057 O   0  0  0  0  0  0  0  0  0  0  0  0
  1  2  1  0
  2  4  1  0
  3  2  2  0
  5  4  1  0
  6  5  1  0
  6  7  1  1
  8 10  1  0
  8  6  1  0
  9  8  2  0
 11 10  1  0
 11 14  1  0
 11 12  1  6
 13 12  1  0
 14 15  2  0
 14 21  1  0
 16 17  1  0
 18 17  1  0
 19 18  1  0
 20 19  1  1
 20 22  1  0
 21 20  1  0
 22 24  1  0
 23 22  2  0
M  END
$$$$
