QCM.pdb
     RDKit          3D

 24 23  0  0  1  0  0  0  0  0999 V2000
   22.1132  -32.9913  -16.2257 N   0  0  0  0  0  0  0  0  0  0  0  0
   22.1762  -32.7379  -14.8024 C   0  0  0  0  0  0  0  0  0  0  0  0
   21.2941  -33.3078  -14.1162 O   0  0  0  0  0  0  0  0  0  0  0  0
   23.2147  -31.8749  -14.2496 C   0  0  0  0  0  0  0  0  0  0  0  0
   24.2293  -31.3555  -15.1857 C   0  0  0  0  0  0  0  0  0  0  0  0
   25.0962  -32.3425  -15.8831 C   0  0  2  0  0  0  0  0  0  0  0  0
   25.9047  -33.0836  -14.9568 N   0  0  0  0  0  0  0  0  0  0  0  0
   25.9932  -31.7175  -16.8907 C   0  0  0  0  0  0  0  0  0  0  0  0
   25.8361  -30.5191  -17.2357 O   0  0  0  0  0  0  0  0  0  0  0  0
   27.0689  -32.4159  -17.5212 N   0  0  0  0  0  0  0  0  0  0  0  0
   28.2406  -31.7303  -18.0290 C   0  0  1  0  0  0  0  0  0  0  0  0
   28.8689  -31.0360  -16.8128 C   0  0  0  0  0  0  0  0  0  0  0  0
   30.5549  -30.5368  -17.1331 S   0  0  0  0  0  0  0  0  0  0  0  0
   29.2039  -32.6712  -18.6459 C   0  0  0  0  0  0  0  0  0  0  0  0
   29.7172  -33.6157  -17.9887 O   0  0  0  0  0  0  0  0  0  0  0  0
   28.9254  -34.5246  -25.3094 C   0  0  0  0  0  0  0  0  0  0  0  0
   29.4829  -35.7026  -24.0826 S   0  0  0  0  0  0  0  0  0  0  0  0
   30.4037  -34.9578  -22.7434 C   0  0  0  0  0  0  0  0  0  0  0  0
   29.6040  -34.0649  -21.8447 C   0  0  0  0  0  0  0  0  0  0  0  0
   30.4209  -33.4642  -20.7121 C   0  0  2  0  0  0  0  0  0  0  0  0
   29.5538  -32.5044  -20.0017 N   0  0  0  0  0  0  0  0  0  0  0  0
   31.5965  -32.7359  -21.1956 C   0  0  0  0  0  0  0  0  0  0  0  0
   32.6381  -33.3495  -21.5090 O   0  0  0  0  0  0  0  0  0  0  0  0
   31.5614  -31.3591  -21.3104 O   0  0  0  0  0  0  0  0  0  0  0  0
  1  2  1  0
  2  4  1  0
  3  2  2  0
  5  4  1  0
  6  5  1  0
  6  7  1  1
  8 10  1  0
  8  6  1  0
  9  8  2  0
 11 10  1  0
 11 14  1  0
 11 12  1  1
 13 12  1  0
 14 15  2  0
 14 21  1  0
 16 17  1  0
 18 17  1  0
 19 18  1  0
 20 19  1  6
 20 22  1  0
 21 20  1  0
 22 24  1  0
 23 22  2  0
M  END
$$$$
