KQT.pdb
     RDKit          3D

 26 25  0  0  1  0  0  0  0  0999 V2000
   22.0905  -20.6653  -15.0043 N   0  0  0  0  0  0  0  0  0  0  0  0
   21.1744  -19.8487  -15.7794 C   0  0  1  0  0  0  0  0  0  0  0  0
   19.8232  -19.7491  -15.0762 C   0  0  0  0  0  0  0  0  0  0  0  0
   19.0914  -21.0559  -15.3216 C   0  0  0  0  0  0  0  0  0  0  0  0
   17.8073  -21.1394  -14.5530 C   0  0  0  0  0  0  0  0  0  0  0  0
   17.0738  -22.4286  -14.7363 C   0  0  0  0  0  0  0  0  0  0  0  0
   15.9035  -22.3967  -13.8678 N   0  0  0  0  0  0  0  0  0  0  0  0
   21.7847  -18.5013  -15.9408 C   0  0  0  0  0  0  0  0  0  0  0  0
   22.4478  -17.9556  -14.9997 O   0  0  0  0  0  0  0  0  0  0  0  0
   25.1780  -17.5908  -20.2015 N   0  0  0  0  0  0  0  0  0  0  0  0
   25.2042  -16.2119  -19.9172 C   0  0  0  0  0  0  0  0  0  0  0  0
   26.0076  -15.4584  -20.4814 O   0  0  0  0  0  0  0  0  0  0  0  0
   24.2438  -15.6712  -18.9208 C   0  0  0  0  0  0  0  0  0  0  0  0
   23.4508  -16.8205  -18.3902 C   0  0  0  0  0  0  0  0  0  0  0  0
   22.4021  -16.5081  -17.3733 C   0  0  2  0  0  0  0  0  0  0  0  0
   21.6553  -17.7780  -17.1331 N   0  0  0  0  0  0  0  0  0  0  0  0
   21.3674  -15.5402  -17.8156 C   0  0  0  0  0  0  0  0  0  0  0  0
   20.3776  -15.9219  -18.5380 O   0  0  0  0  0  0  0  0  0  0  0  0
   19.0477  -13.5489  -15.6795 C   0  0  0  0  0  0  0  0  0  0  0  0
   18.9831  -13.5935  -17.2066 C   0  0  1  0  0  0  0  0  0  0  0  0
   18.0824  -12.5870  -17.5726 O   0  0  0  0  0  0  0  0  0  0  0  0
   20.3282  -13.2156  -17.7220 C   0  0  2  0  0  0  0  0  0  0  0  0
   21.3761  -14.1513  -17.4866 N   0  0  0  0  0  0  0  0  0  0  0  0
   20.6901  -11.7918  -17.4146 C   0  0  0  0  0  0  0  0  0  0  0  0
   21.7638  -11.4798  -16.8579 O   0  0  0  0  0  0  0  0  0  0  0  0
   19.8033  -10.8040  -17.7576 O   0  0  0  0  0  0  0  0  0  0  0  0
  2  1  1  1
  3  2  1  0
  4  5  1  0
  4  3  1  0
  6  5  1  0
  7  6  1  0
  8  2  1  0
  9  8  2  0
 10 11  1  0
 11 13  1  0
 11 12  2  0
 13 14  1  0
 15 14  1  6
 15 16  1  0
 16  8  1  0
 17 18  2  0
 17 15  1  0
 20 19  1  1
 20 22  1  0
 21 20  1  0
 22 23  1  1
 23 17  1  0
 24 22  1  0
 25 24  2  0
 26 24  1  0
M  END
$$$$
