KQT.pdb
     RDKit          3D

 26 25  0  0  1  0  0  0  0  0999 V2000
   20.2277  -15.8053  -16.0699 N   0  0  0  0  0  0  0  0  0  0  0  0
   19.7955  -14.5167  -16.5791 C   0  0  1  0  0  0  0  0  0  0  0  0
   18.2735  -14.4093  -16.5357 C   0  0  0  0  0  0  0  0  0  0  0  0
   17.7157  -15.7591  -16.9484 C   0  0  0  0  0  0  0  0  0  0  0  0
   16.2238  -15.7359  -17.0919 C   0  0  0  0  0  0  0  0  0  0  0  0
   15.6375  -17.0361  -17.5381 C   0  0  0  0  0  0  0  0  0  0  0  0
   14.1932  -16.8605  -17.6268 N   0  0  0  0  0  0  0  0  0  0  0  0
   20.4223  -13.4585  -15.7415 C   0  0  0  0  0  0  0  0  0  0  0  0
   20.4612  -13.5530  -14.4716 O   0  0  0  0  0  0  0  0  0  0  0  0
   25.6657  -12.0161  -16.2879 N   0  0  0  0  0  0  0  0  0  0  0  0
   25.4724  -10.8501  -15.5224 C   0  0  0  0  0  0  0  0  0  0  0  0
   26.4322  -10.1615  -15.1535 O   0  0  0  0  0  0  0  0  0  0  0  0
   24.0860  -10.4561  -15.1614 C   0  0  0  0  0  0  0  0  0  0  0  0
   23.1601  -11.4559  -15.7733 C   0  0  0  0  0  0  0  0  0  0  0  0
   21.7022  -11.2890  -15.4940 C   0  0  2  0  0  0  0  0  0  0  0  0
   20.9948  -12.3159  -16.3144 N   0  0  0  0  0  0  0  0  0  0  0  0
   21.1236   -9.9938  -15.9306 C   0  0  0  0  0  0  0  0  0  0  0  0
   21.0107   -9.7124  -17.1777 O   0  0  0  0  0  0  0  0  0  0  0  0
   17.9854   -8.5220  -15.9838 C   0  0  0  0  0  0  0  0  0  0  0  0
   18.7351   -7.4339  -15.2143 C   0  0  1  0  0  0  0  0  0  0  0  0
   18.4225   -7.6456  -13.8668 O   0  0  0  0  0  0  0  0  0  0  0  0
   20.1923   -7.6839  -15.3924 C   0  0  2  0  0  0  0  0  0  0  0  0
   20.6540   -8.9840  -15.0378 N   0  0  0  0  0  0  0  0  0  0  0  0
   21.0428   -6.5623  -14.8715 C   0  0  0  0  0  0  0  0  0  0  0  0
   21.9565   -6.7463  -14.0399 O   0  0  0  0  0  0  0  0  0  0  0  0
   20.7998   -5.2924  -15.3275 O   0  0  0  0  0  0  0  0  0  0  0  0
  2  1  1  1
  3  2  1  0
  4  5  1  0
  4  3  1  0
  6  5  1  0
  7  6  1  0
  8  2  1  0
  9  8  2  0
 10 11  1  0
 11 13  1  0
 11 12  2  0
 13 14  1  0
 15 14  1  6
 15 16  1  0
 16  8  1  0
 17 18  2  0
 17 15  1  0
 20 19  1  6
 20 22  1  0
 21 20  1  0
 22 23  1  1
 23 17  1  0
 24 22  1  0
 25 24  2  0
 26 24  1  0
M  END
$$$$
