KQT.pdb
     RDKit          3D

 26 25  0  0  1  0  0  0  0  0999 V2000
   27.4827  -23.7103  -16.6739 N   0  0  0  0  0  0  0  0  0  0  0  0
   27.3695  -22.3927  -16.0758 C   0  0  1  0  0  0  0  0  0  0  0  0
   27.4039  -21.3128  -17.1540 C   0  0  0  0  0  0  0  0  0  0  0  0
   28.7850  -21.3486  -17.7822 C   0  0  0  0  0  0  0  0  0  0  0  0
   29.0179  -20.1909  -18.7054 C   0  0  0  0  0  0  0  0  0  0  0  0
   30.3694  -20.1867  -19.3433 C   0  0  0  0  0  0  0  0  0  0  0  0
   30.4494  -19.0084  -20.1977 N   0  0  0  0  0  0  0  0  0  0  0  0
   26.0895  -22.3406  -15.3188 C   0  0  0  0  0  0  0  0  0  0  0  0
   25.0898  -23.0554  -15.6547 O   0  0  0  0  0  0  0  0  0  0  0  0
   26.1160  -20.8557   -9.5763 N   0  0  0  0  0  0  0  0  0  0  0  0
   24.7179  -21.0202   -9.6110 C   0  0  0  0  0  0  0  0  0  0  0  0
   24.0467  -21.0044   -8.5714 O   0  0  0  0  0  0  0  0  0  0  0  0
   24.0556  -21.2148  -10.9267 C   0  0  0  0  0  0  0  0  0  0  0  0
   25.1273  -21.2765  -11.9655 C   0  0  0  0  0  0  0  0  0  0  0  0
   24.6928  -21.5212  -13.3736 C   0  0  2  0  0  0  0  0  0  0  0  0
   25.9312  -21.5042  -14.2066 N   0  0  0  0  0  0  0  0  0  0  0  0
   23.8312  -20.4631  -13.9576 C   0  0  0  0  0  0  0  0  0  0  0  0
   24.2653  -19.2627  -14.0913 O   0  0  0  0  0  0  0  0  0  0  0  0
   22.6652  -19.4997  -17.0378 C   0  0  0  0  0  0  0  0  0  0  0  0
   21.3182  -19.6564  -16.3314 C   0  0  1  0  0  0  0  0  0  0  0  0
   20.8434  -20.9182  -16.7067 O   0  0  0  0  0  0  0  0  0  0  0  0
   21.5823  -19.6823  -14.8661 C   0  0  2  0  0  0  0  0  0  0  0  0
   22.4945  -20.6769  -14.4102 N   0  0  0  0  0  0  0  0  0  0  0  0
   20.3295  -19.5705  -14.0471 C   0  0  0  0  0  0  0  0  0  0  0  0
   20.0828  -20.3389  -13.0937 O   0  0  0  0  0  0  0  0  0  0  0  0
   19.4267  -18.5890  -14.3654 O   0  0  0  0  0  0  0  0  0  0  0  0
  2  1  1  6
  3  2  1  0
  4  5  1  0
  4  3  1  0
  6  5  1  0
  7  6  1  0
  8  2  1  0
  9  8  2  0
 10 11  1  0
 11 13  1  0
 11 12  2  0
 13 14  1  0
 15 14  1  1
 15 16  1  0
 16  8  1  0
 17 18  2  0
 17 15  1  0
 20 19  1  6
 20 22  1  0
 21 20  1  0
 22 23  1  6
 23 17  1  0
 24 22  1  0
 25 24  2  0
 26 24  1  0
M  END
$$$$
