KQT.pdb
     RDKit          3D

 26 25  0  0  1  0  0  0  0  0999 V2000
   19.7645  -14.2269  -18.3081 N   0  0  0  0  0  0  0  0  0  0  0  0
   18.7459  -13.2252  -18.0515 C   0  0  1  0  0  0  0  0  0  0  0  0
   18.0297  -13.5178  -16.7356 C   0  0  0  0  0  0  0  0  0  0  0  0
   16.8022  -14.3466  -17.0667 C   0  0  0  0  0  0  0  0  0  0  0  0
   16.0337  -14.7361  -15.8401 C   0  0  0  0  0  0  0  0  0  0  0  0
   14.8066  -15.5408  -16.1237 C   0  0  0  0  0  0  0  0  0  0  0  0
   14.3181  -16.0615  -14.8528 N   0  0  0  0  0  0  0  0  0  0  0  0
   19.4116  -11.8952  -18.0044 C   0  0  0  0  0  0  0  0  0  0  0  0
   20.4728  -11.7075  -17.3249 O   0  0  0  0  0  0  0  0  0  0  0  0
   17.6012   -7.3330  -21.5814 N   0  0  0  0  0  0  0  0  0  0  0  0
   18.4165   -6.5161  -20.7747 C   0  0  0  0  0  0  0  0  0  0  0  0
   18.4933   -5.2967  -20.9718 O   0  0  0  0  0  0  0  0  0  0  0  0
   19.1899   -7.1463  -19.6737 C   0  0  0  0  0  0  0  0  0  0  0  0
   18.8040   -8.5884  -19.6207 C   0  0  0  0  0  0  0  0  0  0  0  0
   19.5587   -9.4572  -18.6683 C   0  0  2  0  0  0  0  0  0  0  0  0
   18.8992  -10.7958  -18.7046 N   0  0  0  0  0  0  0  0  0  0  0  0
   19.4865   -9.0400  -17.2457 C   0  0  0  0  0  0  0  0  0  0  0  0
   18.3965   -9.1642  -16.5798 O   0  0  0  0  0  0  0  0  0  0  0  0
   22.6755   -9.1844  -14.4903 C   0  0  0  0  0  0  0  0  0  0  0  0
   21.1767   -9.1086  -14.1969 C   0  0  1  0  0  0  0  0  0  0  0  0
   21.0747   -8.5857  -12.9028 O   0  0  0  0  0  0  0  0  0  0  0  0
   20.5863   -8.1188  -15.1399 C   0  0  2  0  0  0  0  0  0  0  0  0
   20.5818   -8.4879  -16.5158 N   0  0  0  0  0  0  0  0  0  0  0  0
   21.0515   -6.7161  -14.8777 C   0  0  0  0  0  0  0  0  0  0  0  0
   21.0258   -6.2048  -13.7383 O   0  0  0  0  0  0  0  0  0  0  0  0
   21.5173   -5.9746  -15.9327 O   0  0  0  0  0  0  0  0  0  0  0  0
  2  1  1  1
  3  2  1  0
  4  5  1  0
  4  3  1  0
  6  5  1  0
  7  6  1  0
  8  2  1  0
  9  8  2  0
 10 11  1  0
 11 13  1  0
 11 12  2  0
 13 14  1  0
 15 14  1  6
 15 16  1  0
 16  8  1  0
 17 18  2  0
 17 15  1  0
 20 19  1  6
 20 22  1  0
 21 20  1  0
 22 23  1  6
 23 17  1  0
 24 22  1  0
 25 24  2  0
 26 24  1  0
M  END
$$$$
