KQT.pdb
     RDKit          3D

 26 25  0  0  1  0  0  0  0  0999 V2000
   24.7640  -22.7272  -11.7577 N   0  0  0  0  0  0  0  0  0  0  0  0
   24.9328  -21.3006  -11.9652 C   0  0  1  0  0  0  0  0  0  0  0  0
   25.7556  -20.6907  -10.8334 C   0  0  0  0  0  0  0  0  0  0  0  0
   24.7785  -20.2057   -9.7782 C   0  0  0  0  0  0  0  0  0  0  0  0
   24.1890  -21.3358   -8.9894 C   0  0  0  0  0  0  0  0  0  0  0  0
   23.2137  -20.9011   -7.9438 C   0  0  0  0  0  0  0  0  0  0  0  0
   23.9724  -20.5736   -6.7430 N   0  0  0  0  0  0  0  0  0  0  0  0
   25.6116  -21.1043  -13.2747 C   0  0  0  0  0  0  0  0  0  0  0  0
   26.6560  -21.7637  -13.5867 O   0  0  0  0  0  0  0  0  0  0  0  0
   27.5292  -21.3940  -18.9652 N   0  0  0  0  0  0  0  0  0  0  0  0
   26.5189  -21.8391  -18.0911 C   0  0  0  0  0  0  0  0  0  0  0  0
   26.6294  -22.9089  -17.4788 O   0  0  0  0  0  0  0  0  0  0  0  0
   25.3078  -20.9969  -17.9138 C   0  0  0  0  0  0  0  0  0  0  0  0
   24.9646  -21.0023  -16.4600 C   0  0  0  0  0  0  0  0  0  0  0  0
   25.7274  -20.0664  -15.5803 C   0  0  2  0  0  0  0  0  0  0  0  0
   25.1305  -20.1870  -14.2175 N   0  0  0  0  0  0  0  0  0  0  0  0
   25.5915  -18.6293  -15.9254 C   0  0  0  0  0  0  0  0  0  0  0  0
   24.6940  -17.9020  -15.3662 O   0  0  0  0  0  0  0  0  0  0  0  0
   27.2508  -14.5077  -18.0521 C   0  0  0  0  0  0  0  0  0  0  0  0
   27.4208  -16.0273  -18.0590 C   0  0  1  0  0  0  0  0  0  0  0  0
   28.5752  -16.2781  -17.3088 O   0  0  0  0  0  0  0  0  0  0  0  0
   26.2620  -16.6099  -17.3273 C   0  0  2  0  0  0  0  0  0  0  0  0
   26.4176  -17.9504  -16.8709 N   0  0  0  0  0  0  0  0  0  0  0  0
   24.9499  -16.3350  -18.0022 C   0  0  0  0  0  0  0  0  0  0  0  0
   24.2239  -17.2476  -18.4498 O   0  0  0  0  0  0  0  0  0  0  0  0
   24.5422  -15.0324  -18.1311 O   0  0  0  0  0  0  0  0  0  0  0  0
  2  1  1  1
  3  2  1  0
  4  5  1  0
  4  3  1  0
  6  5  1  0
  7  6  1  0
  8  2  1  0
  9  8  2  0
 10 11  1  0
 11 13  1  0
 11 12  2  0
 13 14  1  0
 15 14  1  6
 15 16  1  0
 16  8  1  0
 17 18  2  0
 17 15  1  0
 20 19  1  1
 20 22  1  0
 21 20  1  0
 22 23  1  6
 23 17  1  0
 24 22  1  0
 25 24  2  0
 26 24  1  0
M  END
$$$$
