KQT.pdb
     RDKit          3D

 26 25  0  0  1  0  0  0  0  0999 V2000
   27.7146  -21.9706  -16.3859 N   0  0  0  0  0  0  0  0  0  0  0  0
   27.2702  -20.8521  -15.5747 C   0  0  1  0  0  0  0  0  0  0  0  0
   27.0063  -19.6299  -16.4503 C   0  0  0  0  0  0  0  0  0  0  0  0
   28.2062  -19.4647  -17.3650 C   0  0  0  0  0  0  0  0  0  0  0  0
   28.0521  -18.3012  -18.2974 C   0  0  0  0  0  0  0  0  0  0  0  0
   29.1962  -18.1268  -19.2431 C   0  0  0  0  0  0  0  0  0  0  0  0
   28.9180  -16.9509  -20.0585 N   0  0  0  0  0  0  0  0  0  0  0  0
   26.0318  -21.2660  -14.8611 C   0  0  0  0  0  0  0  0  0  0  0  0
   25.2594  -22.1610  -15.3359 O   0  0  0  0  0  0  0  0  0  0  0  0
   25.4973  -20.6405   -8.9659 N   0  0  0  0  0  0  0  0  0  0  0  0
   24.1736  -21.0959   -9.1188 C   0  0  0  0  0  0  0  0  0  0  0  0
   23.4562  -21.3168   -8.1349 O   0  0  0  0  0  0  0  0  0  0  0  0
   23.6472  -21.3089  -10.4918 C   0  0  0  0  0  0  0  0  0  0  0  0
   24.7466  -20.9868  -11.4504 C   0  0  0  0  0  0  0  0  0  0  0  0
   24.4325  -21.1046  -12.9060 C   0  0  2  0  0  0  0  0  0  0  0  0
   25.6647  -20.6890  -13.6389 N   0  0  0  0  0  0  0  0  0  0  0  0
   23.3746  -20.1861  -13.3963 C   0  0  0  0  0  0  0  0  0  0  0  0
   23.5313  -18.9137  -13.3378 O   0  0  0  0  0  0  0  0  0  0  0  0
   22.0094  -19.3783  -16.5406 C   0  0  0  0  0  0  0  0  0  0  0  0
   20.7263  -19.7561  -15.7998 C   0  0  1  0  0  0  0  0  0  0  0  0
   20.4297  -21.0617  -16.2070 O   0  0  0  0  0  0  0  0  0  0  0  0
   21.0433  -19.7895  -14.3452 C   0  0  2  0  0  0  0  0  0  0  0  0
   22.1363  -20.6178  -13.9599 N   0  0  0  0  0  0  0  0  0  0  0  0
   19.8213  -19.9395  -13.4867 C   0  0  0  0  0  0  0  0  0  0  0  0
   19.7124  -20.8419  -12.6299 O   0  0  0  0  0  0  0  0  0  0  0  0
   18.7903  -19.0520  -13.6575 O   0  0  0  0  0  0  0  0  0  0  0  0
  2  1  1  6
  3  2  1  0
  4  5  1  0
  4  3  1  0
  6  5  1  0
  7  6  1  0
  8  2  1  0
  9  8  2  0
 10 11  1  0
 11 13  1  0
 11 12  2  0
 13 14  1  0
 15 14  1  1
 15 16  1  0
 16  8  1  0
 17 18  2  0
 17 15  1  0
 20 19  1  6
 20 22  1  0
 21 20  1  0
 22 23  1  6
 23 17  1  0
 24 22  1  0
 25 24  2  0
 26 24  1  0
M  END
$$$$
