KQT.pdb
     RDKit          3D

 26 25  0  0  1  0  0  0  0  0999 V2000
   20.9483  -19.8421  -16.8052 N   0  0  0  0  0  0  0  0  0  0  0  0
   20.6489  -19.0676  -15.6148 C   0  0  1  0  0  0  0  0  0  0  0  0
   20.1125  -19.9738  -14.5098 C   0  0  0  0  0  0  0  0  0  0  0  0
   18.8356  -20.6087  -15.0295 C   0  0  0  0  0  0  0  0  0  0  0  0
   18.3146  -21.6699  -14.1079 C   0  0  0  0  0  0  0  0  0  0  0  0
   17.0088  -22.2571  -14.5365 C   0  0  0  0  0  0  0  0  0  0  0  0
   16.6876  -23.3378  -13.6125 N   0  0  0  0  0  0  0  0  0  0  0  0
   21.9012  -18.3916  -15.1800 C   0  0  0  0  0  0  0  0  0  0  0  0
   21.9447  -17.6965  -14.1132 O   0  0  0  0  0  0  0  0  0  0  0  0
   26.9870  -21.1694  -15.5128 N   0  0  0  0  0  0  0  0  0  0  0  0
   25.9756  -21.3261  -14.5457 C   0  0  0  0  0  0  0  0  0  0  0  0
   25.8957  -22.3573  -13.8660 O   0  0  0  0  0  0  0  0  0  0  0  0
   24.9974  -20.2246  -14.3525 C   0  0  0  0  0  0  0  0  0  0  0  0
   25.3069  -19.1658  -15.3597 C   0  0  0  0  0  0  0  0  0  0  0  0
   24.3894  -17.9880  -15.4083 C   0  0  2  0  0  0  0  0  0  0  0  0
   23.0828  -18.4916  -15.9252 N   0  0  0  0  0  0  0  0  0  0  0  0
   24.7863  -16.9220  -16.3619 C   0  0  0  0  0  0  0  0  0  0  0  0
   24.5677  -17.0520  -17.6198 O   0  0  0  0  0  0  0  0  0  0  0  0
   27.0909  -13.3117  -15.2695 C   0  0  0  0  0  0  0  0  0  0  0  0
   25.8828  -13.2819  -16.2064 C   0  0  1  0  0  0  0  0  0  0  0  0
   26.2060  -12.3558  -17.2045 O   0  0  0  0  0  0  0  0  0  0  0  0
   25.7772  -14.6243  -16.8424 C   0  0  2  0  0  0  0  0  0  0  0  0
   25.4188  -15.7005  -15.9807 N   0  0  0  0  0  0  0  0  0  0  0  0
   26.9249  -14.9244  -17.7618 C   0  0  0  0  0  0  0  0  0  0  0  0
   27.8735  -15.6652  -17.4279 O   0  0  0  0  0  0  0  0  0  0  0  0
   26.9264  -14.3584  -19.0106 O   0  0  0  0  0  0  0  0  0  0  0  0
  2  1  1  6
  3  2  1  0
  4  5  1  0
  4  3  1  0
  6  5  1  0
  7  6  1  0
  8  2  1  0
  9  8  2  0
 10 11  1  0
 11 13  1  0
 11 12  2  0
 13 14  1  0
 15 14  1  6
 15 16  1  0
 16  8  1  0
 17 18  2  0
 17 15  1  0
 20 19  1  1
 20 22  1  0
 21 20  1  0
 22 23  1  1
 23 17  1  0
 24 22  1  0
 25 24  2  0
 26 24  1  0
M  END
$$$$
