KQT.pdb
     RDKit          3D

 26 25  0  0  1  0  0  0  0  0999 V2000
   16.5950  -12.7979  -16.2842 N   0  0  0  0  0  0  0  0  0  0  0  0
   18.0168  -13.0854  -16.2343 C   0  0  1  0  0  0  0  0  0  0  0  0
   18.3389  -14.3282  -17.0599 C   0  0  0  0  0  0  0  0  0  0  0  0
   17.3471  -15.4045  -16.6579 C   0  0  0  0  0  0  0  0  0  0  0  0
   17.6331  -15.9580  -15.2946 C   0  0  0  0  0  0  0  0  0  0  0  0
   16.6881  -17.0339  -14.8667 C   0  0  0  0  0  0  0  0  0  0  0  0
   17.4638  -18.2547  -14.6855 N   0  0  0  0  0  0  0  0  0  0  0  0
   18.7438  -11.8993  -16.7623 C   0  0  0  0  0  0  0  0  0  0  0  0
   19.9786  -11.9600  -17.0698 O   0  0  0  0  0  0  0  0  0  0  0  0
   16.2187   -7.2102  -19.6540 N   0  0  0  0  0  0  0  0  0  0  0  0
   16.6542   -8.3671  -20.3285 C   0  0  0  0  0  0  0  0  0  0  0  0
   16.2434   -8.6373  -21.4642 O   0  0  0  0  0  0  0  0  0  0  0  0
   17.6230   -9.2659  -19.6495 C   0  0  0  0  0  0  0  0  0  0  0  0
   17.8819   -8.7039  -18.2899 C   0  0  0  0  0  0  0  0  0  0  0  0
   18.8316   -9.4556  -17.4156 C   0  0  2  0  0  0  0  0  0  0  0  0
   18.1008  -10.6683  -16.9429 N   0  0  0  0  0  0  0  0  0  0  0  0
   19.2340   -8.7500  -16.1734 C   0  0  0  0  0  0  0  0  0  0  0  0
   18.4941   -8.7919  -15.1256 O   0  0  0  0  0  0  0  0  0  0  0  0
   21.1112   -9.3981  -13.6509 C   0  0  0  0  0  0  0  0  0  0  0  0
   21.7849   -8.0614  -13.9630 C   0  0  1  0  0  0  0  0  0  0  0  0
   22.9413   -8.3839  -14.6819 O   0  0  0  0  0  0  0  0  0  0  0  0
   20.8773   -7.3041  -14.8688 C   0  0  2  0  0  0  0  0  0  0  0  0
   20.4364   -7.9933  -16.0350 N   0  0  0  0  0  0  0  0  0  0  0  0
   21.3448   -5.9002  -15.1200 C   0  0  0  0  0  0  0  0  0  0  0  0
   21.4774   -5.4354  -16.2718 O   0  0  0  0  0  0  0  0  0  0  0  0
   21.6380   -5.1067  -14.0411 O   0  0  0  0  0  0  0  0  0  0  0  0
  2  1  1  6
  3  2  1  0
  4  5  1  0
  4  3  1  0
  6  5  1  0
  7  6  1  0
  8  2  1  0
  9  8  2  0
 10 11  1  0
 11 13  1  0
 11 12  2  0
 13 14  1  0
 15 14  1  6
 15 16  1  0
 16  8  1  0
 17 18  2  0
 17 15  1  0
 20 19  1  6
 20 22  1  0
 21 20  1  0
 22 23  1  6
 23 17  1  0
 24 22  1  0
 25 24  2  0
 26 24  1  0
M  END
$$$$
