KQT.pdb
     RDKit          3D

 26 25  0  0  1  0  0  0  0  0999 V2000
   21.2307  -10.2482  -19.5339 N   0  0  0  0  0  0  0  0  0  0  0  0
   20.2703   -9.3014  -20.0705 C   0  0  1  0  0  0  0  0  0  0  0  0
   19.1117  -10.0374  -20.7383 C   0  0  0  0  0  0  0  0  0  0  0  0
   19.6070  -11.4276  -21.0927 C   0  0  0  0  0  0  0  0  0  0  0  0
   18.5179  -12.2915  -21.6533 C   0  0  0  0  0  0  0  0  0  0  0  0
   18.9511  -13.6877  -21.9640 C   0  0  0  0  0  0  0  0  0  0  0  0
   17.7643  -14.4415  -22.3490 N   0  0  0  0  0  0  0  0  0  0  0  0
   19.7804   -8.4577  -18.9468 C   0  0  0  0  0  0  0  0  0  0  0  0
   18.8772   -7.5767  -19.1227 O   0  0  0  0  0  0  0  0  0  0  0  0
   18.2308  -10.2968  -13.7960 N   0  0  0  0  0  0  0  0  0  0  0  0
   18.5034   -9.0295  -13.2461 C   0  0  0  0  0  0  0  0  0  0  0  0
   18.2206   -8.7693  -12.0696 O   0  0  0  0  0  0  0  0  0  0  0  0
   19.1414   -8.0008  -14.1076 C   0  0  0  0  0  0  0  0  0  0  0  0
   19.3205   -8.5984  -15.4649 C   0  0  0  0  0  0  0  0  0  0  0  0
   19.8662   -7.7062  -16.5314 C   0  0  2  0  0  0  0  0  0  0  0  0
   20.2920   -8.5975  -17.6505 N   0  0  0  0  0  0  0  0  0  0  0  0
   21.0927   -6.9586  -16.1577 C   0  0  0  0  0  0  0  0  0  0  0  0
   22.2301   -7.5503  -16.0996 O   0  0  0  0  0  0  0  0  0  0  0  0
   22.4523   -3.9312  -17.7915 C   0  0  0  0  0  0  0  0  0  0  0  0
   22.4609   -3.5422  -16.3127 C   0  0  1  0  0  0  0  0  0  0  0  0
   21.3311   -2.7366  -16.1311 O   0  0  0  0  0  0  0  0  0  0  0  0
   22.2678   -4.7890  -15.5216 C   0  0  2  0  0  0  0  0  0  0  0  0
   21.1186   -5.5661  -15.8451 N   0  0  0  0  0  0  0  0  0  0  0  0
   22.4806   -4.5831  -14.0501 C   0  0  0  0  0  0  0  0  0  0  0  0
   23.5194   -4.0634  -13.5908 O   0  0  0  0  0  0  0  0  0  0  0  0
   21.4958   -4.9855  -13.1853 O   0  0  0  0  0  0  0  0  0  0  0  0
  2  1  1  1
  3  2  1  0
  4  5  1  0
  4  3  1  0
  6  5  1  0
  7  6  1  0
  8  2  1  0
  9  8  2  0
 10 11  1  0
 11 13  1  0
 11 12  2  0
 13 14  1  0
 15 14  1  1
 15 16  1  0
 16  8  1  0
 17 18  2  0
 17 15  1  0
 20 19  1  6
 20 22  1  0
 21 20  1  0
 22 23  1  1
 23 17  1  0
 24 22  1  0
 25 24  2  0
 26 24  1  0
M  END
$$$$
