KQT.pdb
     RDKit          3D

 26 25  0  0  1  0  0  0  0  0999 V2000
   16.9867  -16.3033    4.2220 N   0  0  0  0  0  0  0  0  0  0  0  0
   16.8199  -15.2982    5.2557 C   0  0  1  0  0  0  0  0  0  0  0  0
   15.8466  -15.7887    6.3245 C   0  0  0  0  0  0  0  0  0  0  0  0
   14.4921  -15.9497    5.6591 C   0  0  0  0  0  0  0  0  0  0  0  0
   13.4158  -16.2996    6.6419 C   0  0  0  0  0  0  0  0  0  0  0  0
   12.0678  -16.4857    6.0240 C   0  0  0  0  0  0  0  0  0  0  0  0
   11.1330  -16.8072    7.0952 N   0  0  0  0  0  0  0  0  0  0  0  0
   18.1569  -15.0222    5.8477 C   0  0  0  0  0  0  0  0  0  0  0  0
   19.1392  -15.8131    5.6670 O   0  0  0  0  0  0  0  0  0  0  0  0
   19.6877   -9.4066    7.1121 N   0  0  0  0  0  0  0  0  0  0  0  0
   20.9468   -9.9330    7.4591 C   0  0  0  0  0  0  0  0  0  0  0  0
   21.9181   -9.1911    7.6531 O   0  0  0  0  0  0  0  0  0  0  0  0
   21.0922  -11.4059    7.5897 C   0  0  0  0  0  0  0  0  0  0  0  0
   19.8195  -12.0277    7.1153 C   0  0  0  0  0  0  0  0  0  0  0  0
   19.7552  -13.5201    7.1108 C   0  0  2  0  0  0  0  0  0  0  0  0
   18.3902  -13.8824    6.6274 N   0  0  0  0  0  0  0  0  0  0  0  0
   19.8632  -14.1572    8.4470 C   0  0  0  0  0  0  0  0  0  0  0  0
   18.8689  -14.1531    9.2585 O   0  0  0  0  0  0  0  0  0  0  0  0
   20.9635  -17.6902    9.2864 C   0  0  0  0  0  0  0  0  0  0  0  0
   21.8228  -16.7953   10.1800 C   0  0  1  0  0  0  0  0  0  0  0  0
   23.0565  -16.6894    9.5280 O   0  0  0  0  0  0  0  0  0  0  0  0
   21.1948  -15.4451   10.1965 C   0  0  2  0  0  0  0  0  0  0  0  0
   21.0361  -14.8112    8.9307 N   0  0  0  0  0  0  0  0  0  0  0  0
   21.7557  -14.5556   11.2674 C   0  0  0  0  0  0  0  0  0  0  0  0
   21.8391  -14.9159   12.4605 O   0  0  0  0  0  0  0  0  0  0  0  0
   22.1871  -13.3026   10.9159 O   0  0  0  0  0  0  0  0  0  0  0  0
  2  1  1  6
  3  2  1  0
  4  5  1  0
  4  3  1  0
  6  5  1  0
  7  6  1  0
  8  2  1  0
  9  8  2  0
 10 11  1  0
 11 13  1  0
 11 12  2  0
 13 14  1  0
 15 14  1  1
 15 16  1  0
 16  8  1  0
 17 18  2  0
 17 15  1  0
 20 19  1  6
 20 22  1  0
 21 20  1  0
 22 23  1  6
 23 17  1  0
 24 22  1  0
 25 24  2  0
 26 24  1  0
M  END
$$$$
