KQT.pdb
     RDKit          3D

 26 25  0  0  1  0  0  0  0  0999 V2000
   21.2756  -25.8626  -16.2691 N   0  0  0  0  0  0  0  0  0  0  0  0
   21.1661  -25.0523  -15.0700 C   0  0  1  0  0  0  0  0  0  0  0  0
   20.6331  -23.6633  -15.4117 C   0  0  0  0  0  0  0  0  0  0  0  0
   21.6949  -22.9664  -16.2426 C   0  0  0  0  0  0  0  0  0  0  0  0
   22.5544  -22.0573  -15.4170 C   0  0  0  0  0  0  0  0  0  0  0  0
   23.5854  -21.3166  -16.2056 C   0  0  0  0  0  0  0  0  0  0  0  0
   24.2598  -20.3985  -15.2960 N   0  0  0  0  0  0  0  0  0  0  0  0
   20.2513  -25.7500  -14.1263 C   0  0  0  0  0  0  0  0  0  0  0  0
   19.0312  -25.9666  -14.4223 O   0  0  0  0  0  0  0  0  0  0  0  0
   21.3415  -30.1727  -10.7454 N   0  0  0  0  0  0  0  0  0  0  0  0
   20.4100  -29.7310   -9.7863 C   0  0  0  0  0  0  0  0  0  0  0  0
   19.9583  -30.5033   -8.9313 O   0  0  0  0  0  0  0  0  0  0  0  0
   19.9741  -28.3109   -9.8172 C   0  0  0  0  0  0  0  0  0  0  0  0
   20.6431  -27.6599  -10.9833 C   0  0  0  0  0  0  0  0  0  0  0  0
   19.7770  -26.8630  -11.9032 C   0  0  2  0  0  0  0  0  0  0  0  0
   20.6936  -26.1969  -12.8749 N   0  0  0  0  0  0  0  0  0  0  0  0
   19.0358  -25.7494  -11.2601 C   0  0  0  0  0  0  0  0  0  0  0  0
   19.4410  -24.5373  -11.3771 O   0  0  0  0  0  0  0  0  0  0  0  0
   18.0005  -23.3667  -11.6116 C   0  0  0  0  0  0  0  0  0  0  0  0
   16.6890  -23.7823  -10.9444 C   0  0  1  0  0  0  0  0  0  0  0  0
   15.8974  -24.3094  -11.9709 O   0  0  0  0  0  0  0  0  0  0  0  0
   17.0012  -24.8846   -9.9931 C   0  0  2  0  0  0  0  0  0  0  0  0
   17.8483  -25.9183  -10.4864 N   0  0  0  0  0  0  0  0  0  0  0  0
   15.7903  -25.3769   -9.2554 C   0  0  0  0  0  0  0  0  0  0  0  0
   15.4387  -26.5754   -9.2714 O   0  0  0  0  0  0  0  0  0  0  0  0
   15.0467  -24.4716   -8.5432 O   0  0  0  0  0  0  0  0  0  0  0  0
  2  1  1  6
  3  2  1  0
  4  5  1  0
  4  3  1  0
  6  5  1  0
  7  6  1  0
  8  2  1  0
  9  8  2  0
 10 11  1  0
 11 13  1  0
 11 12  2  0
 13 14  1  0
 15 14  1  1
 15 16  1  0
 16  8  1  0
 17 18  2  0
 17 15  1  0
 20 19  1  6
 20 22  1  0
 21 20  1  0
 22 23  1  6
 23 17  1  0
 24 22  1  0
 25 24  2  0
 26 24  1  0
M  END
$$$$
