KQT.pdb
     RDKit          3D

 26 25  0  0  1  0  0  0  0  0999 V2000
   35.0044  -30.0814  -20.7810 N   0  0  0  0  0  0  0  0  0  0  0  0
   35.5676  -31.2586  -20.1457 C   0  0  1  0  0  0  0  0  0  0  0  0
   37.0825  -31.1223  -20.0175 C   0  0  0  0  0  0  0  0  0  0  0  0
   37.6700  -31.3146  -21.4036 C   0  0  0  0  0  0  0  0  0  0  0  0
   38.3995  -32.6175  -21.5342 C   0  0  0  0  0  0  0  0  0  0  0  0
   39.0949  -32.7941  -22.8453 C   0  0  0  0  0  0  0  0  0  0  0  0
   39.7791  -34.0807  -22.8110 N   0  0  0  0  0  0  0  0  0  0  0  0
   34.9365  -31.4034  -18.8059 C   0  0  0  0  0  0  0  0  0  0  0  0
   34.3521  -30.4241  -18.2379 O   0  0  0  0  0  0  0  0  0  0  0  0
   31.1062  -33.4102  -15.5410 N   0  0  0  0  0  0  0  0  0  0  0  0
   31.0185  -32.0528  -15.9051 C   0  0  0  0  0  0  0  0  0  0  0  0
   30.2623  -31.2780  -15.3054 O   0  0  0  0  0  0  0  0  0  0  0  0
   31.8553  -31.5610  -17.0300 C   0  0  0  0  0  0  0  0  0  0  0  0
   32.6369  -32.7225  -17.5509 C   0  0  0  0  0  0  0  0  0  0  0  0
   34.0117  -32.9160  -16.9996 C   0  0  2  0  0  0  0  0  0  0  0  0
   34.9592  -32.6212  -18.1147 N   0  0  0  0  0  0  0  0  0  0  0  0
   34.3335  -34.3055  -16.5889 C   0  0  0  0  0  0  0  0  0  0  0  0
   34.1595  -35.2862  -17.3983 O   0  0  0  0  0  0  0  0  0  0  0  0
   37.4563  -35.6401  -15.6610 C   0  0  0  0  0  0  0  0  0  0  0  0
   36.6129  -36.2086  -14.5193 C   0  0  1  0  0  0  0  0  0  0  0  0
   36.9226  -35.4274  -13.4003 O   0  0  0  0  0  0  0  0  0  0  0  0
   35.1824  -35.9746  -14.8609 C   0  0  2  0  0  0  0  0  0  0  0  0
   34.8501  -34.6633  -15.3074 N   0  0  0  0  0  0  0  0  0  0  0  0
   34.2402  -36.5361  -13.8364 C   0  0  0  0  0  0  0  0  0  0  0  0
   33.3938  -35.8306  -13.2482 O   0  0  0  0  0  0  0  0  0  0  0  0
   34.3200  -37.8721  -13.5386 O   0  0  0  0  0  0  0  0  0  0  0  0
  2  1  1  1
  3  2  1  0
  4  5  1  0
  4  3  1  0
  6  5  1  0
  7  6  1  0
  8  2  1  0
  9  8  2  0
 10 11  1  0
 11 13  1  0
 11 12  2  0
 13 14  1  0
 15 14  1  6
 15 16  1  0
 16  8  1  0
 17 18  2  0
 17 15  1  0
 20 19  1  6
 20 22  1  0
 21 20  1  0
 22 23  1  1
 23 17  1  0
 24 22  1  0
 25 24  2  0
 26 24  1  0
M  END
$$$$
