KQT.pdb
     RDKit          3D

 26 25  0  0  1  0  0  0  0  0999 V2000
   21.6047  -20.7780  -10.1372 N   0  0  0  0  0  0  0  0  0  0  0  0
   22.8023  -20.1696  -10.6869 C   0  0  1  0  0  0  0  0  0  0  0  0
   24.0466  -20.7241   -9.9980 C   0  0  0  0  0  0  0  0  0  0  0  0
   23.9335  -20.3832   -8.5234 C   0  0  0  0  0  0  0  0  0  0  0  0
   23.0160  -21.3179   -7.7944 C   0  0  0  0  0  0  0  0  0  0  0  0
   23.0038  -21.1223   -6.3128 C   0  0  0  0  0  0  0  0  0  0  0  0
   22.1280  -22.1381   -5.7418 N   0  0  0  0  0  0  0  0  0  0  0  0
   22.8355  -20.4582  -12.1463 C   0  0  0  0  0  0  0  0  0  0  0  0
   22.4616  -21.5848  -12.6090 O   0  0  0  0  0  0  0  0  0  0  0  0
   20.3395  -17.3235  -15.9902 N   0  0  0  0  0  0  0  0  0  0  0  0
   21.1189  -17.8979  -17.0127 C   0  0  0  0  0  0  0  0  0  0  0  0
   20.9168  -17.6214  -18.2020 O   0  0  0  0  0  0  0  0  0  0  0  0
   22.1969  -18.8493  -16.6382 C   0  0  0  0  0  0  0  0  0  0  0  0
   22.2588  -18.8950  -15.1464 C   0  0  0  0  0  0  0  0  0  0  0  0
   23.3017  -19.7747  -14.5382 C   0  0  2  0  0  0  0  0  0  0  0  0
   23.2789  -19.5039  -13.0705 N   0  0  0  0  0  0  0  0  0  0  0  0
   24.6949  -19.4770  -14.9547 C   0  0  0  0  0  0  0  0  0  0  0  0
   25.3112  -18.4485  -14.4971 O   0  0  0  0  0  0  0  0  0  0  0  0
   27.7789  -21.0388  -14.3652 C   0  0  0  0  0  0  0  0  0  0  0  0
   27.8200  -20.9800  -15.8926 C   0  0  1  0  0  0  0  0  0  0  0  0
   27.4468  -22.2570  -16.3265 O   0  0  0  0  0  0  0  0  0  0  0  0
   26.7690  -20.0206  -16.3314 C   0  0  2  0  0  0  0  0  0  0  0  0
   25.4485  -20.2790  -15.8637 N   0  0  0  0  0  0  0  0  0  0  0  0
   26.8539  -19.6934  -17.7938 C   0  0  0  0  0  0  0  0  0  0  0  0
   25.8628  -19.7545  -18.5515 O   0  0  0  0  0  0  0  0  0  0  0  0
   28.0675  -19.3178  -18.3095 O   0  0  0  0  0  0  0  0  0  0  0  0
  2  1  1  1
  3  2  1  0
  4  5  1  0
  4  3  1  0
  6  5  1  0
  7  6  1  0
  8  2  1  0
  9  8  2  0
 10 11  1  0
 11 13  1  0
 11 12  2  0
 13 14  1  0
 15 14  1  6
 15 16  1  0
 16  8  1  0
 17 18  2  0
 17 15  1  0
 20 19  1  1
 20 22  1  0
 21 20  1  0
 22 23  1  6
 23 17  1  0
 24 22  1  0
 25 24  2  0
 26 24  1  0
M  END
$$$$
