LFQ.pdb
     RDKit          3D

 29 29  0  0  1  0  0  0  0  0999 V2000
   28.5539  -17.7523  -13.9091 C   0  0  0  0  0  0  0  0  0  0  0  0
   28.8496  -19.0396  -14.6393 C   0  0  2  0  0  0  0  0  0  0  0  0
   28.2964  -18.8831  -16.0459 C   0  0  0  0  0  0  0  0  0  0  0  0
   28.1917  -20.2267  -14.0223 C   0  0  0  0  0  0  0  0  0  0  0  0
   28.6730  -20.5110  -12.6186 C   0  0  2  0  0  0  0  0  0  0  0  0
   29.7773  -21.4152  -12.5782 N   0  0  0  0  0  0  0  0  0  0  0  0
   27.5362  -20.9170  -11.7524 C   0  0  0  0  0  0  0  0  0  0  0  0
   27.0723  -22.0700  -11.9280 O   0  0  0  0  0  0  0  0  0  0  0  0
   26.9776  -20.0709  -10.7663 N   0  0  0  0  0  0  0  0  0  0  0  0
   25.7535  -20.4036  -10.0770 C   0  0  1  0  0  0  0  0  0  0  0  0
   25.5713  -19.4859   -8.8884 C   0  0  0  0  0  0  0  0  0  0  0  0
   26.5686  -19.7483   -7.8244 C   0  0  0  0  0  0  0  0  0  0  0  0
   27.1428  -18.6980   -7.1413 C   0  0  0  0  0  0  0  0  0  0  0  0
   28.0769  -18.8890   -6.1412 C   0  0  0  0  0  0  0  0  0  0  0  0
   28.4602  -20.1670   -5.8010 C   0  0  0  0  0  0  0  0  0  0  0  0
   27.8966  -21.2303   -6.4734 C   0  0  0  0  0  0  0  0  0  0  0  0
   26.9606  -21.0214   -7.4744 C   0  0  0  0  0  0  0  0  0  0  0  0
   24.5759  -20.1415  -10.9821 C   0  0  0  0  0  0  0  0  0  0  0  0
   24.8034  -19.4034  -11.9594 O   0  0  0  0  0  0  0  0  0  0  0  0
   20.9260  -23.4290  -13.8891 N   0  0  0  0  0  0  0  0  0  0  0  0
   22.3234  -23.5169  -13.7095 C   0  0  0  0  0  0  0  0  0  0  0  0
   22.8976  -24.5937  -14.0077 O   0  0  0  0  0  0  0  0  0  0  0  0
   23.1303  -22.3684  -13.1771 C   0  0  0  0  0  0  0  0  0  0  0  0
   22.2857  -21.1614  -12.9656 C   0  0  0  0  0  0  0  0  0  0  0  0
   22.1490  -20.7177  -11.5279 C   0  0  2  0  0  0  0  0  0  0  0  0
   23.3199  -20.6886  -10.7399 N   0  0  0  0  0  0  0  0  0  0  0  0
   20.9370  -21.2485  -10.9469 C   0  0  0  0  0  0  0  0  0  0  0  0
   19.7985  -21.2042  -11.4814 O   0  0  0  0  0  0  0  0  0  0  0  0
   20.9872  -21.8674   -9.6951 O   0  0  0  0  0  0  0  0  0  0  0  0
  2  4  1  0
  2  3  1  6
  2  1  1  0
  5  6  1  6
  5  4  1  0
  7  5  1  0
  8  7  2  0
  9  7  1  0
 10  9  1  0
 11 12  1  0
 10 11  1  1
 12 17  2  0
 13 12  1  0
 13 14  2  0
 14 15  1  0
 15 16  2  0
 17 16  1  0
 18 10  1  0
 18 26  1  0
 19 18  2  0
 21 22  2  0
 21 20  1  0
 23 21  1  0
 24 23  1  0
 25 24  1  6
 25 26  1  0
 27 29  1  0
 27 25  1  0
 28 27  2  0
M  END
$$$$
