LFQ.pdb
     RDKit          3D

 29 29  0  0  1  0  0  0  0  0999 V2000
   27.0625  -18.6821  -19.8831 C   0  0  0  0  0  0  0  0  0  0  0  0
   26.3603  -20.0176  -19.8534 C   0  0  2  0  0  0  0  0  0  0  0  0
   25.1622  -19.9039  -20.7811 C   0  0  0  0  0  0  0  0  0  0  0  0
   25.8531  -20.3819  -18.4997 C   0  0  0  0  0  0  0  0  0  0  0  0
   26.9377  -20.8761  -17.5712 C   0  0  2  0  0  0  0  0  0  0  0  0
   27.7111  -21.9386  -18.1295 N   0  0  0  0  0  0  0  0  0  0  0  0
   26.3730  -21.1876  -16.2326 C   0  0  0  0  0  0  0  0  0  0  0  0
   25.4170  -22.0000  -16.1949 O   0  0  0  0  0  0  0  0  0  0  0  0
   26.8639  -20.6148  -15.0363 N   0  0  0  0  0  0  0  0  0  0  0  0
   26.2378  -20.8582  -13.7584 C   0  0  1  0  0  0  0  0  0  0  0  0
   27.1087  -20.3091  -12.6503 C   0  0  0  0  0  0  0  0  0  0  0  0
   26.4719  -20.4501  -11.3199 C   0  0  0  0  0  0  0  0  0  0  0  0
   26.2188  -21.7029  -10.8042 C   0  0  0  0  0  0  0  0  0  0  0  0
   25.6275  -21.8884   -9.5692 C   0  0  0  0  0  0  0  0  0  0  0  0
   25.2714  -20.7947   -8.8123 C   0  0  0  0  0  0  0  0  0  0  0  0
   25.5167  -19.5334   -9.3117 C   0  0  0  0  0  0  0  0  0  0  0  0
   26.1108  -19.3645  -10.5528 C   0  0  0  0  0  0  0  0  0  0  0  0
   24.9400  -20.0940  -13.6772 C   0  0  0  0  0  0  0  0  0  0  0  0
   25.0310  -18.8623  -13.8388 O   0  0  0  0  0  0  0  0  0  0  0  0
   19.3589  -19.5353  -15.4362 N   0  0  0  0  0  0  0  0  0  0  0  0
   20.5926  -19.6611  -16.1106 C   0  0  0  0  0  0  0  0  0  0  0  0
   20.5792  -19.8133  -17.3575 O   0  0  0  0  0  0  0  0  0  0  0  0
   21.9048  -19.6178  -15.3826 C   0  0  0  0  0  0  0  0  0  0  0  0
   21.7154  -19.3224  -13.9362 C   0  0  0  0  0  0  0  0  0  0  0  0
   22.4833  -20.2179  -12.9924 C   0  0  2  0  0  0  0  0  0  0  0  0
   23.7233  -20.7248  -13.4378 N   0  0  0  0  0  0  0  0  0  0  0  0
   21.5839  -21.1064  -12.2925 C   0  0  0  0  0  0  0  0  0  0  0  0
   20.5487  -20.7476  -11.6732 O   0  0  0  0  0  0  0  0  0  0  0  0
   21.8459  -22.4788  -12.2763 O   0  0  0  0  0  0  0  0  0  0  0  0
  2  4  1  0
  2  3  1  6
  2  1  1  0
  5  6  1  6
  5  4  1  0
  7  5  1  0
  8  7  2  0
  9  7  1  0
 10  9  1  0
 11 12  1  0
 10 11  1  1
 12 17  2  0
 13 12  1  0
 13 14  2  0
 14 15  1  0
 15 16  2  0
 17 16  1  0
 18 10  1  0
 18 26  1  0
 19 18  2  0
 21 22  2  0
 21 20  1  0
 23 21  1  0
 24 23  1  0
 25 24  1  6
 25 26  1  0
 27 29  1  0
 27 25  1  0
 28 27  2  0
M  END
$$$$
