LFQ.pdb
     RDKit          3D

 29 29  0  0  1  0  0  0  0  0999 V2000
   16.6019  -11.0211  -21.4389 C   0  0  0  0  0  0  0  0  0  0  0  0
   16.1893  -11.8241  -20.2295 C   0  0  2  0  0  0  0  0  0  0  0  0
   14.6726  -11.9134  -20.2589 C   0  0  0  0  0  0  0  0  0  0  0  0
   16.5814  -11.1848  -18.9410 C   0  0  0  0  0  0  0  0  0  0  0  0
   18.0745  -11.0040  -18.7969 C   0  0  2  0  0  0  0  0  0  0  0  0
   18.7758  -12.2386  -18.6470 N   0  0  0  0  0  0  0  0  0  0  0  0
   18.3768  -10.0120  -17.7328 C   0  0  0  0  0  0  0  0  0  0  0  0
   17.4923   -9.8264  -16.8619 O   0  0  0  0  0  0  0  0  0  0  0  0
   19.5930   -9.2925  -17.6724 N   0  0  0  0  0  0  0  0  0  0  0  0
   19.8543   -8.3171  -16.6406 C   0  0  1  0  0  0  0  0  0  0  0  0
   21.3153   -8.3643  -16.2517 C   0  0  0  0  0  0  0  0  0  0  0  0
   21.6636   -7.3134  -15.2670 C   0  0  0  0  0  0  0  0  0  0  0  0
   21.4685   -7.5357  -13.9209 C   0  0  0  0  0  0  0  0  0  0  0  0
   21.7768   -6.5890  -12.9629 C   0  0  0  0  0  0  0  0  0  0  0  0
   22.2984   -5.3742  -13.3476 C   0  0  0  0  0  0  0  0  0  0  0  0
   22.5006   -5.1336  -14.6898 C   0  0  0  0  0  0  0  0  0  0  0  0
   22.1860   -6.0942  -15.6384 C   0  0  0  0  0  0  0  0  0  0  0  0
   19.6191   -6.9301  -17.1845 C   0  0  0  0  0  0  0  0  0  0  0  0
   20.1646   -6.6816  -18.2763 O   0  0  0  0  0  0  0  0  0  0  0  0
   17.0566   -1.6104  -20.0658 N   0  0  0  0  0  0  0  0  0  0  0  0
   17.1085   -2.8646  -19.4201 C   0  0  0  0  0  0  0  0  0  0  0  0
   17.2897   -3.8908  -20.1217 O   0  0  0  0  0  0  0  0  0  0  0  0
   16.9541   -3.0003  -17.9330 C   0  0  0  0  0  0  0  0  0  0  0  0
   17.1821   -4.4020  -17.4876 C   0  0  0  0  0  0  0  0  0  0  0  0
   18.5157   -4.6557  -16.8246 C   0  0  2  0  0  0  0  0  0  0  0  0
   18.8441   -5.9921  -16.5099 N   0  0  0  0  0  0  0  0  0  0  0  0
   18.8027   -3.6255  -15.8528 C   0  0  0  0  0  0  0  0  0  0  0  0
   18.7861   -2.3884  -16.0833 O   0  0  0  0  0  0  0  0  0  0  0  0
   19.1290   -3.9862  -14.5429 O   0  0  0  0  0  0  0  0  0  0  0  0
  2  4  1  0
  2  3  1  1
  2  1  1  0
  5  6  1  1
  5  4  1  0
  7  5  1  0
  8  7  2  0
  9  7  1  0
 10  9  1  0
 11 12  1  0
 10 11  1  6
 12 17  2  0
 13 12  1  0
 13 14  2  0
 14 15  1  0
 15 16  2  0
 17 16  1  0
 18 10  1  0
 18 26  1  0
 19 18  2  0
 21 22  2  0
 21 20  1  0
 23 21  1  0
 24 23  1  0
 25 24  1  1
 25 26  1  0
 27 29  1  0
 27 25  1  0
 28 27  2  0
M  END
$$$$
