LFQ.pdb
     RDKit          3D

 29 29  0  0  1  0  0  0  0  0999 V2000
   28.1127  -22.0172  -19.1443 C   0  0  0  0  0  0  0  0  0  0  0  0
   26.8844  -22.8935  -19.1788 C   0  0  2  0  0  0  0  0  0  0  0  0
   25.9513  -22.2998  -20.2209 C   0  0  0  0  0  0  0  0  0  0  0  0
   26.1525  -22.9266  -17.8805 C   0  0  0  0  0  0  0  0  0  0  0  0
   26.9944  -23.4408  -16.7360 C   0  0  2  0  0  0  0  0  0  0  0  0
   27.3739  -24.8085  -16.8909 N   0  0  0  0  0  0  0  0  0  0  0  0
   26.3383  -23.1463  -15.4359 C   0  0  0  0  0  0  0  0  0  0  0  0
   25.3196  -23.8209  -15.1485 O   0  0  0  0  0  0  0  0  0  0  0  0
   26.8112  -22.1599  -14.5394 N   0  0  0  0  0  0  0  0  0  0  0  0
   26.1347  -21.8667  -13.2982 C   0  0  1  0  0  0  0  0  0  0  0  0
   27.0400  -21.0485  -12.4043 C   0  0  0  0  0  0  0  0  0  0  0  0
   26.3836  -20.6909  -11.1248 C   0  0  0  0  0  0  0  0  0  0  0  0
   25.9195  -19.4093  -10.9209 C   0  0  0  0  0  0  0  0  0  0  0  0
   25.3007  -19.0253   -9.7467 C   0  0  0  0  0  0  0  0  0  0  0  0
   25.1327  -19.9417   -8.7329 C   0  0  0  0  0  0  0  0  0  0  0  0
   25.5906  -21.2286   -8.9187 C   0  0  0  0  0  0  0  0  0  0  0  0
   26.2095  -21.5978  -10.1029 C   0  0  0  0  0  0  0  0  0  0  0  0
   24.9324  -20.9975  -13.5704 C   0  0  0  0  0  0  0  0  0  0  0  0
   25.1658  -19.9298  -14.1679 O   0  0  0  0  0  0  0  0  0  0  0  0
   21.7521  -23.3317  -16.0383 N   0  0  0  0  0  0  0  0  0  0  0  0
   20.9032  -23.5021  -14.9233 C   0  0  0  0  0  0  0  0  0  0  0  0
   20.3181  -24.6046  -14.7808 O   0  0  0  0  0  0  0  0  0  0  0  0
   20.6853  -22.4108  -13.9158 C   0  0  0  0  0  0  0  0  0  0  0  0
   21.4184  -21.1705  -14.2895 C   0  0  0  0  0  0  0  0  0  0  0  0
   22.4169  -20.6823  -13.2663 C   0  0  2  0  0  0  0  0  0  0  0  0
   23.6491  -21.3658  -13.1794 N   0  0  0  0  0  0  0  0  0  0  0  0
   21.7462  -20.3068  -12.0427 C   0  0  0  0  0  0  0  0  0  0  0  0
   21.9981  -20.7809  -10.9045 O   0  0  0  0  0  0  0  0  0  0  0  0
   20.7324  -19.3459  -12.0802 O   0  0  0  0  0  0  0  0  0  0  0  0
  2  4  1  0
  2  3  1  6
  2  1  1  0
  5  6  1  6
  5  4  1  0
  7  5  1  0
  8  7  2  0
  9  7  1  0
 10  9  1  0
 11 12  1  0
 10 11  1  1
 12 17  2  0
 13 12  1  0
 13 14  2  0
 14 15  1  0
 15 16  2  0
 17 16  1  0
 18 10  1  0
 18 26  1  0
 19 18  2  0
 21 22  2  0
 21 20  1  0
 23 21  1  0
 24 23  1  0
 25 24  1  1
 25 26  1  0
 27 29  1  0
 27 25  1  0
 28 27  2  0
M  END
$$$$
