LFQ.pdb
     RDKit          3D

 29 29  0  0  1  0  0  0  0  0999 V2000
   22.8410  -11.1307  -22.5467 C   0  0  0  0  0  0  0  0  0  0  0  0
   22.5542  -12.2100  -21.5316 C   0  0  2  0  0  0  0  0  0  0  0  0
   21.2049  -12.8068  -21.8952 C   0  0  0  0  0  0  0  0  0  0  0  0
   22.4602  -11.6916  -20.1370 C   0  0  0  0  0  0  0  0  0  0  0  0
   23.7051  -10.9624  -19.6882 C   0  0  2  0  0  0  0  0  0  0  0  0
   24.8329  -11.8241  -19.5330 N   0  0  0  0  0  0  0  0  0  0  0  0
   23.4172  -10.1333  -18.4894 C   0  0  0  0  0  0  0  0  0  0  0  0
   22.8267  -10.6983  -17.5368 O   0  0  0  0  0  0  0  0  0  0  0  0
   23.7768   -8.7689  -18.3910 N   0  0  0  0  0  0  0  0  0  0  0  0
   23.5665   -8.0076  -17.1825 C   0  0  1  0  0  0  0  0  0  0  0  0
   24.8941   -7.5102  -16.6551 C   0  0  0  0  0  0  0  0  0  0  0  0
   25.7773   -8.6224  -16.2326 C   0  0  0  0  0  0  0  0  0  0  0  0
   26.8858   -8.9482  -16.9839 C   0  0  0  0  0  0  0  0  0  0  0  0
   27.7405   -9.9757  -16.6334 C   0  0  0  0  0  0  0  0  0  0  0  0
   27.4923  -10.7115  -15.4963 C   0  0  0  0  0  0  0  0  0  0  0  0
   26.3881  -10.4002  -14.7320 C   0  0  0  0  0  0  0  0  0  0  0  0
   25.5404   -9.3661  -15.0977 C   0  0  0  0  0  0  0  0  0  0  0  0
   22.7609   -6.7718  -17.4969 C   0  0  0  0  0  0  0  0  0  0  0  0
   23.0859   -6.1691  -18.5374 O   0  0  0  0  0  0  0  0  0  0  0  0
   16.6138   -5.5925  -17.2370 N   0  0  0  0  0  0  0  0  0  0  0  0
   17.4352   -6.5015  -17.9381 C   0  0  0  0  0  0  0  0  0  0  0  0
   16.8880   -7.3312  -18.7064 O   0  0  0  0  0  0  0  0  0  0  0  0
   18.9291   -6.5008  -17.7896 C   0  0  0  0  0  0  0  0  0  0  0  0
   19.3771   -5.4854  -16.7980 C   0  0  0  0  0  0  0  0  0  0  0  0
   20.8644   -5.2208  -16.7779 C   0  0  2  0  0  0  0  0  0  0  0  0
   21.7242   -6.3359  -16.6779 N   0  0  0  0  0  0  0  0  0  0  0  0
   21.1595   -4.0466  -15.9889 C   0  0  0  0  0  0  0  0  0  0  0  0
   21.9878   -4.0001  -15.0425 O   0  0  0  0  0  0  0  0  0  0  0  0
   20.4966   -2.8478  -16.2641 O   0  0  0  0  0  0  0  0  0  0  0  0
  2  4  1  0
  2  3  1  6
  2  1  1  0
  5  6  1  1
  5  4  1  0
  7  5  1  0
  8  7  2  0
  9  7  1  0
 10  9  1  0
 11 12  1  0
 10 11  1  6
 12 17  2  0
 13 12  1  0
 13 14  2  0
 14 15  1  0
 15 16  2  0
 17 16  1  0
 18 10  1  0
 18 26  1  0
 19 18  2  0
 21 22  2  0
 21 20  1  0
 23 21  1  0
 24 23  1  0
 25 24  1  1
 25 26  1  0
 27 29  1  0
 27 25  1  0
 28 27  2  0
M  END
$$$$
