LFQ.pdb
     RDKit          3D

 29 29  0  0  1  0  0  0  0  0999 V2000
   28.1332  -23.1423  -19.1259 C   0  0  0  0  0  0  0  0  0  0  0  0
   28.0827  -23.9075  -17.8261 C   0  0  2  0  0  0  0  0  0  0  0  0
   28.1974  -25.3809  -18.1798 C   0  0  0  0  0  0  0  0  0  0  0  0
   26.8036  -23.7171  -17.0843 C   0  0  0  0  0  0  0  0  0  0  0  0
   26.6232  -22.3114  -16.5607 C   0  0  2  0  0  0  0  0  0  0  0  0
   27.7670  -21.4837  -16.7741 N   0  0  0  0  0  0  0  0  0  0  0  0
   26.1604  -22.3387  -15.1491 C   0  0  0  0  0  0  0  0  0  0  0  0
   25.2990  -23.2014  -14.8507 O   0  0  0  0  0  0  0  0  0  0  0  0
   26.6453  -21.4501  -14.1613 N   0  0  0  0  0  0  0  0  0  0  0  0
   26.0419  -21.3576  -12.8530 C   0  0  1  0  0  0  0  0  0  0  0  0
   27.0172  -20.7258  -11.8846 C   0  0  0  0  0  0  0  0  0  0  0  0
   26.4217  -20.5321  -10.5417 C   0  0  0  0  0  0  0  0  0  0  0  0
   26.3329  -21.5923   -9.6656 C   0  0  0  0  0  0  0  0  0  0  0  0
   25.7868  -21.4643   -8.4029 C   0  0  0  0  0  0  0  0  0  0  0  0
   25.3089  -20.2417   -7.9872 C   0  0  0  0  0  0  0  0  0  0  0  0
   25.3892  -19.1694   -8.8498 C   0  0  0  0  0  0  0  0  0  0  0  0
   25.9401  -19.3147  -10.1136 C   0  0  0  0  0  0  0  0  0  0  0  0
   24.8564  -20.4266  -12.9074 C   0  0  0  0  0  0  0  0  0  0  0  0
   25.0753  -19.3070  -13.4075 O   0  0  0  0  0  0  0  0  0  0  0  0
   19.6215  -18.7917  -15.0726 N   0  0  0  0  0  0  0  0  0  0  0  0
   20.4279  -19.8431  -15.5594 C   0  0  0  0  0  0  0  0  0  0  0  0
   20.0409  -20.4716  -16.5759 O   0  0  0  0  0  0  0  0  0  0  0  0
   21.7214  -20.2239  -14.8996 C   0  0  0  0  0  0  0  0  0  0  0  0
   21.9987  -19.3709  -13.7120 C   0  0  0  0  0  0  0  0  0  0  0  0
   22.3624  -20.1224  -12.4529 C   0  0  2  0  0  0  0  0  0  0  0  0
   23.6029  -20.7958  -12.4303 N   0  0  0  0  0  0  0  0  0  0  0  0
   21.2024  -20.7904  -11.9085 C   0  0  0  0  0  0  0  0  0  0  0  0
   21.1027  -22.0311  -11.7226 O   0  0  0  0  0  0  0  0  0  0  0  0
   20.0815  -20.0387  -11.5467 O   0  0  0  0  0  0  0  0  0  0  0  0
  2  4  1  0
  2  3  1  6
  2  1  1  0
  5  6  1  1
  5  4  1  0
  7  5  1  0
  8  7  2  0
  9  7  1  0
 10  9  1  0
 11 12  1  0
 10 11  1  1
 12 17  2  0
 13 12  1  0
 13 14  2  0
 14 15  1  0
 15 16  2  0
 17 16  1  0
 18 10  1  0
 18 26  1  0
 19 18  2  0
 21 22  2  0
 21 20  1  0
 23 21  1  0
 24 23  1  0
 25 24  1  6
 25 26  1  0
 27 29  1  0
 27 25  1  0
 28 27  2  0
M  END
$$$$
