LFQ.pdb
     RDKit          3D

 29 29  0  0  1  0  0  0  0  0999 V2000
   13.7668  -21.8048    2.3940 C   0  0  0  0  0  0  0  0  0  0  0  0
   15.1684  -22.3607    2.4597 C   0  0  2  0  0  0  0  0  0  0  0  0
   15.1661  -23.4296    3.5396 C   0  0  0  0  0  0  0  0  0  0  0  0
   16.1864  -21.3383    2.8352 C   0  0  0  0  0  0  0  0  0  0  0  0
   16.3035  -20.2177    1.8284 C   0  0  2  0  0  0  0  0  0  0  0  0
   16.7316  -20.6642    0.5416 N   0  0  0  0  0  0  0  0  0  0  0  0
   17.1242  -19.1085    2.3796 C   0  0  0  0  0  0  0  0  0  0  0  0
   18.3709  -19.2333    2.3046 O   0  0  0  0  0  0  0  0  0  0  0  0
   16.5618  -17.9519    2.9680 N   0  0  0  0  0  0  0  0  0  0  0  0
   17.3808  -16.8834    3.4892 C   0  0  1  0  0  0  0  0  0  0  0  0
   16.7705  -15.5481    3.1250 C   0  0  0  0  0  0  0  0  0  0  0  0
   17.5817  -14.4114    3.6204 C   0  0  0  0  0  0  0  0  0  0  0  0
   18.7407  -14.0528    2.9665 C   0  0  0  0  0  0  0  0  0  0  0  0
   19.5321  -13.0014    3.3878 C   0  0  0  0  0  0  0  0  0  0  0  0
   19.1661  -12.2745    4.4983 C   0  0  0  0  0  0  0  0  0  0  0  0
   18.0099  -12.6185    5.1655 C   0  0  0  0  0  0  0  0  0  0  0  0
   17.2269  -13.6763    4.7298 C   0  0  0  0  0  0  0  0  0  0  0  0
   17.3823  -16.9363    4.9966 C   0  0  0  0  0  0  0  0  0  0  0  0
   16.2661  -17.0811    5.5300 O   0  0  0  0  0  0  0  0  0  0  0  0
   21.6364  -19.1851    8.3962 N   0  0  0  0  0  0  0  0  0  0  0  0
   21.1299  -18.3372    9.4048 C   0  0  0  0  0  0  0  0  0  0  0  0
   21.3245  -18.6535   10.6048 O   0  0  0  0  0  0  0  0  0  0  0  0
   20.3731  -17.0815    9.0818 C   0  0  0  0  0  0  0  0  0  0  0  0
   20.2064  -16.9089    7.6130 C   0  0  0  0  0  0  0  0  0  0  0  0
   18.7755  -16.8345    7.1339 C   0  0  2  0  0  0  0  0  0  0  0  0
   18.5536  -16.8304    5.7398 N   0  0  0  0  0  0  0  0  0  0  0  0
   18.0114  -15.9269    7.9588 C   0  0  0  0  0  0  0  0  0  0  0  0
   17.1725  -16.2733    8.8306 O   0  0  0  0  0  0  0  0  0  0  0  0
   18.1862  -14.5486    7.8102 O   0  0  0  0  0  0  0  0  0  0  0  0
  2  4  1  0
  2  3  1  1
  2  1  1  0
  5  6  1  6
  5  4  1  0
  7  5  1  0
  8  7  2  0
  9  7  1  0
 10  9  1  0
 11 12  1  0
 10 11  1  1
 12 17  2  0
 13 12  1  0
 13 14  2  0
 14 15  1  0
 15 16  2  0
 17 16  1  0
 18 10  1  0
 18 26  1  0
 19 18  2  0
 21 22  2  0
 21 20  1  0
 23 21  1  0
 24 23  1  0
 25 24  1  6
 25 26  1  0
 27 29  1  0
 27 25  1  0
 28 27  2  0
M  END
$$$$
