LFQ.pdb
     RDKit          3D

 29 29  0  0  1  0  0  0  0  0999 V2000
   32.2279  -22.7074  -11.1035 C   0  0  0  0  0  0  0  0  0  0  0  0
   31.5585  -22.1787   -9.8586 C   0  0  2  0  0  0  0  0  0  0  0  0
   32.3156  -22.7563   -8.6744 C   0  0  0  0  0  0  0  0  0  0  0  0
   30.1339  -22.6008   -9.7360 C   0  0  0  0  0  0  0  0  0  0  0  0
   29.2604  -22.0778  -10.8524 C   0  0  2  0  0  0  0  0  0  0  0  0
   29.7744  -20.8901  -11.4554 N   0  0  0  0  0  0  0  0  0  0  0  0
   27.8521  -21.9545  -10.3951 C   0  0  0  0  0  0  0  0  0  0  0  0
   27.4010  -22.8883   -9.6879 O   0  0  0  0  0  0  0  0  0  0  0  0
   27.0291  -20.8516  -10.7217 N   0  0  0  0  0  0  0  0  0  0  0  0
   25.7108  -20.6869  -10.1565 C   0  0  1  0  0  0  0  0  0  0  0  0
   25.6698  -19.4312   -9.3142 C   0  0  0  0  0  0  0  0  0  0  0  0
   26.3331  -19.6188   -8.0025 C   0  0  0  0  0  0  0  0  0  0  0  0
   25.8679  -20.5725   -7.1231 C   0  0  0  0  0  0  0  0  0  0  0  0
   26.4507  -20.7869   -5.8887 C   0  0  0  0  0  0  0  0  0  0  0  0
   27.5357  -20.0304   -5.5061 C   0  0  0  0  0  0  0  0  0  0  0  0
   28.0152  -19.0715   -6.3727 C   0  0  0  0  0  0  0  0  0  0  0  0
   27.4189  -18.8690   -7.6077 C   0  0  0  0  0  0  0  0  0  0  0  0
   24.7092  -20.4714  -11.2634 C   0  0  0  0  0  0  0  0  0  0  0  0
   25.1062  -19.7789  -12.2197 O   0  0  0  0  0  0  0  0  0  0  0  0
   20.0399  -23.8266  -10.3818 N   0  0  0  0  0  0  0  0  0  0  0  0
   20.1421  -23.8808  -11.7887 C   0  0  0  0  0  0  0  0  0  0  0  0
   19.7839  -24.9331  -12.3738 O   0  0  0  0  0  0  0  0  0  0  0  0
   20.6623  -22.7249  -12.5932 C   0  0  0  0  0  0  0  0  0  0  0  0
   21.0471  -21.5830  -11.7197 C   0  0  0  0  0  0  0  0  0  0  0  0
   22.3334  -20.8885  -12.1009 C   0  0  2  0  0  0  0  0  0  0  0  0
   23.4278  -21.0110  -11.2175 N   0  0  0  0  0  0  0  0  0  0  0  0
   22.0575  -19.5961  -12.6856 C   0  0  0  0  0  0  0  0  0  0  0  0
   21.7530  -18.5598  -12.0397 O   0  0  0  0  0  0  0  0  0  0  0  0
   22.1226  -19.4399  -14.0726 O   0  0  0  0  0  0  0  0  0  0  0  0
  2  4  1  0
  2  3  1  1
  2  1  1  0
  5  6  1  1
  5  4  1  0
  7  5  1  0
  8  7  2  0
  9  7  1  0
 10  9  1  0
 11 12  1  0
 10 11  1  1
 12 17  2  0
 13 12  1  0
 13 14  2  0
 14 15  1  0
 15 16  2  0
 17 16  1  0
 18 10  1  0
 18 26  1  0
 19 18  2  0
 21 22  2  0
 21 20  1  0
 23 21  1  0
 24 23  1  0
 25 24  1  1
 25 26  1  0
 27 29  1  0
 27 25  1  0
 28 27  2  0
M  END
$$$$
