LFQ.pdb
     RDKit          3D

 29 29  0  0  1  0  0  0  0  0999 V2000
   27.0396  -20.5413  -18.9077 C   0  0  0  0  0  0  0  0  0  0  0  0
   27.9270  -21.4483  -18.0906 C   0  0  2  0  0  0  0  0  0  0  0  0
   28.2403  -22.6546  -18.9599 C   0  0  0  0  0  0  0  0  0  0  0  0
   27.2710  -21.9433  -16.8468 C   0  0  0  0  0  0  0  0  0  0  0  0
   26.9143  -20.8370  -15.8816 C   0  0  2  0  0  0  0  0  0  0  0  0
   27.8811  -19.7866  -15.8525 N   0  0  0  0  0  0  0  0  0  0  0  0
   26.6010  -21.3979  -14.5419 C   0  0  0  0  0  0  0  0  0  0  0  0
   25.9159  -22.4492  -14.5128 O   0  0  0  0  0  0  0  0  0  0  0  0
   27.0371  -20.8026  -13.3354 N   0  0  0  0  0  0  0  0  0  0  0  0
   26.4160  -21.1012  -12.0668 C   0  0  1  0  0  0  0  0  0  0  0  0
   27.3649  -20.7566  -10.9403 C   0  0  0  0  0  0  0  0  0  0  0  0
   26.6506  -20.5176   -9.6642 C   0  0  0  0  0  0  0  0  0  0  0  0
   25.9018  -21.5235   -9.0925 C   0  0  0  0  0  0  0  0  0  0  0  0
   25.2174  -21.3518   -7.9045 C   0  0  0  0  0  0  0  0  0  0  0  0
   25.2736  -20.1394   -7.2541 C   0  0  0  0  0  0  0  0  0  0  0  0
   26.0176  -19.1212   -7.8109 C   0  0  0  0  0  0  0  0  0  0  0  0
   26.6985  -19.3099   -9.0036 C   0  0  0  0  0  0  0  0  0  0  0  0
   25.2103  -20.2160  -11.8730 C   0  0  0  0  0  0  0  0  0  0  0  0
   25.4214  -18.9922  -11.9696 O   0  0  0  0  0  0  0  0  0  0  0  0
   22.4256  -17.7698  -15.2099 N   0  0  0  0  0  0  0  0  0  0  0  0
   22.0652  -19.1314  -15.3027 C   0  0  0  0  0  0  0  0  0  0  0  0
   21.7871  -19.6002  -16.4345 O   0  0  0  0  0  0  0  0  0  0  0  0
   22.0070  -20.0224  -14.0959 C   0  0  0  0  0  0  0  0  0  0  0  0
   22.3448  -19.2776  -12.8524 C   0  0  0  0  0  0  0  0  0  0  0  0
   22.6674  -20.1405  -11.6551 C   0  0  2  0  0  0  0  0  0  0  0  0
   23.9474  -20.7338  -11.6043 N   0  0  0  0  0  0  0  0  0  0  0  0
   21.5208  -20.9360  -11.2800 C   0  0  0  0  0  0  0  0  0  0  0  0
   21.5172  -22.1886  -11.1592 O   0  0  0  0  0  0  0  0  0  0  0  0
   20.3005  -20.3061  -11.0220 O   0  0  0  0  0  0  0  0  0  0  0  0
  2  4  1  0
  2  3  1  6
  2  1  1  0
  5  6  1  1
  5  4  1  0
  7  5  1  0
  8  7  2  0
  9  7  1  0
 10  9  1  0
 11 12  1  0
 10 11  1  1
 12 17  2  0
 13 12  1  0
 13 14  2  0
 14 15  1  0
 15 16  2  0
 17 16  1  0
 18 10  1  0
 18 26  1  0
 19 18  2  0
 21 22  2  0
 21 20  1  0
 23 21  1  0
 24 23  1  0
 25 24  1  6
 25 26  1  0
 27 29  1  0
 27 25  1  0
 28 27  2  0
M  END
$$$$
