LFQ.pdb
     RDKit          3D

 29 29  0  0  1  0  0  0  0  0999 V2000
   27.3979  -14.8529  -15.1430 C   0  0  0  0  0  0  0  0  0  0  0  0
   27.3716  -14.9130  -16.6507 C   0  0  2  0  0  0  0  0  0  0  0  0
   28.2733  -13.7964  -17.1500 C   0  0  0  0  0  0  0  0  0  0  0  0
   26.0128  -14.6886  -17.2217 C   0  0  0  0  0  0  0  0  0  0  0  0
   25.0116  -15.7409  -16.8057 C   0  0  2  0  0  0  0  0  0  0  0  0
   25.4539  -17.0715  -17.0751 N   0  0  0  0  0  0  0  0  0  0  0  0
   23.6707  -15.4319  -17.3662 C   0  0  0  0  0  0  0  0  0  0  0  0
   23.4868  -15.6996  -18.5786 O   0  0  0  0  0  0  0  0  0  0  0  0
   22.6271  -14.8629  -16.5998 N   0  0  0  0  0  0  0  0  0  0  0  0
   21.3259  -14.5901  -17.1625 C   0  0  1  0  0  0  0  0  0  0  0  0
   20.2860  -15.4571  -16.4879 C   0  0  0  0  0  0  0  0  0  0  0  0
   20.1122  -16.7569  -17.1778 C   0  0  0  0  0  0  0  0  0  0  0  0
   19.0457  -16.9502  -18.0291 C   0  0  0  0  0  0  0  0  0  0  0  0
   18.8389  -18.1424  -18.6961 C   0  0  0  0  0  0  0  0  0  0  0  0
   19.7190  -19.1860  -18.5167 C   0  0  0  0  0  0  0  0  0  0  0  0
   20.7919  -19.0112  -17.6689 C   0  0  0  0  0  0  0  0  0  0  0  0
   20.9851  -17.8085  -17.0071 C   0  0  0  0  0  0  0  0  0  0  0  0
   20.9320  -13.1661  -16.8594 C   0  0  0  0  0  0  0  0  0  0  0  0
   21.3776  -12.7009  -15.7933 O   0  0  0  0  0  0  0  0  0  0  0  0
   17.3688  -13.1303  -15.4274 N   0  0  0  0  0  0  0  0  0  0  0  0
   16.6018  -12.1156  -16.0396 C   0  0  0  0  0  0  0  0  0  0  0  0
   15.3526  -12.2455  -16.0677 O   0  0  0  0  0  0  0  0  0  0  0  0
   17.2352  -10.8995  -16.6507 C   0  0  0  0  0  0  0  0  0  0  0  0
   18.6994  -10.8575  -16.3871 C   0  0  0  0  0  0  0  0  0  0  0  0
   19.5755  -11.1290  -17.5875 C   0  0  2  0  0  0  0  0  0  0  0  0
   20.1249  -12.4232  -17.7150 N   0  0  0  0  0  0  0  0  0  0  0  0
   20.4181   -9.9891  -17.8681 C   0  0  0  0  0  0  0  0  0  0  0  0
   21.6421  -10.0470  -18.1549 O   0  0  0  0  0  0  0  0  0  0  0  0
   19.8725   -8.7033  -17.8290 O   0  0  0  0  0  0  0  0  0  0  0  0
  2  4  1  0
  2  3  1  6
  2  1  1  0
  5  6  1  6
  5  4  1  0
  7  5  1  0
  8  7  2  0
  9  7  1  0
 10  9  1  0
 11 12  1  0
 10 11  1  1
 12 17  2  0
 13 12  1  0
 13 14  2  0
 14 15  1  0
 15 16  2  0
 17 16  1  0
 18 10  1  0
 18 26  1  0
 19 18  2  0
 21 22  2  0
 21 20  1  0
 23 21  1  0
 24 23  1  0
 25 24  1  1
 25 26  1  0
 27 29  1  0
 27 25  1  0
 28 27  2  0
M  END
$$$$
