LFQ.pdb
     RDKit          3D

 29 29  0  0  1  0  0  0  0  0999 V2000
   29.0022  -20.7011  -20.2289 C   0  0  0  0  0  0  0  0  0  0  0  0
   29.0130  -21.1453  -18.7866 C   0  0  2  0  0  0  0  0  0  0  0  0
   29.8972  -22.3790  -18.7142 C   0  0  0  0  0  0  0  0  0  0  0  0
   27.6627  -21.5244  -18.2810 C   0  0  0  0  0  0  0  0  0  0  0  0
   27.0818  -20.5133  -17.3202 C   0  0  2  0  0  0  0  0  0  0  0  0
   27.7964  -19.2773  -17.3090 N   0  0  0  0  0  0  0  0  0  0  0  0
   26.9099  -21.1165  -15.9733 C   0  0  0  0  0  0  0  0  0  0  0  0
   26.5047  -22.3036  -15.9304 O   0  0  0  0  0  0  0  0  0  0  0  0
   27.1804  -20.4161  -14.7746 N   0  0  0  0  0  0  0  0  0  0  0  0
   26.5708  -20.7848  -13.5190 C   0  0  1  0  0  0  0  0  0  0  0  0
   27.2236  -20.0184  -12.3900 C   0  0  0  0  0  0  0  0  0  0  0  0
   26.5446  -20.2508  -11.0937 C   0  0  0  0  0  0  0  0  0  0  0  0
   25.6338  -19.3331  -10.6164 C   0  0  0  0  0  0  0  0  0  0  0  0
   24.9740  -19.5029   -9.4143 C   0  0  0  0  0  0  0  0  0  0  0  0
   25.2221  -20.6225   -8.6523 C   0  0  0  0  0  0  0  0  0  0  0  0
   26.1300  -21.5516   -9.1135 C   0  0  0  0  0  0  0  0  0  0  0  0
   26.7837  -21.3663  -10.3218 C   0  0  0  0  0  0  0  0  0  0  0  0
   25.1224  -20.3640  -13.5170 C   0  0  0  0  0  0  0  0  0  0  0  0
   24.9014  -19.1979  -13.8950 O   0  0  0  0  0  0  0  0  0  0  0  0
   23.7413  -25.2323  -14.6530 N   0  0  0  0  0  0  0  0  0  0  0  0
   22.9038  -24.1580  -15.0234 C   0  0  0  0  0  0  0  0  0  0  0  0
   22.8826  -23.8049  -16.2287 O   0  0  0  0  0  0  0  0  0  0  0  0
   22.0479  -23.4359  -14.0236 C   0  0  0  0  0  0  0  0  0  0  0  0
   22.0228  -21.9711  -14.2855 C   0  0  0  0  0  0  0  0  0  0  0  0
   22.6996  -21.1199  -13.2368 C   0  0  2  0  0  0  0  0  0  0  0  0
   24.1027  -21.2226  -13.1190 N   0  0  0  0  0  0  0  0  0  0  0  0
   21.9055  -21.0754  -12.0303 C   0  0  0  0  0  0  0  0  0  0  0  0
   22.3253  -21.3535  -10.8770 O   0  0  0  0  0  0  0  0  0  0  0  0
   20.5617  -20.6996  -12.1040 O   0  0  0  0  0  0  0  0  0  0  0  0
  2  4  1  0
  2  3  1  6
  2  1  1  0
  5  6  1  1
  5  4  1  0
  7  5  1  0
  8  7  2  0
  9  7  1  0
 10  9  1  0
 11 12  1  0
 10 11  1  1
 12 17  2  0
 13 12  1  0
 13 14  2  0
 14 15  1  0
 15 16  2  0
 17 16  1  0
 18 10  1  0
 18 26  1  0
 19 18  2  0
 21 22  2  0
 21 20  1  0
 23 21  1  0
 24 23  1  0
 25 24  1  6
 25 26  1  0
 27 29  1  0
 27 25  1  0
 28 27  2  0
M  END
$$$$
