LFQ.pdb
     RDKit          3D

 29 29  0  0  1  0  0  0  0  0999 V2000
   13.4321  -13.4148    5.6604 C   0  0  0  0  0  0  0  0  0  0  0  0
   13.8086  -14.1717    4.4102 C   0  0  2  0  0  0  0  0  0  0  0  0
   12.7319  -15.2216    4.1921 C   0  0  0  0  0  0  0  0  0  0  0  0
   15.1157  -14.8794    4.5259 C   0  0  0  0  0  0  0  0  0  0  0  0
   16.2780  -13.9457    4.7711 C   0  0  2  0  0  0  0  0  0  0  0  0
   16.5766  -13.1169    3.6474 N   0  0  0  0  0  0  0  0  0  0  0  0
   17.4502  -14.7001    5.2854 C   0  0  0  0  0  0  0  0  0  0  0  0
   18.0776  -15.4065    4.4591 O   0  0  0  0  0  0  0  0  0  0  0  0
   17.8683  -14.6486    6.6355 N   0  0  0  0  0  0  0  0  0  0  0  0
   19.0324  -15.3627    7.1036 C   0  0  1  0  0  0  0  0  0  0  0  0
   19.7929  -14.5069    8.0922 C   0  0  0  0  0  0  0  0  0  0  0  0
   21.0004  -15.1929    8.6090 C   0  0  0  0  0  0  0  0  0  0  0  0
   21.9418  -15.6885    7.7328 C   0  0  0  0  0  0  0  0  0  0  0  0
   23.0842  -16.3356    8.1634 C   0  0  0  0  0  0  0  0  0  0  0  0
   23.3074  -16.5006    9.5120 C   0  0  0  0  0  0  0  0  0  0  0  0
   22.3768  -16.0115   10.4036 C   0  0  0  0  0  0  0  0  0  0  0  0
   21.2356  -15.3646    9.9552 C   0  0  0  0  0  0  0  0  0  0  0  0
   18.6001  -16.5883    7.8692 C   0  0  0  0  0  0  0  0  0  0  0  0
   17.4911  -16.5075    8.4305 O   0  0  0  0  0  0  0  0  0  0  0  0
   19.0191  -19.8569   12.7090 N   0  0  0  0  0  0  0  0  0  0  0  0
   17.9060  -20.2422   11.9312 C   0  0  0  0  0  0  0  0  0  0  0  0
   17.0184  -20.9507   12.4680 O   0  0  0  0  0  0  0  0  0  0  0  0
   17.7588  -19.8306   10.4950 C   0  0  0  0  0  0  0  0  0  0  0  0
   18.8831  -18.9572   10.0610 C   0  0  0  0  0  0  0  0  0  0  0  0
   19.1728  -18.9734    8.5784 C   0  0  2  0  0  0  0  0  0  0  0  0
   19.3891  -17.7318    7.9423 N   0  0  0  0  0  0  0  0  0  0  0  0
   18.3516  -19.9583    7.9123 C   0  0  0  0  0  0  0  0  0  0  0  0
   17.7082  -19.7639    6.8483 O   0  0  0  0  0  0  0  0  0  0  0  0
   18.2345  -21.2395    8.4573 O   0  0  0  0  0  0  0  0  0  0  0  0
  2  4  1  0
  2  3  1  1
  2  1  1  0
  5  6  1  6
  5  4  1  0
  7  5  1  0
  8  7  2  0
  9  7  1  0
 10  9  1  0
 11 12  1  0
 10 11  1  1
 12 17  2  0
 13 12  1  0
 13 14  2  0
 14 15  1  0
 15 16  2  0
 17 16  1  0
 18 10  1  0
 18 26  1  0
 19 18  2  0
 21 22  2  0
 21 20  1  0
 23 21  1  0
 24 23  1  0
 25 24  1  1
 25 26  1  0
 27 29  1  0
 27 25  1  0
 28 27  2  0
M  END
$$$$
