LFQ.pdb
     RDKit          3D

 29 29  0  0  1  0  0  0  0  0999 V2000
   27.4028  -20.8113   -5.3529 C   0  0  0  0  0  0  0  0  0  0  0  0
   28.0493  -19.8270   -6.2968 C   0  0  2  0  0  0  0  0  0  0  0  0
   28.2885  -18.5523   -5.5049 C   0  0  0  0  0  0  0  0  0  0  0  0
   27.1871  -19.4818   -7.4630 C   0  0  0  0  0  0  0  0  0  0  0  0
   26.8681  -20.6705   -8.3394 C   0  0  2  0  0  0  0  0  0  0  0  0
   28.0277  -21.4101   -8.7228 N   0  0  0  0  0  0  0  0  0  0  0  0
   26.0172  -20.2571   -9.4851 C   0  0  0  0  0  0  0  0  0  0  0  0
   25.7921  -19.0288   -9.6109 O   0  0  0  0  0  0  0  0  0  0  0  0
   25.4697  -21.1763  -10.4100 N   0  0  0  0  0  0  0  0  0  0  0  0
   24.8843  -20.7485  -11.6585 C   0  0  1  0  0  0  0  0  0  0  0  0
   25.6125  -21.3995  -12.8134 C   0  0  0  0  0  0  0  0  0  0  0  0
   26.8726  -20.6943  -13.1455 C   0  0  0  0  0  0  0  0  0  0  0  0
   28.0875  -21.2741  -12.8501 C   0  0  0  0  0  0  0  0  0  0  0  0
   29.2903  -20.6584  -13.1392 C   0  0  0  0  0  0  0  0  0  0  0  0
   29.2953  -19.4213  -13.7437 C   0  0  0  0  0  0  0  0  0  0  0  0
   28.0897  -18.8256  -14.0468 C   0  0  0  0  0  0  0  0  0  0  0  0
   26.8916  -19.4568  -13.7501 C   0  0  0  0  0  0  0  0  0  0  0  0
   23.4601  -21.2378  -11.7433 C   0  0  0  0  0  0  0  0  0  0  0  0
   23.2698  -22.4068  -11.3574 O   0  0  0  0  0  0  0  0  0  0  0  0
   20.0557  -16.3456  -14.7986 N   0  0  0  0  0  0  0  0  0  0  0  0
   19.7556  -17.4007  -13.9102 C   0  0  0  0  0  0  0  0  0  0  0  0
   18.6790  -17.3505  -13.2648 O   0  0  0  0  0  0  0  0  0  0  0  0
   20.6808  -18.5676  -13.7201 C   0  0  0  0  0  0  0  0  0  0  0  0
   20.1541  -19.5204  -12.7053 C   0  0  0  0  0  0  0  0  0  0  0  0
   21.0532  -20.6957  -12.4010 C   0  0  2  0  0  0  0  0  0  0  0  0
   22.4290  -20.4353  -12.2211 N   0  0  0  0  0  0  0  0  0  0  0  0
   20.6633  -21.8475  -13.1817 C   0  0  0  0  0  0  0  0  0  0  0  0
   21.3993  -22.4421  -14.0115 O   0  0  0  0  0  0  0  0  0  0  0  0
   19.3778  -22.3753  -13.0356 O   0  0  0  0  0  0  0  0  0  0  0  0
  2  4  1  0
  2  3  1  1
  2  1  1  0
  5  6  1  6
  5  4  1  0
  7  5  1  0
  8  7  2  0
  9  7  1  0
 10  9  1  0
 11 12  1  0
 10 11  1  6
 12 17  2  0
 13 12  1  0
 13 14  2  0
 14 15  1  0
 15 16  2  0
 17 16  1  0
 18 10  1  0
 18 26  1  0
 19 18  2  0
 21 22  2  0
 21 20  1  0
 23 21  1  0
 24 23  1  0
 25 24  1  6
 25 26  1  0
 27 29  1  0
 27 25  1  0
 28 27  2  0
M  END
$$$$
