RHR.pdb
     RDKit          3D

 33 33  0  0  1  0  0  0  0  0999 V2000
   17.4883  -13.7263  -13.2777 N   0  0  0  0  0  0  0  0  0  0  0  0
   17.0282  -13.3919  -14.5742 C   0  0  0  0  0  0  0  0  0  0  0  0
   16.3263  -14.2111  -15.3096 N   0  0  0  0  0  0  0  0  0  0  0  0
   17.3152  -12.1167  -15.1564 N   0  0  0  0  0  0  0  0  0  0  0  0
   17.8775  -11.0551  -14.3176 C   0  0  0  0  0  0  0  0  0  0  0  0
   18.0843   -9.7934  -15.0966 C   0  0  0  0  0  0  0  0  0  0  0  0
   17.2241   -8.6506  -14.6268 C   0  0  0  0  0  0  0  0  0  0  0  0
   17.7383   -7.9984  -13.3853 C   0  0  2  0  0  0  0  0  0  0  0  0
   18.9384   -8.6343  -12.9446 N   0  0  0  0  0  0  0  0  0  0  0  0
   16.6922   -7.8665  -12.3554 C   0  0  0  0  0  0  0  0  0  0  0  0
   15.6336   -7.2522  -12.7337 O   0  0  0  0  0  0  0  0  0  0  0  0
   16.0872  -13.8847  -16.2722 N   0  0  0  0  0  0  0  0  0  0  0  0
   16.8390   -8.3744  -11.0546 C   0  0  1  0  0  0  0  0  0  0  0  0
   15.7327   -8.2641  -10.1273 C   0  0  0  0  0  0  0  0  0  0  0  0
   15.8041   -9.4811   -9.2372 C   0  0  0  0  0  0  0  0  0  0  0  0
   15.3279  -10.6799   -9.9518 C   0  0  0  0  0  0  0  0  0  0  0  0
   14.0692  -10.8484  -10.5258 N   0  0  0  0  0  0  0  0  0  0  0  0
   14.0415  -12.0778  -11.0667 C   0  0  0  0  0  0  0  0  0  0  0  0
   15.2160  -12.6981  -10.8663 N   0  0  0  0  0  0  0  0  0  0  0  0
   16.0044  -11.8344  -10.1798 C   0  0  0  0  0  0  0  0  0  0  0  0
   15.7871   -7.0392   -9.3266 O   0  0  0  0  0  0  0  0  0  0  0  0
   16.8154   -6.7957   -8.6103 N   0  0  0  0  0  0  0  0  0  0  0  0
   14.4459    1.5356  -10.5352 C   0  0  0  0  0  0  0  0  0  0  0  0
   14.8163    1.3670   -9.1756 N   0  0  0  0  0  0  0  0  0  0  0  0
   15.0814    2.3920   -8.4058 N   0  0  0  0  0  0  0  0  0  0  0  0
   14.9244    0.0899   -8.5681 C   0  0  0  0  0  0  0  0  0  0  0  0
   14.8247   -1.1126   -9.3122 C   0  0  0  0  0  0  0  0  0  0  0  0
   14.9337   -2.3781   -8.4816 C   0  0  0  0  0  0  0  0  0  0  0  0
   14.8527   -3.6109   -9.3021 C   0  0  1  0  0  0  0  0  0  0  0  0
   14.9167   -4.8379   -8.4345 N   0  0  0  0  0  0  0  0  0  0  0  0
   14.7739   -6.0484   -9.2572 C   0  0  0  0  0  0  0  0  0  0  0  0
   13.9155   -4.9106   -7.3667 O   0  0  0  0  0  0  0  0  0  0  0  0
   13.9129   -4.0160   -6.3130 O   0  0  0  0  0  0  0  0  0  0  0  0
  1  2  1  0
  2  4  1  0
  3  2  2  0
  4  5  1  0
  6  7  1  0
  6  5  1  0
  7  8  1  0
  8  9  1  1
 10 12  1  0
 10  8  1  0
 11 10  2  0
 13 12  1  0
 13 20  1  0
 13 14  1  6
 15 14  1  0
 16 15  2  0
 17 16  1  0
 18 17  1  0
 18 19  2  0
 19 15  1  0
 20 21  2  0
 22 23  1  0
 23 25  1  0
 23 24  2  0
 25 26  1  0
 27 26  1  0
 27 28  1  0
 29 28  1  6
 29 31  1  0
 30 20  1  0
 30 29  1  0
 31 32  1  0
 33 31  2  0
M  END
$$$$
