RHR.pdb
     RDKit          3D

 33 33  0  0  1  0  0  0  0  0999 V2000
   28.6912  -23.0273  -16.0317 N   0  0  0  0  0  0  0  0  0  0  0  0
   28.5425  -22.2453  -17.2025 C   0  0  0  0  0  0  0  0  0  0  0  0
   29.5465  -21.9292  -17.9750 N   0  0  0  0  0  0  0  0  0  0  0  0
   27.2618  -21.7507  -17.6057 N   0  0  0  0  0  0  0  0  0  0  0  0
   26.0906  -22.0258  -16.7696 C   0  0  0  0  0  0  0  0  0  0  0  0
   25.3206  -23.2055  -17.2767 C   0  0  0  0  0  0  0  0  0  0  0  0
   24.1208  -23.5461  -16.4334 C   0  0  0  0  0  0  0  0  0  0  0  0
   22.9658  -22.6250  -16.6537 C   0  0  2  0  0  0  0  0  0  0  0  0
   23.1755  -21.8270  -17.8190 N   0  0  0  0  0  0  0  0  0  0  0  0
   22.6221  -21.8675  -15.4370 C   0  0  0  0  0  0  0  0  0  0  0  0
   23.4068  -20.8917  -15.1662 O   0  0  0  0  0  0  0  0  0  0  0  0
   29.3345  -21.2988  -18.7800 N   0  0  0  0  0  0  0  0  0  0  0  0
   21.5178  -22.1865  -14.6306 C   0  0  1  0  0  0  0  0  0  0  0  0
   21.1831  -21.3191  -13.5208 C   0  0  0  0  0  0  0  0  0  0  0  0
   20.8691  -19.9692  -14.1189 C   0  0  0  0  0  0  0  0  0  0  0  0
   20.5051  -19.0029  -13.0661 C   0  0  0  0  0  0  0  0  0  0  0  0
   20.8915  -19.0611  -11.7284 N   0  0  0  0  0  0  0  0  0  0  0  0
   20.3433  -18.0013  -11.1110 C   0  0  0  0  0  0  0  0  0  0  0  0
   19.6296  -17.2740  -11.9862 N   0  0  0  0  0  0  0  0  0  0  0  0
   19.7319  -17.8940  -13.1879 C   0  0  0  0  0  0  0  0  0  0  0  0
   20.0452  -21.8122  -12.7421 O   0  0  0  0  0  0  0  0  0  0  0  0
   18.9726  -22.1619  -13.3394 N   0  0  0  0  0  0  0  0  0  0  0  0
   18.1348  -26.8051   -6.9516 C   0  0  0  0  0  0  0  0  0  0  0  0
   17.1799  -25.8843   -6.4471 N   0  0  0  0  0  0  0  0  0  0  0  0
   15.9848  -26.2704   -6.0781 N   0  0  0  0  0  0  0  0  0  0  0  0
   17.4540  -24.4992   -6.3127 C   0  0  0  0  0  0  0  0  0  0  0  0
   18.4923  -23.8600   -7.0361 C   0  0  0  0  0  0  0  0  0  0  0  0
   18.1445  -23.5274   -8.4755 C   0  0  0  0  0  0  0  0  0  0  0  0
   19.2610  -22.8705   -9.1976 C   0  0  1  0  0  0  0  0  0  0  0  0
   18.9083  -22.6488  -10.6429 N   0  0  0  0  0  0  0  0  0  0  0  0
   20.0039  -21.9491  -11.3304 C   0  0  0  0  0  0  0  0  0  0  0  0
   17.6794  -21.8877  -10.8847 O   0  0  0  0  0  0  0  0  0  0  0  0
   17.6697  -20.5054  -10.8795 O   0  0  0  0  0  0  0  0  0  0  0  0
  1  2  1  0
  2  4  1  0
  3  2  2  0
  4  5  1  0
  6  7  1  0
  6  5  1  0
  7  8  1  0
  8  9  1  6
 10 12  1  0
 10  8  1  0
 11 10  2  0
 13 12  1  0
 13 20  1  0
 13 14  1  1
 15 14  1  0
 16 15  2  0
 17 16  1  0
 18 17  1  0
 18 19  2  0
 19 15  1  0
 20 21  2  0
 22 23  1  0
 23 25  1  0
 23 24  2  0
 25 26  1  0
 27 26  1  0
 27 28  1  0
 29 28  1  6
 29 31  1  0
 30 20  1  0
 30 29  1  0
 31 32  1  0
 33 31  2  0
M  END
$$$$
