RHR.pdb
     RDKit          3D

 33 33  0  0  1  0  0  0  0  0999 V2000
   28.0252  -16.3360  -21.8071 N   0  0  0  0  0  0  0  0  0  0  0  0
   27.1286  -15.2478  -21.6791 C   0  0  0  0  0  0  0  0  0  0  0  0
   27.0880  -14.2599  -22.5318 N   0  0  0  0  0  0  0  0  0  0  0  0
   26.2055  -15.1725  -20.5885 N   0  0  0  0  0  0  0  0  0  0  0  0
   26.0036  -16.3473  -19.7367 C   0  0  0  0  0  0  0  0  0  0  0  0
   24.9975  -17.2856  -20.3273 C   0  0  0  0  0  0  0  0  0  0  0  0
   24.7474  -18.5063  -19.4823 C   0  0  0  0  0  0  0  0  0  0  0  0
   24.1653  -18.1869  -18.1443 C   0  0  2  0  0  0  0  0  0  0  0  0
   24.8484  -17.0824  -17.5506 N   0  0  0  0  0  0  0  0  0  0  0  0
   24.0572  -19.3818  -17.2882 C   0  0  0  0  0  0  0  0  0  0  0  0
   23.4193  -20.3642  -17.8069 O   0  0  0  0  0  0  0  0  0  0  0  0
   26.4624  -13.4599  -22.2886 N   0  0  0  0  0  0  0  0  0  0  0  0
   24.6104  -19.4449  -15.9992 C   0  0  1  0  0  0  0  0  0  0  0  0
   24.5307  -20.6869  -15.2595 C   0  0  0  0  0  0  0  0  0  0  0  0
   25.9014  -20.9171  -14.6707 C   0  0  0  0  0  0  0  0  0  0  0  0
   26.8722  -21.2620  -15.7258 C   0  0  0  0  0  0  0  0  0  0  0  0
   26.6059  -21.3480  -17.0910 N   0  0  0  0  0  0  0  0  0  0  0  0
   27.7536  -21.6936  -17.6978 C   0  0  0  0  0  0  0  0  0  0  0  0
   28.7339  -21.8314  -16.7897 N   0  0  0  0  0  0  0  0  0  0  0  0
   28.1871  -21.5649  -15.5778 C   0  0  0  0  0  0  0  0  0  0  0  0
   23.5180  -20.6504  -14.2024 O   0  0  0  0  0  0  0  0  0  0  0  0
   23.5211  -19.6959  -13.3547 N   0  0  0  0  0  0  0  0  0  0  0  0
   18.3828  -24.5377   -9.3565 C   0  0  0  0  0  0  0  0  0  0  0  0
   17.2887  -23.7823   -9.8530 N   0  0  0  0  0  0  0  0  0  0  0  0
   16.2395  -23.5286   -9.1126 N   0  0  0  0  0  0  0  0  0  0  0  0
   17.2595  -23.2596  -11.1712 C   0  0  0  0  0  0  0  0  0  0  0  0
   18.3302  -23.4438  -12.0819 C   0  0  0  0  0  0  0  0  0  0  0  0
   19.4330  -22.4065  -11.9755 C   0  0  0  0  0  0  0  0  0  0  0  0
   20.4047  -22.4866  -13.0930 C   0  0  2  0  0  0  0  0  0  0  0  0
   21.5369  -21.5173  -12.8898 N   0  0  0  0  0  0  0  0  0  0  0  0
   22.4866  -21.6054  -14.0092 C   0  0  0  0  0  0  0  0  0  0  0  0
   22.3003  -21.6871  -11.6503 O   0  0  0  0  0  0  0  0  0  0  0  0
   21.9731  -20.9988  -10.4971 O   0  0  0  0  0  0  0  0  0  0  0  0
  1  2  1  0
  2  4  1  0
  3  2  2  0
  4  5  1  0
  6  7  1  0
  6  5  1  0
  7  8  1  0
  8  9  1  1
 10 12  1  0
 10  8  1  0
 11 10  2  0
 13 12  1  0
 13 20  1  0
 13 14  1  6
 15 14  1  0
 16 15  2  0
 17 16  1  0
 18 17  1  0
 18 19  2  0
 19 15  1  0
 20 21  2  0
 22 23  1  0
 23 25  1  0
 23 24  2  0
 25 26  1  0
 27 26  1  0
 27 28  1  0
 29 28  1  6
 29 31  1  0
 30 20  1  0
 30 29  1  0
 31 32  1  0
 33 31  2  0
M  END
$$$$
