RHR.pdb
     RDKit          3D

 33 33  0  0  1  0  0  0  0  0999 V2000
   23.6027  -25.0958  -16.0758 N   0  0  0  0  0  0  0  0  0  0  0  0
   24.5830  -24.2698  -15.4750 C   0  0  0  0  0  0  0  0  0  0  0  0
   25.8379  -24.2835  -15.8354 N   0  0  0  0  0  0  0  0  0  0  0  0
   24.2435  -23.3625  -14.4220 N   0  0  0  0  0  0  0  0  0  0  0  0
   22.8391  -23.2055  -14.0350 C   0  0  0  0  0  0  0  0  0  0  0  0
   22.0710  -22.4333  -15.0623 C   0  0  0  0  0  0  0  0  0  0  0  0
   21.1936  -21.3606  -14.4740 C   0  0  0  0  0  0  0  0  0  0  0  0
   20.3696  -20.6481  -15.4959 C   0  0  2  0  0  0  0  0  0  0  0  0
   19.3750  -21.5194  -16.0349 N   0  0  0  0  0  0  0  0  0  0  0  0
   21.2034  -19.9628  -16.4995 C   0  0  0  0  0  0  0  0  0  0  0  0
   21.4726  -20.6541  -17.5440 O   0  0  0  0  0  0  0  0  0  0  0  0
   26.5010  -23.7449  -15.2349 N   0  0  0  0  0  0  0  0  0  0  0  0
   21.6710  -18.6498  -16.3296 C   0  0  2  0  0  0  0  0  0  0  0  0
   22.5775  -18.0930  -17.3116 C   0  0  0  0  0  0  0  0  0  0  0  0
   22.5349  -16.5957  -17.1254 C   0  0  0  0  0  0  0  0  0  0  0  0
   21.3899  -16.0115  -17.8480 C   0  0  0  0  0  0  0  0  0  0  0  0
   20.4864  -16.7035  -18.6524 N   0  0  0  0  0  0  0  0  0  0  0  0
   19.6073  -15.8044  -19.1252 C   0  0  0  0  0  0  0  0  0  0  0  0
   19.9052  -14.5787  -18.6633 N   0  0  0  0  0  0  0  0  0  0  0  0
   21.0028  -14.7109  -17.8780 C   0  0  0  0  0  0  0  0  0  0  0  0
   23.9468  -18.5898  -17.1616 O   0  0  0  0  0  0  0  0  0  0  0  0
   24.4917  -18.6069  -16.0072 N   0  0  0  0  0  0  0  0  0  0  0  0
   27.6649  -25.9579  -19.0646 C   0  0  0  0  0  0  0  0  0  0  0  0
   26.9402  -25.4169  -17.9709 N   0  0  0  0  0  0  0  0  0  0  0  0
   26.2157  -26.1751  -17.1873 N   0  0  0  0  0  0  0  0  0  0  0  0
   26.9513  -24.0333  -17.6590 C   0  0  0  0  0  0  0  0  0  0  0  0
   27.6370  -23.0835  -18.4575 C   0  0  0  0  0  0  0  0  0  0  0  0
   27.4992  -21.6476  -17.9858 C   0  0  0  0  0  0  0  0  0  0  0  0
   26.1477  -21.0899  -18.2346 C   0  0  2  0  0  0  0  0  0  0  0  0
   26.1188  -19.6112  -17.9606 N   0  0  0  0  0  0  0  0  0  0  0  0
   24.7717  -19.0760  -18.2086 C   0  0  0  0  0  0  0  0  0  0  0  0
   27.0631  -18.8050  -18.7391 O   0  0  0  0  0  0  0  0  0  0  0  0
   26.6442  -17.7267  -19.4958 O   0  0  0  0  0  0  0  0  0  0  0  0
  1  2  1  0
  2  4  1  0
  3  2  2  0
  4  5  1  0
  6  7  1  0
  6  5  1  0
  7  8  1  0
  8  9  1  6
 10 12  1  0
 10  8  1  0
 11 10  2  0
 13 12  1  0
 13 20  1  0
 13 14  1  1
 15 14  1  0
 16 15  2  0
 17 16  1  0
 18 17  1  0
 18 19  2  0
 19 15  1  0
 20 21  2  0
 22 23  1  0
 23 25  1  0
 23 24  2  0
 25 26  1  0
 27 26  1  0
 27 28  1  0
 29 28  1  1
 29 31  1  0
 30 20  1  0
 30 29  1  0
 31 32  1  0
 33 31  2  0
M  END
$$$$
