RHR.pdb
     RDKit          3D

 33 33  0  0  1  0  0  0  0  0999 V2000
   17.8716  -13.3554  -18.9976 N   0  0  0  0  0  0  0  0  0  0  0  0
   18.7347  -12.4366  -19.6419 C   0  0  0  0  0  0  0  0  0  0  0  0
   18.2974  -11.4525  -20.3801 N   0  0  0  0  0  0  0  0  0  0  0  0
   20.1562  -12.5420  -19.5166 N   0  0  0  0  0  0  0  0  0  0  0  0
   20.7288  -13.6561  -18.7566 C   0  0  0  0  0  0  0  0  0  0  0  0
   20.5596  -13.4576  -17.2823 C   0  0  0  0  0  0  0  0  0  0  0  0
   21.1032  -14.5939  -16.4578 C   0  0  0  0  0  0  0  0  0  0  0  0
   21.1607  -15.8871  -17.2032 C   0  0  2  0  0  0  0  0  0  0  0  0
   20.3462  -15.8280  -18.3743 N   0  0  0  0  0  0  0  0  0  0  0  0
   20.9029  -17.0433  -16.3262 C   0  0  0  0  0  0  0  0  0  0  0  0
   20.9509  -16.7928  -15.0708 O   0  0  0  0  0  0  0  0  0  0  0  0
   19.0217  -10.8393  -20.8159 N   0  0  0  0  0  0  0  0  0  0  0  0
   20.6245  -18.3265  -16.8237 C   0  0  1  0  0  0  0  0  0  0  0  0
   20.4583  -19.4217  -15.8916 C   0  0  0  0  0  0  0  0  0  0  0  0
   19.4681  -20.3690  -16.5244 C   0  0  0  0  0  0  0  0  0  0  0  0
   18.0998  -19.8249  -16.4446 C   0  0  0  0  0  0  0  0  0  0  0  0
   17.2003  -20.0138  -15.3971 N   0  0  0  0  0  0  0  0  0  0  0  0
   16.0720  -19.3604  -15.7207 C   0  0  0  0  0  0  0  0  0  0  0  0
   16.2081  -18.7670  -16.9181 N   0  0  0  0  0  0  0  0  0  0  0  0
   17.4573  -19.0555  -17.3598 C   0  0  0  0  0  0  0  0  0  0  0  0
   21.7165  -20.1129  -15.6026 O   0  0  0  0  0  0  0  0  0  0  0  0
   22.6050  -20.2185  -16.5131 N   0  0  0  0  0  0  0  0  0  0  0  0
   27.3721  -20.3776   -8.7643 C   0  0  0  0  0  0  0  0  0  0  0  0
   27.9586  -21.0391   -9.8745 N   0  0  0  0  0  0  0  0  0  0  0  0
   29.2381  -21.3132   -9.9106 N   0  0  0  0  0  0  0  0  0  0  0  0
   27.2053  -21.4407  -11.0072 C   0  0  0  0  0  0  0  0  0  0  0  0
   25.8854  -20.9789  -11.2403 C   0  0  0  0  0  0  0  0  0  0  0  0
   25.2866  -21.4244  -12.5618 C   0  0  0  0  0  0  0  0  0  0  0  0
   23.9634  -20.8095  -12.8275 C   0  0  1  0  0  0  0  0  0  0  0  0
   23.3948  -21.3020  -14.1301 N   0  0  0  0  0  0  0  0  0  0  0  0
   22.0710  -20.7055  -14.3631 C   0  0  0  0  0  0  0  0  0  0  0  0
   23.2496  -22.7556  -14.2475 O   0  0  0  0  0  0  0  0  0  0  0  0
   22.0078  -23.3627  -14.2476 O   0  0  0  0  0  0  0  0  0  0  0  0
  1  2  1  0
  2  4  1  0
  3  2  2  0
  4  5  1  0
  6  7  1  0
  6  5  1  0
  7  8  1  0
  8  9  1  6
 10 12  1  0
 10  8  1  0
 11 10  2  0
 13 12  1  0
 13 20  1  0
 13 14  1  1
 15 14  1  0
 16 15  2  0
 17 16  1  0
 18 17  1  0
 18 19  2  0
 19 15  1  0
 20 21  2  0
 22 23  1  0
 23 25  1  0
 23 24  2  0
 25 26  1  0
 27 26  1  0
 27 28  1  0
 29 28  1  6
 29 31  1  0
 30 20  1  0
 30 29  1  0
 31 32  1  0
 33 31  2  0
M  END
$$$$
