RHR.pdb
     RDKit          3D

 33 33  0  0  1  0  0  0  0  0999 V2000
   29.8754  -15.7010  -17.2529 N   0  0  0  0  0  0  0  0  0  0  0  0
   29.0823  -14.5306  -17.3266 C   0  0  0  0  0  0  0  0  0  0  0  0
   29.4503  -13.4664  -17.9874 N   0  0  0  0  0  0  0  0  0  0  0  0
   27.8147  -14.4516  -16.6676 N   0  0  0  0  0  0  0  0  0  0  0  0
   27.3542  -15.5837  -15.8597 C   0  0  0  0  0  0  0  0  0  0  0  0
   26.7443  -16.6527  -16.7123 C   0  0  0  0  0  0  0  0  0  0  0  0
   26.1906  -17.8078  -15.9212 C   0  0  0  0  0  0  0  0  0  0  0  0
   27.2331  -18.7983  -15.5173 C   0  0  2  0  0  0  0  0  0  0  0  0
   27.8557  -19.3690  -16.6686 N   0  0  0  0  0  0  0  0  0  0  0  0
   26.7192  -19.7760  -14.5415 C   0  0  0  0  0  0  0  0  0  0  0  0
   26.1530  -20.8054  -15.0523 O   0  0  0  0  0  0  0  0  0  0  0  0
   28.7843  -12.6622  -17.9838 N   0  0  0  0  0  0  0  0  0  0  0  0
   26.8384  -19.5982  -13.1538 C   0  0  2  0  0  0  0  0  0  0  0  0
   26.2517  -20.5796  -12.2657 C   0  0  0  0  0  0  0  0  0  0  0  0
   26.8729  -20.3478  -10.9098 C   0  0  0  0  0  0  0  0  0  0  0  0
   28.2364  -20.9070  -10.8570 C   0  0  0  0  0  0  0  0  0  0  0  0
   28.8863  -21.5861  -11.8860 N   0  0  0  0  0  0  0  0  0  0  0  0
   30.1008  -21.9320  -11.4276 C   0  0  0  0  0  0  0  0  0  0  0  0
   30.2558  -21.5083  -10.1623 N   0  0  0  0  0  0  0  0  0  0  0  0
   29.1062  -20.8783   -9.8154 C   0  0  0  0  0  0  0  0  0  0  0  0
   24.7936  -20.4698  -12.1873 O   0  0  0  0  0  0  0  0  0  0  0  0
   24.2472  -19.3176  -12.1277 N   0  0  0  0  0  0  0  0  0  0  0  0
   20.0471  -25.6223  -14.9380 C   0  0  0  0  0  0  0  0  0  0  0  0
   18.8605  -25.2148  -14.2746 N   0  0  0  0  0  0  0  0  0  0  0  0
   17.8924  -26.0591  -14.0225 N   0  0  0  0  0  0  0  0  0  0  0  0
   18.6467  -23.8794  -13.8471 C   0  0  0  0  0  0  0  0  0  0  0  0
   19.6328  -22.8715  -13.9932 C   0  0  0  0  0  0  0  0  0  0  0  0
   20.2612  -22.4118  -12.6904 C   0  0  0  0  0  0  0  0  0  0  0  0
   21.7323  -22.5990  -12.6665 C   0  0  2  0  0  0  0  0  0  0  0  0
   22.4236  -21.3543  -12.1813 N   0  0  0  0  0  0  0  0  0  0  0  0
   23.8803  -21.5556  -12.1692 C   0  0  0  0  0  0  0  0  0  0  0  0
   22.0318  -20.8924  -10.8467 O   0  0  0  0  0  0  0  0  0  0  0  0
   20.8796  -20.1563  -10.6434 O   0  0  0  0  0  0  0  0  0  0  0  0
  1  2  1  0
  2  4  1  0
  3  2  2  0
  4  5  1  0
  6  7  1  0
  6  5  1  0
  7  8  1  0
  8  9  1  6
 10 12  1  0
 10  8  1  0
 11 10  2  0
 13 12  1  0
 13 20  1  0
 13 14  1  6
 15 14  1  0
 16 15  2  0
 17 16  1  0
 18 17  1  0
 18 19  2  0
 19 15  1  0
 20 21  2  0
 22 23  1  0
 23 25  1  0
 23 24  2  0
 25 26  1  0
 27 26  1  0
 27 28  1  0
 29 28  1  6
 29 31  1  0
 30 20  1  0
 30 29  1  0
 31 32  1  0
 33 31  2  0
M  END
$$$$
