RHR.pdb
     RDKit          3D

 33 33  0  0  1  0  0  0  0  0999 V2000
   43.8888  -18.4090   -9.2810 N   0  0  0  0  0  0  0  0  0  0  0  0
   45.0050  -18.1318   -8.4553 C   0  0  0  0  0  0  0  0  0  0  0  0
   46.0047  -18.9597   -8.3150 N   0  0  0  0  0  0  0  0  0  0  0  0
   45.0957  -16.9092   -7.7176 N   0  0  0  0  0  0  0  0  0  0  0  0
   43.9261  -16.0303   -7.6386 C   0  0  0  0  0  0  0  0  0  0  0  0
   43.8460  -15.1175   -8.8226 C   0  0  0  0  0  0  0  0  0  0  0  0
   42.6279  -14.2328   -8.8166 C   0  0  0  0  0  0  0  0  0  0  0  0
   42.9365  -12.8084   -8.4894 C   0  0  2  0  0  0  0  0  0  0  0  0
   43.5952  -12.7151   -7.2260 N   0  0  0  0  0  0  0  0  0  0  0  0
   41.7567  -11.9379   -8.6394 C   0  0  0  0  0  0  0  0  0  0  0  0
   41.2509  -11.9084   -9.8160 O   0  0  0  0  0  0  0  0  0  0  0  0
   46.7920  -18.6409   -7.7074 N   0  0  0  0  0  0  0  0  0  0  0  0
   41.2218  -11.1940   -7.5754 C   0  0  1  0  0  0  0  0  0  0  0  0
   40.0481  -10.3786   -7.8071 C   0  0  0  0  0  0  0  0  0  0  0  0
   39.3122  -10.3131   -6.4908 C   0  0  0  0  0  0  0  0  0  0  0  0
   38.0264   -9.6079   -6.6454 C   0  0  0  0  0  0  0  0  0  0  0  0
   37.5618   -8.9912   -7.8056 N   0  0  0  0  0  0  0  0  0  0  0  0
   36.3597   -8.4639   -7.5201 C   0  0  0  0  0  0  0  0  0  0  0  0
   36.0370   -8.7133   -6.2403 N   0  0  0  0  0  0  0  0  0  0  0  0
   37.0654   -9.4173   -5.7059 C   0  0  0  0  0  0  0  0  0  0  0  0
   40.3799   -9.0319   -8.2767 O   0  0  0  0  0  0  0  0  0  0  0  0
   41.3591   -8.4018   -7.7535 N   0  0  0  0  0  0  0  0  0  0  0  0
   38.1984   -3.8847  -15.4088 C   0  0  0  0  0  0  0  0  0  0  0  0
   39.1289   -3.1736  -14.6072 N   0  0  0  0  0  0  0  0  0  0  0  0
   39.5260   -1.9676  -14.9256 N   0  0  0  0  0  0  0  0  0  0  0  0
   39.6855   -3.7177  -13.4215 C   0  0  0  0  0  0  0  0  0  0  0  0
   39.2907   -4.9798  -12.9105 C   0  0  0  0  0  0  0  0  0  0  0  0
   39.9603   -5.3680  -11.6051 C   0  0  0  0  0  0  0  0  0  0  0  0
   39.5228   -6.6957  -11.1094 C   0  0  1  0  0  0  0  0  0  0  0  0
   40.1704   -7.0157   -9.7901 N   0  0  0  0  0  0  0  0  0  0  0  0
   39.6992   -8.3186   -9.2971 C   0  0  0  0  0  0  0  0  0  0  0  0
   39.9504   -6.0354   -8.7231 O   0  0  0  0  0  0  0  0  0  0  0  0
   40.9140   -5.1042   -8.3838 O   0  0  0  0  0  0  0  0  0  0  0  0
  1  2  1  0
  2  4  1  0
  3  2  2  0
  4  5  1  0
  6  7  1  0
  6  5  1  0
  7  8  1  0
  8  9  1  1
 10 12  1  0
 10  8  1  0
 11 10  2  0
 13 12  1  0
 13 20  1  0
 13 14  1  6
 15 14  1  0
 16 15  2  0
 17 16  1  0
 18 17  1  0
 18 19  2  0
 19 15  1  0
 20 21  2  0
 22 23  1  0
 23 25  1  0
 23 24  2  0
 25 26  1  0
 27 26  1  0
 27 28  1  0
 29 28  1  6
 29 31  1  0
 30 20  1  0
 30 29  1  0
 31 32  1  0
 33 31  2  0
M  END
$$$$
