RHR.pdb
     RDKit          3D

 33 33  0  0  1  0  0  0  0  0999 V2000
   23.9331  -34.9465  -11.9875 N   0  0  0  0  0  0  0  0  0  0  0  0
   25.1925  -35.5115  -12.3021 C   0  0  0  0  0  0  0  0  0  0  0  0
   25.4957  -36.7544  -12.0419 N   0  0  0  0  0  0  0  0  0  0  0  0
   26.2168  -34.7351  -12.9309 N   0  0  0  0  0  0  0  0  0  0  0  0
   25.8933  -33.4015  -13.4442 C   0  0  0  0  0  0  0  0  0  0  0  0
   27.0851  -32.7554  -14.0796 C   0  0  0  0  0  0  0  0  0  0  0  0
   26.7911  -31.4005  -14.6666 C   0  0  0  0  0  0  0  0  0  0  0  0
   26.3880  -31.4565  -16.1038 C   0  0  2  0  0  0  0  0  0  0  0  0
   27.3447  -30.7801  -16.9199 N   0  0  0  0  0  0  0  0  0  0  0  0
   24.9911  -31.0312  -16.3038 C   0  0  0  0  0  0  0  0  0  0  0  0
   24.8108  -29.7635  -16.3435 O   0  0  0  0  0  0  0  0  0  0  0  0
   26.4521  -37.0687  -12.3196 N   0  0  0  0  0  0  0  0  0  0  0  0
   23.9321  -31.9428  -16.4416 C   0  0  2  0  0  0  0  0  0  0  0  0
   22.5765  -31.4403  -16.5175 C   0  0  0  0  0  0  0  0  0  0  0  0
   21.7330  -32.5767  -17.0424 C   0  0  0  0  0  0  0  0  0  0  0  0
   20.3396  -32.1410  -17.2497 C   0  0  0  0  0  0  0  0  0  0  0  0
   19.9050  -30.8266  -17.4101 N   0  0  0  0  0  0  0  0  0  0  0  0
   18.5710  -30.8661  -17.5638 C   0  0  0  0  0  0  0  0  0  0  0  0
   18.1363  -32.1360  -17.5094 N   0  0  0  0  0  0  0  0  0  0  0  0
   19.2278  -32.9170  -17.3160 C   0  0  0  0  0  0  0  0  0  0  0  0
   22.0708  -30.9822  -15.2219 O   0  0  0  0  0  0  0  0  0  0  0  0
   22.3562  -31.6360  -14.1632 N   0  0  0  0  0  0  0  0  0  0  0  0
   18.2473  -23.4914  -11.9172 C   0  0  0  0  0  0  0  0  0  0  0  0
   18.7641  -24.2497  -10.8347 N   0  0  0  0  0  0  0  0  0  0  0  0
   18.6280  -23.8537   -9.5945 N   0  0  0  0  0  0  0  0  0  0  0  0
   19.4568  -25.4730  -11.0233 C   0  0  0  0  0  0  0  0  0  0  0  0
   19.7204  -26.0020  -12.3119 C   0  0  0  0  0  0  0  0  0  0  0  0
   20.2496  -27.4244  -12.3125 C   0  0  0  0  0  0  0  0  0  0  0  0
   20.5898  -27.9086  -13.6724 C   0  0  2  0  0  0  0  0  0  0  0  0
   20.8913  -29.3822  -13.6573 N   0  0  0  0  0  0  0  0  0  0  0  0
   21.2601  -29.8379  -15.0060 C   0  0  0  0  0  0  0  0  0  0  0  0
   19.8062  -30.2452  -13.1823 O   0  0  0  0  0  0  0  0  0  0  0  0
   19.7112  -30.6280  -11.8574 O   0  0  0  0  0  0  0  0  0  0  0  0
  1  2  1  0
  2  4  1  0
  3  2  2  0
  4  5  1  0
  6  7  1  0
  6  5  1  0
  7  8  1  0
  8  9  1  6
 10 12  1  0
 10  8  1  0
 11 10  2  0
 13 12  1  0
 13 20  1  0
 13 14  1  6
 15 14  1  0
 16 15  2  0
 17 16  1  0
 18 17  1  0
 18 19  2  0
 19 15  1  0
 20 21  2  0
 22 23  1  0
 23 25  1  0
 23 24  2  0
 25 26  1  0
 27 26  1  0
 27 28  1  0
 29 28  1  1
 29 31  1  0
 30 20  1  0
 30 29  1  0
 31 32  1  0
 33 31  2  0
M  END
$$$$
