RHR.pdb
     RDKit          3D

 33 33  0  0  1  0  0  0  0  0999 V2000
   22.9126  -10.2391  -24.8257 N   0  0  0  0  0  0  0  0  0  0  0  0
   22.4902  -11.5840  -24.6952 C   0  0  0  0  0  0  0  0  0  0  0  0
   21.9139  -12.2423  -25.6644 N   0  0  0  0  0  0  0  0  0  0  0  0
   22.6747  -12.3035  -23.4723 N   0  0  0  0  0  0  0  0  0  0  0  0
   23.2922  -11.6277  -22.3283 C   0  0  0  0  0  0  0  0  0  0  0  0
   23.3738  -12.5312  -21.1372 C   0  0  0  0  0  0  0  0  0  0  0  0
   24.0199  -11.8876  -19.9394 C   0  0  0  0  0  0  0  0  0  0  0  0
   23.1607  -10.8505  -19.2934 C   0  0  2  0  0  0  0  0  0  0  0  0
   23.8019   -9.5752  -19.3278 N   0  0  0  0  0  0  0  0  0  0  0  0
   22.6905  -11.2724  -17.9617 C   0  0  0  0  0  0  0  0  0  0  0  0
   23.6072  -11.3864  -17.0742 O   0  0  0  0  0  0  0  0  0  0  0  0
   21.6651  -13.2373  -25.4683 N   0  0  0  0  0  0  0  0  0  0  0  0
   21.3394  -11.5313  -17.6804 C   0  0  2  0  0  0  0  0  0  0  0  0
   20.9745  -12.0129  -16.3648 C   0  0  0  0  0  0  0  0  0  0  0  0
   19.8717  -11.1067  -15.8737 C   0  0  0  0  0  0  0  0  0  0  0  0
   20.4147   -9.7997  -15.4595 C   0  0  0  0  0  0  0  0  0  0  0  0
   21.7635   -9.4580  -15.3810 N   0  0  0  0  0  0  0  0  0  0  0  0
   21.8258   -8.1845  -14.9579 C   0  0  0  0  0  0  0  0  0  0  0  0
   20.5879   -7.7002  -14.7638 N   0  0  0  0  0  0  0  0  0  0  0  0
   19.7229   -8.6975  -15.0736 C   0  0  0  0  0  0  0  0  0  0  0  0
   20.5252  -13.4065  -16.3782 O   0  0  0  0  0  0  0  0  0  0  0  0
   20.0940  -13.9228  -17.4632 N   0  0  0  0  0  0  0  0  0  0  0  0
   15.2959  -18.0017  -19.5227 C   0  0  0  0  0  0  0  0  0  0  0  0
   15.7745  -18.9331  -18.5648 N   0  0  0  0  0  0  0  0  0  0  0  0
   15.2983  -20.1504  -18.4960 N   0  0  0  0  0  0  0  0  0  0  0  0
   16.7882  -18.6090  -17.6272 C   0  0  0  0  0  0  0  0  0  0  0  0
   17.3715  -17.3186  -17.5597 C   0  0  0  0  0  0  0  0  0  0  0  0
   18.3873  -17.1442  -16.4456 C   0  0  0  0  0  0  0  0  0  0  0  0
   18.9080  -15.7584  -16.3567 C   0  0  2  0  0  0  0  0  0  0  0  0
   20.0344  -15.6712  -15.3637 N   0  0  0  0  0  0  0  0  0  0  0  0
   20.5165  -14.2855  -15.2644 C   0  0  0  0  0  0  0  0  0  0  0  0
   21.1940  -16.5217  -15.6461 O   0  0  0  0  0  0  0  0  0  0  0  0
   22.2424  -16.0809  -16.4319 O   0  0  0  0  0  0  0  0  0  0  0  0
  1  2  1  0
  2  4  1  0
  3  2  2  0
  4  5  1  0
  6  7  1  0
  6  5  1  0
  7  8  1  0
  8  9  1  1
 10 12  1  0
 10  8  1  0
 11 10  2  0
 13 12  1  0
 13 20  1  0
 13 14  1  6
 15 14  1  0
 16 15  2  0
 17 16  1  0
 18 17  1  0
 18 19  2  0
 19 15  1  0
 20 21  2  0
 22 23  1  0
 23 25  1  0
 23 24  2  0
 25 26  1  0
 27 26  1  0
 27 28  1  0
 29 28  1  1
 29 31  1  0
 30 20  1  0
 30 29  1  0
 31 32  1  0
 33 31  2  0
M  END
$$$$
