RHR.pdb
     RDKit          3D

 33 33  0  0  1  0  0  0  0  0999 V2000
   30.5489  -20.3058  -20.1309 N   0  0  0  0  0  0  0  0  0  0  0  0
   29.7317  -21.4569  -20.0242 C   0  0  0  0  0  0  0  0  0  0  0  0
   29.7968  -22.4520  -20.8670 N   0  0  0  0  0  0  0  0  0  0  0  0
   28.7741  -21.5908  -18.9695 N   0  0  0  0  0  0  0  0  0  0  0  0
   28.5076  -20.4476  -18.0929 C   0  0  0  0  0  0  0  0  0  0  0  0
   28.8682  -20.7513  -16.6718 C   0  0  0  0  0  0  0  0  0  0  0  0
   28.0462  -21.8586  -16.0680 C   0  0  0  0  0  0  0  0  0  0  0  0
   26.7015  -21.4061  -15.6010 C   0  0  2  0  0  0  0  0  0  0  0  0
   26.4728  -20.0464  -15.9721 N   0  0  0  0  0  0  0  0  0  0  0  0
   26.4816  -21.7050  -14.1746 C   0  0  0  0  0  0  0  0  0  0  0  0
   26.4730  -22.9510  -13.8769 O   0  0  0  0  0  0  0  0  0  0  0  0
   29.1231  -23.2354  -20.7159 N   0  0  0  0  0  0  0  0  0  0  0  0
   26.2949  -20.7030  -13.2088 C   0  0  1  0  0  0  0  0  0  0  0  0
   25.3326  -20.9181  -12.1487 C   0  0  0  0  0  0  0  0  0  0  0  0
   25.8617  -20.1822  -10.9417 C   0  0  0  0  0  0  0  0  0  0  0  0
   27.2223  -20.6406  -10.6050 C   0  0  0  0  0  0  0  0  0  0  0  0
   27.9621  -21.5969  -11.2982 N   0  0  0  0  0  0  0  0  0  0  0  0
   29.1384  -21.7255  -10.6622 C   0  0  0  0  0  0  0  0  0  0  0  0
   29.1840  -20.9015   -9.6022 N   0  0  0  0  0  0  0  0  0  0  0  0
   28.0029  -20.2360   -9.5709 C   0  0  0  0  0  0  0  0  0  0  0  0
   23.9935  -20.4379  -12.4958 O   0  0  0  0  0  0  0  0  0  0  0  0
   23.8369  -19.6714  -13.5045 N   0  0  0  0  0  0  0  0  0  0  0  0
   18.8165  -25.6363  -16.3863 C   0  0  0  0  0  0  0  0  0  0  0  0
   19.8298  -24.7748  -16.8814 N   0  0  0  0  0  0  0  0  0  0  0  0
   20.0288  -24.6187  -18.1657 N   0  0  0  0  0  0  0  0  0  0  0  0
   20.6862  -24.0353  -16.0260 C   0  0  0  0  0  0  0  0  0  0  0  0
   20.6748  -24.2001  -14.6180 C   0  0  0  0  0  0  0  0  0  0  0  0
   20.5004  -22.9119  -13.8347 C   0  0  0  0  0  0  0  0  0  0  0  0
   21.7458  -22.4824  -13.1535 C   0  0  1  0  0  0  0  0  0  0  0  0
   21.5635  -21.1409  -12.4980 N   0  0  0  0  0  0  0  0  0  0  0  0
   22.7960  -20.7463  -11.7998 C   0  0  0  0  0  0  0  0  0  0  0  0
   20.4635  -21.0524  -11.5335 O   0  0  0  0  0  0  0  0  0  0  0  0
   20.6969  -20.9282  -10.1767 O   0  0  0  0  0  0  0  0  0  0  0  0
  1  2  1  0
  2  4  1  0
  3  2  2  0
  4  5  1  0
  6  7  1  0
  6  5  1  0
  7  8  1  0
  8  9  1  1
 10 12  1  0
 10  8  1  0
 11 10  2  0
 13 12  1  0
 13 20  1  0
 13 14  1  1
 15 14  1  0
 16 15  2  0
 17 16  1  0
 18 17  1  0
 18 19  2  0
 19 15  1  0
 20 21  2  0
 22 23  1  0
 23 25  1  0
 23 24  2  0
 25 26  1  0
 27 26  1  0
 27 28  1  0
 29 28  1  6
 29 31  1  0
 30 20  1  0
 30 29  1  0
 31 32  1  0
 33 31  2  0
M  END
$$$$
