RHR.pdb
     RDKit          3D

 33 33  0  0  1  0  0  0  0  0999 V2000
   29.0865  -24.5353  -16.5539 N   0  0  0  0  0  0  0  0  0  0  0  0
   27.7249  -24.4978  -16.9398 C   0  0  0  0  0  0  0  0  0  0  0  0
   27.0221  -25.5754  -17.1622 N   0  0  0  0  0  0  0  0  0  0  0  0
   27.0369  -23.2549  -17.1106 N   0  0  0  0  0  0  0  0  0  0  0  0
   27.6955  -22.0091  -16.7094 C   0  0  0  0  0  0  0  0  0  0  0  0
   26.8947  -20.8110  -17.1153 C   0  0  0  0  0  0  0  0  0  0  0  0
   25.4352  -20.9174  -16.7619 C   0  0  0  0  0  0  0  0  0  0  0  0
   24.6468  -19.7084  -17.1463 C   0  0  2  0  0  0  0  0  0  0  0  0
   25.5005  -18.5703  -17.2679 N   0  0  0  0  0  0  0  0  0  0  0  0
   23.4733  -19.5131  -16.2762 C   0  0  0  0  0  0  0  0  0  0  0  0
   23.7392  -19.1066  -15.0907 O   0  0  0  0  0  0  0  0  0  0  0  0
   26.0623  -25.4343  -17.5483 N   0  0  0  0  0  0  0  0  0  0  0  0
   22.1591  -19.7528  -16.7086 C   0  0  1  0  0  0  0  0  0  0  0  0
   21.0657  -19.5530  -15.7809 C   0  0  0  0  0  0  0  0  0  0  0  0
   20.1833  -18.4905  -16.3898 C   0  0  0  0  0  0  0  0  0  0  0  0
   20.7191  -17.1447  -16.1136 C   0  0  0  0  0  0  0  0  0  0  0  0
   21.8536  -16.8509  -15.3595 N   0  0  0  0  0  0  0  0  0  0  0  0
   21.9867  -15.5141  -15.3479 C   0  0  0  0  0  0  0  0  0  0  0  0
   20.9967  -14.9443  -16.0548 N   0  0  0  0  0  0  0  0  0  0  0  0
   20.2191  -15.9513  -16.5239 C   0  0  0  0  0  0  0  0  0  0  0  0
   20.3006  -20.7777  -15.5377 O   0  0  0  0  0  0  0  0  0  0  0  0
   19.8314  -21.4379  -16.5244 N   0  0  0  0  0  0  0  0  0  0  0  0
   19.2646  -27.9981  -12.8249 C   0  0  0  0  0  0  0  0  0  0  0  0
   20.4905  -27.4697  -12.3431 N   0  0  0  0  0  0  0  0  0  0  0  0
   21.6238  -28.1016  -12.5163 N   0  0  0  0  0  0  0  0  0  0  0  0
   20.5675  -26.2358  -11.6478 C   0  0  0  0  0  0  0  0  0  0  0  0
   19.4460  -25.3821  -11.4956 C   0  0  0  0  0  0  0  0  0  0  0  0
   19.0489  -24.6337  -12.7548 C   0  0  0  0  0  0  0  0  0  0  0  0
   19.7037  -23.3075  -12.8636 C   0  0  2  0  0  0  0  0  0  0  0  0
   19.2658  -22.5940  -14.1133 N   0  0  0  0  0  0  0  0  0  0  0  0
   20.0106  -21.3352  -14.2656 C   0  0  0  0  0  0  0  0  0  0  0  0
   17.8379  -22.2729  -14.1910 O   0  0  0  0  0  0  0  0  0  0  0  0
   16.9909  -22.9393  -15.0566 O   0  0  0  0  0  0  0  0  0  0  0  0
  1  2  1  0
  2  4  1  0
  3  2  2  0
  4  5  1  0
  6  7  1  0
  6  5  1  0
  7  8  1  0
  8  9  1  1
 10 12  1  0
 10  8  1  0
 11 10  2  0
 13 12  1  0
 13 20  1  0
 13 14  1  1
 15 14  1  0
 16 15  2  0
 17 16  1  0
 18 17  1  0
 18 19  2  0
 19 15  1  0
 20 21  2  0
 22 23  1  0
 23 25  1  0
 23 24  2  0
 25 26  1  0
 27 26  1  0
 27 28  1  0
 29 28  1  6
 29 31  1  0
 30 20  1  0
 30 29  1  0
 31 32  1  0
 33 31  2  0
M  END
$$$$
