NKS.pdb
     RDKit          3D

 24 23  0  0  1  0  0  0  0  0999 V2000
    8.3489  -12.6529   17.8171 N   0  0  0  0  0  0  0  0  0  0  0  0
    7.9632  -14.0071   18.0134 C   0  0  0  0  0  0  0  0  0  0  0  0
    8.1393  -14.9018   17.1591 O   0  0  0  0  0  0  0  0  0  0  0  0
    7.3208  -14.3880   19.2884 C   0  0  0  0  0  0  0  0  0  0  0  0
    8.3385  -14.6642   20.3761 C   0  0  2  0  0  0  0  0  0  0  0  0
    9.1541  -15.8047   20.0276 N   0  0  0  0  0  0  0  0  0  0  0  0
    7.7004  -14.9239   21.6796 C   0  0  0  0  0  0  0  0  0  0  0  0
    6.8172  -14.1455   22.1446 O   0  0  0  0  0  0  0  0  0  0  0  0
    8.0444  -16.0504   22.4674 N   0  0  0  0  0  0  0  0  0  0  0  0
    7.5094  -16.2344   23.8454 C   0  0  1  0  0  0  0  0  0  0  0  0
    8.0865  -17.5636   24.3513 C   0  0  0  0  0  0  0  0  0  0  0  0
    7.7397  -17.8535   25.7614 C   0  0  0  0  0  0  0  0  0  0  0  0
    8.3472  -19.1666   26.2709 C   0  0  0  0  0  0  0  0  0  0  0  0
    8.0080  -19.3105   27.7316 C   0  0  0  0  0  0  0  0  0  0  0  0
    8.5267  -20.6055   28.1919 N   0  0  0  0  0  0  0  0  0  0  0  0
    8.0612  -15.1503   24.6675 C   0  0  0  0  0  0  0  0  0  0  0  0
    9.3037  -14.8805   24.5544 O   0  0  0  0  0  0  0  0  0  0  0  0
    5.8339  -12.5386   26.7804 O   0  0  0  0  0  0  0  0  0  0  0  0
    7.0234  -12.1045   26.2396 C   0  0  0  0  0  0  0  0  0  0  0  0
    8.0002  -13.2879   26.2904 C   0  0  2  0  0  0  0  0  0  0  0  0
    7.3341  -14.3640   25.5791 N   0  0  0  0  0  0  0  0  0  0  0  0
    8.2676  -13.7035   27.6681 C   0  0  0  0  0  0  0  0  0  0  0  0
    7.9392  -14.9665   28.1257 O   0  0  0  0  0  0  0  0  0  0  0  0
    8.8095  -12.9151   28.4851 O   0  0  0  0  0  0  0  0  0  0  0  0
  2  1  1  0
  2  3  2  0
  4  5  1  0
  4  2  1  0
  5  6  1  6
  7  5  1  0
  8  7  2  0
  9  7  1  0
 10  9  1  0
 10 11  1  1
 11 12  1  0
 12 13  1  0
 13 14  1  0
 14 15  1  0
 16 21  1  0
 16 10  1  0
 17 16  2  0
 18 19  1  0
 20 19  1  1
 20 21  1  0
 22 20  1  0
 23 22  1  0
 24 22  2  0
M  END
$$$$
