NKS.pdb
     RDKit          3D

 24 23  0  0  1  0  0  0  0  0999 V2000
    9.3032  -16.6075   12.8237 N   0  0  0  0  0  0  0  0  0  0  0  0
   10.3122  -16.4152   13.8066 C   0  0  0  0  0  0  0  0  0  0  0  0
   11.5061  -16.1749   13.5268 O   0  0  0  0  0  0  0  0  0  0  0  0
    9.9425  -16.5013   15.2346 C   0  0  0  0  0  0  0  0  0  0  0  0
   10.8992  -17.3783   16.0163 C   0  0  2  0  0  0  0  0  0  0  0  0
   10.9596  -18.7010   15.4381 N   0  0  0  0  0  0  0  0  0  0  0  0
   10.5070  -17.5022   17.4321 C   0  0  0  0  0  0  0  0  0  0  0  0
   10.3020  -16.4788   18.1482 O   0  0  0  0  0  0  0  0  0  0  0  0
   10.3424  -18.7653   18.0529 N   0  0  0  0  0  0  0  0  0  0  0  0
    9.9787  -18.8884   19.4922 C   0  0  1  0  0  0  0  0  0  0  0  0
    9.6966  -20.3777   19.7333 C   0  0  0  0  0  0  0  0  0  0  0  0
    8.3289  -20.7857   19.3392 C   0  0  0  0  0  0  0  0  0  0  0  0
    8.0759  -22.2880   19.5181 C   0  0  0  0  0  0  0  0  0  0  0  0
    6.6642  -22.5860   19.0849 C   0  0  0  0  0  0  0  0  0  0  0  0
    6.4440  -24.0320   19.2210 N   0  0  0  0  0  0  0  0  0  0  0  0
   11.1674  -18.5133   20.2680 C   0  0  0  0  0  0  0  0  0  0  0  0
   12.3053  -18.5688   19.6922 O   0  0  0  0  0  0  0  0  0  0  0  0
   11.0691  -16.2663   23.5559 O   0  0  0  0  0  0  0  0  0  0  0  0
   12.1453  -16.2165   22.6986 C   0  0  0  0  0  0  0  0  0  0  0  0
   12.4096  -17.6521   22.2228 C   0  0  2  0  0  0  0  0  0  0  0  0
   11.1680  -18.0855   21.6077 N   0  0  0  0  0  0  0  0  0  0  0  0
   12.7361  -18.5364   23.3425 C   0  0  0  0  0  0  0  0  0  0  0  0
   13.9319  -18.4328   24.0291 O   0  0  0  0  0  0  0  0  0  0  0  0
   11.9296  -19.4265   23.7167 O   0  0  0  0  0  0  0  0  0  0  0  0
  2  1  1  0
  2  3  2  0
  4  5  1  0
  4  2  1  0
  5  6  1  6
  7  5  1  0
  8  7  2  0
  9  7  1  0
 10  9  1  0
 10 11  1  6
 11 12  1  0
 12 13  1  0
 13 14  1  0
 14 15  1  0
 16 21  1  0
 16 10  1  0
 17 16  2  0
 18 19  1  0
 20 19  1  1
 20 21  1  0
 22 20  1  0
 23 22  1  0
 24 22  2  0
M  END
$$$$
