NKS.pdb
     RDKit          3D

 24 23  0  0  1  0  0  0  0  0999 V2000
   12.3563  -18.4460   14.3370 N   0  0  0  0  0  0  0  0  0  0  0  0
   12.4235  -19.2252   15.5243 C   0  0  0  0  0  0  0  0  0  0  0  0
   12.4586  -20.4743   15.5246 O   0  0  0  0  0  0  0  0  0  0  0  0
   12.4541  -18.5343   16.8300 C   0  0  0  0  0  0  0  0  0  0  0  0
   12.2443  -17.0407   16.6865 C   0  0  2  0  0  0  0  0  0  0  0  0
   13.3592  -16.4380   15.9928 N   0  0  0  0  0  0  0  0  0  0  0  0
   12.0884  -16.3746   17.9926 C   0  0  0  0  0  0  0  0  0  0  0  0
   13.0852  -15.8943   18.6074 O   0  0  0  0  0  0  0  0  0  0  0  0
   10.8229  -16.2421   18.6162 N   0  0  0  0  0  0  0  0  0  0  0  0
   10.6677  -15.5699   19.9364 C   0  0  1  0  0  0  0  0  0  0  0  0
    9.2173  -15.0708   19.9911 C   0  0  0  0  0  0  0  0  0  0  0  0
    8.9790  -13.8714   19.1561 C   0  0  0  0  0  0  0  0  0  0  0  0
    7.5034  -13.4548   19.1116 C   0  0  0  0  0  0  0  0  0  0  0  0
    7.3706  -12.2791   18.1792 C   0  0  0  0  0  0  0  0  0  0  0  0
    5.9509  -11.9069   18.1184 N   0  0  0  0  0  0  0  0  0  0  0  0
   10.8385  -16.6027   20.9658 C   0  0  0  0  0  0  0  0  0  0  0  0
   10.6794  -17.8232   20.6274 O   0  0  0  0  0  0  0  0  0  0  0  0
   13.9565  -18.4281   23.1933 O   0  0  0  0  0  0  0  0  0  0  0  0
   13.2585  -17.4934   22.4620 C   0  0  0  0  0  0  0  0  0  0  0  0
   11.8531  -17.4006   23.0729 C   0  0  2  0  0  0  0  0  0  0  0  0
   11.1728  -16.3685   22.3116 N   0  0  0  0  0  0  0  0  0  0  0  0
   11.9062  -17.0138   24.4835 C   0  0  0  0  0  0  0  0  0  0  0  0
   12.3616  -17.8798   25.4607 O   0  0  0  0  0  0  0  0  0  0  0  0
   11.5346  -15.8698   24.8521 O   0  0  0  0  0  0  0  0  0  0  0  0
  2  1  1  0
  2  3  2  0
  4  5  1  0
  4  2  1  0
  5  6  1  1
  7  5  1  0
  8  7  2  0
  9  7  1  0
 10  9  1  0
 10 11  1  6
 11 12  1  0
 12 13  1  0
 13 14  1  0
 14 15  1  0
 16 21  1  0
 16 10  1  0
 17 16  2  0
 18 19  1  0
 20 19  1  6
 20 21  1  0
 22 20  1  0
 23 22  1  0
 24 22  2  0
M  END
$$$$
