NKS.pdb
     RDKit          3D

 24 23  0  0  1  0  0  0  0  0999 V2000
   13.0620  -17.8754   13.8359 N   0  0  0  0  0  0  0  0  0  0  0  0
   12.1455  -18.2336   14.8620 C   0  0  0  0  0  0  0  0  0  0  0  0
   11.4614  -19.2789   14.8372 O   0  0  0  0  0  0  0  0  0  0  0  0
   11.9852  -17.3320   16.0217 C   0  0  0  0  0  0  0  0  0  0  0  0
   11.7707  -18.0986   17.3107 C   0  0  2  0  0  0  0  0  0  0  0  0
   10.4934  -18.7736   17.2910 N   0  0  0  0  0  0  0  0  0  0  0  0
   11.8190  -17.2195   18.4933 C   0  0  0  0  0  0  0  0  0  0  0  0
   12.9034  -16.6872   18.8714 O   0  0  0  0  0  0  0  0  0  0  0  0
   10.6605  -16.9317   19.2568 N   0  0  0  0  0  0  0  0  0  0  0  0
   10.6877  -15.9565   20.3825 C   0  0  1  0  0  0  0  0  0  0  0  0
    9.2662  -15.3868   20.4855 C   0  0  0  0  0  0  0  0  0  0  0  0
    9.0028  -14.2930   19.5229 C   0  0  0  0  0  0  0  0  0  0  0  0
    7.5482  -13.8067   19.5506 C   0  0  0  0  0  0  0  0  0  0  0  0
    7.3535  -12.8293   18.4209 C   0  0  0  0  0  0  0  0  0  0  0  0
    5.9227  -12.5061   18.3427 N   0  0  0  0  0  0  0  0  0  0  0  0
   10.9672  -16.7205   21.6047 C   0  0  0  0  0  0  0  0  0  0  0  0
   10.5266  -17.9161   21.6822 O   0  0  0  0  0  0  0  0  0  0  0  0
   14.2343  -17.0017   23.3999 O   0  0  0  0  0  0  0  0  0  0  0  0
   13.3119  -16.7278   24.3847 C   0  0  0  0  0  0  0  0  0  0  0  0
   11.9358  -17.1359   23.8397 C   0  0  2  0  0  0  0  0  0  0  0  0
   11.6929  -16.2516   22.7143 N   0  0  0  0  0  0  0  0  0  0  0  0
   10.8858  -16.9517   24.8427 C   0  0  0  0  0  0  0  0  0  0  0  0
   10.8017  -17.7535   25.9662 O   0  0  0  0  0  0  0  0  0  0  0  0
   10.0196  -16.0491   24.7101 O   0  0  0  0  0  0  0  0  0  0  0  0
  2  1  1  0
  2  3  2  0
  4  5  1  0
  4  2  1  0
  5  6  1  6
  7  5  1  0
  8  7  2  0
  9  7  1  0
 10  9  1  0
 10 11  1  1
 11 12  1  0
 12 13  1  0
 13 14  1  0
 14 15  1  0
 16 21  1  0
 16 10  1  0
 17 16  2  0
 18 19  1  0
 20 19  1  1
 20 21  1  0
 22 20  1  0
 23 22  1  0
 24 22  2  0
M  END
$$$$
