NKS.pdb
     RDKit          3D

 24 23  0  0  1  0  0  0  0  0999 V2000
   15.1731  -20.2546   14.8544 N   0  0  0  0  0  0  0  0  0  0  0  0
   14.4553  -19.0328   14.7392 C   0  0  0  0  0  0  0  0  0  0  0  0
   14.5457  -18.2741   13.7505 O   0  0  0  0  0  0  0  0  0  0  0  0
   13.5537  -18.6290   15.8380 C   0  0  0  0  0  0  0  0  0  0  0  0
   12.9074  -17.2840   15.5762 C   0  0  2  0  0  0  0  0  0  0  0  0
   13.6642  -16.5421   14.5942 N   0  0  0  0  0  0  0  0  0  0  0  0
   12.8037  -16.4706   16.8015 C   0  0  0  0  0  0  0  0  0  0  0  0
   13.8250  -16.2029   17.4999 O   0  0  0  0  0  0  0  0  0  0  0  0
   11.5633  -15.9540   17.2514 N   0  0  0  0  0  0  0  0  0  0  0  0
   11.4569  -15.1530   18.5027 C   0  0  1  0  0  0  0  0  0  0  0  0
   10.0988  -14.4408   18.4371 C   0  0  0  0  0  0  0  0  0  0  0  0
    9.8454  -13.5554   19.5966 C   0  0  0  0  0  0  0  0  0  0  0  0
    8.4783  -12.8626   19.5351 C   0  0  0  0  0  0  0  0  0  0  0  0
    8.2990  -12.0548   20.7939 C   0  0  0  0  0  0  0  0  0  0  0  0
    7.0155  -11.3467   20.6992 N   0  0  0  0  0  0  0  0  0  0  0  0
   11.4240  -16.1053   19.6197 C   0  0  0  0  0  0  0  0  0  0  0  0
   10.5103  -16.9967   19.6251 O   0  0  0  0  0  0  0  0  0  0  0  0
   14.3956  -17.3802   21.4189 O   0  0  0  0  0  0  0  0  0  0  0  0
   13.2431  -18.0814   21.6942 C   0  0  0  0  0  0  0  0  0  0  0  0
   12.1050  -17.0560   21.7965 C   0  0  2  0  0  0  0  0  0  0  0  0
   12.3246  -16.1308   20.6994 N   0  0  0  0  0  0  0  0  0  0  0  0
   12.1505  -16.3294   23.0662 C   0  0  0  0  0  0  0  0  0  0  0  0
   11.9128  -16.9577   24.2750 O   0  0  0  0  0  0  0  0  0  0  0  0
   12.4095  -15.0987   23.0952 O   0  0  0  0  0  0  0  0  0  0  0  0
  2  1  1  0
  2  3  2  0
  4  5  1  0
  4  2  1  0
  5  6  1  6
  7  5  1  0
  8  7  2  0
  9  7  1  0
 10  9  1  0
 10 11  1  6
 11 12  1  0
 12 13  1  0
 13 14  1  0
 14 15  1  0
 16 21  1  0
 16 10  1  0
 17 16  2  0
 18 19  1  0
 20 19  1  1
 20 21  1  0
 22 20  1  0
 23 22  1  0
 24 22  2  0
M  END
$$$$
