NKS.pdb
     RDKit          3D

 24 23  0  0  1  0  0  0  0  0999 V2000
    8.3954  -18.2839   16.1360 N   0  0  0  0  0  0  0  0  0  0  0  0
    8.2158  -16.8941   16.3756 C   0  0  0  0  0  0  0  0  0  0  0  0
    7.6636  -16.1230   15.5620 O   0  0  0  0  0  0  0  0  0  0  0  0
    8.7026  -16.3207   17.6474 C   0  0  0  0  0  0  0  0  0  0  0  0
    9.4213  -17.3502   18.4953 C   0  0  2  0  0  0  0  0  0  0  0  0
    8.5146  -18.4046   18.8870 N   0  0  0  0  0  0  0  0  0  0  0  0
   10.0049  -16.7566   19.7123 C   0  0  0  0  0  0  0  0  0  0  0  0
   10.8405  -15.8083   19.6440 O   0  0  0  0  0  0  0  0  0  0  0  0
    9.6591  -17.2175   21.0068 N   0  0  0  0  0  0  0  0  0  0  0  0
   10.2741  -16.6384   22.2337 C   0  0  1  0  0  0  0  0  0  0  0  0
    9.6633  -17.4026   23.4164 C   0  0  0  0  0  0  0  0  0  0  0  0
   10.2852  -17.0630   24.7167 C   0  0  0  0  0  0  0  0  0  0  0  0
    9.7522  -17.9132   25.8769 C   0  0  0  0  0  0  0  0  0  0  0  0
   10.5222  -17.5537   27.1208 C   0  0  0  0  0  0  0  0  0  0  0  0
   10.0566  -18.4234   28.2092 N   0  0  0  0  0  0  0  0  0  0  0  0
   11.7090  -16.9445   22.1793 C   0  0  0  0  0  0  0  0  0  0  0  0
   12.0612  -18.1257   21.8474 O   0  0  0  0  0  0  0  0  0  0  0  0
   14.3149  -15.2059   20.3135 O   0  0  0  0  0  0  0  0  0  0  0  0
   14.8245  -15.2790   21.5904 C   0  0  0  0  0  0  0  0  0  0  0  0
   14.1292  -16.4575   22.2866 C   0  0  2  0  0  0  0  0  0  0  0  0
   12.7492  -16.0401   22.4577 N   0  0  0  0  0  0  0  0  0  0  0  0
   14.7232  -16.7332   23.5956 C   0  0  0  0  0  0  0  0  0  0  0  0
   16.0231  -17.1867   23.7257 O   0  0  0  0  0  0  0  0  0  0  0  0
   14.0611  -16.5642   24.6519 O   0  0  0  0  0  0  0  0  0  0  0  0
  2  1  1  0
  2  3  2  0
  4  5  1  0
  4  2  1  0
  5  6  1  1
  7  5  1  0
  8  7  2  0
  9  7  1  0
 10  9  1  0
 10 11  1  1
 11 12  1  0
 12 13  1  0
 13 14  1  0
 14 15  1  0
 16 21  1  0
 16 10  1  0
 17 16  2  0
 18 19  1  0
 20 19  1  1
 20 21  1  0
 22 20  1  0
 23 22  1  0
 24 22  2  0
M  END
$$$$
