NKS.pdb
     RDKit          3D

 24 23  0  0  1  0  0  0  0  0999 V2000
   10.7374  -16.2605   15.0718 N   0  0  0  0  0  0  0  0  0  0  0  0
   11.2806  -17.5715   15.1577 C   0  0  0  0  0  0  0  0  0  0  0  0
   12.4540  -17.8511   14.8318 O   0  0  0  0  0  0  0  0  0  0  0  0
   10.4238  -18.6673   15.6562 C   0  0  0  0  0  0  0  0  0  0  0  0
    9.0653  -18.1668   16.1027 C   0  0  2  0  0  0  0  0  0  0  0  0
    8.8055  -16.8545   15.5569 N   0  0  0  0  0  0  0  0  0  0  0  0
    8.9561  -18.0945   17.5713 C   0  0  0  0  0  0  0  0  0  0  0  0
    8.3521  -17.1373   18.1381 O   0  0  0  0  0  0  0  0  0  0  0  0
    9.5191  -19.0873   18.4111 N   0  0  0  0  0  0  0  0  0  0  0  0
    9.2541  -19.1146   19.8767 C   0  0  1  0  0  0  0  0  0  0  0  0
    9.5275  -20.5550   20.3311 C   0  0  0  0  0  0  0  0  0  0  0  0
    9.2775  -20.7708   21.7745 C   0  0  0  0  0  0  0  0  0  0  0  0
    9.6592  -22.1799   22.2454 C   0  0  0  0  0  0  0  0  0  0  0  0
    9.3426  -22.2910   23.7140 C   0  0  0  0  0  0  0  0  0  0  0  0
    9.8146  -23.6011   24.1816 N   0  0  0  0  0  0  0  0  0  0  0  0
   10.2469  -18.2363   20.5080 C   0  0  0  0  0  0  0  0  0  0  0  0
   11.4090  -18.1660   19.9846 O   0  0  0  0  0  0  0  0  0  0  0  0
    9.4394  -15.7745   23.5907 O   0  0  0  0  0  0  0  0  0  0  0  0
   10.3875  -15.3421   22.6908 C   0  0  0  0  0  0  0  0  0  0  0  0
   11.0943  -16.5911   22.1455 C   0  0  2  0  0  0  0  0  0  0  0  0
   10.0308  -17.4472   21.6518 N   0  0  0  0  0  0  0  0  0  0  0  0
   11.8365  -17.2889   23.1964 C   0  0  0  0  0  0  0  0  0  0  0  0
   12.9894  -16.7613   23.7484 O   0  0  0  0  0  0  0  0  0  0  0  0
   11.4431  -18.4014   23.6327 O   0  0  0  0  0  0  0  0  0  0  0  0
  2  1  1  0
  2  3  2  0
  4  5  1  0
  4  2  1  0
  5  6  1  6
  7  5  1  0
  8  7  2  0
  9  7  1  0
 10  9  1  0
 10 11  1  1
 11 12  1  0
 12 13  1  0
 13 14  1  0
 14 15  1  0
 16 21  1  0
 16 10  1  0
 17 16  2  0
 18 19  1  0
 20 19  1  1
 20 21  1  0
 22 20  1  0
 23 22  1  0
 24 22  2  0
M  END
$$$$
