NKS.pdb
     RDKit          3D

 24 23  0  0  1  0  0  0  0  0999 V2000
    8.2925  -14.2389   15.9574 N   0  0  0  0  0  0  0  0  0  0  0  0
    7.4802  -13.4262   16.7947 C   0  0  0  0  0  0  0  0  0  0  0  0
    6.7160  -12.5393   16.3581 O   0  0  0  0  0  0  0  0  0  0  0  0
    7.5339  -13.6315   18.2570 C   0  0  0  0  0  0  0  0  0  0  0  0
    8.4432  -14.7828   18.6352 C   0  0  2  0  0  0  0  0  0  0  0  0
    8.2303  -15.9063   17.7521 N   0  0  0  0  0  0  0  0  0  0  0  0
    8.2250  -15.2289   20.0234 C   0  0  0  0  0  0  0  0  0  0  0  0
    8.3372  -14.4264   20.9959 O   0  0  0  0  0  0  0  0  0  0  0  0
    7.8815  -16.5687   20.3313 N   0  0  0  0  0  0  0  0  0  0  0  0
    7.8631  -17.0692   21.7342 C   0  0  1  0  0  0  0  0  0  0  0  0
    7.0126  -18.3468   21.7184 C   0  0  0  0  0  0  0  0  0  0  0  0
    6.9259  -19.0087   23.0401 C   0  0  0  0  0  0  0  0  0  0  0  0
    6.0805  -20.2884   23.0160 C   0  0  0  0  0  0  0  0  0  0  0  0
    6.0078  -20.8351   24.4178 C   0  0  0  0  0  0  0  0  0  0  0  0
    5.1044  -21.9933   24.4064 N   0  0  0  0  0  0  0  0  0  0  0  0
    9.2425  -17.4385   22.0755 C   0  0  0  0  0  0  0  0  0  0  0  0
   10.1098  -17.4609   21.1392 O   0  0  0  0  0  0  0  0  0  0  0  0
   12.5468  -15.6624   23.8710 O   0  0  0  0  0  0  0  0  0  0  0  0
   11.2583  -15.9782   23.5029 C   0  0  0  0  0  0  0  0  0  0  0  0
   11.0836  -17.4876   23.7229 C   0  0  2  0  0  0  0  0  0  0  0  0
    9.7061  -17.7696   23.3612 N   0  0  0  0  0  0  0  0  0  0  0  0
   11.3074  -17.8548   25.1220 C   0  0  0  0  0  0  0  0  0  0  0  0
   12.5785  -18.0493   25.6306 O   0  0  0  0  0  0  0  0  0  0  0  0
   10.3393  -18.0063   25.9110 O   0  0  0  0  0  0  0  0  0  0  0  0
  2  1  1  0
  2  3  2  0
  4  5  1  0
  4  2  1  0
  5  6  1  6
  7  5  1  0
  8  7  2  0
  9  7  1  0
 10  9  1  0
 10 11  1  6
 11 12  1  0
 12 13  1  0
 13 14  1  0
 14 15  1  0
 16 21  1  0
 16 10  1  0
 17 16  2  0
 18 19  1  0
 20 19  1  1
 20 21  1  0
 22 20  1  0
 23 22  1  0
 24 22  2  0
M  END
$$$$
