NKS.pdb
     RDKit          3D

 24 23  0  0  1  0  0  0  0  0999 V2000
   14.0736  -14.4125   20.0481 N   0  0  0  0  0  0  0  0  0  0  0  0
   12.7698  -14.7842   19.6202 C   0  0  0  0  0  0  0  0  0  0  0  0
   12.5109  -15.1642   18.4583 O   0  0  0  0  0  0  0  0  0  0  0  0
   11.6563  -14.7223   20.5895 C   0  0  0  0  0  0  0  0  0  0  0  0
   11.3027  -16.0907   21.1355 C   0  0  2  0  0  0  0  0  0  0  0  0
   10.7236  -16.9142   20.0992 N   0  0  0  0  0  0  0  0  0  0  0  0
   10.3508  -16.0107   22.2585 C   0  0  0  0  0  0  0  0  0  0  0  0
    9.3536  -15.2320   22.2193 O   0  0  0  0  0  0  0  0  0  0  0  0
   10.5074  -16.7972   23.4267 N   0  0  0  0  0  0  0  0  0  0  0  0
    9.5169  -16.7528   24.5384 C   0  0  1  0  0  0  0  0  0  0  0  0
    9.2387  -18.2137   24.9182 C   0  0  0  0  0  0  0  0  0  0  0  0
    8.4012  -18.3538   26.1312 C   0  0  0  0  0  0  0  0  0  0  0  0
    8.1938  -19.8144   26.5517 C   0  0  0  0  0  0  0  0  0  0  0  0
    7.4093  -19.8307   27.8377 C   0  0  0  0  0  0  0  0  0  0  0  0
    7.2565  -21.2301   28.2576 N   0  0  0  0  0  0  0  0  0  0  0  0
   10.1776  -16.0993   25.6751 C   0  0  0  0  0  0  0  0  0  0  0  0
   11.3639  -16.4638   25.9737 O   0  0  0  0  0  0  0  0  0  0  0  0
    8.4541  -13.2244   27.7705 O   0  0  0  0  0  0  0  0  0  0  0  0
    9.8266  -13.1765   27.8690 C   0  0  0  0  0  0  0  0  0  0  0  0
   10.3454  -14.6022   27.6338 C   0  0  2  0  0  0  0  0  0  0  0  0
    9.6174  -15.0876   26.4753 N   0  0  0  0  0  0  0  0  0  0  0  0
   10.0725  -15.4682   28.7817 C   0  0  0  0  0  0  0  0  0  0  0  0
   10.6561  -15.2488   30.0160 O   0  0  0  0  0  0  0  0  0  0  0  0
    9.2908  -16.4484   28.6776 O   0  0  0  0  0  0  0  0  0  0  0  0
  2  1  1  0
  2  3  2  0
  4  5  1  0
  4  2  1  0
  5  6  1  6
  7  5  1  0
  8  7  2  0
  9  7  1  0
 10  9  1  0
 10 11  1  1
 11 12  1  0
 12 13  1  0
 13 14  1  0
 14 15  1  0
 16 21  1  0
 16 10  1  0
 17 16  2  0
 18 19  1  0
 20 19  1  1
 20 21  1  0
 22 20  1  0
 23 22  1  0
 24 22  2  0
M  END
$$$$
