NKS.pdb
     RDKit          3D

 24 23  0  0  1  0  0  0  0  0999 V2000
   16.9174  -13.7214   16.8528 N   0  0  0  0  0  0  0  0  0  0  0  0
   15.6261  -14.2691   16.6211 C   0  0  0  0  0  0  0  0  0  0  0  0
   15.3244  -14.9022   15.5869 O   0  0  0  0  0  0  0  0  0  0  0  0
   14.5793  -14.0871   17.6480 C   0  0  0  0  0  0  0  0  0  0  0  0
   14.1963  -15.3970   18.3059 C   0  0  2  0  0  0  0  0  0  0  0  0
   13.3641  -16.1817   17.4232 N   0  0  0  0  0  0  0  0  0  0  0  0
   13.4719  -15.1900   19.5733 C   0  0  0  0  0  0  0  0  0  0  0  0
   14.0766  -14.8195   20.6218 O   0  0  0  0  0  0  0  0  0  0  0  0
   12.0735  -15.3951   19.6755 N   0  0  0  0  0  0  0  0  0  0  0  0
   11.3345  -15.1314   20.9417 C   0  0  1  0  0  0  0  0  0  0  0  0
    9.8505  -15.0498   20.5584 C   0  0  0  0  0  0  0  0  0  0  0  0
    9.4747  -13.7556   19.9448 C   0  0  0  0  0  0  0  0  0  0  0  0
    8.0043  -13.7017   19.5113 C   0  0  0  0  0  0  0  0  0  0  0  0
    7.7303  -12.3380   18.9327 C   0  0  0  0  0  0  0  0  0  0  0  0
    6.3511  -12.3288   18.4273 N   0  0  0  0  0  0  0  0  0  0  0  0
   11.5242  -16.3064   21.8012 C   0  0  0  0  0  0  0  0  0  0  0  0
   11.4491  -17.4630   21.2663 O   0  0  0  0  0  0  0  0  0  0  0  0
   13.7889  -16.5664   24.8757 O   0  0  0  0  0  0  0  0  0  0  0  0
   13.3598  -17.7099   24.2402 C   0  0  0  0  0  0  0  0  0  0  0  0
   11.8691  -17.5191   23.9264 C   0  0  2  0  0  0  0  0  0  0  0  0
   11.7915  -16.2754   23.1815 N   0  0  0  0  0  0  0  0  0  0  0  0
   11.0737  -17.4074   25.1500 C   0  0  0  0  0  0  0  0  0  0  0  0
   10.3262  -16.2791   25.4335 O   0  0  0  0  0  0  0  0  0  0  0  0
   11.0470  -18.3447   25.9887 O   0  0  0  0  0  0  0  0  0  0  0  0
  2  1  1  0
  2  3  2  0
  4  5  1  0
  4  2  1  0
  5  6  1  6
  7  5  1  0
  8  7  2  0
  9  7  1  0
 10  9  1  0
 10 11  1  6
 11 12  1  0
 12 13  1  0
 13 14  1  0
 14 15  1  0
 16 21  1  0
 16 10  1  0
 17 16  2  0
 18 19  1  0
 20 19  1  1
 20 21  1  0
 22 20  1  0
 23 22  1  0
 24 22  2  0
M  END
$$$$
