NKS.pdb
     RDKit          3D

 24 23  0  0  1  0  0  0  0  0999 V2000
   10.3099  -17.3296   16.4679 N   0  0  0  0  0  0  0  0  0  0  0  0
    9.1675  -16.8990   17.1966 C   0  0  0  0  0  0  0  0  0  0  0  0
    7.9949  -17.1520   16.8471 O   0  0  0  0  0  0  0  0  0  0  0  0
    9.3643  -16.1117   18.4315 C   0  0  0  0  0  0  0  0  0  0  0  0
    9.0045  -16.9033   19.6722 C   0  0  2  0  0  0  0  0  0  0  0  0
    7.5862  -17.1774   19.7032 N   0  0  0  0  0  0  0  0  0  0  0  0
    9.3723  -16.1918   20.9100 C   0  0  0  0  0  0  0  0  0  0  0  0
   10.5818  -15.9454   21.1905 O   0  0  0  0  0  0  0  0  0  0  0  0
    8.3946  -15.7535   21.8373 N   0  0  0  0  0  0  0  0  0  0  0  0
    8.7702  -15.0611   23.1016 C   0  0  1  0  0  0  0  0  0  0  0  0
    7.4785  -14.4317   23.6411 C   0  0  0  0  0  0  0  0  0  0  0  0
    7.6578  -13.7545   24.9457 C   0  0  0  0  0  0  0  0  0  0  0  0
    6.3940  -13.0280   25.4233 C   0  0  0  0  0  0  0  0  0  0  0  0
    6.7136  -12.3192   26.7136 C   0  0  0  0  0  0  0  0  0  0  0  0
    5.4941  -11.6408   27.1722 N   0  0  0  0  0  0  0  0  0  0  0  0
    9.2059  -16.0983   24.0450 C   0  0  0  0  0  0  0  0  0  0  0  0
    8.4276  -17.0881   24.2545 O   0  0  0  0  0  0  0  0  0  0  0  0
   12.9124  -16.6064   24.9931 O   0  0  0  0  0  0  0  0  0  0  0  0
   12.1171  -17.7163   25.1703 C   0  0  0  0  0  0  0  0  0  0  0  0
   10.7397  -17.2158   25.6277 C   0  0  2  0  0  0  0  0  0  0  0  0
   10.4247  -16.1057   24.7466 N   0  0  0  0  0  0  0  0  0  0  0  0
   10.7729  -16.7466   27.0137 C   0  0  0  0  0  0  0  0  0  0  0  0
   11.0872  -17.5915   28.0623 O   0  0  0  0  0  0  0  0  0  0  0  0
   10.5133  -15.5481   27.2945 O   0  0  0  0  0  0  0  0  0  0  0  0
  2  1  1  0
  2  3  2  0
  4  5  1  0
  4  2  1  0
  5  6  1  1
  7  5  1  0
  8  7  2  0
  9  7  1  0
 10  9  1  0
 10 11  1  1
 11 12  1  0
 12 13  1  0
 13 14  1  0
 14 15  1  0
 16 21  1  0
 16 10  1  0
 17 16  2  0
 18 19  1  0
 20 19  1  6
 20 21  1  0
 22 20  1  0
 23 22  1  0
 24 22  2  0
M  END
$$$$
