NKS.pdb
     RDKit          3D

 24 23  0  0  1  0  0  0  0  0999 V2000
    8.9044  -14.8571   10.9690 N   0  0  0  0  0  0  0  0  0  0  0  0
    8.0749  -14.9031   12.1227 C   0  0  0  0  0  0  0  0  0  0  0  0
    6.9763  -15.4975   12.1551 O   0  0  0  0  0  0  0  0  0  0  0  0
    8.5240  -14.2169   13.3519 C   0  0  0  0  0  0  0  0  0  0  0  0
    8.9070  -15.1976   14.4413 C   0  0  2  0  0  0  0  0  0  0  0  0
    7.7579  -15.9712   14.8519 N   0  0  0  0  0  0  0  0  0  0  0  0
    9.4647  -14.5203   15.6262 C   0  0  0  0  0  0  0  0  0  0  0  0
   10.6036  -13.9689   15.5915 O   0  0  0  0  0  0  0  0  0  0  0  0
    8.7557  -14.4557   16.8513 N   0  0  0  0  0  0  0  0  0  0  0  0
    9.4094  -14.0025   18.1108 C   0  0  1  0  0  0  0  0  0  0  0  0
    8.3130  -14.0090   19.1848 C   0  0  0  0  0  0  0  0  0  0  0  0
    8.8297  -13.7626   20.5504 C   0  0  0  0  0  0  0  0  0  0  0  0
    7.7209  -13.6937   21.6081 C   0  0  0  0  0  0  0  0  0  0  0  0
    8.3656  -13.5512   22.9621 C   0  0  0  0  0  0  0  0  0  0  0  0
    7.3013  -13.5649   23.9746 N   0  0  0  0  0  0  0  0  0  0  0  0
   10.4074  -15.0192   18.4654 C   0  0  0  0  0  0  0  0  0  0  0  0
   10.0679  -16.2477   18.3944 O   0  0  0  0  0  0  0  0  0  0  0  0
   14.3003  -14.3387   18.9357 O   0  0  0  0  0  0  0  0  0  0  0  0
   13.9247  -15.6380   18.6785 C   0  0  0  0  0  0  0  0  0  0  0  0
   12.5597  -15.8536   19.3473 C   0  0  2  0  0  0  0  0  0  0  0  0
   11.7271  -14.7611   18.8772 N   0  0  0  0  0  0  0  0  0  0  0  0
   12.6627  -15.7980   20.8062 C   0  0  0  0  0  0  0  0  0  0  0  0
   13.4005  -16.7237   21.5211 O   0  0  0  0  0  0  0  0  0  0  0  0
   12.0762  -14.8970   21.4595 O   0  0  0  0  0  0  0  0  0  0  0  0
  2  1  1  0
  2  3  2  0
  4  5  1  0
  4  2  1  0
  5  6  1  1
  7  5  1  0
  8  7  2  0
  9  7  1  0
 10  9  1  0
 10 11  1  1
 11 12  1  0
 12 13  1  0
 13 14  1  0
 14 15  1  0
 16 21  1  0
 16 10  1  0
 17 16  2  0
 18 19  1  0
 20 19  1  6
 20 21  1  0
 22 20  1  0
 23 22  1  0
 24 22  2  0
M  END
$$$$
