NKS.pdb
     RDKit          3D

 24 23  0  0  1  0  0  0  0  0999 V2000
    7.7547  -12.6935   15.5229 N   0  0  0  0  0  0  0  0  0  0  0  0
    7.9105  -14.0874   15.2905 C   0  0  0  0  0  0  0  0  0  0  0  0
    8.1377  -14.5741   14.1623 O   0  0  0  0  0  0  0  0  0  0  0  0
    7.8004  -15.0177   16.4332 C   0  0  0  0  0  0  0  0  0  0  0  0
    9.1574  -15.3860   16.9975 C   0  0  2  0  0  0  0  0  0  0  0  0
    9.8906  -16.2032   16.0584 N   0  0  0  0  0  0  0  0  0  0  0  0
    9.0475  -16.1192   18.2719 C   0  0  0  0  0  0  0  0  0  0  0  0
    8.4062  -15.6391   19.2520 O   0  0  0  0  0  0  0  0  0  0  0  0
    9.6512  -17.3877   18.4574 N   0  0  0  0  0  0  0  0  0  0  0  0
    9.5892  -18.1002   19.7641 C   0  0  1  0  0  0  0  0  0  0  0  0
   10.1395  -19.5096   19.5059 C   0  0  0  0  0  0  0  0  0  0  0  0
   10.1131  -20.3771   20.7057 C   0  0  0  0  0  0  0  0  0  0  0  0
   10.7266  -21.7612   20.4588 C   0  0  0  0  0  0  0  0  0  0  0  0
   10.6751  -22.5393   21.7478 C   0  0  0  0  0  0  0  0  0  0  0  0
   11.4538  -23.7713   21.5649 N   0  0  0  0  0  0  0  0  0  0  0  0
   10.5088  -17.4065   20.6744 C   0  0  0  0  0  0  0  0  0  0  0  0
   11.6047  -16.9580   20.1978 O   0  0  0  0  0  0  0  0  0  0  0  0
    9.4318  -16.2587   24.2856 O   0  0  0  0  0  0  0  0  0  0  0  0
   10.4009  -15.4784   23.6960 C   0  0  0  0  0  0  0  0  0  0  0  0
   11.2463  -16.4031   22.8088 C   0  0  2  0  0  0  0  0  0  0  0  0
   10.2876  -17.1810   22.0448 N   0  0  0  0  0  0  0  0  0  0  0  0
   12.0782  -17.3019   23.6104 C   0  0  0  0  0  0  0  0  0  0  0  0
   13.1538  -16.8384   24.3455 O   0  0  0  0  0  0  0  0  0  0  0  0
   11.8364  -18.5357   23.6541 O   0  0  0  0  0  0  0  0  0  0  0  0
  2  1  1  0
  2  3  2  0
  4  5  1  0
  4  2  1  0
  5  6  1  6
  7  5  1  0
  8  7  2  0
  9  7  1  0
 10  9  1  0
 10 11  1  6
 11 12  1  0
 12 13  1  0
 13 14  1  0
 14 15  1  0
 16 21  1  0
 16 10  1  0
 17 16  2  0
 18 19  1  0
 20 19  1  1
 20 21  1  0
 22 20  1  0
 23 22  1  0
 24 22  2  0
M  END
$$$$
