DFS.pdb
     RDKit          3D

 26 26  0  0  1  0  0  0  0  0999 V2000
   19.0343   -9.2737  -16.9535 N   0  0  0  0  0  0  0  0  0  0  0  0
   18.6645   -8.0135  -16.4752 C   0  0  1  0  0  0  0  0  0  0  0  0
   17.2842   -7.5671  -16.8259 C   0  0  0  0  0  0  0  0  0  0  0  0
   17.1061   -7.3284  -18.2737 C   0  0  0  0  0  0  0  0  0  0  0  0
   17.9380   -6.6972  -18.9680 O   0  0  0  0  0  0  0  0  0  0  0  0
   18.7603   -7.9917  -14.9699 C   0  0  0  0  0  0  0  0  0  0  0  0
   18.3675   -9.0013  -14.3320 O   0  0  0  0  0  0  0  0  0  0  0  0
   15.9735   -7.8207  -18.8955 O   0  0  0  0  0  0  0  0  0  0  0  0
   19.2771   -6.8689  -14.2879 N   0  0  0  0  0  0  0  0  0  0  0  0
   19.4210   -6.8274  -12.8619 C   0  0  1  0  0  0  0  0  0  0  0  0
   20.8336   -6.5940  -12.3875 C   0  0  0  0  0  0  0  0  0  0  0  0
   21.7409   -7.6680  -12.8585 C   0  0  0  0  0  0  0  0  0  0  0  0
   21.9012   -8.7994  -12.1213 C   0  0  0  0  0  0  0  0  0  0  0  0
   22.7691   -9.7789  -12.5964 C   0  0  0  0  0  0  0  0  0  0  0  0
   23.4315   -9.5856  -13.7764 C   0  0  0  0  0  0  0  0  0  0  0  0
   23.2667   -8.4523  -14.5089 C   0  0  0  0  0  0  0  0  0  0  0  0
   22.4184   -7.4735  -14.0627 C   0  0  0  0  0  0  0  0  0  0  0  0
   18.4793   -5.8558  -12.2110 C   0  0  0  0  0  0  0  0  0  0  0  0
   18.5717   -4.6758  -12.6087 O   0  0  0  0  0  0  0  0  0  0  0  0
   14.3138   -5.0044  -10.2276 O   0  0  0  0  0  0  0  0  0  0  0  0
   15.2188   -5.8826  -10.8058 C   0  0  0  0  0  0  0  0  0  0  0  0
   16.6256   -5.3935  -10.5883 C   0  0  2  0  0  0  0  0  0  0  0  0
   17.5606   -6.2566  -11.2225 N   0  0  0  0  0  0  0  0  0  0  0  0
   16.9086   -5.1336   -9.1382 C   0  0  0  0  0  0  0  0  0  0  0  0
   17.6838   -5.8910   -8.5347 O   0  0  0  0  0  0  0  0  0  0  0  0
   16.3157   -4.0724   -8.4949 O   0  0  0  0  0  0  0  0  0  0  0  0
  2  1  1  1
  2  3  1  0
  3  4  1  0
  4  8  1  0
  5  4  2  0
  6  2  1  0
  7  6  2  0
  9  6  1  0
 10 11  1  6
 10  9  1  0
 11 12  1  0
 12 13  2  0
 12 17  1  0
 13 14  1  0
 14 15  2  0
 16 15  1  0
 17 16  2  0
 18 10  1  0
 19 18  2  0
 20 21  1  0
 22 21  1  1
 22 23  1  0
 23 18  1  0
 24 22  1  0
 24 26  1  0
 25 24  2  0
M  END
$$$$
