DFS.pdb
     RDKit          3D

 26 26  0  0  1  0  0  0  0  0999 V2000
   27.7304  -19.9016  -16.8394 N   0  0  0  0  0  0  0  0  0  0  0  0
   27.2571  -21.2166  -16.8620 C   0  0  1  0  0  0  0  0  0  0  0  0
   28.2923  -22.2742  -17.0550 C   0  0  0  0  0  0  0  0  0  0  0  0
   29.0489  -22.1171  -18.3151 C   0  0  0  0  0  0  0  0  0  0  0  0
   30.2941  -22.2485  -18.3835 O   0  0  0  0  0  0  0  0  0  0  0  0
   26.5535  -21.5272  -15.5644 C   0  0  0  0  0  0  0  0  0  0  0  0
   26.2862  -22.7274  -15.3026 O   0  0  0  0  0  0  0  0  0  0  0  0
   28.3580  -21.8115  -19.4731 O   0  0  0  0  0  0  0  0  0  0  0  0
   26.2007  -20.5006  -14.6618 N   0  0  0  0  0  0  0  0  0  0  0  0
   25.4999  -20.7533  -13.4368 C   0  0  1  0  0  0  0  0  0  0  0  0
   26.0407  -20.0016  -12.2462 C   0  0  0  0  0  0  0  0  0  0  0  0
   27.4158  -20.4447  -11.9128 C   0  0  0  0  0  0  0  0  0  0  0  0
   27.6340  -21.2422  -10.8331 C   0  0  0  0  0  0  0  0  0  0  0  0
   28.9417  -21.6281  -10.5515 C   0  0  0  0  0  0  0  0  0  0  0  0
   29.9634  -21.2037  -11.3545 C   0  0  0  0  0  0  0  0  0  0  0  0
   29.7387  -20.4068  -12.4326 C   0  0  0  0  0  0  0  0  0  0  0  0
   28.4607  -20.0132  -12.7307 C   0  0  0  0  0  0  0  0  0  0  0  0
   24.0180  -20.5462  -13.5619 C   0  0  0  0  0  0  0  0  0  0  0  0
   23.6657  -19.3891  -13.8716 O   0  0  0  0  0  0  0  0  0  0  0  0
   19.6507  -22.6570  -13.6169 O   0  0  0  0  0  0  0  0  0  0  0  0
   21.0289  -22.8019  -13.5533 C   0  0  0  0  0  0  0  0  0  0  0  0
   21.6856  -21.4537  -13.4238 C   0  0  2  0  0  0  0  0  0  0  0  0
   23.0985  -21.5895  -13.3430 N   0  0  0  0  0  0  0  0  0  0  0  0
   21.0783  -20.6405  -12.3191 C   0  0  0  0  0  0  0  0  0  0  0  0
   21.6114  -20.6597  -11.1992 O   0  0  0  0  0  0  0  0  0  0  0  0
   19.9499  -19.8889  -12.5505 O   0  0  0  0  0  0  0  0  0  0  0  0
  2  1  1  1
  2  3  1  0
  3  4  1  0
  4  8  1  0
  5  4  2  0
  6  2  1  0
  7  6  2  0
  9  6  1  0
 10 11  1  1
 10  9  1  0
 11 12  1  0
 12 13  2  0
 12 17  1  0
 13 14  1  0
 14 15  2  0
 16 15  1  0
 17 16  2  0
 18 10  1  0
 19 18  2  0
 20 21  1  0
 22 21  1  1
 22 23  1  0
 23 18  1  0
 24 22  1  0
 24 26  1  0
 25 24  2  0
M  END
$$$$
