DFS.pdb
     RDKit          3D

 26 26  0  0  1  0  0  0  0  0999 V2000
   20.6059  -19.7540  -12.8256 N   0  0  0  0  0  0  0  0  0  0  0  0
   21.2151  -20.6746  -13.6831 C   0  0  1  0  0  0  0  0  0  0  0  0
   20.7059  -20.6882  -15.0859 C   0  0  0  0  0  0  0  0  0  0  0  0
   19.2603  -20.9847  -15.1715 C   0  0  0  0  0  0  0  0  0  0  0  0
   18.4422  -20.2285  -15.7472 O   0  0  0  0  0  0  0  0  0  0  0  0
   22.6958  -20.3968  -13.7596 C   0  0  0  0  0  0  0  0  0  0  0  0
   23.1041  -19.5651  -14.6093 O   0  0  0  0  0  0  0  0  0  0  0  0
   18.7832  -22.1462  -14.5926 O   0  0  0  0  0  0  0  0  0  0  0  0
   23.6062  -21.0509  -12.9015 N   0  0  0  0  0  0  0  0  0  0  0  0
   25.0227  -20.8400  -12.9692 C   0  0  1  0  0  0  0  0  0  0  0  0
   25.7405  -21.0215  -11.6551 C   0  0  0  0  0  0  0  0  0  0  0  0
   27.2039  -20.8452  -11.8155 C   0  0  0  0  0  0  0  0  0  0  0  0
   27.6899  -19.8562  -12.6124 C   0  0  0  0  0  0  0  0  0  0  0  0
   29.0704  -19.7312  -12.7413 C   0  0  0  0  0  0  0  0  0  0  0  0
   29.8960  -20.5924  -12.0738 C   0  0  0  0  0  0  0  0  0  0  0  0
   29.4041  -21.5789  -11.2784 C   0  0  0  0  0  0  0  0  0  0  0  0
   28.0491  -21.7227  -11.1353 C   0  0  0  0  0  0  0  0  0  0  0  0
   25.6805  -21.6542  -14.0457 C   0  0  0  0  0  0  0  0  0  0  0  0
   25.5549  -22.8912  -13.9305 O   0  0  0  0  0  0  0  0  0  0  0  0
   25.1727  -21.8358  -17.6194 O   0  0  0  0  0  0  0  0  0  0  0  0
   26.0505  -22.6303  -16.8963 C   0  0  0  0  0  0  0  0  0  0  0  0
   27.0349  -21.7689  -16.1517 C   0  0  2  0  0  0  0  0  0  0  0  0
   26.3872  -21.0559  -15.1060 N   0  0  0  0  0  0  0  0  0  0  0  0
   27.8390  -20.9087  -17.0811 C   0  0  0  0  0  0  0  0  0  0  0  0
   27.7475  -19.6754  -16.9847 O   0  0  0  0  0  0  0  0  0  0  0  0
   28.6615  -21.4837  -18.0216 O   0  0  0  0  0  0  0  0  0  0  0  0
  2  1  1  1
  2  3  1  0
  3  4  1  0
  4  8  1  0
  5  4  2  0
  6  2  1  0
  7  6  2  0
  9  6  1  0
 10 11  1  1
 10  9  1  0
 11 12  1  0
 12 13  2  0
 12 17  1  0
 13 14  1  0
 14 15  2  0
 16 15  1  0
 17 16  2  0
 18 10  1  0
 19 18  2  0
 20 21  1  0
 22 21  1  6
 22 23  1  0
 23 18  1  0
 24 22  1  0
 24 26  1  0
 25 24  2  0
M  END
$$$$
