DFS.pdb
     RDKit          3D

 26 26  0  0  1  0  0  0  0  0999 V2000
   28.7649  -21.9451  -18.2612 N   0  0  0  0  0  0  0  0  0  0  0  0
   27.8664  -20.9312  -17.9170 C   0  0  1  0  0  0  0  0  0  0  0  0
   26.7767  -20.6694  -18.9026 C   0  0  0  0  0  0  0  0  0  0  0  0
   27.1702  -19.7091  -19.9552 C   0  0  0  0  0  0  0  0  0  0  0  0
   26.8198  -19.8293  -21.1533 O   0  0  0  0  0  0  0  0  0  0  0  0
   27.1978  -21.2662  -16.6070 C   0  0  0  0  0  0  0  0  0  0  0  0
   26.7187  -22.4191  -16.4589 O   0  0  0  0  0  0  0  0  0  0  0  0
   27.9597  -18.6280  -19.6092 O   0  0  0  0  0  0  0  0  0  0  0  0
   27.1086  -20.3139  -15.5687 N   0  0  0  0  0  0  0  0  0  0  0  0
   26.5178  -20.6084  -14.2959 C   0  0  1  0  0  0  0  0  0  0  0  0
   27.1721  -19.9081  -13.1312 C   0  0  0  0  0  0  0  0  0  0  0  0
   26.4801  -20.2247  -11.8587 C   0  0  0  0  0  0  0  0  0  0  0  0
   26.9060  -21.2614  -11.0887 C   0  0  0  0  0  0  0  0  0  0  0  0
   26.2224  -21.5289   -9.9057 C   0  0  0  0  0  0  0  0  0  0  0  0
   25.1536  -20.7551   -9.5485 C   0  0  0  0  0  0  0  0  0  0  0  0
   24.7328  -19.7198  -10.3226 C   0  0  0  0  0  0  0  0  0  0  0  0
   25.3888  -19.4364  -11.4915 C   0  0  0  0  0  0  0  0  0  0  0  0
   25.0332  -20.3846  -14.2788 C   0  0  0  0  0  0  0  0  0  0  0  0
   24.6684  -19.2109  -14.4987 O   0  0  0  0  0  0  0  0  0  0  0  0
   22.3655  -23.6383  -14.0768 O   0  0  0  0  0  0  0  0  0  0  0  0
   22.0625  -22.4553  -14.7351 C   0  0  0  0  0  0  0  0  0  0  0  0
   22.7096  -21.2919  -14.0329 C   0  0  2  0  0  0  0  0  0  0  0  0
   24.1245  -21.4308  -14.0310 N   0  0  0  0  0  0  0  0  0  0  0  0
   22.1098  -21.0531  -12.6788 C   0  0  0  0  0  0  0  0  0  0  0  0
   22.8429  -21.1153  -11.6801 O   0  0  0  0  0  0  0  0  0  0  0  0
   20.7696  -20.7705  -12.5536 O   0  0  0  0  0  0  0  0  0  0  0  0
  2  1  1  6
  2  3  1  0
  3  4  1  0
  4  8  1  0
  5  4  2  0
  6  2  1  0
  7  6  2  0
  9  6  1  0
 10 11  1  1
 10  9  1  0
 11 12  1  0
 12 13  2  0
 12 17  1  0
 13 14  1  0
 14 15  2  0
 16 15  1  0
 17 16  2  0
 18 10  1  0
 19 18  2  0
 20 21  1  0
 22 21  1  1
 22 23  1  0
 23 18  1  0
 24 22  1  0
 24 26  1  0
 25 24  2  0
M  END
$$$$
