DFS.pdb
     RDKit          3D

 26 26  0  0  1  0  0  0  0  0999 V2000
   21.5133   -9.5317  -18.7132 N   0  0  0  0  0  0  0  0  0  0  0  0
   21.6587   -8.1452  -18.8149 C   0  0  1  0  0  0  0  0  0  0  0  0
   20.9208   -7.4974  -19.9387 C   0  0  0  0  0  0  0  0  0  0  0  0
   21.6421   -7.5813  -21.2262 C   0  0  0  0  0  0  0  0  0  0  0  0
   21.2399   -7.0166  -22.2711 O   0  0  0  0  0  0  0  0  0  0  0  0
   21.1810   -7.4884  -17.5438 C   0  0  0  0  0  0  0  0  0  0  0  0
   20.2542   -8.0406  -16.8983 O   0  0  0  0  0  0  0  0  0  0  0  0
   22.8132   -8.3139  -21.2870 O   0  0  0  0  0  0  0  0  0  0  0  0
   21.7556   -6.2835  -17.0845 N   0  0  0  0  0  0  0  0  0  0  0  0
   21.4397   -5.7117  -15.8082 C   0  0  1  0  0  0  0  0  0  0  0  0
   22.5793   -5.7314  -14.8203 C   0  0  0  0  0  0  0  0  0  0  0  0
   22.9779   -7.1209  -14.4904 C   0  0  0  0  0  0  0  0  0  0  0  0
   22.3520   -7.7915  -13.4865 C   0  0  0  0  0  0  0  0  0  0  0  0
   22.7633   -9.0913  -13.2047 C   0  0  0  0  0  0  0  0  0  0  0  0
   23.7723   -9.6578  -13.9325 C   0  0  0  0  0  0  0  0  0  0  0  0
   24.3939   -8.9823  -14.9351 C   0  0  0  0  0  0  0  0  0  0  0  0
   24.0076   -7.7017  -15.2318 C   0  0  0  0  0  0  0  0  0  0  0  0
   20.8610   -4.3305  -15.9175 C   0  0  0  0  0  0  0  0  0  0  0  0
   21.6455   -3.4557  -16.3399 O   0  0  0  0  0  0  0  0  0  0  0  0
   16.7977   -3.7674  -16.1316 O   0  0  0  0  0  0  0  0  0  0  0  0
   17.7210   -2.8498  -16.6112 C   0  0  0  0  0  0  0  0  0  0  0  0
   18.9070   -2.7777  -15.6872 C   0  0  2  0  0  0  0  0  0  0  0  0
   19.5268   -4.0513  -15.5659 N   0  0  0  0  0  0  0  0  0  0  0  0
   18.5569   -2.1330  -14.3786 C   0  0  0  0  0  0  0  0  0  0  0  0
   18.6556   -2.8001  -13.3376 O   0  0  0  0  0  0  0  0  0  0  0  0
   18.1345   -0.8246  -14.3408 O   0  0  0  0  0  0  0  0  0  0  0  0
  2  1  1  1
  2  3  1  0
  3  4  1  0
  4  8  1  0
  5  4  2  0
  6  2  1  0
  7  6  2  0
  9  6  1  0
 10 11  1  1
 10  9  1  0
 11 12  1  0
 12 13  2  0
 12 17  1  0
 13 14  1  0
 14 15  2  0
 16 15  1  0
 17 16  2  0
 18 10  1  0
 19 18  2  0
 20 21  1  0
 22 21  1  6
 22 23  1  0
 23 18  1  0
 24 22  1  0
 24 26  1  0
 25 24  2  0
M  END
$$$$
