DFS.pdb
     RDKit          3D

 26 26  0  0  1  0  0  0  0  0999 V2000
   28.5663  -22.7014  -16.9878 N   0  0  0  0  0  0  0  0  0  0  0  0
   27.7930  -21.5557  -16.7797 C   0  0  1  0  0  0  0  0  0  0  0  0
   26.8784  -21.1798  -17.8975 C   0  0  0  0  0  0  0  0  0  0  0  0
   27.4002  -20.0680  -18.7200 C   0  0  0  0  0  0  0  0  0  0  0  0
   28.5410  -19.5744  -18.5543 O   0  0  0  0  0  0  0  0  0  0  0  0
   26.9319  -21.7380  -15.5546 C   0  0  0  0  0  0  0  0  0  0  0  0
   26.6209  -22.9069  -15.2120 O   0  0  0  0  0  0  0  0  0  0  0  0
   26.5991  -19.5450  -19.7181 O   0  0  0  0  0  0  0  0  0  0  0  0
   26.4828  -20.6281  -14.8067 N   0  0  0  0  0  0  0  0  0  0  0  0
   25.6975  -20.7637  -13.6147 C   0  0  1  0  0  0  0  0  0  0  0  0
   26.1302  -19.8674  -12.4814 C   0  0  0  0  0  0  0  0  0  0  0  0
   27.3303  -20.4084  -11.7991 C   0  0  0  0  0  0  0  0  0  0  0  0
   28.5513  -20.3192  -12.3910 C   0  0  0  0  0  0  0  0  0  0  0  0
   29.6503  -20.8475  -11.7191 C   0  0  0  0  0  0  0  0  0  0  0  0
   29.4813  -21.4355  -10.4967 C   0  0  0  0  0  0  0  0  0  0  0  0
   28.2579  -21.5213   -9.9101 C   0  0  0  0  0  0  0  0  0  0  0  0
   27.1607  -21.0091  -10.5512 C   0  0  0  0  0  0  0  0  0  0  0  0
   24.2250  -20.6176  -13.8694 C   0  0  0  0  0  0  0  0  0  0  0  0
   23.8684  -19.5065  -14.3135 O   0  0  0  0  0  0  0  0  0  0  0  0
   19.8954  -22.7924  -13.9632 O   0  0  0  0  0  0  0  0  0  0  0  0
   21.2720  -22.9151  -13.8424 C   0  0  0  0  0  0  0  0  0  0  0  0
   21.9046  -21.5544  -13.7251 C   0  0  2  0  0  0  0  0  0  0  0  0
   23.3181  -21.6654  -13.6214 N   0  0  0  0  0  0  0  0  0  0  0  0
   21.2676  -20.7339  -12.6427 C   0  0  0  0  0  0  0  0  0  0  0  0
   20.0503  -20.5037  -12.7043 O   0  0  0  0  0  0  0  0  0  0  0  0
   22.0257  -20.2484  -11.6029 O   0  0  0  0  0  0  0  0  0  0  0  0
  2  1  1  6
  2  3  1  0
  3  4  1  0
  4  8  1  0
  5  4  2  0
  6  2  1  0
  7  6  2  0
  9  6  1  0
 10 11  1  1
 10  9  1  0
 11 12  1  0
 12 13  2  0
 12 17  1  0
 13 14  1  0
 14 15  2  0
 16 15  1  0
 17 16  2  0
 18 10  1  0
 19 18  2  0
 20 21  1  0
 22 21  1  1
 22 23  1  0
 23 18  1  0
 24 22  1  0
 24 26  1  0
 25 24  2  0
M  END
$$$$
