DFS.pdb
     RDKit          3D

 26 26  0  0  1  0  0  0  0  0999 V2000
   26.9462  -19.2349  -16.4650 N   0  0  0  0  0  0  0  0  0  0  0  0
   27.0343  -20.6103  -16.6981 C   0  0  1  0  0  0  0  0  0  0  0  0
   28.3895  -21.1203  -17.0596 C   0  0  0  0  0  0  0  0  0  0  0  0
   28.9120  -20.5318  -18.3108 C   0  0  0  0  0  0  0  0  0  0  0  0
   30.0106  -20.8659  -18.8146 O   0  0  0  0  0  0  0  0  0  0  0  0
   26.5990  -21.3646  -15.4664 C   0  0  0  0  0  0  0  0  0  0  0  0
   26.8273  -22.5996  -15.4109 O   0  0  0  0  0  0  0  0  0  0  0  0
   28.1600  -19.5694  -18.9589 O   0  0  0  0  0  0  0  0  0  0  0  0
   25.9510  -20.7065  -14.3987 N   0  0  0  0  0  0  0  0  0  0  0  0
   25.5599  -21.3815  -13.1958 C   0  0  1  0  0  0  0  0  0  0  0  0
   26.0629  -20.7343  -11.9296 C   0  0  0  0  0  0  0  0  0  0  0  0
   27.5408  -20.8126  -11.8389 C   0  0  0  0  0  0  0  0  0  0  0  0
   28.1381  -21.9417  -11.3724 C   0  0  0  0  0  0  0  0  0  0  0  0
   29.5279  -21.9696  -11.2961 C   0  0  0  0  0  0  0  0  0  0  0  0
   30.2520  -20.8777  -11.6863 C   0  0  0  0  0  0  0  0  0  0  0  0
   29.6490  -19.7519  -12.1521 C   0  0  0  0  0  0  0  0  0  0  0  0
   28.2825  -19.6996  -12.2366 C   0  0  0  0  0  0  0  0  0  0  0  0
   24.0788  -21.6148  -13.1157 C   0  0  0  0  0  0  0  0  0  0  0  0
   23.7375  -22.7809  -12.8282 O   0  0  0  0  0  0  0  0  0  0  0  0
   21.4223  -18.4462  -12.9740 O   0  0  0  0  0  0  0  0  0  0  0  0
   21.0502  -19.7143  -12.5516 C   0  0  0  0  0  0  0  0  0  0  0  0
   21.7379  -20.7606  -13.3870 C   0  0  2  0  0  0  0  0  0  0  0  0
   23.1482  -20.5848  -13.3503 N   0  0  0  0  0  0  0  0  0  0  0  0
   21.1603  -20.8400  -14.7692 C   0  0  0  0  0  0  0  0  0  0  0  0
   21.8811  -20.5516  -15.7365 O   0  0  0  0  0  0  0  0  0  0  0  0
   19.8533  -21.2266  -14.9538 O   0  0  0  0  0  0  0  0  0  0  0  0
  2  1  1  1
  2  3  1  0
  3  4  1  0
  4  8  1  0
  5  4  2  0
  6  2  1  0
  7  6  2  0
  9  6  1  0
 10 11  1  1
 10  9  1  0
 11 12  1  0
 12 13  2  0
 12 17  1  0
 13 14  1  0
 14 15  2  0
 16 15  1  0
 17 16  2  0
 18 10  1  0
 19 18  2  0
 20 21  1  0
 22 21  1  6
 22 23  1  0
 23 18  1  0
 24 22  1  0
 24 26  1  0
 25 24  2  0
M  END
$$$$
