DFS.pdb
     RDKit          3D

 26 26  0  0  1  0  0  0  0  0999 V2000
   21.7555  -20.6690  -12.0231 N   0  0  0  0  0  0  0  0  0  0  0  0
   22.4117  -21.0403  -13.2002 C   0  0  1  0  0  0  0  0  0  0  0  0
   21.7515  -20.6184  -14.4704 C   0  0  0  0  0  0  0  0  0  0  0  0
   20.3998  -21.1932  -14.6359 C   0  0  0  0  0  0  0  0  0  0  0  0
   19.4789  -20.6039  -15.2502 O   0  0  0  0  0  0  0  0  0  0  0  0
   23.8013  -20.4536  -13.2155 C   0  0  0  0  0  0  0  0  0  0  0  0
   23.9236  -19.2125  -13.3744 O   0  0  0  0  0  0  0  0  0  0  0  0
   20.1332  -22.4358  -14.0914 O   0  0  0  0  0  0  0  0  0  0  0  0
   24.9406  -21.2717  -13.0559 N   0  0  0  0  0  0  0  0  0  0  0  0
   26.2713  -20.7422  -12.9881 C   0  0  1  0  0  0  0  0  0  0  0  0
   27.0815  -21.2480  -11.8207 C   0  0  0  0  0  0  0  0  0  0  0  0
   26.4316  -20.9105  -10.5315 C   0  0  0  0  0  0  0  0  0  0  0  0
   25.5908  -21.7985   -9.9369 C   0  0  0  0  0  0  0  0  0  0  0  0
   24.9955  -21.4378   -8.7312 C   0  0  0  0  0  0  0  0  0  0  0  0
   25.2650  -20.2168   -8.1786 C   0  0  0  0  0  0  0  0  0  0  0  0
   26.1067  -19.3335   -8.7780 C   0  0  0  0  0  0  0  0  0  0  0  0
   26.7049  -19.6648   -9.9651 C   0  0  0  0  0  0  0  0  0  0  0  0
   27.0315  -20.9148  -14.2713 C   0  0  0  0  0  0  0  0  0  0  0  0
   27.4334  -22.0745  -14.5010 O   0  0  0  0  0  0  0  0  0  0  0  0
   25.6967  -20.1277  -17.6567 O   0  0  0  0  0  0  0  0  0  0  0  0
   26.8297  -20.8404  -17.2922 C   0  0  0  0  0  0  0  0  0  0  0  0
   27.7496  -19.9697  -16.4790 C   0  0  2  0  0  0  0  0  0  0  0  0
   27.2695  -19.8388  -15.1472 N   0  0  0  0  0  0  0  0  0  0  0  0
   28.0354  -18.6663  -17.1644 C   0  0  0  0  0  0  0  0  0  0  0  0
   27.7323  -17.6092  -16.5904 O   0  0  0  0  0  0  0  0  0  0  0  0
   28.6234  -18.6504  -18.4076 O   0  0  0  0  0  0  0  0  0  0  0  0
  2  1  1  1
  2  3  1  0
  3  4  1  0
  4  8  1  0
  5  4  2  0
  6  2  1  0
  7  6  2  0
  9  6  1  0
 10 11  1  1
 10  9  1  0
 11 12  1  0
 12 13  2  0
 12 17  1  0
 13 14  1  0
 14 15  2  0
 16 15  1  0
 17 16  2  0
 18 10  1  0
 19 18  2  0
 20 21  1  0
 22 21  1  6
 22 23  1  0
 23 18  1  0
 24 22  1  0
 24 26  1  0
 25 24  2  0
M  END
$$$$
