DFS.pdb
     RDKit          3D

 26 26  0  0  1  0  0  0  0  0999 V2000
   23.2882  -12.0708  -18.0962 N   0  0  0  0  0  0  0  0  0  0  0  0
   22.7248  -10.8809  -18.5659 C   0  0  1  0  0  0  0  0  0  0  0  0
   21.3547  -10.9979  -19.1460 C   0  0  0  0  0  0  0  0  0  0  0  0
   21.3114  -11.8467  -20.3554 C   0  0  0  0  0  0  0  0  0  0  0  0
   22.2489  -11.8972  -21.1868 O   0  0  0  0  0  0  0  0  0  0  0  0
   22.6377   -9.8797  -17.4410 C   0  0  0  0  0  0  0  0  0  0  0  0
   22.1193  -10.2449  -16.3555 O   0  0  0  0  0  0  0  0  0  0  0  0
   20.1897  -12.6216  -20.5854 O   0  0  0  0  0  0  0  0  0  0  0  0
   23.1243   -8.5636  -17.5962 N   0  0  0  0  0  0  0  0  0  0  0  0
   23.0855   -7.5938  -16.5409 C   0  0  1  0  0  0  0  0  0  0  0  0
   24.4412   -7.0977  -16.1040 C   0  0  0  0  0  0  0  0  0  0  0  0
   25.3591   -8.2273  -15.8212 C   0  0  0  0  0  0  0  0  0  0  0  0
   25.2124   -8.9591  -14.6844 C   0  0  0  0  0  0  0  0  0  0  0  0
   26.1011  -10.0057  -14.4542 C   0  0  0  0  0  0  0  0  0  0  0  0
   27.0875  -10.2719  -15.3625 C   0  0  0  0  0  0  0  0  0  0  0  0
   27.2287   -9.5368  -16.4973 C   0  0  0  0  0  0  0  0  0  0  0  0
   26.3668   -8.5014  -16.7466 C   0  0  0  0  0  0  0  0  0  0  0  0
   22.1752   -6.4394  -16.8460 C   0  0  0  0  0  0  0  0  0  0  0  0
   22.3562   -5.8964  -17.9557 O   0  0  0  0  0  0  0  0  0  0  0  0
   18.0298   -4.4953  -16.8492 O   0  0  0  0  0  0  0  0  0  0  0  0
   18.9346   -5.5235  -16.6287 C   0  0  0  0  0  0  0  0  0  0  0  0
   20.2601   -4.9613  -16.1898 C   0  0  2  0  0  0  0  0  0  0  0  0
   21.1901   -6.0068  -15.9381 N   0  0  0  0  0  0  0  0  0  0  0  0
   20.1064   -3.9852  -15.0611 C   0  0  0  0  0  0  0  0  0  0  0  0
   20.2500   -4.3890  -13.8970 O   0  0  0  0  0  0  0  0  0  0  0  0
   19.8115   -2.6668  -15.3192 O   0  0  0  0  0  0  0  0  0  0  0  0
  2  1  1  1
  2  3  1  0
  3  4  1  0
  4  8  1  0
  5  4  2  0
  6  2  1  0
  7  6  2  0
  9  6  1  0
 10 11  1  6
 10  9  1  0
 11 12  1  0
 12 13  2  0
 12 17  1  0
 13 14  1  0
 14 15  2  0
 16 15  1  0
 17 16  2  0
 18 10  1  0
 19 18  2  0
 20 21  1  0
 22 21  1  1
 22 23  1  0
 23 18  1  0
 24 22  1  0
 24 26  1  0
 25 24  2  0
M  END
$$$$
