DFS.pdb
     RDKit          3D

 26 26  0  0  1  0  0  0  0  0999 V2000
   25.4681  -18.1360  -20.0337 N   0  0  0  0  0  0  0  0  0  0  0  0
   24.3633  -18.5601  -19.2898 C   0  0  1  0  0  0  0  0  0  0  0  0
   23.4382  -19.5030  -19.9844 C   0  0  0  0  0  0  0  0  0  0  0  0
   22.6569  -18.8565  -21.0598 C   0  0  0  0  0  0  0  0  0  0  0  0
   22.3893  -19.4257  -22.1446 O   0  0  0  0  0  0  0  0  0  0  0  0
   24.8305  -19.2536  -18.0343 C   0  0  0  0  0  0  0  0  0  0  0  0
   24.9720  -20.5026  -18.0595 O   0  0  0  0  0  0  0  0  0  0  0  0
   22.1982  -17.5665  -20.8665 O   0  0  0  0  0  0  0  0  0  0  0  0
   25.1040  -18.5247  -16.8567 N   0  0  0  0  0  0  0  0  0  0  0  0
   25.5302  -19.1509  -15.6393 C   0  0  1  0  0  0  0  0  0  0  0  0
   26.7590  -18.5326  -15.0207 C   0  0  0  0  0  0  0  0  0  0  0  0
   26.9263  -17.1247  -15.4548 C   0  0  0  0  0  0  0  0  0  0  0  0
   26.4854  -16.1091  -14.6653 C   0  0  0  0  0  0  0  0  0  0  0  0
   26.6552  -14.8025  -15.1149 C   0  0  0  0  0  0  0  0  0  0  0  0
   27.2529  -14.5716  -16.3225 C   0  0  0  0  0  0  0  0  0  0  0  0
   27.6917  -15.5913  -17.1071 C   0  0  0  0  0  0  0  0  0  0  0  0
   27.5361  -16.8860  -16.6870 C   0  0  0  0  0  0  0  0  0  0  0  0
   24.4281  -19.2602  -14.6255 C   0  0  0  0  0  0  0  0  0  0  0  0
   24.6124  -18.6241  -13.5670 O   0  0  0  0  0  0  0  0  0  0  0  0
   20.7589  -18.2871  -14.7724 O   0  0  0  0  0  0  0  0  0  0  0  0
   21.6202  -18.6705  -13.7547 C   0  0  0  0  0  0  0  0  0  0  0  0
   22.1347  -20.0620  -14.0088 C   0  0  2  0  0  0  0  0  0  0  0  0
   23.2723  -20.0287  -14.8608 N   0  0  0  0  0  0  0  0  0  0  0  0
   21.0449  -20.9851  -14.4678 C   0  0  0  0  0  0  0  0  0  0  0  0
   21.1234  -21.4877  -15.5992 O   0  0  0  0  0  0  0  0  0  0  0  0
   19.9800  -21.2653  -13.6437 O   0  0  0  0  0  0  0  0  0  0  0  0
  2  1  1  6
  2  3  1  0
  3  4  1  0
  4  8  1  0
  5  4  2  0
  6  2  1  0
  7  6  2  0
  9  6  1  0
 10 11  1  1
 10  9  1  0
 11 12  1  0
 12 13  2  0
 12 17  1  0
 13 14  1  0
 14 15  2  0
 16 15  1  0
 17 16  2  0
 18 10  1  0
 19 18  2  0
 20 21  1  0
 22 21  1  6
 22 23  1  0
 23 18  1  0
 24 22  1  0
 24 26  1  0
 25 24  2  0
M  END
$$$$
