DFS.pdb
     RDKit          3D

 26 26  0  0  1  0  0  0  0  0999 V2000
   28.8209  -21.3853  -17.3524 N   0  0  0  0  0  0  0  0  0  0  0  0
   27.8214  -22.3618  -17.3881 C   0  0  1  0  0  0  0  0  0  0  0  0
   28.2857  -23.7542  -17.6578 C   0  0  0  0  0  0  0  0  0  0  0  0
   29.3279  -23.8218  -18.7038 C   0  0  0  0  0  0  0  0  0  0  0  0
   29.8576  -24.8979  -19.0699 O   0  0  0  0  0  0  0  0  0  0  0  0
   27.0928  -22.3934  -16.0676 C   0  0  0  0  0  0  0  0  0  0  0  0
   26.3940  -23.4024  -15.7954 O   0  0  0  0  0  0  0  0  0  0  0  0
   29.7411  -22.6493  -19.3091 O   0  0  0  0  0  0  0  0  0  0  0  0
   27.1888  -21.3203  -15.1553 N   0  0  0  0  0  0  0  0  0  0  0  0
   26.4542  -21.2817  -13.9247 C   0  0  1  0  0  0  0  0  0  0  0  0
   27.1374  -20.5179  -12.8180 C   0  0  0  0  0  0  0  0  0  0  0  0
   26.3067  -20.4968  -11.5900 C   0  0  0  0  0  0  0  0  0  0  0  0
   25.3616  -19.5338  -11.4206 C   0  0  0  0  0  0  0  0  0  0  0  0
   24.6097  -19.5462  -10.2490 C   0  0  0  0  0  0  0  0  0  0  0  0
   24.8337  -20.5121   -9.3079 C   0  0  0  0  0  0  0  0  0  0  0  0
   25.7799  -21.4723   -9.4833 C   0  0  0  0  0  0  0  0  0  0  0  0
   26.5331  -21.4815  -10.6276 C   0  0  0  0  0  0  0  0  0  0  0  0
   25.0437  -20.7994  -14.1049 C   0  0  0  0  0  0  0  0  0  0  0  0
   24.9300  -19.6429  -14.5616 O   0  0  0  0  0  0  0  0  0  0  0  0
   22.3018  -22.1852  -16.0878 O   0  0  0  0  0  0  0  0  0  0  0  0
   21.8332  -22.2154  -14.7823 C   0  0  0  0  0  0  0  0  0  0  0  0
   22.5768  -21.2121  -13.9421 C   0  0  2  0  0  0  0  0  0  0  0  0
   23.9341  -21.6021  -13.7788 N   0  0  0  0  0  0  0  0  0  0  0  0
   21.8590  -20.9177  -12.6582 C   0  0  0  0  0  0  0  0  0  0  0  0
   22.3490  -21.3214  -11.5925 O   0  0  0  0  0  0  0  0  0  0  0  0
   20.6785  -20.2119  -12.6692 O   0  0  0  0  0  0  0  0  0  0  0  0
  2  1  1  1
  2  3  1  0
  3  4  1  0
  4  8  1  0
  5  4  2  0
  6  2  1  0
  7  6  2  0
  9  6  1  0
 10 11  1  1
 10  9  1  0
 11 12  1  0
 12 13  2  0
 12 17  1  0
 13 14  1  0
 14 15  2  0
 16 15  1  0
 17 16  2  0
 18 10  1  0
 19 18  2  0
 20 21  1  0
 22 21  1  1
 22 23  1  0
 23 18  1  0
 24 22  1  0
 24 26  1  0
 25 24  2  0
M  END
$$$$
