DFS.pdb
     RDKit          3D

 26 26  0  0  1  0  0  0  0  0999 V2000
   16.5587  -25.1102   -4.3051 N   0  0  0  0  0  0  0  0  0  0  0  0
   15.3463  -24.8332   -3.6669 C   0  0  1  0  0  0  0  0  0  0  0  0
   14.3970  -25.9793   -3.5544 C   0  0  0  0  0  0  0  0  0  0  0  0
   13.9615  -26.4980   -4.8683 C   0  0  0  0  0  0  0  0  0  0  0  0
   13.1534  -25.8880   -5.6082 O   0  0  0  0  0  0  0  0  0  0  0  0
   15.6090  -24.3457   -2.2638 C   0  0  0  0  0  0  0  0  0  0  0  0
   16.5021  -24.9190   -1.5899 O   0  0  0  0  0  0  0  0  0  0  0  0
   14.4642  -27.7093   -5.3061 O   0  0  0  0  0  0  0  0  0  0  0  0
   14.8740  -23.2728   -1.7145 N   0  0  0  0  0  0  0  0  0  0  0  0
   15.1272  -22.7513   -0.4031 C   0  0  1  0  0  0  0  0  0  0  0  0
   15.3019  -21.2540   -0.3539 C   0  0  0  0  0  0  0  0  0  0  0  0
   15.4353  -20.7761    1.0433 C   0  0  0  0  0  0  0  0  0  0  0  0
   14.3667  -20.2316    1.6844 C   0  0  0  0  0  0  0  0  0  0  0  0
   14.5381  -19.7883    2.9929 C   0  0  0  0  0  0  0  0  0  0  0  0
   15.7586  -19.9082    3.5968 C   0  0  0  0  0  0  0  0  0  0  0  0
   16.8230  -20.4537    2.9506 C   0  0  0  0  0  0  0  0  0  0  0  0
   16.6799  -20.8974    1.6623 C   0  0  0  0  0  0  0  0  0  0  0  0
   14.1081  -23.1964    0.6058 C   0  0  0  0  0  0  0  0  0  0  0  0
   12.9181  -22.9954    0.2858 O   0  0  0  0  0  0  0  0  0  0  0  0
   15.4282  -24.8198    4.1643 O   0  0  0  0  0  0  0  0  0  0  0  0
   14.2143  -25.2955    3.6899 C   0  0  0  0  0  0  0  0  0  0  0  0
   13.5638  -24.2646    2.8070 C   0  0  2  0  0  0  0  0  0  0  0  0
   14.4783  -23.7967    1.8241 N   0  0  0  0  0  0  0  0  0  0  0  0
   12.9065  -23.1790    3.6069 C   0  0  0  0  0  0  0  0  0  0  0  0
   13.3074  -22.0126    3.4755 O   0  0  0  0  0  0  0  0  0  0  0  0
   11.8777  -23.4785    4.4691 O   0  0  0  0  0  0  0  0  0  0  0  0
  2  1  1  1
  2  3  1  0
  3  4  1  0
  4  8  1  0
  5  4  2  0
  6  2  1  0
  7  6  2  0
  9  6  1  0
 10 11  1  6
 10  9  1  0
 11 12  1  0
 12 13  2  0
 12 17  1  0
 13 14  1  0
 14 15  2  0
 16 15  1  0
 17 16  2  0
 18 10  1  0
 19 18  2  0
 20 21  1  0
 22 21  1  1
 22 23  1  0
 23 18  1  0
 24 22  1  0
 24 26  1  0
 25 24  2  0
M  END
$$$$
