KEC.pdb
     RDKit          3D

 25 24  0  0  1  0  0  0  0  0999 V2000
   14.6420  -11.1994  -15.7516 N   0  0  0  0  0  0  0  0  0  0  0  0
   15.7774  -11.1137  -14.8952 C   0  0  1  0  0  0  0  0  0  0  0  0
   16.6090  -12.3713  -14.8251 C   0  0  0  0  0  0  0  0  0  0  0  0
   16.3694  -13.3020  -15.9690 C   0  0  0  0  0  0  0  0  0  0  0  0
   15.6023  -14.5011  -15.4707 C   0  0  0  0  0  0  0  0  0  0  0  0
   15.4452  -15.5889  -16.4989 C   0  0  0  0  0  0  0  0  0  0  0  0
   14.7078  -16.7276  -15.9525 N   0  0  0  0  0  0  0  0  0  0  0  0
   16.6131   -9.9437  -15.2461 C   0  0  0  0  0  0  0  0  0  0  0  0
   17.4319  -10.0125  -16.2108 O   0  0  0  0  0  0  0  0  0  0  0  0
   16.4758   -8.7642  -14.4872 N   0  0  0  0  0  0  0  0  0  0  0  0
   17.2341   -7.5617  -14.8920 C   0  0  1  0  0  0  0  0  0  0  0  0
   16.2783   -6.4327  -14.7747 C   0  0  0  0  0  0  0  0  0  0  0  0
   16.8497   -5.0713  -14.9871 C   0  0  0  0  0  0  0  0  0  0  0  0
   15.8235   -4.0292  -14.7948 C   0  0  0  0  0  0  0  0  0  0  0  0
   15.6387   -3.4892  -13.6508 O   0  0  0  0  0  0  0  0  0  0  0  0
   18.4791   -7.5446  -14.1459 C   0  0  0  0  0  0  0  0  0  0  0  0
   18.4870   -7.8658  -12.9291 O   0  0  0  0  0  0  0  0  0  0  0  0
   15.0578   -3.6412  -15.8776 O   0  0  0  0  0  0  0  0  0  0  0  0
   19.7036   -7.1731  -14.7492 N   0  0  0  0  0  0  0  0  0  0  0  0
   20.9000   -7.1581  -13.9347 C   0  0  1  0  0  0  0  0  0  0  0  0
   21.7283   -8.3725  -14.3593 C   0  0  0  0  0  0  0  0  0  0  0  0
   23.3565   -8.3655  -13.5687 S   0  0  0  0  0  0  0  0  0  0  0  0
   21.6655   -5.9103  -14.0860 C   0  0  0  0  0  0  0  0  0  0  0  0
   21.6737   -5.3341  -15.1996 O   0  0  0  0  0  0  0  0  0  0  0  0
   22.3612   -5.3915  -13.0092 O   0  0  0  0  0  0  0  0  0  0  0  0
  2  8  1  0
  2  1  1  6
  3  2  1  0
  4  5  1  0
  4  3  1  0
  6  7  1  0
  6  5  1  0
  8  9  2  0
 10 11  1  0
 10  8  1  0
 11 12  1  1
 12 13  1  0
 13 14  1  0
 14 18  1  0
 14 15  2  0
 16 17  2  0
 16 11  1  0
 19 16  1  0
 20 23  1  0
 20 19  1  0
 20 21  1  6
 22 21  1  0
 23 25  1  0
 24 23  2  0
M  END
$$$$
