KEC.pdb
     RDKit          3D

 25 24  0  0  1  0  0  0  0  0999 V2000
   21.9564  -14.3772  -18.7400 N   0  0  0  0  0  0  0  0  0  0  0  0
   21.0672  -14.0349  -17.6808 C   0  0  1  0  0  0  0  0  0  0  0  0
   20.6150  -15.2017  -16.8370 C   0  0  0  0  0  0  0  0  0  0  0  0
   21.0861  -16.5219  -17.3540 C   0  0  0  0  0  0  0  0  0  0  0  0
   19.8864  -17.3831  -17.6597 C   0  0  0  0  0  0  0  0  0  0  0  0
   20.2332  -18.6940  -18.3127 C   0  0  0  0  0  0  0  0  0  0  0  0
   19.0321  -19.4867  -18.5733 N   0  0  0  0  0  0  0  0  0  0  0  0
   21.6416  -12.9619  -16.8385 C   0  0  0  0  0  0  0  0  0  0  0  0
   20.9879  -12.5077  -15.8525 O   0  0  0  0  0  0  0  0  0  0  0  0
   22.9205  -12.4641  -17.1588 N   0  0  0  0  0  0  0  0  0  0  0  0
   23.4726  -11.3475  -16.3633 C   0  0  1  0  0  0  0  0  0  0  0  0
   24.9450  -11.5287  -16.3948 C   0  0  0  0  0  0  0  0  0  0  0  0
   25.7488  -10.4365  -15.7734 C   0  0  0  0  0  0  0  0  0  0  0  0
   27.1930  -10.6617  -15.9722 C   0  0  0  0  0  0  0  0  0  0  0  0
   28.0544   -9.8031  -15.5780 O   0  0  0  0  0  0  0  0  0  0  0  0
   22.8783  -10.1150  -16.8478 C   0  0  0  0  0  0  0  0  0  0  0  0
   22.9063   -9.8445  -18.0766 O   0  0  0  0  0  0  0  0  0  0  0  0
   27.6059  -11.8235  -16.5958 O   0  0  0  0  0  0  0  0  0  0  0  0
   22.2590   -9.1924  -15.9723 N   0  0  0  0  0  0  0  0  0  0  0  0
   21.7747   -7.9410  -16.5149 C   0  0  1  0  0  0  0  0  0  0  0  0
   20.2476   -7.9978  -16.4387 C   0  0  0  0  0  0  0  0  0  0  0  0
   19.5149   -6.3673  -16.7228 S   0  0  0  0  0  0  0  0  0  0  0  0
   22.3025   -6.7740  -15.7900 C   0  0  0  0  0  0  0  0  0  0  0  0
   22.4764   -6.8566  -14.5510 O   0  0  0  0  0  0  0  0  0  0  0  0
   22.5979   -5.6100  -16.4760 O   0  0  0  0  0  0  0  0  0  0  0  0
  2  8  1  0
  2  1  1  6
  3  2  1  0
  4  5  1  0
  4  3  1  0
  6  7  1  0
  6  5  1  0
  8  9  2  0
 10 11  1  0
 10  8  1  0
 11 12  1  6
 12 13  1  0
 13 14  1  0
 14 18  1  0
 14 15  2  0
 16 17  2  0
 16 11  1  0
 19 16  1  0
 20 23  1  0
 20 19  1  0
 20 21  1  1
 22 21  1  0
 23 25  1  0
 24 23  2  0
M  END
$$$$
