KEC.pdb
     RDKit          3D

 25 24  0  0  1  0  0  0  0  0999 V2000
   15.7544  -10.8985  -17.6805 N   0  0  0  0  0  0  0  0  0  0  0  0
   15.9426  -10.3190  -16.3926 C   0  0  1  0  0  0  0  0  0  0  0  0
   16.2324  -11.3109  -15.2926 C   0  0  0  0  0  0  0  0  0  0  0  0
   15.9878  -12.7284  -15.6962 C   0  0  0  0  0  0  0  0  0  0  0  0
   16.0634  -13.6050  -14.4713 C   0  0  0  0  0  0  0  0  0  0  0  0
   15.9740  -15.0766  -14.7741 C   0  0  0  0  0  0  0  0  0  0  0  0
   15.9819  -15.8687  -13.5447 N   0  0  0  0  0  0  0  0  0  0  0  0
   16.9762   -9.2605  -16.4388 C   0  0  0  0  0  0  0  0  0  0  0  0
   18.0540   -9.4506  -17.0775 O   0  0  0  0  0  0  0  0  0  0  0  0
   16.7327   -8.0493  -15.7608 N   0  0  0  0  0  0  0  0  0  0  0  0
   17.7429   -6.9730  -15.8354 C   0  0  1  0  0  0  0  0  0  0  0  0
   16.9815   -5.7057  -15.7091 C   0  0  0  0  0  0  0  0  0  0  0  0
   17.7994   -4.4634  -15.5956 C   0  0  0  0  0  0  0  0  0  0  0  0
   16.9392   -3.2697  -15.4895 C   0  0  0  0  0  0  0  0  0  0  0  0
   15.6659   -3.3766  -15.4450 O   0  0  0  0  0  0  0  0  0  0  0  0
   18.8015   -7.2856  -14.8927 C   0  0  0  0  0  0  0  0  0  0  0  0
   18.5214   -7.8158  -13.7863 O   0  0  0  0  0  0  0  0  0  0  0  0
   17.5336   -2.0234  -15.4385 O   0  0  0  0  0  0  0  0  0  0  0  0
   20.1592   -7.0101  -15.1794 N   0  0  0  0  0  0  0  0  0  0  0  0
   21.1529   -7.2996  -14.1676 C   0  0  1  0  0  0  0  0  0  0  0  0
   21.9977   -8.4551  -14.7083 C   0  0  0  0  0  0  0  0  0  0  0  0
   23.3608   -8.8530  -13.5858 S   0  0  0  0  0  0  0  0  0  0  0  0
   21.9881   -6.1298  -13.8514 C   0  0  0  0  0  0  0  0  0  0  0  0
   22.3028   -5.3411  -14.7739 O   0  0  0  0  0  0  0  0  0  0  0  0
   22.4130   -5.9149  -12.5529 O   0  0  0  0  0  0  0  0  0  0  0  0
  2  8  1  0
  2  1  1  6
  3  2  1  0
  4  5  1  0
  4  3  1  0
  6  7  1  0
  6  5  1  0
  8  9  2  0
 10 11  1  0
 10  8  1  0
 11 12  1  1
 12 13  1  0
 13 14  1  0
 14 18  1  0
 14 15  2  0
 16 17  2  0
 16 11  1  0
 19 16  1  0
 20 23  1  0
 20 19  1  0
 20 21  1  6
 22 21  1  0
 23 25  1  0
 24 23  2  0
M  END
$$$$
