KEC.pdb
     RDKit          3D

 25 24  0  0  1  0  0  0  0  0999 V2000
   24.9947  -18.9644  -18.9595 N   0  0  0  0  0  0  0  0  0  0  0  0
   24.9878  -17.6325  -18.4536 C   0  0  1  0  0  0  0  0  0  0  0  0
   26.0471  -16.7313  -19.0398 C   0  0  0  0  0  0  0  0  0  0  0  0
   27.3529  -17.4224  -19.2628 C   0  0  0  0  0  0  0  0  0  0  0  0
   27.4713  -17.7836  -20.7222 C   0  0  0  0  0  0  0  0  0  0  0  0
   28.8045  -18.3757  -21.0926 C   0  0  0  0  0  0  0  0  0  0  0  0
   28.8796  -18.6477  -22.5276 N   0  0  0  0  0  0  0  0  0  0  0  0
   23.6436  -17.0272  -18.5857 C   0  0  0  0  0  0  0  0  0  0  0  0
   23.1517  -16.8135  -19.7338 O   0  0  0  0  0  0  0  0  0  0  0  0
   22.9334  -16.6983  -17.4138 N   0  0  0  0  0  0  0  0  0  0  0  0
   21.5702  -16.1405  -17.5372 C   0  0  1  0  0  0  0  0  0  0  0  0
   20.7346  -16.9245  -16.5943 C   0  0  0  0  0  0  0  0  0  0  0  0
   19.3696  -17.2828  -17.0775 C   0  0  0  0  0  0  0  0  0  0  0  0
   18.6515  -18.0997  -16.0810 C   0  0  0  0  0  0  0  0  0  0  0  0
   17.8425  -17.5636  -15.2487 O   0  0  0  0  0  0  0  0  0  0  0  0
   21.6624  -14.6979  -17.4048 C   0  0  0  0  0  0  0  0  0  0  0  0
   22.6526  -14.1822  -16.8242 O   0  0  0  0  0  0  0  0  0  0  0  0
   18.8670  -19.4644  -16.0591 O   0  0  0  0  0  0  0  0  0  0  0  0
   20.6611  -13.8380  -17.9141 N   0  0  0  0  0  0  0  0  0  0  0  0
   20.7835  -12.4156  -17.6757 C   0  0  1  0  0  0  0  0  0  0  0  0
   21.9466  -11.9295  -18.5429 C   0  0  0  0  0  0  0  0  0  0  0  0
   22.0268  -10.1217  -18.5803 S   0  0  0  0  0  0  0  0  0  0  0  0
   19.5438  -11.6863  -17.9875 C   0  0  0  0  0  0  0  0  0  0  0  0
   18.6763  -12.2413  -18.7027 O   0  0  0  0  0  0  0  0  0  0  0  0
   19.3506  -10.4090  -17.4935 O   0  0  0  0  0  0  0  0  0  0  0  0
  2  8  1  0
  2  1  1  6
  3  2  1  0
  4  5  1  0
  4  3  1  0
  6  7  1  0
  6  5  1  0
  8  9  2  0
 10 11  1  0
 10  8  1  0
 11 12  1  1
 12 13  1  0
 13 14  1  0
 14 18  1  0
 14 15  2  0
 16 17  2  0
 16 11  1  0
 19 16  1  0
 20 23  1  0
 20 19  1  0
 20 21  1  6
 22 21  1  0
 23 25  1  0
 24 23  2  0
M  END
$$$$
