KEC.pdb
     RDKit          3D

 25 24  0  0  1  0  0  0  0  0999 V2000
   19.8097  -12.1322  -15.0654 N   0  0  0  0  0  0  0  0  0  0  0  0
   19.8175  -11.8103  -16.4532 C   0  0  1  0  0  0  0  0  0  0  0  0
   18.7753  -12.5318  -17.2724 C   0  0  0  0  0  0  0  0  0  0  0  0
   18.2550  -13.7663  -16.6109 C   0  0  0  0  0  0  0  0  0  0  0  0
   17.1339  -14.3323  -17.4459 C   0  0  0  0  0  0  0  0  0  0  0  0
   16.4769  -15.5416  -16.8368 C   0  0  0  0  0  0  0  0  0  0  0  0
   17.4507  -16.6065  -16.5989 N   0  0  0  0  0  0  0  0  0  0  0  0
   19.7301  -10.3464  -16.6535 C   0  0  0  0  0  0  0  0  0  0  0  0
   19.8246   -9.8564  -17.8184 O   0  0  0  0  0  0  0  0  0  0  0  0
   19.5414   -9.5210  -15.5269 N   0  0  0  0  0  0  0  0  0  0  0  0
   19.3219   -8.0736  -15.7302 C   0  0  1  0  0  0  0  0  0  0  0  0
   17.9041   -7.8329  -15.3644 C   0  0  0  0  0  0  0  0  0  0  0  0
   17.4723   -6.4053  -15.3367 C   0  0  0  0  0  0  0  0  0  0  0  0
   16.0583   -6.2864  -14.9337 C   0  0  0  0  0  0  0  0  0  0  0  0
   15.7356   -5.7978  -13.7972 O   0  0  0  0  0  0  0  0  0  0  0  0
   20.3838   -7.3586  -15.0460 C   0  0  0  0  0  0  0  0  0  0  0  0
   20.7685   -7.7409  -13.9103 O   0  0  0  0  0  0  0  0  0  0  0  0
   15.0785   -6.7140  -15.8091 O   0  0  0  0  0  0  0  0  0  0  0  0
   21.0111   -6.2284  -15.6209 N   0  0  0  0  0  0  0  0  0  0  0  0
   22.1182   -5.6179  -14.9162 C   0  0  1  0  0  0  0  0  0  0  0  0
   23.0698   -5.0804  -15.9870 C   0  0  0  0  0  0  0  0  0  0  0  0
   23.6487   -6.4054  -17.0757 S   0  0  0  0  0  0  0  0  0  0  0  0
   21.6810   -4.5483  -14.0047 C   0  0  0  0  0  0  0  0  0  0  0  0
   20.4861   -4.1702  -14.0411 O   0  0  0  0  0  0  0  0  0  0  0  0
   22.5838   -3.9770  -13.1265 O   0  0  0  0  0  0  0  0  0  0  0  0
  2  8  1  0
  2  1  1  1
  3  2  1  0
  4  5  1  0
  4  3  1  0
  6  7  1  0
  6  5  1  0
  8  9  2  0
 10 11  1  0
 10  8  1  0
 11 12  1  1
 12 13  1  0
 13 14  1  0
 14 18  1  0
 14 15  2  0
 16 17  2  0
 16 11  1  0
 19 16  1  0
 20 23  1  0
 20 19  1  0
 20 21  1  6
 22 21  1  0
 23 25  1  0
 24 23  2  0
M  END
$$$$
