KEC.pdb
     RDKit          3D

 25 24  0  0  1  0  0  0  0  0999 V2000
   26.5049  -18.1715  -20.5364 N   0  0  0  0  0  0  0  0  0  0  0  0
   26.1908  -17.5543  -19.2913 C   0  0  1  0  0  0  0  0  0  0  0  0
   25.2423  -16.3846  -19.3904 C   0  0  0  0  0  0  0  0  0  0  0  0
   23.9632  -16.7189  -20.0865 C   0  0  0  0  0  0  0  0  0  0  0  0
   22.8159  -16.4974  -19.1330 C   0  0  0  0  0  0  0  0  0  0  0  0
   21.4631  -16.7332  -19.7492 C   0  0  0  0  0  0  0  0  0  0  0  0
   20.3989  -16.5796  -18.7579 N   0  0  0  0  0  0  0  0  0  0  0  0
   25.6993  -18.5552  -18.3180 C   0  0  0  0  0  0  0  0  0  0  0  0
   25.0240  -19.5513  -18.7152 O   0  0  0  0  0  0  0  0  0  0  0  0
   25.9985  -18.3731  -16.9530 N   0  0  0  0  0  0  0  0  0  0  0  0
   25.5386  -19.3855  -15.9793 C   0  0  1  0  0  0  0  0  0  0  0  0
   26.6719  -19.5755  -15.0404 C   0  0  0  0  0  0  0  0  0  0  0  0
   27.8948  -20.2070  -15.6154 C   0  0  0  0  0  0  0  0  0  0  0  0
   27.7646  -21.6759  -15.6555 C   0  0  0  0  0  0  0  0  0  0  0  0
   26.7457  -22.2613  -15.1517 O   0  0  0  0  0  0  0  0  0  0  0  0
   24.2397  -18.9710  -15.4813 C   0  0  0  0  0  0  0  0  0  0  0  0
   24.0228  -17.7582  -15.2249 O   0  0  0  0  0  0  0  0  0  0  0  0
   28.7676  -22.4170  -16.2504 O   0  0  0  0  0  0  0  0  0  0  0  0
   23.1924  -19.8985  -15.2707 N   0  0  0  0  0  0  0  0  0  0  0  0
   21.9279  -19.4110  -14.7623 C   0  0  1  0  0  0  0  0  0  0  0  0
   21.0954  -19.0118  -15.9825 C   0  0  0  0  0  0  0  0  0  0  0  0
   19.3423  -18.8581  -15.5593 S   0  0  0  0  0  0  0  0  0  0  0  0
   21.2285  -20.4145  -13.9438 C   0  0  0  0  0  0  0  0  0  0  0  0
   20.2621  -20.0511  -13.2325 O   0  0  0  0  0  0  0  0  0  0  0  0
   21.6406  -21.7344  -13.9675 O   0  0  0  0  0  0  0  0  0  0  0  0
  2  8  1  0
  2  1  1  6
  3  2  1  0
  4  5  1  0
  4  3  1  0
  6  7  1  0
  6  5  1  0
  8  9  2  0
 10 11  1  0
 10  8  1  0
 11 12  1  1
 12 13  1  0
 13 14  1  0
 14 18  1  0
 14 15  2  0
 16 17  2  0
 16 11  1  0
 19 16  1  0
 20 23  1  0
 20 19  1  0
 20 21  1  6
 22 21  1  0
 23 25  1  0
 24 23  2  0
M  END
$$$$
