KEC.pdb
     RDKit          3D

 25 24  0  0  1  0  0  0  0  0999 V2000
   18.5257  -12.4187  -18.3123 N   0  0  0  0  0  0  0  0  0  0  0  0
   18.9858  -11.9856  -17.0354 C   0  0  1  0  0  0  0  0  0  0  0  0
   20.2256  -12.6902  -16.5411 C   0  0  0  0  0  0  0  0  0  0  0  0
   20.3384  -14.0981  -17.0281 C   0  0  0  0  0  0  0  0  0  0  0  0
   20.7007  -14.9892  -15.8666 C   0  0  0  0  0  0  0  0  0  0  0  0
   20.9001  -16.4311  -16.2493 C   0  0  0  0  0  0  0  0  0  0  0  0
   21.4207  -17.2075  -15.1246 N   0  0  0  0  0  0  0  0  0  0  0  0
   19.1652  -10.5166  -17.0121 C   0  0  0  0  0  0  0  0  0  0  0  0
   19.8039   -9.9384  -17.9415 O   0  0  0  0  0  0  0  0  0  0  0  0
   18.6135   -9.7861  -15.9407 N   0  0  0  0  0  0  0  0  0  0  0  0
   18.7415   -8.3137  -15.9388 C   0  0  1  0  0  0  0  0  0  0  0  0
   17.4707   -7.8063  -15.3648 C   0  0  0  0  0  0  0  0  0  0  0  0
   16.3503   -7.6155  -16.3310 C   0  0  0  0  0  0  0  0  0  0  0  0
   15.1350   -7.1359  -15.6462 C   0  0  0  0  0  0  0  0  0  0  0  0
   14.9965   -5.9036  -15.3352 O   0  0  0  0  0  0  0  0  0  0  0  0
   20.0093   -7.9747  -15.3184 C   0  0  0  0  0  0  0  0  0  0  0  0
   20.3281   -8.4924  -14.2166 O   0  0  0  0  0  0  0  0  0  0  0  0
   14.1395   -8.0448  -15.3427 O   0  0  0  0  0  0  0  0  0  0  0  0
   20.9134   -7.0676  -15.9195 N   0  0  0  0  0  0  0  0  0  0  0  0
   22.1590   -6.7798  -15.2408 C   0  0  1  0  0  0  0  0  0  0  0  0
   23.2320   -6.6830  -16.3273 C   0  0  0  0  0  0  0  0  0  0  0  0
   24.7850   -6.0351  -15.6604 S   0  0  0  0  0  0  0  0  0  0  0  0
   22.0913   -5.5433  -14.4455 C   0  0  0  0  0  0  0  0  0  0  0  0
   21.4343   -4.5716  -14.8884 O   0  0  0  0  0  0  0  0  0  0  0  0
   22.7467   -5.4668  -13.2300 O   0  0  0  0  0  0  0  0  0  0  0  0
  2  8  1  0
  2  1  1  6
  3  2  1  0
  4  5  1  0
  4  3  1  0
  6  7  1  0
  6  5  1  0
  8  9  2  0
 10 11  1  0
 10  8  1  0
 11 12  1  1
 12 13  1  0
 13 14  1  0
 14 18  1  0
 14 15  2  0
 16 17  2  0
 16 11  1  0
 19 16  1  0
 20 23  1  0
 20 19  1  0
 20 21  1  6
 22 21  1  0
 23 25  1  0
 24 23  2  0
M  END
$$$$
