KEC.pdb
     RDKit          3D

 25 24  0  0  1  0  0  0  0  0999 V2000
   18.4381  -20.6763  -13.8853 N   0  0  0  0  0  0  0  0  0  0  0  0
   19.4525  -19.9702  -13.1765 C   0  0  1  0  0  0  0  0  0  0  0  0
   19.3738  -20.0952  -11.6745 C   0  0  0  0  0  0  0  0  0  0  0  0
   18.9566  -21.4547  -11.2162 C   0  0  0  0  0  0  0  0  0  0  0  0
   17.4554  -21.4829  -11.0743 C   0  0  0  0  0  0  0  0  0  0  0  0
   16.9222  -22.7872  -10.5455 C   0  0  0  0  0  0  0  0  0  0  0  0
   15.4618  -22.7668  -10.4687 N   0  0  0  0  0  0  0  0  0  0  0  0
   20.7964  -20.3448  -13.6706 C   0  0  0  0  0  0  0  0  0  0  0  0
   21.2700  -21.4931  -13.4192 O   0  0  0  0  0  0  0  0  0  0  0  0
   21.5275  -19.4011  -14.4196 N   0  0  0  0  0  0  0  0  0  0  0  0
   22.8208  -19.8048  -15.0103 C   0  0  1  0  0  0  0  0  0  0  0  0
   22.9434  -19.0242  -16.2663 C   0  0  0  0  0  0  0  0  0  0  0  0
   24.1742  -19.2746  -17.0710 C   0  0  0  0  0  0  0  0  0  0  0  0
   24.2211  -18.3972  -18.2559 C   0  0  0  0  0  0  0  0  0  0  0  0
   24.8142  -17.2653  -18.2149 O   0  0  0  0  0  0  0  0  0  0  0  0
   23.8379  -19.6949  -13.9805 C   0  0  0  0  0  0  0  0  0  0  0  0
   24.0600  -18.5840  -13.4325 O   0  0  0  0  0  0  0  0  0  0  0  0
   23.6099  -18.8190  -19.4211 O   0  0  0  0  0  0  0  0  0  0  0  0
   24.6006  -20.8117  -13.5650 N   0  0  0  0  0  0  0  0  0  0  0  0
   25.8775  -20.5784  -12.9247 C   0  0  1  0  0  0  0  0  0  0  0  0
   25.9420  -21.5295  -11.7278 C   0  0  0  0  0  0  0  0  0  0  0  0
   24.9297  -20.9258  -10.3542 S   0  0  0  0  0  0  0  0  0  0  0  0
   27.0106  -20.7929  -13.8390 C   0  0  0  0  0  0  0  0  0  0  0  0
   26.7830  -21.1996  -15.0030 O   0  0  0  0  0  0  0  0  0  0  0  0
   28.3017  -20.5464  -13.4089 O   0  0  0  0  0  0  0  0  0  0  0  0
  2  8  1  0
  2  1  1  6
  3  2  1  0
  4  5  1  0
  4  3  1  0
  6  7  1  0
  6  5  1  0
  8  9  2  0
 10 11  1  0
 10  8  1  0
 11 12  1  6
 12 13  1  0
 13 14  1  0
 14 18  1  0
 14 15  2  0
 16 17  2  0
 16 11  1  0
 19 16  1  0
 20 23  1  0
 20 19  1  0
 20 21  1  1
 22 21  1  0
 23 25  1  0
 24 23  2  0
M  END
$$$$
