KEC.pdb
     RDKit          3D

 25 24  0  0  1  0  0  0  0  0999 V2000
   28.8663  -23.4131  -18.0922 N   0  0  0  0  0  0  0  0  0  0  0  0
   27.6067  -23.6063  -17.4551 C   0  0  1  0  0  0  0  0  0  0  0  0
   27.5048  -24.8669  -16.6316 C   0  0  0  0  0  0  0  0  0  0  0  0
   27.7689  -26.1092  -17.4185 C   0  0  0  0  0  0  0  0  0  0  0  0
   27.6709  -27.3002  -16.4985 C   0  0  0  0  0  0  0  0  0  0  0  0
   27.9529  -28.6137  -17.1771 C   0  0  0  0  0  0  0  0  0  0  0  0
   27.9603  -29.7136  -16.2133 N   0  0  0  0  0  0  0  0  0  0  0  0
   27.2350  -22.4180  -16.6547 C   0  0  0  0  0  0  0  0  0  0  0  0
   28.1247  -21.5927  -16.2895 O   0  0  0  0  0  0  0  0  0  0  0  0
   25.8807  -22.2309  -16.3132 N   0  0  0  0  0  0  0  0  0  0  0  0
   25.5051  -21.0576  -15.4965 C   0  0  1  0  0  0  0  0  0  0  0  0
   24.7191  -20.1814  -16.3999 C   0  0  0  0  0  0  0  0  0  0  0  0
   24.0344  -19.0252  -15.7521 C   0  0  0  0  0  0  0  0  0  0  0  0
   23.2176  -18.2782  -16.7271 C   0  0  0  0  0  0  0  0  0  0  0  0
   23.7643  -17.6021  -17.6644 O   0  0  0  0  0  0  0  0  0  0  0  0
   24.9212  -21.5413  -14.2587 C   0  0  0  0  0  0  0  0  0  0  0  0
   23.9824  -22.3787  -14.2918 O   0  0  0  0  0  0  0  0  0  0  0  0
   21.8412  -18.3194  -16.6125 O   0  0  0  0  0  0  0  0  0  0  0  0
   25.3784  -21.0964  -12.9959 N   0  0  0  0  0  0  0  0  0  0  0  0
   24.6213  -21.4615  -11.8176 C   0  0  1  0  0  0  0  0  0  0  0  0
   25.4674  -21.0450  -10.6128 C   0  0  0  0  0  0  0  0  0  0  0  0
   24.6206  -21.4149   -9.0565 S   0  0  0  0  0  0  0  0  0  0  0  0
   23.2948  -20.8251  -11.7842 C   0  0  0  0  0  0  0  0  0  0  0  0
   23.1616  -19.6736  -12.2621 O   0  0  0  0  0  0  0  0  0  0  0  0
   22.2198  -21.4970  -11.2314 O   0  0  0  0  0  0  0  0  0  0  0  0
  2  8  1  0
  2  1  1  1
  3  2  1  0
  4  5  1  0
  4  3  1  0
  6  7  1  0
  6  5  1  0
  8  9  2  0
 10 11  1  0
 10  8  1  0
 11 12  1  6
 12 13  1  0
 13 14  1  0
 14 18  1  0
 14 15  2  0
 16 17  2  0
 16 11  1  0
 19 16  1  0
 20 23  1  0
 20 19  1  0
 20 21  1  1
 22 21  1  0
 23 25  1  0
 24 23  2  0
M  END
$$$$
