GDE.pdb
     RDKit          3D

 22 21  0  0  1  0  0  0  0  0999 V2000
   -3.1043  -27.2418   28.0420 N   0  0  0  0  0  0  0  0  0  0  0  0
   -2.0861  -26.2263   28.1800 C   0  0  0  0  0  0  0  0  0  0  0  0
   -2.6409  -24.8681   27.9725 C   0  0  0  0  0  0  0  0  0  0  0  0
   -2.7126  -24.0810   28.9228 O   0  0  0  0  0  0  0  0  0  0  0  0
   -3.0852  -24.4739   26.6985 N   0  0  0  0  0  0  0  0  0  0  0  0
   -3.7185  -23.2034   26.4103 C   0  0  1  0  0  0  0  0  0  0  0  0
   -3.2532  -22.6164   25.1061 C   0  0  0  0  0  0  0  0  0  0  0  0
   -3.7576  -21.2815   24.8195 C   0  0  0  0  0  0  0  0  0  0  0  0
   -4.8472  -21.1869   24.1575 O   0  0  0  0  0  0  0  0  0  0  0  0
   -5.1914  -23.3447   26.4946 C   0  0  0  0  0  0  0  0  0  0  0  0
   -5.7628  -24.2759   25.8761 O   0  0  0  0  0  0  0  0  0  0  0  0
   -3.1739  -20.0873   25.1933 O   0  0  0  0  0  0  0  0  0  0  0  0
   -6.0151  -22.4721   27.2487 N   0  0  0  0  0  0  0  0  0  0  0  0
   -7.4732  -22.7041   27.4025 C   0  0  1  0  0  0  0  0  0  0  0  0
   -7.6663  -22.9369   28.8528 C   0  0  0  0  0  0  0  0  0  0  0  0
   -9.0279  -23.1668   29.3826 C   0  0  0  0  0  0  0  0  0  0  0  0
   -9.1395  -23.4019   30.8229 C   0  0  0  0  0  0  0  0  0  0  0  0
  -10.2572  -23.6094   31.3439 O   0  0  0  0  0  0  0  0  0  0  0  0
   -8.2517  -21.6880   26.7340 C   0  0  0  0  0  0  0  0  0  0  0  0
   -9.6081  -21.8759   26.5156 O   0  0  0  0  0  0  0  0  0  0  0  0
   -8.0149  -23.4008   31.6162 O   0  0  0  0  0  0  0  0  0  0  0  0
   -7.7911  -20.5906   26.3011 O   0  0  0  0  0  0  0  0  0  0  0  0
  2  1  1  0
  3  2  1  0
  4  3  2  0
  5  3  1  0
  6 10  1  0
  6  5  1  0
  6  7  1  6
  8  7  1  0
  9  8  2  0
 10 13  1  0
 11 10  2  0
 12  8  1  0
 13 14  1  0
 14 19  1  0
 14 15  1  1
 16 15  1  0
 16 17  1  0
 17 18  2  0
 19 22  2  0
 19 20  1  0
 21 17  1  0
M  END
$$$$
