GDE.pdb
     RDKit          3D

 22 21  0  0  1  0  0  0  0  0999 V2000
   14.7926  -27.2201   26.1534 N   0  0  0  0  0  0  0  0  0  0  0  0
   14.3527  -27.5275   27.4946 C   0  0  0  0  0  0  0  0  0  0  0  0
   13.7426  -26.3475   28.1509 C   0  0  0  0  0  0  0  0  0  0  0  0
   13.6821  -25.2705   27.5473 O   0  0  0  0  0  0  0  0  0  0  0  0
   13.2332  -26.4506   29.4569 N   0  0  0  0  0  0  0  0  0  0  0  0
   12.6222  -25.3574   30.1849 C   0  0  1  0  0  0  0  0  0  0  0  0
   11.4863  -25.8167   31.0573 C   0  0  0  0  0  0  0  0  0  0  0  0
   10.7662  -24.7509   31.7385 C   0  0  0  0  0  0  0  0  0  0  0  0
   10.3447  -24.9808   32.9234 O   0  0  0  0  0  0  0  0  0  0  0  0
   13.6607  -24.6042   30.9270 C   0  0  0  0  0  0  0  0  0  0  0  0
   14.4375  -25.2152   31.7012 O   0  0  0  0  0  0  0  0  0  0  0  0
   10.4858  -23.4975   31.2316 O   0  0  0  0  0  0  0  0  0  0  0  0
   13.8355  -23.2024   30.8139 N   0  0  0  0  0  0  0  0  0  0  0  0
   14.8730  -22.4744   31.5867 C   0  0  1  0  0  0  0  0  0  0  0  0
   15.7459  -21.8604   30.5591 C   0  0  0  0  0  0  0  0  0  0  0  0
   16.8796  -21.0071   30.9765 C   0  0  0  0  0  0  0  0  0  0  0  0
   17.6744  -20.4037   29.9057 C   0  0  0  0  0  0  0  0  0  0  0  0
   18.7008  -19.7429   30.1771 O   0  0  0  0  0  0  0  0  0  0  0  0
   14.2919  -21.6448   32.6162 C   0  0  0  0  0  0  0  0  0  0  0  0
   12.9248  -21.4142   32.6408 O   0  0  0  0  0  0  0  0  0  0  0  0
   17.3016  -20.5617   28.5904 O   0  0  0  0  0  0  0  0  0  0  0  0
   14.9433  -21.0745   33.5404 O   0  0  0  0  0  0  0  0  0  0  0  0
  2  1  1  0
  3  2  1  0
  4  3  2  0
  5  3  1  0
  6 10  1  0
  6  5  1  0
  6  7  1  1
  8  7  1  0
  9  8  2  0
 10 13  1  0
 11 10  2  0
 12  8  1  0
 13 14  1  0
 14 19  1  0
 14 15  1  6
 16 15  1  0
 16 17  1  0
 17 18  2  0
 19 22  2  0
 19 20  1  0
 21 17  1  0
M  END
$$$$
