GDE.pdb
     RDKit          3D

 22 21  0  0  1  0  0  0  0  0999 V2000
    6.4331  -12.7643   21.9568 N   0  0  0  0  0  0  0  0  0  0  0  0
    6.9563  -12.3214   20.6852 C   0  0  0  0  0  0  0  0  0  0  0  0
    7.9371  -13.2861   20.1348 C   0  0  0  0  0  0  0  0  0  0  0  0
    8.2252  -14.3034   20.7749 O   0  0  0  0  0  0  0  0  0  0  0  0
    8.5395  -13.0465   18.8876 N   0  0  0  0  0  0  0  0  0  0  0  0
    9.4076  -13.9841   18.2053 C   0  0  1  0  0  0  0  0  0  0  0  0
    9.7366  -13.5429   16.8055 C   0  0  0  0  0  0  0  0  0  0  0  0
   10.1870  -14.6047   15.9175 C   0  0  0  0  0  0  0  0  0  0  0  0
   10.9787  -15.4860   16.3981 O   0  0  0  0  0  0  0  0  0  0  0  0
   10.6091  -14.2503   19.0312 C   0  0  0  0  0  0  0  0  0  0  0  0
   11.4829  -13.3584   19.1625 O   0  0  0  0  0  0  0  0  0  0  0  0
    9.8439  -14.7627   14.5894 O   0  0  0  0  0  0  0  0  0  0  0  0
   10.8383  -15.4794   19.6983 N   0  0  0  0  0  0  0  0  0  0  0  0
   12.0176  -15.6904   20.5749 C   0  0  1  0  0  0  0  0  0  0  0  0
   11.4483  -15.9124   21.9245 C   0  0  0  0  0  0  0  0  0  0  0  0
   12.3460  -16.2423   23.0527 C   0  0  0  0  0  0  0  0  0  0  0  0
   11.7050  -16.5449   24.3333 C   0  0  0  0  0  0  0  0  0  0  0  0
   10.4600  -16.5027   24.4415 O   0  0  0  0  0  0  0  0  0  0  0  0
   12.9327  -16.6597   20.0192 C   0  0  0  0  0  0  0  0  0  0  0  0
   14.2628  -16.6716   20.4111 O   0  0  0  0  0  0  0  0  0  0  0  0
   12.4666  -16.8824   25.4287 O   0  0  0  0  0  0  0  0  0  0  0  0
   12.6237  -17.5389   19.1617 O   0  0  0  0  0  0  0  0  0  0  0  0
  2  1  1  0
  3  2  1  0
  4  3  2  0
  5  3  1  0
  6 10  1  0
  6  5  1  0
  6  7  1  6
  8  7  1  0
  9  8  2  0
 10 13  1  0
 11 10  2  0
 12  8  1  0
 13 14  1  0
 14 19  1  0
 14 15  1  1
 16 15  1  0
 16 17  1  0
 17 18  2  0
 19 22  2  0
 19 20  1  0
 21 17  1  0
M  END
$$$$
