GDE.pdb
     RDKit          3D

 22 21  0  0  1  0  0  0  0  0999 V2000
   15.0996  -17.0176   16.8658 N   0  0  0  0  0  0  0  0  0  0  0  0
   14.0441  -17.9335   17.2320 C   0  0  0  0  0  0  0  0  0  0  0  0
   13.3184  -17.4725   18.4388 C   0  0  0  0  0  0  0  0  0  0  0  0
   13.8004  -16.5778   19.1423 O   0  0  0  0  0  0  0  0  0  0  0  0
   12.0844  -18.0503   18.7843 N   0  0  0  0  0  0  0  0  0  0  0  0
   11.3095  -17.6857   19.9526 C   0  0  1  0  0  0  0  0  0  0  0  0
    9.8937  -18.1878   19.8780 C   0  0  0  0  0  0  0  0  0  0  0  0
    9.1716  -17.8103   18.6719 C   0  0  0  0  0  0  0  0  0  0  0  0
    7.9064  -17.6508   18.7616 O   0  0  0  0  0  0  0  0  0  0  0  0
   12.0179  -18.1166   21.1811 C   0  0  0  0  0  0  0  0  0  0  0  0
   12.3098  -19.3276   21.3377 O   0  0  0  0  0  0  0  0  0  0  0  0
    9.7181  -17.6030   17.4209 O   0  0  0  0  0  0  0  0  0  0  0  0
   12.3956  -17.2243   22.2152 N   0  0  0  0  0  0  0  0  0  0  0  0
   13.1043  -17.6881   23.4343 C   0  0  1  0  0  0  0  0  0  0  0  0
   14.2936  -16.8106   23.5351 C   0  0  0  0  0  0  0  0  0  0  0  0
   15.2796  -16.7842   22.4330 C   0  0  0  0  0  0  0  0  0  0  0  0
   16.4427  -15.9145   22.6150 C   0  0  0  0  0  0  0  0  0  0  0  0
   16.5346  -15.1872   23.6280 O   0  0  0  0  0  0  0  0  0  0  0  0
   12.2099  -17.8086   24.5618 C   0  0  0  0  0  0  0  0  0  0  0  0
   12.6450  -18.3939   25.7412 O   0  0  0  0  0  0  0  0  0  0  0  0
   17.4476  -15.8926   21.6750 O   0  0  0  0  0  0  0  0  0  0  0  0
   11.0054  -17.4175   24.5758 O   0  0  0  0  0  0  0  0  0  0  0  0
  2  1  1  0
  3  2  1  0
  4  3  2  0
  5  3  1  0
  6 10  1  0
  6  5  1  0
  6  7  1  6
  8  7  1  0
  9  8  2  0
 10 13  1  0
 11 10  2  0
 12  8  1  0
 13 14  1  0
 14 19  1  0
 14 15  1  1
 16 15  1  0
 16 17  1  0
 17 18  2  0
 19 22  2  0
 19 20  1  0
 21 17  1  0
M  END
$$$$
