GDE.pdb
     RDKit          3D

 22 21  0  0  1  0  0  0  0  0999 V2000
   16.8738  -24.3769   26.4032 N   0  0  0  0  0  0  0  0  0  0  0  0
   16.8815  -24.9283   27.7385 C   0  0  0  0  0  0  0  0  0  0  0  0
   16.5025  -23.9126   28.7485 C   0  0  0  0  0  0  0  0  0  0  0  0
   17.1505  -22.8640   28.8397 O   0  0  0  0  0  0  0  0  0  0  0  0
   15.4088  -24.1393   29.6019 N   0  0  0  0  0  0  0  0  0  0  0  0
   14.9843  -23.2297   30.6463 C   0  0  1  0  0  0  0  0  0  0  0  0
   13.4868  -23.1220   30.7356 C   0  0  0  0  0  0  0  0  0  0  0  0
   12.9967  -22.2383   31.7833 C   0  0  0  0  0  0  0  0  0  0  0  0
   12.0007  -22.6362   32.4791 O   0  0  0  0  0  0  0  0  0  0  0  0
   15.6203  -23.6063   31.9309 C   0  0  0  0  0  0  0  0  0  0  0  0
   15.6806  -24.8154   32.2635 O   0  0  0  0  0  0  0  0  0  0  0  0
   13.5022  -20.9956   32.1100 O   0  0  0  0  0  0  0  0  0  0  0  0
   16.1783  -22.6628   32.8291 N   0  0  0  0  0  0  0  0  0  0  0  0
   16.8460  -23.0759   34.0889 C   0  0  1  0  0  0  0  0  0  0  0  0
   17.8068  -21.9864   34.3804 C   0  0  0  0  0  0  0  0  0  0  0  0
   18.6907  -22.0864   35.5620 C   0  0  0  0  0  0  0  0  0  0  0  0
   19.6070  -20.9683   35.7912 C   0  0  0  0  0  0  0  0  0  0  0  0
   20.8098  -21.1824   36.0579 O   0  0  0  0  0  0  0  0  0  0  0  0
   15.8912  -23.4726   35.0972 C   0  0  0  0  0  0  0  0  0  0  0  0
   16.2321  -24.4211   36.0495 O   0  0  0  0  0  0  0  0  0  0  0  0
   19.1540  -19.6712   35.7112 O   0  0  0  0  0  0  0  0  0  0  0  0
   14.7126  -23.0202   35.1964 O   0  0  0  0  0  0  0  0  0  0  0  0
  2  1  1  0
  3  2  1  0
  4  3  2  0
  5  3  1  0
  6 10  1  0
  6  5  1  0
  6  7  1  1
  8  7  1  0
  9  8  2  0
 10 13  1  0
 11 10  2  0
 12  8  1  0
 13 14  1  0
 14 19  1  0
 14 15  1  1
 16 15  1  0
 16 17  1  0
 17 18  2  0
 19 22  2  0
 19 20  1  0
 21 17  1  0
M  END
$$$$
