GDE.pdb
     RDKit          3D

 22 21  0  0  1  0  0  0  0  0999 V2000
    6.7738  -12.8029   19.5784 N   0  0  0  0  0  0  0  0  0  0  0  0
    7.9599  -12.9877   18.7747 C   0  0  0  0  0  0  0  0  0  0  0  0
    8.7701  -14.1312   19.2556 C   0  0  0  0  0  0  0  0  0  0  0  0
    8.4486  -14.7196   20.2939 O   0  0  0  0  0  0  0  0  0  0  0  0
    9.9023  -14.5475   18.5338 N   0  0  0  0  0  0  0  0  0  0  0  0
   10.6843  -15.7257   18.8477 C   0  0  1  0  0  0  0  0  0  0  0  0
   11.4620  -16.2272   17.6620 C   0  0  0  0  0  0  0  0  0  0  0  0
   10.6511  -16.7638   16.5789 C   0  0  0  0  0  0  0  0  0  0  0  0
    9.8930  -17.7594   16.8406 O   0  0  0  0  0  0  0  0  0  0  0  0
   11.5327  -15.4651   20.0347 C   0  0  0  0  0  0  0  0  0  0  0  0
   12.2146  -14.4125   20.0921 O   0  0  0  0  0  0  0  0  0  0  0  0
   10.6139  -16.3035   15.2776 O   0  0  0  0  0  0  0  0  0  0  0  0
   11.6242  -16.3524   21.1359 N   0  0  0  0  0  0  0  0  0  0  0  0
   12.4408  -16.0366   22.3346 C   0  0  1  0  0  0  0  0  0  0  0  0
   11.6894  -16.6254   23.4676 C   0  0  0  0  0  0  0  0  0  0  0  0
   12.2111  -16.4842   24.8444 C   0  0  0  0  0  0  0  0  0  0  0  0
   11.4505  -17.1474   25.9045 C   0  0  0  0  0  0  0  0  0  0  0  0
   10.2302  -16.9143   26.0463 O   0  0  0  0  0  0  0  0  0  0  0  0
   13.8298  -16.3827   22.1440 C   0  0  0  0  0  0  0  0  0  0  0  0
   14.1809  -17.4413   21.3201 O   0  0  0  0  0  0  0  0  0  0  0  0
   12.0707  -18.0367   26.7522 O   0  0  0  0  0  0  0  0  0  0  0  0
   14.8059  -15.7872   22.6885 O   0  0  0  0  0  0  0  0  0  0  0  0
  2  1  1  0
  3  2  1  0
  4  3  2  0
  5  3  1  0
  6 10  1  0
  6  5  1  0
  6  7  1  6
  8  7  1  0
  9  8  2  0
 10 13  1  0
 11 10  2  0
 12  8  1  0
 13 14  1  0
 14 19  1  0
 14 15  1  1
 16 15  1  0
 16 17  1  0
 17 18  2  0
 19 22  2  0
 19 20  1  0
 21 17  1  0
M  END
$$$$
