GDE.pdb
     RDKit          3D

 22 21  0  0  1  0  0  0  0  0999 V2000
    9.1084  -15.5033   17.6263 N   0  0  0  0  0  0  0  0  0  0  0  0
   10.0858  -14.4396   17.6088 C   0  0  0  0  0  0  0  0  0  0  0  0
   11.4098  -14.9098   18.0793 C   0  0  0  0  0  0  0  0  0  0  0  0
   11.5070  -15.9994   18.6546 O   0  0  0  0  0  0  0  0  0  0  0  0
   12.5540  -14.1198   17.8726 N   0  0  0  0  0  0  0  0  0  0  0  0
   13.8938  -14.5018   18.2690 C   0  0  1  0  0  0  0  0  0  0  0  0
   14.9507  -13.7682   17.4898 C   0  0  0  0  0  0  0  0  0  0  0  0
   16.2596  -14.4048   17.4817 C   0  0  0  0  0  0  0  0  0  0  0  0
   16.4539  -15.3754   18.2907 O   0  0  0  0  0  0  0  0  0  0  0  0
   14.0449  -14.3580   19.7364 C   0  0  0  0  0  0  0  0  0  0  0  0
   14.0743  -13.2122   20.2487 O   0  0  0  0  0  0  0  0  0  0  0  0
   17.3308  -14.0653   16.6792 O   0  0  0  0  0  0  0  0  0  0  0  0
   14.1610  -15.4610   20.6186 N   0  0  0  0  0  0  0  0  0  0  0  0
   14.2372  -15.2860   22.0907 C   0  0  1  0  0  0  0  0  0  0  0  0
   13.0430  -15.9884   22.6155 C   0  0  0  0  0  0  0  0  0  0  0  0
   12.8203  -16.0631   24.0757 C   0  0  0  0  0  0  0  0  0  0  0  0
   11.5734  -16.6898   24.5171 C   0  0  0  0  0  0  0  0  0  0  0  0
   10.7589  -17.1341   23.6788 O   0  0  0  0  0  0  0  0  0  0  0  0
   15.5445  -15.6220   22.6041 C   0  0  0  0  0  0  0  0  0  0  0  0
   16.4594  -16.2914   21.8055 O   0  0  0  0  0  0  0  0  0  0  0  0
   11.2882  -16.7995   25.8590 O   0  0  0  0  0  0  0  0  0  0  0  0
   15.9538  -15.3567   23.7728 O   0  0  0  0  0  0  0  0  0  0  0  0
  2  1  1  0
  3  2  1  0
  4  3  2  0
  5  3  1  0
  6 10  1  0
  6  5  1  0
  6  7  1  6
  8  7  1  0
  9  8  2  0
 10 13  1  0
 11 10  2  0
 12  8  1  0
 13 14  1  0
 14 19  1  0
 14 15  1  1
 16 15  1  0
 16 17  1  0
 17 18  2  0
 19 22  2  0
 19 20  1  0
 21 17  1  0
M  END
$$$$
