GDE.pdb
     RDKit          3D

 22 21  0  0  1  0  0  0  0  0999 V2000
    6.9310  -12.6150   19.5762 N   0  0  0  0  0  0  0  0  0  0  0  0
    8.1572  -12.9545   18.8921 C   0  0  0  0  0  0  0  0  0  0  0  0
    8.7054  -14.2464   19.3673 C   0  0  0  0  0  0  0  0  0  0  0  0
    8.1201  -14.8730   20.2576 O   0  0  0  0  0  0  0  0  0  0  0  0
    9.8885  -14.7599   18.8081 N   0  0  0  0  0  0  0  0  0  0  0  0
   10.5408  -15.9758   19.2493 C   0  0  1  0  0  0  0  0  0  0  0  0
   11.2789  -16.6644   18.1344 C   0  0  0  0  0  0  0  0  0  0  0  0
   10.4333  -17.3711   17.1835 C   0  0  0  0  0  0  0  0  0  0  0  0
   10.3325  -18.6397   17.3056 O   0  0  0  0  0  0  0  0  0  0  0  0
   11.3951  -15.6900   20.4262 C   0  0  0  0  0  0  0  0  0  0  0  0
   12.2006  -14.7277   20.3903 O   0  0  0  0  0  0  0  0  0  0  0  0
    9.7170  -16.8066   16.1467 O   0  0  0  0  0  0  0  0  0  0  0  0
   11.3582  -16.4547   21.6187 N   0  0  0  0  0  0  0  0  0  0  0  0
   12.2524  -16.1638   22.7674 C   0  0  1  0  0  0  0  0  0  0  0  0
   11.5831  -16.7874   23.9327 C   0  0  0  0  0  0  0  0  0  0  0  0
   12.2971  -16.8789   25.2247 C   0  0  0  0  0  0  0  0  0  0  0  0
   11.6322  -17.6325   26.2888 C   0  0  0  0  0  0  0  0  0  0  0  0
   10.4189  -17.9201   26.1953 O   0  0  0  0  0  0  0  0  0  0  0  0
   13.6273  -16.4945   22.4742 C   0  0  0  0  0  0  0  0  0  0  0  0
   13.9300  -17.5931   21.6841 O   0  0  0  0  0  0  0  0  0  0  0  0
   12.3375  -18.0349   27.4000 O   0  0  0  0  0  0  0  0  0  0  0  0
   14.6329  -15.8498   22.8950 O   0  0  0  0  0  0  0  0  0  0  0  0
  2  1  1  0
  3  2  1  0
  4  3  2  0
  5  3  1  0
  6 10  1  0
  6  5  1  0
  6  7  1  6
  8  7  1  0
  9  8  2  0
 10 13  1  0
 11 10  2  0
 12  8  1  0
 13 14  1  0
 14 19  1  0
 14 15  1  1
 16 15  1  0
 16 17  1  0
 17 18  2  0
 19 22  2  0
 19 20  1  0
 21 17  1  0
M  END
$$$$
