GDE.pdb
     RDKit          3D

 22 21  0  0  1  0  0  0  0  0999 V2000
    9.8720  -21.2441   16.9213 N   0  0  0  0  0  0  0  0  0  0  0  0
    9.1306  -22.2696   17.6182 C   0  0  0  0  0  0  0  0  0  0  0  0
    8.7550  -21.8359   18.9844 C   0  0  0  0  0  0  0  0  0  0  0  0
    9.1685  -20.7568   19.4228 O   0  0  0  0  0  0  0  0  0  0  0  0
    7.9304  -22.6486   19.7815 N   0  0  0  0  0  0  0  0  0  0  0  0
    7.5107  -22.3166   21.1276 C   0  0  1  0  0  0  0  0  0  0  0  0
    6.2051  -22.9666   21.4952 C   0  0  0  0  0  0  0  0  0  0  0  0
    5.6508  -22.5491   22.7746 C   0  0  0  0  0  0  0  0  0  0  0  0
    6.3161  -21.7017   23.4629 O   0  0  0  0  0  0  0  0  0  0  0  0
    8.6024  -22.6176   22.0838 C   0  0  0  0  0  0  0  0  0  0  0  0
    9.2602  -23.6799   21.9616 O   0  0  0  0  0  0  0  0  0  0  0  0
    4.4630  -22.9788   23.3323 O   0  0  0  0  0  0  0  0  0  0  0  0
    8.9584  -21.7593   23.1538 N   0  0  0  0  0  0  0  0  0  0  0  0
   10.1755  -21.9866   23.9727 C   0  0  1  0  0  0  0  0  0  0  0  0
   11.3039  -21.6790   23.0634 C   0  0  0  0  0  0  0  0  0  0  0  0
   12.6932  -21.7781   23.5610 C   0  0  0  0  0  0  0  0  0  0  0  0
   13.7562  -21.4816   22.5995 C   0  0  0  0  0  0  0  0  0  0  0  0
   14.1661  -20.3093   22.4533 O   0  0  0  0  0  0  0  0  0  0  0  0
   10.0916  -21.3248   25.2536 C   0  0  0  0  0  0  0  0  0  0  0  0
   10.7632  -21.8388   26.3525 O   0  0  0  0  0  0  0  0  0  0  0  0
   14.3170  -22.4910   21.8508 O   0  0  0  0  0  0  0  0  0  0  0  0
    9.4261  -20.2720   25.4827 O   0  0  0  0  0  0  0  0  0  0  0  0
  2  1  1  0
  3  2  1  0
  4  3  2  0
  5  3  1  0
  6 10  1  0
  6  5  1  0
  6  7  1  1
  8  7  1  0
  9  8  2  0
 10 13  1  0
 11 10  2  0
 12  8  1  0
 13 14  1  0
 14 19  1  0
 14 15  1  6
 16 15  1  0
 16 17  1  0
 17 18  2  0
 19 22  2  0
 19 20  1  0
 21 17  1  0
M  END
$$$$
