GDE.pdb
     RDKit          3D

 22 21  0  0  1  0  0  0  0  0999 V2000
   10.5194  -17.9319   16.9628 N   0  0  0  0  0  0  0  0  0  0  0  0
   10.6483  -16.6215   17.5571 C   0  0  0  0  0  0  0  0  0  0  0  0
   11.9140  -16.4907   18.3163 C   0  0  0  0  0  0  0  0  0  0  0  0
   12.4829  -17.5017   18.7428 O   0  0  0  0  0  0  0  0  0  0  0  0
   12.4680  -15.2205   18.5518 N   0  0  0  0  0  0  0  0  0  0  0  0
   13.6681  -14.9829   19.3275 C   0  0  1  0  0  0  0  0  0  0  0  0
   14.3473  -13.6956   18.9485 C   0  0  0  0  0  0  0  0  0  0  0  0
   15.1609  -13.7628   17.7434 C   0  0  0  0  0  0  0  0  0  0  0  0
   14.6695  -13.2800   16.6665 O   0  0  0  0  0  0  0  0  0  0  0  0
   13.3592  -15.0763   20.7740 C   0  0  0  0  0  0  0  0  0  0  0  0
   12.4522  -14.3592   21.2632 O   0  0  0  0  0  0  0  0  0  0  0  0
   16.4279  -14.3019   17.6392 O   0  0  0  0  0  0  0  0  0  0  0  0
   14.0410  -15.9464   21.6608 N   0  0  0  0  0  0  0  0  0  0  0  0
   13.7722  -15.9498   23.1207 C   0  0  1  0  0  0  0  0  0  0  0  0
   12.5128  -16.7157   23.2698 C   0  0  0  0  0  0  0  0  0  0  0  0
   12.4312  -18.0986   22.7515 C   0  0  0  0  0  0  0  0  0  0  0  0
   11.2026  -18.8374   23.0464 C   0  0  0  0  0  0  0  0  0  0  0  0
   10.3142  -18.3250   23.7618 O   0  0  0  0  0  0  0  0  0  0  0  0
   14.9373  -16.3393   23.8799 C   0  0  0  0  0  0  0  0  0  0  0  0
   16.0991  -16.7271   23.2297 O   0  0  0  0  0  0  0  0  0  0  0  0
   11.0124  -20.1011   22.5357 O   0  0  0  0  0  0  0  0  0  0  0  0
   15.0014  -16.3684   25.1444 O   0  0  0  0  0  0  0  0  0  0  0  0
  2  1  1  0
  3  2  1  0
  4  3  2  0
  5  3  1  0
  6 10  1  0
  6  5  1  0
  6  7  1  1
  8  7  1  0
  9  8  2  0
 10 13  1  0
 11 10  2  0
 12  8  1  0
 13 14  1  0
 14 19  1  0
 14 15  1  6
 16 15  1  0
 16 17  1  0
 17 18  2  0
 19 22  2  0
 19 20  1  0
 21 17  1  0
M  END
$$$$
