GDE.pdb
     RDKit          3D

 22 21  0  0  1  0  0  0  0  0999 V2000
    1.5215  -20.4800   21.9348 N   0  0  0  0  0  0  0  0  0  0  0  0
    2.1529  -19.1808   21.9153 C   0  0  0  0  0  0  0  0  0  0  0  0
    3.5976  -19.2733   22.2308 C   0  0  0  0  0  0  0  0  0  0  0  0
    4.0373  -20.2701   22.8145 O   0  0  0  0  0  0  0  0  0  0  0  0
    4.4678  -18.2307   21.8679 N   0  0  0  0  0  0  0  0  0  0  0  0
    5.9041  -18.2626   22.0532 C   0  0  1  0  0  0  0  0  0  0  0  0
    6.6317  -17.4527   21.0154 C   0  0  0  0  0  0  0  0  0  0  0  0
    8.0755  -17.6360   20.9955 C   0  0  0  0  0  0  0  0  0  0  0  0
    8.5804  -18.4710   21.8216 O   0  0  0  0  0  0  0  0  0  0  0  0
    6.2413  -17.8703   23.4420 C   0  0  0  0  0  0  0  0  0  0  0  0
    5.8550  -16.7612   23.8856 O   0  0  0  0  0  0  0  0  0  0  0  0
    8.9717  -16.9927   20.1651 O   0  0  0  0  0  0  0  0  0  0  0  0
    6.9913  -18.6899   24.3219 N   0  0  0  0  0  0  0  0  0  0  0  0
    7.2848  -18.2815   25.7186 C   0  0  1  0  0  0  0  0  0  0  0  0
    6.8472  -19.4297   26.5463 C   0  0  0  0  0  0  0  0  0  0  0  0
    7.7205  -20.6168   26.6720 C   0  0  0  0  0  0  0  0  0  0  0  0
    8.0061  -21.0791   28.0310 C   0  0  0  0  0  0  0  0  0  0  0  0
    7.4846  -20.5092   29.0143 O   0  0  0  0  0  0  0  0  0  0  0  0
    8.6298  -17.7742   25.8579 C   0  0  0  0  0  0  0  0  0  0  0  0
    9.0138  -17.1179   27.0174 O   0  0  0  0  0  0  0  0  0  0  0  0
    8.8478  -22.1479   28.2387 O   0  0  0  0  0  0  0  0  0  0  0  0
    9.5349  -17.8703   24.9774 O   0  0  0  0  0  0  0  0  0  0  0  0
  2  1  1  0
  3  2  1  0
  4  3  2  0
  5  3  1  0
  6 10  1  0
  6  5  1  0
  6  7  1  6
  8  7  1  0
  9  8  2  0
 10 13  1  0
 11 10  2  0
 12  8  1  0
 13 14  1  0
 14 19  1  0
 14 15  1  1
 16 15  1  0
 16 17  1  0
 17 18  2  0
 19 22  2  0
 19 20  1  0
 21 17  1  0
M  END
$$$$
