GDE.pdb
     RDKit          3D

 22 21  0  0  1  0  0  0  0  0999 V2000
   12.1142  -17.9839   16.4698 N   0  0  0  0  0  0  0  0  0  0  0  0
   11.9250  -18.7801   17.6603 C   0  0  0  0  0  0  0  0  0  0  0  0
   12.2827  -18.0236   18.8831 C   0  0  0  0  0  0  0  0  0  0  0  0
   13.1152  -17.1121   18.8212 O   0  0  0  0  0  0  0  0  0  0  0  0
   11.6778  -18.3405   20.1117 N   0  0  0  0  0  0  0  0  0  0  0  0
   11.8800  -17.5972   21.3385 C   0  0  1  0  0  0  0  0  0  0  0  0
   10.7707  -17.8188   22.3297 C   0  0  0  0  0  0  0  0  0  0  0  0
    9.4393  -17.4853   21.8451 C   0  0  0  0  0  0  0  0  0  0  0  0
    9.2600  -16.3184   21.3546 O   0  0  0  0  0  0  0  0  0  0  0  0
   13.2236  -17.8923   21.8901 C   0  0  0  0  0  0  0  0  0  0  0  0
   13.6218  -19.0813   21.9537 O   0  0  0  0  0  0  0  0  0  0  0  0
    8.3318  -18.3099   21.8595 O   0  0  0  0  0  0  0  0  0  0  0  0
   14.1084  -16.8909   22.3618 N   0  0  0  0  0  0  0  0  0  0  0  0
   15.4664  -17.2153   22.8659 C   0  0  1  0  0  0  0  0  0  0  0  0
   16.3614  -16.2518   22.1835 C   0  0  0  0  0  0  0  0  0  0  0  0
   17.8132  -16.2754   22.4648 C   0  0  0  0  0  0  0  0  0  0  0  0
   18.6306  -15.2765   21.7744 C   0  0  0  0  0  0  0  0  0  0  0  0
   19.6836  -15.6160   21.1917 O   0  0  0  0  0  0  0  0  0  0  0  0
   15.4940  -17.3167   24.3063 C   0  0  0  0  0  0  0  0  0  0  0  0
   16.5013  -18.0295   24.9388 O   0  0  0  0  0  0  0  0  0  0  0  0
   18.2453  -13.9555   21.7569 O   0  0  0  0  0  0  0  0  0  0  0  0
   14.6415  -16.7969   25.0853 O   0  0  0  0  0  0  0  0  0  0  0  0
  2  1  1  0
  3  2  1  0
  4  3  2  0
  5  3  1  0
  6 10  1  0
  6  5  1  0
  6  7  1  1
  8  7  1  0
  9  8  2  0
 10 13  1  0
 11 10  2  0
 12  8  1  0
 13 14  1  0
 14 19  1  0
 14 15  1  1
 16 15  1  0
 16 17  1  0
 17 18  2  0
 19 22  2  0
 19 20  1  0
 21 17  1  0
M  END
$$$$
