GDE.pdb
     RDKit          3D

 22 21  0  0  1  0  0  0  0  0999 V2000
    5.9628  -21.1960   21.1234 N   0  0  0  0  0  0  0  0  0  0  0  0
    6.0992  -19.8591   20.5933 C   0  0  0  0  0  0  0  0  0  0  0  0
    7.5120  -19.5391   20.2815 C   0  0  0  0  0  0  0  0  0  0  0  0
    8.4068  -20.3297   20.6008 O   0  0  0  0  0  0  0  0  0  0  0  0
    7.8357  -18.3396   19.6240 N   0  0  0  0  0  0  0  0  0  0  0  0
    9.1875  -17.8736   19.3918 C   0  0  1  0  0  0  0  0  0  0  0  0
    9.2567  -16.8465   18.2953 C   0  0  0  0  0  0  0  0  0  0  0  0
    8.8677  -17.3282   16.9780 C   0  0  0  0  0  0  0  0  0  0  0  0
    9.3719  -18.4320   16.5757 O   0  0  0  0  0  0  0  0  0  0  0  0
    9.7855  -17.4089   20.6658 C   0  0  0  0  0  0  0  0  0  0  0  0
    9.1006  -16.7156   21.4573 O   0  0  0  0  0  0  0  0  0  0  0  0
    7.9975  -16.7087   16.1031 O   0  0  0  0  0  0  0  0  0  0  0  0
   11.1152  -17.7060   21.0553 N   0  0  0  0  0  0  0  0  0  0  0  0
   11.7018  -17.1814   22.3141 C   0  0  1  0  0  0  0  0  0  0  0  0
   11.2067  -18.0956   23.3696 C   0  0  0  0  0  0  0  0  0  0  0  0
   11.6608  -17.9162   24.7657 C   0  0  0  0  0  0  0  0  0  0  0  0
   11.1575  -18.8783   25.7472 C   0  0  0  0  0  0  0  0  0  0  0  0
   10.0858  -19.4886   25.5407 O   0  0  0  0  0  0  0  0  0  0  0  0
   13.1203  -16.9423   22.1863 C   0  0  0  0  0  0  0  0  0  0  0  0
   13.7881  -17.2972   21.0240 O   0  0  0  0  0  0  0  0  0  0  0  0
   11.8614  -19.1230   26.9042 O   0  0  0  0  0  0  0  0  0  0  0  0
   13.8501  -16.4198   23.0797 O   0  0  0  0  0  0  0  0  0  0  0  0
  2  1  1  0
  3  2  1  0
  4  3  2  0
  5  3  1  0
  6 10  1  0
  6  5  1  0
  6  7  1  6
  8  7  1  0
  9  8  2  0
 10 13  1  0
 11 10  2  0
 12  8  1  0
 13 14  1  0
 14 19  1  0
 14 15  1  1
 16 15  1  0
 16 17  1  0
 17 18  2  0
 19 22  2  0
 19 20  1  0
 21 17  1  0
M  END
$$$$
