GDE.pdb
     RDKit          3D

 22 21  0  0  1  0  0  0  0  0999 V2000
    7.3834  -13.0694   21.0775 N   0  0  0  0  0  0  0  0  0  0  0  0
    8.5701  -13.7408   20.6000 C   0  0  0  0  0  0  0  0  0  0  0  0
    8.8752  -14.9456   21.4067 C   0  0  0  0  0  0  0  0  0  0  0  0
    8.1468  -15.2500   22.3577 O   0  0  0  0  0  0  0  0  0  0  0  0
    9.9903  -15.7418   21.0927 N   0  0  0  0  0  0  0  0  0  0  0  0
   10.3844  -16.9244   21.8305 C   0  0  1  0  0  0  0  0  0  0  0  0
   11.0847  -17.9326   20.9613 C   0  0  0  0  0  0  0  0  0  0  0  0
   11.2323  -19.2546   21.5522 C   0  0  0  0  0  0  0  0  0  0  0  0
   10.7343  -19.4457   22.7140 O   0  0  0  0  0  0  0  0  0  0  0  0
   11.1727  -16.5341   23.0233 C   0  0  0  0  0  0  0  0  0  0  0  0
   12.2783  -15.9578   22.8761 O   0  0  0  0  0  0  0  0  0  0  0  0
   11.8639  -20.3415   20.9808 O   0  0  0  0  0  0  0  0  0  0  0  0
   10.7451  -16.7771   24.3524 N   0  0  0  0  0  0  0  0  0  0  0  0
   11.5342  -16.3281   25.5269 C   0  0  1  0  0  0  0  0  0  0  0  0
   10.5363  -15.7310   26.4447 C   0  0  0  0  0  0  0  0  0  0  0  0
   10.9633  -15.2456   27.7750 C   0  0  0  0  0  0  0  0  0  0  0  0
    9.9270  -14.6468   28.6176 C   0  0  0  0  0  0  0  0  0  0  0  0
    8.7342  -14.6401   28.2424 O   0  0  0  0  0  0  0  0  0  0  0  0
   12.4155  -17.3654   26.0095 C   0  0  0  0  0  0  0  0  0  0  0  0
   13.5965  -17.0355   26.6570 O   0  0  0  0  0  0  0  0  0  0  0  0
   10.2556  -14.0895   29.8323 O   0  0  0  0  0  0  0  0  0  0  0  0
   12.2064  -18.6084   25.8868 O   0  0  0  0  0  0  0  0  0  0  0  0
  2  1  1  0
  3  2  1  0
  4  3  2  0
  5  3  1  0
  6 10  1  0
  6  5  1  0
  6  7  1  6
  8  7  1  0
  9  8  2  0
 10 13  1  0
 11 10  2  0
 12  8  1  0
 13 14  1  0
 14 19  1  0
 14 15  1  1
 16 15  1  0
 16 17  1  0
 17 18  2  0
 19 22  2  0
 19 20  1  0
 21 17  1  0
M  END
$$$$
