GDE.pdb
     RDKit          3D

 22 21  0  0  1  0  0  0  0  0999 V2000
   10.7281  -18.6849   19.8909 N   0  0  0  0  0  0  0  0  0  0  0  0
    9.8995  -19.5644   20.6827 C   0  0  0  0  0  0  0  0  0  0  0  0
    9.7912  -19.0945   22.0837 C   0  0  0  0  0  0  0  0  0  0  0  0
   10.5179  -18.1780   22.4832 O   0  0  0  0  0  0  0  0  0  0  0  0
    8.8646  -19.6885   22.9580 N   0  0  0  0  0  0  0  0  0  0  0  0
    8.5773  -19.2085   24.2942 C   0  0  1  0  0  0  0  0  0  0  0  0
    7.1013  -19.1646   24.5800 C   0  0  0  0  0  0  0  0  0  0  0  0
    6.7427  -18.5894   25.8681 C   0  0  0  0  0  0  0  0  0  0  0  0
    7.3386  -19.0380   26.9063 O   0  0  0  0  0  0  0  0  0  0  0  0
    9.3412  -19.9992   25.2881 C   0  0  0  0  0  0  0  0  0  0  0  0
    9.1998  -21.2460   25.3316 O   0  0  0  0  0  0  0  0  0  0  0  0
    5.8116  -17.5942   26.0903 O   0  0  0  0  0  0  0  0  0  0  0  0
   10.2435  -19.4208   26.2153 N   0  0  0  0  0  0  0  0  0  0  0  0
   10.8309  -20.2017   27.3328 C   0  0  1  0  0  0  0  0  0  0  0  0
   12.2137  -20.5035   26.8949 C   0  0  0  0  0  0  0  0  0  0  0  0
   13.1566  -19.3950   26.6311 C   0  0  0  0  0  0  0  0  0  0  0  0
   14.3604  -19.7264   25.8673 C   0  0  0  0  0  0  0  0  0  0  0  0
   15.2123  -18.8456   25.6182 O   0  0  0  0  0  0  0  0  0  0  0  0
   10.6111  -19.5615   28.6085 C   0  0  0  0  0  0  0  0  0  0  0  0
    9.9327  -18.3542   28.6783 O   0  0  0  0  0  0  0  0  0  0  0  0
   14.5674  -21.0114   25.4200 O   0  0  0  0  0  0  0  0  0  0  0  0
   11.0030  -20.0157   29.7238 O   0  0  0  0  0  0  0  0  0  0  0  0
  2  1  1  0
  3  2  1  0
  4  3  2  0
  5  3  1  0
  6 10  1  0
  6  5  1  0
  6  7  1  1
  8  7  1  0
  9  8  2  0
 10 13  1  0
 11 10  2  0
 12  8  1  0
 13 14  1  0
 14 19  1  0
 14 15  1  6
 16 15  1  0
 16 17  1  0
 17 18  2  0
 19 22  2  0
 19 20  1  0
 21 17  1  0
M  END
$$$$
