GDE.pdb
     RDKit          3D

 22 21  0  0  1  0  0  0  0  0999 V2000
    8.2767  -19.2510   19.4752 N   0  0  0  0  0  0  0  0  0  0  0  0
    8.5055  -17.8483   19.7339 C   0  0  0  0  0  0  0  0  0  0  0  0
    9.7279  -17.6369   20.5441 C   0  0  0  0  0  0  0  0  0  0  0  0
   10.2620  -18.5951   21.1135 O   0  0  0  0  0  0  0  0  0  0  0  0
   10.2804  -16.3501   20.6660 N   0  0  0  0  0  0  0  0  0  0  0  0
   11.3959  -16.0175   21.5282 C   0  0  1  0  0  0  0  0  0  0  0  0
   11.9549  -14.6519   21.2373 C   0  0  0  0  0  0  0  0  0  0  0  0
   12.6772  -14.5400   19.9785 C   0  0  0  0  0  0  0  0  0  0  0  0
   13.5074  -15.4668   19.6850 O   0  0  0  0  0  0  0  0  0  0  0  0
   11.0072  -16.1993   22.9468 C   0  0  0  0  0  0  0  0  0  0  0  0
   10.0153  -15.5799   23.4036 O   0  0  0  0  0  0  0  0  0  0  0  0
   12.5582  -13.5220   19.0533 O   0  0  0  0  0  0  0  0  0  0  0  0
   11.7029  -17.0500   23.8415 N   0  0  0  0  0  0  0  0  0  0  0  0
   11.2285  -17.2905   25.2274 C   0  0  1  0  0  0  0  0  0  0  0  0
    9.9404  -18.0044   25.0657 C   0  0  0  0  0  0  0  0  0  0  0  0
    9.2428  -18.5350   26.2571 C   0  0  0  0  0  0  0  0  0  0  0  0
    7.9685  -19.2153   26.0213 C   0  0  0  0  0  0  0  0  0  0  0  0
    7.4837  -19.2661   24.8698 O   0  0  0  0  0  0  0  0  0  0  0  0
   12.2623  -17.8646   26.0565 C   0  0  0  0  0  0  0  0  0  0  0  0
   13.3370  -18.5239   25.4793 O   0  0  0  0  0  0  0  0  0  0  0  0
    7.2944  -19.8087   27.0641 O   0  0  0  0  0  0  0  0  0  0  0  0
   12.2796  -17.8276   27.3222 O   0  0  0  0  0  0  0  0  0  0  0  0
  2  1  1  0
  3  2  1  0
  4  3  2  0
  5  3  1  0
  6 10  1  0
  6  5  1  0
  6  7  1  1
  8  7  1  0
  9  8  2  0
 10 13  1  0
 11 10  2  0
 12  8  1  0
 13 14  1  0
 14 19  1  0
 14 15  1  6
 16 15  1  0
 16 17  1  0
 17 18  2  0
 19 22  2  0
 19 20  1  0
 21 17  1  0
M  END
$$$$
