QVA.pdb
     RDKit          3D

 22 21  0  0  1  0  0  0  0  0999 V2000
   20.3939  -23.9314  -14.4839 N   0  0  0  0  0  0  0  0  0  0  0  0
   19.0569  -23.4235  -14.2465 C   0  0  0  0  0  0  0  0  0  0  0  0
   18.1279  -24.2352  -14.2407 O   0  0  0  0  0  0  0  0  0  0  0  0
   18.9279  -21.9894  -14.0312 C   0  0  0  0  0  0  0  0  0  0  0  0
   20.1728  -21.1917  -13.9620 C   0  0  0  0  0  0  0  0  0  0  0  0
   20.9795  -21.3016  -12.7073 C   0  0  2  0  0  0  0  0  0  0  0  0
   20.3006  -20.8010  -11.5506 N   0  0  0  0  0  0  0  0  0  0  0  0
   22.3234  -20.6457  -12.8933 C   0  0  0  0  0  0  0  0  0  0  0  0
   22.4244  -19.3948  -12.7193 O   0  0  0  0  0  0  0  0  0  0  0  0
   25.5684  -21.4241  -11.1923 C   0  0  0  0  0  0  0  0  0  0  0  0
   25.7851  -21.4333  -12.6719 C   0  0  2  0  0  0  0  0  0  0  0  0
   27.2090  -21.0482  -13.0449 C   0  0  0  0  0  0  0  0  0  0  0  0
   24.7787  -20.6771  -13.4752 C   0  0  2  0  0  0  0  0  0  0  0  0
   23.4881  -21.3556  -13.2539 N   0  0  0  0  0  0  0  0  0  0  0  0
   25.0572  -20.5391  -14.9047 C   0  0  0  0  0  0  0  0  0  0  0  0
   25.0698  -21.6188  -15.5923 O   0  0  0  0  0  0  0  0  0  0  0  0
   25.4049  -17.9802  -17.6376 C   0  0  0  0  0  0  0  0  0  0  0  0
   25.5695  -19.3915  -17.0670 C   0  0  2  0  0  0  0  0  0  0  0  0
   25.3120  -19.3677  -15.6182 N   0  0  0  0  0  0  0  0  0  0  0  0
   26.9724  -19.7805  -17.3070 C   0  0  0  0  0  0  0  0  0  0  0  0
   27.9284  -19.6673  -16.3239 O   0  0  0  0  0  0  0  0  0  0  0  0
   27.2983  -20.2217  -18.4264 O   0  0  0  0  0  0  0  0  0  0  0  0
  2  3  2  0
  2  1  1  0
  4  2  1  0
  5  4  1  0
  6  5  1  0
  6  7  1  1
  8  6  1  0
  8 14  1  0
  9  8  2  0
 11 10  1  1
 11 13  1  0
 11 12  1  0
 13 14  1  6
 13 15  1  0
 15 19  1  0
 16 15  2  0
 18 20  1  0
 18 17  1  1
 19 18  1  0
 20 21  1  0
 22 20  2  0
M  END
$$$$
