QVA.pdb
     RDKit          3D

 22 21  0  0  1  0  0  0  0  0999 V2000
   22.1428  -11.5283  -20.8212 N   0  0  0  0  0  0  0  0  0  0  0  0
   21.1558  -12.5903  -20.8272 C   0  0  0  0  0  0  0  0  0  0  0  0
   20.9809  -13.2046  -21.8827 O   0  0  0  0  0  0  0  0  0  0  0  0
   20.4548  -12.8423  -19.5763 C   0  0  0  0  0  0  0  0  0  0  0  0
   20.8306  -12.0224  -18.4026 C   0  0  0  0  0  0  0  0  0  0  0  0
   22.0162  -12.4750  -17.6110 C   0  0  2  0  0  0  0  0  0  0  0  0
   21.8657  -13.7899  -17.0652 N   0  0  0  0  0  0  0  0  0  0  0  0
   22.3477  -11.4626  -16.5451 C   0  0  0  0  0  0  0  0  0  0  0  0
   21.7145  -11.4976  -15.4483 O   0  0  0  0  0  0  0  0  0  0  0  0
   25.9473   -9.0191  -16.6184 C   0  0  0  0  0  0  0  0  0  0  0  0
   25.1704   -9.5977  -15.4791 C   0  0  2  0  0  0  0  0  0  0  0  0
   25.6449  -10.9964  -15.1136 C   0  0  0  0  0  0  0  0  0  0  0  0
   23.6845   -9.5351  -15.6148 C   0  0  2  0  0  0  0  0  0  0  0  0
   23.3354  -10.4676  -16.7028 N   0  0  0  0  0  0  0  0  0  0  0  0
   23.1080   -8.2124  -15.8562 C   0  0  0  0  0  0  0  0  0  0  0  0
   23.2250   -7.7448  -17.0421 O   0  0  0  0  0  0  0  0  0  0  0  0
   20.4612   -5.9871  -15.3017 C   0  0  0  0  0  0  0  0  0  0  0  0
   21.9913   -6.0397  -15.3206 C   0  0  2  0  0  0  0  0  0  0  0  0
   22.4401   -7.3908  -14.9479 N   0  0  0  0  0  0  0  0  0  0  0  0
   22.4571   -5.0738  -14.3071 C   0  0  0  0  0  0  0  0  0  0  0  0
   22.4811   -3.7214  -14.5598 O   0  0  0  0  0  0  0  0  0  0  0  0
   22.8376   -5.4933  -13.1965 O   0  0  0  0  0  0  0  0  0  0  0  0
  2  3  2  0
  2  1  1  0
  4  2  1  0
  5  4  1  0
  6  5  1  0
  6  7  1  1
  8  6  1  0
  8 14  1  0
  9  8  2  0
 11 10  1  6
 11 13  1  0
 11 12  1  0
 13 14  1  6
 13 15  1  0
 15 19  1  0
 16 15  2  0
 18 20  1  0
 18 17  1  1
 19 18  1  0
 20 21  1  0
 22 20  2  0
M  END
$$$$
