QVA.pdb
     RDKit          3D

 22 21  0  0  1  0  0  0  0  0999 V2000
   21.8815  -22.0662  -12.7950 N   0  0  0  0  0  0  0  0  0  0  0  0
   21.2377  -21.9031  -11.5063 C   0  0  0  0  0  0  0  0  0  0  0  0
   20.2612  -22.6153  -11.2590 O   0  0  0  0  0  0  0  0  0  0  0  0
   21.8068  -20.9075  -10.6093 C   0  0  0  0  0  0  0  0  0  0  0  0
   22.9890  -20.1535  -11.0834 C   0  0  0  0  0  0  0  0  0  0  0  0
   24.2930  -20.8857  -11.1129 C   0  0  2  0  0  0  0  0  0  0  0  0
   24.8680  -21.0729   -9.8153 N   0  0  0  0  0  0  0  0  0  0  0  0
   25.2514  -20.2043  -12.0552 C   0  0  0  0  0  0  0  0  0  0  0  0
   25.9072  -19.2015  -11.6434 O   0  0  0  0  0  0  0  0  0  0  0  0
   28.2329  -21.5131  -13.4206 C   0  0  0  0  0  0  0  0  0  0  0  0
   27.4712  -20.9799  -14.5919 C   0  0  2  0  0  0  0  0  0  0  0  0
   28.3916  -20.5173  -15.7115 C   0  0  0  0  0  0  0  0  0  0  0  0
   26.4308  -19.9573  -14.2724 C   0  0  2  0  0  0  0  0  0  0  0  0
   25.4613  -20.6264  -13.3850 N   0  0  0  0  0  0  0  0  0  0  0  0
   25.7541  -19.3388  -15.4124 C   0  0  0  0  0  0  0  0  0  0  0  0
   24.9110  -20.0678  -16.0420 O   0  0  0  0  0  0  0  0  0  0  0  0
   25.3505  -16.0585  -17.2285 C   0  0  0  0  0  0  0  0  0  0  0  0
   25.1779  -17.5733  -17.0875 C   0  0  2  0  0  0  0  0  0  0  0  0
   25.9137  -18.0425  -15.9024 N   0  0  0  0  0  0  0  0  0  0  0  0
   25.7663  -18.1775  -18.2982 C   0  0  0  0  0  0  0  0  0  0  0  0
   25.0189  -18.3844  -19.4348 O   0  0  0  0  0  0  0  0  0  0  0  0
   26.9683  -18.5079  -18.2905 O   0  0  0  0  0  0  0  0  0  0  0  0
  2  3  2  0
  2  1  1  0
  4  2  1  0
  5  4  1  0
  6  5  1  0
  6  7  1  1
  8  6  1  0
  8 14  1  0
  9  8  2  0
 11 10  1  1
 11 13  1  0
 11 12  1  0
 13 14  1  1
 13 15  1  0
 15 19  1  0
 16 15  2  0
 18 20  1  0
 18 17  1  6
 19 18  1  0
 20 21  1  0
 22 20  2  0
M  END
$$$$
