QVA.pdb
     RDKit          3D

 22 21  0  0  1  0  0  0  0  0999 V2000
   28.2958  -36.8644  -15.0832 N   0  0  0  0  0  0  0  0  0  0  0  0
   26.9701  -36.3043  -14.9081 C   0  0  0  0  0  0  0  0  0  0  0  0
   26.0807  -37.0538  -14.4969 O   0  0  0  0  0  0  0  0  0  0  0  0
   26.8048  -34.8946  -15.2326 C   0  0  0  0  0  0  0  0  0  0  0  0
   26.8296  -33.9260  -14.1136 C   0  0  0  0  0  0  0  0  0  0  0  0
   25.6072  -33.8506  -13.2550 C   0  0  2  0  0  0  0  0  0  0  0  0
   24.4686  -33.3115  -13.9349 N   0  0  0  0  0  0  0  0  0  0  0  0
   25.9084  -33.0963  -11.9856 C   0  0  0  0  0  0  0  0  0  0  0  0
   25.6981  -31.8474  -11.9502 O   0  0  0  0  0  0  0  0  0  0  0  0
   24.5568  -31.5466  -10.3120 C   0  0  0  0  0  0  0  0  0  0  0  0
   25.0819  -32.4970   -9.2837 C   0  0  2  0  0  0  0  0  0  0  0  0
   24.9193  -31.9588   -7.8699 C   0  0  0  0  0  0  0  0  0  0  0  0
   26.4636  -33.0091   -9.5256 C   0  0  2  0  0  0  0  0  0  0  0  0
   26.4166  -33.7109  -10.8218 N   0  0  0  0  0  0  0  0  0  0  0  0
   27.0303  -33.8693   -8.4868 C   0  0  0  0  0  0  0  0  0  0  0  0
   26.4734  -35.0101   -8.3215 O   0  0  0  0  0  0  0  0  0  0  0  0
   29.9503  -34.1397   -6.1182 C   0  0  0  0  0  0  0  0  0  0  0  0
   28.6026  -34.5969   -6.6831 C   0  0  2  0  0  0  0  0  0  0  0  0
   28.1115  -33.5997   -7.6475 N   0  0  0  0  0  0  0  0  0  0  0  0
   27.6717  -34.6708   -5.5406 C   0  0  0  0  0  0  0  0  0  0  0  0
   27.6251  -35.7751   -4.7211 O   0  0  0  0  0  0  0  0  0  0  0  0
   26.9103  -33.7103   -5.3133 O   0  0  0  0  0  0  0  0  0  0  0  0
  2  3  2  0
  2  1  1  0
  4  2  1  0
  5  4  1  0
  6  5  1  0
  6  7  1  6
  8  6  1  0
  8 14  1  0
  9  8  2  0
 11 10  1  6
 11 13  1  0
 11 12  1  0
 13 14  1  6
 13 15  1  0
 15 19  1  0
 16 15  2  0
 18 20  1  0
 18 17  1  1
 19 18  1  0
 20 21  1  0
 22 20  2  0
M  END
$$$$
