QVA.pdb
     RDKit          3D

 22 21  0  0  1  0  0  0  0  0999 V2000
   18.8904  -24.8306   -6.6282 N   0  0  0  0  0  0  0  0  0  0  0  0
   17.6613  -25.4726   -7.0512 C   0  0  0  0  0  0  0  0  0  0  0  0
   16.8284  -25.7449   -6.1828 O   0  0  0  0  0  0  0  0  0  0  0  0
   17.5158  -25.7387   -8.4752 C   0  0  0  0  0  0  0  0  0  0  0  0
   18.6296  -25.3396   -9.3645 C   0  0  0  0  0  0  0  0  0  0  0  0
   18.9209  -26.2324  -10.5287 C   0  0  2  0  0  0  0  0  0  0  0  0
   19.7601  -27.3434  -10.1957 N   0  0  0  0  0  0  0  0  0  0  0  0
   19.4854  -25.4293  -11.6721 C   0  0  0  0  0  0  0  0  0  0  0  0
   20.7431  -25.3396  -11.7961 O   0  0  0  0  0  0  0  0  0  0  0  0
   18.8873  -26.0753  -15.2431 C   0  0  0  0  0  0  0  0  0  0  0  0
   18.6123  -24.6275  -14.9886 C   0  0  2  0  0  0  0  0  0  0  0  0
   18.8607  -23.7716  -16.2218 C   0  0  0  0  0  0  0  0  0  0  0  0
   19.2640  -24.0516  -13.7747 C   0  0  2  0  0  0  0  0  0  0  0  0
   18.6819  -24.7652  -12.6228 N   0  0  0  0  0  0  0  0  0  0  0  0
   19.1532  -22.6032  -13.6014 C   0  0  0  0  0  0  0  0  0  0  0  0
   18.0338  -22.1632  -13.1630 O   0  0  0  0  0  0  0  0  0  0  0  0
   21.0540  -19.5480  -12.9633 C   0  0  0  0  0  0  0  0  0  0  0  0
   19.8516  -20.2022  -13.6494 C   0  0  2  0  0  0  0  0  0  0  0  0
   20.1236  -21.6338  -13.8554 N   0  0  0  0  0  0  0  0  0  0  0  0
   19.7041  -19.5399  -14.9596 C   0  0  0  0  0  0  0  0  0  0  0  0
   19.1438  -18.2884  -15.0738 O   0  0  0  0  0  0  0  0  0  0  0  0
   20.0965  -20.1282  -15.9862 O   0  0  0  0  0  0  0  0  0  0  0  0
  2  3  2  0
  2  1  1  0
  4  2  1  0
  5  4  1  0
  6  5  1  0
  6  7  1  1
  8  6  1  0
  8 14  1  0
  9  8  2  0
 11 10  1  6
 11 13  1  0
 11 12  1  0
 13 14  1  1
 13 15  1  0
 15 19  1  0
 16 15  2  0
 18 20  1  0
 18 17  1  6
 19 18  1  0
 20 21  1  0
 22 20  2  0
M  END
$$$$
