QVA.pdb
     RDKit          3D

 22 21  0  0  1  0  0  0  0  0999 V2000
   27.6704  -10.8261  -15.6206 N   0  0  0  0  0  0  0  0  0  0  0  0
   27.8851  -12.0018  -16.4414 C   0  0  0  0  0  0  0  0  0  0  0  0
   28.8271  -12.7421  -16.1473 O   0  0  0  0  0  0  0  0  0  0  0  0
   26.9608  -12.2082  -17.5472 C   0  0  0  0  0  0  0  0  0  0  0  0
   25.9038  -11.1933  -17.7560 C   0  0  0  0  0  0  0  0  0  0  0  0
   24.4873  -11.6479  -17.6013 C   0  0  2  0  0  0  0  0  0  0  0  0
   24.1531  -12.7586  -18.4404 N   0  0  0  0  0  0  0  0  0  0  0  0
   23.5440  -10.4905  -17.8049 C   0  0  0  0  0  0  0  0  0  0  0  0
   22.7238  -10.5307  -18.7698 O   0  0  0  0  0  0  0  0  0  0  0  0
   20.8942  -10.1156  -17.9345 C   0  0  0  0  0  0  0  0  0  0  0  0
   21.1710   -9.0617  -16.9104 C   0  0  2  0  0  0  0  0  0  0  0  0
   20.0000   -8.1050  -16.7417 C   0  0  0  0  0  0  0  0  0  0  0  0
   22.4638   -8.3315  -17.0704 C   0  0  2  0  0  0  0  0  0  0  0  0
   23.5232   -9.3527  -16.9711 N   0  0  0  0  0  0  0  0  0  0  0  0
   22.7101   -7.2317  -16.1378 C   0  0  0  0  0  0  0  0  0  0  0  0
   22.7239   -7.5292  -14.8927 O   0  0  0  0  0  0  0  0  0  0  0  0
   23.5552   -3.5508  -16.0336 C   0  0  0  0  0  0  0  0  0  0  0  0
   23.2936   -4.9166  -15.3929 C   0  0  2  0  0  0  0  0  0  0  0  0
   22.9348   -5.8881  -16.4385 N   0  0  0  0  0  0  0  0  0  0  0  0
   22.1494   -4.7391  -14.4783 C   0  0  0  0  0  0  0  0  0  0  0  0
   22.3293   -4.3743  -13.1638 O   0  0  0  0  0  0  0  0  0  0  0  0
   20.9935   -4.9239  -14.9070 O   0  0  0  0  0  0  0  0  0  0  0  0
  2  3  2  0
  2  1  1  0
  4  2  1  0
  5  4  1  0
  6  5  1  0
  6  7  1  6
  8  6  1  0
  8 14  1  0
  9  8  2  0
 11 10  1  6
 11 13  1  0
 11 12  1  0
 13 14  1  1
 13 15  1  0
 15 19  1  0
 16 15  2  0
 18 20  1  0
 18 17  1  6
 19 18  1  0
 20 21  1  0
 22 20  2  0
M  END
$$$$
