QVA.pdb
     RDKit          3D

 22 21  0  0  1  0  0  0  0  0999 V2000
   29.0149  -36.0577  -13.9714 N   0  0  0  0  0  0  0  0  0  0  0  0
   29.4918  -35.4028  -15.1738 C   0  0  0  0  0  0  0  0  0  0  0  0
   30.0002  -36.1090  -16.0482 O   0  0  0  0  0  0  0  0  0  0  0  0
   29.3244  -33.9582  -15.2450 C   0  0  0  0  0  0  0  0  0  0  0  0
   28.6458  -33.2899  -14.1120 C   0  0  0  0  0  0  0  0  0  0  0  0
   27.1691  -33.0845  -14.2319 C   0  0  2  0  0  0  0  0  0  0  0  0
   26.8093  -32.1216  -15.2283 N   0  0  0  0  0  0  0  0  0  0  0  0
   26.5800  -32.7436  -12.8874 C   0  0  0  0  0  0  0  0  0  0  0  0
   26.5241  -31.5285  -12.5330 O   0  0  0  0  0  0  0  0  0  0  0  0
   23.2254  -33.2402  -12.1118 C   0  0  0  0  0  0  0  0  0  0  0  0
   23.9577  -33.8199  -10.9438 C   0  0  2  0  0  0  0  0  0  0  0  0
   23.1542  -33.7178   -9.6558 C   0  0  0  0  0  0  0  0  0  0  0  0
   25.3603  -33.3413  -10.7607 C   0  0  2  0  0  0  0  0  0  0  0  0
   26.0815  -33.7133  -11.9922 N   0  0  0  0  0  0  0  0  0  0  0  0
   26.0654  -33.8294   -9.5755 C   0  0  0  0  0  0  0  0  0  0  0  0
   26.4741  -35.0420   -9.6116 O   0  0  0  0  0  0  0  0  0  0  0  0
   27.5271  -32.6713   -6.3000 C   0  0  0  0  0  0  0  0  0  0  0  0
   27.1243  -33.7481   -7.3113 C   0  0  2  0  0  0  0  0  0  0  0  0
   26.3511  -33.1322   -8.4015 N   0  0  0  0  0  0  0  0  0  0  0  0
   26.2677  -34.7059   -6.5859 C   0  0  0  0  0  0  0  0  0  0  0  0
   26.8014  -35.7774   -5.9074 O   0  0  0  0  0  0  0  0  0  0  0  0
   25.0322  -34.5399   -6.5884 O   0  0  0  0  0  0  0  0  0  0  0  0
  2  3  2  0
  2  1  1  0
  4  2  1  0
  5  4  1  0
  6  5  1  0
  6  7  1  6
  8  6  1  0
  8 14  1  0
  9  8  2  0
 11 10  1  6
 11 13  1  0
 11 12  1  0
 13 14  1  6
 13 15  1  0
 15 19  1  0
 16 15  2  0
 18 20  1  0
 18 17  1  1
 19 18  1  0
 20 21  1  0
 22 20  2  0
M  END
$$$$
