QVA.pdb
     RDKit          3D

 22 21  0  0  1  0  0  0  0  0999 V2000
   16.3998   -9.3230  -19.5573 N   0  0  0  0  0  0  0  0  0  0  0  0
   16.4991  -10.6799  -20.0582 C   0  0  0  0  0  0  0  0  0  0  0  0
   15.7989  -10.9863  -21.0266 O   0  0  0  0  0  0  0  0  0  0  0  0
   17.4260  -11.5674  -19.3706 C   0  0  0  0  0  0  0  0  0  0  0  0
   18.1625  -11.0224  -18.2081 C   0  0  0  0  0  0  0  0  0  0  0  0
   19.1285  -11.9391  -17.5271 C   0  0  2  0  0  0  0  0  0  0  0  0
   18.5336  -13.1642  -17.0860 N   0  0  0  0  0  0  0  0  0  0  0  0
   19.8240  -11.2188  -16.4009 C   0  0  0  0  0  0  0  0  0  0  0  0
   19.2496  -11.1435  -15.2741 O   0  0  0  0  0  0  0  0  0  0  0  0
   23.0561  -12.1127  -14.9952 C   0  0  0  0  0  0  0  0  0  0  0  0
   23.1007  -10.6436  -15.2716 C   0  0  2  0  0  0  0  0  0  0  0  0
   24.0186   -9.9068  -14.3076 C   0  0  0  0  0  0  0  0  0  0  0  0
   21.7733   -9.9708  -15.3956 C   0  0  2  0  0  0  0  0  0  0  0  0
   21.0935  -10.6178  -16.5333 N   0  0  0  0  0  0  0  0  0  0  0  0
   21.7928   -8.5170  -15.5577 C   0  0  0  0  0  0  0  0  0  0  0  0
   22.2468   -8.0710  -16.6684 O   0  0  0  0  0  0  0  0  0  0  0  0
   20.1865   -5.4189  -14.9067 C   0  0  0  0  0  0  0  0  0  0  0  0
   21.5517   -6.1122  -14.9147 C   0  0  2  0  0  0  0  0  0  0  0  0
   21.3740   -7.5481  -14.6456 N   0  0  0  0  0  0  0  0  0  0  0  0
   22.3374   -5.5047  -13.8235 C   0  0  0  0  0  0  0  0  0  0  0  0
   22.9978   -4.3094  -13.9919 O   0  0  0  0  0  0  0  0  0  0  0  0
   22.4041   -6.0884  -12.7240 O   0  0  0  0  0  0  0  0  0  0  0  0
  2  3  2  0
  2  1  1  0
  4  2  1  0
  5  4  1  0
  6  5  1  0
  6  7  1  1
  8  6  1  0
  8 14  1  0
  9  8  2  0
 11 10  1  1
 11 13  1  0
 11 12  1  0
 13 14  1  6
 13 15  1  0
 15 19  1  0
 16 15  2  0
 18 20  1  0
 18 17  1  1
 19 18  1  0
 20 21  1  0
 22 20  2  0
M  END
$$$$
