QVA.pdb
     RDKit          3D

 22 21  0  0  1  0  0  0  0  0999 V2000
   28.1083  -18.2318  -16.1668 N   0  0  0  0  0  0  0  0  0  0  0  0
   28.4780  -18.7674  -17.4623 C   0  0  0  0  0  0  0  0  0  0  0  0
   29.3484  -18.1715  -18.1020 O   0  0  0  0  0  0  0  0  0  0  0  0
   27.7860  -19.9727  -17.8963 C   0  0  0  0  0  0  0  0  0  0  0  0
   26.8974  -20.6422  -16.9201 C   0  0  0  0  0  0  0  0  0  0  0  0
   27.5488  -21.2659  -15.7269 C   0  0  2  0  0  0  0  0  0  0  0  0
   28.4146  -22.3566  -16.0585 N   0  0  0  0  0  0  0  0  0  0  0  0
   26.5065  -21.6679  -14.7155 C   0  0  0  0  0  0  0  0  0  0  0  0
   26.0141  -22.8339  -14.7731 O   0  0  0  0  0  0  0  0  0  0  0  0
   26.7978  -21.1833  -10.9078 C   0  0  0  0  0  0  0  0  0  0  0  0
   25.4743  -20.6893  -11.3984 C   0  0  2  0  0  0  0  0  0  0  0  0
   24.3881  -20.8141  -10.3403 C   0  0  0  0  0  0  0  0  0  0  0  0
   25.0302  -21.2363  -12.7150 C   0  0  2  0  0  0  0  0  0  0  0  0
   26.0443  -20.8085  -13.6966 N   0  0  0  0  0  0  0  0  0  0  0  0
   23.6866  -20.8617  -13.1559 C   0  0  0  0  0  0  0  0  0  0  0  0
   23.4931  -19.6226  -13.4126 O   0  0  0  0  0  0  0  0  0  0  0  0
   20.3635  -22.3091  -14.1801 C   0  0  0  0  0  0  0  0  0  0  0  0
   21.2749  -21.1568  -13.7488 C   0  0  2  0  0  0  0  0  0  0  0  0
   22.5808  -21.6935  -13.3338 N   0  0  0  0  0  0  0  0  0  0  0  0
   20.6212  -20.5148  -12.5921 C   0  0  0  0  0  0  0  0  0  0  0  0
   20.8126  -20.9766  -11.3102 O   0  0  0  0  0  0  0  0  0  0  0  0
   19.8786  -19.5316  -12.7815 O   0  0  0  0  0  0  0  0  0  0  0  0
  2  3  2  0
  2  1  1  0
  4  2  1  0
  5  4  1  0
  6  5  1  0
  6  7  1  6
  8  6  1  0
  8 14  1  0
  9  8  2  0
 11 10  1  1
 11 13  1  0
 11 12  1  0
 13 14  1  6
 13 15  1  0
 15 19  1  0
 16 15  2  0
 18 20  1  0
 18 17  1  1
 19 18  1  0
 20 21  1  0
 22 20  2  0
M  END
$$$$
