MQA.pdb
     RDKit          3D

 23 22  0  0  1  0  0  0  0  0999 V2000
   27.5703  -12.7556  -14.9733 C   0  0  0  0  0  0  0  0  0  0  0  0
   27.3677  -13.5699  -16.5720 S   0  0  0  0  0  0  0  0  0  0  0  0
   25.6073  -13.9820  -16.8056 C   0  0  0  0  0  0  0  0  0  0  0  0
   24.8634  -12.7207  -17.1889 C   0  0  0  0  0  0  0  0  0  0  0  0
   24.4722  -11.9583  -15.9459 C   0  0  2  0  0  0  0  0  0  0  0  0
   23.6977  -12.7676  -15.0366 N   0  0  0  0  0  0  0  0  0  0  0  0
   23.6887  -10.7405  -16.2621 C   0  0  0  0  0  0  0  0  0  0  0  0
   24.1067   -9.9062  -17.1009 O   0  0  0  0  0  0  0  0  0  0  0  0
   17.7489  -10.1191  -14.6374 N   0  0  0  0  0  0  0  0  0  0  0  0
   17.9021   -8.9201  -15.3959 C   0  0  0  0  0  0  0  0  0  0  0  0
   16.8738   -8.2182  -15.5788 O   0  0  0  0  0  0  0  0  0  0  0  0
   19.2418   -8.5565  -15.9282 C   0  0  0  0  0  0  0  0  0  0  0  0
   20.1966   -9.6382  -15.5139 C   0  0  0  0  0  0  0  0  0  0  0  0
   21.6273   -9.3094  -15.9626 C   0  0  2  0  0  0  0  0  0  0  0  0
   22.4436  -10.4632  -15.6390 N   0  0  0  0  0  0  0  0  0  0  0  0
   22.1147   -8.0876  -15.2729 C   0  0  0  0  0  0  0  0  0  0  0  0
   22.6050   -8.1859  -14.1160 O   0  0  0  0  0  0  0  0  0  0  0  0
   22.5040   -4.4697  -16.2380 C   0  0  0  0  0  0  0  0  0  0  0  0
   22.5578   -5.6682  -15.3068 C   0  0  2  0  0  0  0  0  0  0  0  0
   22.0092   -6.8425  -15.9487 N   0  0  0  0  0  0  0  0  0  0  0  0
   21.8440   -5.3600  -14.0378 C   0  0  0  0  0  0  0  0  0  0  0  0
   22.3914   -4.7133  -13.1121 O   0  0  0  0  0  0  0  0  0  0  0  0
   20.5491   -5.7918  -13.8666 O   0  0  0  0  0  0  0  0  0  0  0  0
  1  2  1  0
  3  2  1  0
  4  3  1  0
  5  4  1  0
  5  7  1  0
  5  6  1  1
  7  8  2  0
  9 10  1  0
 10 11  2  0
 10 12  1  0
 12 13  1  0
 14 13  1  1
 15  7  1  0
 15 14  1  0
 16 14  1  0
 16 20  1  0
 17 16  2  0
 19 20  1  0
 19 18  1  6
 21 19  1  0
 21 23  1  0
 22 21  2  0
M  END
$$$$
