MQA.pdb
     RDKit          3D

 23 22  0  0  1  0  0  0  0  0999 V2000
   12.8600  -11.3748  -17.3870 C   0  0  0  0  0  0  0  0  0  0  0  0
   13.3229  -12.7048  -16.2570 S   0  0  0  0  0  0  0  0  0  0  0  0
   14.9929  -12.3717  -15.6062 C   0  0  0  0  0  0  0  0  0  0  0  0
   15.0545  -10.9292  -15.1517 C   0  0  0  0  0  0  0  0  0  0  0  0
   16.4339  -10.6166  -14.6234 C   0  0  2  0  0  0  0  0  0  0  0  0
   16.8370  -11.5358  -13.5869 N   0  0  0  0  0  0  0  0  0  0  0  0
   16.5245   -9.2403  -14.0808 C   0  0  0  0  0  0  0  0  0  0  0  0
   16.2364   -8.2478  -14.7925 O   0  0  0  0  0  0  0  0  0  0  0  0
   15.2789   -8.0538   -8.3333 N   0  0  0  0  0  0  0  0  0  0  0  0
   15.7184   -6.7414   -8.6809 C   0  0  0  0  0  0  0  0  0  0  0  0
   15.5124   -5.8239   -7.8446 O   0  0  0  0  0  0  0  0  0  0  0  0
   16.3876   -6.5158   -9.9891 C   0  0  0  0  0  0  0  0  0  0  0  0
   16.4265   -7.8346  -10.7053 C   0  0  0  0  0  0  0  0  0  0  0  0
   16.9227   -7.6620  -12.1475 C   0  0  2  0  0  0  0  0  0  0  0  0
   16.9362   -8.9822  -12.7469 N   0  0  0  0  0  0  0  0  0  0  0  0
   18.2747   -7.0469  -12.1561 C   0  0  0  0  0  0  0  0  0  0  0  0
   18.4217   -5.8733  -11.7206 O   0  0  0  0  0  0  0  0  0  0  0  0
   21.7799   -8.1313  -12.5710 C   0  0  0  0  0  0  0  0  0  0  0  0
   20.6416   -7.1563  -12.8169 C   0  0  2  0  0  0  0  0  0  0  0  0
   19.3615   -7.8109  -12.6592 N   0  0  0  0  0  0  0  0  0  0  0  0
   20.7763   -6.5459  -14.1675 C   0  0  0  0  0  0  0  0  0  0  0  0
   19.9910   -6.8327  -15.1034 O   0  0  0  0  0  0  0  0  0  0  0  0
   21.7857   -5.6421  -14.4050 O   0  0  0  0  0  0  0  0  0  0  0  0
  1  2  1  0
  3  2  1  0
  4  3  1  0
  5  4  1  0
  5  7  1  0
  5  6  1  1
  7  8  2  0
  9 10  1  0
 10 11  2  0
 10 12  1  0
 12 13  1  0
 14 13  1  1
 15  7  1  0
 15 14  1  0
 16 14  1  0
 16 20  1  0
 17 16  2  0
 19 20  1  0
 19 18  1  6
 21 19  1  0
 21 23  1  0
 22 21  2  0
M  END
$$$$
