MQA.pdb
     RDKit          3D

 23 22  0  0  1  0  0  0  0  0999 V2000
   19.9492  -18.9543  -14.9766 C   0  0  0  0  0  0  0  0  0  0  0  0
   20.7902  -17.3734  -15.2079 S   0  0  0  0  0  0  0  0  0  0  0  0
   19.6214  -16.1857  -15.9472 C   0  0  0  0  0  0  0  0  0  0  0  0
   20.2874  -14.8278  -16.0079 C   0  0  0  0  0  0  0  0  0  0  0  0
   20.7285  -14.5358  -17.4220 C   0  0  2  0  0  0  0  0  0  0  0  0
   21.6848  -15.5043  -17.9010 N   0  0  0  0  0  0  0  0  0  0  0  0
   21.3320  -13.1882  -17.5509 C   0  0  0  0  0  0  0  0  0  0  0  0
   22.3544  -13.0057  -18.2551 O   0  0  0  0  0  0  0  0  0  0  0  0
   22.6384  -10.4305  -20.7253 N   0  0  0  0  0  0  0  0  0  0  0  0
   22.2688   -9.1502  -20.2147 C   0  0  0  0  0  0  0  0  0  0  0  0
   22.7768   -8.1403  -20.7677 O   0  0  0  0  0  0  0  0  0  0  0  0
   21.3188   -9.0630  -19.0745 C   0  0  0  0  0  0  0  0  0  0  0  0
   20.9628  -10.4671  -18.6803 C   0  0  0  0  0  0  0  0  0  0  0  0
   21.1956  -10.6920  -17.1798 C   0  0  2  0  0  0  0  0  0  0  0  0
   20.7891  -12.0538  -16.8922 N   0  0  0  0  0  0  0  0  0  0  0  0
   20.4128   -9.7113  -16.3851 C   0  0  0  0  0  0  0  0  0  0  0  0
   19.1596   -9.6724  -16.5141 O   0  0  0  0  0  0  0  0  0  0  0  0
   20.7420   -8.0268  -13.2317 C   0  0  0  0  0  0  0  0  0  0  0  0
   20.3405   -7.9273  -14.6931 C   0  0  2  0  0  0  0  0  0  0  0  0
   21.1116   -8.8461  -15.5013 N   0  0  0  0  0  0  0  0  0  0  0  0
   20.4936   -6.5257  -15.1693 C   0  0  0  0  0  0  0  0  0  0  0  0
   21.3002   -6.2222  -16.0816 O   0  0  0  0  0  0  0  0  0  0  0  0
   19.7345   -5.5298  -14.5999 O   0  0  0  0  0  0  0  0  0  0  0  0
  1  2  1  0
  3  2  1  0
  4  3  1  0
  5  4  1  0
  5  7  1  0
  5  6  1  1
  7  8  2  0
  9 10  1  0
 10 11  2  0
 10 12  1  0
 12 13  1  0
 14 13  1  6
 15  7  1  0
 15 14  1  0
 16 14  1  0
 16 20  1  0
 17 16  2  0
 19 20  1  0
 19 18  1  1
 21 19  1  0
 21 23  1  0
 22 21  2  0
M  END
$$$$
