MQA.pdb
     RDKit          3D

 23 22  0  0  1  0  0  0  0  0999 V2000
   22.0895  -10.4085    6.6097 C   0  0  0  0  0  0  0  0  0  0  0  0
   21.1091  -11.3821    7.7720 S   0  0  0  0  0  0  0  0  0  0  0  0
   20.2472  -12.7020    6.8562 C   0  0  0  0  0  0  0  0  0  0  0  0
   19.0629  -12.0945    6.1353 C   0  0  0  0  0  0  0  0  0  0  0  0
   18.3551  -13.1556    5.3275 C   0  0  2  0  0  0  0  0  0  0  0  0
   17.1992  -12.6314    4.6414 N   0  0  0  0  0  0  0  0  0  0  0  0
   17.9163  -14.2955    6.1671 C   0  0  0  0  0  0  0  0  0  0  0  0
   16.8802  -14.2154    6.8703 O   0  0  0  0  0  0  0  0  0  0  0  0
   17.4492  -19.8219    4.4720 N   0  0  0  0  0  0  0  0  0  0  0  0
   16.3333  -18.9943    4.7977 C   0  0  0  0  0  0  0  0  0  0  0  0
   15.2204  -19.3043    4.2987 O   0  0  0  0  0  0  0  0  0  0  0  0
   16.5264  -17.8242    5.6942 C   0  0  0  0  0  0  0  0  0  0  0  0
   17.9673  -17.8161    6.1153 C   0  0  0  0  0  0  0  0  0  0  0  0
   18.2584  -16.6372    7.0542 C   0  0  2  0  0  0  0  0  0  0  0  0
   18.6380  -15.5171    6.2153 N   0  0  0  0  0  0  0  0  0  0  0  0
   19.3401  -16.9938    8.0076 C   0  0  0  0  0  0  0  0  0  0  0  0
   20.5361  -16.9998    7.6099 O   0  0  0  0  0  0  0  0  0  0  0  0
   19.7561  -17.1705   11.6549 C   0  0  0  0  0  0  0  0  0  0  0  0
   20.0370  -17.6987   10.2589 C   0  0  2  0  0  0  0  0  0  0  0  0
   18.9835  -17.3177    9.3439 N   0  0  0  0  0  0  0  0  0  0  0  0
   20.2131  -19.1760   10.2988 C   0  0  0  0  0  0  0  0  0  0  0  0
   19.3828  -19.9548    9.7705 O   0  0  0  0  0  0  0  0  0  0  0  0
   21.3124  -19.7106   10.9296 O   0  0  0  0  0  0  0  0  0  0  0  0
  1  2  1  0
  3  2  1  0
  4  3  1  0
  5  4  1  0
  5  7  1  0
  5  6  1  1
  7  8  2  0
  9 10  1  0
 10 11  2  0
 10 12  1  0
 12 13  1  0
 14 13  1  6
 15  7  1  0
 15 14  1  0
 16 14  1  0
 16 20  1  0
 17 16  2  0
 19 20  1  0
 19 18  1  1
 21 19  1  0
 21 23  1  0
 22 21  2  0
M  END
$$$$
