MQA.pdb
     RDKit          3D

 23 22  0  0  1  0  0  0  0  0999 V2000
   28.4494  -19.0413   -4.9327 C   0  0  0  0  0  0  0  0  0  0  0  0
   28.4863  -19.1834   -6.7322 S   0  0  0  0  0  0  0  0  0  0  0  0
   26.8105  -19.5855   -7.3270 C   0  0  0  0  0  0  0  0  0  0  0  0
   26.8545  -19.7270   -8.8334 C   0  0  0  0  0  0  0  0  0  0  0  0
   25.4914  -20.1181   -9.3516 C   0  0  2  0  0  0  0  0  0  0  0  0
   25.0747  -21.4080   -8.8573 N   0  0  0  0  0  0  0  0  0  0  0  0
   25.4474  -20.1549  -10.8326 C   0  0  0  0  0  0  0  0  0  0  0  0
   25.8555  -19.1827  -11.5129 O   0  0  0  0  0  0  0  0  0  0  0  0
   25.2993  -25.3083  -14.1456 N   0  0  0  0  0  0  0  0  0  0  0  0
   25.0143  -24.3903  -15.2004 C   0  0  0  0  0  0  0  0  0  0  0  0
   24.9134  -24.8612  -16.3630 O   0  0  0  0  0  0  0  0  0  0  0  0
   24.8516  -22.9456  -14.8897 C   0  0  0  0  0  0  0  0  0  0  0  0
   24.9966  -22.7883  -13.4038 C   0  0  0  0  0  0  0  0  0  0  0  0
   24.8279  -21.3204  -12.9879 C   0  0  2  0  0  0  0  0  0  0  0  0
   24.9477  -21.2776  -11.5436 N   0  0  0  0  0  0  0  0  0  0  0  0
   23.5098  -20.8059  -13.4398 C   0  0  0  0  0  0  0  0  0  0  0  0
   22.4721  -21.1169  -12.7957 O   0  0  0  0  0  0  0  0  0  0  0  0
   22.3831  -18.3455  -16.0500 C   0  0  0  0  0  0  0  0  0  0  0  0
   22.1967  -19.3969  -14.9700 C   0  0  2  0  0  0  0  0  0  0  0  0
   23.4672  -19.9752  -14.5914 N   0  0  0  0  0  0  0  0  0  0  0  0
   21.2423  -20.4404  -15.4339 C   0  0  0  0  0  0  0  0  0  0  0  0
   21.6347  -21.4928  -15.9937 O   0  0  0  0  0  0  0  0  0  0  0  0
   19.8920  -20.2544  -15.2481 O   0  0  0  0  0  0  0  0  0  0  0  0
  1  2  1  0
  3  2  1  0
  4  3  1  0
  5  4  1  0
  5  7  1  0
  5  6  1  1
  7  8  2  0
  9 10  1  0
 10 11  2  0
 10 12  1  0
 12 13  1  0
 14 13  1  1
 15  7  1  0
 15 14  1  0
 16 14  1  0
 16 20  1  0
 17 16  2  0
 19 20  1  0
 19 18  1  6
 21 19  1  0
 21 23  1  0
 22 21  2  0
M  END
$$$$
