MQA.pdb
     RDKit          3D

 23 22  0  0  1  0  0  0  0  0999 V2000
   24.5452  -15.1306  -14.9849 C   0  0  0  0  0  0  0  0  0  0  0  0
   24.3976  -13.3659  -15.3371 S   0  0  0  0  0  0  0  0  0  0  0  0
   22.7895  -13.0564  -16.1381 C   0  0  0  0  0  0  0  0  0  0  0  0
   22.5896  -11.5607  -16.2563 C   0  0  0  0  0  0  0  0  0  0  0  0
   21.2781  -11.2716  -16.9463 C   0  0  2  0  0  0  0  0  0  0  0  0
   21.2855  -11.7015  -18.3235 N   0  0  0  0  0  0  0  0  0  0  0  0
   20.9372   -9.8296  -16.9145 C   0  0  0  0  0  0  0  0  0  0  0  0
   21.3866   -9.0428  -17.7826 O   0  0  0  0  0  0  0  0  0  0  0  0
   14.9460   -8.0904  -16.8890 N   0  0  0  0  0  0  0  0  0  0  0  0
   16.0288   -8.3287  -15.9906 C   0  0  0  0  0  0  0  0  0  0  0  0
   15.7419   -8.5263  -14.7813 O   0  0  0  0  0  0  0  0  0  0  0  0
   17.4224   -8.3338  -16.5084 C   0  0  0  0  0  0  0  0  0  0  0  0
   18.3012   -7.7624  -15.4339 C   0  0  0  0  0  0  0  0  0  0  0  0
   19.7823   -7.8636  -15.8243 C   0  0  2  0  0  0  0  0  0  0  0  0
   20.0967   -9.2763  -15.9130 N   0  0  0  0  0  0  0  0  0  0  0  0
   20.6287   -7.1805  -14.8128 C   0  0  0  0  0  0  0  0  0  0  0  0
   20.9693   -7.8029  -13.7711 O   0  0  0  0  0  0  0  0  0  0  0  0
   23.3245   -5.1247  -14.6504 C   0  0  0  0  0  0  0  0  0  0  0  0
   21.9087   -5.2023  -14.1061 C   0  0  2  0  0  0  0  0  0  0  0  0
   21.0264   -5.8391  -15.0590 N   0  0  0  0  0  0  0  0  0  0  0  0
   21.4262   -3.8416  -13.7451 C   0  0  0  0  0  0  0  0  0  0  0  0
   20.5347   -3.2590  -14.4089 O   0  0  0  0  0  0  0  0  0  0  0  0
   21.9665   -3.1979  -12.6560 O   0  0  0  0  0  0  0  0  0  0  0  0
  1  2  1  0
  3  2  1  0
  4  3  1  0
  5  4  1  0
  5  7  1  0
  5  6  1  6
  7  8  2  0
  9 10  1  0
 10 11  2  0
 10 12  1  0
 12 13  1  0
 14 13  1  1
 15  7  1  0
 15 14  1  0
 16 14  1  0
 16 20  1  0
 17 16  2  0
 19 20  1  0
 19 18  1  6
 21 19  1  0
 21 23  1  0
 22 21  2  0
M  END
$$$$
