MQA.pdb
     RDKit          3D

 23 22  0  0  1  0  0  0  0  0999 V2000
   11.8772  -10.2081  -18.2416 C   0  0  0  0  0  0  0  0  0  0  0  0
   12.4864  -11.8240  -18.7687 S   0  0  0  0  0  0  0  0  0  0  0  0
   14.3085  -11.8148  -18.7125 C   0  0  0  0  0  0  0  0  0  0  0  0
   14.7459  -11.4756  -17.3036 C   0  0  0  0  0  0  0  0  0  0  0  0
   16.2528  -11.4125  -17.2358 C   0  0  2  0  0  0  0  0  0  0  0  0
   16.8335  -12.6927  -16.9112 N   0  0  0  0  0  0  0  0  0  0  0  0
   16.7251  -10.4246  -16.2369 C   0  0  0  0  0  0  0  0  0  0  0  0
   16.2584  -10.4137  -15.0722 O   0  0  0  0  0  0  0  0  0  0  0  0
   22.2034   -8.9227  -14.9093 N   0  0  0  0  0  0  0  0  0  0  0  0
   21.5899   -7.8344  -14.2196 C   0  0  0  0  0  0  0  0  0  0  0  0
   22.3292   -7.1239  -13.4900 O   0  0  0  0  0  0  0  0  0  0  0  0
   20.1332   -7.5893  -14.3871 C   0  0  0  0  0  0  0  0  0  0  0  0
   19.6050   -8.6463  -15.3131 C   0  0  0  0  0  0  0  0  0  0  0  0
   18.1221   -8.4078  -15.6298 C   0  0  2  0  0  0  0  0  0  0  0  0
   17.7156   -9.4556  -16.5460 N   0  0  0  0  0  0  0  0  0  0  0  0
   17.9337   -7.0606  -16.2261 C   0  0  0  0  0  0  0  0  0  0  0  0
   18.3670   -6.8336  -17.3877 O   0  0  0  0  0  0  0  0  0  0  0  0
   15.9550   -4.0132  -15.3442 C   0  0  0  0  0  0  0  0  0  0  0  0
   17.0708   -4.7638  -16.0501 C   0  0  2  0  0  0  0  0  0  0  0  0
   17.2663   -6.0690  -15.4584 N   0  0  0  0  0  0  0  0  0  0  0  0
   18.3237   -3.9611  -16.0196 C   0  0  0  0  0  0  0  0  0  0  0  0
   19.3640   -4.3811  -15.4572 O   0  0  0  0  0  0  0  0  0  0  0  0
   18.3509   -2.7245  -16.6216 O   0  0  0  0  0  0  0  0  0  0  0  0
  1  2  1  0
  3  2  1  0
  4  3  1  0
  5  4  1  0
  5  7  1  0
  5  6  1  1
  7  8  2  0
  9 10  1  0
 10 11  2  0
 10 12  1  0
 12 13  1  0
 14 13  1  6
 15  7  1  0
 15 14  1  0
 16 14  1  0
 16 20  1  0
 17 16  2  0
 19 20  1  0
 19 18  1  1
 21 19  1  0
 21 23  1  0
 22 21  2  0
M  END
$$$$
