MQA.pdb
     RDKit          3D

 23 22  0  0  1  0  0  0  0  0999 V2000
   18.2151  -26.0051    3.7739 C   0  0  0  0  0  0  0  0  0  0  0  0
   16.4220  -25.7937    3.7689 S   0  0  0  0  0  0  0  0  0  0  0  0
   15.9105  -25.1297    2.1500 C   0  0  0  0  0  0  0  0  0  0  0  0
   16.3191  -23.6741    2.0749 C   0  0  0  0  0  0  0  0  0  0  0  0
   15.0913  -22.7956    2.0890 C   0  0  2  0  0  0  0  0  0  0  0  0
   14.4466  -22.7466    0.7992 N   0  0  0  0  0  0  0  0  0  0  0  0
   15.4041  -21.4069    2.5020 C   0  0  0  0  0  0  0  0  0  0  0  0
   15.9115  -20.5936    1.6923 O   0  0  0  0  0  0  0  0  0  0  0  0
   11.6319  -17.6867    4.4408 N   0  0  0  0  0  0  0  0  0  0  0  0
   12.4803  -17.2531    3.3785 C   0  0  0  0  0  0  0  0  0  0  0  0
   12.0271  -16.3734    2.6010 O   0  0  0  0  0  0  0  0  0  0  0  0
   13.8365  -17.8454    3.2363 C   0  0  0  0  0  0  0  0  0  0  0  0
   13.9776  -18.9000    4.2953 C   0  0  0  0  0  0  0  0  0  0  0  0
   15.3606  -19.5627    4.2295 C   0  0  2  0  0  0  0  0  0  0  0  0
   15.1478  -20.9362    3.8166 N   0  0  0  0  0  0  0  0  0  0  0  0
   16.0292  -19.4901    5.5539 C   0  0  0  0  0  0  0  0  0  0  0  0
   15.6985  -20.3040    6.4576 O   0  0  0  0  0  0  0  0  0  0  0  0
   18.7923  -17.4192    7.0484 C   0  0  0  0  0  0  0  0  0  0  0  0
   17.6117  -18.3744    7.0710 C   0  0  2  0  0  0  0  0  0  0  0  0
   17.0253  -18.4974    5.7546 N   0  0  0  0  0  0  0  0  0  0  0  0
   16.6082  -17.9207    8.0719 C   0  0  0  0  0  0  0  0  0  0  0  0
   15.4918  -17.4625    7.7272 O   0  0  0  0  0  0  0  0  0  0  0  0
   16.9039  -18.0021    9.4129 O   0  0  0  0  0  0  0  0  0  0  0  0
  1  2  1  0
  3  2  1  0
  4  3  1  0
  5  4  1  0
  5  7  1  0
  5  6  1  6
  7  8  2  0
  9 10  1  0
 10 11  2  0
 10 12  1  0
 12 13  1  0
 14 13  1  1
 15  7  1  0
 15 14  1  0
 16 14  1  0
 16 20  1  0
 17 16  2  0
 19 20  1  0
 19 18  1  6
 21 19  1  0
 21 23  1  0
 22 21  2  0
M  END
$$$$
