MQA.pdb
     RDKit          3D

 23 22  0  0  1  0  0  0  0  0999 V2000
   27.5299  -18.3109   -5.2157 C   0  0  0  0  0  0  0  0  0  0  0  0
   27.7191  -20.0596   -4.8080 S   0  0  0  0  0  0  0  0  0  0  0  0
   27.8367  -21.0169   -6.3550 C   0  0  0  0  0  0  0  0  0  0  0  0
   27.0248  -20.3127   -7.4208 C   0  0  0  0  0  0  0  0  0  0  0  0
   27.0263  -21.1301   -8.6902 C   0  0  2  0  0  0  0  0  0  0  0  0
   28.3573  -21.3056   -9.2187 N   0  0  0  0  0  0  0  0  0  0  0  0
   26.1864  -20.5193   -9.7477 C   0  0  0  0  0  0  0  0  0  0  0  0
   26.3458  -19.3210  -10.0841 O   0  0  0  0  0  0  0  0  0  0  0  0
   25.1430  -20.5497  -15.2447 N   0  0  0  0  0  0  0  0  0  0  0  0
   26.3479  -20.6287  -14.4841 C   0  0  0  0  0  0  0  0  0  0  0  0
   27.4020  -20.2093  -15.0286 O   0  0  0  0  0  0  0  0  0  0  0  0
   26.3098  -21.1913  -13.1085 C   0  0  0  0  0  0  0  0  0  0  0  0
   24.8747  -21.4932  -12.7880 C   0  0  0  0  0  0  0  0  0  0  0  0
   24.4171  -20.7242  -11.5408 C   0  0  2  0  0  0  0  0  0  0  0  0
   25.1742  -21.2515  -10.4222 N   0  0  0  0  0  0  0  0  0  0  0  0
   22.9558  -20.8962  -11.3378 C   0  0  0  0  0  0  0  0  0  0  0  0
   22.5377  -21.8710  -10.6570 O   0  0  0  0  0  0  0  0  0  0  0  0
   19.8920  -18.9057  -12.2478 C   0  0  0  0  0  0  0  0  0  0  0  0
   20.6581  -20.0842  -11.6724 C   0  0  2  0  0  0  0  0  0  0  0  0
   22.0758  -19.9473  -11.9237 N   0  0  0  0  0  0  0  0  0  0  0  0
   20.1284  -21.3579  -12.2311 C   0  0  0  0  0  0  0  0  0  0  0  0
   20.6835  -21.9374  -13.1961 O   0  0  0  0  0  0  0  0  0  0  0  0
   19.0008  -21.9220  -11.6812 O   0  0  0  0  0  0  0  0  0  0  0  0
  1  2  1  0
  3  2  1  0
  4  3  1  0
  5  4  1  0
  5  7  1  0
  5  6  1  6
  7  8  2  0
  9 10  1  0
 10 11  2  0
 10 12  1  0
 12 13  1  0
 14 13  1  6
 15  7  1  0
 15 14  1  0
 16 14  1  0
 16 20  1  0
 17 16  2  0
 19 20  1  0
 19 18  1  6
 21 19  1  0
 21 23  1  0
 22 21  2  0
M  END
$$$$
