MQA.pdb
     RDKit          3D

 23 22  0  0  1  0  0  0  0  0999 V2000
   20.9989  -35.5309  -15.3476 C   0  0  0  0  0  0  0  0  0  0  0  0
   21.0242  -33.9069  -16.1362 S   0  0  0  0  0  0  0  0  0  0  0  0
   22.6464  -33.1308  -15.8372 C   0  0  0  0  0  0  0  0  0  0  0  0
   22.6997  -32.6637  -14.3984 C   0  0  0  0  0  0  0  0  0  0  0  0
   22.0763  -31.2937  -14.2807 C   0  0  2  0  0  0  0  0  0  0  0  0
   22.8783  -30.2782  -14.9190 N   0  0  0  0  0  0  0  0  0  0  0  0
   21.8662  -30.8961  -12.8684 C   0  0  0  0  0  0  0  0  0  0  0  0
   22.8379  -30.5993  -12.1320 O   0  0  0  0  0  0  0  0  0  0  0  0
   20.0480  -26.5607  -10.7919 N   0  0  0  0  0  0  0  0  0  0  0  0
   19.5373  -27.1803   -9.6121 C   0  0  0  0  0  0  0  0  0  0  0  0
   19.4635  -26.4718   -8.5747 O   0  0  0  0  0  0  0  0  0  0  0  0
   19.1221  -28.6071   -9.6554 C   0  0  0  0  0  0  0  0  0  0  0  0
   19.4582  -29.1298  -11.0220 C   0  0  0  0  0  0  0  0  0  0  0  0
   20.3260  -30.3925  -10.9289 C   0  0  2  0  0  0  0  0  0  0  0  0
   20.5720  -30.8329  -12.2883 N   0  0  0  0  0  0  0  0  0  0  0  0
   19.6297  -31.4378  -10.1361 C   0  0  0  0  0  0  0  0  0  0  0  0
   18.5602  -31.9375  -10.5778 O   0  0  0  0  0  0  0  0  0  0  0  0
   20.2966  -33.2248   -6.8910 C   0  0  0  0  0  0  0  0  0  0  0  0
   19.4630  -32.7754   -8.0784 C   0  0  2  0  0  0  0  0  0  0  0  0
   20.1999  -31.8393   -8.8985 N   0  0  0  0  0  0  0  0  0  0  0  0
   18.1787  -32.1898   -7.6070 C   0  0  0  0  0  0  0  0  0  0  0  0
   18.0129  -30.9492   -7.5139 O   0  0  0  0  0  0  0  0  0  0  0  0
   17.1401  -33.0232   -7.2619 O   0  0  0  0  0  0  0  0  0  0  0  0
  1  2  1  0
  3  2  1  0
  4  3  1  0
  5  4  1  0
  5  7  1  0
  5  6  1  1
  7  8  2  0
  9 10  1  0
 10 11  2  0
 10 12  1  0
 12 13  1  0
 14 13  1  6
 15  7  1  0
 15 14  1  0
 16 14  1  0
 16 20  1  0
 17 16  2  0
 19 20  1  0
 19 18  1  1
 21 19  1  0
 21 23  1  0
 22 21  2  0
M  END
$$$$
