MQA.pdb
     RDKit          3D

 23 22  0  0  1  0  0  0  0  0999 V2000
   23.4651  -20.3895   -9.4255 C   0  0  0  0  0  0  0  0  0  0  0  0
   24.9852  -21.3615   -9.4916 S   0  0  0  0  0  0  0  0  0  0  0  0
   26.1105  -20.6146  -10.7161 C   0  0  0  0  0  0  0  0  0  0  0  0
   25.3648  -20.4586  -12.0241 C   0  0  0  0  0  0  0  0  0  0  0  0
   25.1025  -21.8164  -12.6299 C   0  0  2  0  0  0  0  0  0  0  0  0
   26.3171  -22.4504  -13.0822 N   0  0  0  0  0  0  0  0  0  0  0  0
   24.1650  -21.7442  -13.7756 C   0  0  0  0  0  0  0  0  0  0  0  0
   24.5923  -21.6687  -14.9530 O   0  0  0  0  0  0  0  0  0  0  0  0
   18.7149  -24.3611  -13.3589 N   0  0  0  0  0  0  0  0  0  0  0  0
   18.5063  -23.7426  -14.6280 C   0  0  0  0  0  0  0  0  0  0  0  0
   17.4181  -23.9805  -15.2134 O   0  0  0  0  0  0  0  0  0  0  0  0
   19.5606  -22.8611  -15.1951 C   0  0  0  0  0  0  0  0  0  0  0  0
   20.6331  -22.7195  -14.1543 C   0  0  0  0  0  0  0  0  0  0  0  0
   21.8144  -21.8994  -14.6911 C   0  0  2  0  0  0  0  0  0  0  0  0
   22.7565  -21.7567  -13.5981 N   0  0  0  0  0  0  0  0  0  0  0  0
   21.3436  -20.5780  -15.1793 C   0  0  0  0  0  0  0  0  0  0  0  0
   20.9916  -19.7013  -14.3450 O   0  0  0  0  0  0  0  0  0  0  0  0
   21.2981  -18.8244  -18.4871 C   0  0  0  0  0  0  0  0  0  0  0  0
   20.8628  -19.0554  -17.0505 C   0  0  2  0  0  0  0  0  0  0  0  0
   21.3070  -20.3492  -16.5809 N   0  0  0  0  0  0  0  0  0  0  0  0
   19.3856  -18.9147  -16.9368 C   0  0  0  0  0  0  0  0  0  0  0  0
   18.8113  -17.8130  -17.1140 O   0  0  0  0  0  0  0  0  0  0  0  0
   18.6216  -20.0166  -16.6295 O   0  0  0  0  0  0  0  0  0  0  0  0
  1  2  1  0
  3  2  1  0
  4  3  1  0
  5  4  1  0
  5  7  1  0
  5  6  1  6
  7  8  2  0
  9 10  1  0
 10 11  2  0
 10 12  1  0
 12 13  1  0
 14 13  1  1
 15  7  1  0
 15 14  1  0
 16 14  1  0
 16 20  1  0
 17 16  2  0
 19 20  1  0
 19 18  1  6
 21 19  1  0
 21 23  1  0
 22 21  2  0
M  END
$$$$
