MQA.pdb
     RDKit          3D

 23 22  0  0  1  0  0  0  0  0999 V2000
   20.0775  -16.0809  -14.6880 C   0  0  0  0  0  0  0  0  0  0  0  0
   20.6198  -14.3659  -14.8438 S   0  0  0  0  0  0  0  0  0  0  0  0
   22.2236  -14.1749  -13.9983 C   0  0  0  0  0  0  0  0  0  0  0  0
   22.6449  -12.7237  -14.0854 C   0  0  0  0  0  0  0  0  0  0  0  0
   23.0633  -12.3952  -15.4984 C   0  0  2  0  0  0  0  0  0  0  0  0
   24.3581  -12.9443  -15.8204 N   0  0  0  0  0  0  0  0  0  0  0  0
   23.1082  -10.9337  -15.7411 C   0  0  0  0  0  0  0  0  0  0  0  0
   24.1245  -10.2622  -15.4397 O   0  0  0  0  0  0  0  0  0  0  0  0
   19.9716   -8.1083  -20.1184 N   0  0  0  0  0  0  0  0  0  0  0  0
   20.4956   -6.9477  -19.4742 C   0  0  0  0  0  0  0  0  0  0  0  0
   20.3249   -5.8420  -20.0502 O   0  0  0  0  0  0  0  0  0  0  0  0
   21.2069   -7.0889  -18.1764 C   0  0  0  0  0  0  0  0  0  0  0  0
   21.2425   -8.5520  -17.8424 C   0  0  0  0  0  0  0  0  0  0  0  0
   22.0154   -8.7992  -16.5394 C   0  0  2  0  0  0  0  0  0  0  0  0
   22.0175  -10.2323  -16.3189 N   0  0  0  0  0  0  0  0  0  0  0  0
   21.3702   -8.0765  -15.4136 C   0  0  0  0  0  0  0  0  0  0  0  0
   20.3694   -8.5889  -14.8439 O   0  0  0  0  0  0  0  0  0  0  0  0
   22.0807   -4.9338  -13.4814 C   0  0  0  0  0  0  0  0  0  0  0  0
   21.2194   -6.0776  -13.9880 C   0  0  2  0  0  0  0  0  0  0  0  0
   21.9096   -6.8236  -15.0171 N   0  0  0  0  0  0  0  0  0  0  0  0
   19.9153   -5.5548  -14.4790 C   0  0  0  0  0  0  0  0  0  0  0  0
   19.7392   -5.2431  -15.6819 O   0  0  0  0  0  0  0  0  0  0  0  0
   18.8697   -5.4061  -13.5976 O   0  0  0  0  0  0  0  0  0  0  0  0
  1  2  1  0
  3  2  1  0
  4  3  1  0
  5  4  1  0
  5  7  1  0
  5  6  1  1
  7  8  2  0
  9 10  1  0
 10 11  2  0
 10 12  1  0
 12 13  1  0
 14 13  1  6
 15  7  1  0
 15 14  1  0
 16 14  1  0
 16 20  1  0
 17 16  2  0
 19 20  1  0
 19 18  1  6
 21 19  1  0
 21 23  1  0
 22 21  2  0
M  END
$$$$
