MQA.pdb
     RDKit          3D

 23 22  0  0  1  0  0  0  0  0999 V2000
   27.8015  -12.4909  -14.5515 C   0  0  0  0  0  0  0  0  0  0  0  0
   27.8612  -13.1787  -16.2198 S   0  0  0  0  0  0  0  0  0  0  0  0
   26.1605  -13.5303  -16.7745 C   0  0  0  0  0  0  0  0  0  0  0  0
   25.2368  -12.4826  -16.1911 C   0  0  0  0  0  0  0  0  0  0  0  0
   23.8049  -12.8101  -16.5402 C   0  0  2  0  0  0  0  0  0  0  0  0
   23.7117  -13.6459  -17.7126 N   0  0  0  0  0  0  0  0  0  0  0  0
   22.9957  -11.5910  -16.7767 C   0  0  0  0  0  0  0  0  0  0  0  0
   22.8947  -11.0988  -17.9265 O   0  0  0  0  0  0  0  0  0  0  0  0
   17.6384  -10.3873  -14.4937 N   0  0  0  0  0  0  0  0  0  0  0  0
   18.0002  -11.1311  -15.6565 C   0  0  0  0  0  0  0  0  0  0  0  0
   17.1444  -11.9288  -16.1201 O   0  0  0  0  0  0  0  0  0  0  0  0
   19.3449  -10.9377  -16.2604 C   0  0  0  0  0  0  0  0  0  0  0  0
   20.1171  -10.0267  -15.3508 C   0  0  0  0  0  0  0  0  0  0  0  0
   21.5110   -9.7327  -15.9224 C   0  0  2  0  0  0  0  0  0  0  0  0
   22.3051  -10.9301  -15.7271 N   0  0  0  0  0  0  0  0  0  0  0  0
   22.1130   -8.5625  -15.2337 C   0  0  0  0  0  0  0  0  0  0  0  0
   22.5606   -8.6981  -14.0633 O   0  0  0  0  0  0  0  0  0  0  0  0
   22.9845   -5.0481  -16.2550 C   0  0  0  0  0  0  0  0  0  0  0  0
   22.8386   -6.2128  -15.2912 C   0  0  2  0  0  0  0  0  0  0  0  0
   22.1625   -7.3229  -15.9257 N   0  0  0  0  0  0  0  0  0  0  0  0
   22.1228   -5.7716  -14.0633 C   0  0  0  0  0  0  0  0  0  0  0  0
   20.9065   -6.0218  -13.8817 O   0  0  0  0  0  0  0  0  0  0  0  0
   22.8050   -5.0703  -13.0964 O   0  0  0  0  0  0  0  0  0  0  0  0
  1  2  1  0
  3  2  1  0
  4  3  1  0
  5  4  1  0
  5  7  1  0
  5  6  1  6
  7  8  2  0
  9 10  1  0
 10 11  2  0
 10 12  1  0
 12 13  1  0
 14 13  1  1
 15  7  1  0
 15 14  1  0
 16 14  1  0
 16 20  1  0
 17 16  2  0
 19 20  1  0
 19 18  1  6
 21 19  1  0
 21 23  1  0
 22 21  2  0
M  END
$$$$
