MQA.pdb
     RDKit          3D

 23 22  0  0  1  0  0  0  0  0999 V2000
   28.9693  -13.8062  -15.5036 C   0  0  0  0  0  0  0  0  0  0  0  0
   27.5869  -12.6663  -15.7260 S   0  0  0  0  0  0  0  0  0  0  0  0
   27.3379  -12.3813  -17.5094 C   0  0  0  0  0  0  0  0  0  0  0  0
   26.2517  -11.3418  -17.6846 C   0  0  0  0  0  0  0  0  0  0  0  0
   24.9397  -11.8786  -17.1651 C   0  0  2  0  0  0  0  0  0  0  0  0
   24.5553  -13.1011  -17.8281 N   0  0  0  0  0  0  0  0  0  0  0  0
   23.8362  -10.9016  -17.3219 C   0  0  0  0  0  0  0  0  0  0  0  0
   22.9504  -11.0660  -18.1954 O   0  0  0  0  0  0  0  0  0  0  0  0
   19.2072  -10.9757  -15.4160 N   0  0  0  0  0  0  0  0  0  0  0  0
   18.9896   -9.6048  -15.7470 C   0  0  0  0  0  0  0  0  0  0  0  0
   17.8031   -9.1863  -15.7199 O   0  0  0  0  0  0  0  0  0  0  0  0
   20.1488   -8.7446  -16.1028 C   0  0  0  0  0  0  0  0  0  0  0  0
   21.3716   -9.6153  -16.0939 C   0  0  0  0  0  0  0  0  0  0  0  0
   22.6080   -8.8305  -16.5542 C   0  0  2  0  0  0  0  0  0  0  0  0
   23.7298   -9.7476  -16.5019 N   0  0  0  0  0  0  0  0  0  0  0  0
   22.8264   -7.6532  -15.6753 C   0  0  0  0  0  0  0  0  0  0  0  0
   23.1269   -7.8339  -14.4647 O   0  0  0  0  0  0  0  0  0  0  0  0
   22.9205   -3.9260  -16.2026 C   0  0  0  0  0  0  0  0  0  0  0  0
   22.9849   -5.2139  -15.4002 C   0  0  2  0  0  0  0  0  0  0  0  0
   22.6874   -6.3557  -16.2367 N   0  0  0  0  0  0  0  0  0  0  0  0
   22.0588   -5.1369  -14.2378 C   0  0  0  0  0  0  0  0  0  0  0  0
   20.9179   -5.6591  -14.2662 O   0  0  0  0  0  0  0  0  0  0  0  0
   22.4558   -4.4776  -13.0976 O   0  0  0  0  0  0  0  0  0  0  0  0
  1  2  1  0
  3  2  1  0
  4  3  1  0
  5  4  1  0
  5  7  1  0
  5  6  1  6
  7  8  2  0
  9 10  1  0
 10 11  2  0
 10 12  1  0
 12 13  1  0
 14 13  1  1
 15  7  1  0
 15 14  1  0
 16 14  1  0
 16 20  1  0
 17 16  2  0
 19 20  1  0
 19 18  1  6
 21 19  1  0
 21 23  1  0
 22 21  2  0
M  END
$$$$
