MQA.pdb
     RDKit          3D

 23 22  0  0  1  0  0  0  0  0999 V2000
   35.9949  -23.1066  -19.4448 C   0  0  0  0  0  0  0  0  0  0  0  0
   36.4838  -24.6221  -18.5937 S   0  0  0  0  0  0  0  0  0  0  0  0
   35.4370  -24.8331  -17.1162 C   0  0  0  0  0  0  0  0  0  0  0  0
   34.0344  -25.1832  -17.5648 C   0  0  0  0  0  0  0  0  0  0  0  0
   33.0871  -25.1080  -16.3916 C   0  0  2  0  0  0  0  0  0  0  0  0
   33.4995  -25.9663  -15.3078 N   0  0  0  0  0  0  0  0  0  0  0  0
   31.7015  -25.4746  -16.7694 C   0  0  0  0  0  0  0  0  0  0  0  0
   31.4015  -26.6622  -17.0414 O   0  0  0  0  0  0  0  0  0  0  0  0
   28.5381  -28.2678  -16.4786 N   0  0  0  0  0  0  0  0  0  0  0  0
   27.3084  -27.5440  -16.4947 C   0  0  0  0  0  0  0  0  0  0  0  0
   26.2580  -28.1969  -16.7271 O   0  0  0  0  0  0  0  0  0  0  0  0
   27.3177  -26.0790  -16.2417 C   0  0  0  0  0  0  0  0  0  0  0  0
   28.7429  -25.6762  -15.9968 C   0  0  0  0  0  0  0  0  0  0  0  0
   29.2867  -24.8427  -17.1654 C   0  0  2  0  0  0  0  0  0  0  0  0
   30.6606  -24.5118  -16.8406 N   0  0  0  0  0  0  0  0  0  0  0  0
   28.4628  -23.6211  -17.3531 C   0  0  0  0  0  0  0  0  0  0  0  0
   28.4519  -22.7397  -16.4523 O   0  0  0  0  0  0  0  0  0  0  0  0
   26.3915  -22.2195  -20.1645 C   0  0  0  0  0  0  0  0  0  0  0  0
   26.9601  -22.2716  -18.7571 C   0  0  2  0  0  0  0  0  0  0  0  0
   27.7112  -23.4904  -18.5514 N   0  0  0  0  0  0  0  0  0  0  0  0
   25.8643  -22.1346  -17.7594 C   0  0  0  0  0  0  0  0  0  0  0  0
   25.4737  -23.1072  -17.0693 O   0  0  0  0  0  0  0  0  0  0  0  0
   25.2579  -20.9126  -17.5825 O   0  0  0  0  0  0  0  0  0  0  0  0
  1  2  1  0
  3  2  1  0
  4  3  1  0
  5  4  1  0
  5  7  1  0
  5  6  1  1
  7  8  2  0
  9 10  1  0
 10 11  2  0
 10 12  1  0
 12 13  1  0
 14 13  1  1
 15  7  1  0
 15 14  1  0
 16 14  1  0
 16 20  1  0
 17 16  2  0
 19 20  1  0
 19 18  1  6
 21 19  1  0
 21 23  1  0
 22 21  2  0
M  END
$$$$
