MQA.pdb
     RDKit          3D

 23 22  0  0  1  0  0  0  0  0999 V2000
   24.9125  -14.4900  -16.3304 C   0  0  0  0  0  0  0  0  0  0  0  0
   26.6620  -14.1745  -16.0145 S   0  0  0  0  0  0  0  0  0  0  0  0
   27.5656  -15.7570  -16.0648 C   0  0  0  0  0  0  0  0  0  0  0  0
   26.5976  -16.8754  -15.7432 C   0  0  0  0  0  0  0  0  0  0  0  0
   27.3429  -18.1843  -15.6391 C   0  0  2  0  0  0  0  0  0  0  0  0
   27.8232  -18.6366  -16.9223 N   0  0  0  0  0  0  0  0  0  0  0  0
   26.5047  -19.2582  -15.0551 C   0  0  0  0  0  0  0  0  0  0  0  0
   25.9981  -20.1465  -15.7823 O   0  0  0  0  0  0  0  0  0  0  0  0
   26.0166  -20.2182   -8.9414 N   0  0  0  0  0  0  0  0  0  0  0  0
   24.9500  -21.0614   -9.3746 C   0  0  0  0  0  0  0  0  0  0  0  0
   24.3014  -21.6730   -8.4864 O   0  0  0  0  0  0  0  0  0  0  0  0
   24.6544  -21.1806  -10.8267 C   0  0  0  0  0  0  0  0  0  0  0  0
   25.6202  -20.2912  -11.5546 C   0  0  0  0  0  0  0  0  0  0  0  0
   25.3645  -20.3249  -13.0677 C   0  0  2  0  0  0  0  0  0  0  0  0
   26.2383  -19.3324  -13.6626 N   0  0  0  0  0  0  0  0  0  0  0  0
   23.9364  -20.0342  -13.3546 C   0  0  0  0  0  0  0  0  0  0  0  0
   23.4982  -18.8648  -13.1839 O   0  0  0  0  0  0  0  0  0  0  0  0
   21.1741  -21.7876  -15.1301 C   0  0  0  0  0  0  0  0  0  0  0  0
   21.7267  -20.7999  -14.1172 C   0  0  2  0  0  0  0  0  0  0  0  0
   23.1102  -21.0941  -13.8148 N   0  0  0  0  0  0  0  0  0  0  0  0
   20.8887  -20.8088  -12.8873 C   0  0  0  0  0  0  0  0  0  0  0  0
   19.7767  -20.2289  -12.8414 O   0  0  0  0  0  0  0  0  0  0  0  0
   21.3374  -21.4678  -11.7663 O   0  0  0  0  0  0  0  0  0  0  0  0
  1  2  1  0
  3  2  1  0
  4  3  1  0
  5  4  1  0
  5  7  1  0
  5  6  1  6
  7  8  2  0
  9 10  1  0
 10 11  2  0
 10 12  1  0
 12 13  1  0
 14 13  1  1
 15  7  1  0
 15 14  1  0
 16 14  1  0
 16 20  1  0
 17 16  2  0
 19 20  1  0
 19 18  1  6
 21 19  1  0
 21 23  1  0
 22 21  2  0
M  END
$$$$
