YSL.pdb
     RDKit          3D

 27 27  0  0  1  0  0  0  0  0999 V2000
    7.9180  -13.0126   15.2595 O   0  0  0  0  0  0  0  0  0  0  0  0
    7.7693  -13.5901   16.5193 C   0  0  0  0  0  0  0  0  0  0  0  0
    7.7799  -14.9506   16.7300 C   0  0  0  0  0  0  0  0  0  0  0  0
    7.6302  -15.5030   17.9915 C   0  0  0  0  0  0  0  0  0  0  0  0
    7.4634  -14.6828   19.0899 C   0  0  0  0  0  0  0  0  0  0  0  0
    7.2987  -15.2126   20.4613 C   0  0  0  0  0  0  0  0  0  0  0  0
    7.5645  -16.7214   20.5082 C   0  0  2  0  0  0  0  0  0  0  0  0
    6.3384  -17.3513   20.0493 N   0  0  0  0  0  0  0  0  0  0  0  0
    7.7988  -17.0584   21.9270 C   0  0  0  0  0  0  0  0  0  0  0  0
    6.8416  -17.3463   22.6811 O   0  0  0  0  0  0  0  0  0  0  0  0
    7.4522  -13.3190   18.8839 C   0  0  0  0  0  0  0  0  0  0  0  0
    7.6028  -12.7730   17.6162 C   0  0  0  0  0  0  0  0  0  0  0  0
   11.7402  -17.7037   23.5755 O   0  0  0  0  0  0  0  0  0  0  0  0
   10.5527  -18.3213   23.9327 C   0  0  0  0  0  0  0  0  0  0  0  0
    9.4104  -17.3445   23.8181 C   0  0  2  0  0  0  0  0  0  0  0  0
    9.1187  -17.0584   22.4494 N   0  0  0  0  0  0  0  0  0  0  0  0
    9.6092  -16.1289   24.6179 C   0  0  0  0  0  0  0  0  0  0  0  0
    9.8190  -15.0452   23.9757 O   0  0  0  0  0  0  0  0  0  0  0  0
    9.1194  -11.7970   26.6169 C   0  0  0  0  0  0  0  0  0  0  0  0
    8.1088  -12.8247   27.1406 C   0  0  1  0  0  0  0  0  0  0  0  0
    6.7006  -12.2474   26.9986 C   0  0  0  0  0  0  0  0  0  0  0  0
    8.2587  -14.0924   26.3616 C   0  0  0  0  0  0  0  0  0  0  0  0
    9.5388  -14.7803   26.6819 C   0  0  2  0  0  0  0  0  0  0  0  0
    9.5801  -16.1017   26.0299 N   0  0  0  0  0  0  0  0  0  0  0  0
    9.6863  -14.9777   28.1466 C   0  0  0  0  0  0  0  0  0  0  0  0
   10.2897  -14.1077   29.0246 O   0  0  0  0  0  0  0  0  0  0  0  0
    9.2275  -16.0466   28.7003 O   0  0  0  0  0  0  0  0  0  0  0  0
  2  1  1  0
  3  2  2  0
  4  3  1  0
  5  4  2  0
  5 11  1  0
  6  5  1  0
  7  9  1  0
  7  6  1  0
  7  8  1  1
  9 10  2  0
 11 12  2  0
 12  2  1  0
 15 14  1  6
 14 13  1  0
 16 15  1  0
 16  9  1  0
 17 15  1  0
 18 17  2  0
 20 19  1  6
 21 20  1  0
 22 20  1  0
 23 22  1  1
 23 24  1  0
 24 17  1  0
 25 23  1  0
 26 25  1  0
 27 25  2  0
M  END
$$$$
