YSL.pdb
     RDKit          3D

 27 27  0  0  1  0  0  0  0  0999 V2000
    8.3152  -12.3374   16.0961 O   0  0  0  0  0  0  0  0  0  0  0  0
    8.1533  -12.9235   17.3503 C   0  0  0  0  0  0  0  0  0  0  0  0
    9.1731  -13.0297   18.2691 C   0  0  0  0  0  0  0  0  0  0  0  0
    8.9896  -13.6165   19.5105 C   0  0  0  0  0  0  0  0  0  0  0  0
    7.7520  -14.1189   19.8614 C   0  0  0  0  0  0  0  0  0  0  0  0
    7.4939  -14.7564   21.1712 C   0  0  0  0  0  0  0  0  0  0  0  0
    7.9450  -16.2213   21.1731 C   0  0  2  0  0  0  0  0  0  0  0  0
    6.8983  -16.9562   20.4840 N   0  0  0  0  0  0  0  0  0  0  0  0
    7.9990  -16.6378   22.5891 C   0  0  0  0  0  0  0  0  0  0  0  0
    6.9535  -16.9529   23.2019 O   0  0  0  0  0  0  0  0  0  0  0  0
    6.7272  -14.0148   18.9442 C   0  0  0  0  0  0  0  0  0  0  0  0
    6.9191  -13.4252   17.7018 C   0  0  0  0  0  0  0  0  0  0  0  0
   10.4195  -18.5101   26.1743 O   0  0  0  0  0  0  0  0  0  0  0  0
   10.3271  -18.1800   24.8321 C   0  0  0  0  0  0  0  0  0  0  0  0
    9.3601  -17.0384   24.6488 C   0  0  2  0  0  0  0  0  0  0  0  0
    9.2437  -16.6843   23.2699 N   0  0  0  0  0  0  0  0  0  0  0  0
    9.6635  -15.8832   25.5035 C   0  0  0  0  0  0  0  0  0  0  0  0
   10.7155  -15.2174   25.2192 O   0  0  0  0  0  0  0  0  0  0  0  0
    6.3656  -12.0982   26.9359 C   0  0  0  0  0  0  0  0  0  0  0  0
    7.5903  -12.9271   26.5298 C   0  0  1  0  0  0  0  0  0  0  0  0
    8.5343  -12.0441   25.7141 C   0  0  0  0  0  0  0  0  0  0  0  0
    8.2580  -13.4424   27.7647 C   0  0  0  0  0  0  0  0  0  0  0  0
    9.3680  -14.3769   27.4341 C   0  0  2  0  0  0  0  0  0  0  0  0
    8.8664  -15.4830   26.5987 N   0  0  0  0  0  0  0  0  0  0  0  0
    9.9632  -14.9551   28.6660 C   0  0  0  0  0  0  0  0  0  0  0  0
    9.9678  -16.2851   29.0164 O   0  0  0  0  0  0  0  0  0  0  0  0
   10.5393  -14.1853   29.5235 O   0  0  0  0  0  0  0  0  0  0  0  0
  2  1  1  0
  3  2  2  0
  4  3  1  0
  5  4  2  0
  5 11  1  0
  6  5  1  0
  7  9  1  0
  7  6  1  0
  7  8  1  6
  9 10  2  0
 11 12  2  0
 12  2  1  0
 15 14  1  6
 14 13  1  0
 16 15  1  0
 16  9  1  0
 17 15  1  0
 18 17  2  0
 20 19  1  1
 21 20  1  0
 22 20  1  0
 23 22  1  1
 23 24  1  0
 24 17  1  0
 25 23  1  0
 26 25  1  0
 27 25  2  0
M  END
$$$$
