YSL.pdb
     RDKit          3D

 27 27  0  0  1  0  0  0  0  0999 V2000
   12.6007  -16.8060   32.2294 O   0  0  0  0  0  0  0  0  0  0  0  0
   11.9888  -16.7648   30.9778 C   0  0  0  0  0  0  0  0  0  0  0  0
   11.3829  -15.6364   30.4726 C   0  0  0  0  0  0  0  0  0  0  0  0
   10.7805  -15.6181   29.2253 C   0  0  0  0  0  0  0  0  0  0  0  0
   10.7742  -16.7567   28.4439 C   0  0  0  0  0  0  0  0  0  0  0  0
   10.1474  -16.7995   27.1046 C   0  0  0  0  0  0  0  0  0  0  0  0
    9.8913  -18.2435   26.6585 C   0  0  2  0  0  0  0  0  0  0  0  0
   11.1742  -18.9184   26.7547 N   0  0  0  0  0  0  0  0  0  0  0  0
    9.4683  -18.1731   25.2452 C   0  0  0  0  0  0  0  0  0  0  0  0
   10.3177  -18.1292   24.3262 O   0  0  0  0  0  0  0  0  0  0  0  0
   11.3799  -17.8897   28.9457 C   0  0  0  0  0  0  0  0  0  0  0  0
   11.9818  -17.9001   30.1969 C   0  0  0  0  0  0  0  0  0  0  0  0
    5.6307  -19.0479   24.0878 O   0  0  0  0  0  0  0  0  0  0  0  0
    6.6141  -18.8571   23.1309 C   0  0  0  0  0  0  0  0  0  0  0  0
    7.6063  -17.8290   23.6111 C   0  0  2  0  0  0  0  0  0  0  0  0
    8.0876  -18.1545   24.9160 N   0  0  0  0  0  0  0  0  0  0  0  0
    7.0985  -16.4536   23.5248 C   0  0  0  0  0  0  0  0  0  0  0  0
    5.8740  -16.2714   23.8384 O   0  0  0  0  0  0  0  0  0  0  0  0
    8.3239  -12.7261   26.1462 C   0  0  0  0  0  0  0  0  0  0  0  0
    7.3921  -13.5236   25.2256 C   0  0  1  0  0  0  0  0  0  0  0  0
    5.9510  -13.3319   25.6978 C   0  0  0  0  0  0  0  0  0  0  0  0
    7.5728  -13.0450   23.8205 C   0  0  0  0  0  0  0  0  0  0  0  0
    7.1756  -14.0869   22.8349 C   0  0  2  0  0  0  0  0  0  0  0  0
    7.8810  -15.3492   23.1210 N   0  0  0  0  0  0  0  0  0  0  0  0
    7.5124  -13.6673   21.4504 C   0  0  0  0  0  0  0  0  0  0  0  0
    8.4627  -14.2414   20.6384 O   0  0  0  0  0  0  0  0  0  0  0  0
    6.8901  -12.6773   20.9098 O   0  0  0  0  0  0  0  0  0  0  0  0
  2  1  1  0
  3  2  2  0
  4  3  1  0
  5  4  2  0
  5 11  1  0
  6  5  1  0
  7  9  1  0
  7  6  1  0
  7  8  1  6
  9 10  2  0
 11 12  2  0
 12  2  1  0
 15 14  1  1
 14 13  1  0
 16 15  1  0
 16  9  1  0
 17 15  1  0
 18 17  2  0
 20 19  1  1
 21 20  1  0
 22 20  1  0
 23 22  1  1
 23 24  1  0
 24 17  1  0
 25 23  1  0
 26 25  1  0
 27 25  2  0
M  END
$$$$
