YSL.pdb
     RDKit          3D

 27 27  0  0  1  0  0  0  0  0999 V2000
    8.4105  -12.4315   16.1524 O   0  0  0  0  0  0  0  0  0  0  0  0
    8.0577  -13.0145   17.3683 C   0  0  0  0  0  0  0  0  0  0  0  0
    6.8082  -13.5352   17.6193 C   0  0  0  0  0  0  0  0  0  0  0  0
    6.4794  -14.1103   18.8359 C   0  0  0  0  0  0  0  0  0  0  0  0
    7.4187  -14.1754   19.8461 C   0  0  0  0  0  0  0  0  0  0  0  0
    7.1279  -14.7769   21.1660 C   0  0  0  0  0  0  0  0  0  0  0  0
    7.5367  -16.2537   21.2043 C   0  0  2  0  0  0  0  0  0  0  0  0
    6.4398  -16.9816   20.5900 N   0  0  0  0  0  0  0  0  0  0  0  0
    7.6419  -16.6190   22.6315 C   0  0  0  0  0  0  0  0  0  0  0  0
    6.6135  -16.8355   23.3123 O   0  0  0  0  0  0  0  0  0  0  0  0
    8.6720  -13.6550   19.5994 C   0  0  0  0  0  0  0  0  0  0  0  0
    8.9940  -13.0801   18.3772 C   0  0  0  0  0  0  0  0  0  0  0  0
   11.1762  -18.0687   24.1222 O   0  0  0  0  0  0  0  0  0  0  0  0
    9.9717  -18.2792   24.7732 C   0  0  0  0  0  0  0  0  0  0  0  0
    9.0874  -17.0678   24.6226 C   0  0  2  0  0  0  0  0  0  0  0  0
    8.9170  -16.7281   23.2457 N   0  0  0  0  0  0  0  0  0  0  0  0
    9.5303  -15.9265   25.4339 C   0  0  0  0  0  0  0  0  0  0  0  0
   10.4383  -15.1816   24.9323 O   0  0  0  0  0  0  0  0  0  0  0  0
    6.3297  -12.7240   27.7451 C   0  0  0  0  0  0  0  0  0  0  0  0
    7.5159  -13.3720   27.0207 C   0  0  1  0  0  0  0  0  0  0  0  0
    7.9672  -12.4477   25.8901 C   0  0  0  0  0  0  0  0  0  0  0  0
    8.6168  -13.6049   28.0057 C   0  0  0  0  0  0  0  0  0  0  0  0
    9.6526  -14.5223   27.4579 C   0  0  2  0  0  0  0  0  0  0  0  0
    9.0124  -15.6206   26.7119 N   0  0  0  0  0  0  0  0  0  0  0  0
   10.4718  -15.1129   28.5471 C   0  0  0  0  0  0  0  0  0  0  0  0
   10.5775  -16.4512   28.8467 O   0  0  0  0  0  0  0  0  0  0  0  0
   11.1663  -14.3474   29.3160 O   0  0  0  0  0  0  0  0  0  0  0  0
  2  1  1  0
  3  2  2  0
  4  3  1  0
  5  4  2  0
  5 11  1  0
  6  5  1  0
  7  9  1  0
  7  6  1  0
  7  8  1  1
  9 10  2  0
 11 12  2  0
 12  2  1  0
 15 14  1  6
 14 13  1  0
 16 15  1  0
 16  9  1  0
 17 15  1  0
 18 17  2  0
 20 19  1  1
 21 20  1  0
 22 20  1  0
 23 22  1  1
 23 24  1  0
 24 17  1  0
 25 23  1  0
 26 25  1  0
 27 25  2  0
M  END
$$$$
