YSL.pdb
     RDKit          3D

 27 27  0  0  1  0  0  0  0  0999 V2000
    8.6389  -13.4512   15.5093 O   0  0  0  0  0  0  0  0  0  0  0  0
    8.3525  -13.7590   16.8381 C   0  0  0  0  0  0  0  0  0  0  0  0
    7.3886  -13.1047   17.5718 C   0  0  0  0  0  0  0  0  0  0  0  0
    7.1206  -13.4275   18.8920 C   0  0  0  0  0  0  0  0  0  0  0  0
    7.8303  -14.4350   19.5151 C   0  0  0  0  0  0  0  0  0  0  0  0
    7.5903  -14.8253   20.9216 C   0  0  0  0  0  0  0  0  0  0  0  0
    7.4733  -16.3472   21.0623 C   0  0  2  0  0  0  0  0  0  0  0  0
    6.1541  -16.6886   20.5584 N   0  0  0  0  0  0  0  0  0  0  0  0
    7.5466  -16.6378   22.5085 C   0  0  0  0  0  0  0  0  0  0  0  0
    6.5059  -16.6864   23.2033 O   0  0  0  0  0  0  0  0  0  0  0  0
    8.7971  -15.0934   18.7842 C   0  0  0  0  0  0  0  0  0  0  0  0
    9.0599  -14.7641   17.4611 C   0  0  0  0  0  0  0  0  0  0  0  0
    9.1077  -19.5576   24.1878 O   0  0  0  0  0  0  0  0  0  0  0  0
    9.7888  -18.4500   24.6657 C   0  0  0  0  0  0  0  0  0  0  0  0
    8.9399  -17.2151   24.5038 C   0  0  2  0  0  0  0  0  0  0  0  0
    8.8045  -16.8656   23.1254 N   0  0  0  0  0  0  0  0  0  0  0  0
    9.3973  -16.0891   25.3283 C   0  0  0  0  0  0  0  0  0  0  0  0
   10.4907  -15.5281   24.9807 O   0  0  0  0  0  0  0  0  0  0  0  0
    7.3283  -13.1573   25.6510 C   0  0  0  0  0  0  0  0  0  0  0  0
    7.8498  -12.5607   26.9640 C   0  0  1  0  0  0  0  0  0  0  0  0
    6.7387  -11.7270   27.6018 C   0  0  0  0  0  0  0  0  0  0  0  0
    8.2806  -13.6738   27.8648 C   0  0  0  0  0  0  0  0  0  0  0  0
    9.3286  -14.5162   27.2269 C   0  0  2  0  0  0  0  0  0  0  0  0
    8.7025  -15.6084   26.4602 N   0  0  0  0  0  0  0  0  0  0  0  0
   10.2249  -15.1165   28.2478 C   0  0  0  0  0  0  0  0  0  0  0  0
   11.2414  -14.4717   28.9132 O   0  0  0  0  0  0  0  0  0  0  0  0
   10.0845  -16.3538   28.5782 O   0  0  0  0  0  0  0  0  0  0  0  0
  2  1  1  0
  3  2  2  0
  4  3  1  0
  5  4  2  0
  5 11  1  0
  6  5  1  0
  7  9  1  0
  7  6  1  0
  7  8  1  1
  9 10  2  0
 11 12  2  0
 12  2  1  0
 15 14  1  6
 14 13  1  0
 16 15  1  0
 16  9  1  0
 17 15  1  0
 18 17  2  0
 20 19  1  6
 21 20  1  0
 22 20  1  0
 23 22  1  1
 23 24  1  0
 24 17  1  0
 25 23  1  0
 26 25  1  0
 27 25  2  0
M  END
$$$$
