YSL.pdb
     RDKit          3D

 27 27  0  0  1  0  0  0  0  0999 V2000
    7.8598  -11.8974   17.2759 O   0  0  0  0  0  0  0  0  0  0  0  0
    7.9428  -12.7075   18.4070 C   0  0  0  0  0  0  0  0  0  0  0  0
    9.1357  -13.0443   19.0061 C   0  0  0  0  0  0  0  0  0  0  0  0
    9.1947  -13.8514   20.1305 C   0  0  0  0  0  0  0  0  0  0  0  0
    8.0323  -14.3470   20.6874 C   0  0  0  0  0  0  0  0  0  0  0  0
    8.0304  -15.2131   21.8866 C   0  0  0  0  0  0  0  0  0  0  0  0
    8.5919  -16.6032   21.5672 C   0  0  2  0  0  0  0  0  0  0  0  0
    7.6322  -17.2177   20.6662 N   0  0  0  0  0  0  0  0  0  0  0  0
    8.6224  -17.3429   22.8452 C   0  0  0  0  0  0  0  0  0  0  0  0
    7.6345  -18.0170   23.2161 O   0  0  0  0  0  0  0  0  0  0  0  0
    6.8346  -14.0123   20.0907 C   0  0  0  0  0  0  0  0  0  0  0  0
    6.7838  -13.2027   18.9638 C   0  0  0  0  0  0  0  0  0  0  0  0
   11.5521  -19.4164   23.8660 O   0  0  0  0  0  0  0  0  0  0  0  0
   10.3717  -19.4509   24.5902 C   0  0  0  0  0  0  0  0  0  0  0  0
    9.9022  -18.0472   24.8754 C   0  0  2  0  0  0  0  0  0  0  0  0
    9.7785  -17.2950   23.6674 N   0  0  0  0  0  0  0  0  0  0  0  0
   10.7178  -17.3608   25.8856 C   0  0  0  0  0  0  0  0  0  0  0  0
   11.8841  -16.9853   25.5257 O   0  0  0  0  0  0  0  0  0  0  0  0
    8.9030  -13.5740   28.9729 C   0  0  0  0  0  0  0  0  0  0  0  0
    9.6987  -14.5248   28.0702 C   0  0  1  0  0  0  0  0  0  0  0  0
   10.5532  -13.6948   27.1124 C   0  0  0  0  0  0  0  0  0  0  0  0
   10.5457  -15.4110   28.9266 C   0  0  0  0  0  0  0  0  0  0  0  0
   11.2400  -16.4488   28.1170 C   0  0  2  0  0  0  0  0  0  0  0  0
   10.2841  -17.1023   27.2048 N   0  0  0  0  0  0  0  0  0  0  0  0
   11.8412  -17.4909   28.9880 C   0  0  0  0  0  0  0  0  0  0  0  0
   12.9872  -17.3585   29.7370 O   0  0  0  0  0  0  0  0  0  0  0  0
   11.2810  -18.6468   29.0873 O   0  0  0  0  0  0  0  0  0  0  0  0
  2  1  1  0
  3  2  2  0
  4  3  1  0
  5  4  2  0
  5 11  1  0
  6  5  1  0
  7  9  1  0
  7  6  1  0
  7  8  1  6
  9 10  2  0
 11 12  2  0
 12  2  1  0
 15 14  1  6
 14 13  1  0
 16 15  1  0
 16  9  1  0
 17 15  1  0
 18 17  2  0
 20 19  1  1
 21 20  1  0
 22 20  1  0
 23 22  1  1
 23 24  1  0
 24 17  1  0
 25 23  1  0
 26 25  1  0
 27 25  2  0
M  END
$$$$
