YSL.pdb
     RDKit          3D

 27 27  0  0  1  0  0  0  0  0999 V2000
    9.4744  -12.2790   17.6087 O   0  0  0  0  0  0  0  0  0  0  0  0
    8.7440  -12.9687   18.5748 C   0  0  0  0  0  0  0  0  0  0  0  0
    7.6813  -12.4152   19.2529 C   0  0  0  0  0  0  0  0  0  0  0  0
    6.9692  -13.1196   20.2098 C   0  0  0  0  0  0  0  0  0  0  0  0
    7.3174  -14.4215   20.5112 C   0  0  0  0  0  0  0  0  0  0  0  0
    6.5959  -15.2247   21.5226 C   0  0  0  0  0  0  0  0  0  0  0  0
    7.0727  -16.6814   21.5165 C   0  0  2  0  0  0  0  0  0  0  0  0
    6.1211  -17.4033   20.6895 N   0  0  0  0  0  0  0  0  0  0  0  0
    6.9813  -17.1546   22.9126 C   0  0  0  0  0  0  0  0  0  0  0  0
    5.9056  -17.6106   23.3629 O   0  0  0  0  0  0  0  0  0  0  0  0
    8.3814  -14.9804   19.8346 C   0  0  0  0  0  0  0  0  0  0  0  0
    9.0903  -14.2678   18.8767 C   0  0  0  0  0  0  0  0  0  0  0  0
    9.0189  -19.7802   24.3137 O   0  0  0  0  0  0  0  0  0  0  0  0
    7.9427  -19.1903   24.9563 C   0  0  0  0  0  0  0  0  0  0  0  0
    8.1547  -17.7011   25.0528 C   0  0  2  0  0  0  0  0  0  0  0  0
    8.1190  -17.0956   23.7595 N   0  0  0  0  0  0  0  0  0  0  0  0
    9.3585  -17.3382   25.8118 C   0  0  0  0  0  0  0  0  0  0  0  0
   10.4558  -17.2867   25.1605 O   0  0  0  0  0  0  0  0  0  0  0  0
    8.7219  -14.6662   27.8096 C   0  0  0  0  0  0  0  0  0  0  0  0
    9.8705  -14.5653   28.8208 C   0  0  1  0  0  0  0  0  0  0  0  0
    9.3416  -13.9268   30.1049 C   0  0  0  0  0  0  0  0  0  0  0  0
   10.4123  -15.9353   29.0771 C   0  0  0  0  0  0  0  0  0  0  0  0
   10.6475  -16.6744   27.8071 C   0  0  2  0  0  0  0  0  0  0  0  0
    9.3605  -17.0505   27.1947 N   0  0  0  0  0  0  0  0  0  0  0  0
   11.4296  -17.9139   28.0483 C   0  0  0  0  0  0  0  0  0  0  0  0
   12.7825  -17.9848   28.2863 O   0  0  0  0  0  0  0  0  0  0  0  0
   10.8379  -19.0583   28.0427 O   0  0  0  0  0  0  0  0  0  0  0  0
  2  1  1  0
  3  2  2  0
  4  3  1  0
  5  4  2  0
  5 11  1  0
  6  5  1  0
  7  9  1  0
  7  6  1  0
  7  8  1  6
  9 10  2  0
 11 12  2  0
 12  2  1  0
 15 14  1  6
 14 13  1  0
 16 15  1  0
 16  9  1  0
 17 15  1  0
 18 17  2  0
 20 19  1  6
 21 20  1  0
 22 20  1  0
 23 22  1  1
 23 24  1  0
 24 17  1  0
 25 23  1  0
 26 25  1  0
 27 25  2  0
M  END
$$$$
