YSL.pdb
     RDKit          3D

 27 27  0  0  1  0  0  0  0  0999 V2000
    9.2138  -21.1823   30.8248 O   0  0  0  0  0  0  0  0  0  0  0  0
    8.9121  -20.5371   29.6268 C   0  0  0  0  0  0  0  0  0  0  0  0
    7.7361  -20.7367   28.9393 C   0  0  0  0  0  0  0  0  0  0  0  0
    7.4571  -20.0842   27.7496 C   0  0  0  0  0  0  0  0  0  0  0  0
    8.3729  -19.1995   27.2151 C   0  0  0  0  0  0  0  0  0  0  0  0
    8.1326  -18.4730   25.9491 C   0  0  0  0  0  0  0  0  0  0  0  0
    7.9487  -19.4454   24.7785 C   0  0  2  0  0  0  0  0  0  0  0  0
    9.0379  -20.4008   24.8858 N   0  0  0  0  0  0  0  0  0  0  0  0
    8.1043  -18.6464   23.5461 C   0  0  0  0  0  0  0  0  0  0  0  0
    9.2330  -18.4847   23.0285 O   0  0  0  0  0  0  0  0  0  0  0  0
    9.5526  -18.9961   27.9003 C   0  0  0  0  0  0  0  0  0  0  0  0
    9.8250  -19.6540   29.0923 C   0  0  0  0  0  0  0  0  0  0  0  0
    4.8121  -16.4409   22.2543 O   0  0  0  0  0  0  0  0  0  0  0  0
    5.7228  -16.8080   21.2770 C   0  0  0  0  0  0  0  0  0  0  0  0
    7.0690  -17.0717   21.9017 C   0  0  2  0  0  0  0  0  0  0  0  0
    6.9689  -18.0524   22.9354 N   0  0  0  0  0  0  0  0  0  0  0  0
    7.7461  -15.8479   22.3497 C   0  0  0  0  0  0  0  0  0  0  0  0
    8.0218  -14.9814   21.4530 O   0  0  0  0  0  0  0  0  0  0  0  0
    8.2811  -12.8676   26.8656 C   0  0  0  0  0  0  0  0  0  0  0  0
    7.4602  -13.5927   25.7922 C   0  0  1  0  0  0  0  0  0  0  0  0
    6.0055  -13.1339   25.8910 C   0  0  0  0  0  0  0  0  0  0  0  0
    8.0385  -13.2831   24.4483 C   0  0  0  0  0  0  0  0  0  0  0  0
    8.9089  -14.3881   23.9623 C   0  0  2  0  0  0  0  0  0  0  0  0
    8.0985  -15.5895   23.6929 N   0  0  0  0  0  0  0  0  0  0  0  0
    9.9408  -14.7377   24.9718 C   0  0  0  0  0  0  0  0  0  0  0  0
    9.9991  -15.9026   25.7008 O   0  0  0  0  0  0  0  0  0  0  0  0
   10.8922  -13.9088   25.2316 O   0  0  0  0  0  0  0  0  0  0  0  0
  2  1  1  0
  3  2  2  0
  4  3  1  0
  5  4  2  0
  5 11  1  0
  6  5  1  0
  7  9  1  0
  7  6  1  0
  7  8  1  1
  9 10  2  0
 11 12  2  0
 12  2  1  0
 15 14  1  1
 14 13  1  0
 16 15  1  0
 16  9  1  0
 17 15  1  0
 18 17  2  0
 20 19  1  1
 21 20  1  0
 22 20  1  0
 23 22  1  1
 23 24  1  0
 24 17  1  0
 25 23  1  0
 26 25  1  0
 27 25  2  0
M  END
$$$$
