YSL.pdb
     RDKit          3D

 27 27  0  0  1  0  0  0  0  0999 V2000
   11.5675  -18.1334   28.0697 O   0  0  0  0  0  0  0  0  0  0  0  0
   11.9980  -17.7408   26.8035 C   0  0  0  0  0  0  0  0  0  0  0  0
   11.7638  -16.4878   26.2835 C   0  0  0  0  0  0  0  0  0  0  0  0
   12.2012  -16.1190   25.0219 C   0  0  0  0  0  0  0  0  0  0  0  0
   12.8974  -17.0202   24.2408 C   0  0  0  0  0  0  0  0  0  0  0  0
   13.3900  -16.6858   22.8866 C   0  0  0  0  0  0  0  0  0  0  0  0
   12.4390  -17.2115   21.8054 C   0  0  2  0  0  0  0  0  0  0  0  0
   13.0610  -16.8741   20.5366 N   0  0  0  0  0  0  0  0  0  0  0  0
   11.1777  -16.4588   21.9595 C   0  0  0  0  0  0  0  0  0  0  0  0
   11.1049  -15.2575   21.6135 O   0  0  0  0  0  0  0  0  0  0  0  0
   13.1346  -18.2769   24.7575 C   0  0  0  0  0  0  0  0  0  0  0  0
   12.6928  -18.6390   26.0231 C   0  0  0  0  0  0  0  0  0  0  0  0
    7.5453  -18.4784   22.5058 O   0  0  0  0  0  0  0  0  0  0  0  0
    7.6932  -17.2403   21.9024 C   0  0  0  0  0  0  0  0  0  0  0  0
    8.7626  -16.4480   22.6100 C   0  0  2  0  0  0  0  0  0  0  0  0
   10.0316  -17.0951   22.5042 N   0  0  0  0  0  0  0  0  0  0  0  0
    8.4123  -16.1178   23.9975 C   0  0  0  0  0  0  0  0  0  0  0  0
    9.1517  -16.6159   24.9119 O   0  0  0  0  0  0  0  0  0  0  0  0
    5.3535  -11.7396   25.3418 C   0  0  0  0  0  0  0  0  0  0  0  0
    6.5270  -12.7269   25.3527 C   0  0  1  0  0  0  0  0  0  0  0  0
    7.6940  -12.0964   26.1124 C   0  0  0  0  0  0  0  0  0  0  0  0
    6.0827  -14.0009   25.9973 C   0  0  0  0  0  0  0  0  0  0  0  0
    7.0794  -15.0881   25.7992 C   0  0  2  0  0  0  0  0  0  0  0  0
    7.3228  -15.2954   24.3603 N   0  0  0  0  0  0  0  0  0  0  0  0
    6.5964  -16.3669   26.3801 C   0  0  0  0  0  0  0  0  0  0  0  0
    6.6545  -16.7275   27.7061 O   0  0  0  0  0  0  0  0  0  0  0  0
    6.0671  -17.2598   25.6169 O   0  0  0  0  0  0  0  0  0  0  0  0
  2  1  1  0
  3  2  2  0
  4  3  1  0
  5  4  2  0
  5 11  1  0
  6  5  1  0
  7  9  1  0
  7  6  1  0
  7  8  1  6
  9 10  2  0
 11 12  2  0
 12  2  1  0
 15 14  1  1
 14 13  1  0
 16 15  1  0
 16  9  1  0
 17 15  1  0
 18 17  2  0
 20 19  1  1
 21 20  1  0
 22 20  1  0
 23 22  1  6
 23 24  1  0
 24 17  1  0
 25 23  1  0
 26 25  1  0
 27 25  2  0
M  END
$$$$
