YSL.pdb
     RDKit          3D

 27 27  0  0  1  0  0  0  0  0999 V2000
    8.2016  -12.3628   16.8731 O   0  0  0  0  0  0  0  0  0  0  0  0
    8.0890  -13.0183   18.0980 C   0  0  0  0  0  0  0  0  0  0  0  0
    7.5906  -12.4161   19.2313 C   0  0  0  0  0  0  0  0  0  0  0  0
    7.4877  -13.0871   20.4389 C   0  0  0  0  0  0  0  0  0  0  0  0
    7.8917  -14.4042   20.5344 C   0  0  0  0  0  0  0  0  0  0  0  0
    7.8067  -15.1734   21.7951 C   0  0  0  0  0  0  0  0  0  0  0  0
    8.1442  -16.6511   21.5666 C   0  0  2  0  0  0  0  0  0  0  0  0
    7.0437  -17.1898   20.7860 N   0  0  0  0  0  0  0  0  0  0  0  0
    8.1671  -17.2835   22.9011 C   0  0  0  0  0  0  0  0  0  0  0  0
    7.2616  -18.0760   23.2474 O   0  0  0  0  0  0  0  0  0  0  0  0
    8.3917  -15.0119   19.4016 C   0  0  0  0  0  0  0  0  0  0  0  0
    8.4917  -14.3325   18.1948 C   0  0  0  0  0  0  0  0  0  0  0  0
   11.2108  -19.2029   23.8276 O   0  0  0  0  0  0  0  0  0  0  0  0
    9.9427  -19.2314   24.3845 C   0  0  0  0  0  0  0  0  0  0  0  0
    9.5716  -17.8603   24.8887 C   0  0  2  0  0  0  0  0  0  0  0  0
    9.2218  -16.9959   23.8066 N   0  0  0  0  0  0  0  0  0  0  0  0
   10.5899  -17.2753   25.7705 C   0  0  0  0  0  0  0  0  0  0  0  0
   11.3576  -16.3931   25.2575 O   0  0  0  0  0  0  0  0  0  0  0  0
    8.6374  -13.6798   27.0898 C   0  0  0  0  0  0  0  0  0  0  0  0
    9.9287  -14.5058   27.1335 C   0  0  1  0  0  0  0  0  0  0  0  0
   11.0790  -13.5990   27.5705 C   0  0  0  0  0  0  0  0  0  0  0  0
    9.7431  -15.6457   28.0834 C   0  0  0  0  0  0  0  0  0  0  0  0
   10.9324  -16.5402   28.0999 C   0  0  2  0  0  0  0  0  0  0  0  0
   10.7569  -17.6333   27.1267 N   0  0  0  0  0  0  0  0  0  0  0  0
   11.1304  -17.1394   29.4444 C   0  0  0  0  0  0  0  0  0  0  0  0
   11.9265  -16.6357   30.4466 O   0  0  0  0  0  0  0  0  0  0  0  0
   10.5274  -18.2347   29.7548 O   0  0  0  0  0  0  0  0  0  0  0  0
  2  1  1  0
  3  2  2  0
  4  3  1  0
  5  4  2  0
  5 11  1  0
  6  5  1  0
  7  9  1  0
  7  6  1  0
  7  8  1  6
  9 10  2  0
 11 12  2  0
 12  2  1  0
 15 14  1  6
 14 13  1  0
 16 15  1  0
 16  9  1  0
 17 15  1  0
 18 17  2  0
 20 19  1  1
 21 20  1  0
 22 20  1  0
 23 22  1  1
 23 24  1  0
 24 17  1  0
 25 23  1  0
 26 25  1  0
 27 25  2  0
M  END
$$$$
