YSL.pdb
     RDKit          3D

 27 27  0  0  1  0  0  0  0  0999 V2000
    8.7058  -12.4730   16.4614 O   0  0  0  0  0  0  0  0  0  0  0  0
    8.3239  -13.0493   17.6716 C   0  0  0  0  0  0  0  0  0  0  0  0
    7.0145  -13.3277   17.9932 C   0  0  0  0  0  0  0  0  0  0  0  0
    6.6577  -13.9011   19.2027 C   0  0  0  0  0  0  0  0  0  0  0  0
    7.6294  -14.2129   20.1332 C   0  0  0  0  0  0  0  0  0  0  0  0
    7.3112  -14.8260   21.4414 C   0  0  0  0  0  0  0  0  0  0  0  0
    7.5438  -16.3408   21.4148 C   0  0  2  0  0  0  0  0  0  0  0  0
    6.4110  -16.9002   20.6975 N   0  0  0  0  0  0  0  0  0  0  0  0
    7.5162  -16.7904   22.8214 C   0  0  0  0  0  0  0  0  0  0  0  0
    6.4274  -16.9565   23.4171 O   0  0  0  0  0  0  0  0  0  0  0  0
    8.9427  -13.9359   19.8156 C   0  0  0  0  0  0  0  0  0  0  0  0
    9.2923  -13.3611   18.6010 C   0  0  0  0  0  0  0  0  0  0  0  0
   10.7560  -18.5386   24.6092 O   0  0  0  0  0  0  0  0  0  0  0  0
    9.5247  -18.5304   25.2439 C   0  0  0  0  0  0  0  0  0  0  0  0
    8.7897  -17.2540   24.9235 C   0  0  2  0  0  0  0  0  0  0  0  0
    8.7309  -17.0391   23.5126 N   0  0  0  0  0  0  0  0  0  0  0  0
    9.3133  -16.0896   25.6495 C   0  0  0  0  0  0  0  0  0  0  0  0
   10.3611  -15.5372   25.1722 O   0  0  0  0  0  0  0  0  0  0  0  0
    6.6271  -11.9843   27.1098 C   0  0  0  0  0  0  0  0  0  0  0  0
    7.7111  -12.9712   26.6595 C   0  0  1  0  0  0  0  0  0  0  0  0
    8.5769  -12.2995   25.5938 C   0  0  0  0  0  0  0  0  0  0  0  0
    8.5248  -13.3731   27.8480 C   0  0  0  0  0  0  0  0  0  0  0  0
    9.4543  -14.4881   27.5200 C   0  0  2  0  0  0  0  0  0  0  0  0
    8.7274  -15.5642   26.8224 N   0  0  0  0  0  0  0  0  0  0  0  0
   10.0610  -15.0563   28.7509 C   0  0  0  0  0  0  0  0  0  0  0  0
    9.9027  -16.3422   29.2129 O   0  0  0  0  0  0  0  0  0  0  0  0
   10.8123  -14.3208   29.4953 O   0  0  0  0  0  0  0  0  0  0  0  0
  2  1  1  0
  3  2  2  0
  4  3  1  0
  5  4  2  0
  5 11  1  0
  6  5  1  0
  7  9  1  0
  7  6  1  0
  7  8  1  6
  9 10  2  0
 11 12  2  0
 12  2  1  0
 15 14  1  6
 14 13  1  0
 16 15  1  0
 16  9  1  0
 17 15  1  0
 18 17  2  0
 20 19  1  1
 21 20  1  0
 22 20  1  0
 23 22  1  1
 23 24  1  0
 24 17  1  0
 25 23  1  0
 26 25  1  0
 27 25  2  0
M  END
$$$$
