YSL.pdb
     RDKit          3D

 27 27  0  0  1  0  0  0  0  0999 V2000
    7.7342  -11.9603   17.3133 O   0  0  0  0  0  0  0  0  0  0  0  0
    7.8325  -12.7448   18.4612 C   0  0  0  0  0  0  0  0  0  0  0  0
    9.0330  -13.0620   19.0559 C   0  0  0  0  0  0  0  0  0  0  0  0
    9.1072  -13.8437   20.1971 C   0  0  0  0  0  0  0  0  0  0  0  0
    7.9529  -14.3329   20.7762 C   0  0  0  0  0  0  0  0  0  0  0  0
    7.9673  -15.1724   21.9942 C   0  0  0  0  0  0  0  0  0  0  0  0
    8.5243  -16.5693   21.6979 C   0  0  2  0  0  0  0  0  0  0  0  0
    7.5301  -17.2202   20.8622 N   0  0  0  0  0  0  0  0  0  0  0  0
    8.6169  -17.2642   22.9979 C   0  0  0  0  0  0  0  0  0  0  0  0
    7.5930  -17.7339   23.5449 O   0  0  0  0  0  0  0  0  0  0  0  0
    6.7477  -14.0178   20.1840 C   0  0  0  0  0  0  0  0  0  0  0  0
    6.6816  -13.2335   19.0401 C   0  0  0  0  0  0  0  0  0  0  0  0
   11.9122  -19.2382   23.9750 O   0  0  0  0  0  0  0  0  0  0  0  0
   10.7246  -19.4268   24.6627 C   0  0  0  0  0  0  0  0  0  0  0  0
   10.0387  -18.1018   24.8773 C   0  0  2  0  0  0  0  0  0  0  0  0
    9.8744  -17.4058   23.6408 N   0  0  0  0  0  0  0  0  0  0  0  0
   10.6862  -17.2777   25.9061 C   0  0  0  0  0  0  0  0  0  0  0  0
   11.7781  -16.7017   25.5792 O   0  0  0  0  0  0  0  0  0  0  0  0
    8.7461  -13.4422   28.4860 C   0  0  0  0  0  0  0  0  0  0  0  0
    9.7195  -14.4039   27.7934 C   0  0  1  0  0  0  0  0  0  0  0  0
   10.7782  -13.5857   27.0545 C   0  0  0  0  0  0  0  0  0  0  0  0
   10.3395  -15.2919   28.8246 C   0  0  0  0  0  0  0  0  0  0  0  0
   11.0462  -16.4423   28.1987 C   0  0  2  0  0  0  0  0  0  0  0  0
   10.1713  -17.0959   27.2088 N   0  0  0  0  0  0  0  0  0  0  0  0
   11.4315  -17.4506   29.2191 C   0  0  0  0  0  0  0  0  0  0  0  0
   12.4062  -17.3012   30.1780 O   0  0  0  0  0  0  0  0  0  0  0  0
   10.8323  -18.5904   29.2542 O   0  0  0  0  0  0  0  0  0  0  0  0
  2  1  1  0
  3  2  2  0
  4  3  1  0
  5  4  2  0
  5 11  1  0
  6  5  1  0
  7  9  1  0
  7  6  1  0
  7  8  1  6
  9 10  2  0
 11 12  2  0
 12  2  1  0
 15 14  1  6
 14 13  1  0
 16 15  1  0
 16  9  1  0
 17 15  1  0
 18 17  2  0
 20 19  1  1
 21 20  1  0
 22 20  1  0
 23 22  1  1
 23 24  1  0
 24 17  1  0
 25 23  1  0
 26 25  1  0
 27 25  2  0
M  END
$$$$
