YSL.pdb
     RDKit          3D

 27 27  0  0  1  0  0  0  0  0999 V2000
   14.5760  -22.2371   20.6291 O   0  0  0  0  0  0  0  0  0  0  0  0
   13.9403  -21.0061   20.7816 C   0  0  0  0  0  0  0  0  0  0  0  0
   12.8269  -20.8262   21.5711 C   0  0  0  0  0  0  0  0  0  0  0  0
   12.2110  -19.5930   21.7082 C   0  0  0  0  0  0  0  0  0  0  0  0
   12.7116  -18.4924   21.0409 C   0  0  0  0  0  0  0  0  0  0  0  0
   12.0985  -17.1503   21.1471 C   0  0  0  0  0  0  0  0  0  0  0  0
   10.8710  -17.0282   20.2372 C   0  0  2  0  0  0  0  0  0  0  0  0
   11.3448  -16.3905   19.0209 N   0  0  0  0  0  0  0  0  0  0  0  0
    9.9242  -16.1342   20.9341 C   0  0  0  0  0  0  0  0  0  0  0  0
   10.1094  -14.8959   20.9497 O   0  0  0  0  0  0  0  0  0  0  0  0
   13.8270  -18.6676   20.2487 C   0  0  0  0  0  0  0  0  0  0  0  0
   14.4387  -19.9071   20.1165 C   0  0  0  0  0  0  0  0  0  0  0  0
    6.4518  -17.7199   22.8025 O   0  0  0  0  0  0  0  0  0  0  0  0
    6.4522  -16.4808   22.1831 C   0  0  0  0  0  0  0  0  0  0  0  0
    7.8251  -15.8645   22.2671 C   0  0  2  0  0  0  0  0  0  0  0  0
    8.7906  -16.6751   21.5954 N   0  0  0  0  0  0  0  0  0  0  0  0
    8.2252  -15.5333   23.6408 C   0  0  0  0  0  0  0  0  0  0  0  0
    9.3292  -16.0252   24.0532 O   0  0  0  0  0  0  0  0  0  0  0  0
    5.7991  -11.5380   26.7378 C   0  0  0  0  0  0  0  0  0  0  0  0
    6.8230  -12.3659   25.9515 C   0  0  1  0  0  0  0  0  0  0  0  0
    8.1243  -11.5708   25.8481 C   0  0  0  0  0  0  0  0  0  0  0  0
    7.0354  -13.6687   26.6544 C   0  0  0  0  0  0  0  0  0  0  0  0
    7.9519  -14.5572   25.8893 C   0  0  2  0  0  0  0  0  0  0  0  0
    7.4655  -14.7162   24.5070 N   0  0  0  0  0  0  0  0  0  0  0  0
    8.0340  -15.9027   26.5130 C   0  0  0  0  0  0  0  0  0  0  0  0
    8.9793  -16.3181   27.4217 O   0  0  0  0  0  0  0  0  0  0  0  0
    7.1667  -16.8056   26.2093 O   0  0  0  0  0  0  0  0  0  0  0  0
  2  1  1  0
  3  2  2  0
  4  3  1  0
  5  4  2  0
  5 11  1  0
  6  5  1  0
  7  9  1  0
  7  6  1  0
  7  8  1  6
  9 10  2  0
 11 12  2  0
 12  2  1  0
 15 14  1  1
 14 13  1  0
 16 15  1  0
 16  9  1  0
 17 15  1  0
 18 17  2  0
 20 19  1  1
 21 20  1  0
 22 20  1  0
 23 22  1  1
 23 24  1  0
 24 17  1  0
 25 23  1  0
 26 25  1  0
 27 25  2  0
M  END
$$$$
