NDM.pdb
     RDKit          3D

 25 24  0  0  1  0  0  0  0  0999 V2000
    7.6090  -12.3727   17.0415 N   0  0  0  0  0  0  0  0  0  0  0  0
    7.7655  -13.7299   17.4254 C   0  0  0  0  0  0  0  0  0  0  0  0
    8.2185  -14.5534   16.6006 O   0  0  0  0  0  0  0  0  0  0  0  0
    7.4007  -14.1588   18.7709 C   0  0  0  0  0  0  0  0  0  0  0  0
    8.5564  -13.8631   19.7277 C   0  0  2  0  0  0  0  0  0  0  0  0
    9.7581  -13.8977   18.9214 N   0  0  0  0  0  0  0  0  0  0  0  0
    8.5765  -14.9644   20.6959 C   0  0  0  0  0  0  0  0  0  0  0  0
    7.5891  -15.1442   21.4525 O   0  0  0  0  0  0  0  0  0  0  0  0
    9.6803  -15.8662   20.8323 N   0  0  0  0  0  0  0  0  0  0  0  0
    9.7304  -16.7685   21.9498 C   0  0  1  0  0  0  0  0  0  0  0  0
   10.8415  -17.8114   21.7602 C   0  0  0  0  0  0  0  0  0  0  0  0
   10.6291  -18.5777   20.5144 C   0  0  0  0  0  0  0  0  0  0  0  0
    9.5704  -19.1883   20.2518 O   0  0  0  0  0  0  0  0  0  0  0  0
    9.9510  -16.0342   23.2412 C   0  0  0  0  0  0  0  0  0  0  0  0
   10.6293  -14.9762   23.2304 O   0  0  0  0  0  0  0  0  0  0  0  0
   11.6573  -18.6225   19.5883 O   0  0  0  0  0  0  0  0  0  0  0  0
    6.3709  -11.3858   27.7086 C   0  0  0  0  0  0  0  0  0  0  0  0
    6.6535  -12.4846   26.3135 S   0  0  0  0  0  0  0  0  0  0  0  0
    7.9319  -13.6755   26.5609 C   0  0  0  0  0  0  0  0  0  0  0  0
    8.2717  -14.6086   25.4833 C   0  0  0  0  0  0  0  0  0  0  0  0
    9.3308  -15.6215   25.6697 C   0  0  2  0  0  0  0  0  0  0  0  0
    9.4273  -16.4848   24.4651 N   0  0  0  0  0  0  0  0  0  0  0  0
    9.2311  -16.5169   26.8245 C   0  0  0  0  0  0  0  0  0  0  0  0
    8.6540  -17.6508   26.6559 O   0  0  0  0  0  0  0  0  0  0  0  0
    9.6928  -16.2894   28.0942 O   0  0  0  0  0  0  0  0  0  0  0  0
  2  1  1  0
  2  3  2  0
  4  2  1  0
  5  4  1  0
  5  6  1  6
  7  5  1  0
  7  8  2  0
  9  7  1  0
 10  9  1  0
 10 11  1  6
 12 13  2  0
 12 11  1  0
 14 10  1  0
 14 22  1  0
 15 14  2  0
 16 12  1  0
 18 17  1  0
 19 18  1  0
 20 19  1  0
 21 20  1  6
 21 22  1  0
 21 23  1  0
 23 24  2  0
 23 25  1  0
M  END
$$$$
