NDM.pdb
     RDKit          3D

 25 24  0  0  1  0  0  0  0  0999 V2000
    8.3850  -12.7673   16.9907 N   0  0  0  0  0  0  0  0  0  0  0  0
    7.6686  -13.9922   16.9701 C   0  0  0  0  0  0  0  0  0  0  0  0
    7.0811  -14.3430   15.9236 O   0  0  0  0  0  0  0  0  0  0  0  0
    7.6193  -14.8336   18.1606 C   0  0  0  0  0  0  0  0  0  0  0  0
    8.2276  -14.0764   19.3417 C   0  0  2  0  0  0  0  0  0  0  0  0
    9.4885  -13.5471   18.8671 N   0  0  0  0  0  0  0  0  0  0  0  0
    8.4710  -15.0767   20.3861 C   0  0  0  0  0  0  0  0  0  0  0  0
    7.5040  -15.5311   21.0482 O   0  0  0  0  0  0  0  0  0  0  0  0
    9.7750  -15.5766   20.7021 N   0  0  0  0  0  0  0  0  0  0  0  0
    9.9412  -16.4962   21.7939 C   0  0  1  0  0  0  0  0  0  0  0  0
   11.2430  -17.2962   21.6406 C   0  0  0  0  0  0  0  0  0  0  0  0
   11.3628  -18.3060   22.7131 C   0  0  0  0  0  0  0  0  0  0  0  0
   10.4074  -18.6608   23.4369 O   0  0  0  0  0  0  0  0  0  0  0  0
    9.9456  -15.7856   23.1170 C   0  0  0  0  0  0  0  0  0  0  0  0
   10.5614  -14.6947   23.2187 O   0  0  0  0  0  0  0  0  0  0  0  0
   12.5992  -18.8906   22.9285 O   0  0  0  0  0  0  0  0  0  0  0  0
    6.2426  -11.1207   27.3175 C   0  0  0  0  0  0  0  0  0  0  0  0
    6.6452  -12.1396   25.8916 S   0  0  0  0  0  0  0  0  0  0  0  0
    7.3823  -13.6946   26.2821 C   0  0  0  0  0  0  0  0  0  0  0  0
    7.9117  -14.5365   25.2057 C   0  0  0  0  0  0  0  0  0  0  0  0
    9.0194  -15.4796   25.4624 C   0  0  2  0  0  0  0  0  0  0  0  0
    9.2863  -16.2938   24.2493 N   0  0  0  0  0  0  0  0  0  0  0  0
    8.8800  -16.4177   26.5787 C   0  0  0  0  0  0  0  0  0  0  0  0
    8.3004  -17.5397   26.3501 O   0  0  0  0  0  0  0  0  0  0  0  0
    9.3059  -16.2423   27.8689 O   0  0  0  0  0  0  0  0  0  0  0  0
  2  1  1  0
  2  3  2  0
  4  2  1  0
  5  4  1  0
  5  6  1  6
  7  5  1  0
  7  8  2  0
  9  7  1  0
 10  9  1  0
 10 11  1  6
 12 13  2  0
 12 11  1  0
 14 10  1  0
 14 22  1  0
 15 14  2  0
 16 12  1  0
 18 17  1  0
 19 18  1  0
 20 19  1  0
 21 20  1  6
 21 22  1  0
 21 23  1  0
 23 24  2  0
 23 25  1  0
M  END
$$$$
