NDM.pdb
     RDKit          3D

 25 24  0  0  1  0  0  0  0  0999 V2000
   12.3520  -17.5309   17.8106 N   0  0  0  0  0  0  0  0  0  0  0  0
   11.0295  -17.9967   17.5918 C   0  0  0  0  0  0  0  0  0  0  0  0
   10.8483  -19.0482   16.9398 O   0  0  0  0  0  0  0  0  0  0  0  0
    9.8924  -17.2540   18.1238 C   0  0  0  0  0  0  0  0  0  0  0  0
   10.2345  -16.7365   19.5215 C   0  0  2  0  0  0  0  0  0  0  0  0
   11.2473  -17.6318   20.0395 N   0  0  0  0  0  0  0  0  0  0  0  0
    9.0077  -16.8629   20.3151 C   0  0  0  0  0  0  0  0  0  0  0  0
    7.9983  -16.1783   20.0112 O   0  0  0  0  0  0  0  0  0  0  0  0
    8.8908  -17.7402   21.4406 N   0  0  0  0  0  0  0  0  0  0  0  0
    7.6749  -17.7598   22.2065 C   0  0  1  0  0  0  0  0  0  0  0  0
    7.3205  -19.1922   22.6317 C   0  0  0  0  0  0  0  0  0  0  0  0
    6.8524  -19.9789   21.4714 C   0  0  0  0  0  0  0  0  0  0  0  0
    7.3282  -19.8623   20.3214 O   0  0  0  0  0  0  0  0  0  0  0  0
    7.7777  -16.8889   23.4257 C   0  0  0  0  0  0  0  0  0  0  0  0
    7.1720  -17.2337   24.4716 O   0  0  0  0  0  0  0  0  0  0  0  0
    5.8322  -20.8940   21.6677 O   0  0  0  0  0  0  0  0  0  0  0  0
    6.6902  -10.9151   27.4983 C   0  0  0  0  0  0  0  0  0  0  0  0
    7.3021  -11.7750   26.0424 S   0  0  0  0  0  0  0  0  0  0  0  0
    6.6506  -13.3996   25.8183 C   0  0  0  0  0  0  0  0  0  0  0  0
    7.0614  -14.1913   24.6556 C   0  0  0  0  0  0  0  0  0  0  0  0
    8.4412  -14.7072   24.5447 C   0  0  2  0  0  0  0  0  0  0  0  0
    8.5267  -15.6998   23.4434 N   0  0  0  0  0  0  0  0  0  0  0  0
    9.0385  -15.3342   25.7261 C   0  0  0  0  0  0  0  0  0  0  0  0
    8.7309  -16.5546   25.9772 O   0  0  0  0  0  0  0  0  0  0  0  0
    9.9102  -14.7654   26.6169 O   0  0  0  0  0  0  0  0  0  0  0  0
  2  1  1  0
  2  3  2  0
  4  2  1  0
  5  4  1  0
  5  6  1  1
  7  5  1  0
  7  8  2  0
  9  7  1  0
 10  9  1  0
 10 11  1  1
 12 13  2  0
 12 11  1  0
 14 10  1  0
 14 22  1  0
 15 14  2  0
 16 12  1  0
 18 17  1  0
 19 18  1  0
 20 19  1  0
 21 20  1  1
 21 22  1  0
 21 23  1  0
 23 24  2  0
 23 25  1  0
M  END
$$$$
