NDM.pdb
     RDKit          3D

 25 24  0  0  1  0  0  0  0  0999 V2000
    8.6055  -12.3984   17.7110 N   0  0  0  0  0  0  0  0  0  0  0  0
    7.7212  -13.5083   17.7026 C   0  0  0  0  0  0  0  0  0  0  0  0
    6.9948  -13.7077   16.7046 O   0  0  0  0  0  0  0  0  0  0  0  0
    7.6616  -14.4078   18.8493 C   0  0  0  0  0  0  0  0  0  0  0  0
    8.5826  -13.8843   19.9521 C   0  0  2  0  0  0  0  0  0  0  0  0
    9.8854  -13.7285   19.3407 N   0  0  0  0  0  0  0  0  0  0  0  0
    8.6361  -14.9362   20.9726 C   0  0  0  0  0  0  0  0  0  0  0  0
    7.6038  -15.2123   21.6346 O   0  0  0  0  0  0  0  0  0  0  0  0
    9.8222  -15.6832   21.2650 N   0  0  0  0  0  0  0  0  0  0  0  0
    9.8014  -16.6773   22.3027 C   0  0  1  0  0  0  0  0  0  0  0  0
   10.9447  -17.6854   22.1159 C   0  0  0  0  0  0  0  0  0  0  0  0
   10.8579  -18.3309   20.7892 C   0  0  0  0  0  0  0  0  0  0  0  0
   11.6849  -18.1373   19.8721 O   0  0  0  0  0  0  0  0  0  0  0  0
    9.9042  -16.0537   23.6651 C   0  0  0  0  0  0  0  0  0  0  0  0
   10.7535  -15.1471   23.8558 O   0  0  0  0  0  0  0  0  0  0  0  0
    9.8044  -19.1964   20.5484 O   0  0  0  0  0  0  0  0  0  0  0  0
    6.1024  -11.1814   25.5430 C   0  0  0  0  0  0  0  0  0  0  0  0
    6.1613  -12.8755   26.1429 S   0  0  0  0  0  0  0  0  0  0  0  0
    7.6626  -13.7314   25.7862 C   0  0  0  0  0  0  0  0  0  0  0  0
    7.8811  -15.0718   26.3369 C   0  0  0  0  0  0  0  0  0  0  0  0
    9.1404  -15.7982   26.0741 C   0  0  2  0  0  0  0  0  0  0  0  0
    9.0858  -16.4452   24.7385 N   0  0  0  0  0  0  0  0  0  0  0  0
    9.5507  -16.8315   27.0278 C   0  0  0  0  0  0  0  0  0  0  0  0
    9.3170  -18.0560   26.7225 O   0  0  0  0  0  0  0  0  0  0  0  0
   10.1723  -16.6480   28.2348 O   0  0  0  0  0  0  0  0  0  0  0  0
  2  1  1  0
  2  3  2  0
  4  2  1  0
  5  4  1  0
  5  6  1  6
  7  5  1  0
  7  8  2  0
  9  7  1  0
 10  9  1  0
 10 11  1  6
 12 13  2  0
 12 11  1  0
 14 10  1  0
 14 22  1  0
 15 14  2  0
 16 12  1  0
 18 17  1  0
 19 18  1  0
 20 19  1  0
 21 20  1  1
 21 22  1  0
 21 23  1  0
 23 24  2  0
 23 25  1  0
M  END
$$$$
