NDM.pdb
     RDKit          3D

 25 24  0  0  1  0  0  0  0  0999 V2000
    7.5535  -12.4409   16.9939 N   0  0  0  0  0  0  0  0  0  0  0  0
    7.6263  -13.8560   17.0716 C   0  0  0  0  0  0  0  0  0  0  0  0
    7.7206  -14.5251   16.0195 O   0  0  0  0  0  0  0  0  0  0  0  0
    7.5914  -14.5226   18.3685 C   0  0  0  0  0  0  0  0  0  0  0  0
    8.8816  -14.2165   19.1303 C   0  0  2  0  0  0  0  0  0  0  0  0
    9.9639  -14.5842   18.2421 N   0  0  0  0  0  0  0  0  0  0  0  0
    8.8815  -15.0967   20.3033 C   0  0  0  0  0  0  0  0  0  0  0  0
    7.9645  -14.9939   21.1567 O   0  0  0  0  0  0  0  0  0  0  0  0
    9.8878  -16.0880   20.5378 N   0  0  0  0  0  0  0  0  0  0  0  0
    9.8161  -16.9133   21.7121 C   0  0  1  0  0  0  0  0  0  0  0  0
   10.8999  -18.0008   21.6821 C   0  0  0  0  0  0  0  0  0  0  0  0
   10.8144  -18.8544   22.8856 C   0  0  0  0  0  0  0  0  0  0  0  0
    9.7483  -19.0782   23.4985 O   0  0  0  0  0  0  0  0  0  0  0  0
    9.9604  -16.1002   22.9666 C   0  0  0  0  0  0  0  0  0  0  0  0
   10.9018  -15.2716   23.0486 O   0  0  0  0  0  0  0  0  0  0  0  0
   11.9770  -19.4373   23.3604 O   0  0  0  0  0  0  0  0  0  0  0  0
    6.4514  -11.3059   27.8851 C   0  0  0  0  0  0  0  0  0  0  0  0
    6.5653  -12.3300   26.4114 S   0  0  0  0  0  0  0  0  0  0  0  0
    7.8853  -13.5010   26.4284 C   0  0  0  0  0  0  0  0  0  0  0  0
    8.0947  -14.3740   25.2702 C   0  0  0  0  0  0  0  0  0  0  0  0
    9.1731  -15.3837   25.2729 C   0  0  2  0  0  0  0  0  0  0  0  0
    9.0816  -16.2296   24.0556 N   0  0  0  0  0  0  0  0  0  0  0  0
    9.2591  -16.2957   26.4158 C   0  0  0  0  0  0  0  0  0  0  0  0
    9.4408  -15.7840   27.5787 O   0  0  0  0  0  0  0  0  0  0  0  0
    9.1635  -17.6622   26.3969 O   0  0  0  0  0  0  0  0  0  0  0  0
  2  1  1  0
  2  3  2  0
  4  2  1  0
  5  4  1  0
  5  6  1  6
  7  5  1  0
  7  8  2  0
  9  7  1  0
 10  9  1  0
 10 11  1  6
 12 13  2  0
 12 11  1  0
 14 10  1  0
 14 22  1  0
 15 14  2  0
 16 12  1  0
 18 17  1  0
 19 18  1  0
 20 19  1  0
 21 20  1  1
 21 22  1  0
 21 23  1  0
 23 24  2  0
 23 25  1  0
M  END
$$$$
