NDM.pdb
     RDKit          3D

 25 24  0  0  1  0  0  0  0  0999 V2000
    6.8856  -12.6774   18.3567 N   0  0  0  0  0  0  0  0  0  0  0  0
    8.0853  -13.4073   18.5618 C   0  0  0  0  0  0  0  0  0  0  0  0
    8.9784  -13.3799   17.6871 O   0  0  0  0  0  0  0  0  0  0  0  0
    8.2732  -14.1822   19.7832 C   0  0  0  0  0  0  0  0  0  0  0  0
    8.6630  -15.6153   19.4190 C   0  0  2  0  0  0  0  0  0  0  0  0
    7.4673  -16.2270   18.8791 N   0  0  0  0  0  0  0  0  0  0  0  0
    9.0304  -16.2709   20.6784 C   0  0  0  0  0  0  0  0  0  0  0  0
    8.1361  -16.5539   21.5150 O   0  0  0  0  0  0  0  0  0  0  0  0
   10.3784  -16.6146   21.0174 N   0  0  0  0  0  0  0  0  0  0  0  0
   10.6605  -17.2294   22.2854 C   0  0  1  0  0  0  0  0  0  0  0  0
   12.0825  -17.8085   22.3071 C   0  0  0  0  0  0  0  0  0  0  0  0
   12.2746  -18.7591   21.1918 C   0  0  0  0  0  0  0  0  0  0  0  0
   11.6553  -19.8403   21.0921 O   0  0  0  0  0  0  0  0  0  0  0  0
   10.5016  -16.2553   23.4174 C   0  0  0  0  0  0  0  0  0  0  0  0
   11.2440  -15.2419   23.4557 O   0  0  0  0  0  0  0  0  0  0  0  0
   13.1894  -18.4356   20.2042 O   0  0  0  0  0  0  0  0  0  0  0  0
    6.4671  -11.3905   27.7384 C   0  0  0  0  0  0  0  0  0  0  0  0
    6.7086  -12.5145   26.3558 S   0  0  0  0  0  0  0  0  0  0  0  0
    7.9957  -13.6995   26.5859 C   0  0  0  0  0  0  0  0  0  0  0  0
    8.3692  -14.5876   25.4817 C   0  0  0  0  0  0  0  0  0  0  0  0
    9.4769  -15.5533   25.6332 C   0  0  2  0  0  0  0  0  0  0  0  0
    9.5526  -16.4327   24.4387 N   0  0  0  0  0  0  0  0  0  0  0  0
    9.4684  -16.4320   26.8050 C   0  0  0  0  0  0  0  0  0  0  0  0
    9.7583  -15.9157   27.9437 O   0  0  0  0  0  0  0  0  0  0  0  0
    9.1783  -17.7705   26.8373 O   0  0  0  0  0  0  0  0  0  0  0  0
  2  1  1  0
  2  3  2  0
  4  2  1  0
  5  4  1  0
  5  6  1  1
  7  5  1  0
  7  8  2  0
  9  7  1  0
 10  9  1  0
 10 11  1  6
 12 13  2  0
 12 11  1  0
 14 10  1  0
 14 22  1  0
 15 14  2  0
 16 12  1  0
 18 17  1  0
 19 18  1  0
 20 19  1  0
 21 20  1  6
 21 22  1  0
 21 23  1  0
 23 24  2  0
 23 25  1  0
M  END
$$$$
