NDM.pdb
     RDKit          3D

 25 24  0  0  1  0  0  0  0  0999 V2000
    9.3677  -14.6693   17.4304 N   0  0  0  0  0  0  0  0  0  0  0  0
    8.1063  -14.0347   17.2882 C   0  0  0  0  0  0  0  0  0  0  0  0
    7.3754  -14.3308   16.3178 O   0  0  0  0  0  0  0  0  0  0  0  0
    7.6678  -13.0459   18.2667 C   0  0  0  0  0  0  0  0  0  0  0  0
    8.7000  -12.9536   19.3912 C   0  0  2  0  0  0  0  0  0  0  0  0
    9.9917  -13.1180   18.7589 N   0  0  0  0  0  0  0  0  0  0  0  0
    8.4356  -14.0882   20.2820 C   0  0  0  0  0  0  0  0  0  0  0  0
    7.3883  -14.1011   20.9770 O   0  0  0  0  0  0  0  0  0  0  0  0
    9.3208  -15.2065   20.4086 N   0  0  0  0  0  0  0  0  0  0  0  0
    9.0476  -16.2256   21.3844 C   0  0  1  0  0  0  0  0  0  0  0  0
    9.9030  -17.4741   21.1241 C   0  0  0  0  0  0  0  0  0  0  0  0
    9.4624  -18.5950   21.9807 C   0  0  0  0  0  0  0  0  0  0  0  0
    8.5306  -18.5056   22.8090 O   0  0  0  0  0  0  0  0  0  0  0  0
    9.2973  -15.7325   22.7808 C   0  0  0  0  0  0  0  0  0  0  0  0
   10.4429  -15.3115   23.0807 O   0  0  0  0  0  0  0  0  0  0  0  0
   10.1164  -19.8093   21.8600 O   0  0  0  0  0  0  0  0  0  0  0  0
    6.3850  -10.7271   26.1170 C   0  0  0  0  0  0  0  0  0  0  0  0
    6.1114  -12.2722   26.9952 S   0  0  0  0  0  0  0  0  0  0  0  0
    7.3427  -13.5054   26.7174 C   0  0  0  0  0  0  0  0  0  0  0  0
    7.3842  -14.2120   25.4343 C   0  0  0  0  0  0  0  0  0  0  0  0
    8.4972  -15.1294   25.1150 C   0  0  2  0  0  0  0  0  0  0  0  0
    8.2975  -15.7231   23.7684 N   0  0  0  0  0  0  0  0  0  0  0  0
    8.7576  -16.2411   26.0326 C   0  0  0  0  0  0  0  0  0  0  0  0
    8.2583  -17.3873   25.7426 O   0  0  0  0  0  0  0  0  0  0  0  0
    9.4901  -16.2086   27.1898 O   0  0  0  0  0  0  0  0  0  0  0  0
  2  1  1  0
  2  3  2  0
  4  2  1  0
  5  4  1  0
  5  6  1  6
  7  5  1  0
  7  8  2  0
  9  7  1  0
 10  9  1  0
 10 11  1  6
 12 13  2  0
 12 11  1  0
 14 10  1  0
 14 22  1  0
 15 14  2  0
 16 12  1  0
 18 17  1  0
 19 18  1  0
 20 19  1  0
 21 20  1  1
 21 22  1  0
 21 23  1  0
 23 24  2  0
 23 25  1  0
M  END
$$$$
