NDM.pdb
     RDKit          3D

 25 24  0  0  1  0  0  0  0  0999 V2000
    8.5448  -13.4683   16.9406 N   0  0  0  0  0  0  0  0  0  0  0  0
    7.8263  -14.0316   18.0272 C   0  0  0  0  0  0  0  0  0  0  0  0
    7.5752  -15.2565   18.0288 O   0  0  0  0  0  0  0  0  0  0  0  0
    7.3853  -13.1872   19.1318 C   0  0  0  0  0  0  0  0  0  0  0  0
    8.5188  -13.0511   20.1492 C   0  0  2  0  0  0  0  0  0  0  0  0
    9.7433  -13.0226   19.3778 N   0  0  0  0  0  0  0  0  0  0  0  0
    8.4779  -14.2654   20.9706 C   0  0  0  0  0  0  0  0  0  0  0  0
    7.4259  -14.5591   21.5927 O   0  0  0  0  0  0  0  0  0  0  0  0
    9.5914  -15.1550   21.1079 N   0  0  0  0  0  0  0  0  0  0  0  0
    9.5281  -16.2367   22.0520 C   0  0  1  0  0  0  0  0  0  0  0  0
   10.3847  -17.4217   21.5829 C   0  0  0  0  0  0  0  0  0  0  0  0
    9.9721  -17.8602   20.2332 C   0  0  0  0  0  0  0  0  0  0  0  0
    8.8444  -18.3342   19.9762 O   0  0  0  0  0  0  0  0  0  0  0  0
    9.9808  -15.8037   23.4170 C   0  0  0  0  0  0  0  0  0  0  0  0
   11.1193  -15.2868   23.5439 O   0  0  0  0  0  0  0  0  0  0  0  0
   10.8830  -17.7404   19.1975 O   0  0  0  0  0  0  0  0  0  0  0  0
    5.1872  -12.2515   26.1744 C   0  0  0  0  0  0  0  0  0  0  0  0
    6.9209  -12.4700   26.5986 S   0  0  0  0  0  0  0  0  0  0  0  0
    7.6523  -13.9479   25.9702 C   0  0  0  0  0  0  0  0  0  0  0  0
    9.0454  -14.2633   26.2980 C   0  0  0  0  0  0  0  0  0  0  0  0
    9.6316  -15.5661   25.9218 C   0  0  2  0  0  0  0  0  0  0  0  0
    9.1791  -15.9541   24.5615 N   0  0  0  0  0  0  0  0  0  0  0  0
    9.3763  -16.7137   26.7955 C   0  0  0  0  0  0  0  0  0  0  0  0
    9.7764  -16.6411   28.0128 O   0  0  0  0  0  0  0  0  0  0  0  0
    8.7438  -17.8835   26.4664 O   0  0  0  0  0  0  0  0  0  0  0  0
  2  1  1  0
  2  3  2  0
  4  2  1  0
  5  4  1  0
  5  6  1  6
  7  5  1  0
  7  8  2  0
  9  7  1  0
 10  9  1  0
 10 11  1  6
 12 13  2  0
 12 11  1  0
 14 10  1  0
 14 22  1  0
 15 14  2  0
 16 12  1  0
 18 17  1  0
 19 18  1  0
 20 19  1  0
 21 20  1  1
 21 22  1  0
 21 23  1  0
 23 24  2  0
 23 25  1  0
M  END
$$$$
