NDM.pdb
     RDKit          3D

 25 24  0  0  1  0  0  0  0  0999 V2000
    8.3499  -12.3339   16.7660 N   0  0  0  0  0  0  0  0  0  0  0  0
    8.1179  -13.7338   16.7853 C   0  0  0  0  0  0  0  0  0  0  0  0
    8.2531  -14.3937   15.7318 O   0  0  0  0  0  0  0  0  0  0  0  0
    7.7254  -14.3956   18.0245 C   0  0  0  0  0  0  0  0  0  0  0  0
    8.9402  -14.5057   18.9467 C   0  0  2  0  0  0  0  0  0  0  0  0
    9.9290  -15.2658   18.2119 N   0  0  0  0  0  0  0  0  0  0  0  0
    8.4961  -15.2699   20.1171 C   0  0  0  0  0  0  0  0  0  0  0  0
    7.5292  -14.8507   20.8020 O   0  0  0  0  0  0  0  0  0  0  0  0
    9.1140  -16.4925   20.5337 N   0  0  0  0  0  0  0  0  0  0  0  0
    8.6996  -17.1200   21.7585 C   0  0  1  0  0  0  0  0  0  0  0  0
    9.2400  -18.5547   21.8469 C   0  0  0  0  0  0  0  0  0  0  0  0
    8.6555  -19.3976   20.7829 C   0  0  0  0  0  0  0  0  0  0  0  0
    7.4488  -19.3616   20.4586 O   0  0  0  0  0  0  0  0  0  0  0  0
    9.1558  -16.3405   22.9585 C   0  0  0  0  0  0  0  0  0  0  0  0
   10.3760  -16.0625   23.0744 O   0  0  0  0  0  0  0  0  0  0  0  0
    9.4883  -20.2745   20.1088 O   0  0  0  0  0  0  0  0  0  0  0  0
    6.2454  -10.9509   25.8255 C   0  0  0  0  0  0  0  0  0  0  0  0
    6.5332  -12.1565   27.1282 S   0  0  0  0  0  0  0  0  0  0  0  0
    7.7587  -13.3691   26.7520 C   0  0  0  0  0  0  0  0  0  0  0  0
    7.6313  -14.1750   25.5347 C   0  0  0  0  0  0  0  0  0  0  0  0
    8.7038  -15.1082   25.1331 C   0  0  2  0  0  0  0  0  0  0  0  0
    8.2695  -15.9086   23.9599 N   0  0  0  0  0  0  0  0  0  0  0  0
    9.1997  -16.0577   26.1323 C   0  0  0  0  0  0  0  0  0  0  0  0
   10.0314  -15.6256   27.0090 O   0  0  0  0  0  0  0  0  0  0  0  0
    8.8741  -17.3830   26.2519 O   0  0  0  0  0  0  0  0  0  0  0  0
  2  1  1  0
  2  3  2  0
  4  2  1  0
  5  4  1  0
  5  6  1  6
  7  5  1  0
  7  8  2  0
  9  7  1  0
 10  9  1  0
 10 11  1  1
 12 13  2  0
 12 11  1  0
 14 10  1  0
 14 22  1  0
 15 14  2  0
 16 12  1  0
 18 17  1  0
 19 18  1  0
 20 19  1  0
 21 20  1  1
 21 22  1  0
 21 23  1  0
 23 24  2  0
 23 25  1  0
M  END
$$$$
