NDM.pdb
     RDKit          3D

 25 24  0  0  1  0  0  0  0  0999 V2000
   13.9096  -15.6116   18.4155 N   0  0  0  0  0  0  0  0  0  0  0  0
   13.6460  -14.5076   19.2674 C   0  0  0  0  0  0  0  0  0  0  0  0
   14.5229  -13.6304   19.4257 O   0  0  0  0  0  0  0  0  0  0  0  0
   12.3624  -14.3988   19.9516 C   0  0  0  0  0  0  0  0  0  0  0  0
   11.4837  -15.5916   19.5729 C   0  0  2  0  0  0  0  0  0  0  0  0
   10.5708  -15.1065   18.5597 N   0  0  0  0  0  0  0  0  0  0  0  0
   10.7370  -15.9491   20.7834 C   0  0  0  0  0  0  0  0  0  0  0  0
    9.6360  -15.3914   21.0212 O   0  0  0  0  0  0  0  0  0  0  0  0
   11.2000  -16.9177   21.7309 N   0  0  0  0  0  0  0  0  0  0  0  0
   10.3340  -17.3449   22.7954 C   0  0  1  0  0  0  0  0  0  0  0  0
   10.6369  -18.7959   23.1966 C   0  0  0  0  0  0  0  0  0  0  0  0
    9.8431  -19.1850   24.3810 C   0  0  0  0  0  0  0  0  0  0  0  0
    8.6320  -18.9094   24.5210 O   0  0  0  0  0  0  0  0  0  0  0  0
   10.4628  -16.4573   24.0000 C   0  0  0  0  0  0  0  0  0  0  0  0
   11.5769  -15.9330   24.2521 O   0  0  0  0  0  0  0  0  0  0  0  0
   10.4741  -19.8925   25.3901 O   0  0  0  0  0  0  0  0  0  0  0  0
    5.3868  -12.9278   26.2146 C   0  0  0  0  0  0  0  0  0  0  0  0
    6.7169  -12.4611   27.3310 S   0  0  0  0  0  0  0  0  0  0  0  0
    8.1386  -13.5040   27.2595 C   0  0  0  0  0  0  0  0  0  0  0  0
    8.3053  -14.4260   26.1327 C   0  0  0  0  0  0  0  0  0  0  0  0
    9.4943  -15.2980   26.0421 C   0  0  2  0  0  0  0  0  0  0  0  0
    9.3834  -16.1889   24.8592 N   0  0  0  0  0  0  0  0  0  0  0  0
    9.8086  -16.1543   27.1882 C   0  0  0  0  0  0  0  0  0  0  0  0
    9.4683  -17.3902   27.1243 O   0  0  0  0  0  0  0  0  0  0  0  0
   10.4403  -15.7906   28.3482 O   0  0  0  0  0  0  0  0  0  0  0  0
  2  1  1  0
  2  3  2  0
  4  2  1  0
  5  4  1  0
  5  6  1  6
  7  5  1  0
  7  8  2  0
  9  7  1  0
 10  9  1  0
 10 11  1  1
 12 13  2  0
 12 11  1  0
 14 10  1  0
 14 22  1  0
 15 14  2  0
 16 12  1  0
 18 17  1  0
 19 18  1  0
 20 19  1  0
 21 20  1  1
 21 22  1  0
 21 23  1  0
 23 24  2  0
 23 25  1  0
M  END
$$$$
