YGS.pdb
     RDKit          3D

 23 23  0  0  1  0  0  0  0  0999 V2000
    6.0502  -10.4440   26.5978 O   0  0  0  0  0  0  0  0  0  0  0  0
    6.5448  -11.7421   26.4345 C   0  0  0  0  0  0  0  0  0  0  0  0
    7.8970  -12.0069   26.3966 C   0  0  0  0  0  0  0  0  0  0  0  0
    8.3606  -13.2955   26.2347 C   0  0  0  0  0  0  0  0  0  0  0  0
    7.5049  -14.3764   26.1034 C   0  0  0  0  0  0  0  0  0  0  0  0
    8.0214  -15.7660   25.9287 C   0  0  0  0  0  0  0  0  0  0  0  0
    8.6152  -15.8733   24.5396 C   0  0  2  0  0  0  0  0  0  0  0  0
    7.5267  -15.7036   23.5993 N   0  0  0  0  0  0  0  0  0  0  0  0
    9.2742  -17.1526   24.2939 C   0  0  0  0  0  0  0  0  0  0  0  0
   10.2526  -17.4981   25.0297 O   0  0  0  0  0  0  0  0  0  0  0  0
    6.1528  -14.1054   26.1421 C   0  0  0  0  0  0  0  0  0  0  0  0
    5.6890  -12.8167   26.3041 C   0  0  0  0  0  0  0  0  0  0  0  0
    8.9069  -18.0672   23.2782 N   0  0  0  0  0  0  0  0  0  0  0  0
    9.7429  -19.1701   22.9578 C   0  0  0  0  0  0  0  0  0  0  0  0
   10.9727  -18.7829   22.2148 C   0  0  0  0  0  0  0  0  0  0  0  0
   11.0445  -19.0102   20.9799 O   0  0  0  0  0  0  0  0  0  0  0  0
   13.4170  -15.5704   21.6298 O   0  0  0  0  0  0  0  0  0  0  0  0
   13.0380  -16.8232   21.1237 C   0  0  0  0  0  0  0  0  0  0  0  0
   13.3100  -17.8340   22.2181 C   0  0  2  0  0  0  0  0  0  0  0  0
   12.0599  -18.1689   22.8528 N   0  0  0  0  0  0  0  0  0  0  0  0
   14.2645  -17.2029   23.1666 C   0  0  0  0  0  0  0  0  0  0  0  0
   13.9649  -16.9292   24.3479 O   0  0  0  0  0  0  0  0  0  0  0  0
   15.5330  -16.9136   22.7047 O   0  0  0  0  0  0  0  0  0  0  0  0
  2  1  1  0
  2  3  2  0
  4  3  1  0
  5  4  2  0
  6  5  1  0
  7  6  1  0
  7  8  1  6
  9  7  1  0
  9 13  1  0
 10  9  2  0
 11 12  2  0
 11  5  1  0
 12  2  1  0
 14 13  1  0
 14 15  1  0
 15 20  1  0
 16 15  2  0
 18 17  1  0
 19 21  1  0
 19 18  1  6
 20 19  1  0
 21 23  1  0
 22 21  2  0
M  END
$$$$
