YGS.pdb
     RDKit          3D

 23 23  0  0  1  0  0  0  0  0999 V2000
    6.4405  -11.8757   28.4560 O   0  0  0  0  0  0  0  0  0  0  0  0
    6.8370  -12.2612   27.1712 C   0  0  0  0  0  0  0  0  0  0  0  0
    5.9213  -12.5459   26.1810 C   0  0  0  0  0  0  0  0  0  0  0  0
    6.3367  -12.9240   24.9216 C   0  0  0  0  0  0  0  0  0  0  0  0
    7.6765  -13.0362   24.5895 C   0  0  0  0  0  0  0  0  0  0  0  0
    8.1113  -13.4466   23.2217 C   0  0  0  0  0  0  0  0  0  0  0  0
    8.0219  -14.9561   23.1355 C   0  0  2  0  0  0  0  0  0  0  0  0
    8.9886  -15.4918   24.0715 N   0  0  0  0  0  0  0  0  0  0  0  0
    8.3018  -15.4726   21.7992 C   0  0  0  0  0  0  0  0  0  0  0  0
    9.5104  -15.6334   21.4366 O   0  0  0  0  0  0  0  0  0  0  0  0
    8.5883  -12.7501   25.5844 C   0  0  0  0  0  0  0  0  0  0  0  0
    8.1729  -12.3719   26.8439 C   0  0  0  0  0  0  0  0  0  0  0  0
    7.3153  -15.8196   20.8455 N   0  0  0  0  0  0  0  0  0  0  0  0
    7.6754  -16.1152   19.5035 C   0  0  0  0  0  0  0  0  0  0  0  0
    8.2255  -17.4868   19.3280 C   0  0  0  0  0  0  0  0  0  0  0  0
    8.0993  -18.3254   20.2566 O   0  0  0  0  0  0  0  0  0  0  0  0
    9.9656  -18.2806   15.8104 O   0  0  0  0  0  0  0  0  0  0  0  0
    9.3895  -19.4217   16.3893 C   0  0  0  0  0  0  0  0  0  0  0  0
    9.3922  -19.1972   17.8870 C   0  0  2  0  0  0  0  0  0  0  0  0
    8.8837  -17.8748   18.1524 N   0  0  0  0  0  0  0  0  0  0  0  0
   10.7958  -19.3572   18.3489 C   0  0  0  0  0  0  0  0  0  0  0  0
   11.4932  -18.3985   18.7426 O   0  0  0  0  0  0  0  0  0  0  0  0
   11.3360  -20.6277   18.3356 O   0  0  0  0  0  0  0  0  0  0  0  0
  2  1  1  0
  2  3  2  0
  4  3  1  0
  5  4  2  0
  6  5  1  0
  7  6  1  0
  7  8  1  1
  9  7  1  0
  9 13  1  0
 10  9  2  0
 11 12  2  0
 11  5  1  0
 12  2  1  0
 14 13  1  0
 14 15  1  0
 15 20  1  0
 16 15  2  0
 18 17  1  0
 19 21  1  0
 19 18  1  6
 20 19  1  0
 21 23  1  0
 22 21  2  0
M  END
$$$$
