YGS.pdb
     RDKit          3D

 23 23  0  0  1  0  0  0  0  0999 V2000
   11.1373  -15.2053   30.6479 O   0  0  0  0  0  0  0  0  0  0  0  0
   10.3356  -15.0101   29.5186 C   0  0  0  0  0  0  0  0  0  0  0  0
    9.7901  -16.0666   28.8211 C   0  0  0  0  0  0  0  0  0  0  0  0
    9.0026  -15.8489   27.7103 C   0  0  0  0  0  0  0  0  0  0  0  0
    8.7218  -14.5758   27.2430 C   0  0  0  0  0  0  0  0  0  0  0  0
    7.8675  -14.3555   26.0389 C   0  0  0  0  0  0  0  0  0  0  0  0
    8.3147  -15.3244   24.9642 C   0  0  2  0  0  0  0  0  0  0  0  0
    9.7181  -15.0653   24.7176 N   0  0  0  0  0  0  0  0  0  0  0  0
    7.5684  -15.1837   23.7175 C   0  0  0  0  0  0  0  0  0  0  0  0
    6.4700  -15.8097   23.5777 O   0  0  0  0  0  0  0  0  0  0  0  0
    9.2704  -13.5224   27.9450 C   0  0  0  0  0  0  0  0  0  0  0  0
   10.0580  -13.7401   29.0559 C   0  0  0  0  0  0  0  0  0  0  0  0
    7.9742  -14.3876   22.6199 N   0  0  0  0  0  0  0  0  0  0  0  0
    7.2512  -14.4144   21.3974 C   0  0  0  0  0  0  0  0  0  0  0  0
    7.8374  -15.3335   20.3845 C   0  0  0  0  0  0  0  0  0  0  0  0
    7.3171  -15.4046   19.2417 O   0  0  0  0  0  0  0  0  0  0  0  0
   11.3880  -15.5762   19.9209 O   0  0  0  0  0  0  0  0  0  0  0  0
   10.6518  -16.3080   18.9765 C   0  0  0  0  0  0  0  0  0  0  0  0
    9.5746  -17.0465   19.7432 C   0  0  2  0  0  0  0  0  0  0  0  0
    8.9584  -16.1271   20.6667 N   0  0  0  0  0  0  0  0  0  0  0  0
   10.2362  -18.1787   20.4427 C   0  0  0  0  0  0  0  0  0  0  0  0
   10.2915  -18.2669   21.6875 O   0  0  0  0  0  0  0  0  0  0  0  0
   10.8092  -19.1667   19.6672 O   0  0  0  0  0  0  0  0  0  0  0  0
  2  1  1  0
  2  3  2  0
  4  3  1  0
  5  4  2  0
  6  5  1  0
  7  6  1  0
  7  8  1  6
  9  7  1  0
  9 13  1  0
 10  9  2  0
 11 12  2  0
 11  5  1  0
 12  2  1  0
 14 13  1  0
 14 15  1  0
 15 20  1  0
 16 15  2  0
 18 17  1  0
 19 21  1  0
 19 18  1  1
 20 19  1  0
 21 23  1  0
 22 21  2  0
M  END
$$$$
