YGS.pdb
     RDKit          3D

 23 23  0  0  1  0  0  0  0  0999 V2000
    9.2937  -13.0719   17.6912 O   0  0  0  0  0  0  0  0  0  0  0  0
    8.5997  -13.5661   18.8005 C   0  0  0  0  0  0  0  0  0  0  0  0
    8.2072  -12.7477   19.8380 C   0  0  0  0  0  0  0  0  0  0  0  0
    7.5238  -13.2584   20.9213 C   0  0  0  0  0  0  0  0  0  0  0  0
    7.2001  -14.6010   21.0233 C   0  0  0  0  0  0  0  0  0  0  0  0
    6.4598  -15.1396   22.2024 C   0  0  0  0  0  0  0  0  0  0  0  0
    7.3629  -15.0276   23.4130 C   0  0  2  0  0  0  0  0  0  0  0  0
    7.8228  -13.6556   23.4730 N   0  0  0  0  0  0  0  0  0  0  0  0
    8.5139  -15.9237   23.3558 C   0  0  0  0  0  0  0  0  0  0  0  0
    8.3816  -17.1292   23.7398 O   0  0  0  0  0  0  0  0  0  0  0  0
    7.5954  -15.4152   19.9822 C   0  0  0  0  0  0  0  0  0  0  0  0
    8.2789  -14.9045   18.8986 C   0  0  0  0  0  0  0  0  0  0  0  0
    9.8009  -15.5553   22.8965 N   0  0  0  0  0  0  0  0  0  0  0  0
   10.8274  -16.5273   22.7570 C   0  0  0  0  0  0  0  0  0  0  0  0
   11.4331  -16.9370   24.0530 C   0  0  0  0  0  0  0  0  0  0  0  0
   11.6634  -16.0648   24.9293 O   0  0  0  0  0  0  0  0  0  0  0  0
   10.7634  -20.0850   25.7653 O   0  0  0  0  0  0  0  0  0  0  0  0
   11.7789  -19.3980   26.4479 C   0  0  0  0  0  0  0  0  0  0  0  0
   12.6228  -18.7116   25.3942 C   0  0  2  0  0  0  0  0  0  0  0  0
   11.7567  -18.2732   24.3286 N   0  0  0  0  0  0  0  0  0  0  0  0
   13.6251  -19.7035   24.9247 C   0  0  0  0  0  0  0  0  0  0  0  0
   13.6186  -20.1788   23.7696 O   0  0  0  0  0  0  0  0  0  0  0  0
   14.5984  -20.1056   25.8175 O   0  0  0  0  0  0  0  0  0  0  0  0
  2  1  1  0
  2  3  2  0
  4  3  1  0
  5  4  2  0
  6  5  1  0
  7  6  1  0
  7  8  1  6
  9  7  1  0
  9 13  1  0
 10  9  2  0
 11 12  2  0
 11  5  1  0
 12  2  1  0
 14 13  1  0
 14 15  1  0
 15 20  1  0
 16 15  2  0
 18 17  1  0
 19 21  1  0
 19 18  1  1
 20 19  1  0
 21 23  1  0
 22 21  2  0
M  END
$$$$
