YGS.pdb
     RDKit          3D

 23 23  0  0  1  0  0  0  0  0999 V2000
    6.5394  -10.6667   27.5348 O   0  0  0  0  0  0  0  0  0  0  0  0
    6.7132  -11.8384   26.7911 C   0  0  0  0  0  0  0  0  0  0  0  0
    7.8190  -12.6457   26.9517 C   0  0  0  0  0  0  0  0  0  0  0  0
    7.9681  -13.7965   26.2066 C   0  0  0  0  0  0  0  0  0  0  0  0
    7.0287  -14.1965   25.2710 C   0  0  0  0  0  0  0  0  0  0  0  0
    7.2038  -15.4449   24.4716 C   0  0  0  0  0  0  0  0  0  0  0  0
    8.6024  -15.4364   23.8905 C   0  0  2  0  0  0  0  0  0  0  0  0
    8.7166  -14.2422   23.0789 N   0  0  0  0  0  0  0  0  0  0  0  0
    8.8912  -16.6098   23.0715 C   0  0  0  0  0  0  0  0  0  0  0  0
    8.7061  -17.7691   23.5610 O   0  0  0  0  0  0  0  0  0  0  0  0
    5.9243  -13.3847   25.1145 C   0  0  0  0  0  0  0  0  0  0  0  0
    5.7751  -12.2338   25.8597 C   0  0  0  0  0  0  0  0  0  0  0  0
    9.3732  -16.5664   21.7415 N   0  0  0  0  0  0  0  0  0  0  0  0
    9.6561  -17.7644   21.0326 C   0  0  0  0  0  0  0  0  0  0  0  0
   11.0572  -18.2355   21.2042 C   0  0  0  0  0  0  0  0  0  0  0  0
   11.5206  -18.3832   22.3640 O   0  0  0  0  0  0  0  0  0  0  0  0
   12.6458  -20.1589   18.2956 O   0  0  0  0  0  0  0  0  0  0  0  0
   13.4164  -20.2501   19.4648 C   0  0  0  0  0  0  0  0  0  0  0  0
   13.2606  -18.9306   20.1916 C   0  0  2  0  0  0  0  0  0  0  0  0
   11.8810  -18.5214   20.1062 N   0  0  0  0  0  0  0  0  0  0  0  0
   14.1714  -17.9594   19.5314 C   0  0  0  0  0  0  0  0  0  0  0  0
   13.7577  -16.9775   18.8793 O   0  0  0  0  0  0  0  0  0  0  0  0
   15.5308  -18.1669   19.6545 O   0  0  0  0  0  0  0  0  0  0  0  0
  2  1  1  0
  2  3  2  0
  4  3  1  0
  5  4  2  0
  6  5  1  0
  7  6  1  0
  7  8  1  6
  9  7  1  0
  9 13  1  0
 10  9  2  0
 11 12  2  0
 11  5  1  0
 12  2  1  0
 14 13  1  0
 14 15  1  0
 15 20  1  0
 16 15  2  0
 18 17  1  0
 19 21  1  0
 19 18  1  6
 20 19  1  0
 21 23  1  0
 22 21  2  0
M  END
$$$$
