YGS.pdb
     RDKit          3D

 23 23  0  0  1  0  0  0  0  0999 V2000
   10.9357  -14.4755   30.2145 O   0  0  0  0  0  0  0  0  0  0  0  0
   10.2309  -14.5291   29.0075 C   0  0  0  0  0  0  0  0  0  0  0  0
   10.3723  -15.5808   28.1277 C   0  0  0  0  0  0  0  0  0  0  0  0
    9.6663  -15.6113   26.9435 C   0  0  0  0  0  0  0  0  0  0  0  0
    8.7907  -14.6018   26.5804 C   0  0  0  0  0  0  0  0  0  0  0  0
    8.0332  -14.6484   25.2949 C   0  0  0  0  0  0  0  0  0  0  0  0
    8.8146  -15.5069   24.3222 C   0  0  2  0  0  0  0  0  0  0  0  0
   10.0708  -14.8301   24.0744 N   0  0  0  0  0  0  0  0  0  0  0  0
    8.1190  -15.7188   23.0563 C   0  0  0  0  0  0  0  0  0  0  0  0
    7.0889  -16.4645   23.0315 O   0  0  0  0  0  0  0  0  0  0  0  0
    8.6533  -13.5519   27.4648 C   0  0  0  0  0  0  0  0  0  0  0  0
    9.3592  -13.5214   28.6491 C   0  0  0  0  0  0  0  0  0  0  0  0
    8.5040  -15.1492   21.8193 N   0  0  0  0  0  0  0  0  0  0  0  0
    7.8627  -15.5349   20.6118 C   0  0  0  0  0  0  0  0  0  0  0  0
    8.7128  -16.3883   19.7380 C   0  0  0  0  0  0  0  0  0  0  0  0
    8.2449  -16.8189   18.6530 O   0  0  0  0  0  0  0  0  0  0  0  0
   12.3512  -15.8170   19.5609 O   0  0  0  0  0  0  0  0  0  0  0  0
   11.9445  -16.8033   18.6493 C   0  0  0  0  0  0  0  0  0  0  0  0
   10.8770  -17.6228   19.3438 C   0  0  2  0  0  0  0  0  0  0  0  0
   10.0267  -16.7290   20.0894 N   0  0  0  0  0  0  0  0  0  0  0  0
   11.5773  -18.5914   20.2271 C   0  0  0  0  0  0  0  0  0  0  0  0
   11.4061  -18.6272   21.4639 O   0  0  0  0  0  0  0  0  0  0  0  0
   12.4514  -19.4830   19.6379 O   0  0  0  0  0  0  0  0  0  0  0  0
  2  1  1  0
  2  3  2  0
  4  3  1  0
  5  4  2  0
  6  5  1  0
  7  6  1  0
  7  8  1  6
  9  7  1  0
  9 13  1  0
 10  9  2  0
 11 12  2  0
 11  5  1  0
 12  2  1  0
 14 13  1  0
 14 15  1  0
 15 20  1  0
 16 15  2  0
 18 17  1  0
 19 21  1  0
 19 18  1  1
 20 19  1  0
 21 23  1  0
 22 21  2  0
M  END
$$$$
