YGS.pdb
     RDKit          3D

 23 23  0  0  1  0  0  0  0  0999 V2000
    5.6405  -11.1961   28.1795 O   0  0  0  0  0  0  0  0  0  0  0  0
    6.2532  -12.0420   27.2493 C   0  0  0  0  0  0  0  0  0  0  0  0
    7.2492  -12.9234   27.6118 C   0  0  0  0  0  0  0  0  0  0  0  0
    7.8384  -13.7477   26.6764 C   0  0  0  0  0  0  0  0  0  0  0  0
    7.4663  -13.7341   25.3425 C   0  0  0  0  0  0  0  0  0  0  0  0
    8.1132  -14.6323   24.3411 C   0  0  0  0  0  0  0  0  0  0  0  0
    7.0957  -15.6713   23.9180 C   0  0  2  0  0  0  0  0  0  0  0  0
    6.8328  -16.5023   25.0747 N   0  0  0  0  0  0  0  0  0  0  0  0
    7.5544  -16.5078   22.8131 C   0  0  0  0  0  0  0  0  0  0  0  0
    7.8286  -17.7304   23.0326 O   0  0  0  0  0  0  0  0  0  0  0  0
    6.4692  -12.8501   24.9856 C   0  0  0  0  0  0  0  0  0  0  0  0
    5.8799  -12.0257   25.9211 C   0  0  0  0  0  0  0  0  0  0  0  0
    7.7250  -16.0621   21.4807 N   0  0  0  0  0  0  0  0  0  0  0  0
    8.1796  -16.9513   20.4705 C   0  0  0  0  0  0  0  0  0  0  0  0
    9.4945  -17.5753   20.7809 C   0  0  0  0  0  0  0  0  0  0  0  0
    9.5674  -18.8230   20.9207 O   0  0  0  0  0  0  0  0  0  0  0  0
   12.5698  -15.1038   20.9006 O   0  0  0  0  0  0  0  0  0  0  0  0
   13.0127  -16.4135   20.6601 C   0  0  0  0  0  0  0  0  0  0  0  0
   11.9639  -17.3398   21.2393 C   0  0  2  0  0  0  0  0  0  0  0  0
   10.6609  -16.8104   20.9230 N   0  0  0  0  0  0  0  0  0  0  0  0
   12.1990  -17.4015   22.7055 C   0  0  0  0  0  0  0  0  0  0  0  0
   13.2132  -17.9303   23.2076 O   0  0  0  0  0  0  0  0  0  0  0  0
   11.2446  -16.8451   23.5335 O   0  0  0  0  0  0  0  0  0  0  0  0
  2  1  1  0
  2  3  2  0
  4  3  1  0
  5  4  2  0
  6  5  1  0
  7  6  1  0
  7  8  1  1
  9  7  1  0
  9 13  1  0
 10  9  2  0
 11 12  2  0
 11  5  1  0
 12  2  1  0
 14 13  1  0
 14 15  1  0
 15 20  1  0
 16 15  2  0
 18 17  1  0
 19 21  1  0
 19 18  1  6
 20 19  1  0
 21 23  1  0
 22 21  2  0
M  END
$$$$
