YGS.pdb
     RDKit          3D

 23 23  0  0  1  0  0  0  0  0999 V2000
    6.2439  -10.3451   26.5088 O   0  0  0  0  0  0  0  0  0  0  0  0
    6.4243  -11.6183   25.9586 C   0  0  0  0  0  0  0  0  0  0  0  0
    6.1456  -12.7655   26.6704 C   0  0  0  0  0  0  0  0  0  0  0  0
    6.3316  -14.0100   26.1062 C   0  0  0  0  0  0  0  0  0  0  0  0
    6.8013  -14.1712   24.8134 C   0  0  0  0  0  0  0  0  0  0  0  0
    6.9977  -15.5250   24.2159 C   0  0  0  0  0  0  0  0  0  0  0  0
    8.2908  -16.0942   24.7614 C   0  0  2  0  0  0  0  0  0  0  0  0
    9.3732  -15.3755   24.1215 N   0  0  0  0  0  0  0  0  0  0  0  0
    8.4408  -17.5241   24.5083 C   0  0  0  0  0  0  0  0  0  0  0  0
    7.6743  -18.3440   25.1069 O   0  0  0  0  0  0  0  0  0  0  0  0
    7.0785  -13.0197   24.1060 C   0  0  0  0  0  0  0  0  0  0  0  0
    6.8925  -11.7751   24.6702 C   0  0  0  0  0  0  0  0  0  0  0  0
    9.3932  -18.0921   23.6290 N   0  0  0  0  0  0  0  0  0  0  0  0
    9.5318  -19.5018   23.5216 C   0  0  0  0  0  0  0  0  0  0  0  0
   10.5521  -20.0671   24.4458 C   0  0  0  0  0  0  0  0  0  0  0  0
   11.3699  -20.9196   24.0145 O   0  0  0  0  0  0  0  0  0  0  0  0
   12.0963  -18.0211   27.3150 O   0  0  0  0  0  0  0  0  0  0  0  0
   12.6796  -19.2473   26.9612 C   0  0  0  0  0  0  0  0  0  0  0  0
   11.5425  -20.2272   26.7603 C   0  0  2  0  0  0  0  0  0  0  0  0
   10.6298  -19.6762   25.7900 N   0  0  0  0  0  0  0  0  0  0  0  0
   10.8965  -20.4224   28.0844 C   0  0  0  0  0  0  0  0  0  0  0  0
    9.7254  -20.0616   28.3270 O   0  0  0  0  0  0  0  0  0  0  0  0
   11.6377  -21.0306   29.0778 O   0  0  0  0  0  0  0  0  0  0  0  0
  2  1  1  0
  2  3  2  0
  4  3  1  0
  5  4  2  0
  6  5  1  0
  7  6  1  0
  7  8  1  6
  9  7  1  0
  9 13  1  0
 10  9  2  0
 11 12  2  0
 11  5  1  0
 12  2  1  0
 14 13  1  0
 14 15  1  0
 15 20  1  0
 16 15  2  0
 18 17  1  0
 19 21  1  0
 19 18  1  1
 20 19  1  0
 21 23  1  0
 22 21  2  0
M  END
$$$$
