YGS.pdb
     RDKit          3D

 23 23  0  0  1  0  0  0  0  0999 V2000
    7.3387  -12.1154   17.8704 O   0  0  0  0  0  0  0  0  0  0  0  0
    7.9290  -12.8620   18.8953 C   0  0  0  0  0  0  0  0  0  0  0  0
    7.1778  -13.4790   19.8726 C   0  0  0  0  0  0  0  0  0  0  0  0
    7.7829  -14.2100   20.8732 C   0  0  0  0  0  0  0  0  0  0  0  0
    9.1575  -14.3609   20.9483 C   0  0  0  0  0  0  0  0  0  0  0  0
    9.7985  -15.1554   22.0375 C   0  0  0  0  0  0  0  0  0  0  0  0
   10.4021  -16.3982   21.4172 C   0  0  2  0  0  0  0  0  0  0  0  0
    9.3210  -17.1215   20.7802 N   0  0  0  0  0  0  0  0  0  0  0  0
   11.0590  -17.2650   22.3909 C   0  0  0  0  0  0  0  0  0  0  0  0
   10.3534  -18.0593   23.0903 O   0  0  0  0  0  0  0  0  0  0  0  0
    9.9041  -13.7413   19.9676 C   0  0  0  0  0  0  0  0  0  0  0  0
    9.2990  -13.0103   18.9669 C   0  0  0  0  0  0  0  0  0  0  0  0
   12.4536  -17.2980   22.6299 N   0  0  0  0  0  0  0  0  0  0  0  0
   13.0209  -18.2837   23.4810 C   0  0  0  0  0  0  0  0  0  0  0  0
   13.0367  -17.8874   24.9153 C   0  0  0  0  0  0  0  0  0  0  0  0
   12.7475  -16.7051   25.2317 O   0  0  0  0  0  0  0  0  0  0  0  0
   10.6579  -19.0764   28.2909 O   0  0  0  0  0  0  0  0  0  0  0  0
   11.2476  -19.0937   27.0177 C   0  0  0  0  0  0  0  0  0  0  0  0
   12.7299  -18.8603   27.2224 C   0  0  2  0  0  0  0  0  0  0  0  0
   13.3659  -18.7969   25.9304 N   0  0  0  0  0  0  0  0  0  0  0  0
   13.2403  -19.9920   28.0394 C   0  0  0  0  0  0  0  0  0  0  0  0
   13.5356  -21.1025   27.5496 O   0  0  0  0  0  0  0  0  0  0  0  0
   13.3884  -19.7893   29.3970 O   0  0  0  0  0  0  0  0  0  0  0  0
  2  1  1  0
  2  3  2  0
  4  3  1  0
  5  4  2  0
  6  5  1  0
  7  6  1  0
  7  8  1  1
  9  7  1  0
  9 13  1  0
 10  9  2  0
 11 12  2  0
 11  5  1  0
 12  2  1  0
 14 13  1  0
 14 15  1  0
 15 20  1  0
 16 15  2  0
 18 17  1  0
 19 21  1  0
 19 18  1  6
 20 19  1  0
 21 23  1  0
 22 21  2  0
M  END
$$$$
