YGS.pdb
     RDKit          3D

 23 23  0  0  1  0  0  0  0  0999 V2000
   10.5712  -15.7839   30.2461 O   0  0  0  0  0  0  0  0  0  0  0  0
    9.9463  -15.3031   29.0908 C   0  0  0  0  0  0  0  0  0  0  0  0
   10.1135  -14.0049   28.6587 C   0  0  0  0  0  0  0  0  0  0  0  0
    9.4867  -13.5539   27.5162 C   0  0  0  0  0  0  0  0  0  0  0  0
    8.6677  -14.3694   26.7533 C   0  0  0  0  0  0  0  0  0  0  0  0
    7.9956  -13.8672   25.5186 C   0  0  0  0  0  0  0  0  0  0  0  0
    8.4570  -14.7196   24.3549 C   0  0  2  0  0  0  0  0  0  0  0  0
    9.8022  -15.1610   24.6602 N   0  0  0  0  0  0  0  0  0  0  0  0
    8.4578  -14.0032   23.0829 C   0  0  0  0  0  0  0  0  0  0  0  0
    8.7229  -12.7592   23.0715 O   0  0  0  0  0  0  0  0  0  0  0  0
    8.5040  -15.6676   27.1905 C   0  0  0  0  0  0  0  0  0  0  0  0
    9.1309  -16.1186   28.3331 C   0  0  0  0  0  0  0  0  0  0  0  0
    8.1809  -14.5913   21.8258 N   0  0  0  0  0  0  0  0  0  0  0  0
    8.1990  -13.8102   20.6394 C   0  0  0  0  0  0  0  0  0  0  0  0
    8.0218  -14.6144   19.3999 C   0  0  0  0  0  0  0  0  0  0  0  0
    7.9030  -15.8634   19.4868 O   0  0  0  0  0  0  0  0  0  0  0  0
    6.5056  -13.0849   15.9640 O   0  0  0  0  0  0  0  0  0  0  0  0
    7.7358  -13.7290   15.7621 C   0  0  0  0  0  0  0  0  0  0  0  0
    7.8884  -14.7351   16.8838 C   0  0  2  0  0  0  0  0  0  0  0  0
    7.9829  -14.0189   18.1311 N   0  0  0  0  0  0  0  0  0  0  0  0
    9.1166  -15.5221   16.5990 C   0  0  0  0  0  0  0  0  0  0  0  0
   10.1742  -15.3868   17.2498 O   0  0  0  0  0  0  0  0  0  0  0  0
    9.0684  -16.4378   15.5670 O   0  0  0  0  0  0  0  0  0  0  0  0
  2  1  1  0
  2  3  2  0
  4  3  1  0
  5  4  2  0
  6  5  1  0
  7  6  1  0
  7  8  1  1
  9  7  1  0
  9 13  1  0
 10  9  2  0
 11 12  2  0
 11  5  1  0
 12  2  1  0
 14 13  1  0
 14 15  1  0
 15 20  1  0
 16 15  2  0
 18 17  1  0
 19 21  1  0
 19 18  1  6
 20 19  1  0
 21 23  1  0
 22 21  2  0
M  END
$$$$
