IPQ.pdb
     RDKit          3D

 25 25  0  0  1  0  0  0  0  0999 V2000
   22.3877  -17.1310  -18.2747 C   0  0  0  0  0  0  0  0  0  0  0  0
   23.5786  -18.0179  -18.4175 C   0  0  0  0  0  0  0  0  0  0  0  0
   23.9409  -18.6329  -17.0820 C   0  0  2  0  0  0  0  0  0  0  0  0
   24.2704  -17.5017  -16.1359 C   0  0  0  0  0  0  0  0  0  0  0  0
   25.0892  -19.6048  -17.2275 C   0  0  2  0  0  0  0  0  0  0  0  0
   24.8238  -20.5095  -18.2915 N   0  0  0  0  0  0  0  0  0  0  0  0
   25.4926  -20.2071  -15.9503 C   0  0  0  0  0  0  0  0  0  0  0  0
   24.7844  -21.1340  -15.4516 O   0  0  0  0  0  0  0  0  0  0  0  0
   26.6437  -19.8376  -15.1890 N   0  0  0  0  0  0  0  0  0  0  0  0
   27.6121  -18.8062  -15.4881 C   0  0  0  0  0  0  0  0  0  0  0  0
   28.8689  -19.0774  -14.7170 C   0  0  0  0  0  0  0  0  0  0  0  0
   28.5413  -20.3213  -13.9198 C   0  0  0  0  0  0  0  0  0  0  0  0
   27.0603  -20.4410  -13.9344 C   0  0  1  0  0  0  0  0  0  0  0  0
   26.3748  -19.8503  -12.7738 C   0  0  0  0  0  0  0  0  0  0  0  0
   26.0097  -18.6488  -12.8400 O   0  0  0  0  0  0  0  0  0  0  0  0
   21.3653  -19.3470  -12.7872 N   0  0  0  0  0  0  0  0  0  0  0  0
   21.9031  -20.6522  -12.6027 C   0  0  0  0  0  0  0  0  0  0  0  0
   21.2453  -21.5861  -13.0968 O   0  0  0  0  0  0  0  0  0  0  0  0
   23.1489  -20.9047  -11.8769 C   0  0  0  0  0  0  0  0  0  0  0  0
   23.8908  -19.7702  -11.3015 C   0  0  0  0  0  0  0  0  0  0  0  0
   25.1615  -20.0776  -10.5613 C   0  0  2  0  0  0  0  0  0  0  0  0
   26.0966  -20.5542  -11.5750 N   0  0  0  0  0  0  0  0  0  0  0  0
   25.0377  -20.9068   -9.3837 C   0  0  0  0  0  0  0  0  0  0  0  0
   25.6676  -22.1380   -9.3280 O   0  0  0  0  0  0  0  0  0  0  0  0
   24.3628  -20.5429   -8.3973 O   0  0  0  0  0  0  0  0  0  0  0  0
  2  1  1  0
  2  3  1  0
  3  5  1  0
  3  4  1  1
  5  6  1  6
  7  5  1  0
  7  8  2  0
  9  7  1  0
 10  9  1  0
 10 11  1  0
 12 13  1  0
 12 11  1  0
 13  9  1  0
 13 14  1  1
 15 14  2  0
 16 17  1  0
 17 18  2  0
 19 17  1  0
 19 20  1  0
 21 20  1  6
 21 22  1  0
 22 14  1  0
 23 21  1  0
 23 24  1  0
 25 23  2  0
M  END
$$$$
