IPQ.pdb
     RDKit          3D

 25 25  0  0  1  0  0  0  0  0999 V2000
   16.0340  -10.3540  -17.5711 C   0  0  0  0  0  0  0  0  0  0  0  0
   17.3430  -10.4934  -16.8695 C   0  0  0  0  0  0  0  0  0  0  0  0
   17.2898   -9.8180  -15.5153 C   0  0  2  0  0  0  0  0  0  0  0  0
   17.1756   -8.3303  -15.7543 C   0  0  0  0  0  0  0  0  0  0  0  0
   18.5044  -10.1690  -14.6873 C   0  0  2  0  0  0  0  0  0  0  0  0
   18.7194  -11.5740  -14.7175 N   0  0  0  0  0  0  0  0  0  0  0  0
   18.4894   -9.5442  -13.3584 C   0  0  0  0  0  0  0  0  0  0  0  0
   17.7770  -10.0556  -12.4417 O   0  0  0  0  0  0  0  0  0  0  0  0
   19.2235   -8.3767  -12.9853 N   0  0  0  0  0  0  0  0  0  0  0  0
   20.1121   -7.5864  -13.8080 C   0  0  0  0  0  0  0  0  0  0  0  0
   21.0112   -6.7792  -12.9204 C   0  0  0  0  0  0  0  0  0  0  0  0
   20.5501   -7.1326  -11.5231 C   0  0  0  0  0  0  0  0  0  0  0  0
   19.2052   -7.7456  -11.6764 C   0  0  1  0  0  0  0  0  0  0  0  0
   18.0743   -6.8173  -11.5178 C   0  0  0  0  0  0  0  0  0  0  0  0
   17.7412   -6.1042  -12.4986 O   0  0  0  0  0  0  0  0  0  0  0  0
   12.4531   -7.9043   -9.1830 N   0  0  0  0  0  0  0  0  0  0  0  0
   13.5824   -7.9120   -8.3160 C   0  0  0  0  0  0  0  0  0  0  0  0
   13.4474   -8.5451   -7.2530 O   0  0  0  0  0  0  0  0  0  0  0  0
   14.8338   -7.2219   -8.6325 C   0  0  0  0  0  0  0  0  0  0  0  0
   15.0011   -6.6042   -9.9588 C   0  0  0  0  0  0  0  0  0  0  0  0
   16.2139   -5.7440  -10.1741 C   0  0  2  0  0  0  0  0  0  0  0  0
   17.3291   -6.6735  -10.3203 N   0  0  0  0  0  0  0  0  0  0  0  0
   16.4159   -4.6662   -9.2322 C   0  0  0  0  0  0  0  0  0  0  0  0
   17.4641   -4.7156   -8.3297 O   0  0  0  0  0  0  0  0  0  0  0  0
   15.6567   -3.6744   -9.2026 O   0  0  0  0  0  0  0  0  0  0  0  0
  2  1  1  0
  2  3  1  0
  3  5  1  0
  3  4  1  6
  5  6  1  1
  7  5  1  0
  7  8  2  0
  9  7  1  0
 10  9  1  0
 10 11  1  0
 12 13  1  0
 12 11  1  0
 13  9  1  0
 13 14  1  6
 15 14  2  0
 16 17  1  0
 17 18  2  0
 19 17  1  0
 19 20  1  0
 21 20  1  1
 21 22  1  0
 22 14  1  0
 23 21  1  0
 23 24  1  0
 25 23  2  0
M  END
$$$$
