IPQ.pdb
     RDKit          3D

 25 25  0  0  1  0  0  0  0  0999 V2000
   19.8080  -18.4476    0.2906 C   0  0  0  0  0  0  0  0  0  0  0  0
   18.6922  -19.2393    0.8853 C   0  0  0  0  0  0  0  0  0  0  0  0
   18.3014  -18.6697    2.2327 C   0  0  2  0  0  0  0  0  0  0  0  0
   19.5026  -18.7894    3.1417 C   0  0  0  0  0  0  0  0  0  0  0  0
   17.0922  -19.3832    2.7919 C   0  0  2  0  0  0  0  0  0  0  0  0
   16.0879  -19.4877    1.7910 N   0  0  0  0  0  0  0  0  0  0  0  0
   16.6610  -18.8455    4.0886 C   0  0  0  0  0  0  0  0  0  0  0  0
   15.7615  -17.9515    4.1202 O   0  0  0  0  0  0  0  0  0  0  0  0
   17.1740  -19.2445    5.3610 N   0  0  0  0  0  0  0  0  0  0  0  0
   18.0708  -20.3408    5.6522 C   0  0  0  0  0  0  0  0  0  0  0  0
   17.9627  -20.6875    7.1069 C   0  0  0  0  0  0  0  0  0  0  0  0
   16.9649  -19.6842    7.6432 C   0  0  0  0  0  0  0  0  0  0  0  0
   16.8881  -18.5989    6.6311 C   0  0  1  0  0  0  0  0  0  0  0  0
   17.7673  -17.4461    6.8840 C   0  0  0  0  0  0  0  0  0  0  0  0
   18.7842  -17.2967    6.1596 O   0  0  0  0  0  0  0  0  0  0  0  0
   19.0523  -11.9729    4.2158 N   0  0  0  0  0  0  0  0  0  0  0  0
   18.0278  -12.5890    4.9891 C   0  0  0  0  0  0  0  0  0  0  0  0
   16.8908  -12.5898    4.4830 O   0  0  0  0  0  0  0  0  0  0  0  0
   18.2726  -13.1874    6.3023 C   0  0  0  0  0  0  0  0  0  0  0  0
   17.8393  -14.5717    6.5560 C   0  0  0  0  0  0  0  0  0  0  0  0
   18.1498  -15.1587    7.9037 C   0  0  2  0  0  0  0  0  0  0  0  0
   17.5402  -16.4843    7.9005 N   0  0  0  0  0  0  0  0  0  0  0  0
   17.8488  -14.3333    9.0516 C   0  0  0  0  0  0  0  0  0  0  0  0
   16.8219  -14.6819    9.9116 O   0  0  0  0  0  0  0  0  0  0  0  0
   18.4953  -13.2921    9.2944 O   0  0  0  0  0  0  0  0  0  0  0  0
  2  1  1  0
  2  3  1  0
  3  5  1  0
  3  4  1  1
  5  6  1  6
  7  5  1  0
  7  8  2  0
  9  7  1  0
 10  9  1  0
 10 11  1  0
 12 13  1  0
 12 11  1  0
 13  9  1  0
 13 14  1  1
 15 14  2  0
 16 17  1  0
 17 18  2  0
 19 17  1  0
 19 20  1  0
 21 20  1  6
 21 22  1  0
 22 14  1  0
 23 21  1  0
 23 24  1  0
 25 23  2  0
M  END
$$$$
