IPQ.pdb
     RDKit          3D

 25 25  0  0  1  0  0  0  0  0999 V2000
   22.1087  -11.2980    7.9994 C   0  0  0  0  0  0  0  0  0  0  0  0
   20.8162  -11.0887    7.2847 C   0  0  0  0  0  0  0  0  0  0  0  0
   19.9617  -12.3362    7.3645 C   0  0  2  0  0  0  0  0  0  0  0  0
   20.7214  -13.4510    6.6839 C   0  0  0  0  0  0  0  0  0  0  0  0
   18.6068  -12.1053    6.7358 C   0  0  2  0  0  0  0  0  0  0  0  0
   17.9551  -11.0181    7.3794 N   0  0  0  0  0  0  0  0  0  0  0  0
   17.8238  -13.3400    6.5975 C   0  0  0  0  0  0  0  0  0  0  0  0
   17.3511  -13.8932    7.6366 O   0  0  0  0  0  0  0  0  0  0  0  0
   17.5335  -14.0011    5.3647 N   0  0  0  0  0  0  0  0  0  0  0  0
   17.9987  -13.6539    4.0403 C   0  0  0  0  0  0  0  0  0  0  0  0
   17.0966  -14.2871    3.0238 C   0  0  0  0  0  0  0  0  0  0  0  0
   16.0977  -15.0581    3.8591 C   0  0  0  0  0  0  0  0  0  0  0  0
   16.7010  -15.1823    5.2113 C   0  0  1  0  0  0  0  0  0  0  0  0
   17.4469  -16.4283    5.4501 C   0  0  0  0  0  0  0  0  0  0  0  0
   18.6876  -16.4334    5.2456 O   0  0  0  0  0  0  0  0  0  0  0  0
   17.1952  -19.5472   10.6161 N   0  0  0  0  0  0  0  0  0  0  0  0
   17.9520  -20.4076    9.7711 C   0  0  0  0  0  0  0  0  0  0  0  0
   18.5069  -21.3700   10.3320 O   0  0  0  0  0  0  0  0  0  0  0  0
   18.0864  -20.1910    8.3297 C   0  0  0  0  0  0  0  0  0  0  0  0
   17.4413  -19.0196    7.7132 C   0  0  0  0  0  0  0  0  0  0  0  0
   17.6160  -18.8318    6.2329 C   0  0  2  0  0  0  0  0  0  0  0  0
   16.8521  -17.6341    5.8999 N   0  0  0  0  0  0  0  0  0  0  0  0
   17.3633  -19.9873    5.4018 C   0  0  0  0  0  0  0  0  0  0  0  0
   18.3282  -20.9695    5.2606 O   0  0  0  0  0  0  0  0  0  0  0  0
   16.2827  -20.1281    4.7908 O   0  0  0  0  0  0  0  0  0  0  0  0
  2  1  1  0
  2  3  1  0
  3  5  1  0
  3  4  1  6
  5  6  1  1
  7  5  1  0
  7  8  2  0
  9  7  1  0
 10  9  1  0
 10 11  1  0
 12 13  1  0
 12 11  1  0
 13  9  1  0
 13 14  1  6
 15 14  2  0
 16 17  1  0
 17 18  2  0
 19 17  1  0
 19 20  1  0
 21 20  1  1
 21 22  1  0
 22 14  1  0
 23 21  1  0
 23 24  1  0
 25 23  2  0
M  END
$$$$
