IPQ.pdb
     RDKit          3D

 25 25  0  0  1  0  0  0  0  0999 V2000
   17.4544  -20.3962  -13.1404 C   0  0  0  0  0  0  0  0  0  0  0  0
   18.7980  -21.0442  -13.1447 C   0  0  0  0  0  0  0  0  0  0  0  0
   19.8715  -20.0342  -12.7982 C   0  0  2  0  0  0  0  0  0  0  0  0
   19.9207  -19.0216  -13.9187 C   0  0  0  0  0  0  0  0  0  0  0  0
   21.2052  -20.7129  -12.5866 C   0  0  2  0  0  0  0  0  0  0  0  0
   21.6708  -21.2556  -13.8153 N   0  0  0  0  0  0  0  0  0  0  0  0
   21.2059  -21.6235  -11.4344 C   0  0  0  0  0  0  0  0  0  0  0  0
   21.0596  -22.8685  -11.6289 O   0  0  0  0  0  0  0  0  0  0  0  0
   21.3600  -21.2299  -10.0697 N   0  0  0  0  0  0  0  0  0  0  0  0
   21.4937  -19.8903   -9.5419 C   0  0  0  0  0  0  0  0  0  0  0  0
   22.1001  -19.9627   -8.1726 C   0  0  0  0  0  0  0  0  0  0  0  0
   22.2714  -21.4470   -7.9324 C   0  0  0  0  0  0  0  0  0  0  0  0
   21.4032  -22.1277   -8.9278 C   0  0  1  0  0  0  0  0  0  0  0  0
   20.0597  -22.4841   -8.4441 C   0  0  0  0  0  0  0  0  0  0  0  0
   19.1260  -21.6569   -8.6026 O   0  0  0  0  0  0  0  0  0  0  0  0
   17.2491  -27.6912   -9.8366 N   0  0  0  0  0  0  0  0  0  0  0  0
   16.2818  -26.8085   -9.2779 C   0  0  0  0  0  0  0  0  0  0  0  0
   15.0910  -27.1179   -9.4650 O   0  0  0  0  0  0  0  0  0  0  0  0
   16.6423  -25.6035   -8.5291 C   0  0  0  0  0  0  0  0  0  0  0  0
   18.0643  -25.2739   -8.3344 C   0  0  0  0  0  0  0  0  0  0  0  0
   18.3893  -24.1066   -7.4462 C   0  0  2  0  0  0  0  0  0  0  0  0
   19.7469  -23.7106   -7.8055 N   0  0  0  0  0  0  0  0  0  0  0  0
   18.1412  -24.2824   -6.0330 C   0  0  0  0  0  0  0  0  0  0  0  0
   16.8579  -24.1591   -5.5294 O   0  0  0  0  0  0  0  0  0  0  0  0
   19.0669  -24.5422   -5.2352 O   0  0  0  0  0  0  0  0  0  0  0  0
  2  1  1  0
  2  3  1  0
  3  5  1  0
  3  4  1  6
  5  6  1  6
  7  5  1  0
  7  8  2  0
  9  7  1  0
 10  9  1  0
 10 11  1  0
 12 13  1  0
 12 11  1  0
 13  9  1  0
 13 14  1  1
 15 14  2  0
 16 17  1  0
 17 18  2  0
 19 17  1  0
 19 20  1  0
 21 20  1  6
 21 22  1  0
 22 14  1  0
 23 21  1  0
 23 24  1  0
 25 23  2  0
M  END
$$$$
