IPQ.pdb
     RDKit          3D

 25 25  0  0  1  0  0  0  0  0999 V2000
   28.3325  -17.5853  -16.7743 C   0  0  0  0  0  0  0  0  0  0  0  0
   28.5526  -18.7441  -15.8610 C   0  0  0  0  0  0  0  0  0  0  0  0
   27.2524  -19.1464  -15.1972 C   0  0  2  0  0  0  0  0  0  0  0  0
   26.8946  -18.0632  -14.2063 C   0  0  0  0  0  0  0  0  0  0  0  0
   27.3776  -20.5007  -14.5381 C   0  0  2  0  0  0  0  0  0  0  0  0
   28.0111  -21.4127  -15.4259 N   0  0  0  0  0  0  0  0  0  0  0  0
   26.1223  -20.9568  -13.9277 C   0  0  0  0  0  0  0  0  0  0  0  0
   25.2806  -21.5855  -14.6387 O   0  0  0  0  0  0  0  0  0  0  0  0
   25.7439  -20.7538  -12.5651 N   0  0  0  0  0  0  0  0  0  0  0  0
   26.4720  -20.0421  -11.5383 C   0  0  0  0  0  0  0  0  0  0  0  0
   25.9711  -20.4767  -10.1936 C   0  0  0  0  0  0  0  0  0  0  0  0
   24.8722  -21.4644  -10.5204 C   0  0  0  0  0  0  0  0  0  0  0  0
   24.5194  -21.2309  -11.9448 C   0  0  1  0  0  0  0  0  0  0  0  0
   23.3867  -20.3177  -12.1658 C   0  0  0  0  0  0  0  0  0  0  0  0
   23.5999  -19.0788  -12.1346 O   0  0  0  0  0  0  0  0  0  0  0  0
   20.2200  -18.7354  -16.6368 N   0  0  0  0  0  0  0  0  0  0  0  0
   21.2862  -19.6536  -16.4194 C   0  0  0  0  0  0  0  0  0  0  0  0
   21.6769  -20.2801  -17.4212 O   0  0  0  0  0  0  0  0  0  0  0  0
   21.8979  -19.8669  -15.1068 C   0  0  0  0  0  0  0  0  0  0  0  0
   21.4259  -19.0803  -13.9549 C   0  0  0  0  0  0  0  0  0  0  0  0
   20.9666  -19.8371  -12.7409 C   0  0  2  0  0  0  0  0  0  0  0  0
   22.0588  -20.7478  -12.4141 N   0  0  0  0  0  0  0  0  0  0  0  0
   19.6524  -20.4349  -12.8124 C   0  0  0  0  0  0  0  0  0  0  0  0
   18.5259  -19.6352  -12.8972 O   0  0  0  0  0  0  0  0  0  0  0  0
   19.4974  -21.6745  -12.7946 O   0  0  0  0  0  0  0  0  0  0  0  0
  2  1  1  0
  2  3  1  0
  3  5  1  0
  3  4  1  1
  5  6  1  6
  7  5  1  0
  7  8  2  0
  9  7  1  0
 10  9  1  0
 10 11  1  0
 12 13  1  0
 12 11  1  0
 13  9  1  0
 13 14  1  1
 15 14  2  0
 16 17  1  0
 17 18  2  0
 19 17  1  0
 19 20  1  0
 21 20  1  6
 21 22  1  0
 22 14  1  0
 23 21  1  0
 23 24  1  0
 25 23  2  0
M  END
$$$$
