IPQ.pdb
     RDKit          3D

 25 25  0  0  1  0  0  0  0  0999 V2000
   16.5611  -12.3892  -17.2901 C   0  0  0  0  0  0  0  0  0  0  0  0
   18.0317  -12.1456  -17.2328 C   0  0  0  0  0  0  0  0  0  0  0  0
   18.3366  -10.9705  -16.3278 C   0  0  2  0  0  0  0  0  0  0  0  0
   17.7413   -9.7381  -16.9681 C   0  0  0  0  0  0  0  0  0  0  0  0
   19.8247  -10.8320  -16.1033 C   0  0  2  0  0  0  0  0  0  0  0  0
   20.3860  -12.1007  -15.7928 N   0  0  0  0  0  0  0  0  0  0  0  0
   20.1646   -9.7323  -15.1913 C   0  0  0  0  0  0  0  0  0  0  0  0
   19.9025   -9.8491  -13.9556 O   0  0  0  0  0  0  0  0  0  0  0  0
   20.7820   -8.5020  -15.5737 N   0  0  0  0  0  0  0  0  0  0  0  0
   21.1887   -8.0869  -16.8978 C   0  0  0  0  0  0  0  0  0  0  0  0
   22.1957   -6.9828  -16.7761 C   0  0  0  0  0  0  0  0  0  0  0  0
   22.3121   -6.7641  -15.2832 C   0  0  0  0  0  0  0  0  0  0  0  0
   21.1164   -7.4068  -14.6789 C   0  0  1  0  0  0  0  0  0  0  0  0
   19.9758   -6.5071  -14.4438 C   0  0  0  0  0  0  0  0  0  0  0  0
   18.8643   -6.8018  -14.9528 O   0  0  0  0  0  0  0  0  0  0  0  0
   16.3730   -5.3970  -10.0801 N   0  0  0  0  0  0  0  0  0  0  0  0
   17.6839   -5.9500  -10.1307 C   0  0  0  0  0  0  0  0  0  0  0  0
   18.1143   -6.4268   -9.0647 O   0  0  0  0  0  0  0  0  0  0  0  0
   18.4954   -5.9645  -11.3488 C   0  0  0  0  0  0  0  0  0  0  0  0
   17.9632   -5.3510  -12.5772 C   0  0  0  0  0  0  0  0  0  0  0  0
   18.8923   -4.4813  -13.3757 C   0  0  2  0  0  0  0  0  0  0  0  0
   20.0492   -5.3191  -13.6737 N   0  0  0  0  0  0  0  0  0  0  0  0
   19.1878   -3.1775  -12.8258 C   0  0  0  0  0  0  0  0  0  0  0  0
   18.1892   -2.2261  -12.7113 O   0  0  0  0  0  0  0  0  0  0  0  0
   20.3393   -2.8743  -12.4478 O   0  0  0  0  0  0  0  0  0  0  0  0
  2  1  1  0
  2  3  1  0
  3  5  1  0
  3  4  1  6
  5  6  1  1
  7  5  1  0
  7  8  2  0
  9  7  1  0
 10  9  1  0
 10 11  1  0
 12 13  1  0
 12 11  1  0
 13  9  1  0
 13 14  1  6
 15 14  2  0
 16 17  1  0
 17 18  2  0
 19 17  1  0
 19 20  1  0
 21 20  1  1
 21 22  1  0
 22 14  1  0
 23 21  1  0
 23 24  1  0
 25 23  2  0
M  END
$$$$
