IPQ.pdb
     RDKit          3D

 25 25  0  0  1  0  0  0  0  0999 V2000
   16.4079  -14.1223  -18.2649 C   0  0  0  0  0  0  0  0  0  0  0  0
   17.7947  -13.9732  -18.7939 C   0  0  0  0  0  0  0  0  0  0  0  0
   18.5028  -12.8279  -18.1012 C   0  0  2  0  0  0  0  0  0  0  0  0
   17.7342  -11.5646  -18.4124 C   0  0  0  0  0  0  0  0  0  0  0  0
   19.9458  -12.7382  -18.5414 C   0  0  2  0  0  0  0  0  0  0  0  0
   20.5634  -14.0141  -18.4334 N   0  0  0  0  0  0  0  0  0  0  0  0
   20.6630  -11.6166  -17.9216 C   0  0  0  0  0  0  0  0  0  0  0  0
   20.9734  -11.6829  -16.6934 O   0  0  0  0  0  0  0  0  0  0  0  0
   21.0580  -10.4173  -18.5901 N   0  0  0  0  0  0  0  0  0  0  0  0
   20.8186  -10.0489  -19.9678 C   0  0  0  0  0  0  0  0  0  0  0  0
   21.7888   -8.9762  -20.3626 C   0  0  0  0  0  0  0  0  0  0  0  0
   22.5817   -8.7245  -19.0985 C   0  0  0  0  0  0  0  0  0  0  0  0
   21.7858   -9.3120  -17.9897 C   0  0  1  0  0  0  0  0  0  0  0  0
   20.8970   -8.3693  -17.2917 C   0  0  0  0  0  0  0  0  0  0  0  0
   19.7365   -8.1929  -17.7425 O   0  0  0  0  0  0  0  0  0  0  0  0
   20.0784   -8.4161  -11.4085 N   0  0  0  0  0  0  0  0  0  0  0  0
   19.5145   -9.0444  -12.5548 C   0  0  0  0  0  0  0  0  0  0  0  0
   18.9744  -10.1485  -12.3591 O   0  0  0  0  0  0  0  0  0  0  0  0
   19.5586   -8.4494  -13.8914 C   0  0  0  0  0  0  0  0  0  0  0  0
   20.2211   -7.1478  -14.0797 C   0  0  0  0  0  0  0  0  0  0  0  0
   20.4006   -6.6595  -15.4892 C   0  0  2  0  0  0  0  0  0  0  0  0
   21.2675   -7.6407  -16.1333 N   0  0  0  0  0  0  0  0  0  0  0  0
   20.7923   -5.2772  -15.6481 C   0  0  0  0  0  0  0  0  0  0  0  0
   19.8892   -4.2616  -15.3863 O   0  0  0  0  0  0  0  0  0  0  0  0
   21.9410   -4.9637  -16.0265 O   0  0  0  0  0  0  0  0  0  0  0  0
  2  1  1  0
  2  3  1  0
  3  5  1  0
  3  4  1  6
  5  6  1  1
  7  5  1  0
  7  8  2  0
  9  7  1  0
 10  9  1  0
 10 11  1  0
 12 13  1  0
 12 11  1  0
 13  9  1  0
 13 14  1  6
 15 14  2  0
 16 17  1  0
 17 18  2  0
 19 17  1  0
 19 20  1  0
 21 20  1  1
 21 22  1  0
 22 14  1  0
 23 21  1  0
 23 24  1  0
 25 23  2  0
M  END
$$$$
