IPQ.pdb
     RDKit          3D

 25 25  0  0  1  0  0  0  0  0999 V2000
   17.0659  -13.0835  -18.6101 C   0  0  0  0  0  0  0  0  0  0  0  0
   18.2524  -12.8674  -19.4882 C   0  0  0  0  0  0  0  0  0  0  0  0
   19.1066  -11.7381  -18.9516 C   0  0  2  0  0  0  0  0  0  0  0  0
   18.2690  -10.4808  -18.9835 C   0  0  0  0  0  0  0  0  0  0  0  0
   20.3792  -11.5938  -19.7540 C   0  0  2  0  0  0  0  0  0  0  0  0
   21.0181  -12.8578  -19.8769 N   0  0  0  0  0  0  0  0  0  0  0  0
   21.2224  -10.4837  -19.2921 C   0  0  0  0  0  0  0  0  0  0  0  0
   22.0173  -10.6720  -18.3216 O   0  0  0  0  0  0  0  0  0  0  0  0
   21.2345   -9.1678  -19.8483 N   0  0  0  0  0  0  0  0  0  0  0  0
   20.4641   -8.6694  -20.9659 C   0  0  0  0  0  0  0  0  0  0  0  0
   21.1205   -7.4311  -21.4985 C   0  0  0  0  0  0  0  0  0  0  0  0
   22.3067   -7.2288  -20.5808 C   0  0  0  0  0  0  0  0  0  0  0  0
   22.0390   -8.0541  -19.3745 C   0  0  1  0  0  0  0  0  0  0  0  0
   21.4024   -7.3385  -18.2572 C   0  0  0  0  0  0  0  0  0  0  0  0
   20.1467   -7.2882  -18.2145 O   0  0  0  0  0  0  0  0  0  0  0  0
   21.5513   -9.0670  -12.7348 N   0  0  0  0  0  0  0  0  0  0  0  0
   21.0133   -7.7585  -12.5754 C   0  0  0  0  0  0  0  0  0  0  0  0
   20.5312   -7.5014  -11.4572 O   0  0  0  0  0  0  0  0  0  0  0  0
   21.0127   -6.7620  -13.6475 C   0  0  0  0  0  0  0  0  0  0  0  0
   21.5546   -7.1234  -14.9682 C   0  0  0  0  0  0  0  0  0  0  0  0
   21.4786   -6.0885  -16.0548 C   0  0  2  0  0  0  0  0  0  0  0  0
   22.1194   -6.6963  -17.2163 N   0  0  0  0  0  0  0  0  0  0  0  0
   21.9324   -4.7594  -15.7127 C   0  0  0  0  0  0  0  0  0  0  0  0
   21.0541   -3.8426  -15.1618 O   0  0  0  0  0  0  0  0  0  0  0  0
   23.1141   -4.4030  -15.9069 O   0  0  0  0  0  0  0  0  0  0  0  0
  2  1  1  0
  2  3  1  0
  3  5  1  0
  3  4  1  6
  5  6  1  1
  7  5  1  0
  7  8  2  0
  9  7  1  0
 10  9  1  0
 10 11  1  0
 12 13  1  0
 12 11  1  0
 13  9  1  0
 13 14  1  1
 15 14  2  0
 16 17  1  0
 17 18  2  0
 19 17  1  0
 19 20  1  0
 21 20  1  1
 21 22  1  0
 22 14  1  0
 23 21  1  0
 23 24  1  0
 25 23  2  0
M  END
$$$$
