IPQ.pdb
     RDKit          3D

 25 25  0  0  1  0  0  0  0  0999 V2000
   12.9068  -12.4542  -15.3589 C   0  0  0  0  0  0  0  0  0  0  0  0
   14.3423  -12.1679  -15.6465 C   0  0  0  0  0  0  0  0  0  0  0  0
   14.9493  -11.3437  -14.5306 C   0  0  2  0  0  0  0  0  0  0  0  0
   14.2476  -10.0054  -14.5217 C   0  0  0  0  0  0  0  0  0  0  0  0
   16.4427  -11.2012  -14.7137 C   0  0  2  0  0  0  0  0  0  0  0  0
   17.0227  -12.4760  -14.9581 N   0  0  0  0  0  0  0  0  0  0  0  0
   17.0724  -10.3938  -13.6611 C   0  0  0  0  0  0  0  0  0  0  0  0
   17.2790  -10.9133  -12.5223 O   0  0  0  0  0  0  0  0  0  0  0  0
   17.4885   -9.0341  -13.7995 N   0  0  0  0  0  0  0  0  0  0  0  0
   17.5194   -8.2335  -15.0033 C   0  0  0  0  0  0  0  0  0  0  0  0
   18.4471   -7.0742  -14.7955 C   0  0  0  0  0  0  0  0  0  0  0  0
   18.9206   -7.2428  -13.3681 C   0  0  0  0  0  0  0  0  0  0  0  0
   17.9623   -8.1785  -12.7246 C   0  0  1  0  0  0  0  0  0  0  0  0
   16.8591   -7.5363  -11.9921 C   0  0  0  0  0  0  0  0  0  0  0  0
   15.6896   -7.6639  -12.4361 O   0  0  0  0  0  0  0  0  0  0  0  0
   13.4255   -9.7857   -8.8167 N   0  0  0  0  0  0  0  0  0  0  0  0
   13.2350   -8.4892   -8.2601 C   0  0  0  0  0  0  0  0  0  0  0  0
   12.3378   -8.3920   -7.4030 O   0  0  0  0  0  0  0  0  0  0  0  0
   14.0305   -7.3270   -8.6587 C   0  0  0  0  0  0  0  0  0  0  0  0
   15.1130   -7.4971   -9.6424 C   0  0  0  0  0  0  0  0  0  0  0  0
   15.9197   -6.2816  -10.0017 C   0  0  2  0  0  0  0  0  0  0  0  0
   17.0308   -6.7765  -10.8076 N   0  0  0  0  0  0  0  0  0  0  0  0
   16.2786   -5.4007   -8.9133 C   0  0  0  0  0  0  0  0  0  0  0  0
   17.5032   -5.5343   -8.2823 O   0  0  0  0  0  0  0  0  0  0  0  0
   15.5015   -4.5083   -8.5125 O   0  0  0  0  0  0  0  0  0  0  0  0
  2  1  1  0
  2  3  1  0
  3  5  1  0
  3  4  1  6
  5  6  1  1
  7  5  1  0
  7  8  2  0
  9  7  1  0
 10  9  1  0
 10 11  1  0
 12 13  1  0
 12 11  1  0
 13  9  1  0
 13 14  1  6
 15 14  2  0
 16 17  1  0
 17 18  2  0
 19 17  1  0
 19 20  1  0
 21 20  1  1
 21 22  1  0
 22 14  1  0
 23 21  1  0
 23 24  1  0
 25 23  2  0
M  END
$$$$
