IPQ.pdb
     RDKit          3D

 25 25  0  0  1  0  0  0  0  0999 V2000
   28.0761  -16.6841  -17.2514 C   0  0  0  0  0  0  0  0  0  0  0  0
   28.4818  -17.7955  -16.3428 C   0  0  0  0  0  0  0  0  0  0  0  0
   27.2637  -18.4135  -15.6893 C   0  0  2  0  0  0  0  0  0  0  0  0
   26.8586  -17.5153  -14.5436 C   0  0  0  0  0  0  0  0  0  0  0  0
   27.5527  -19.8243  -15.2308 C   0  0  2  0  0  0  0  0  0  0  0  0
   28.2652  -20.5241  -16.2425 N   0  0  0  0  0  0  0  0  0  0  0  0
   26.3688  -20.5012  -14.6858 C   0  0  0  0  0  0  0  0  0  0  0  0
   25.5271  -21.0151  -15.4837 O   0  0  0  0  0  0  0  0  0  0  0  0
   26.0625  -20.6413  -13.2974 N   0  0  0  0  0  0  0  0  0  0  0  0
   26.8112  -20.1367  -12.1679 C   0  0  0  0  0  0  0  0  0  0  0  0
   26.4163  -20.9000  -10.9394 C   0  0  0  0  0  0  0  0  0  0  0  0
   25.3550  -21.8577  -11.4358 C   0  0  0  0  0  0  0  0  0  0  0  0
   24.9051  -21.3284  -12.7494 C   0  0  1  0  0  0  0  0  0  0  0  0
   23.7133  -20.4665  -12.7001 C   0  0  0  0  0  0  0  0  0  0  0  0
   23.8745  -19.2193  -12.6947 O   0  0  0  0  0  0  0  0  0  0  0  0
   19.0885  -19.8780  -15.7805 N   0  0  0  0  0  0  0  0  0  0  0  0
   20.3768  -20.3452  -16.1666 C   0  0  0  0  0  0  0  0  0  0  0  0
   20.4265  -20.9820  -17.2347 O   0  0  0  0  0  0  0  0  0  0  0  0
   21.5817  -20.1065  -15.3706 C   0  0  0  0  0  0  0  0  0  0  0  0
   21.4779  -19.3406  -14.1171 C   0  0  0  0  0  0  0  0  0  0  0  0
   21.2097  -20.1107  -12.8552 C   0  0  2  0  0  0  0  0  0  0  0  0
   22.3831  -20.9552  -12.6580 N   0  0  0  0  0  0  0  0  0  0  0  0
   19.9326  -20.7822  -12.7683 C   0  0  0  0  0  0  0  0  0  0  0  0
   19.8672  -22.1643  -12.8045 O   0  0  0  0  0  0  0  0  0  0  0  0
   18.8645  -20.1424  -12.6647 O   0  0  0  0  0  0  0  0  0  0  0  0
  2  1  1  0
  2  3  1  0
  3  5  1  0
  3  4  1  1
  5  6  1  6
  7  5  1  0
  7  8  2  0
  9  7  1  0
 10  9  1  0
 10 11  1  0
 12 13  1  0
 12 11  1  0
 13  9  1  0
 13 14  1  1
 15 14  2  0
 16 17  1  0
 17 18  2  0
 19 17  1  0
 19 20  1  0
 21 20  1  6
 21 22  1  0
 22 14  1  0
 23 21  1  0
 23 24  1  0
 25 23  2  0
M  END
$$$$
