IPQ.pdb
     RDKit          3D

 25 25  0  0  1  0  0  0  0  0999 V2000
   26.0629  -19.9989   -8.7505 C   0  0  0  0  0  0  0  0  0  0  0  0
   26.5273  -20.7374   -9.9605 C   0  0  0  0  0  0  0  0  0  0  0  0
   25.5353  -20.5711  -11.0925 C   0  0  2  0  0  0  0  0  0  0  0  0
   24.2440  -21.2289  -10.6646 C   0  0  0  0  0  0  0  0  0  0  0  0
   26.0749  -21.1596  -12.3757 C   0  0  2  0  0  0  0  0  0  0  0  0
   27.4174  -20.7359  -12.5739 N   0  0  0  0  0  0  0  0  0  0  0  0
   25.1641  -20.9798  -13.5135 C   0  0  0  0  0  0  0  0  0  0  0  0
   25.1036  -19.8492  -14.0858 O   0  0  0  0  0  0  0  0  0  0  0  0
   24.3102  -21.9884  -14.0565 N   0  0  0  0  0  0  0  0  0  0  0  0
   24.1812  -23.3648  -13.6324 C   0  0  0  0  0  0  0  0  0  0  0  0
   23.5643  -24.1624  -14.7420 C   0  0  0  0  0  0  0  0  0  0  0  0
   23.3107  -23.1366  -15.8253 C   0  0  0  0  0  0  0  0  0  0  0  0
   23.3818  -21.8097  -15.1601 C   0  0  1  0  0  0  0  0  0  0  0  0
   22.0886  -21.2613  -14.7212 C   0  0  0  0  0  0  0  0  0  0  0  0
   21.8840  -21.1203  -13.4885 O   0  0  0  0  0  0  0  0  0  0  0  0
   19.5538  -16.0282  -15.3834 N   0  0  0  0  0  0  0  0  0  0  0  0
   20.6807  -16.6174  -16.0238 C   0  0  0  0  0  0  0  0  0  0  0  0
   21.2492  -15.9143  -16.8789 O   0  0  0  0  0  0  0  0  0  0  0  0
   21.1569  -17.9665  -15.7144 C   0  0  0  0  0  0  0  0  0  0  0  0
   20.4260  -18.7809  -14.7291 C   0  0  0  0  0  0  0  0  0  0  0  0
   19.8841  -20.1043  -15.1899 C   0  0  2  0  0  0  0  0  0  0  0  0
   21.0490  -20.8782  -15.6057 N   0  0  0  0  0  0  0  0  0  0  0  0
   18.7913  -20.0600  -16.1352 C   0  0  0  0  0  0  0  0  0  0  0  0
   17.5340  -19.6474  -15.7293 O   0  0  0  0  0  0  0  0  0  0  0  0
   18.9471  -20.3936  -17.3290 O   0  0  0  0  0  0  0  0  0  0  0  0
  2  1  1  0
  2  3  1  0
  3  5  1  0
  3  4  1  1
  5  6  1  6
  7  5  1  0
  7  8  2  0
  9  7  1  0
 10  9  1  0
 10 11  1  0
 12 13  1  0
 12 11  1  0
 13  9  1  0
 13 14  1  1
 15 14  2  0
 16 17  1  0
 17 18  2  0
 19 17  1  0
 19 20  1  0
 21 20  1  6
 21 22  1  0
 22 14  1  0
 23 21  1  0
 23 24  1  0
 25 23  2  0
M  END
$$$$
