IPQ.pdb
     RDKit          3D

 25 25  0  0  1  0  0  0  0  0999 V2000
   24.7271  -21.0423   -8.1169 C   0  0  0  0  0  0  0  0  0  0  0  0
   24.9331  -19.8822   -9.0319 C   0  0  0  0  0  0  0  0  0  0  0  0
   24.9439  -20.3438  -10.4741 C   0  0  2  0  0  0  0  0  0  0  0  0
   26.0787  -21.3300  -10.6264 C   0  0  0  0  0  0  0  0  0  0  0  0
   25.0802  -19.1705  -11.4169 C   0  0  2  0  0  0  0  0  0  0  0  0
   24.0987  -18.1887  -11.1104 N   0  0  0  0  0  0  0  0  0  0  0  0
   25.1722  -19.5773  -12.8249 C   0  0  0  0  0  0  0  0  0  0  0  0
   24.1225  -19.5852  -13.5371 O   0  0  0  0  0  0  0  0  0  0  0  0
   26.3695  -19.9791  -13.4929 N   0  0  0  0  0  0  0  0  0  0  0  0
   27.6998  -20.0940  -12.9377 C   0  0  0  0  0  0  0  0  0  0  0  0
   28.6993  -20.0706  -14.0550 C   0  0  0  0  0  0  0  0  0  0  0  0
   27.8454  -19.9725  -15.3005 C   0  0  0  0  0  0  0  0  0  0  0  0
   26.4725  -20.3656  -14.8900 C   0  0  1  0  0  0  0  0  0  0  0  0
   26.1381  -21.7825  -15.1054 C   0  0  0  0  0  0  0  0  0  0  0  0
   26.5001  -22.6224  -14.2424 O   0  0  0  0  0  0  0  0  0  0  0  0
   21.0910  -23.8677  -13.6659 N   0  0  0  0  0  0  0  0  0  0  0  0
   21.2519  -22.5901  -14.2733 C   0  0  0  0  0  0  0  0  0  0  0  0
   20.2640  -21.8349  -14.2207 O   0  0  0  0  0  0  0  0  0  0  0  0
   22.4918  -22.1704  -14.9282 C   0  0  0  0  0  0  0  0  0  0  0  0
   23.6714  -23.0500  -14.8702 C   0  0  0  0  0  0  0  0  0  0  0  0
   24.4076  -23.3068  -16.1544 C   0  0  2  0  0  0  0  0  0  0  0  0
   25.4277  -22.2665  -16.2328 N   0  0  0  0  0  0  0  0  0  0  0  0
   23.5973  -23.4804  -17.3389 C   0  0  0  0  0  0  0  0  0  0  0  0
   22.9519  -24.6822  -17.5727 O   0  0  0  0  0  0  0  0  0  0  0  0
   23.4623  -22.5641  -18.1774 O   0  0  0  0  0  0  0  0  0  0  0  0
  2  1  1  0
  2  3  1  0
  3  5  1  0
  3  4  1  1
  5  6  1  6
  7  5  1  0
  7  8  2  0
  9  7  1  0
 10  9  1  0
 10 11  1  0
 12 13  1  0
 12 11  1  0
 13  9  1  0
 13 14  1  1
 15 14  2  0
 16 17  1  0
 17 18  2  0
 19 17  1  0
 19 20  1  0
 21 20  1  1
 21 22  1  0
 22 14  1  0
 23 21  1  0
 23 24  1  0
 25 23  2  0
M  END
$$$$
