IPQ.pdb
     RDKit          3D

 25 25  0  0  1  0  0  0  0  0999 V2000
   15.2265  -12.9330  -12.7567 C   0  0  0  0  0  0  0  0  0  0  0  0
   14.5296  -12.2573  -11.6239 C   0  0  0  0  0  0  0  0  0  0  0  0
   14.7014  -10.7559  -11.7196 C   0  0  2  0  0  0  0  0  0  0  0  0
   16.1729  -10.4559  -11.5522 C   0  0  0  0  0  0  0  0  0  0  0  0
   13.8559  -10.0474  -10.6865 C   0  0  2  0  0  0  0  0  0  0  0  0
   12.5235  -10.5411  -10.7326 N   0  0  0  0  0  0  0  0  0  0  0  0
   14.0077   -8.5874  -10.7284 C   0  0  0  0  0  0  0  0  0  0  0  0
   13.5045   -7.9399  -11.6964 O   0  0  0  0  0  0  0  0  0  0  0  0
   14.6905   -7.7988   -9.7521 N   0  0  0  0  0  0  0  0  0  0  0  0
   15.2678   -8.2389   -8.5015 C   0  0  0  0  0  0  0  0  0  0  0  0
   15.4416   -7.0538   -7.5997 C   0  0  0  0  0  0  0  0  0  0  0  0
   14.9576   -5.8898   -8.4368 C   0  0  0  0  0  0  0  0  0  0  0  0
   14.9456   -6.3710   -9.8426 C   0  0  1  0  0  0  0  0  0  0  0  0
   16.1594   -6.0667  -10.6171 C   0  0  0  0  0  0  0  0  0  0  0  0
   17.0370   -6.9599  -10.7327 O   0  0  0  0  0  0  0  0  0  0  0  0
   17.4751   -7.0851  -16.9286 N   0  0  0  0  0  0  0  0  0  0  0  0
   16.8701   -6.8769  -15.6567 C   0  0  0  0  0  0  0  0  0  0  0  0
   15.9396   -7.6499  -15.3643 O   0  0  0  0  0  0  0  0  0  0  0  0
   17.2969   -5.8228  -14.7352 C   0  0  0  0  0  0  0  0  0  0  0  0
   16.6971   -5.7530  -13.3920 C   0  0  0  0  0  0  0  0  0  0  0  0
   17.1939   -4.6785  -12.4668 C   0  0  2  0  0  0  0  0  0  0  0  0
   16.4059   -4.8208  -11.2470 N   0  0  0  0  0  0  0  0  0  0  0  0
   17.2691   -3.3418  -13.0119 C   0  0  0  0  0  0  0  0  0  0  0  0
   18.3676   -2.9540  -13.7592 O   0  0  0  0  0  0  0  0  0  0  0  0
   16.3588   -2.5074  -12.8221 O   0  0  0  0  0  0  0  0  0  0  0  0
  2  1  1  0
  2  3  1  0
  3  5  1  0
  3  4  1  1
  5  6  1  6
  7  5  1  0
  7  8  2  0
  9  7  1  0
 10  9  1  0
 10 11  1  0
 12 13  1  0
 12 11  1  0
 13  9  1  0
 13 14  1  1
 15 14  2  0
 16 17  1  0
 17 18  2  0
 19 17  1  0
 19 20  1  0
 21 20  1  6
 21 22  1  0
 22 14  1  0
 23 21  1  0
 23 24  1  0
 25 23  2  0
M  END
$$$$
