IPQ.pdb
     RDKit          3D

 25 25  0  0  1  0  0  0  0  0999 V2000
   22.1667  -23.5856  -11.3301 C   0  0  0  0  0  0  0  0  0  0  0  0
   23.4047  -22.8526  -10.9362 C   0  0  0  0  0  0  0  0  0  0  0  0
   23.7239  -21.7741  -11.9501 C   0  0  2  0  0  0  0  0  0  0  0  0
   23.8562  -22.4436  -13.2983 C   0  0  0  0  0  0  0  0  0  0  0  0
   24.9765  -21.0218  -11.5638 C   0  0  2  0  0  0  0  0  0  0  0  0
   24.9391  -20.7010  -10.1793 N   0  0  0  0  0  0  0  0  0  0  0  0
   25.2814  -19.9134  -12.4777 C   0  0  0  0  0  0  0  0  0  0  0  0
   24.7409  -18.7826  -12.2818 O   0  0  0  0  0  0  0  0  0  0  0  0
   26.1568  -19.9878  -13.6043 N   0  0  0  0  0  0  0  0  0  0  0  0
   27.0106  -21.0879  -13.9939 C   0  0  0  0  0  0  0  0  0  0  0  0
   28.0770  -20.5764  -14.9153 C   0  0  0  0  0  0  0  0  0  0  0  0
   27.7530  -19.1054  -15.0601 C   0  0  0  0  0  0  0  0  0  0  0  0
   26.3495  -18.9459  -14.5989 C   0  0  1  0  0  0  0  0  0  0  0  0
   25.3337  -18.9923  -15.6628 C   0  0  0  0  0  0  0  0  0  0  0  0
   24.9870  -20.1141  -16.1129 O   0  0  0  0  0  0  0  0  0  0  0  0
   20.7301  -14.9251  -17.6224 N   0  0  0  0  0  0  0  0  0  0  0  0
   21.9386  -14.5851  -16.9509 C   0  0  0  0  0  0  0  0  0  0  0  0
   22.1817  -13.3686  -16.8517 O   0  0  0  0  0  0  0  0  0  0  0  0
   22.8557  -15.5874  -16.4061 C   0  0  0  0  0  0  0  0  0  0  0  0
   22.5340  -17.0166  -16.5564 C   0  0  0  0  0  0  0  0  0  0  0  0
   23.5911  -17.9061  -17.1468 C   0  0  2  0  0  0  0  0  0  0  0  0
   24.7149  -17.8440  -16.2182 N   0  0  0  0  0  0  0  0  0  0  0  0
   23.9153  -17.6868  -18.5384 C   0  0  0  0  0  0  0  0  0  0  0  0
   22.9904  -17.9812  -19.5250 O   0  0  0  0  0  0  0  0  0  0  0  0
   25.0274  -17.2359  -18.8862 O   0  0  0  0  0  0  0  0  0  0  0  0
  2  1  1  0
  2  3  1  0
  3  5  1  0
  3  4  1  6
  5  6  1  1
  7  5  1  0
  7  8  2  0
  9  7  1  0
 10  9  1  0
 10 11  1  0
 12 13  1  0
 12 11  1  0
 13  9  1  0
 13 14  1  6
 15 14  2  0
 16 17  1  0
 17 18  2  0
 19 17  1  0
 19 20  1  0
 21 20  1  1
 21 22  1  0
 22 14  1  0
 23 21  1  0
 23 24  1  0
 25 23  2  0
M  END
$$$$
