QPY.pdb
     RDKit          3D

 29 30  0  0  1  0  0  0  0  0999 V2000
   21.0973  -19.1819  -12.5416 N   0  0  0  0  0  0  0  0  0  0  0  0
   20.6836  -19.0439  -13.8757 C   0  0  0  0  0  0  0  0  0  0  0  0
   19.8149  -18.1939  -14.1647 O   0  0  0  0  0  0  0  0  0  0  0  0
   21.2678  -19.8953  -14.9363 C   0  0  0  0  0  0  0  0  0  0  0  0
   22.3177  -20.7807  -14.3345 C   0  0  0  0  0  0  0  0  0  0  0  0
   23.6832  -20.6753  -14.9878 C   0  0  2  0  0  0  0  0  0  0  0  0
   23.5371  -21.5227  -16.2004 N   0  0  0  0  0  0  0  0  0  0  0  0
   24.7468  -21.2398  -14.1343 C   0  0  0  0  0  0  0  0  0  0  0  0
   24.4321  -22.3353  -13.5519 O   0  0  0  0  0  0  0  0  0  0  0  0
   26.0284  -20.6364  -13.9570 N   0  0  0  0  0  0  0  0  0  0  0  0
   26.6394  -19.8524  -15.0077 C   0  0  0  0  0  0  0  0  0  0  0  0
   27.1857  -18.6758  -14.2265 C   0  0  0  0  0  0  0  0  0  0  0  0
   27.7655  -19.4030  -13.0231 C   0  0  0  0  0  0  0  0  0  0  0  0
   26.9523  -20.6959  -12.8988 C   0  0  1  0  0  0  0  0  0  0  0  0
   26.4228  -20.8297  -11.5320 C   0  0  0  0  0  0  0  0  0  0  0  0
   25.3182  -20.3651  -11.2118 O   0  0  0  0  0  0  0  0  0  0  0  0
   28.2650  -19.2132   -3.2029 O   0  0  0  0  0  0  0  0  0  0  0  0
   28.2756  -19.6885   -4.5099 C   0  0  0  0  0  0  0  0  0  0  0  0
   27.8314  -20.9499   -4.7595 C   0  0  0  0  0  0  0  0  0  0  0  0
   27.8455  -21.4167   -6.0687 C   0  0  0  0  0  0  0  0  0  0  0  0
   28.2949  -20.6383   -7.1067 C   0  0  0  0  0  0  0  0  0  0  0  0
   28.3180  -21.1245   -8.4827 C   0  0  0  0  0  0  0  0  0  0  0  0
   26.9779  -21.3052   -9.1179 C   0  0  2  0  0  0  0  0  0  0  0  0
   27.1794  -21.5036  -10.5414 N   0  0  0  0  0  0  0  0  0  0  0  0
   26.1668  -20.0724   -8.9736 C   0  0  0  0  0  0  0  0  0  0  0  0
   24.9827  -20.0289   -8.2124 O   0  0  0  0  0  0  0  0  0  0  0  0
   28.7347  -19.3706   -6.8105 C   0  0  0  0  0  0  0  0  0  0  0  0
   28.7303  -18.8855   -5.5214 C   0  0  0  0  0  0  0  0  0  0  0  0
   26.4886  -18.9948   -9.5220 O   0  0  0  0  0  0  0  0  0  0  0  0
  2  1  1  0
  2  3  2  0
  4  2  1  0
  5  4  1  0
  5  6  1  0
  6  8  1  0
  6  7  1  6
  8  9  2  0
 10 14  1  0
 10  8  1  0
 11 10  1  0
 12 13  1  0
 12 11  1  0
 13 14  1  0
 14 15  1  1
 15 16  2  0
 17 18  1  0
 18 19  2  0
 19 20  1  0
 21 22  1  0
 21 20  2  0
 23 22  1  1
 23 25  1  0
 24 23  1  0
 24 15  1  0
 25 29  2  0
 25 26  1  0
 27 21  1  0
 28 27  2  0
 28 18  1  0
M  END
$$$$
