QPY.pdb
     RDKit          3D

 29 30  0  0  1  0  0  0  0  0999 V2000
   26.9637  -18.1746  -18.0917 N   0  0  0  0  0  0  0  0  0  0  0  0
   27.9673  -17.2766  -17.6962 C   0  0  0  0  0  0  0  0  0  0  0  0
   28.4157  -16.4538  -18.5223 O   0  0  0  0  0  0  0  0  0  0  0  0
   28.4945  -17.2991  -16.3132 C   0  0  0  0  0  0  0  0  0  0  0  0
   27.6537  -18.2201  -15.4807 C   0  0  0  0  0  0  0  0  0  0  0  0
   28.2366  -19.6080  -15.2897 C   0  0  2  0  0  0  0  0  0  0  0  0
   27.9022  -20.2872  -16.5690 N   0  0  0  0  0  0  0  0  0  0  0  0
   27.5855  -20.3305  -14.1795 C   0  0  0  0  0  0  0  0  0  0  0  0
   26.3227  -20.4868  -14.3186 O   0  0  0  0  0  0  0  0  0  0  0  0
   28.2819  -20.8258  -13.0360 N   0  0  0  0  0  0  0  0  0  0  0  0
   29.6785  -21.1942  -13.1107 C   0  0  0  0  0  0  0  0  0  0  0  0
   30.2160  -20.5992  -11.8261 C   0  0  0  0  0  0  0  0  0  0  0  0
   29.1037  -20.9924  -10.8663 C   0  0  0  0  0  0  0  0  0  0  0  0
   27.8471  -21.1260  -11.7330 C   0  0  1  0  0  0  0  0  0  0  0  0
   26.7564  -20.3142  -11.1693 C   0  0  0  0  0  0  0  0  0  0  0  0
   26.7691  -19.0752  -11.2255 O   0  0  0  0  0  0  0  0  0  0  0  0
   21.2938  -22.7178  -14.7215 O   0  0  0  0  0  0  0  0  0  0  0  0
   21.9159  -21.9203  -13.7668 C   0  0  0  0  0  0  0  0  0  0  0  0
   22.9184  -22.4486  -13.0141 C   0  0  0  0  0  0  0  0  0  0  0  0
   23.5346  -21.6443  -12.0624 C   0  0  0  0  0  0  0  0  0  0  0  0
   23.1558  -20.3390  -11.8674 C   0  0  0  0  0  0  0  0  0  0  0  0
   23.7946  -19.4910  -10.8658 C   0  0  0  0  0  0  0  0  0  0  0  0
   24.6117  -20.2141   -9.8454 C   0  0  2  0  0  0  0  0  0  0  0  0
   25.6539  -20.9457  -10.5419 N   0  0  0  0  0  0  0  0  0  0  0  0
   23.7848  -21.2238   -9.1416 C   0  0  0  0  0  0  0  0  0  0  0  0
   24.1070  -22.5948   -9.1330 O   0  0  0  0  0  0  0  0  0  0  0  0
   22.1391  -19.8454  -12.6491 C   0  0  0  0  0  0  0  0  0  0  0  0
   21.5134  -20.6226  -13.5986 C   0  0  0  0  0  0  0  0  0  0  0  0
   22.7485  -20.9151   -8.5119 O   0  0  0  0  0  0  0  0  0  0  0  0
  2  1  1  0
  2  3  2  0
  4  2  1  0
  5  4  1  0
  5  6  1  0
  6  8  1  0
  6  7  1  6
  8  9  2  0
 10 14  1  0
 10  8  1  0
 11 10  1  0
 12 13  1  0
 12 11  1  0
 13 14  1  0
 14 15  1  1
 15 16  2  0
 17 18  1  0
 18 19  2  0
 19 20  1  0
 21 22  1  0
 21 20  2  0
 23 22  1  6
 23 25  1  0
 24 23  1  0
 24 15  1  0
 25 29  2  0
 25 26  1  0
 27 21  1  0
 28 27  2  0
 28 18  1  0
M  END
$$$$
