QPY.pdb
     RDKit          3D

 29 30  0  0  1  0  0  0  0  0999 V2000
   18.9407   -8.2531  -19.4822 N   0  0  0  0  0  0  0  0  0  0  0  0
   17.7989   -8.7534  -18.8372 C   0  0  0  0  0  0  0  0  0  0  0  0
   16.6888   -8.2229  -19.0542 O   0  0  0  0  0  0  0  0  0  0  0  0
   17.9022   -9.8996  -17.9063 C   0  0  0  0  0  0  0  0  0  0  0  0
   19.3296  -10.3545  -17.8420 C   0  0  0  0  0  0  0  0  0  0  0  0
   19.7960  -10.7777  -16.4614 C   0  0  2  0  0  0  0  0  0  0  0  0
   19.1253  -12.0908  -16.2726 N   0  0  0  0  0  0  0  0  0  0  0  0
   19.3310   -9.8474  -15.4142 C   0  0  0  0  0  0  0  0  0  0  0  0
   18.0783   -9.9191  -15.1612 O   0  0  0  0  0  0  0  0  0  0  0  0
   20.1852   -8.9352  -14.7242 N   0  0  0  0  0  0  0  0  0  0  0  0
   21.6245   -9.0637  -14.7860 C   0  0  0  0  0  0  0  0  0  0  0  0
   22.0479   -7.6217  -14.9720 C   0  0  0  0  0  0  0  0  0  0  0  0
   21.1228   -6.9431  -13.9735 C   0  0  0  0  0  0  0  0  0  0  0  0
   19.9054   -7.8662  -13.8549 C   0  0  1  0  0  0  0  0  0  0  0  0
   18.6684   -7.1019  -14.0830 C   0  0  0  0  0  0  0  0  0  0  0  0
   18.2322   -6.8921  -15.2250 O   0  0  0  0  0  0  0  0  0  0  0  0
   14.5717   -5.9827   -7.0990 O   0  0  0  0  0  0  0  0  0  0  0  0
   14.8251   -6.1715   -8.4535 C   0  0  0  0  0  0  0  0  0  0  0  0
   15.0252   -7.4335   -8.9201 C   0  0  0  0  0  0  0  0  0  0  0  0
   15.2778   -7.6130  -10.2751 C   0  0  0  0  0  0  0  0  0  0  0  0
   15.3294   -6.5522  -11.1454 C   0  0  0  0  0  0  0  0  0  0  0  0
   15.6000   -6.7331  -12.5682 C   0  0  0  0  0  0  0  0  0  0  0  0
   16.6856   -5.8712  -13.1255 C   0  0  2  0  0  0  0  0  0  0  0  0
   17.9420   -6.5837  -12.9822 N   0  0  0  0  0  0  0  0  0  0  0  0
   16.8141   -4.6244  -12.3333 C   0  0  0  0  0  0  0  0  0  0  0  0
   16.0163   -3.4887  -12.5728 O   0  0  0  0  0  0  0  0  0  0  0  0
   15.1215   -5.2944  -10.6323 C   0  0  0  0  0  0  0  0  0  0  0  0
   14.8694   -5.0913   -9.2936 C   0  0  0  0  0  0  0  0  0  0  0  0
   17.6420   -4.5084  -11.4024 O   0  0  0  0  0  0  0  0  0  0  0  0
  2  1  1  0
  2  3  2  0
  4  2  1  0
  5  4  1  0
  5  6  1  0
  6  8  1  0
  6  7  1  1
  8  9  2  0
 10 14  1  0
 10  8  1  0
 11 10  1  0
 12 13  1  0
 12 11  1  0
 13 14  1  0
 14 15  1  6
 15 16  2  0
 17 18  1  0
 18 19  2  0
 19 20  1  0
 21 22  1  0
 21 20  2  0
 23 22  1  1
 23 25  1  0
 24 23  1  0
 24 15  1  0
 25 29  2  0
 25 26  1  0
 27 21  1  0
 28 27  2  0
 28 18  1  0
M  END
$$$$
