QPY.pdb
     RDKit          3D

 29 30  0  0  1  0  0  0  0  0999 V2000
   20.9586  -23.9254  -13.5383 N   0  0  0  0  0  0  0  0  0  0  0  0
   20.7555  -23.6721  -14.9038 C   0  0  0  0  0  0  0  0  0  0  0  0
   19.6140  -23.8129  -15.3915 O   0  0  0  0  0  0  0  0  0  0  0  0
   21.8802  -23.2416  -15.7644 C   0  0  0  0  0  0  0  0  0  0  0  0
   23.1224  -23.1299  -14.9321 C   0  0  0  0  0  0  0  0  0  0  0  0
   24.3547  -22.6784  -15.6939 C   0  0  2  0  0  0  0  0  0  0  0  0
   24.6636  -23.8530  -16.5510 N   0  0  0  0  0  0  0  0  0  0  0  0
   25.4974  -22.4285  -14.7938 C   0  0  0  0  0  0  0  0  0  0  0  0
   25.8432  -23.4370  -14.0854 O   0  0  0  0  0  0  0  0  0  0  0  0
   26.1792  -21.1777  -14.7025 N   0  0  0  0  0  0  0  0  0  0  0  0
   26.2323  -20.2693  -15.8267 C   0  0  0  0  0  0  0  0  0  0  0  0
   25.9724  -18.9390  -15.1516 C   0  0  0  0  0  0  0  0  0  0  0  0
   26.8482  -19.0926  -13.9176 C   0  0  0  0  0  0  0  0  0  0  0  0
   26.9449  -20.6022  -13.6732 C   0  0  1  0  0  0  0  0  0  0  0  0
   26.5715  -20.9135  -12.2839 C   0  0  0  0  0  0  0  0  0  0  0  0
   25.3948  -21.1308  -11.9575 O   0  0  0  0  0  0  0  0  0  0  0  0
   27.5651  -19.5095   -3.6596 O   0  0  0  0  0  0  0  0  0  0  0  0
   27.7875  -19.7514   -5.0111 C   0  0  0  0  0  0  0  0  0  0  0  0
   28.8596  -19.1756   -5.6191 C   0  0  0  0  0  0  0  0  0  0  0  0
   29.0742  -19.4229   -6.9701 C   0  0  0  0  0  0  0  0  0  0  0  0
   28.2339  -20.2289   -7.6978 C   0  0  0  0  0  0  0  0  0  0  0  0
   28.4502  -20.4877   -9.1179 C   0  0  0  0  0  0  0  0  0  0  0  0
   27.2620  -21.0072   -9.8596 C   0  0  2  0  0  0  0  0  0  0  0  0
   27.5679  -20.9713  -11.2779 N   0  0  0  0  0  0  0  0  0  0  0  0
   26.0950  -20.1154   -9.6563 C   0  0  0  0  0  0  0  0  0  0  0  0
   26.0282  -18.8184  -10.2012 O   0  0  0  0  0  0  0  0  0  0  0  0
   27.1632  -20.7904   -7.0446 C   0  0  0  0  0  0  0  0  0  0  0  0
   26.9297  -20.5605   -5.7068 C   0  0  0  0  0  0  0  0  0  0  0  0
   25.0978  -20.4647   -8.9861 O   0  0  0  0  0  0  0  0  0  0  0  0
  2  1  1  0
  2  3  2  0
  4  2  1  0
  5  4  1  0
  5  6  1  0
  6  8  1  0
  6  7  1  6
  8  9  2  0
 10 14  1  0
 10  8  1  0
 11 10  1  0
 12 13  1  0
 12 11  1  0
 13 14  1  0
 14 15  1  1
 15 16  2  0
 17 18  1  0
 18 19  2  0
 19 20  1  0
 21 22  1  0
 21 20  2  0
 23 22  1  1
 23 25  1  0
 24 23  1  0
 24 15  1  0
 25 29  2  0
 25 26  1  0
 27 21  1  0
 28 27  2  0
 28 18  1  0
M  END
$$$$
