QPY.pdb
     RDKit          3D

 29 30  0  0  1  0  0  0  0  0999 V2000
   22.1378  -13.7420  -19.6596 N   0  0  0  0  0  0  0  0  0  0  0  0
   23.3757  -13.0814  -19.6910 C   0  0  0  0  0  0  0  0  0  0  0  0
   23.4282  -11.8928  -20.0717 O   0  0  0  0  0  0  0  0  0  0  0  0
   24.6127  -13.7815  -19.2778 C   0  0  0  0  0  0  0  0  0  0  0  0
   24.2528  -15.1182  -18.7015 C   0  0  0  0  0  0  0  0  0  0  0  0
   25.2554  -16.2206  -18.9887 C   0  0  2  0  0  0  0  0  0  0  0  0
   25.1018  -16.4357  -20.4515 N   0  0  0  0  0  0  0  0  0  0  0  0
   24.9157  -17.4712  -18.2825 C   0  0  0  0  0  0  0  0  0  0  0  0
   23.6766  -17.7881  -18.3340 O   0  0  0  0  0  0  0  0  0  0  0  0
   25.8693  -18.2797  -17.5935 N   0  0  0  0  0  0  0  0  0  0  0  0
   27.2389  -18.3750  -18.0484 C   0  0  0  0  0  0  0  0  0  0  0  0
   27.9977  -18.2815  -16.7413 C   0  0  0  0  0  0  0  0  0  0  0  0
   27.1421  -19.1908  -15.8727 C   0  0  0  0  0  0  0  0  0  0  0  0
   25.7414  -19.1446  -16.4923 C   0  0  1  0  0  0  0  0  0  0  0  0
   24.7455  -18.8033  -15.4637 C   0  0  0  0  0  0  0  0  0  0  0  0
   24.8427  -17.7748  -14.7771 O   0  0  0  0  0  0  0  0  0  0  0  0
   18.5127  -18.9228  -19.2128 O   0  0  0  0  0  0  0  0  0  0  0  0
   19.3463  -18.7220  -18.1178 C   0  0  0  0  0  0  0  0  0  0  0  0
   20.5118  -18.0417  -18.2887 C   0  0  0  0  0  0  0  0  0  0  0  0
   21.3388  -17.8456  -17.1888 C   0  0  0  0  0  0  0  0  0  0  0  0
   21.0071  -18.3203  -15.9438 C   0  0  0  0  0  0  0  0  0  0  0  0
   21.8737  -18.1231  -14.7860 C   0  0  0  0  0  0  0  0  0  0  0  0
   22.5756  -19.3485  -14.2987 C   0  0  2  0  0  0  0  0  0  0  0  0
   23.6391  -19.6590  -15.2364 N   0  0  0  0  0  0  0  0  0  0  0  0
   21.6537  -20.5098  -14.3057 C   0  0  0  0  0  0  0  0  0  0  0  0
   21.8072  -21.5941  -15.1914 O   0  0  0  0  0  0  0  0  0  0  0  0
   19.8208  -19.0020  -15.8154 C   0  0  0  0  0  0  0  0  0  0  0  0
   18.9847  -19.2088  -16.8902 C   0  0  0  0  0  0  0  0  0  0  0  0
   20.6819  -20.5942  -13.5221 O   0  0  0  0  0  0  0  0  0  0  0  0
  2  1  1  0
  2  3  2  0
  4  2  1  0
  5  4  1  0
  5  6  1  0
  6  8  1  0
  6  7  1  6
  8  9  2  0
 10 14  1  0
 10  8  1  0
 11 10  1  0
 12 13  1  0
 12 11  1  0
 13 14  1  0
 14 15  1  1
 15 16  2  0
 17 18  1  0
 18 19  2  0
 19 20  1  0
 21 22  1  0
 21 20  2  0
 23 22  1  6
 23 25  1  0
 24 23  1  0
 24 15  1  0
 25 29  2  0
 25 26  1  0
 27 21  1  0
 28 27  2  0
 28 18  1  0
M  END
$$$$
