QPY.pdb
     RDKit          3D

 29 30  0  0  1  0  0  0  0  0999 V2000
   15.6266   -7.9701  -17.5077 N   0  0  0  0  0  0  0  0  0  0  0  0
   16.5630   -8.6853  -18.2703 C   0  0  0  0  0  0  0  0  0  0  0  0
   16.3191   -8.9298  -19.4709 O   0  0  0  0  0  0  0  0  0  0  0  0
   17.8309   -9.1489  -17.6633 C   0  0  0  0  0  0  0  0  0  0  0  0
   17.9351   -8.6092  -16.2681 C   0  0  0  0  0  0  0  0  0  0  0  0
   18.6398   -9.5273  -15.2867 C   0  0  2  0  0  0  0  0  0  0  0  0
   17.9470  -10.8264  -15.4917 N   0  0  0  0  0  0  0  0  0  0  0  0
   18.4429   -9.0946  -13.8895 C   0  0  0  0  0  0  0  0  0  0  0  0
   17.2295   -9.1479  -13.4852 O   0  0  0  0  0  0  0  0  0  0  0  0
   19.4992   -8.6512  -13.0378 N   0  0  0  0  0  0  0  0  0  0  0  0
   20.8654   -9.0724  -13.2570 C   0  0  0  0  0  0  0  0  0  0  0  0
   21.6178   -7.7750  -13.0473 C   0  0  0  0  0  0  0  0  0  0  0  0
   20.8948   -7.2450  -11.8187 C   0  0  0  0  0  0  0  0  0  0  0  0
   19.4941   -7.8642  -11.8727 C   0  0  1  0  0  0  0  0  0  0  0  0
   18.4721   -6.8110  -11.7604 C   0  0  0  0  0  0  0  0  0  0  0  0
   18.2854   -5.9837  -12.6655 O   0  0  0  0  0  0  0  0  0  0  0  0
   12.7070  -10.0996   -7.9923 O   0  0  0  0  0  0  0  0  0  0  0  0
   13.3702   -9.1310   -8.7382 C   0  0  0  0  0  0  0  0  0  0  0  0
   14.2639   -9.5223   -9.6862 C   0  0  0  0  0  0  0  0  0  0  0  0
   14.9222   -8.5476  -10.4270 C   0  0  0  0  0  0  0  0  0  0  0  0
   14.6916   -7.2093  -10.2237 C   0  0  0  0  0  0  0  0  0  0  0  0
   15.3838   -6.1808  -10.9939 C   0  0  0  0  0  0  0  0  0  0  0  0
   16.6653   -5.6937  -10.4003 C   0  0  2  0  0  0  0  0  0  0  0  0
   17.6698   -6.7229  -10.5956 N   0  0  0  0  0  0  0  0  0  0  0  0
   16.5218   -5.5158   -8.9352 C   0  0  0  0  0  0  0  0  0  0  0  0
   15.7026   -4.5197   -8.3693 O   0  0  0  0  0  0  0  0  0  0  0  0
   13.7811   -6.8579   -9.2564 C   0  0  0  0  0  0  0  0  0  0  0  0
   13.1162   -7.8053   -8.5096 C   0  0  0  0  0  0  0  0  0  0  0  0
   17.1227   -6.2432   -8.1134 O   0  0  0  0  0  0  0  0  0  0  0  0
  2  1  1  0
  2  3  2  0
  4  2  1  0
  5  4  1  0
  5  6  1  0
  6  8  1  0
  6  7  1  1
  8  9  2  0
 10 14  1  0
 10  8  1  0
 11 10  1  0
 12 13  1  0
 12 11  1  0
 13 14  1  0
 14 15  1  6
 15 16  2  0
 17 18  1  0
 18 19  2  0
 19 20  1  0
 21 22  1  0
 21 20  2  0
 23 22  1  1
 23 25  1  0
 24 23  1  0
 24 15  1  0
 25 29  2  0
 25 26  1  0
 27 21  1  0
 28 27  2  0
 28 18  1  0
M  END
$$$$
