QPY.pdb
     RDKit          3D

 29 30  0  0  1  0  0  0  0  0999 V2000
   18.3121  -19.0283  -13.6101 N   0  0  0  0  0  0  0  0  0  0  0  0
   18.7721  -18.1837  -14.6324 C   0  0  0  0  0  0  0  0  0  0  0  0
   17.9460  -17.5719  -15.3421 O   0  0  0  0  0  0  0  0  0  0  0  0
   20.2229  -18.0151  -14.8729 C   0  0  0  0  0  0  0  0  0  0  0  0
   20.9865  -18.7863  -13.8383 C   0  0  0  0  0  0  0  0  0  0  0  0
   21.8372  -19.9145  -14.3917 C   0  0  2  0  0  0  0  0  0  0  0  0
   20.8325  -20.9640  -14.7061 N   0  0  0  0  0  0  0  0  0  0  0  0
   22.7787  -20.4395  -13.3835 C   0  0  0  0  0  0  0  0  0  0  0  0
   22.3768  -20.3242  -12.1737 O   0  0  0  0  0  0  0  0  0  0  0  0
   24.0371  -21.0326  -13.7033 N   0  0  0  0  0  0  0  0  0  0  0  0
   24.2921  -21.5886  -15.0139 C   0  0  0  0  0  0  0  0  0  0  0  0
   25.6919  -21.0809  -15.2894 C   0  0  0  0  0  0  0  0  0  0  0  0
   26.3336  -21.3238  -13.9320 C   0  0  0  0  0  0  0  0  0  0  0  0
   25.1809  -21.2785  -12.9234 C   0  0  1  0  0  0  0  0  0  0  0  0
   25.4924  -20.3284  -11.8433 C   0  0  0  0  0  0  0  0  0  0  0  0
   25.5592  -19.1068  -12.0480 O   0  0  0  0  0  0  0  0  0  0  0  0
   29.6704  -18.4763   -4.2470 O   0  0  0  0  0  0  0  0  0  0  0  0
   28.8274  -18.9825   -5.2306 C   0  0  0  0  0  0  0  0  0  0  0  0
   28.3803  -20.2630   -5.1247 C   0  0  0  0  0  0  0  0  0  0  0  0
   27.5382  -20.7606   -6.1123 C   0  0  0  0  0  0  0  0  0  0  0  0
   27.1513  -19.9937   -7.1835 C   0  0  0  0  0  0  0  0  0  0  0  0
   26.2721  -20.5121   -8.2269 C   0  0  0  0  0  0  0  0  0  0  0  0
   26.6888  -20.1972   -9.6266 C   0  0  2  0  0  0  0  0  0  0  0  0
   25.7252  -20.8015  -10.5281 N   0  0  0  0  0  0  0  0  0  0  0  0
   27.9994  -20.8212   -9.9287 C   0  0  0  0  0  0  0  0  0  0  0  0
   29.2029  -20.0897   -9.9388 O   0  0  0  0  0  0  0  0  0  0  0  0
   27.6258  -18.7059   -7.2515 C   0  0  0  0  0  0  0  0  0  0  0  0
   28.4612  -18.1902   -6.2854 C   0  0  0  0  0  0  0  0  0  0  0  0
   28.1128  -22.0389  -10.1934 O   0  0  0  0  0  0  0  0  0  0  0  0
  2  1  1  0
  2  3  2  0
  4  2  1  0
  5  4  1  0
  5  6  1  0
  6  8  1  0
  6  7  1  1
  8  9  2  0
 10 14  1  0
 10  8  1  0
 11 10  1  0
 12 13  1  0
 12 11  1  0
 13 14  1  0
 14 15  1  1
 15 16  2  0
 17 18  1  0
 18 19  2  0
 19 20  1  0
 21 22  1  0
 21 20  2  0
 23 22  1  1
 23 25  1  0
 24 23  1  0
 24 15  1  0
 25 29  2  0
 25 26  1  0
 27 21  1  0
 28 27  2  0
 28 18  1  0
M  END
$$$$
