QPY.pdb
     RDKit          3D

 29 30  0  0  1  0  0  0  0  0999 V2000
   18.9653  -14.1892  -15.0229 N   0  0  0  0  0  0  0  0  0  0  0  0
   17.8310  -14.4282  -15.8143 C   0  0  0  0  0  0  0  0  0  0  0  0
   17.1798  -15.4819  -15.6521 O   0  0  0  0  0  0  0  0  0  0  0  0
   17.4047  -13.4442  -16.8345 C   0  0  0  0  0  0  0  0  0  0  0  0
   18.2457  -12.2091  -16.7091 C   0  0  0  0  0  0  0  0  0  0  0  0
   17.8934  -11.1031  -17.6865 C   0  0  2  0  0  0  0  0  0  0  0  0
   18.3250  -11.6651  -18.9932 N   0  0  0  0  0  0  0  0  0  0  0  0
   18.6577   -9.8690  -17.4200 C   0  0  0  0  0  0  0  0  0  0  0  0
   19.9236  -10.0387  -17.3347 O   0  0  0  0  0  0  0  0  0  0  0  0
   18.0610   -8.5811  -17.2679 N   0  0  0  0  0  0  0  0  0  0  0  0
   16.7751   -8.2768  -17.8557 C   0  0  0  0  0  0  0  0  0  0  0  0
   16.1012   -7.5195  -16.7308 C   0  0  0  0  0  0  0  0  0  0  0  0
   17.2541   -6.6370  -16.2778 C   0  0  0  0  0  0  0  0  0  0  0  0
   18.5259   -7.3999  -16.6632 C   0  0  1  0  0  0  0  0  0  0  0  0
   19.4106   -7.5295  -15.4941 C   0  0  0  0  0  0  0  0  0  0  0  0
   19.2042   -8.3748  -14.6102 O   0  0  0  0  0  0  0  0  0  0  0  0
   25.2111   -4.7569  -19.0531 O   0  0  0  0  0  0  0  0  0  0  0  0
   24.5933   -5.4280  -18.0032 C   0  0  0  0  0  0  0  0  0  0  0  0
   23.7959   -6.4954  -18.2775 C   0  0  0  0  0  0  0  0  0  0  0  0
   23.1825   -7.1602  -17.2221 C   0  0  0  0  0  0  0  0  0  0  0  0
   23.3627   -6.7655  -15.9193 C   0  0  0  0  0  0  0  0  0  0  0  0
   22.7168   -7.4554  -14.8071 C   0  0  0  0  0  0  0  0  0  0  0  0
   21.4900   -6.7923  -14.2713 C   0  0  2  0  0  0  0  0  0  0  0  0
   20.5331   -6.6757  -15.3563 N   0  0  0  0  0  0  0  0  0  0  0  0
   21.7995   -5.4108  -13.8304 C   0  0  0  0  0  0  0  0  0  0  0  0
   22.5215   -5.1348  -12.6532 O   0  0  0  0  0  0  0  0  0  0  0  0
   24.1761   -5.6826  -15.6868 C   0  0  0  0  0  0  0  0  0  0  0  0
   24.7949   -5.0078  -16.7158 C   0  0  0  0  0  0  0  0  0  0  0  0
   21.4357   -4.4061  -14.4814 O   0  0  0  0  0  0  0  0  0  0  0  0
  2  1  1  0
  2  3  2  0
  4  2  1  0
  5  4  1  0
  5  6  1  0
  6  8  1  0
  6  7  1  6
  8  9  2  0
 10 14  1  0
 10  8  1  0
 11 10  1  0
 12 13  1  0
 12 11  1  0
 13 14  1  0
 14 15  1  1
 15 16  2  0
 17 18  1  0
 18 19  2  0
 19 20  1  0
 21 22  1  0
 21 20  2  0
 23 22  1  6
 23 25  1  0
 24 23  1  0
 24 15  1  0
 25 29  2  0
 25 26  1  0
 27 21  1  0
 28 27  2  0
 28 18  1  0
M  END
$$$$
