QPY.pdb
     RDKit          3D

 29 30  0  0  1  0  0  0  0  0999 V2000
   30.4391  -20.1034   14.2291 N   0  0  0  0  0  0  0  0  0  0  0  0
   29.2452  -19.7683   13.5714 C   0  0  0  0  0  0  0  0  0  0  0  0
   28.2127  -19.5577   14.2423 O   0  0  0  0  0  0  0  0  0  0  0  0
   29.2032  -19.6635   12.0956 C   0  0  0  0  0  0  0  0  0  0  0  0
   30.5662  -19.9546   11.5422 C   0  0  0  0  0  0  0  0  0  0  0  0
   30.6431  -19.9674   10.0268 C   0  0  2  0  0  0  0  0  0  0  0  0
   29.2653  -19.5841    9.6214 N   0  0  0  0  0  0  0  0  0  0  0  0
   30.9394  -21.3147    9.5021 C   0  0  0  0  0  0  0  0  0  0  0  0
   29.9518  -22.1279    9.5445 O   0  0  0  0  0  0  0  0  0  0  0  0
   32.2110  -21.7042    8.9833 N   0  0  0  0  0  0  0  0  0  0  0  0
   33.1996  -20.7188    8.6046 C   0  0  0  0  0  0  0  0  0  0  0  0
   34.4641  -21.3263    9.1749 C   0  0  0  0  0  0  0  0  0  0  0  0
   34.2630  -22.7800    8.7759 C   0  0  0  0  0  0  0  0  0  0  0  0
   32.7458  -22.9653    8.6662 C   0  0  1  0  0  0  0  0  0  0  0  0
   32.3179  -24.1161    9.4779 C   0  0  0  0  0  0  0  0  0  0  0  0
   31.9010  -23.9775   10.6378 O   0  0  0  0  0  0  0  0  0  0  0  0
   26.6212  -28.0344    6.6360 O   0  0  0  0  0  0  0  0  0  0  0  0
   27.9093  -27.9583    7.1548 C   0  0  0  0  0  0  0  0  0  0  0  0
   28.9674  -27.9385    6.2999 C   0  0  0  0  0  0  0  0  0  0  0  0
   30.2513  -27.8623    6.8271 C   0  0  0  0  0  0  0  0  0  0  0  0
   30.4725  -27.8074    8.1811 C   0  0  0  0  0  0  0  0  0  0  0  0
   31.8182  -27.7335    8.7414 C   0  0  0  0  0  0  0  0  0  0  0  0
   32.0478  -26.6139    9.7035 C   0  0  2  0  0  0  0  0  0  0  0  0
   32.3759  -25.4251    8.9382 N   0  0  0  0  0  0  0  0  0  0  0  0
   33.2224  -26.9019   10.5613 C   0  0  0  0  0  0  0  0  0  0  0  0
   33.1229  -27.6281   11.7639 O   0  0  0  0  0  0  0  0  0  0  0  0
   29.3757  -27.8299    9.0088 C   0  0  0  0  0  0  0  0  0  0  0  0
   28.0940  -27.9049    8.5103 C   0  0  0  0  0  0  0  0  0  0  0  0
   34.3749  -26.5149   10.2653 O   0  0  0  0  0  0  0  0  0  0  0  0
  2  1  1  0
  2  3  2  0
  4  2  1  0
  5  4  1  0
  5  6  1  0
  6  8  1  0
  6  7  1  6
  8  9  2  0
 10 14  1  0
 10  8  1  0
 11 10  1  0
 12 13  1  0
 12 11  1  0
 13 14  1  0
 14 15  1  1
 15 16  2  0
 17 18  1  0
 18 19  2  0
 19 20  1  0
 21 22  1  0
 21 20  2  0
 23 22  1  6
 23 25  1  0
 24 23  1  0
 24 15  1  0
 25 29  2  0
 25 26  1  0
 27 21  1  0
 28 27  2  0
 28 18  1  0
M  END
$$$$
