QPY.pdb
     RDKit          3D

 29 30  0  0  1  0  0  0  0  0999 V2000
   21.0195  -21.2554  -16.6248 N   0  0  0  0  0  0  0  0  0  0  0  0
   21.3260  -20.5044  -17.7702 C   0  0  0  0  0  0  0  0  0  0  0  0
   20.3986  -20.0463  -18.4706 O   0  0  0  0  0  0  0  0  0  0  0  0
   22.7343  -20.2536  -18.1506 C   0  0  0  0  0  0  0  0  0  0  0  0
   23.6367  -20.7897  -17.0798 C   0  0  0  0  0  0  0  0  0  0  0  0
   25.1185  -20.6170  -17.3574 C   0  0  2  0  0  0  0  0  0  0  0  0
   25.3681  -21.5967  -18.4472 N   0  0  0  0  0  0  0  0  0  0  0  0
   25.9434  -20.9800  -16.1887 C   0  0  0  0  0  0  0  0  0  0  0  0
   25.7665  -22.1756  -15.7671 O   0  0  0  0  0  0  0  0  0  0  0  0
   26.8700  -20.0926  -15.5627 N   0  0  0  0  0  0  0  0  0  0  0  0
   27.5592  -19.0719  -16.3210 C   0  0  0  0  0  0  0  0  0  0  0  0
   27.4619  -17.8848  -15.3859 C   0  0  0  0  0  0  0  0  0  0  0  0
   27.7766  -18.5640  -14.0620 C   0  0  0  0  0  0  0  0  0  0  0  0
   27.3594  -20.0269  -14.2463 C   0  0  1  0  0  0  0  0  0  0  0  0
   26.4573  -20.4355  -13.1575 C   0  0  0  0  0  0  0  0  0  0  0  0
   25.2420  -20.1892  -13.1899 O   0  0  0  0  0  0  0  0  0  0  0  0
   27.3552  -18.2323   -5.4502 O   0  0  0  0  0  0  0  0  0  0  0  0
   27.2900  -19.1223   -6.5170 C   0  0  0  0  0  0  0  0  0  0  0  0
   26.2685  -20.0191   -6.5698 C   0  0  0  0  0  0  0  0  0  0  0  0
   26.2111  -20.9047   -7.6396 C   0  0  0  0  0  0  0  0  0  0  0  0
   27.1560  -20.8939   -8.6358 C   0  0  0  0  0  0  0  0  0  0  0  0
   27.1050  -21.8250   -9.7587 C   0  0  0  0  0  0  0  0  0  0  0  0
   26.1735  -21.4427  -10.8623 C   0  0  2  0  0  0  0  0  0  0  0  0
   26.9709  -21.1296  -12.0339 N   0  0  0  0  0  0  0  0  0  0  0  0
   25.4351  -20.2059  -10.5108 C   0  0  0  0  0  0  0  0  0  0  0  0
   25.9492  -18.9190  -10.7621 O   0  0  0  0  0  0  0  0  0  0  0  0
   28.1707  -19.9718   -8.5436 C   0  0  0  0  0  0  0  0  0  0  0  0
   28.2489  -19.0839   -7.4936 C   0  0  0  0  0  0  0  0  0  0  0  0
   24.3080  -20.2338   -9.9682 O   0  0  0  0  0  0  0  0  0  0  0  0
  2  1  1  0
  2  3  2  0
  4  2  1  0
  5  4  1  0
  5  6  1  0
  6  8  1  0
  6  7  1  6
  8  9  2  0
 10 14  1  0
 10  8  1  0
 11 10  1  0
 12 13  1  0
 12 11  1  0
 13 14  1  0
 14 15  1  1
 15 16  2  0
 17 18  1  0
 18 19  2  0
 19 20  1  0
 21 22  1  0
 21 20  2  0
 23 22  1  1
 23 25  1  0
 24 23  1  0
 24 15  1  0
 25 29  2  0
 25 26  1  0
 27 21  1  0
 28 27  2  0
 28 18  1  0
M  END
$$$$
