QPY.pdb
     RDKit          3D

 29 30  0  0  1  0  0  0  0  0999 V2000
   27.0203  -13.4956  -20.4386 N   0  0  0  0  0  0  0  0  0  0  0  0
   26.3818  -12.3174  -20.8559 C   0  0  0  0  0  0  0  0  0  0  0  0
   27.0016  -11.5039  -21.5733 O   0  0  0  0  0  0  0  0  0  0  0  0
   24.9858  -12.0350  -20.4528 C   0  0  0  0  0  0  0  0  0  0  0  0
   24.4223  -13.2364  -19.7546 C   0  0  0  0  0  0  0  0  0  0  0  0
   24.8747  -13.4007  -18.3155 C   0  0  2  0  0  0  0  0  0  0  0  0
   24.2114  -14.6650  -17.9016 N   0  0  0  0  0  0  0  0  0  0  0  0
   24.3898  -12.3022  -17.4573 C   0  0  0  0  0  0  0  0  0  0  0  0
   23.1393  -12.0538  -17.5720 O   0  0  0  0  0  0  0  0  0  0  0  0
   25.2231  -11.5637  -16.5640 N   0  0  0  0  0  0  0  0  0  0  0  0
   26.5269  -12.0552  -16.1764 C   0  0  0  0  0  0  0  0  0  0  0  0
   27.3621  -10.7951  -16.2638 C   0  0  0  0  0  0  0  0  0  0  0  0
   26.4096   -9.8007  -15.6179 C   0  0  0  0  0  0  0  0  0  0  0  0
   25.0065  -10.3698  -15.8536 C   0  0  1  0  0  0  0  0  0  0  0  0
   24.1454   -9.3493  -16.4727 C   0  0  0  0  0  0  0  0  0  0  0  0
   24.3491   -8.9346  -17.6237 O   0  0  0  0  0  0  0  0  0  0  0  0
   16.8821   -5.1864  -18.7925 O   0  0  0  0  0  0  0  0  0  0  0  0
   17.8767   -6.0164  -18.2864 C   0  0  0  0  0  0  0  0  0  0  0  0
   17.6666   -6.6576  -17.1052 C   0  0  0  0  0  0  0  0  0  0  0  0
   18.6661   -7.4852  -16.6069 C   0  0  0  0  0  0  0  0  0  0  0  0
   19.8512   -7.6676  -17.2760 C   0  0  0  0  0  0  0  0  0  0  0  0
   20.9070   -8.5304  -16.7553 C   0  0  0  0  0  0  0  0  0  0  0  0
   22.1436   -7.8238  -16.3041 C   0  0  2  0  0  0  0  0  0  0  0  0
   23.0494   -8.8139  -15.7513 N   0  0  0  0  0  0  0  0  0  0  0  0
   21.8279   -6.8796  -15.2053 C   0  0  0  0  0  0  0  0  0  0  0  0
   21.5327   -5.5217  -15.4342 O   0  0  0  0  0  0  0  0  0  0  0  0
   20.0221   -7.0011  -18.4655 C   0  0  0  0  0  0  0  0  0  0  0  0
   19.0466   -6.1759  -18.9797 C   0  0  0  0  0  0  0  0  0  0  0  0
   21.8052   -7.2359  -14.0061 O   0  0  0  0  0  0  0  0  0  0  0  0
  2  1  1  0
  2  3  2  0
  4  2  1  0
  5  4  1  0
  5  6  1  0
  6  8  1  0
  6  7  1  1
  8  9  2  0
 10 14  1  0
 10  8  1  0
 11 10  1  0
 12 13  1  0
 12 11  1  0
 13 14  1  0
 14 15  1  6
 15 16  2  0
 17 18  1  0
 18 19  2  0
 19 20  1  0
 21 22  1  0
 21 20  2  0
 23 22  1  1
 23 25  1  0
 24 23  1  0
 24 15  1  0
 25 29  2  0
 25 26  1  0
 27 21  1  0
 28 27  2  0
 28 18  1  0
M  END
$$$$
