QPY.pdb
     RDKit          3D

 29 30  0  0  1  0  0  0  0  0999 V2000
   26.6640  -17.8680  -14.2909 N   0  0  0  0  0  0  0  0  0  0  0  0
   25.6203  -18.6134  -14.8612 C   0  0  0  0  0  0  0  0  0  0  0  0
   25.4980  -18.6479  -16.1039 O   0  0  0  0  0  0  0  0  0  0  0  0
   24.6692  -19.3548  -14.0029 C   0  0  0  0  0  0  0  0  0  0  0  0
   25.3339  -19.6812  -12.6990 C   0  0  0  0  0  0  0  0  0  0  0  0
   26.0630  -21.0119  -12.6774 C   0  0  2  0  0  0  0  0  0  0  0  0
   25.0038  -21.9769  -13.0731 N   0  0  0  0  0  0  0  0  0  0  0  0
   26.5423  -21.3549  -11.3243 C   0  0  0  0  0  0  0  0  0  0  0  0
   25.6117  -21.5711  -10.4724 O   0  0  0  0  0  0  0  0  0  0  0  0
   27.9218  -21.4468  -10.9688 N   0  0  0  0  0  0  0  0  0  0  0  0
   28.9240  -21.8158  -11.9441 C   0  0  0  0  0  0  0  0  0  0  0  0
   30.0303  -20.8317  -11.6263 C   0  0  0  0  0  0  0  0  0  0  0  0
   30.0098  -20.8919  -10.1067 C   0  0  0  0  0  0  0  0  0  0  0  0
   28.5817  -21.3051   -9.7354 C   0  0  1  0  0  0  0  0  0  0  0  0
   28.0190  -20.3564   -8.7609 C   0  0  0  0  0  0  0  0  0  0  0  0
   27.1221  -19.5577   -9.0709 O   0  0  0  0  0  0  0  0  0  0  0  0
   23.1771  -20.0275   -1.7632 O   0  0  0  0  0  0  0  0  0  0  0  0
   24.0861  -20.2882   -2.7830 C   0  0  0  0  0  0  0  0  0  0  0  0
   25.4131  -20.0975   -2.5519 C   0  0  0  0  0  0  0  0  0  0  0  0
   26.3145  -20.3606   -3.5768 C   0  0  0  0  0  0  0  0  0  0  0  0
   25.8975  -20.8049   -4.8073 C   0  0  0  0  0  0  0  0  0  0  0  0
   26.8382  -21.0772   -5.8895 C   0  0  0  0  0  0  0  0  0  0  0  0
   27.6925  -19.9216   -6.2978 C   0  0  2  0  0  0  0  0  0  0  0  0
   28.5010  -20.3391   -7.4285 N   0  0  0  0  0  0  0  0  0  0  0  0
   28.6368  -19.5672   -5.2109 C   0  0  0  0  0  0  0  0  0  0  0  0
   28.4964  -18.3998   -4.4357 O   0  0  0  0  0  0  0  0  0  0  0  0
   24.5485  -20.9842   -4.9980 C   0  0  0  0  0  0  0  0  0  0  0  0
   23.6359  -20.7305   -3.9980 C   0  0  0  0  0  0  0  0  0  0  0  0
   29.6171  -20.2875   -4.9183 O   0  0  0  0  0  0  0  0  0  0  0  0
  2  1  1  0
  2  3  2  0
  4  2  1  0
  5  4  1  0
  5  6  1  0
  6  8  1  0
  6  7  1  1
  8  9  2  0
 10 14  1  0
 10  8  1  0
 11 10  1  0
 12 13  1  0
 12 11  1  0
 13 14  1  0
 14 15  1  1
 15 16  2  0
 17 18  1  0
 18 19  2  0
 19 20  1  0
 21 22  1  0
 21 20  2  0
 23 22  1  1
 23 25  1  0
 24 23  1  0
 24 15  1  0
 25 29  2  0
 25 26  1  0
 27 21  1  0
 28 27  2  0
 28 18  1  0
M  END
$$$$
