QPY.pdb
     RDKit          3D

 29 30  0  0  1  0  0  0  0  0999 V2000
   27.4557  -15.5839  -17.0330 N   0  0  0  0  0  0  0  0  0  0  0  0
   27.7492  -16.7002  -17.8316 C   0  0  0  0  0  0  0  0  0  0  0  0
   27.2405  -16.7928  -18.9688 O   0  0  0  0  0  0  0  0  0  0  0  0
   28.6530  -17.7627  -17.3363 C   0  0  0  0  0  0  0  0  0  0  0  0
   27.9210  -18.6046  -16.3345 C   0  0  0  0  0  0  0  0  0  0  0  0
   28.5825  -19.9343  -16.0232 C   0  0  2  0  0  0  0  0  0  0  0  0
   28.4100  -20.6949  -17.2887 N   0  0  0  0  0  0  0  0  0  0  0  0
   27.8904  -20.6519  -14.9349 C   0  0  0  0  0  0  0  0  0  0  0  0
   26.6723  -20.9515  -15.1897 O   0  0  0  0  0  0  0  0  0  0  0  0
   28.5045  -20.9971  -13.6933 N   0  0  0  0  0  0  0  0  0  0  0  0
   29.9310  -21.2157  -13.5982 C   0  0  0  0  0  0  0  0  0  0  0  0
   30.2622  -20.4878  -12.3123 C   0  0  0  0  0  0  0  0  0  0  0  0
   29.0974  -20.9393  -11.4448 C   0  0  0  0  0  0  0  0  0  0  0  0
   27.9629  -21.2617  -12.4231 C   0  0  1  0  0  0  0  0  0  0  0  0
   26.7407  -20.5399  -12.0341 C   0  0  0  0  0  0  0  0  0  0  0  0
   26.6856  -19.3007  -12.0375 O   0  0  0  0  0  0  0  0  0  0  0  0
   18.2076  -19.2729  -10.1601 O   0  0  0  0  0  0  0  0  0  0  0  0
   19.4466  -19.7599  -10.5627 C   0  0  0  0  0  0  0  0  0  0  0  0
   20.0968  -19.1482  -11.5892 C   0  0  0  0  0  0  0  0  0  0  0  0
   21.3346  -19.6415  -11.9849 C   0  0  0  0  0  0  0  0  0  0  0  0
   21.9101  -20.7242  -11.3670 C   0  0  0  0  0  0  0  0  0  0  0  0
   23.2067  -21.2509  -11.7815 C   0  0  0  0  0  0  0  0  0  0  0  0
   24.3907  -20.6231  -11.1212 C   0  0  2  0  0  0  0  0  0  0  0  0
   25.5856  -21.2612  -11.6424 N   0  0  0  0  0  0  0  0  0  0  0  0
   24.3712  -20.8896   -9.6627 C   0  0  0  0  0  0  0  0  0  0  0  0
   23.7327  -20.0338   -8.7443 O   0  0  0  0  0  0  0  0  0  0  0  0
   21.2194  -21.3121  -10.3347 C   0  0  0  0  0  0  0  0  0  0  0  0
   19.9917  -20.8415   -9.9244 C   0  0  0  0  0  0  0  0  0  0  0  0
   24.9230  -21.8944   -9.1612 O   0  0  0  0  0  0  0  0  0  0  0  0
  2  1  1  0
  2  3  2  0
  4  2  1  0
  5  4  1  0
  5  6  1  0
  6  8  1  0
  6  7  1  6
  8  9  2  0
 10 14  1  0
 10  8  1  0
 11 10  1  0
 12 13  1  0
 12 11  1  0
 13 14  1  0
 14 15  1  1
 15 16  2  0
 17 18  1  0
 18 19  2  0
 19 20  1  0
 21 22  1  0
 21 20  2  0
 23 22  1  6
 23 25  1  0
 24 23  1  0
 24 15  1  0
 25 29  2  0
 25 26  1  0
 27 21  1  0
 28 27  2  0
 28 18  1  0
M  END
$$$$
