QPY.pdb
     RDKit          3D

 29 30  0  0  1  0  0  0  0  0999 V2000
   22.7330  -15.7498  -18.3258 N   0  0  0  0  0  0  0  0  0  0  0  0
   23.9154  -16.3123  -18.8314 C   0  0  0  0  0  0  0  0  0  0  0  0
   23.8897  -17.4636  -19.3157 O   0  0  0  0  0  0  0  0  0  0  0  0
   25.1855  -15.5530  -18.7942 C   0  0  0  0  0  0  0  0  0  0  0  0
   24.9126  -14.1602  -18.3104 C   0  0  0  0  0  0  0  0  0  0  0  0
   25.6247  -13.7879  -17.0231 C   0  0  2  0  0  0  0  0  0  0  0  0
   25.0477  -14.7396  -16.0377 N   0  0  0  0  0  0  0  0  0  0  0  0
   25.3100  -12.4098  -16.5989 C   0  0  0  0  0  0  0  0  0  0  0  0
   24.0585  -12.1580  -16.5047 O   0  0  0  0  0  0  0  0  0  0  0  0
   26.2985  -11.4213  -16.3096 N   0  0  0  0  0  0  0  0  0  0  0  0
   27.6360  -11.7949  -15.9056 C   0  0  0  0  0  0  0  0  0  0  0  0
   28.4761  -10.8309  -16.7169 C   0  0  0  0  0  0  0  0  0  0  0  0
   27.6694   -9.5551  -16.5305 C   0  0  0  0  0  0  0  0  0  0  0  0
   26.2330  -10.0175  -16.2644 C   0  0  1  0  0  0  0  0  0  0  0  0
   25.3064   -9.3435  -17.1882 C   0  0  0  0  0  0  0  0  0  0  0  0
   25.3456   -9.5421  -18.4120 O   0  0  0  0  0  0  0  0  0  0  0  0
   18.8484   -9.1902  -13.1682 O   0  0  0  0  0  0  0  0  0  0  0  0
   19.6750   -9.0775  -14.2810 C   0  0  0  0  0  0  0  0  0  0  0  0
   19.6884   -7.9108  -14.9805 C   0  0  0  0  0  0  0  0  0  0  0  0
   20.5175   -7.8069  -16.0913 C   0  0  0  0  0  0  0  0  0  0  0  0
   21.3166   -8.8484  -16.4943 C   0  0  0  0  0  0  0  0  0  0  0  0
   22.1849   -8.7479  -17.6631 C   0  0  0  0  0  0  0  0  0  0  0  0
   23.3356   -7.8053  -17.5236 C   0  0  2  0  0  0  0  0  0  0  0  0
   24.3366   -8.4405  -16.6863 N   0  0  0  0  0  0  0  0  0  0  0  0
   22.9120   -6.5735  -16.8154 C   0  0  0  0  0  0  0  0  0  0  0  0
   22.1515   -5.5647  -17.4380 O   0  0  0  0  0  0  0  0  0  0  0  0
   21.2724  -10.0087  -15.7594 C   0  0  0  0  0  0  0  0  0  0  0  0
   20.4591  -10.1357  -14.6551 C   0  0  0  0  0  0  0  0  0  0  0  0
   23.2068   -6.3577  -15.6187 O   0  0  0  0  0  0  0  0  0  0  0  0
  2  1  1  0
  2  3  2  0
  4  2  1  0
  5  4  1  0
  5  6  1  0
  6  8  1  0
  6  7  1  1
  8  9  2  0
 10 14  1  0
 10  8  1  0
 11 10  1  0
 12 13  1  0
 12 11  1  0
 13 14  1  0
 14 15  1  6
 15 16  2  0
 17 18  1  0
 18 19  2  0
 19 20  1  0
 21 22  1  0
 21 20  2  0
 23 22  1  1
 23 25  1  0
 24 23  1  0
 24 15  1  0
 25 29  2  0
 25 26  1  0
 27 21  1  0
 28 27  2  0
 28 18  1  0
M  END
$$$$
