EHS.pdb
     RDKit          3D

 26 26  0  0  1  0  0  0  0  0999 V2000
   19.9170  -12.0116  -18.0888 N   0  0  0  0  0  0  0  0  0  0  0  0
   20.4401  -10.7167  -18.4372 C   0  0  1  0  0  0  0  0  0  0  0  0
   19.2527   -9.8729  -18.8203 C   0  0  0  0  0  0  0  0  0  0  0  0
   18.6471  -10.1619  -20.1394 C   0  0  0  0  0  0  0  0  0  0  0  0
   17.5457   -9.2542  -20.4776 C   0  0  0  0  0  0  0  0  0  0  0  0
   16.3515   -9.4025  -20.1276 O   0  0  0  0  0  0  0  0  0  0  0  0
   21.2164  -10.0681  -17.3986 C   0  0  0  0  0  0  0  0  0  0  0  0
   21.0385  -10.3969  -16.1995 O   0  0  0  0  0  0  0  0  0  0  0  0
   17.7991   -8.1047  -21.2594 O   0  0  0  0  0  0  0  0  0  0  0  0
   22.1967   -9.0559  -17.6271 N   0  0  0  0  0  0  0  0  0  0  0  0
   22.9422   -8.4103  -16.5710 C   0  0  1  0  0  0  0  0  0  0  0  0
   24.4352   -8.5227  -16.7870 C   0  0  0  0  0  0  0  0  0  0  0  0
   24.9705   -9.8544  -16.4801 C   0  0  0  0  0  0  0  0  0  0  0  0
   24.2937  -10.9261  -15.9443 C   0  0  0  0  0  0  0  0  0  0  0  0
   25.1534  -11.9776  -15.8164 N   0  0  0  0  0  0  0  0  0  0  0  0
   26.3500  -11.5635  -16.2677 C   0  0  0  0  0  0  0  0  0  0  0  0
   26.2320  -10.2825  -16.6661 N   0  0  0  0  0  0  0  0  0  0  0  0
   22.4713   -7.0090  -16.4414 C   0  0  0  0  0  0  0  0  0  0  0  0
   22.1620   -6.3321  -17.4605 O   0  0  0  0  0  0  0  0  0  0  0  0
   20.9411   -3.5571  -13.3736 O   0  0  0  0  0  0  0  0  0  0  0  0
   21.5176   -4.7870  -13.6003 C   0  0  0  0  0  0  0  0  0  0  0  0
   21.8029   -4.9888  -15.0975 C   0  0  2  0  0  0  0  0  0  0  0  0
   22.3383   -6.3464  -15.1833 N   0  0  0  0  0  0  0  0  0  0  0  0
   22.8487   -4.0304  -15.4527 C   0  0  0  0  0  0  0  0  0  0  0  0
   22.5665   -2.8348  -16.0950 O   0  0  0  0  0  0  0  0  0  0  0  0
   24.0455   -4.2822  -15.1747 O   0  0  0  0  0  0  0  0  0  0  0  0
  2  1  1  1
  2  7  1  0
  3  2  1  0
  4  3  1  0
  4  5  1  0
  5  6  2  0
  7  8  2  0
  9  5  1  0
 10  7  1  0
 10 11  1  0
 11 12  1  6
 12 13  1  0
 13 17  1  0
 13 14  2  0
 14 15  1  0
 16 15  1  0
 17 16  2  0
 18 11  1  0
 18 19  2  0
 20 21  1  0
 22 21  1  1
 22 23  1  0
 23 18  1  0
 24 22  1  0
 24 25  1  0
 26 24  2  0
M  END
$$$$
