EHS.pdb
     RDKit          3D

 26 26  0  0  1  0  0  0  0  0999 V2000
   21.9537  -13.4951  -16.6725 N   0  0  0  0  0  0  0  0  0  0  0  0
   22.4043  -12.4073  -15.8446 C   0  0  1  0  0  0  0  0  0  0  0  0
   23.8697  -12.2301  -16.1444 C   0  0  0  0  0  0  0  0  0  0  0  0
   24.7531  -13.3542  -15.7621 C   0  0  0  0  0  0  0  0  0  0  0  0
   26.1477  -13.1539  -16.1699 C   0  0  0  0  0  0  0  0  0  0  0  0
   27.1039  -13.9088  -15.8760 O   0  0  0  0  0  0  0  0  0  0  0  0
   21.6890  -11.1594  -16.0270 C   0  0  0  0  0  0  0  0  0  0  0  0
   21.2651  -10.8529  -17.1689 O   0  0  0  0  0  0  0  0  0  0  0  0
   26.4935  -12.0339  -16.9591 O   0  0  0  0  0  0  0  0  0  0  0  0
   21.4157  -10.2186  -14.9888 N   0  0  0  0  0  0  0  0  0  0  0  0
   20.6559   -9.0057  -15.1871 C   0  0  1  0  0  0  0  0  0  0  0  0
   19.3005   -9.0758  -14.5189 C   0  0  0  0  0  0  0  0  0  0  0  0
   18.4861   -7.8721  -14.7239 C   0  0  0  0  0  0  0  0  0  0  0  0
   17.9634   -7.4062  -15.9086 C   0  0  0  0  0  0  0  0  0  0  0  0
   17.2676   -6.2576  -15.6679 N   0  0  0  0  0  0  0  0  0  0  0  0
   17.3574   -6.0134  -14.3491 C   0  0  0  0  0  0  0  0  0  0  0  0
   18.0934   -6.9909  -13.7866 N   0  0  0  0  0  0  0  0  0  0  0  0
   21.4729   -7.8511  -14.7382 C   0  0  0  0  0  0  0  0  0  0  0  0
   22.2387   -7.9479  -13.7398 O   0  0  0  0  0  0  0  0  0  0  0  0
   23.4929   -5.5571  -17.0755 O   0  0  0  0  0  0  0  0  0  0  0  0
   22.6929   -4.7701  -16.2773 C   0  0  0  0  0  0  0  0  0  0  0  0
   22.3388   -5.4995  -14.9710 C   0  0  2  0  0  0  0  0  0  0  0  0
   21.4496   -6.5812  -15.3910 N   0  0  0  0  0  0  0  0  0  0  0  0
   21.5911   -4.5453  -14.1533 C   0  0  0  0  0  0  0  0  0  0  0  0
   22.2223   -3.6067  -13.3518 O   0  0  0  0  0  0  0  0  0  0  0  0
   20.3371   -4.5623  -14.1655 O   0  0  0  0  0  0  0  0  0  0  0  0
  2  1  1  6
  2  7  1  0
  3  2  1  0
  4  3  1  0
  4  5  1  0
  5  6  2  0
  7  8  2  0
  9  5  1  0
 10  7  1  0
 10 11  1  0
 11 12  1  1
 12 13  1  0
 13 17  1  0
 13 14  2  0
 14 15  1  0
 16 15  1  0
 17 16  2  0
 18 11  1  0
 18 19  2  0
 20 21  1  0
 22 21  1  6
 22 23  1  0
 23 18  1  0
 24 22  1  0
 24 25  1  0
 26 24  2  0
M  END
$$$$
