EHS.pdb
     RDKit          3D

 26 26  0  0  1  0  0  0  0  0999 V2000
   21.3792  -11.1716  -18.2592 N   0  0  0  0  0  0  0  0  0  0  0  0
   20.9700  -10.8084  -16.9279 C   0  0  1  0  0  0  0  0  0  0  0  0
   20.7692  -12.1016  -16.1823 C   0  0  0  0  0  0  0  0  0  0  0  0
   19.9544  -13.1289  -16.8685 C   0  0  0  0  0  0  0  0  0  0  0  0
   19.8422  -14.3771  -16.1064 C   0  0  0  0  0  0  0  0  0  0  0  0
   18.8549  -14.7159  -15.4127 O   0  0  0  0  0  0  0  0  0  0  0  0
   21.8913   -9.9440  -16.2165 C   0  0  0  0  0  0  0  0  0  0  0  0
   21.6986   -9.7072  -14.9981 O   0  0  0  0  0  0  0  0  0  0  0  0
   20.9062  -15.3068  -16.1226 O   0  0  0  0  0  0  0  0  0  0  0  0
   23.0349   -9.3185  -16.7984 N   0  0  0  0  0  0  0  0  0  0  0  0
   23.9158   -8.4298  -16.0760 C   0  0  1  0  0  0  0  0  0  0  0  0
   25.3614   -8.6212  -16.4787 C   0  0  0  0  0  0  0  0  0  0  0  0
   25.8852   -9.9538  -16.1562 C   0  0  0  0  0  0  0  0  0  0  0  0
   25.2324  -10.9754  -15.5052 C   0  0  0  0  0  0  0  0  0  0  0  0
   26.0700  -12.0477  -15.4055 N   0  0  0  0  0  0  0  0  0  0  0  0
   27.2293  -11.6958  -15.9878 C   0  0  0  0  0  0  0  0  0  0  0  0
   27.1104  -10.4321  -16.4381 N   0  0  0  0  0  0  0  0  0  0  0  0
   23.4371   -7.0360  -16.2509 C   0  0  0  0  0  0  0  0  0  0  0  0
   23.7333   -6.3735  -17.2833 O   0  0  0  0  0  0  0  0  0  0  0  0
   20.0671   -5.8199  -14.8732 O   0  0  0  0  0  0  0  0  0  0  0  0
   20.7306   -5.0388  -15.7931 C   0  0  0  0  0  0  0  0  0  0  0  0
   22.2319   -4.9696  -15.4691 C   0  0  2  0  0  0  0  0  0  0  0  0
   22.6264   -6.3652  -15.2854 N   0  0  0  0  0  0  0  0  0  0  0  0
   22.3486   -4.2599  -14.1959 C   0  0  0  0  0  0  0  0  0  0  0  0
   21.9951   -2.9264  -14.0594 O   0  0  0  0  0  0  0  0  0  0  0  0
   22.7807   -4.8618  -13.1840 O   0  0  0  0  0  0  0  0  0  0  0  0
  2  1  1  6
  2  7  1  0
  3  2  1  0
  4  3  1  0
  4  5  1  0
  5  6  2  0
  7  8  2  0
  9  5  1  0
 10  7  1  0
 10 11  1  0
 11 12  1  6
 12 13  1  0
 13 17  1  0
 13 14  2  0
 14 15  1  0
 16 15  1  0
 17 16  2  0
 18 11  1  0
 18 19  2  0
 20 21  1  0
 22 21  1  1
 22 23  1  0
 23 18  1  0
 24 22  1  0
 24 25  1  0
 26 24  2  0
M  END
$$$$
