EHS.pdb
     RDKit          3D

 26 26  0  0  1  0  0  0  0  0999 V2000
   26.8742  -25.0792  -16.5716 N   0  0  0  0  0  0  0  0  0  0  0  0
   27.3480  -26.1044  -17.4639 C   0  0  1  0  0  0  0  0  0  0  0  0
   28.7572  -25.7220  -17.8331 C   0  0  0  0  0  0  0  0  0  0  0  0
   28.9166  -24.4364  -18.5488 C   0  0  0  0  0  0  0  0  0  0  0  0
   30.3168  -24.1097  -18.8389 C   0  0  0  0  0  0  0  0  0  0  0  0
   31.1446  -23.6680  -18.0080 O   0  0  0  0  0  0  0  0  0  0  0  0
   27.3056  -27.4516  -16.9295 C   0  0  0  0  0  0  0  0  0  0  0  0
   27.3954  -27.6259  -15.6888 O   0  0  0  0  0  0  0  0  0  0  0  0
   30.8227  -24.2897  -20.1459 O   0  0  0  0  0  0  0  0  0  0  0  0
   27.1661  -28.6350  -17.7153 N   0  0  0  0  0  0  0  0  0  0  0  0
   26.9732  -29.9518  -17.1525 C   0  0  1  0  0  0  0  0  0  0  0  0
   25.6386  -30.5429  -17.5496 C   0  0  0  0  0  0  0  0  0  0  0  0
   24.4934  -29.8690  -16.9263 C   0  0  0  0  0  0  0  0  0  0  0  0
   24.4406  -29.2865  -15.6807 C   0  0  0  0  0  0  0  0  0  0  0  0
   23.1936  -28.7700  -15.4825 N   0  0  0  0  0  0  0  0  0  0  0  0
   22.4804  -29.0289  -16.5922 C   0  0  0  0  0  0  0  0  0  0  0  0
   23.2707  -29.6917  -17.4582 N   0  0  0  0  0  0  0  0  0  0  0  0
   28.1282  -30.8053  -17.5264 C   0  0  0  0  0  0  0  0  0  0  0  0
   28.6940  -30.6759  -18.6469 O   0  0  0  0  0  0  0  0  0  0  0  0
   29.0852  -33.8132  -15.1294 O   0  0  0  0  0  0  0  0  0  0  0  0
   30.2142  -33.3684  -15.7806 C   0  0  0  0  0  0  0  0  0  0  0  0
   29.8399  -32.5880  -17.0513 C   0  0  2  0  0  0  0  0  0  0  0  0
   28.6662  -31.8076  -16.6632 N   0  0  0  0  0  0  0  0  0  0  0  0
   29.4532  -33.5836  -18.0500 C   0  0  0  0  0  0  0  0  0  0  0  0
   28.1479  -33.7095  -18.4994 O   0  0  0  0  0  0  0  0  0  0  0  0
   30.3179  -34.3571  -18.5264 O   0  0  0  0  0  0  0  0  0  0  0  0
  2  1  1  1
  2  7  1  0
  3  2  1  0
  4  3  1  0
  4  5  1  0
  5  6  2  0
  7  8  2  0
  9  5  1  0
 10  7  1  0
 10 11  1  0
 11 12  1  6
 12 13  1  0
 13 17  1  0
 13 14  2  0
 14 15  1  0
 16 15  1  0
 17 16  2  0
 18 11  1  0
 18 19  2  0
 20 21  1  0
 22 21  1  1
 22 23  1  0
 23 18  1  0
 24 22  1  0
 24 25  1  0
 26 24  2  0
M  END
$$$$
