EHS.pdb
     RDKit          3D

 26 26  0  0  1  0  0  0  0  0999 V2000
   20.9118  -12.0782  -19.5099 N   0  0  0  0  0  0  0  0  0  0  0  0
   21.7306  -11.3355  -18.5882 C   0  0  1  0  0  0  0  0  0  0  0  0
   22.8207  -10.7010  -19.4114 C   0  0  0  0  0  0  0  0  0  0  0  0
   22.5231  -10.5085  -20.8483 C   0  0  0  0  0  0  0  0  0  0  0  0
   23.6393   -9.9149  -21.5920 C   0  0  0  0  0  0  0  0  0  0  0  0
   24.7642   -9.6399  -21.1128 O   0  0  0  0  0  0  0  0  0  0  0  0
   21.0269  -10.3344  -17.8104 C   0  0  0  0  0  0  0  0  0  0  0  0
   20.1025   -9.6745  -18.3468 O   0  0  0  0  0  0  0  0  0  0  0  0
   23.4849   -9.6094  -22.9630 O   0  0  0  0  0  0  0  0  0  0  0  0
   21.3016  -10.0234  -16.4446 N   0  0  0  0  0  0  0  0  0  0  0  0
   20.5383   -9.0710  -15.6712 C   0  0  1  0  0  0  0  0  0  0  0  0
   19.9277   -9.7061  -14.4415 C   0  0  0  0  0  0  0  0  0  0  0  0
   18.6796  -10.4278  -14.7162 C   0  0  0  0  0  0  0  0  0  0  0  0
   18.0604  -10.5969  -15.9335 C   0  0  0  0  0  0  0  0  0  0  0  0
   16.9231  -11.3295  -15.7573 N   0  0  0  0  0  0  0  0  0  0  0  0
   16.8373  -11.6119  -14.4458 C   0  0  0  0  0  0  0  0  0  0  0  0
   17.8997  -11.0650  -13.8246 N   0  0  0  0  0  0  0  0  0  0  0  0
   21.4021   -7.9045  -15.3624 C   0  0  0  0  0  0  0  0  0  0  0  0
   22.6156   -8.0602  -15.0528 O   0  0  0  0  0  0  0  0  0  0  0  0
   21.7862   -3.0604  -15.3635 O   0  0  0  0  0  0  0  0  0  0  0  0
   21.1871   -4.2322  -15.7689 C   0  0  0  0  0  0  0  0  0  0  0  0
   21.8085   -5.4406  -15.0495 C   0  0  2  0  0  0  0  0  0  0  0  0
   20.9301   -6.5571  -15.3945 N   0  0  0  0  0  0  0  0  0  0  0  0
   21.7070   -5.1668  -13.6167 C   0  0  0  0  0  0  0  0  0  0  0  0
   22.7225   -4.5398  -12.9115 O   0  0  0  0  0  0  0  0  0  0  0  0
   20.6745   -5.5035  -12.9894 O   0  0  0  0  0  0  0  0  0  0  0  0
  2  1  1  6
  2  7  1  0
  3  2  1  0
  4  3  1  0
  4  5  1  0
  5  6  2  0
  7  8  2  0
  9  5  1  0
 10  7  1  0
 10 11  1  0
 11 12  1  1
 12 13  1  0
 13 17  1  0
 13 14  2  0
 14 15  1  0
 16 15  1  0
 17 16  2  0
 18 11  1  0
 18 19  2  0
 20 21  1  0
 22 21  1  6
 22 23  1  0
 23 18  1  0
 24 22  1  0
 24 25  1  0
 26 24  2  0
M  END
$$$$
