EHS.pdb
     RDKit          3D

 26 26  0  0  1  0  0  0  0  0999 V2000
   28.1189  -19.6239  -18.3782 N   0  0  0  0  0  0  0  0  0  0  0  0
   27.8111  -18.7964  -17.2414 C   0  0  1  0  0  0  0  0  0  0  0  0
   27.2023  -17.5340  -17.7930 C   0  0  0  0  0  0  0  0  0  0  0  0
   25.8768  -17.6772  -18.4354 C   0  0  0  0  0  0  0  0  0  0  0  0
   25.2824  -16.3925  -18.8198 C   0  0  0  0  0  0  0  0  0  0  0  0
   25.9204  -15.3372  -19.0431 O   0  0  0  0  0  0  0  0  0  0  0  0
   26.9331  -19.4029  -16.2599 C   0  0  0  0  0  0  0  0  0  0  0  0
   26.2120  -20.3752  -16.5949 O   0  0  0  0  0  0  0  0  0  0  0  0
   23.8809  -16.2831  -18.9633 O   0  0  0  0  0  0  0  0  0  0  0  0
   26.8128  -18.9778  -14.9025 N   0  0  0  0  0  0  0  0  0  0  0  0
   26.0467  -19.6898  -13.9055 C   0  0  1  0  0  0  0  0  0  0  0  0
   26.3967  -19.2436  -12.5031 C   0  0  0  0  0  0  0  0  0  0  0  0
   25.6544  -19.9615  -11.4601 C   0  0  0  0  0  0  0  0  0  0  0  0
   24.6944  -20.9322  -11.6328 C   0  0  0  0  0  0  0  0  0  0  0  0
   24.2518  -21.3442  -10.4099 N   0  0  0  0  0  0  0  0  0  0  0  0
   24.9292  -20.6374   -9.4887 C   0  0  0  0  0  0  0  0  0  0  0  0
   25.7729  -19.8059  -10.1293 N   0  0  0  0  0  0  0  0  0  0  0  0
   24.6036  -19.5514  -14.2229 C   0  0  0  0  0  0  0  0  0  0  0  0
   24.1285  -18.4494  -14.6134 O   0  0  0  0  0  0  0  0  0  0  0  0
   20.5098  -21.7583  -15.4222 O   0  0  0  0  0  0  0  0  0  0  0  0
   21.8437  -21.7781  -15.0807 C   0  0  0  0  0  0  0  0  0  0  0  0
   22.2614  -20.4479  -14.4327 C   0  0  2  0  0  0  0  0  0  0  0  0
   23.6757  -20.6311  -14.1114 N   0  0  0  0  0  0  0  0  0  0  0  0
   21.4927  -20.3311  -13.1942 C   0  0  0  0  0  0  0  0  0  0  0  0
   20.2016  -19.8267  -13.1719 O   0  0  0  0  0  0  0  0  0  0  0  0
   22.0025  -20.6945  -12.1075 O   0  0  0  0  0  0  0  0  0  0  0  0
  2  1  1  6
  2  7  1  0
  3  2  1  0
  4  3  1  0
  4  5  1  0
  5  6  2  0
  7  8  2  0
  9  5  1  0
 10  7  1  0
 10 11  1  0
 11 12  1  1
 12 13  1  0
 13 17  1  0
 13 14  2  0
 14 15  1  0
 16 15  1  0
 17 16  2  0
 18 11  1  0
 18 19  2  0
 20 21  1  0
 22 21  1  1
 22 23  1  0
 23 18  1  0
 24 22  1  0
 24 25  1  0
 26 24  2  0
M  END
$$$$
