EHS.pdb
     RDKit          3D

 26 26  0  0  1  0  0  0  0  0999 V2000
   32.0450  -31.6724  -18.0632 N   0  0  0  0  0  0  0  0  0  0  0  0
   31.7796  -30.3255  -18.4957 C   0  0  1  0  0  0  0  0  0  0  0  0
   32.0990  -30.2858  -19.9670 C   0  0  0  0  0  0  0  0  0  0  0  0
   33.5343  -30.3422  -20.3234 C   0  0  0  0  0  0  0  0  0  0  0  0
   34.1875  -29.0294  -20.2879 C   0  0  0  0  0  0  0  0  0  0  0  0
   33.7771  -28.0002  -20.8734 O   0  0  0  0  0  0  0  0  0  0  0  0
   30.4295  -29.8566  -18.2512 C   0  0  0  0  0  0  0  0  0  0  0  0
   29.4995  -30.6918  -18.1283 O   0  0  0  0  0  0  0  0  0  0  0  0
   35.3790  -28.8587  -19.5477 O   0  0  0  0  0  0  0  0  0  0  0  0
   30.0530  -28.4847  -18.1343 N   0  0  0  0  0  0  0  0  0  0  0  0
   28.7029  -28.0450  -17.8661 C   0  0  1  0  0  0  0  0  0  0  0  0
   28.6695  -26.6376  -17.3125 C   0  0  0  0  0  0  0  0  0  0  0  0
   27.3298  -26.2060  -16.8966 C   0  0  0  0  0  0  0  0  0  0  0  0
   26.1648  -26.9374  -16.9345 C   0  0  0  0  0  0  0  0  0  0  0  0
   25.1414  -26.1709  -16.4587 N   0  0  0  0  0  0  0  0  0  0  0  0
   25.6651  -24.9775  -16.1292 C   0  0  0  0  0  0  0  0  0  0  0  0
   26.9848  -25.0061  -16.3960 N   0  0  0  0  0  0  0  0  0  0  0  0
   27.8926  -28.2108  -19.0982 C   0  0  0  0  0  0  0  0  0  0  0  0
   28.3465  -27.8656  -20.2240 O   0  0  0  0  0  0  0  0  0  0  0  0
   23.8178  -29.9903  -21.0673 O   0  0  0  0  0  0  0  0  0  0  0  0
   24.6185  -29.7705  -19.9686 C   0  0  0  0  0  0  0  0  0  0  0  0
   25.7796  -28.8258  -20.3193 C   0  0  2  0  0  0  0  0  0  0  0  0
   26.5746  -28.7606  -19.0942 N   0  0  0  0  0  0  0  0  0  0  0  0
   25.1836  -27.5167  -20.5823 C   0  0  0  0  0  0  0  0  0  0  0  0
   24.8541  -27.0997  -21.8626 O   0  0  0  0  0  0  0  0  0  0  0  0
   24.9561  -26.7327  -19.6301 O   0  0  0  0  0  0  0  0  0  0  0  0
  2  1  1  6
  2  7  1  0
  3  2  1  0
  4  3  1  0
  4  5  1  0
  5  6  2  0
  7  8  2  0
  9  5  1  0
 10  7  1  0
 10 11  1  0
 11 12  1  6
 12 13  1  0
 13 17  1  0
 13 14  2  0
 14 15  1  0
 16 15  1  0
 17 16  2  0
 18 11  1  0
 18 19  2  0
 20 21  1  0
 22 21  1  1
 22 23  1  0
 23 18  1  0
 24 22  1  0
 24 25  1  0
 26 24  2  0
M  END
$$$$
