EHS.pdb
     RDKit          3D

 26 26  0  0  1  0  0  0  0  0999 V2000
   28.4940  -19.5564  -16.9172 N   0  0  0  0  0  0  0  0  0  0  0  0
   27.6582  -18.8782  -15.9615 C   0  0  1  0  0  0  0  0  0  0  0  0
   26.7776  -17.9506  -16.7569 C   0  0  0  0  0  0  0  0  0  0  0  0
   27.4710  -16.8870  -17.5172 C   0  0  0  0  0  0  0  0  0  0  0  0
   27.5099  -17.1443  -18.9607 C   0  0  0  0  0  0  0  0  0  0  0  0
   28.5356  -17.4437  -19.6157 O   0  0  0  0  0  0  0  0  0  0  0  0
   26.8596  -19.7465  -15.1187 C   0  0  0  0  0  0  0  0  0  0  0  0
   26.3207  -20.7653  -15.6181 O   0  0  0  0  0  0  0  0  0  0  0  0
   26.3213  -17.0607  -19.7202 O   0  0  0  0  0  0  0  0  0  0  0  0
   26.6246  -19.5380  -13.7262 N   0  0  0  0  0  0  0  0  0  0  0  0
   25.8242  -20.4202  -12.9084 C   0  0  1  0  0  0  0  0  0  0  0  0
   26.2821  -20.4199  -11.4666 C   0  0  0  0  0  0  0  0  0  0  0  0
   27.6664  -20.8761  -11.2940 C   0  0  0  0  0  0  0  0  0  0  0  0
   28.5196  -21.3491  -12.2646 C   0  0  0  0  0  0  0  0  0  0  0  0
   29.7156  -21.6672  -11.6905 N   0  0  0  0  0  0  0  0  0  0  0  0
   29.6061  -21.3948  -10.3787 C   0  0  0  0  0  0  0  0  0  0  0  0
   28.3680  -20.9182  -10.1472 N   0  0  0  0  0  0  0  0  0  0  0  0
   24.3947  -20.0564  -13.0707 C   0  0  0  0  0  0  0  0  0  0  0  0
   24.0314  -18.8481  -13.0906 O   0  0  0  0  0  0  0  0  0  0  0  0
   20.4780  -20.4491  -15.3085 O   0  0  0  0  0  0  0  0  0  0  0  0
   21.7673  -20.7758  -14.9514 C   0  0  0  0  0  0  0  0  0  0  0  0
   21.9695  -20.6219  -13.4351 C   0  0  2  0  0  0  0  0  0  0  0  0
   23.3566  -21.0267  -13.2129 N   0  0  0  0  0  0  0  0  0  0  0  0
   21.0737  -21.5859  -12.7977 C   0  0  0  0  0  0  0  0  0  0  0  0
   19.7957  -21.2438  -12.3836 O   0  0  0  0  0  0  0  0  0  0  0  0
   21.4577  -22.7653  -12.6118 O   0  0  0  0  0  0  0  0  0  0  0  0
  2  1  1  6
  2  7  1  0
  3  2  1  0
  4  3  1  0
  4  5  1  0
  5  6  2  0
  7  8  2  0
  9  5  1  0
 10  7  1  0
 10 11  1  0
 11 12  1  1
 12 13  1  0
 13 17  1  0
 13 14  2  0
 14 15  1  0
 16 15  1  0
 17 16  2  0
 18 11  1  0
 18 19  2  0
 20 21  1  0
 22 21  1  6
 22 23  1  0
 23 18  1  0
 24 22  1  0
 24 25  1  0
 26 24  2  0
M  END
$$$$
