EHS.pdb
     RDKit          3D

 26 26  0  0  1  0  0  0  0  0999 V2000
   21.9176  -13.1032  -16.6157 N   0  0  0  0  0  0  0  0  0  0  0  0
   21.3771  -11.9053  -17.2028 C   0  0  1  0  0  0  0  0  0  0  0  0
   19.8790  -12.0317  -17.1122 C   0  0  0  0  0  0  0  0  0  0  0  0
   19.2954  -13.2722  -17.6697 C   0  0  0  0  0  0  0  0  0  0  0  0
   18.5827  -14.0727  -16.6684 C   0  0  0  0  0  0  0  0  0  0  0  0
   19.1241  -14.7544  -15.7669 O   0  0  0  0  0  0  0  0  0  0  0  0
   21.8250  -10.6673  -16.5953 C   0  0  0  0  0  0  0  0  0  0  0  0
   21.6852  -10.5019  -15.3580 O   0  0  0  0  0  0  0  0  0  0  0  0
   17.1702  -14.1119  -16.6779 O   0  0  0  0  0  0  0  0  0  0  0  0
   22.4302   -9.5855  -17.3031 N   0  0  0  0  0  0  0  0  0  0  0  0
   22.8083   -8.3358  -16.6843 C   0  0  1  0  0  0  0  0  0  0  0  0
   24.2731   -8.0235  -16.8972 C   0  0  0  0  0  0  0  0  0  0  0  0
   25.1744   -8.9677  -16.2262 C   0  0  0  0  0  0  0  0  0  0  0  0
   24.8310   -9.9910  -15.3727 C   0  0  0  0  0  0  0  0  0  0  0  0
   25.9644  -10.6327  -14.9670 N   0  0  0  0  0  0  0  0  0  0  0  0
   26.9996  -10.0149  -15.5618 C   0  0  0  0  0  0  0  0  0  0  0  0
   26.5155   -9.0121  -16.3194 N   0  0  0  0  0  0  0  0  0  0  0  0
   21.9027   -7.2669  -17.1738 C   0  0  0  0  0  0  0  0  0  0  0  0
   21.9444   -6.8814  -18.3747 O   0  0  0  0  0  0  0  0  0  0  0  0
   18.6206   -6.4430  -15.2408 O   0  0  0  0  0  0  0  0  0  0  0  0
   18.6973   -5.8823  -16.4962 C   0  0  0  0  0  0  0  0  0  0  0  0
   20.1466   -5.4964  -16.8343 C   0  0  2  0  0  0  0  0  0  0  0  0
   20.9437   -6.6171  -16.3386 N   0  0  0  0  0  0  0  0  0  0  0  0
   20.4502   -4.2997  -16.0505 C   0  0  0  0  0  0  0  0  0  0  0  0
   19.7909   -3.0974  -16.2542 O   0  0  0  0  0  0  0  0  0  0  0  0
   21.3330   -4.3447  -15.1608 O   0  0  0  0  0  0  0  0  0  0  0  0
  2  1  1  1
  2  7  1  0
  3  2  1  0
  4  3  1  0
  4  5  1  0
  5  6  2  0
  7  8  2  0
  9  5  1  0
 10  7  1  0
 10 11  1  0
 11 12  1  6
 12 13  1  0
 13 17  1  0
 13 14  2  0
 14 15  1  0
 16 15  1  0
 17 16  2  0
 18 11  1  0
 18 19  2  0
 20 21  1  0
 22 21  1  1
 22 23  1  0
 23 18  1  0
 24 22  1  0
 24 25  1  0
 26 24  2  0
M  END
$$$$
