EHS.pdb
     RDKit          3D

 26 26  0  0  1  0  0  0  0  0999 V2000
   22.1470  -28.6371  -16.6596 N   0  0  0  0  0  0  0  0  0  0  0  0
   21.9059  -28.5862  -15.2415 C   0  0  1  0  0  0  0  0  0  0  0  0
   23.1247  -29.1810  -14.5863 C   0  0  0  0  0  0  0  0  0  0  0  0
   23.3183  -30.6365  -14.7711 C   0  0  0  0  0  0  0  0  0  0  0  0
   22.3173  -31.4438  -14.0657 C   0  0  0  0  0  0  0  0  0  0  0  0
   21.2328  -31.8405  -14.5527 O   0  0  0  0  0  0  0  0  0  0  0  0
   21.6325  -27.2645  -14.7120 C   0  0  0  0  0  0  0  0  0  0  0  0
   21.5222  -27.1083  -13.4706 O   0  0  0  0  0  0  0  0  0  0  0  0
   22.5465  -31.8320  -12.7265 O   0  0  0  0  0  0  0  0  0  0  0  0
   21.4725  -26.0875  -15.5036 N   0  0  0  0  0  0  0  0  0  0  0  0
   21.3017  -24.7651  -14.9468 C   0  0  1  0  0  0  0  0  0  0  0  0
   22.3814  -23.8144  -15.4146 C   0  0  0  0  0  0  0  0  0  0  0  0
   23.7060  -24.1174  -14.8598 C   0  0  0  0  0  0  0  0  0  0  0  0
   24.0401  -25.1373  -13.9985 C   0  0  0  0  0  0  0  0  0  0  0  0
   25.3748  -25.0705  -13.7246 N   0  0  0  0  0  0  0  0  0  0  0  0
   25.8637  -24.0211  -14.4079 C   0  0  0  0  0  0  0  0  0  0  0  0
   24.8518  -23.4515  -15.0899 N   0  0  0  0  0  0  0  0  0  0  0  0
   19.9291  -24.2914  -15.2527 C   0  0  0  0  0  0  0  0  0  0  0  0
   19.4931  -24.2886  -16.4370 O   0  0  0  0  0  0  0  0  0  0  0  0
   16.6737  -24.5126  -12.7310 O   0  0  0  0  0  0  0  0  0  0  0  0
   16.9575  -23.2657  -13.2418 C   0  0  0  0  0  0  0  0  0  0  0  0
   17.6766  -23.3810  -14.5959 C   0  0  2  0  0  0  0  0  0  0  0  0
   19.0283  -23.8180  -14.2508 N   0  0  0  0  0  0  0  0  0  0  0  0
   17.7298  -22.0300  -15.1530 C   0  0  0  0  0  0  0  0  0  0  0  0
   16.7783  -21.5622  -16.0462 O   0  0  0  0  0  0  0  0  0  0  0  0
   18.6596  -21.2558  -14.8230 O   0  0  0  0  0  0  0  0  0  0  0  0
  2  1  1  6
  2  7  1  0
  3  2  1  0
  4  3  1  0
  4  5  1  0
  5  6  2  0
  7  8  2  0
  9  5  1  0
 10  7  1  0
 10 11  1  0
 11 12  1  6
 12 13  1  0
 13 17  1  0
 13 14  2  0
 14 15  1  0
 16 15  1  0
 17 16  2  0
 18 11  1  0
 18 19  2  0
 20 21  1  0
 22 21  1  1
 22 23  1  0
 23 18  1  0
 24 22  1  0
 24 25  1  0
 26 24  2  0
M  END
$$$$
