LIK.pdb
     RDKit          3D

 26 25  0  0  1  0  0  0  0  0999 V2000
   20.1984  -14.6006  -20.8980 C   0  0  0  0  0  0  0  0  0  0  0  0
   21.3780  -15.1267  -20.0643 C   0  0  1  0  0  0  0  0  0  0  0  0
   22.5604  -15.1240  -21.0205 C   0  0  0  0  0  0  0  0  0  0  0  0
   21.5530  -14.1489  -18.9474 C   0  0  0  0  0  0  0  0  0  0  0  0
   22.7287  -14.3971  -18.0542 C   0  0  2  0  0  0  0  0  0  0  0  0
   22.6999  -15.7242  -17.5233 N   0  0  0  0  0  0  0  0  0  0  0  0
   22.9595  -13.3331  -17.0704 C   0  0  0  0  0  0  0  0  0  0  0  0
   22.2691  -13.3394  -16.0232 O   0  0  0  0  0  0  0  0  0  0  0  0
   27.8592  -11.8856  -15.6135 C   0  0  0  0  0  0  0  0  0  0  0  0
   26.3890  -12.1655  -15.7138 C   0  0  0  0  0  0  0  0  0  0  0  0
   25.5809  -10.9210  -16.0273 C   0  0  2  0  0  0  0  0  0  0  0  0
   25.7331   -9.8517  -14.9997 C   0  0  0  0  0  0  0  0  0  0  0  0
   24.1199  -11.2451  -16.2500 C   0  0  2  0  0  0  0  0  0  0  0  0
   23.9136  -12.2905  -17.2196 N   0  0  0  0  0  0  0  0  0  0  0  0
   23.2970  -10.0380  -16.5205 C   0  0  0  0  0  0  0  0  0  0  0  0
   23.4158   -9.3448  -17.5695 O   0  0  0  0  0  0  0  0  0  0  0  0
   22.3170   -9.6000  -15.5889 N   0  0  0  0  0  0  0  0  0  0  0  0
   21.4078   -8.5203  -15.8166 C   0  0  1  0  0  0  0  0  0  0  0  0
   19.9740   -9.0011  -15.6038 C   0  0  0  0  0  0  0  0  0  0  0  0
   18.9717   -7.9516  -15.9240 C   0  0  0  0  0  0  0  0  0  0  0  0
   17.5858   -8.4054  -15.5484 C   0  0  0  0  0  0  0  0  0  0  0  0
   16.5805   -7.3279  -15.7643 C   0  0  0  0  0  0  0  0  0  0  0  0
   15.2570   -7.7398  -15.3253 N   0  0  0  0  0  0  0  0  0  0  0  0
   21.6624   -7.4589  -14.7924 C   0  0  0  0  0  0  0  0  0  0  0  0
   21.3477   -6.1186  -15.0464 O   0  0  0  0  0  0  0  0  0  0  0  0
   22.1619   -7.7276  -13.6801 O   0  0  0  0  0  0  0  0  0  0  0  0
  2  3  1  6
  2  1  1  0
  4  2  1  0
  5  7  1  0
  5  4  1  0
  5  6  1  1
  7  8  2  0
  9 10  1  0
 11 12  1  1
 11 10  1  0
 13 14  1  6
 13 11  1  0
 14  7  1  0
 15 13  1  0
 16 15  2  0
 17 15  1  0
 18 24  1  0
 18 17  1  0
 18 19  1  1
 20 19  1  0
 21 20  1  0
 22 21  1  0
 23 22  1  0
 24 25  1  0
 26 24  2  0
M  END
$$$$
