LIK.pdb
     RDKit          3D

 26 25  0  0  1  0  0  0  0  0999 V2000
   23.7243  -19.0478  -15.3679 C   0  0  0  0  0  0  0  0  0  0  0  0
   25.0122  -19.6385  -14.7715 C   0  0  1  0  0  0  0  0  0  0  0  0
   25.9746  -18.4641  -14.6872 C   0  0  0  0  0  0  0  0  0  0  0  0
   24.6336  -20.1560  -13.4214 C   0  0  0  0  0  0  0  0  0  0  0  0
   25.7678  -20.6637  -12.5863 C   0  0  2  0  0  0  0  0  0  0  0  0
   26.5759  -21.5852  -13.3223 N   0  0  0  0  0  0  0  0  0  0  0  0
   25.3634  -21.1135  -11.2494 C   0  0  0  0  0  0  0  0  0  0  0  0
   24.9446  -22.2892  -11.1252 O   0  0  0  0  0  0  0  0  0  0  0  0
   27.8805  -19.2778   -6.7886 C   0  0  0  0  0  0  0  0  0  0  0  0
   27.1559  -20.1911   -7.7325 C   0  0  0  0  0  0  0  0  0  0  0  0
   25.6492  -20.0453   -7.6396 C   0  0  2  0  0  0  0  0  0  0  0  0
   25.0981  -20.4993   -6.3309 C   0  0  0  0  0  0  0  0  0  0  0  0
   24.9490  -20.7420   -8.7857 C   0  0  2  0  0  0  0  0  0  0  0  0
   25.4121  -20.3085  -10.0792 N   0  0  0  0  0  0  0  0  0  0  0  0
   23.4687  -20.7076   -8.6626 C   0  0  0  0  0  0  0  0  0  0  0  0
   22.7697  -19.7238   -9.0349 O   0  0  0  0  0  0  0  0  0  0  0  0
   22.7576  -21.8059   -8.1074 N   0  0  0  0  0  0  0  0  0  0  0  0
   21.3397  -21.8457   -7.9278 C   0  0  1  0  0  0  0  0  0  0  0  0
   20.8909  -23.2865   -7.6935 C   0  0  0  0  0  0  0  0  0  0  0  0
   19.4266  -23.3927   -7.4627 C   0  0  0  0  0  0  0  0  0  0  0  0
   19.0313  -24.8206   -7.1935 C   0  0  0  0  0  0  0  0  0  0  0  0
   17.5743  -24.9402   -6.9088 C   0  0  0  0  0  0  0  0  0  0  0  0
   17.1882  -26.3238   -6.6841 N   0  0  0  0  0  0  0  0  0  0  0  0
   20.9946  -21.0804   -6.6886 C   0  0  0  0  0  0  0  0  0  0  0  0
   19.8006  -20.3554   -6.5954 O   0  0  0  0  0  0  0  0  0  0  0  0
   21.7541  -21.0601   -5.6978 O   0  0  0  0  0  0  0  0  0  0  0  0
  2  3  1  1
  2  1  1  0
  4  2  1  0
  5  7  1  0
  5  4  1  0
  5  6  1  6
  7  8  2  0
  9 10  1  0
 11 12  1  1
 11 10  1  0
 13 14  1  6
 13 11  1  0
 14  7  1  0
 15 13  1  0
 16 15  2  0
 17 15  1  0
 18 24  1  0
 18 17  1  0
 18 19  1  1
 20 19  1  0
 21 20  1  0
 22 21  1  0
 23 22  1  0
 24 25  1  0
 26 24  2  0
M  END
$$$$
