LIK.pdb
     RDKit          3D

 26 25  0  0  1  0  0  0  0  0999 V2000
   27.4729  -17.6988  -17.4392 C   0  0  0  0  0  0  0  0  0  0  0  0
   28.1340  -18.8198  -16.6210 C   0  0  1  0  0  0  0  0  0  0  0  0
   29.0943  -18.1023  -15.6853 C   0  0  0  0  0  0  0  0  0  0  0  0
   27.0223  -19.4919  -15.8818 C   0  0  0  0  0  0  0  0  0  0  0  0
   27.4452  -20.5333  -14.8927 C   0  0  2  0  0  0  0  0  0  0  0  0
   28.2189  -21.5570  -15.5231 N   0  0  0  0  0  0  0  0  0  0  0  0
   26.3557  -21.0103  -14.0332 C   0  0  0  0  0  0  0  0  0  0  0  0
   25.7163  -22.0247  -14.4012 O   0  0  0  0  0  0  0  0  0  0  0  0
   26.8339  -20.5674   -8.7295 C   0  0  0  0  0  0  0  0  0  0  0  0
   26.3637  -21.2011  -10.0051 C   0  0  0  0  0  0  0  0  0  0  0  0
   25.0755  -20.5868  -10.5183 C   0  0  2  0  0  0  0  0  0  0  0  0
   23.8770  -21.0050   -9.7364 C   0  0  0  0  0  0  0  0  0  0  0  0
   24.8747  -20.8606  -11.9928 C   0  0  2  0  0  0  0  0  0  0  0  0
   25.9708  -20.4023  -12.8077 N   0  0  0  0  0  0  0  0  0  0  0  0
   23.5538  -20.3965  -12.4900 C   0  0  0  0  0  0  0  0  0  0  0  0
   23.2511  -19.1756  -12.6032 O   0  0  0  0  0  0  0  0  0  0  0  0
   22.5493  -21.3278  -12.8691 N   0  0  0  0  0  0  0  0  0  0  0  0
   21.2839  -20.9710  -13.4310 C   0  0  1  0  0  0  0  0  0  0  0  0
   20.6048  -22.2144  -14.0011 C   0  0  0  0  0  0  0  0  0  0  0  0
   19.3267  -21.8960  -14.6894 C   0  0  0  0  0  0  0  0  0  0  0  0
   18.7233  -23.1361  -15.2941 C   0  0  0  0  0  0  0  0  0  0  0  0
   17.5113  -22.8177  -16.0990 C   0  0  0  0  0  0  0  0  0  0  0  0
   16.9956  -23.9981  -16.7734 N   0  0  0  0  0  0  0  0  0  0  0  0
   20.4014  -20.4634  -12.3339 C   0  0  0  0  0  0  0  0  0  0  0  0
   19.4988  -19.4168  -12.5576 O   0  0  0  0  0  0  0  0  0  0  0  0
   20.4370  -20.9513  -11.1851 O   0  0  0  0  0  0  0  0  0  0  0  0
  2  3  1  1
  2  1  1  0
  4  2  1  0
  5  7  1  0
  5  4  1  0
  5  6  1  6
  7  8  2  0
  9 10  1  0
 11 12  1  1
 11 10  1  0
 13 14  1  6
 13 11  1  0
 14  7  1  0
 15 13  1  0
 16 15  2  0
 17 15  1  0
 18 24  1  0
 18 17  1  0
 18 19  1  1
 20 19  1  0
 21 20  1  0
 22 21  1  0
 23 22  1  0
 24 25  1  0
 26 24  2  0
M  END
$$$$
