LIK.pdb
     RDKit          3D

 26 25  0  0  1  0  0  0  0  0999 V2000
   20.0242  -16.9159  -16.9321 C   0  0  0  0  0  0  0  0  0  0  0  0
   21.2243  -17.5456  -17.6578 C   0  0  1  0  0  0  0  0  0  0  0  0
   22.1489  -16.3777  -17.9636 C   0  0  0  0  0  0  0  0  0  0  0  0
   21.8293  -18.5045  -16.6840 C   0  0  0  0  0  0  0  0  0  0  0  0
   23.1752  -19.0409  -17.0617 C   0  0  2  0  0  0  0  0  0  0  0  0
   23.1072  -19.7903  -18.2773 N   0  0  0  0  0  0  0  0  0  0  0  0
   23.8808  -19.7005  -15.9571 C   0  0  0  0  0  0  0  0  0  0  0  0
   23.2860  -20.6182  -15.3429 O   0  0  0  0  0  0  0  0  0  0  0  0
   28.7586  -19.9454  -16.8616 C   0  0  0  0  0  0  0  0  0  0  0  0
   27.7296  -20.7412  -16.1148 C   0  0  0  0  0  0  0  0  0  0  0  0
   27.4061  -20.1446  -14.7584 C   0  0  2  0  0  0  0  0  0  0  0  0
   28.1033  -20.8346  -13.6357 C   0  0  0  0  0  0  0  0  0  0  0  0
   25.9142  -20.0945  -14.5117 C   0  0  2  0  0  0  0  0  0  0  0  0
   25.1961  -19.3723  -15.5307 N   0  0  0  0  0  0  0  0  0  0  0  0
   25.5726  -19.6444  -13.1376 C   0  0  0  0  0  0  0  0  0  0  0  0
   25.6833  -18.4447  -12.7587 O   0  0  0  0  0  0  0  0  0  0  0  0
   25.0949  -20.5656  -12.1664 N   0  0  0  0  0  0  0  0  0  0  0  0
   24.7215  -20.2149  -10.8315 C   0  0  1  0  0  0  0  0  0  0  0  0
   23.5878  -21.1224  -10.3589 C   0  0  0  0  0  0  0  0  0  0  0  0
   23.0818  -20.7425   -9.0141 C   0  0  0  0  0  0  0  0  0  0  0  0
   22.9910  -21.9492   -8.1179 C   0  0  0  0  0  0  0  0  0  0  0  0
   22.3361  -21.6194   -6.8216 C   0  0  0  0  0  0  0  0  0  0  0  0
   21.1911  -22.4796   -6.5703 N   0  0  0  0  0  0  0  0  0  0  0  0
   25.8858  -20.4742   -9.9273 C   0  0  0  0  0  0  0  0  0  0  0  0
   26.7844  -21.5161  -10.1860 O   0  0  0  0  0  0  0  0  0  0  0  0
   26.0977  -19.7752   -8.9146 O   0  0  0  0  0  0  0  0  0  0  0  0
  2  3  1  1
  2  1  1  0
  4  2  1  0
  5  7  1  0
  5  4  1  0
  5  6  1  6
  7  8  2  0
  9 10  1  0
 11 12  1  1
 11 10  1  0
 13 14  1  6
 13 11  1  0
 14  7  1  0
 15 13  1  0
 16 15  2  0
 17 15  1  0
 18 24  1  0
 18 17  1  0
 18 19  1  1
 20 19  1  0
 21 20  1  0
 22 21  1  0
 23 22  1  0
 24 25  1  0
 26 24  2  0
M  END
$$$$
