LIK.pdb
     RDKit          3D

 26 25  0  0  1  0  0  0  0  0999 V2000
   27.7549  -17.1473  -17.1240 C   0  0  0  0  0  0  0  0  0  0  0  0
   28.4070  -18.2779  -16.3117 C   0  0  1  0  0  0  0  0  0  0  0  0
   29.1680  -17.5692  -15.2022 C   0  0  0  0  0  0  0  0  0  0  0  0
   27.2771  -19.1019  -15.7841 C   0  0  0  0  0  0  0  0  0  0  0  0
   27.6621  -20.1736  -14.8121 C   0  0  2  0  0  0  0  0  0  0  0  0
   28.5489  -21.1194  -15.4144 N   0  0  0  0  0  0  0  0  0  0  0  0
   26.5245  -20.7532  -14.0888 C   0  0  0  0  0  0  0  0  0  0  0  0
   25.9432  -21.7404  -14.5994 O   0  0  0  0  0  0  0  0  0  0  0  0
   26.6293  -20.6372   -8.7608 C   0  0  0  0  0  0  0  0  0  0  0  0
   26.2587  -21.2502  -10.0787 C   0  0  0  0  0  0  0  0  0  0  0  0
   24.9802  -20.6686  -10.6506 C   0  0  2  0  0  0  0  0  0  0  0  0
   23.7517  -21.2018   -9.9954 C   0  0  0  0  0  0  0  0  0  0  0  0
   24.9071  -20.8483  -12.1512 C   0  0  2  0  0  0  0  0  0  0  0  0
   26.0313  -20.2737  -12.8452 N   0  0  0  0  0  0  0  0  0  0  0  0
   23.6014  -20.4241  -12.7191 C   0  0  0  0  0  0  0  0  0  0  0  0
   23.1849  -19.2327  -12.6725 O   0  0  0  0  0  0  0  0  0  0  0  0
   22.7436  -21.3623  -13.3548 N   0  0  0  0  0  0  0  0  0  0  0  0
   21.4605  -21.0467  -13.9011 C   0  0  1  0  0  0  0  0  0  0  0  0
   21.0168  -22.1590  -14.8487 C   0  0  0  0  0  0  0  0  0  0  0  0
   19.6203  -21.9753  -15.3227 C   0  0  0  0  0  0  0  0  0  0  0  0
   19.1563  -23.1815  -16.0956 C   0  0  0  0  0  0  0  0  0  0  0  0
   17.8019  -22.9700  -16.6778 C   0  0  0  0  0  0  0  0  0  0  0  0
   17.3662  -24.1260  -17.4445 N   0  0  0  0  0  0  0  0  0  0  0  0
   20.4636  -21.0087  -12.7853 C   0  0  0  0  0  0  0  0  0  0  0  0
   19.3782  -20.1249  -12.8150 O   0  0  0  0  0  0  0  0  0  0  0  0
   20.5623  -21.7592  -11.7923 O   0  0  0  0  0  0  0  0  0  0  0  0
  2  3  1  1
  2  1  1  0
  4  2  1  0
  5  7  1  0
  5  4  1  0
  5  6  1  6
  7  8  2  0
  9 10  1  0
 11 12  1  1
 11 10  1  0
 13 14  1  6
 13 11  1  0
 14  7  1  0
 15 13  1  0
 16 15  2  0
 17 15  1  0
 18 24  1  0
 18 17  1  0
 18 19  1  6
 20 19  1  0
 21 20  1  0
 22 21  1  0
 23 22  1  0
 24 25  1  0
 26 24  2  0
M  END
$$$$
