LIK.pdb
     RDKit          3D

 26 25  0  0  1  0  0  0  0  0999 V2000
   19.6074  -16.0357  -17.7220 C   0  0  0  0  0  0  0  0  0  0  0  0
   20.1767  -14.7926  -18.4249 C   0  0  1  0  0  0  0  0  0  0  0  0
   18.9718  -14.1267  -19.0710 C   0  0  0  0  0  0  0  0  0  0  0  0
   20.7731  -13.9522  -17.3424 C   0  0  0  0  0  0  0  0  0  0  0  0
   21.4022  -12.6715  -17.7958 C   0  0  2  0  0  0  0  0  0  0  0  0
   22.2012  -12.8764  -18.9635 N   0  0  0  0  0  0  0  0  0  0  0  0
   22.0502  -11.9161  -16.7174 C   0  0  0  0  0  0  0  0  0  0  0  0
   21.4728  -11.8647  -15.6051 O   0  0  0  0  0  0  0  0  0  0  0  0
   27.3644  -12.2071  -15.9735 C   0  0  0  0  0  0  0  0  0  0  0  0
   25.8744  -12.0715  -15.8662 C   0  0  0  0  0  0  0  0  0  0  0  0
   25.4279  -10.6249  -15.7764 C   0  0  2  0  0  0  0  0  0  0  0  0
   26.0175   -9.9030  -14.6128 C   0  0  0  0  0  0  0  0  0  0  0  0
   23.9196  -10.5052  -15.7720 C   0  0  2  0  0  0  0  0  0  0  0  0
   23.2910  -11.2348  -16.8435 N   0  0  0  0  0  0  0  0  0  0  0  0
   23.4540   -9.0970  -15.6832 C   0  0  0  0  0  0  0  0  0  0  0  0
   23.7863   -8.3200  -14.7447 O   0  0  0  0  0  0  0  0  0  0  0  0
   22.5940   -8.5497  -16.6737 N   0  0  0  0  0  0  0  0  0  0  0  0
   22.1356   -7.1955  -16.6901 C   0  0  1  0  0  0  0  0  0  0  0  0
   21.0940   -7.0181  -17.7928 C   0  0  0  0  0  0  0  0  0  0  0  0
   20.6044   -5.6182  -17.8890 C   0  0  0  0  0  0  0  0  0  0  0  0
   19.6486   -5.4656  -19.0427 C   0  0  0  0  0  0  0  0  0  0  0  0
   19.1788   -4.0591  -19.1809 C   0  0  0  0  0  0  0  0  0  0  0  0
   18.4489   -3.8618  -20.4228 N   0  0  0  0  0  0  0  0  0  0  0  0
   21.4430   -6.9110  -15.3941 C   0  0  0  0  0  0  0  0  0  0  0  0
   21.7231   -5.7496  -14.6642 O   0  0  0  0  0  0  0  0  0  0  0  0
   20.5949   -7.6942  -14.9183 O   0  0  0  0  0  0  0  0  0  0  0  0
  2  3  1  1
  2  1  1  0
  4  2  1  0
  5  7  1  0
  5  4  1  0
  5  6  1  6
  7  8  2  0
  9 10  1  0
 11 12  1  1
 11 10  1  0
 13 14  1  6
 13 11  1  0
 14  7  1  0
 15 13  1  0
 16 15  2  0
 17 15  1  0
 18 24  1  0
 18 17  1  0
 18 19  1  6
 20 19  1  0
 21 20  1  0
 22 21  1  0
 23 22  1  0
 24 25  1  0
 26 24  2  0
M  END
$$$$
