LIK.pdb
     RDKit          3D

 26 25  0  0  1  0  0  0  0  0999 V2000
   27.5788  -17.6494  -17.5029 C   0  0  0  0  0  0  0  0  0  0  0  0
   28.2715  -18.6912  -16.6095 C   0  0  1  0  0  0  0  0  0  0  0  0
   29.0800  -17.8730  -15.6148 C   0  0  0  0  0  0  0  0  0  0  0  0
   27.1699  -19.4552  -15.9486 C   0  0  0  0  0  0  0  0  0  0  0  0
   27.6004  -20.4016  -14.8713 C   0  0  2  0  0  0  0  0  0  0  0  0
   28.4867  -21.3980  -15.3865 N   0  0  0  0  0  0  0  0  0  0  0  0
   26.4935  -20.9098  -14.0529 C   0  0  0  0  0  0  0  0  0  0  0  0
   25.8503  -21.8982  -14.4805 O   0  0  0  0  0  0  0  0  0  0  0  0
   26.6454  -20.7209   -8.5945 C   0  0  0  0  0  0  0  0  0  0  0  0
   26.3644  -21.1750   -9.9963 C   0  0  0  0  0  0  0  0  0  0  0  0
   25.0954  -20.5655  -10.5607 C   0  0  2  0  0  0  0  0  0  0  0  0
   23.8666  -21.0012   -9.8376 C   0  0  0  0  0  0  0  0  0  0  0  0
   24.9632  -20.8257  -12.0453 C   0  0  2  0  0  0  0  0  0  0  0  0
   26.0956  -20.3598  -12.8044 N   0  0  0  0  0  0  0  0  0  0  0  0
   23.6665  -20.3572  -12.5988 C   0  0  0  0  0  0  0  0  0  0  0  0
   23.3375  -19.1387  -12.6445 O   0  0  0  0  0  0  0  0  0  0  0  0
   22.7170  -21.2812  -13.1134 N   0  0  0  0  0  0  0  0  0  0  0  0
   21.4182  -20.9256  -13.5938 C   0  0  1  0  0  0  0  0  0  0  0  0
   20.7291  -22.1582  -14.1753 C   0  0  0  0  0  0  0  0  0  0  0  0
   19.3427  -21.8713  -14.6272 C   0  0  0  0  0  0  0  0  0  0  0  0
   18.6675  -23.1285  -15.1080 C   0  0  0  0  0  0  0  0  0  0  0  0
   17.2898  -22.8542  -15.6028 C   0  0  0  0  0  0  0  0  0  0  0  0
   16.6971  -24.0358  -16.2081 N   0  0  0  0  0  0  0  0  0  0  0  0
   20.5875  -20.4755  -12.4330 C   0  0  0  0  0  0  0  0  0  0  0  0
   20.7057  -21.0866  -11.1790 O   0  0  0  0  0  0  0  0  0  0  0  0
   19.7629  -19.5439  -12.5390 O   0  0  0  0  0  0  0  0  0  0  0  0
  2  3  1  1
  2  1  1  0
  4  2  1  0
  5  7  1  0
  5  4  1  0
  5  6  1  6
  7  8  2  0
  9 10  1  0
 11 12  1  1
 11 10  1  0
 13 14  1  6
 13 11  1  0
 14  7  1  0
 15 13  1  0
 16 15  2  0
 17 15  1  0
 18 24  1  0
 18 17  1  0
 18 19  1  1
 20 19  1  0
 21 20  1  0
 22 21  1  0
 23 22  1  0
 24 25  1  0
 26 24  2  0
M  END
$$$$
