LIK.pdb
     RDKit          3D

 26 25  0  0  1  0  0  0  0  0999 V2000
   28.4154  -33.8210  -17.1706 C   0  0  0  0  0  0  0  0  0  0  0  0
   28.4134  -32.6218  -16.2087 C   0  0  1  0  0  0  0  0  0  0  0  0
   29.8833  -32.3269  -15.9535 C   0  0  0  0  0  0  0  0  0  0  0  0
   27.7348  -31.5123  -16.9452 C   0  0  0  0  0  0  0  0  0  0  0  0
   26.2887  -31.7396  -17.2596 C   0  0  2  0  0  0  0  0  0  0  0  0
   25.8059  -30.7671  -18.1897 N   0  0  0  0  0  0  0  0  0  0  0  0
   25.4499  -31.9430  -16.0730 C   0  0  0  0  0  0  0  0  0  0  0  0
   25.1196  -30.9338  -15.4052 O   0  0  0  0  0  0  0  0  0  0  0  0
   20.7269  -33.8781  -16.1617 C   0  0  0  0  0  0  0  0  0  0  0  0
   22.0376  -33.2385  -15.8108 C   0  0  0  0  0  0  0  0  0  0  0  0
   22.8182  -34.0387  -14.7858 C   0  0  2  0  0  0  0  0  0  0  0  0
   22.0448  -34.3028  -13.5389 C   0  0  0  0  0  0  0  0  0  0  0  0
   24.1465  -33.3896  -14.4643 C   0  0  2  0  0  0  0  0  0  0  0  0
   24.9826  -33.2075  -15.6233 N   0  0  0  0  0  0  0  0  0  0  0  0
   24.8558  -34.0551  -13.3411 C   0  0  0  0  0  0  0  0  0  0  0  0
   25.4025  -35.1886  -13.4474 O   0  0  0  0  0  0  0  0  0  0  0  0
   24.9525  -33.4308  -12.0679 N   0  0  0  0  0  0  0  0  0  0  0  0
   25.5283  -34.0387  -10.9089 C   0  0  1  0  0  0  0  0  0  0  0  0
   25.5519  -33.0342   -9.7588 C   0  0  0  0  0  0  0  0  0  0  0  0
   26.0408  -33.6365   -8.4912 C   0  0  0  0  0  0  0  0  0  0  0  0
   26.0821  -32.6072   -7.3928 C   0  0  0  0  0  0  0  0  0  0  0  0
   26.4700  -33.2142   -6.0892 C   0  0  0  0  0  0  0  0  0  0  0  0
   26.4412  -32.2333   -5.0164 N   0  0  0  0  0  0  0  0  0  0  0  0
   24.6472  -35.1684  -10.4758 C   0  0  0  0  0  0  0  0  0  0  0  0
   25.1891  -36.3955  -10.0751 O   0  0  0  0  0  0  0  0  0  0  0  0
   23.4036  -35.0593  -10.4558 O   0  0  0  0  0  0  0  0  0  0  0  0
  2  3  1  6
  2  1  1  0
  4  2  1  0
  5  7  1  0
  5  4  1  0
  5  6  1  1
  7  8  2  0
  9 10  1  0
 11 12  1  1
 11 10  1  0
 13 14  1  6
 13 11  1  0
 14  7  1  0
 15 13  1  0
 16 15  2  0
 17 15  1  0
 18 24  1  0
 18 17  1  0
 18 19  1  1
 20 19  1  0
 21 20  1  0
 22 21  1  0
 23 22  1  0
 24 25  1  0
 26 24  2  0
M  END
$$$$
