LIK.pdb
     RDKit          3D

 26 25  0  0  1  0  0  0  0  0999 V2000
   27.4637  -17.4068  -16.9099 C   0  0  0  0  0  0  0  0  0  0  0  0
   28.2188  -18.4229  -16.0377 C   0  0  1  0  0  0  0  0  0  0  0  0
   28.5253  -17.6758  -14.7491 C   0  0  0  0  0  0  0  0  0  0  0  0
   27.2688  -19.5562  -15.8208 C   0  0  0  0  0  0  0  0  0  0  0  0
   27.6202  -20.4839  -14.6994 C   0  0  2  0  0  0  0  0  0  0  0  0
   28.4883  -21.5273  -15.1482 N   0  0  0  0  0  0  0  0  0  0  0  0
   26.4633  -20.9260  -13.9124 C   0  0  0  0  0  0  0  0  0  0  0  0
   25.7797  -21.8799  -14.3550 O   0  0  0  0  0  0  0  0  0  0  0  0
   26.8334  -20.7864   -8.5754 C   0  0  0  0  0  0  0  0  0  0  0  0
   26.4065  -21.2876   -9.9232 C   0  0  0  0  0  0  0  0  0  0  0  0
   25.1319  -20.6264  -10.4116 C   0  0  2  0  0  0  0  0  0  0  0  0
   23.9206  -21.0696   -9.6639 C   0  0  0  0  0  0  0  0  0  0  0  0
   24.9403  -20.8146  -11.9006 C   0  0  2  0  0  0  0  0  0  0  0  0
   26.0594  -20.3479  -12.6786 N   0  0  0  0  0  0  0  0  0  0  0  0
   23.6401  -20.2835  -12.3855 C   0  0  0  0  0  0  0  0  0  0  0  0
   23.2974  -19.0752  -12.2526 O   0  0  0  0  0  0  0  0  0  0  0  0
   22.7030  -21.1317  -13.0355 N   0  0  0  0  0  0  0  0  0  0  0  0
   21.4496  -20.6965  -13.5682 C   0  0  1  0  0  0  0  0  0  0  0  0
   20.8641  -21.7870  -14.4628 C   0  0  0  0  0  0  0  0  0  0  0  0
   19.5314  -21.4177  -15.0071 C   0  0  0  0  0  0  0  0  0  0  0  0
   18.9490  -22.5525  -15.8074 C   0  0  0  0  0  0  0  0  0  0  0  0
   17.6674  -22.1615  -16.4578 C   0  0  0  0  0  0  0  0  0  0  0  0
   17.1165  -23.2523  -17.2457 N   0  0  0  0  0  0  0  0  0  0  0  0
   20.4899  -20.5079  -12.4352 C   0  0  0  0  0  0  0  0  0  0  0  0
   19.5401  -19.4796  -12.4556 O   0  0  0  0  0  0  0  0  0  0  0  0
   20.5005  -21.2561  -11.4357 O   0  0  0  0  0  0  0  0  0  0  0  0
  2  3  1  1
  2  1  1  0
  4  2  1  0
  5  7  1  0
  5  4  1  0
  5  6  1  6
  7  8  2  0
  9 10  1  0
 11 12  1  1
 11 10  1  0
 13 14  1  6
 13 11  1  0
 14  7  1  0
 15 13  1  0
 16 15  2  0
 17 15  1  0
 18 24  1  0
 18 17  1  0
 18 19  1  6
 20 19  1  0
 21 20  1  0
 22 21  1  0
 23 22  1  0
 24 25  1  0
 26 24  2  0
M  END
$$$$
