LIK.pdb
     RDKit          3D

 26 25  0  0  1  0  0  0  0  0999 V2000
   26.8783  -17.3692  -17.2349 C   0  0  0  0  0  0  0  0  0  0  0  0
   27.6661  -18.4021  -16.4128 C   0  0  1  0  0  0  0  0  0  0  0  0
   28.4792  -17.5758  -15.4286 C   0  0  0  0  0  0  0  0  0  0  0  0
   26.6385  -19.2447  -15.7286 C   0  0  0  0  0  0  0  0  0  0  0  0
   27.1623  -20.1623  -14.6678 C   0  0  2  0  0  0  0  0  0  0  0  0
   28.0862  -21.1062  -15.2149 N   0  0  0  0  0  0  0  0  0  0  0  0
   26.1173  -20.7327  -13.8100 C   0  0  0  0  0  0  0  0  0  0  0  0
   25.5023  -21.7443  -14.2244 O   0  0  0  0  0  0  0  0  0  0  0  0
   26.5846  -20.7186   -8.3672 C   0  0  0  0  0  0  0  0  0  0  0  0
   26.2476  -21.1186   -9.7731 C   0  0  0  0  0  0  0  0  0  0  0  0
   24.9225  -20.5457  -10.2380 C   0  0  2  0  0  0  0  0  0  0  0  0
   23.7608  -21.0467   -9.4493 C   0  0  0  0  0  0  0  0  0  0  0  0
   24.7034  -20.7745  -11.7175 C   0  0  2  0  0  0  0  0  0  0  0  0
   25.7498  -20.2187  -12.5370 N   0  0  0  0  0  0  0  0  0  0  0  0
   23.3452  -20.3737  -12.1672 C   0  0  0  0  0  0  0  0  0  0  0  0
   23.0021  -19.1695  -12.3320 O   0  0  0  0  0  0  0  0  0  0  0  0
   22.3492  -21.3507  -12.4382 N   0  0  0  0  0  0  0  0  0  0  0  0
   21.0121  -21.0528  -12.8479 C   0  0  1  0  0  0  0  0  0  0  0  0
   20.3766  -22.2933  -13.4720 C   0  0  0  0  0  0  0  0  0  0  0  0
   18.9615  -22.0671  -13.8658 C   0  0  0  0  0  0  0  0  0  0  0  0
   18.3532  -23.3292  -14.4177 C   0  0  0  0  0  0  0  0  0  0  0  0
   16.9455  -23.1125  -14.8532 C   0  0  0  0  0  0  0  0  0  0  0  0
   16.3731  -24.3213  -15.4233 N   0  0  0  0  0  0  0  0  0  0  0  0
   20.2041  -20.7205  -11.6326 C   0  0  0  0  0  0  0  0  0  0  0  0
   20.4950  -21.2977  -10.3907 O   0  0  0  0  0  0  0  0  0  0  0  0
   19.2463  -19.9210  -11.6807 O   0  0  0  0  0  0  0  0  0  0  0  0
  2  3  1  1
  2  1  1  0
  4  2  1  0
  5  7  1  0
  5  4  1  0
  5  6  1  6
  7  8  2  0
  9 10  1  0
 11 12  1  1
 11 10  1  0
 13 14  1  6
 13 11  1  0
 14  7  1  0
 15 13  1  0
 16 15  2  0
 17 15  1  0
 18 24  1  0
 18 17  1  0
 18 19  1  1
 20 19  1  0
 21 20  1  0
 22 21  1  0
 23 22  1  0
 24 25  1  0
 26 24  2  0
M  END
$$$$
