LIK.pdb
     RDKit          3D

 26 25  0  0  1  0  0  0  0  0999 V2000
   18.7301  -20.2532  -16.1175 C   0  0  0  0  0  0  0  0  0  0  0  0
   19.1074  -20.8321  -14.7441 C   0  0  1  0  0  0  0  0  0  0  0  0
   19.2755  -22.3241  -14.9851 C   0  0  0  0  0  0  0  0  0  0  0  0
   20.3943  -20.1728  -14.3660 C   0  0  0  0  0  0  0  0  0  0  0  0
   21.1411  -20.8189  -13.2406 C   0  0  2  0  0  0  0  0  0  0  0  0
   20.3569  -20.8346  -12.0453 N   0  0  0  0  0  0  0  0  0  0  0  0
   22.5148  -20.3277  -13.0828 C   0  0  0  0  0  0  0  0  0  0  0  0
   22.7415  -19.1204  -13.3366 O   0  0  0  0  0  0  0  0  0  0  0  0
   25.2817  -21.0555   -8.6358 C   0  0  0  0  0  0  0  0  0  0  0  0
   24.7319  -20.5750   -9.9461 C   0  0  0  0  0  0  0  0  0  0  0  0
   25.5440  -21.0628  -11.1305 C   0  0  2  0  0  0  0  0  0  0  0  0
   26.9821  -20.6776  -11.0510 C   0  0  0  0  0  0  0  0  0  0  0  0
   24.9416  -20.6136  -12.4438 C   0  0  2  0  0  0  0  0  0  0  0  0
   23.6127  -21.1256  -12.6612 N   0  0  0  0  0  0  0  0  0  0  0  0
   25.8446  -20.8452  -13.6007 C   0  0  0  0  0  0  0  0  0  0  0  0
   26.1721  -21.9983  -13.9983 O   0  0  0  0  0  0  0  0  0  0  0  0
   26.3924  -19.7537  -14.3278 N   0  0  0  0  0  0  0  0  0  0  0  0
   27.2882  -19.8853  -15.4344 C   0  0  1  0  0  0  0  0  0  0  0  0
   27.9130  -18.5291  -15.7549 C   0  0  0  0  0  0  0  0  0  0  0  0
   28.9176  -18.6126  -16.8469 C   0  0  0  0  0  0  0  0  0  0  0  0
   28.2612  -18.4336  -18.1903 C   0  0  0  0  0  0  0  0  0  0  0  0
   29.2613  -18.4492  -19.2938 C   0  0  0  0  0  0  0  0  0  0  0  0
   28.6183  -18.3690  -20.5954 N   0  0  0  0  0  0  0  0  0  0  0  0
   28.4098  -20.7921  -15.0344 C   0  0  0  0  0  0  0  0  0  0  0  0
   28.8486  -21.8167  -15.8815 O   0  0  0  0  0  0  0  0  0  0  0  0
   28.9923  -20.6695  -13.9368 O   0  0  0  0  0  0  0  0  0  0  0  0
  2  3  1  6
  2  1  1  0
  4  2  1  0
  5  7  1  0
  5  4  1  0
  5  6  1  1
  7  8  2  0
  9 10  1  0
 11 12  1  1
 11 10  1  0
 13 14  1  6
 13 11  1  0
 14  7  1  0
 15 13  1  0
 16 15  2  0
 17 15  1  0
 18 24  1  0
 18 17  1  0
 18 19  1  1
 20 19  1  0
 21 20  1  0
 22 21  1  0
 23 22  1  0
 24 25  1  0
 26 24  2  0
M  END
$$$$
