LIK.pdb
     RDKit          3D

 26 25  0  0  1  0  0  0  0  0999 V2000
   26.9443  -17.3100  -17.4281 C   0  0  0  0  0  0  0  0  0  0  0  0
   27.8025  -18.1894  -16.5042 C   0  0  1  0  0  0  0  0  0  0  0  0
   28.3238  -17.2385  -15.4381 C   0  0  0  0  0  0  0  0  0  0  0  0
   26.8719  -19.2141  -15.9404 C   0  0  0  0  0  0  0  0  0  0  0  0
   27.4617  -20.1150  -14.9001 C   0  0  2  0  0  0  0  0  0  0  0  0
   28.4075  -21.0178  -15.4783 N   0  0  0  0  0  0  0  0  0  0  0  0
   26.4649  -20.7318  -14.0174 C   0  0  0  0  0  0  0  0  0  0  0  0
   26.0049  -21.8529  -14.3411 O   0  0  0  0  0  0  0  0  0  0  0  0
   27.0764  -20.6200   -8.8233 C   0  0  0  0  0  0  0  0  0  0  0  0
   26.5566  -21.1784  -10.1148 C   0  0  0  0  0  0  0  0  0  0  0  0
   25.2210  -20.5788  -10.5109 C   0  0  2  0  0  0  0  0  0  0  0  0
   24.0812  -21.1125   -9.7117 C   0  0  0  0  0  0  0  0  0  0  0  0
   24.9556  -20.7356  -11.9922 C   0  0  2  0  0  0  0  0  0  0  0  0
   25.9805  -20.1471  -12.8160 N   0  0  0  0  0  0  0  0  0  0  0  0
   23.5872  -20.3066  -12.3807 C   0  0  0  0  0  0  0  0  0  0  0  0
   23.0949  -19.1921  -12.0481 O   0  0  0  0  0  0  0  0  0  0  0  0
   22.7527  -21.1512  -13.1619 N   0  0  0  0  0  0  0  0  0  0  0  0
   21.4739  -20.7737  -13.6781 C   0  0  1  0  0  0  0  0  0  0  0  0
   21.1334  -21.6368  -14.8912 C   0  0  0  0  0  0  0  0  0  0  0  0
   19.8317  -21.2637  -15.5037 C   0  0  0  0  0  0  0  0  0  0  0  0
   19.5611  -22.0958  -16.7293 C   0  0  0  0  0  0  0  0  0  0  0  0
   18.3306  -21.6438  -17.4363 C   0  0  0  0  0  0  0  0  0  0  0  0
   18.1489  -22.3518  -18.6931 N   0  0  0  0  0  0  0  0  0  0  0  0
   20.4362  -21.0630  -12.6390 C   0  0  0  0  0  0  0  0  0  0  0  0
   19.3501  -20.2019  -12.4422 O   0  0  0  0  0  0  0  0  0  0  0  0
   20.5001  -22.0771  -11.9134 O   0  0  0  0  0  0  0  0  0  0  0  0
  2  3  1  1
  2  1  1  0
  4  2  1  0
  5  7  1  0
  5  4  1  0
  5  6  1  6
  7  8  2  0
  9 10  1  0
 11 12  1  1
 11 10  1  0
 13 14  1  6
 13 11  1  0
 14  7  1  0
 15 13  1  0
 16 15  2  0
 17 15  1  0
 18 24  1  0
 18 17  1  0
 18 19  1  6
 20 19  1  0
 21 20  1  0
 22 21  1  0
 23 22  1  0
 24 25  1  0
 26 24  2  0
M  END
$$$$
