LIK.pdb
     RDKit          3D

 26 25  0  0  1  0  0  0  0  0999 V2000
   27.4615  -17.5550  -17.5791 C   0  0  0  0  0  0  0  0  0  0  0  0
   28.1587  -18.6809  -16.7983 C   0  0  1  0  0  0  0  0  0  0  0  0
   29.0779  -17.9639  -15.8218 C   0  0  0  0  0  0  0  0  0  0  0  0
   27.0672  -19.4273  -16.1016 C   0  0  0  0  0  0  0  0  0  0  0  0
   27.5214  -20.4754  -15.1337 C   0  0  2  0  0  0  0  0  0  0  0  0
   28.2563  -21.5056  -15.7989 N   0  0  0  0  0  0  0  0  0  0  0  0
   26.4651  -20.9430  -14.2288 C   0  0  0  0  0  0  0  0  0  0  0  0
   25.7854  -21.9367  -14.5808 O   0  0  0  0  0  0  0  0  0  0  0  0
   27.3099  -20.6228   -8.9739 C   0  0  0  0  0  0  0  0  0  0  0  0
   26.7653  -21.2002  -10.2467 C   0  0  0  0  0  0  0  0  0  0  0  0
   25.4291  -20.5959  -10.6334 C   0  0  2  0  0  0  0  0  0  0  0  0
   24.3046  -21.0676   -9.7757 C   0  0  0  0  0  0  0  0  0  0  0  0
   25.1168  -20.8211  -12.0967 C   0  0  2  0  0  0  0  0  0  0  0  0
   26.1551  -20.3479  -12.9762 N   0  0  0  0  0  0  0  0  0  0  0  0
   23.7683  -20.3289  -12.4801 C   0  0  0  0  0  0  0  0  0  0  0  0
   23.4406  -19.1102  -12.4303 O   0  0  0  0  0  0  0  0  0  0  0  0
   22.7646  -21.2288  -12.9303 N   0  0  0  0  0  0  0  0  0  0  0  0
   21.4912  -20.8310  -13.4446 C   0  0  1  0  0  0  0  0  0  0  0  0
   20.8587  -21.9928  -14.2078 C   0  0  0  0  0  0  0  0  0  0  0  0
   19.5325  -21.6400  -14.7783 C   0  0  0  0  0  0  0  0  0  0  0  0
   19.5795  -21.6502  -16.2834 C   0  0  0  0  0  0  0  0  0  0  0  0
   18.2827  -21.2166  -16.8738 C   0  0  0  0  0  0  0  0  0  0  0  0
   18.2919  -21.3359  -18.3228 N   0  0  0  0  0  0  0  0  0  0  0  0
   20.5850  -20.5288  -12.2924 C   0  0  0  0  0  0  0  0  0  0  0  0
   19.6024  -19.5359  -12.3862 O   0  0  0  0  0  0  0  0  0  0  0  0
   20.6711  -21.1470  -11.2110 O   0  0  0  0  0  0  0  0  0  0  0  0
  2  3  1  1
  2  1  1  0
  4  2  1  0
  5  7  1  0
  5  4  1  0
  5  6  1  6
  7  8  2  0
  9 10  1  0
 11 12  1  1
 11 10  1  0
 13 14  1  6
 13 11  1  0
 14  7  1  0
 15 13  1  0
 16 15  2  0
 17 15  1  0
 18 24  1  0
 18 17  1  0
 18 19  1  1
 20 19  1  0
 21 20  1  0
 22 21  1  0
 23 22  1  0
 24 25  1  0
 26 24  2  0
M  END
$$$$
