PAD.pdb
     RDKit          3D

 21 21  0  0  1  0  0  0  0  0999 V2000
    7.4627  -15.0467   19.5103 N   0  0  0  0  0  0  0  0  0  0  0  0
    6.9938  -14.5804   18.2166 C   0  0  0  0  0  0  0  0  0  0  0  0
    7.1162  -13.0836   18.3178 C   0  0  0  0  0  0  0  0  0  0  0  0
    8.1833  -12.8066   19.3604 C   0  0  0  0  0  0  0  0  0  0  0  0
    8.6121  -14.2056   19.7355 C   0  0  1  0  0  0  0  0  0  0  0  0
    9.0280  -14.3114   21.1498 C   0  0  0  0  0  0  0  0  0  0  0  0
   10.2632  -14.3554   21.4567 O   0  0  0  0  0  0  0  0  0  0  0  0
    7.2693  -14.1132   24.4448 C   0  0  0  0  0  0  0  0  0  0  0  0
    8.4902  -14.4845   23.6156 C   0  0  2  0  0  0  0  0  0  0  0  0
    8.1105  -14.3691   22.2275 N   0  0  0  0  0  0  0  0  0  0  0  0
    8.8972  -15.8541   23.9815 C   0  0  0  0  0  0  0  0  0  0  0  0
    8.0976  -16.8045   23.8527 O   0  0  0  0  0  0  0  0  0  0  0  0
   10.1998  -16.0904   24.4805 N   0  0  0  0  0  0  0  0  0  0  0  0
   10.6713  -17.3769   24.9185 C   0  0  1  0  0  0  0  0  0  0  0  0
   12.1525  -17.4918   24.7753 C   0  0  0  0  0  0  0  0  0  0  0  0
   12.6375  -17.3876   23.3945 C   0  0  0  0  0  0  0  0  0  0  0  0
   12.0008  -17.7156   22.3683 O   0  0  0  0  0  0  0  0  0  0  0  0
   10.1994  -17.6851   26.2928 C   0  0  0  0  0  0  0  0  0  0  0  0
    9.9451  -18.8682   26.6316 O   0  0  0  0  0  0  0  0  0  0  0  0
   13.9186  -16.8797   23.1991 O   0  0  0  0  0  0  0  0  0  0  0  0
   10.0209  -16.6958   27.2496 O   0  0  0  0  0  0  0  0  0  0  0  0
  2  1  1  0
  3  2  1  0
  4  3  1  0
  4  5  1  0
  5  1  1  0
  6 10  1  0
  5  6  1  1
  7  6  2  0
  9  8  1  1
  9 10  1  0
  9 11  1  0
 11 13  1  0
 12 11  2  0
 13 14  1  0
 14 18  1  0
 14 15  1  1
 16 20  1  0
 16 15  1  0
 17 16  2  0
 18 21  1  0
 19 18  2  0
M  END
$$$$
