PAD.pdb
     RDKit          3D

 21 21  0  0  1  0  0  0  0  0999 V2000
    7.8031  -14.7047   18.7591 N   0  0  0  0  0  0  0  0  0  0  0  0
    7.6160  -13.8477   17.6010 C   0  0  0  0  0  0  0  0  0  0  0  0
    7.7771  -12.4601   18.1616 C   0  0  0  0  0  0  0  0  0  0  0  0
    8.6299  -12.5944   19.4095 C   0  0  0  0  0  0  0  0  0  0  0  0
    8.9195  -14.0769   19.4216 C   0  0  1  0  0  0  0  0  0  0  0  0
    9.0459  -14.6191   20.7907 C   0  0  0  0  0  0  0  0  0  0  0  0
    8.1070  -14.4598   21.6362 O   0  0  0  0  0  0  0  0  0  0  0  0
    9.1611  -16.9092   22.7094 C   0  0  0  0  0  0  0  0  0  0  0  0
   10.3082  -15.9212   22.5543 C   0  0  2  0  0  0  0  0  0  0  0  0
   10.1842  -15.3309   21.2426 N   0  0  0  0  0  0  0  0  0  0  0  0
   11.5756  -16.6547   22.7300 C   0  0  0  0  0  0  0  0  0  0  0  0
   11.7651  -17.3497   23.7499 O   0  0  0  0  0  0  0  0  0  0  0  0
   12.5802  -16.5694   21.7374 N   0  0  0  0  0  0  0  0  0  0  0  0
   13.9376  -16.1723   22.0001 C   0  0  1  0  0  0  0  0  0  0  0  0
   14.2860  -14.9130   21.2787 C   0  0  0  0  0  0  0  0  0  0  0  0
   14.2511  -15.0233   19.8160 C   0  0  0  0  0  0  0  0  0  0  0  0
   14.2691  -16.0899   19.1618 O   0  0  0  0  0  0  0  0  0  0  0  0
   14.2036  -16.0932   23.4593 C   0  0  0  0  0  0  0  0  0  0  0  0
   13.4939  -15.3680   24.2006 O   0  0  0  0  0  0  0  0  0  0  0  0
   14.1927  -13.8416   19.0829 O   0  0  0  0  0  0  0  0  0  0  0  0
   15.2320  -16.8055   24.0604 O   0  0  0  0  0  0  0  0  0  0  0  0
  2  1  1  0
  3  2  1  0
  4  3  1  0
  4  5  1  0
  5  1  1  0
  6 10  1  0
  5  6  1  1
  7  6  2  0
  9  8  1  6
  9 10  1  0
  9 11  1  0
 11 13  1  0
 12 11  2  0
 13 14  1  0
 14 18  1  0
 14 15  1  6
 16 20  1  0
 16 15  1  0
 17 16  2  0
 18 21  1  0
 19 18  2  0
M  END
$$$$
