PAD.pdb
     RDKit          3D

 21 21  0  0  1  0  0  0  0  0999 V2000
    7.3873  -14.8775   20.0159 N   0  0  0  0  0  0  0  0  0  0  0  0
    7.0702  -14.4269   18.6715 C   0  0  0  0  0  0  0  0  0  0  0  0
    7.4061  -12.9601   18.7047 C   0  0  0  0  0  0  0  0  0  0  0  0
    8.4385  -12.7777   19.8017 C   0  0  0  0  0  0  0  0  0  0  0  0
    8.6329  -14.1989   20.2754 C   0  0  1  0  0  0  0  0  0  0  0  0
    8.9438  -14.2785   21.7180 C   0  0  0  0  0  0  0  0  0  0  0  0
   10.1531  -14.3108   22.1158 O   0  0  0  0  0  0  0  0  0  0  0  0
    6.9606  -14.0305   24.8769 C   0  0  0  0  0  0  0  0  0  0  0  0
    8.2256  -14.4430   24.1381 C   0  0  2  0  0  0  0  0  0  0  0  0
    7.9495  -14.3228   22.7260 N   0  0  0  0  0  0  0  0  0  0  0  0
    8.5630  -15.8225   24.5359 C   0  0  0  0  0  0  0  0  0  0  0  0
    7.8931  -16.7841   24.1049 O   0  0  0  0  0  0  0  0  0  0  0  0
    9.6509  -16.0556   25.4098 N   0  0  0  0  0  0  0  0  0  0  0  0
   10.3908  -17.2882   25.4608 C   0  0  1  0  0  0  0  0  0  0  0  0
   11.6841  -17.1780   24.7240 C   0  0  0  0  0  0  0  0  0  0  0  0
   12.5081  -18.3914   24.7617 C   0  0  0  0  0  0  0  0  0  0  0  0
   12.1890  -19.4765   25.2972 O   0  0  0  0  0  0  0  0  0  0  0  0
   10.5624  -17.7568   26.8598 C   0  0  0  0  0  0  0  0  0  0  0  0
   11.1548  -18.8378   27.1042 O   0  0  0  0  0  0  0  0  0  0  0  0
   13.7572  -18.3402   24.1498 O   0  0  0  0  0  0  0  0  0  0  0  0
   10.0837  -17.0333   27.9430 O   0  0  0  0  0  0  0  0  0  0  0  0
  2  1  1  0
  3  2  1  0
  4  3  1  0
  4  5  1  0
  5  1  1  0
  6 10  1  0
  5  6  1  1
  7  6  2  0
  9  8  1  1
  9 10  1  0
  9 11  1  0
 11 13  1  0
 12 11  2  0
 13 14  1  0
 14 18  1  0
 14 15  1  1
 16 20  1  0
 16 15  1  0
 17 16  2  0
 18 21  1  0
 19 18  2  0
M  END
$$$$
