PAD.pdb
     RDKit          3D

 21 21  0  0  1  0  0  0  0  0999 V2000
    8.6599  -13.3184   19.5904 N   0  0  0  0  0  0  0  0  0  0  0  0
    7.9397  -13.3543   18.3291 C   0  0  0  0  0  0  0  0  0  0  0  0
    7.0440  -14.5557   18.4705 C   0  0  0  0  0  0  0  0  0  0  0  0
    6.8363  -14.7673   19.9586 C   0  0  0  0  0  0  0  0  0  0  0  0
    7.6168  -13.6128   20.5416 C   0  0  1  0  0  0  0  0  0  0  0  0
    8.2230  -13.9405   21.8490 C   0  0  0  0  0  0  0  0  0  0  0  0
    9.4271  -14.3497   21.9167 O   0  0  0  0  0  0  0  0  0  0  0  0
    7.0308  -13.8372   25.4111 C   0  0  0  0  0  0  0  0  0  0  0  0
    8.1004  -14.1296   24.3687 C   0  0  2  0  0  0  0  0  0  0  0  0
    7.5285  -13.8259   23.0783 N   0  0  0  0  0  0  0  0  0  0  0  0
    8.4945  -15.5451   24.4967 C   0  0  0  0  0  0  0  0  0  0  0  0
    7.7887  -16.4436   23.9928 O   0  0  0  0  0  0  0  0  0  0  0  0
    9.6777  -15.8848   25.1939 N   0  0  0  0  0  0  0  0  0  0  0  0
   10.2144  -17.2176   25.2641 C   0  0  1  0  0  0  0  0  0  0  0  0
   11.5859  -17.2841   24.6791 C   0  0  0  0  0  0  0  0  0  0  0  0
   12.2382  -18.5917   24.8113 C   0  0  0  0  0  0  0  0  0  0  0  0
   11.7376  -19.6093   25.3403 O   0  0  0  0  0  0  0  0  0  0  0  0
   10.1518  -17.7520   26.6486 C   0  0  0  0  0  0  0  0  0  0  0  0
    9.9108  -18.9680   26.8547 O   0  0  0  0  0  0  0  0  0  0  0  0
   13.5288  -18.7208   24.3061 O   0  0  0  0  0  0  0  0  0  0  0  0
   10.3534  -16.9451   27.7596 O   0  0  0  0  0  0  0  0  0  0  0  0
  2  1  1  0
  3  2  1  0
  4  3  1  0
  4  5  1  0
  5  1  1  0
  6 10  1  0
  5  6  1  1
  7  6  2  0
  9  8  1  1
  9 10  1  0
  9 11  1  0
 11 13  1  0
 12 11  2  0
 13 14  1  0
 14 18  1  0
 14 15  1  1
 16 20  1  0
 16 15  1  0
 17 16  2  0
 18 21  1  0
 19 18  2  0
M  END
$$$$
