PAD.pdb
     RDKit          3D

 21 21  0  0  1  0  0  0  0  0999 V2000
    8.1672  -14.2847   18.5882 N   0  0  0  0  0  0  0  0  0  0  0  0
    7.2282  -13.1768   18.6259 C   0  0  0  0  0  0  0  0  0  0  0  0
    7.7408  -12.3205   19.7526 C   0  0  0  0  0  0  0  0  0  0  0  0
    9.2220  -12.6218   19.8852 C   0  0  0  0  0  0  0  0  0  0  0  0
    9.4315  -13.6145   18.7660 C   0  0  1  0  0  0  0  0  0  0  0  0
   10.4758  -14.6120   19.0806 C   0  0  0  0  0  0  0  0  0  0  0  0
   10.1871  -15.6599   19.7439 O   0  0  0  0  0  0  0  0  0  0  0  0
   14.0035  -15.2115   18.0368 C   0  0  0  0  0  0  0  0  0  0  0  0
   12.8848  -15.3835   19.0543 C   0  0  2  0  0  0  0  0  0  0  0  0
   11.8272  -14.4754   18.6785 N   0  0  0  0  0  0  0  0  0  0  0  0
   13.4314  -15.0963   20.3937 C   0  0  0  0  0  0  0  0  0  0  0  0
   13.5901  -13.9161   20.7695 O   0  0  0  0  0  0  0  0  0  0  0  0
   13.7770  -16.1639   21.2553 N   0  0  0  0  0  0  0  0  0  0  0  0
   14.2555  -15.9881   22.6005 C   0  0  1  0  0  0  0  0  0  0  0  0
   13.8136  -17.1053   23.4861 C   0  0  0  0  0  0  0  0  0  0  0  0
   12.3798  -17.1005   23.7975 C   0  0  0  0  0  0  0  0  0  0  0  0
   11.4513  -17.2598   22.9738 O   0  0  0  0  0  0  0  0  0  0  0  0
   15.7258  -15.7787   22.6268 C   0  0  0  0  0  0  0  0  0  0  0  0
   16.2979  -15.3902   23.6761 O   0  0  0  0  0  0  0  0  0  0  0  0
   12.0103  -16.9018   25.1247 O   0  0  0  0  0  0  0  0  0  0  0  0
   16.5215  -15.9992   21.5113 O   0  0  0  0  0  0  0  0  0  0  0  0
  2  1  1  0
  3  2  1  0
  4  3  1  0
  4  5  1  0
  5  1  1  0
  6 10  1  0
  5  6  1  1
  7  6  2  0
  9  8  1  6
  9 10  1  0
  9 11  1  0
 11 13  1  0
 12 11  2  0
 13 14  1  0
 14 18  1  0
 14 15  1  1
 16 20  1  0
 16 15  1  0
 17 16  2  0
 18 21  1  0
 19 18  2  0
M  END
$$$$
