PAD.pdb
     RDKit          3D

 21 21  0  0  1  0  0  0  0  0999 V2000
    7.5739  -15.0565   19.2785 N   0  0  0  0  0  0  0  0  0  0  0  0
    7.0923  -14.4700   18.0396 C   0  0  0  0  0  0  0  0  0  0  0  0
    7.2476  -12.9904   18.2681 C   0  0  0  0  0  0  0  0  0  0  0  0
    8.3384  -12.8261   19.3100 C   0  0  0  0  0  0  0  0  0  0  0  0
    8.7444  -14.2605   19.5538 C   0  0  1  0  0  0  0  0  0  0  0  0
    9.1829  -14.4974   20.9451 C   0  0  0  0  0  0  0  0  0  0  0  0
   10.4226  -14.5776   21.2254 O   0  0  0  0  0  0  0  0  0  0  0  0
    7.4457  -14.6957   24.2618 C   0  0  0  0  0  0  0  0  0  0  0  0
    8.6852  -14.8733   23.3967 C   0  0  2  0  0  0  0  0  0  0  0  0
    8.2829  -14.6468   22.0288 N   0  0  0  0  0  0  0  0  0  0  0  0
    9.2103  -16.2338   23.6169 C   0  0  0  0  0  0  0  0  0  0  0  0
    8.7719  -17.1939   22.9495 O   0  0  0  0  0  0  0  0  0  0  0  0
   10.2151  -16.4504   24.5889 N   0  0  0  0  0  0  0  0  0  0  0  0
   10.8998  -17.7023   24.7716 C   0  0  1  0  0  0  0  0  0  0  0  0
   12.1783  -17.7412   24.0024 C   0  0  0  0  0  0  0  0  0  0  0  0
   12.9486  -18.9787   24.1698 C   0  0  0  0  0  0  0  0  0  0  0  0
   12.8887  -19.9843   23.4274 O   0  0  0  0  0  0  0  0  0  0  0  0
   11.0845  -18.0107   26.2128 C   0  0  0  0  0  0  0  0  0  0  0  0
   10.9884  -17.1047   27.0783 O   0  0  0  0  0  0  0  0  0  0  0  0
   13.8264  -19.0494   25.2477 O   0  0  0  0  0  0  0  0  0  0  0  0
   11.3671  -19.2932   26.6614 O   0  0  0  0  0  0  0  0  0  0  0  0
  2  1  1  0
  3  2  1  0
  4  3  1  0
  4  5  1  0
  5  1  1  0
  6 10  1  0
  5  6  1  1
  7  6  2  0
  9  8  1  1
  9 10  1  0
  9 11  1  0
 11 13  1  0
 12 11  2  0
 13 14  1  0
 14 18  1  0
 14 15  1  6
 16 20  1  0
 16 15  1  0
 17 16  2  0
 18 21  1  0
 19 18  2  0
M  END
$$$$
