PAD.pdb
     RDKit          3D

 21 21  0  0  1  0  0  0  0  0999 V2000
    7.2106  -13.1412   18.9480 N   0  0  0  0  0  0  0  0  0  0  0  0
    7.9621  -12.6726   17.7962 C   0  0  0  0  0  0  0  0  0  0  0  0
    9.3918  -12.9585   18.1701 C   0  0  0  0  0  0  0  0  0  0  0  0
    9.3564  -14.0907   19.1796 C   0  0  0  0  0  0  0  0  0  0  0  0
    7.8763  -14.3822   19.2577 C   0  0  1  0  0  0  0  0  0  0  0  0
    7.4586  -14.8418   20.5989 C   0  0  0  0  0  0  0  0  0  0  0  0
    7.0227  -14.0095   21.4585 O   0  0  0  0  0  0  0  0  0  0  0  0
    6.2586  -17.8418   22.1959 C   0  0  0  0  0  0  0  0  0  0  0  0
    7.2052  -16.6588   22.3406 C   0  0  2  0  0  0  0  0  0  0  0  0
    7.5127  -16.1970   21.0077 N   0  0  0  0  0  0  0  0  0  0  0  0
    8.4011  -17.1122   23.0751 C   0  0  0  0  0  0  0  0  0  0  0  0
    8.2998  -17.5288   24.2478 O   0  0  0  0  0  0  0  0  0  0  0  0
    9.6680  -17.0742   22.4465 N   0  0  0  0  0  0  0  0  0  0  0  0
   10.9009  -17.4200   23.1022 C   0  0  1  0  0  0  0  0  0  0  0  0
   11.4724  -18.6855   22.5550 C   0  0  0  0  0  0  0  0  0  0  0  0
   10.9495  -19.9060   23.1792 C   0  0  0  0  0  0  0  0  0  0  0  0
   10.7568  -20.9991   22.6012 O   0  0  0  0  0  0  0  0  0  0  0  0
   11.8648  -16.2904   23.0688 C   0  0  0  0  0  0  0  0  0  0  0  0
   11.8810  -15.4917   22.0987 O   0  0  0  0  0  0  0  0  0  0  0  0
   10.6372  -19.8525   24.5346 O   0  0  0  0  0  0  0  0  0  0  0  0
   12.7766  -16.0695   24.0914 O   0  0  0  0  0  0  0  0  0  0  0  0
  2  1  1  0
  3  2  1  0
  4  3  1  0
  4  5  1  0
  5  1  1  0
  6 10  1  0
  5  6  1  1
  7  6  2  0
  9  8  1  6
  9 10  1  0
  9 11  1  0
 11 13  1  0
 12 11  2  0
 13 14  1  0
 14 18  1  0
 14 15  1  6
 16 20  1  0
 16 15  1  0
 17 16  2  0
 18 21  1  0
 19 18  2  0
M  END
$$$$
