PAD.pdb
     RDKit          3D

 21 21  0  0  1  0  0  0  0  0999 V2000
    7.1493  -14.8071   20.0827 N   0  0  0  0  0  0  0  0  0  0  0  0
    6.8097  -14.3071   18.7615 C   0  0  0  0  0  0  0  0  0  0  0  0
    7.4356  -12.9386   18.7326 C   0  0  0  0  0  0  0  0  0  0  0  0
    8.5781  -12.9647   19.7308 C   0  0  0  0  0  0  0  0  0  0  0  0
    8.5242  -14.3938   20.2172 C   0  0  1  0  0  0  0  0  0  0  0  0
    8.9414  -14.5289   21.6286 C   0  0  0  0  0  0  0  0  0  0  0  0
   10.1748  -14.6284   21.9293 O   0  0  0  0  0  0  0  0  0  0  0  0
    7.2033  -14.2242   24.9240 C   0  0  0  0  0  0  0  0  0  0  0  0
    8.4101  -14.6476   24.0990 C   0  0  2  0  0  0  0  0  0  0  0  0
    8.0269  -14.5560   22.7101 N   0  0  0  0  0  0  0  0  0  0  0  0
    8.7827  -16.0181   24.4966 C   0  0  0  0  0  0  0  0  0  0  0  0
    8.0330  -16.9789   24.2242 O   0  0  0  0  0  0  0  0  0  0  0  0
    9.9953  -16.2436   25.1897 N   0  0  0  0  0  0  0  0  0  0  0  0
   10.5026  -17.5491   25.5175 C   0  0  1  0  0  0  0  0  0  0  0  0
   11.8414  -17.7839   24.9009 C   0  0  0  0  0  0  0  0  0  0  0  0
   12.4424  -19.0805   25.2331 C   0  0  0  0  0  0  0  0  0  0  0  0
   11.8317  -20.0778   25.6785 O   0  0  0  0  0  0  0  0  0  0  0  0
   10.4959  -17.7775   26.9852 C   0  0  0  0  0  0  0  0  0  0  0  0
   10.5273  -16.8075   27.7836 O   0  0  0  0  0  0  0  0  0  0  0  0
   13.8133  -19.2229   25.0386 O   0  0  0  0  0  0  0  0  0  0  0  0
   10.4554  -19.0522   27.5323 O   0  0  0  0  0  0  0  0  0  0  0  0
  2  1  1  0
  3  2  1  0
  4  3  1  0
  4  5  1  0
  5  1  1  0
  6 10  1  0
  5  6  1  1
  7  6  2  0
  9  8  1  1
  9 10  1  0
  9 11  1  0
 11 13  1  0
 12 11  2  0
 13 14  1  0
 14 18  1  0
 14 15  1  1
 16 20  1  0
 16 15  1  0
 17 16  2  0
 18 21  1  0
 19 18  2  0
M  END
$$$$
