PAD.pdb
     RDKit          3D

 21 21  0  0  1  0  0  0  0  0999 V2000
    7.4720  -15.0338   20.0904 N   0  0  0  0  0  0  0  0  0  0  0  0
    7.1163  -14.5655   18.7619 C   0  0  0  0  0  0  0  0  0  0  0  0
    7.3224  -13.0769   18.8478 C   0  0  0  0  0  0  0  0  0  0  0  0
    8.3353  -12.8438   19.9533 C   0  0  0  0  0  0  0  0  0  0  0  0
    8.6535  -14.2584   20.3771 C   0  0  1  0  0  0  0  0  0  0  0  0
    8.9707  -14.3614   21.8169 C   0  0  0  0  0  0  0  0  0  0  0  0
   10.0999  -13.9711   22.2576 O   0  0  0  0  0  0  0  0  0  0  0  0
    6.9376  -14.8812   24.8757 C   0  0  0  0  0  0  0  0  0  0  0  0
    8.3016  -14.8803   24.2007 C   0  0  2  0  0  0  0  0  0  0  0  0
    8.0690  -14.8849   22.7758 N   0  0  0  0  0  0  0  0  0  0  0  0
    9.0439  -16.0694   24.6592 C   0  0  0  0  0  0  0  0  0  0  0  0
    9.2454  -16.2553   25.8775 O   0  0  0  0  0  0  0  0  0  0  0  0
    9.5292  -17.0028   23.7132 N   0  0  0  0  0  0  0  0  0  0  0  0
   10.2903  -18.1739   24.0575 C   0  0  1  0  0  0  0  0  0  0  0  0
   10.1563  -19.2358   23.0172 C   0  0  0  0  0  0  0  0  0  0  0  0
   10.9553  -20.4394   23.2737 C   0  0  0  0  0  0  0  0  0  0  0  0
   11.2286  -20.9101   24.4005 O   0  0  0  0  0  0  0  0  0  0  0  0
   11.7051  -17.8304   24.3517 C   0  0  0  0  0  0  0  0  0  0  0  0
   12.3754  -18.5189   25.1616 O   0  0  0  0  0  0  0  0  0  0  0  0
   11.4580  -21.1249   22.1716 O   0  0  0  0  0  0  0  0  0  0  0  0
   12.3405  -16.7506   23.7549 O   0  0  0  0  0  0  0  0  0  0  0  0
  2  1  1  0
  3  2  1  0
  4  3  1  0
  4  5  1  0
  5  1  1  0
  6 10  1  0
  5  6  1  1
  7  6  2  0
  9  8  1  1
  9 10  1  0
  9 11  1  0
 11 13  1  0
 12 11  2  0
 13 14  1  0
 14 18  1  0
 14 15  1  6
 16 20  1  0
 16 15  1  0
 17 16  2  0
 18 21  1  0
 19 18  2  0
M  END
$$$$
