PAD.pdb
     RDKit          3D

 21 21  0  0  1  0  0  0  0  0999 V2000
    8.5082  -14.8278   18.5371 N   0  0  0  0  0  0  0  0  0  0  0  0
    8.5639  -14.0046   17.3412 C   0  0  0  0  0  0  0  0  0  0  0  0
    7.6158  -12.8764   17.6473 C   0  0  0  0  0  0  0  0  0  0  0  0
    7.5504  -12.7648   19.1592 C   0  0  0  0  0  0  0  0  0  0  0  0
    8.5245  -13.8379   19.5855 C   0  0  1  0  0  0  0  0  0  0  0  0
    8.1453  -14.4722   20.8654 C   0  0  0  0  0  0  0  0  0  0  0  0
    8.1879  -13.8083   21.9512 O   0  0  0  0  0  0  0  0  0  0  0  0
    6.3840  -17.5763   21.8724 C   0  0  0  0  0  0  0  0  0  0  0  0
    7.3751  -16.4717   22.2100 C   0  0  2  0  0  0  0  0  0  0  0  0
    7.7216  -15.8199   20.9692 N   0  0  0  0  0  0  0  0  0  0  0  0
    8.5402  -17.0848   22.8747 C   0  0  0  0  0  0  0  0  0  0  0  0
    8.3874  -17.7740   23.9047 O   0  0  0  0  0  0  0  0  0  0  0  0
    9.8362  -16.8902   22.3416 N   0  0  0  0  0  0  0  0  0  0  0  0
   11.0346  -17.4316   22.9249 C   0  0  1  0  0  0  0  0  0  0  0  0
   12.1083  -17.6035   21.9025 C   0  0  0  0  0  0  0  0  0  0  0  0
   11.6910  -18.3391   20.7035 C   0  0  0  0  0  0  0  0  0  0  0  0
   11.1337  -19.4594   20.6891 O   0  0  0  0  0  0  0  0  0  0  0  0
   11.4753  -16.6290   24.0945 C   0  0  0  0  0  0  0  0  0  0  0  0
   10.9650  -15.5045   24.3275 O   0  0  0  0  0  0  0  0  0  0  0  0
   11.9325  -17.7455   19.4679 O   0  0  0  0  0  0  0  0  0  0  0  0
   12.4552  -17.0778   24.9688 O   0  0  0  0  0  0  0  0  0  0  0  0
  2  1  1  0
  3  2  1  0
  4  3  1  0
  4  5  1  0
  5  1  1  0
  6 10  1  0
  5  6  1  1
  7  6  2  0
  9  8  1  6
  9 10  1  0
  9 11  1  0
 11 13  1  0
 12 11  2  0
 13 14  1  0
 14 18  1  0
 14 15  1  6
 16 20  1  0
 16 15  1  0
 17 16  2  0
 18 21  1  0
 19 18  2  0
M  END
$$$$
