PAD.pdb
     RDKit          3D

 21 21  0  0  1  0  0  0  0  0999 V2000
    7.9396  -15.1404   20.0152 N   0  0  0  0  0  0  0  0  0  0  0  0
    7.6308  -14.8585   18.6238 C   0  0  0  0  0  0  0  0  0  0  0  0
    7.4121  -13.3694   18.6076 C   0  0  0  0  0  0  0  0  0  0  0  0
    8.1839  -12.8063   19.7864 C   0  0  0  0  0  0  0  0  0  0  0  0
    8.8223  -14.0518   20.3546 C   0  0  1  0  0  0  0  0  0  0  0  0
    8.9816  -13.9885   21.8226 C   0  0  0  0  0  0  0  0  0  0  0  0
   10.0504  -13.5233   22.3354 O   0  0  0  0  0  0  0  0  0  0  0  0
    6.7471  -14.4962   24.7678 C   0  0  0  0  0  0  0  0  0  0  0  0
    8.1442  -14.4381   24.1669 C   0  0  2  0  0  0  0  0  0  0  0  0
    7.9877  -14.4272   22.7317 N   0  0  0  0  0  0  0  0  0  0  0  0
    8.9018  -15.6088   24.6472 C   0  0  0  0  0  0  0  0  0  0  0  0
    9.0653  -15.7946   25.8711 O   0  0  0  0  0  0  0  0  0  0  0  0
    9.4452  -16.5244   23.7156 N   0  0  0  0  0  0  0  0  0  0  0  0
   10.1917  -17.6977   24.0839 C   0  0  1  0  0  0  0  0  0  0  0  0
   10.0580  -18.7729   23.0574 C   0  0  0  0  0  0  0  0  0  0  0  0
   10.9122  -19.9428   23.2907 C   0  0  0  0  0  0  0  0  0  0  0  0
   11.0972  -20.5059   24.3928 O   0  0  0  0  0  0  0  0  0  0  0  0
   11.6067  -17.3633   24.3877 C   0  0  0  0  0  0  0  0  0  0  0  0
   12.1132  -16.2900   23.9747 O   0  0  0  0  0  0  0  0  0  0  0  0
   11.5800  -20.4808   22.1944 O   0  0  0  0  0  0  0  0  0  0  0  0
   12.4203  -18.2080   25.1297 O   0  0  0  0  0  0  0  0  0  0  0  0
  2  1  1  0
  3  2  1  0
  4  3  1  0
  4  5  1  0
  5  1  1  0
  6 10  1  0
  5  6  1  1
  7  6  2  0
  9  8  1  1
  9 10  1  0
  9 11  1  0
 11 13  1  0
 12 11  2  0
 13 14  1  0
 14 18  1  0
 14 15  1  6
 16 20  1  0
 16 15  1  0
 17 16  2  0
 18 21  1  0
 19 18  2  0
M  END
$$$$
