PAD.pdb
     RDKit          3D

 21 21  0  0  1  0  0  0  0  0999 V2000
    7.5931  -17.3002   21.4414 N   0  0  0  0  0  0  0  0  0  0  0  0
    8.5991  -17.0996   20.4126 C   0  0  0  0  0  0  0  0  0  0  0  0
    9.8968  -17.3166   21.1437 C   0  0  0  0  0  0  0  0  0  0  0  0
    9.5800  -18.2051   22.3322 C   0  0  0  0  0  0  0  0  0  0  0  0
    8.1025  -18.4542   22.1402 C   0  0  1  0  0  0  0  0  0  0  0  0
    7.3822  -18.6097   23.4213 C   0  0  0  0  0  0  0  0  0  0  0  0
    6.8695  -17.5974   23.9994 O   0  0  0  0  0  0  0  0  0  0  0  0
    5.7646  -21.2990   25.2972 C   0  0  0  0  0  0  0  0  0  0  0  0
    6.5924  -20.0237   25.3646 C   0  0  2  0  0  0  0  0  0  0  0  0
    7.2177  -19.8561   24.0741 N   0  0  0  0  0  0  0  0  0  0  0  0
    7.5730  -20.1676   26.4569 C   0  0  0  0  0  0  0  0  0  0  0  0
    7.1864  -20.3284   27.6333 O   0  0  0  0  0  0  0  0  0  0  0  0
    8.9573  -20.1228   26.1688 N   0  0  0  0  0  0  0  0  0  0  0  0
    9.9893  -20.2245   27.1659 C   0  0  1  0  0  0  0  0  0  0  0  0
   11.1944  -20.9255   26.6330 C   0  0  0  0  0  0  0  0  0  0  0  0
   11.8111  -21.8690   27.5722 C   0  0  0  0  0  0  0  0  0  0  0  0
   11.2329  -22.4350   28.5268 O   0  0  0  0  0  0  0  0  0  0  0  0
   10.3064  -18.8967   27.7512 C   0  0  0  0  0  0  0  0  0  0  0  0
   10.0097  -17.8402   27.1387 O   0  0  0  0  0  0  0  0  0  0  0  0
   13.1590  -22.1668   27.3930 O   0  0  0  0  0  0  0  0  0  0  0  0
   10.9349  -18.7650   28.9815 O   0  0  0  0  0  0  0  0  0  0  0  0
  2  1  1  0
  3  2  1  0
  4  3  1  0
  4  5  1  0
  5  1  1  0
  6 10  1  0
  5  6  1  1
  7  6  2  0
  9  8  1  6
  9 10  1  0
  9 11  1  0
 11 13  1  0
 12 11  2  0
 13 14  1  0
 14 18  1  0
 14 15  1  6
 16 20  1  0
 16 15  1  0
 17 16  2  0
 18 21  1  0
 19 18  2  0
M  END
$$$$
