PAD.pdb
     RDKit          3D

 21 21  0  0  1  0  0  0  0  0999 V2000
    8.6313  -14.9850   18.9568 N   0  0  0  0  0  0  0  0  0  0  0  0
    8.1848  -14.2530   17.7839 C   0  0  0  0  0  0  0  0  0  0  0  0
    7.4715  -13.0615   18.3643 C   0  0  0  0  0  0  0  0  0  0  0  0
    8.0558  -12.8392   19.7469 C   0  0  0  0  0  0  0  0  0  0  0  0
    9.1044  -13.9246   19.8119 C   0  0  1  0  0  0  0  0  0  0  0  0
    9.2962  -14.4468   21.1811 C   0  0  0  0  0  0  0  0  0  0  0  0
    9.7661  -13.6971   22.0969 O   0  0  0  0  0  0  0  0  0  0  0  0
    8.2681  -17.4804   23.0658 C   0  0  0  0  0  0  0  0  0  0  0  0
    9.2559  -16.3417   22.8566 C   0  0  2  0  0  0  0  0  0  0  0  0
    8.9804  -15.7755   21.5573 N   0  0  0  0  0  0  0  0  0  0  0  0
   10.6210  -16.8905   22.9596 C   0  0  0  0  0  0  0  0  0  0  0  0
   10.9968  -17.4514   24.0100 O   0  0  0  0  0  0  0  0  0  0  0  0
   11.5073  -16.7800   21.8625 N   0  0  0  0  0  0  0  0  0  0  0  0
   12.8439  -17.3120   21.8526 C   0  0  1  0  0  0  0  0  0  0  0  0
   13.1213  -18.0644   20.5938 C   0  0  0  0  0  0  0  0  0  0  0  0
   12.4004  -19.3370   20.4774 C   0  0  0  0  0  0  0  0  0  0  0  0
   12.1291  -20.1136   21.4204 O   0  0  0  0  0  0  0  0  0  0  0  0
   13.8483  -16.2519   22.1239 C   0  0  0  0  0  0  0  0  0  0  0  0
   15.0665  -16.5388   22.2370 O   0  0  0  0  0  0  0  0  0  0  0  0
   11.9769  -19.7228   19.2088 O   0  0  0  0  0  0  0  0  0  0  0  0
   13.4922  -14.9177   22.2624 O   0  0  0  0  0  0  0  0  0  0  0  0
  2  1  1  0
  3  2  1  0
  4  3  1  0
  4  5  1  0
  5  1  1  0
  6 10  1  0
  5  6  1  1
  7  6  2  0
  9  8  1  6
  9 10  1  0
  9 11  1  0
 11 13  1  0
 12 11  2  0
 13 14  1  0
 14 18  1  0
 14 15  1  6
 16 20  1  0
 16 15  1  0
 17 16  2  0
 18 21  1  0
 19 18  2  0
M  END
$$$$
