PAD.pdb
     RDKit          3D

 21 21  0  0  1  0  0  0  0  0999 V2000
    7.8935  -15.1430   19.3762 N   0  0  0  0  0  0  0  0  0  0  0  0
    7.5222  -14.8065   18.0124 C   0  0  0  0  0  0  0  0  0  0  0  0
    7.4038  -13.3063   18.0410 C   0  0  0  0  0  0  0  0  0  0  0  0
    8.2806  -12.8251   19.1821 C   0  0  0  0  0  0  0  0  0  0  0  0
    8.8663  -14.1240   19.6840 C   0  0  1  0  0  0  0  0  0  0  0  0
    9.1165  -14.1083   21.1405 C   0  0  0  0  0  0  0  0  0  0  0  0
   10.1555  -13.5410   21.6098 O   0  0  0  0  0  0  0  0  0  0  0  0
    7.1364  -15.0402   24.1702 C   0  0  0  0  0  0  0  0  0  0  0  0
    8.4664  -14.7028   23.5118 C   0  0  2  0  0  0  0  0  0  0  0  0
    8.2452  -14.7042   22.0851 N   0  0  0  0  0  0  0  0  0  0  0  0
    9.4585  -15.7091   23.9341 C   0  0  0  0  0  0  0  0  0  0  0  0
    9.7247  -15.8622   25.1444 O   0  0  0  0  0  0  0  0  0  0  0  0
   10.1106  -16.5039   22.9621 N   0  0  0  0  0  0  0  0  0  0  0  0
   11.0962  -17.5048   23.2722 C   0  0  1  0  0  0  0  0  0  0  0  0
   10.6739  -18.8528   22.7901 C   0  0  0  0  0  0  0  0  0  0  0  0
   11.6592  -19.9150   23.0217 C   0  0  0  0  0  0  0  0  0  0  0  0
   12.3689  -20.0449   24.0441 O   0  0  0  0  0  0  0  0  0  0  0  0
   12.4399  -17.1103   22.7770 C   0  0  0  0  0  0  0  0  0  0  0  0
   13.4448  -17.8263   23.0147 O   0  0  0  0  0  0  0  0  0  0  0  0
   11.8258  -20.8674   22.0203 O   0  0  0  0  0  0  0  0  0  0  0  0
   12.6427  -15.9514   22.0409 O   0  0  0  0  0  0  0  0  0  0  0  0
  2  1  1  0
  3  2  1  0
  4  3  1  0
  4  5  1  0
  5  1  1  0
  6 10  1  0
  5  6  1  1
  7  6  2  0
  9  8  1  1
  9 10  1  0
  9 11  1  0
 11 13  1  0
 12 11  2  0
 13 14  1  0
 14 18  1  0
 14 15  1  6
 16 20  1  0
 16 15  1  0
 17 16  2  0
 18 21  1  0
 19 18  2  0
M  END
$$$$
