NPR.pdb
     RDKit          3D

 27 27  0  0  1  0  0  0  0  0999 V2000
    7.5082  -16.5285   14.0591 N   0  0  0  0  0  0  0  0  0  0  0  0
    7.3735  -17.2923   15.2390 C   0  0  0  0  0  0  0  0  0  0  0  0
    6.7462  -18.3793   15.2977 O   0  0  0  0  0  0  0  0  0  0  0  0
    8.0028  -16.8021   16.4996 C   0  0  0  0  0  0  0  0  0  0  0  0
    8.7394  -15.4887   16.2540 C   0  0  2  0  0  0  0  0  0  0  0  0
    9.7136  -15.7168   15.2206 N   0  0  0  0  0  0  0  0  0  0  0  0
    9.3379  -15.0061   17.5249 C   0  0  0  0  0  0  0  0  0  0  0  0
   10.5945  -15.2316   17.6199 O   0  0  0  0  0  0  0  0  0  0  0  0
    8.6220  -14.3535   18.5615 N   0  0  0  0  0  0  0  0  0  0  0  0
    7.2220  -14.0767   18.5864 C   0  0  0  0  0  0  0  0  0  0  0  0
    6.9971  -13.1938   19.7719 C   0  0  0  0  0  0  0  0  0  0  0  0
    8.3944  -12.6750   20.1422 C   0  0  0  0  0  0  0  0  0  0  0  0
    9.2284  -13.8782   19.7694 C   0  0  1  0  0  0  0  0  0  0  0  0
    9.1593  -14.8588   20.8743 C   0  0  0  0  0  0  0  0  0  0  0  0
    8.1921  -15.6466   20.9175 O   0  0  0  0  0  0  0  0  0  0  0  0
   14.7424  -19.8489   20.6734 N   0  0  0  0  0  0  0  0  0  0  0  0
   14.1190  -20.5453   21.7632 C   0  0  0  0  0  0  0  0  0  0  0  0
   14.1461  -21.8205   21.7235 N   0  0  0  0  0  0  0  0  0  0  0  0
   13.5068  -19.8771   22.8277 N   0  0  0  0  0  0  0  0  0  0  0  0
   13.3709  -18.4371   22.9067 C   0  0  0  0  0  0  0  0  0  0  0  0
   11.9091  -18.0772   22.7728 C   0  0  0  0  0  0  0  0  0  0  0  0
   11.7244  -16.5821   22.7707 C   0  0  0  0  0  0  0  0  0  0  0  0
   10.3013  -16.1336   22.6608 C   0  0  2  0  0  0  0  0  0  0  0  0
   10.1492  -14.9317   21.8767 N   0  0  0  0  0  0  0  0  0  0  0  0
    9.7685  -15.8675   24.0478 C   0  0  0  0  0  0  0  0  0  0  0  0
    9.5678  -14.6925   24.4297 O   0  0  0  0  0  0  0  0  0  0  0  0
    9.4941  -16.9114   24.9172 O   0  0  0  0  0  0  0  0  0  0  0  0
  2  1  1  0
  2  3  2  0
  4  2  1  0
  5  4  1  0
  5  6  1  6
  7  5  1  0
  7  9  1  0
  8  7  2  0
  9 13  1  0
 10  9  1  0
 10 11  1  0
 11 12  1  0
 13 12  1  0
 14 24  1  0
 13 14  1  1
 15 14  2  0
 17 16  1  0
 17 19  1  0
 18 17  2  0
 20 19  1  0
 21 22  1  0
 21 20  1  0
 23 22  1  1
 23 24  1  0
 25 23  1  0
 25 27  1  0
 26 25  2  0
M  END
$$$$
