NPR.pdb
     RDKit          3D

 27 27  0  0  1  0  0  0  0  0999 V2000
    9.3456  -18.4552   27.0062 N   0  0  0  0  0  0  0  0  0  0  0  0
    9.9880  -17.4366   27.7434 C   0  0  0  0  0  0  0  0  0  0  0  0
   11.2342  -17.2809   27.7770 O   0  0  0  0  0  0  0  0  0  0  0  0
    9.1621  -16.4788   28.5345 C   0  0  0  0  0  0  0  0  0  0  0  0
    7.6761  -16.7573   28.3286 C   0  0  2  0  0  0  0  0  0  0  0  0
    7.4704  -18.1742   28.4670 N   0  0  0  0  0  0  0  0  0  0  0  0
    7.2474  -16.2310   27.0074 C   0  0  0  0  0  0  0  0  0  0  0  0
    6.6163  -17.0859   26.2934 O   0  0  0  0  0  0  0  0  0  0  0  0
    7.4935  -14.9139   26.5410 N   0  0  0  0  0  0  0  0  0  0  0  0
    8.2489  -13.9018   27.2063 C   0  0  0  0  0  0  0  0  0  0  0  0
    8.0331  -12.6454   26.4250 C   0  0  0  0  0  0  0  0  0  0  0  0
    6.8032  -12.9357   25.5520 C   0  0  0  0  0  0  0  0  0  0  0  0
    7.0087  -14.4094   25.2909 C   0  0  1  0  0  0  0  0  0  0  0  0
    7.9850  -14.5602   24.1902 C   0  0  0  0  0  0  0  0  0  0  0  0
    9.0664  -13.9406   24.2586 O   0  0  0  0  0  0  0  0  0  0  0  0
    8.1853  -15.3615   17.1293 N   0  0  0  0  0  0  0  0  0  0  0  0
    7.8300  -14.0202   16.7605 C   0  0  0  0  0  0  0  0  0  0  0  0
    7.5969  -13.8047   15.5245 N   0  0  0  0  0  0  0  0  0  0  0  0
    7.7372  -12.9851   17.6956 N   0  0  0  0  0  0  0  0  0  0  0  0
    8.4508  -12.9686   18.9560 C   0  0  0  0  0  0  0  0  0  0  0  0
    7.6927  -13.8103   19.9566 C   0  0  0  0  0  0  0  0  0  0  0  0
    8.4238  -13.8649   21.2725 C   0  0  0  0  0  0  0  0  0  0  0  0
    8.5219  -15.2328   21.8707 C   0  0  2  0  0  0  0  0  0  0  0  0
    7.7333  -15.3801   23.0703 N   0  0  0  0  0  0  0  0  0  0  0  0
    9.9657  -15.5094   22.2135 C   0  0  0  0  0  0  0  0  0  0  0  0
   10.6932  -16.1374   21.4116 O   0  0  0  0  0  0  0  0  0  0  0  0
   10.5079  -15.0767   23.4134 O   0  0  0  0  0  0  0  0  0  0  0  0
  2  1  1  0
  2  3  2  0
  4  2  1  0
  5  4  1  0
  5  6  1  6
  7  5  1  0
  7  9  1  0
  8  7  2  0
  9 13  1  0
 10  9  1  0
 10 11  1  0
 11 12  1  0
 13 12  1  0
 14 24  1  0
 13 14  1  6
 15 14  2  0
 17 16  1  0
 17 19  1  0
 18 17  2  0
 20 19  1  0
 21 22  1  0
 21 20  1  0
 23 22  1  1
 23 24  1  0
 25 23  1  0
 25 27  1  0
 26 25  2  0
M  END
$$$$
