NPR.pdb
     RDKit          3D

 27 27  0  0  1  0  0  0  0  0999 V2000
    5.9530  -17.1540   14.9013 N   0  0  0  0  0  0  0  0  0  0  0  0
    7.1746  -17.7435   15.2939 C   0  0  0  0  0  0  0  0  0  0  0  0
    7.7349  -18.6729   14.6609 O   0  0  0  0  0  0  0  0  0  0  0  0
    7.8577  -17.2520   16.5255 C   0  0  0  0  0  0  0  0  0  0  0  0
    8.6550  -15.9861   16.2258 C   0  0  2  0  0  0  0  0  0  0  0  0
    9.6487  -16.3149   15.2392 N   0  0  0  0  0  0  0  0  0  0  0  0
    9.2357  -15.4514   17.4841 C   0  0  0  0  0  0  0  0  0  0  0  0
   10.4395  -15.8313   17.6971 O   0  0  0  0  0  0  0  0  0  0  0  0
    8.5561  -14.5992   18.3923 N   0  0  0  0  0  0  0  0  0  0  0  0
    7.2142  -14.1267   18.2758 C   0  0  0  0  0  0  0  0  0  0  0  0
    7.0432  -13.1012   19.3503 C   0  0  0  0  0  0  0  0  0  0  0  0
    8.4738  -12.7484   19.7837 C   0  0  0  0  0  0  0  0  0  0  0  0
    9.1433  -14.0896   19.5957 C   0  0  1  0  0  0  0  0  0  0  0  0
    8.8548  -14.9291   20.7787 C   0  0  0  0  0  0  0  0  0  0  0  0
    7.7197  -15.4357   20.8922 O   0  0  0  0  0  0  0  0  0  0  0  0
   14.1808  -21.4814   22.7835 N   0  0  0  0  0  0  0  0  0  0  0  0
   14.0610  -20.3825   23.6996 C   0  0  0  0  0  0  0  0  0  0  0  0
   15.1430  -19.9326   24.2050 N   0  0  0  0  0  0  0  0  0  0  0  0
   12.8273  -19.8167   24.0346 N   0  0  0  0  0  0  0  0  0  0  0  0
   11.8477  -19.3799   23.0610 C   0  0  0  0  0  0  0  0  0  0  0  0
   11.8524  -17.8694   23.0085 C   0  0  0  0  0  0  0  0  0  0  0  0
   10.8973  -17.3678   21.9571 C   0  0  0  0  0  0  0  0  0  0  0  0
    9.8413  -16.4407   22.4706 C   0  0  2  0  0  0  0  0  0  0  0  0
    9.8192  -15.1746   21.7784 N   0  0  0  0  0  0  0  0  0  0  0  0
   10.0970  -16.1781   23.9349 C   0  0  0  0  0  0  0  0  0  0  0  0
    9.9881  -17.1054   24.7685 O   0  0  0  0  0  0  0  0  0  0  0  0
   10.4542  -14.9149   24.3796 O   0  0  0  0  0  0  0  0  0  0  0  0
  2  1  1  0
  2  3  2  0
  4  2  1  0
  5  4  1  0
  5  6  1  6
  7  5  1  0
  7  9  1  0
  8  7  2  0
  9 13  1  0
 10  9  1  0
 10 11  1  0
 11 12  1  0
 13 12  1  0
 14 24  1  0
 13 14  1  1
 15 14  2  0
 17 16  1  0
 17 19  1  0
 18 17  2  0
 20 19  1  0
 21 22  1  0
 21 20  1  0
 23 22  1  6
 23 24  1  0
 25 23  1  0
 25 27  1  0
 26 25  2  0
M  END
$$$$
