NPR.pdb
     RDKit          3D

 27 27  0  0  1  0  0  0  0  0999 V2000
    6.6539  -18.1716   23.2100 N   0  0  0  0  0  0  0  0  0  0  0  0
    5.9162  -17.7423   22.0852 C   0  0  0  0  0  0  0  0  0  0  0  0
    5.1405  -16.7540   22.0964 O   0  0  0  0  0  0  0  0  0  0  0  0
    6.0488  -18.4873   20.7997 C   0  0  0  0  0  0  0  0  0  0  0  0
    6.4134  -17.5350   19.6648 C   0  0  2  0  0  0  0  0  0  0  0  0
    6.4864  -18.3037   18.4513 N   0  0  0  0  0  0  0  0  0  0  0  0
    7.6818  -16.8334   19.9891 C   0  0  0  0  0  0  0  0  0  0  0  0
    8.7293  -17.5334   19.7621 O   0  0  0  0  0  0  0  0  0  0  0  0
    7.7696  -15.5141   20.5038 N   0  0  0  0  0  0  0  0  0  0  0  0
    6.7186  -14.7665   21.1152 C   0  0  0  0  0  0  0  0  0  0  0  0
    7.2453  -13.3776   21.2854 C   0  0  0  0  0  0  0  0  0  0  0  0
    8.4735  -13.3111   20.3656 C   0  0  0  0  0  0  0  0  0  0  0  0
    8.9702  -14.7326   20.4878 C   0  0  1  0  0  0  0  0  0  0  0  0
    9.7527  -14.8515   21.7372 C   0  0  0  0  0  0  0  0  0  0  0  0
   10.7935  -14.1735   21.8599 O   0  0  0  0  0  0  0  0  0  0  0  0
    4.7972  -12.0142   27.5949 N   0  0  0  0  0  0  0  0  0  0  0  0
    5.7862  -12.1953   26.5700 C   0  0  0  0  0  0  0  0  0  0  0  0
    6.0272  -11.1930   25.8178 N   0  0  0  0  0  0  0  0  0  0  0  0
    6.4653  -13.4037   26.3886 N   0  0  0  0  0  0  0  0  0  0  0  0
    7.9037  -13.5099   26.2546 C   0  0  0  0  0  0  0  0  0  0  0  0
    8.2213  -14.5963   25.2530 C   0  0  0  0  0  0  0  0  0  0  0  0
    9.7014  -14.6554   24.9794 C   0  0  0  0  0  0  0  0  0  0  0  0
   10.1124  -15.7293   24.0221 C   0  0  2  0  0  0  0  0  0  0  0  0
    9.3602  -15.7034   22.7908 N   0  0  0  0  0  0  0  0  0  0  0  0
    9.9021  -17.0715   24.6800 C   0  0  0  0  0  0  0  0  0  0  0  0
   10.4648  -17.3342   25.7667 O   0  0  0  0  0  0  0  0  0  0  0  0
    9.0887  -18.0303   24.0968 O   0  0  0  0  0  0  0  0  0  0  0  0
  2  1  1  0
  2  3  2  0
  4  2  1  0
  5  4  1  0
  5  6  1  6
  7  5  1  0
  7  9  1  0
  8  7  2  0
  9 13  1  0
 10  9  1  0
 10 11  1  0
 11 12  1  0
 13 12  1  0
 14 24  1  0
 13 14  1  1
 15 14  2  0
 17 16  1  0
 17 19  1  0
 18 17  2  0
 20 19  1  0
 21 22  1  0
 21 20  1  0
 23 22  1  1
 23 24  1  0
 25 23  1  0
 25 27  1  0
 26 25  2  0
M  END
$$$$
