NPR.pdb
     RDKit          3D

 27 27  0  0  1  0  0  0  0  0999 V2000
    7.7374  -16.6856   13.4959 N   0  0  0  0  0  0  0  0  0  0  0  0
    7.5629  -17.3474   14.7309 C   0  0  0  0  0  0  0  0  0  0  0  0
    7.1434  -18.5270   14.8362 O   0  0  0  0  0  0  0  0  0  0  0  0
    7.8884  -16.6266   15.9957 C   0  0  0  0  0  0  0  0  0  0  0  0
    8.3553  -15.2052   15.6962 C   0  0  2  0  0  0  0  0  0  0  0  0
    9.0551  -15.2273   14.4397 N   0  0  0  0  0  0  0  0  0  0  0  0
    9.1882  -14.7055   16.8201 C   0  0  0  0  0  0  0  0  0  0  0  0
   10.4453  -14.8678   16.6404 O   0  0  0  0  0  0  0  0  0  0  0  0
    8.6804  -14.1006   17.9986 N   0  0  0  0  0  0  0  0  0  0  0  0
    7.3063  -13.9048   18.3317 C   0  0  0  0  0  0  0  0  0  0  0  0
    7.2966  -13.0424   19.5530 C   0  0  0  0  0  0  0  0  0  0  0  0
    8.7103  -12.4460   19.6201 C   0  0  0  0  0  0  0  0  0  0  0  0
    9.5081  -13.5972   19.0542 C   0  0  1  0  0  0  0  0  0  0  0  0
    9.7353  -14.5859   20.1305 C   0  0  0  0  0  0  0  0  0  0  0  0
    9.1245  -14.4481   21.2102 O   0  0  0  0  0  0  0  0  0  0  0  0
   17.9583  -14.3845   19.5248 N   0  0  0  0  0  0  0  0  0  0  0  0
   17.6480  -14.4692   20.9240 C   0  0  0  0  0  0  0  0  0  0  0  0
   18.6346  -14.5452   21.7298 N   0  0  0  0  0  0  0  0  0  0  0  0
   16.3342  -14.4687   21.4020 N   0  0  0  0  0  0  0  0  0  0  0  0
   15.1656  -14.3608   20.5529 C   0  0  0  0  0  0  0  0  0  0  0  0
   13.9269  -14.4701   21.4120 C   0  0  0  0  0  0  0  0  0  0  0  0
   12.6855  -14.4996   20.5592 C   0  0  0  0  0  0  0  0  0  0  0  0
   11.8475  -15.7277   20.7269 C   0  0  2  0  0  0  0  0  0  0  0  0
   10.6169  -15.6761   19.9748 N   0  0  0  0  0  0  0  0  0  0  0  0
   11.5055  -15.8853   22.1886 C   0  0  0  0  0  0  0  0  0  0  0  0
   10.4730  -15.3523   22.6539 O   0  0  0  0  0  0  0  0  0  0  0  0
   12.3225  -16.6173   23.0357 O   0  0  0  0  0  0  0  0  0  0  0  0
  2  1  1  0
  2  3  2  0
  4  2  1  0
  5  4  1  0
  5  6  1  6
  7  5  1  0
  7  9  1  0
  8  7  2  0
  9 13  1  0
 10  9  1  0
 10 11  1  0
 11 12  1  0
 13 12  1  0
 14 24  1  0
 13 14  1  1
 15 14  2  0
 17 16  1  0
 17 19  1  0
 18 17  2  0
 20 19  1  0
 21 22  1  0
 21 20  1  0
 23 22  1  1
 23 24  1  0
 25 23  1  0
 25 27  1  0
 26 25  2  0
M  END
$$$$
