NPR.pdb
     RDKit          3D

 27 27  0  0  1  0  0  0  0  0999 V2000
   -1.6925  -25.4593   32.6618 N   0  0  0  0  0  0  0  0  0  0  0  0
   -1.4153  -25.8706   31.3398 C   0  0  0  0  0  0  0  0  0  0  0  0
   -0.4033  -26.5414   31.0164 O   0  0  0  0  0  0  0  0  0  0  0  0
   -2.3624  -25.5007   30.2483 C   0  0  0  0  0  0  0  0  0  0  0  0
   -3.5433  -24.7138   30.8089 C   0  0  2  0  0  0  0  0  0  0  0  0
   -4.1852  -25.5317   31.8029 N   0  0  0  0  0  0  0  0  0  0  0  0
   -4.4516  -24.3191   29.7018 C   0  0  0  0  0  0  0  0  0  0  0  0
   -5.5011  -25.0468   29.6133 O   0  0  0  0  0  0  0  0  0  0  0  0
   -4.2167  -23.2456   28.8044 N   0  0  0  0  0  0  0  0  0  0  0  0
   -3.1023  -22.3538   28.8161 C   0  0  0  0  0  0  0  0  0  0  0  0
   -3.4217  -21.2813   27.8245 C   0  0  0  0  0  0  0  0  0  0  0  0
   -4.9326  -21.4124   27.5818 C   0  0  0  0  0  0  0  0  0  0  0  0
   -5.0921  -22.9082   27.7217 C   0  0  1  0  0  0  0  0  0  0  0  0
   -4.7019  -23.5441   26.4447 C   0  0  0  0  0  0  0  0  0  0  0  0
   -3.4970  -23.8029   26.2470 O   0  0  0  0  0  0  0  0  0  0  0  0
   -1.0445  -28.9011   22.9042 N   0  0  0  0  0  0  0  0  0  0  0  0
   -2.3338  -29.4646   22.6189 C   0  0  0  0  0  0  0  0  0  0  0  0
   -2.3559  -30.5196   21.9012 N   0  0  0  0  0  0  0  0  0  0  0  0
   -3.5207  -28.9007   23.0958 N   0  0  0  0  0  0  0  0  0  0  0  0
   -3.5718  -27.7723   24.0027 C   0  0  0  0  0  0  0  0  0  0  0  0
   -5.0186  -27.4280   24.2717 C   0  0  0  0  0  0  0  0  0  0  0  0
   -5.1235  -26.2484   25.2027 C   0  0  0  0  0  0  0  0  0  0  0  0
   -5.3846  -24.9423   24.5212 C   0  0  2  0  0  0  0  0  0  0  0  0
   -5.6459  -23.8668   25.4473 N   0  0  0  0  0  0  0  0  0  0  0  0
   -6.5861  -25.0971   23.6206 C   0  0  0  0  0  0  0  0  0  0  0  0
   -7.7379  -24.9006   24.0693 O   0  0  0  0  0  0  0  0  0  0  0  0
   -6.4368  -25.4573   22.2906 O   0  0  0  0  0  0  0  0  0  0  0  0
  2  1  1  0
  2  3  2  0
  4  2  1  0
  5  4  1  0
  5  6  1  1
  7  5  1  0
  7  9  1  0
  8  7  2  0
  9 13  1  0
 10  9  1  0
 10 11  1  0
 11 12  1  0
 13 12  1  0
 14 24  1  0
 13 14  1  6
 15 14  2  0
 17 16  1  0
 17 19  1  0
 18 17  2  0
 20 19  1  0
 21 22  1  0
 21 20  1  0
 23 22  1  1
 23 24  1  0
 25 23  1  0
 25 27  1  0
 26 25  2  0
M  END
$$$$
