NPR.pdb
     RDKit          3D

 27 27  0  0  1  0  0  0  0  0999 V2000
    7.8399  -15.6922   13.7322 N   0  0  0  0  0  0  0  0  0  0  0  0
    7.5045  -16.6039   14.7569 C   0  0  0  0  0  0  0  0  0  0  0  0
    6.8557  -17.6622   14.5632 O   0  0  0  0  0  0  0  0  0  0  0  0
    7.9338  -16.3167   16.1564 C   0  0  0  0  0  0  0  0  0  0  0  0
    8.7144  -15.0073   16.2182 C   0  0  2  0  0  0  0  0  0  0  0  0
    9.6807  -15.0201   15.1528 N   0  0  0  0  0  0  0  0  0  0  0  0
    9.3285  -14.8544   17.5620 C   0  0  0  0  0  0  0  0  0  0  0  0
   10.4895  -15.3846   17.6603 O   0  0  0  0  0  0  0  0  0  0  0  0
    8.7211  -14.1924   18.6601 N   0  0  0  0  0  0  0  0  0  0  0  0
    7.4240  -13.5971   18.6845 C   0  0  0  0  0  0  0  0  0  0  0  0
    7.3375  -12.8494   19.9763 C   0  0  0  0  0  0  0  0  0  0  0  0
    8.7917  -12.7301   20.4557 C   0  0  0  0  0  0  0  0  0  0  0  0
    9.3463  -14.0372   19.9398 C   0  0  1  0  0  0  0  0  0  0  0  0
    8.9854  -15.1097   20.8921 C   0  0  0  0  0  0  0  0  0  0  0  0
    7.9729  -15.8018   20.6604 O   0  0  0  0  0  0  0  0  0  0  0  0
   11.6606  -21.8056   18.5259 N   0  0  0  0  0  0  0  0  0  0  0  0
   12.1158  -21.8972   19.8844 C   0  0  0  0  0  0  0  0  0  0  0  0
   12.5294  -23.0384   20.2782 N   0  0  0  0  0  0  0  0  0  0  0  0
   12.1155  -20.8001   20.7509 N   0  0  0  0  0  0  0  0  0  0  0  0
   11.6008  -19.4926   20.3987 C   0  0  0  0  0  0  0  0  0  0  0  0
   11.7599  -18.5702   21.5853 C   0  0  0  0  0  0  0  0  0  0  0  0
   11.1784  -17.2125   21.2890 C   0  0  0  0  0  0  0  0  0  0  0  0
   10.2163  -16.7119   22.3198 C   0  0  2  0  0  0  0  0  0  0  0  0
    9.7477  -15.3741   22.0493 N   0  0  0  0  0  0  0  0  0  0  0  0
   10.9025  -16.7129   23.6643 C   0  0  0  0  0  0  0  0  0  0  0  0
   10.5846  -17.5572   24.5319 O   0  0  0  0  0  0  0  0  0  0  0  0
   11.8893  -15.7858   23.9604 O   0  0  0  0  0  0  0  0  0  0  0  0
  2  1  1  0
  2  3  2  0
  4  2  1  0
  5  4  1  0
  5  6  1  6
  7  5  1  0
  7  9  1  0
  8  7  2  0
  9 13  1  0
 10  9  1  0
 10 11  1  0
 11 12  1  0
 13 12  1  0
 14 24  1  0
 13 14  1  1
 15 14  2  0
 17 16  1  0
 17 19  1  0
 18 17  2  0
 20 19  1  0
 21 22  1  0
 21 20  1  0
 23 22  1  6
 23 24  1  0
 25 23  1  0
 25 27  1  0
 26 25  2  0
M  END
$$$$
