NPR.pdb
     RDKit          3D

 27 27  0  0  1  0  0  0  0  0999 V2000
    7.9888  -18.2049   13.6099 N   0  0  0  0  0  0  0  0  0  0  0  0
    7.3719  -17.3932   14.5868 C   0  0  0  0  0  0  0  0  0  0  0  0
    6.1597  -17.0644   14.5553 O   0  0  0  0  0  0  0  0  0  0  0  0
    8.1840  -16.8857   15.7306 C   0  0  0  0  0  0  0  0  0  0  0  0
    8.4698  -15.3962   15.5641 C   0  0  2  0  0  0  0  0  0  0  0  0
    9.1705  -15.2187   14.3205 N   0  0  0  0  0  0  0  0  0  0  0  0
    9.2302  -14.8988   16.7392 C   0  0  0  0  0  0  0  0  0  0  0  0
   10.4999  -14.9240   16.5784 O   0  0  0  0  0  0  0  0  0  0  0  0
    8.6452  -14.4320   17.9446 N   0  0  0  0  0  0  0  0  0  0  0  0
    7.2552  -14.4218   18.2689 C   0  0  0  0  0  0  0  0  0  0  0  0
    7.1338  -13.6434   19.5396 C   0  0  0  0  0  0  0  0  0  0  0  0
    8.4656  -12.8884   19.6630 C   0  0  0  0  0  0  0  0  0  0  0  0
    9.3993  -13.8998   19.0403 C   0  0  1  0  0  0  0  0  0  0  0  0
    9.7352  -14.9187   20.0583 C   0  0  0  0  0  0  0  0  0  0  0  0
    9.0133  -15.9325   20.1533 O   0  0  0  0  0  0  0  0  0  0  0  0
   17.7291  -13.3876   19.2291 N   0  0  0  0  0  0  0  0  0  0  0  0
   17.5550  -14.5893   18.4631 C   0  0  0  0  0  0  0  0  0  0  0  0
   18.6111  -15.2396   18.1627 N   0  0  0  0  0  0  0  0  0  0  0  0
   16.2970  -15.0437   18.0566 N   0  0  0  0  0  0  0  0  0  0  0  0
   15.0530  -14.3770   18.3828 C   0  0  0  0  0  0  0  0  0  0  0  0
   14.2883  -15.2278   19.3705 C   0  0  0  0  0  0  0  0  0  0  0  0
   12.9324  -14.6342   19.6505 C   0  0  0  0  0  0  0  0  0  0  0  0
   12.0944  -15.4253   20.6046 C   0  0  2  0  0  0  0  0  0  0  0  0
   10.8425  -14.7812   20.9215 N   0  0  0  0  0  0  0  0  0  0  0  0
   12.8688  -15.6168   21.8861 C   0  0  0  0  0  0  0  0  0  0  0  0
   12.6356  -14.8880   22.8766 O   0  0  0  0  0  0  0  0  0  0  0  0
   13.8449  -16.5954   21.9883 O   0  0  0  0  0  0  0  0  0  0  0  0
  2  1  1  0
  2  3  2  0
  4  2  1  0
  5  4  1  0
  5  6  1  6
  7  5  1  0
  7  9  1  0
  8  7  2  0
  9 13  1  0
 10  9  1  0
 10 11  1  0
 11 12  1  0
 13 12  1  0
 14 24  1  0
 13 14  1  1
 15 14  2  0
 17 16  1  0
 17 19  1  0
 18 17  2  0
 20 19  1  0
 21 22  1  0
 21 20  1  0
 23 22  1  6
 23 24  1  0
 25 23  1  0
 25 27  1  0
 26 25  2  0
M  END
$$$$
