YGG.pdb
     RDKit          3D

 21 21  0  0  1  0  0  0  0  0999 V2000
   28.6528  -12.2110  -15.6629 O   0  0  0  0  0  0  0  0  0  0  0  0
   27.4987  -11.5444  -16.0505 C   0  0  0  0  0  0  0  0  0  0  0  0
   26.8336  -11.9371  -17.1944 C   0  0  0  0  0  0  0  0  0  0  0  0
   25.6783  -11.2903  -17.6066 C   0  0  0  0  0  0  0  0  0  0  0  0
   25.2001  -10.2322  -16.8406 C   0  0  0  0  0  0  0  0  0  0  0  0
   23.9855   -9.5149  -17.2297 C   0  0  0  0  0  0  0  0  0  0  0  0
   22.7630   -9.9645  -16.4468 C   0  0  2  0  0  0  0  0  0  0  0  0
   22.7211  -11.4131  -16.4645 N   0  0  0  0  0  0  0  0  0  0  0  0
   21.5137   -9.4568  -17.0732 C   0  0  0  0  0  0  0  0  0  0  0  0
   20.8290  -10.1995  -17.8509 O   0  0  0  0  0  0  0  0  0  0  0  0
   25.8913   -9.8667  -15.7022 C   0  0  0  0  0  0  0  0  0  0  0  0
   27.0423  -10.5021  -15.2809 C   0  0  0  0  0  0  0  0  0  0  0  0
   21.0153   -8.1377  -16.8479 N   0  0  0  0  0  0  0  0  0  0  0  0
   19.8496   -7.5928  -17.5050 C   0  0  0  0  0  0  0  0  0  0  0  0
   19.5474   -6.2001  -17.1937 C   0  0  0  0  0  0  0  0  0  0  0  0
   18.5453   -5.6919  -17.8010 O   0  0  0  0  0  0  0  0  0  0  0  0
   20.2570   -5.3750  -16.2878 N   0  0  0  0  0  0  0  0  0  0  0  0
   19.8914   -3.9732  -16.1117 C   0  0  0  0  0  0  0  0  0  0  0  0
   20.8269   -3.3295  -15.1545 C   0  0  0  0  0  0  0  0  0  0  0  0
   20.6360   -1.9799  -14.8827 O   0  0  0  0  0  0  0  0  0  0  0  0
   21.7380   -3.9868  -14.6275 O   0  0  0  0  0  0  0  0  0  0  0  0
  2  1  1  0
  3  2  2  0
  4  3  1  0
  5  4  2  0
  5 11  1  0
  6  5  1  0
  7  9  1  0
  7  8  1  6
  7  6  1  0
  9 13  1  0
 10  9  2  0
 11 12  2  0
 12  2  1  0
 13 14  1  0
 14 15  1  0
 15 16  2  0
 15 17  1  0
 17 18  1  0
 19 18  1  0
 19 20  1  0
 21 19  2  0
M  END
$$$$
