YGG.pdb
     RDKit          3D

 21 21  0  0  1  0  0  0  0  0999 V2000
   27.8166  -19.6546   -5.0983 O   0  0  0  0  0  0  0  0  0  0  0  0
   27.8580  -19.8130   -6.4766 C   0  0  0  0  0  0  0  0  0  0  0  0
   28.4997  -20.9075   -7.0201 C   0  0  0  0  0  0  0  0  0  0  0  0
   28.5574  -21.0925   -8.3932 C   0  0  0  0  0  0  0  0  0  0  0  0
   27.9527  -20.1485   -9.2167 C   0  0  0  0  0  0  0  0  0  0  0  0
   27.9837  -20.2948  -10.6723 C   0  0  0  0  0  0  0  0  0  0  0  0
   26.6029  -20.2019  -11.3002 C   0  0  2  0  0  0  0  0  0  0  0  0
   25.8373  -21.3602  -10.8848 N   0  0  0  0  0  0  0  0  0  0  0  0
   26.6915  -20.2126  -12.7845 C   0  0  0  0  0  0  0  0  0  0  0  0
   26.4310  -21.2728  -13.4429 O   0  0  0  0  0  0  0  0  0  0  0  0
   27.3197  -19.0660   -8.6381 C   0  0  0  0  0  0  0  0  0  0  0  0
   27.2550  -18.8700   -7.2730 C   0  0  0  0  0  0  0  0  0  0  0  0
   27.0650  -19.0639  -13.5462 N   0  0  0  0  0  0  0  0  0  0  0  0
   26.8047  -18.9137  -14.9595 C   0  0  0  0  0  0  0  0  0  0  0  0
   25.3969  -18.8377  -15.3335 C   0  0  0  0  0  0  0  0  0  0  0  0
   25.1529  -18.6477  -16.5727 O   0  0  0  0  0  0  0  0  0  0  0  0
   24.2927  -18.9571  -14.4551 N   0  0  0  0  0  0  0  0  0  0  0  0
   22.9262  -18.8414  -14.9540 C   0  0  0  0  0  0  0  0  0  0  0  0
   22.3497  -20.1961  -15.1498 C   0  0  0  0  0  0  0  0  0  0  0  0
   23.2268  -21.2741  -15.1274 O   0  0  0  0  0  0  0  0  0  0  0  0
   21.1298  -20.3409  -15.3252 O   0  0  0  0  0  0  0  0  0  0  0  0
  2  1  1  0
  3  2  2  0
  4  3  1  0
  5  4  2  0
  5 11  1  0
  6  5  1  0
  7  9  1  0
  7  8  1  1
  7  6  1  0
  9 13  1  0
 10  9  2  0
 11 12  2  0
 12  2  1  0
 13 14  1  0
 14 15  1  0
 15 16  2  0
 15 17  1  0
 17 18  1  0
 19 18  1  0
 19 20  1  0
 21 19  2  0
M  END
$$$$
