YGG.pdb
     RDKit          3D

 21 21  0  0  1  0  0  0  0  0999 V2000
   28.3124  -18.5724   -3.7301 O   0  0  0  0  0  0  0  0  0  0  0  0
   28.1535  -19.2290   -4.9425 C   0  0  0  0  0  0  0  0  0  0  0  0
   27.1210  -20.1311   -5.1015 C   0  0  0  0  0  0  0  0  0  0  0  0
   26.9372  -20.8022   -6.3009 C   0  0  0  0  0  0  0  0  0  0  0  0
   27.8184  -20.5472   -7.3466 C   0  0  0  0  0  0  0  0  0  0  0  0
   27.6704  -21.2277   -8.6336 C   0  0  0  0  0  0  0  0  0  0  0  0
   26.6545  -20.5525   -9.5401 C   0  0  2  0  0  0  0  0  0  0  0  0
   25.3297  -20.9672   -9.1239 N   0  0  0  0  0  0  0  0  0  0  0  0
   26.8466  -20.9660  -10.9554 C   0  0  0  0  0  0  0  0  0  0  0  0
   27.9223  -20.6774  -11.5759 O   0  0  0  0  0  0  0  0  0  0  0  0
   28.8399  -19.6385   -7.1519 C   0  0  0  0  0  0  0  0  0  0  0  0
   29.0340  -18.9637   -5.9630 C   0  0  0  0  0  0  0  0  0  0  0  0
   25.8620  -21.6943  -11.6897 N   0  0  0  0  0  0  0  0  0  0  0  0
   25.5974  -21.4994  -13.0967 C   0  0  0  0  0  0  0  0  0  0  0  0
   24.4212  -20.6950  -13.4083 C   0  0  0  0  0  0  0  0  0  0  0  0
   24.1450  -20.5576  -14.6477 O   0  0  0  0  0  0  0  0  0  0  0  0
   23.5695  -20.0640  -12.4694 N   0  0  0  0  0  0  0  0  0  0  0  0
   22.4249  -19.2745  -12.9127 C   0  0  0  0  0  0  0  0  0  0  0  0
   21.2467  -20.1606  -13.0926 C   0  0  0  0  0  0  0  0  0  0  0  0
   20.8001  -20.3756  -14.3912 O   0  0  0  0  0  0  0  0  0  0  0  0
   20.6951  -20.6804  -12.1100 O   0  0  0  0  0  0  0  0  0  0  0  0
  2  1  1  0
  3  2  2  0
  4  3  1  0
  5  4  2  0
  5 11  1  0
  6  5  1  0
  7  9  1  0
  7  8  1  1
  7  6  1  0
  9 13  1  0
 10  9  2  0
 11 12  2  0
 12  2  1  0
 13 14  1  0
 14 15  1  0
 15 16  2  0
 15 17  1  0
 17 18  1  0
 19 18  1  0
 19 20  1  0
 21 19  2  0
M  END
$$$$
