YGG.pdb
     RDKit          3D

 21 21  0  0  1  0  0  0  0  0999 V2000
   15.6327  -25.7188    1.7251 O   0  0  0  0  0  0  0  0  0  0  0  0
   15.9805  -24.4031    1.9979 C   0  0  0  0  0  0  0  0  0  0  0  0
   17.1294  -24.1338    2.7138 C   0  0  0  0  0  0  0  0  0  0  0  0
   17.5025  -22.8297    3.0016 C   0  0  0  0  0  0  0  0  0  0  0  0
   16.6919  -21.7923    2.5523 C   0  0  0  0  0  0  0  0  0  0  0  0
   17.0386  -20.3977    2.8280 C   0  0  0  0  0  0  0  0  0  0  0  0
   16.1349  -19.7647    3.8731 C   0  0  2  0  0  0  0  0  0  0  0  0
   14.9352  -19.2944    3.2099 N   0  0  0  0  0  0  0  0  0  0  0  0
   16.7981  -18.5983    4.5139 C   0  0  0  0  0  0  0  0  0  0  0  0
   16.4032  -17.4112    4.2684 O   0  0  0  0  0  0  0  0  0  0  0  0
   15.5499  -22.0989    1.8389 C   0  0  0  0  0  0  0  0  0  0  0  0
   15.1671  -23.3926    1.5457 C   0  0  0  0  0  0  0  0  0  0  0  0
   17.8921  -18.7321    5.4220 N   0  0  0  0  0  0  0  0  0  0  0  0
   18.4964  -17.6242    6.1255 C   0  0  0  0  0  0  0  0  0  0  0  0
   19.6175  -17.9683    6.9929 C   0  0  0  0  0  0  0  0  0  0  0  0
   19.9233  -19.2069    7.0534 O   0  0  0  0  0  0  0  0  0  0  0  0
   20.3871  -17.0611    7.7609 N   0  0  0  0  0  0  0  0  0  0  0  0
   21.5489  -17.5204    8.5152 C   0  0  0  0  0  0  0  0  0  0  0  0
   21.1001  -18.2482    9.7295 C   0  0  0  0  0  0  0  0  0  0  0  0
   22.0826  -18.7758   10.5590 O   0  0  0  0  0  0  0  0  0  0  0  0
   19.8904  -18.3708    9.9779 O   0  0  0  0  0  0  0  0  0  0  0  0
  2  1  1  0
  3  2  2  0
  4  3  1  0
  5  4  2  0
  5 11  1  0
  6  5  1  0
  7  9  1  0
  7  8  1  6
  7  6  1  0
  9 13  1  0
 10  9  2  0
 11 12  2  0
 12  2  1  0
 13 14  1  0
 14 15  1  0
 15 16  2  0
 15 17  1  0
 17 18  1  0
 19 18  1  0
 19 20  1  0
 21 19  2  0
M  END
$$$$
