YGG.pdb
     RDKit          3D

 21 21  0  0  1  0  0  0  0  0999 V2000
   23.7903  -21.0729   -7.8595 O   0  0  0  0  0  0  0  0  0  0  0  0
   24.3857  -20.8642   -9.0958 C   0  0  0  0  0  0  0  0  0  0  0  0
   23.6169  -20.4470  -10.1634 C   0  0  0  0  0  0  0  0  0  0  0  0
   24.1836  -20.2302  -11.4103 C   0  0  0  0  0  0  0  0  0  0  0  0
   25.5496  -20.4426  -11.5650 C   0  0  0  0  0  0  0  0  0  0  0  0
   26.1989  -20.2290  -12.8588 C   0  0  0  0  0  0  0  0  0  0  0  0
   25.5469  -21.0214  -13.9798 C   0  0  2  0  0  0  0  0  0  0  0  0
   25.7673  -22.4311  -13.7258 N   0  0  0  0  0  0  0  0  0  0  0  0
   26.1573  -20.6859  -15.2934 C   0  0  0  0  0  0  0  0  0  0  0  0
   27.3116  -21.1284  -15.6051 O   0  0  0  0  0  0  0  0  0  0  0  0
   26.2878  -20.8599  -10.4750 C   0  0  0  0  0  0  0  0  0  0  0  0
   25.7360  -21.0793   -9.2285 C   0  0  0  0  0  0  0  0  0  0  0  0
   25.5042  -19.8671  -16.2641 N   0  0  0  0  0  0  0  0  0  0  0  0
   24.6507  -18.7491  -15.9334 C   0  0  0  0  0  0  0  0  0  0  0  0
   23.2182  -19.0212  -15.9692 C   0  0  0  0  0  0  0  0  0  0  0  0
   22.4558  -18.0802  -15.5638 O   0  0  0  0  0  0  0  0  0  0  0  0
   22.6077  -20.2202  -16.4106 N   0  0  0  0  0  0  0  0  0  0  0  0
   21.1543  -20.3449  -16.4560 C   0  0  0  0  0  0  0  0  0  0  0  0
   20.6019  -19.3886  -17.4489 C   0  0  0  0  0  0  0  0  0  0  0  0
   20.5202  -19.8135  -18.7698 O   0  0  0  0  0  0  0  0  0  0  0  0
   20.2324  -18.2580  -17.0949 O   0  0  0  0  0  0  0  0  0  0  0  0
  2  1  1  0
  3  2  2  0
  4  3  1  0
  5  4  2  0
  5 11  1  0
  6  5  1  0
  7  9  1  0
  7  8  1  1
  7  6  1  0
  9 13  1  0
 10  9  2  0
 11 12  2  0
 12  2  1  0
 13 14  1  0
 14 15  1  0
 15 16  2  0
 15 17  1  0
 17 18  1  0
 19 18  1  0
 19 20  1  0
 21 19  2  0
M  END
$$$$
