YGG.pdb
     RDKit          3D

 21 21  0  0  1  0  0  0  0  0999 V2000
   22.6017  -20.8895   -7.9461 O   0  0  0  0  0  0  0  0  0  0  0  0
   23.5022  -20.7559   -8.9938 C   0  0  0  0  0  0  0  0  0  0  0  0
   23.0357  -20.5097  -10.2693 C   0  0  0  0  0  0  0  0  0  0  0  0
   23.9112  -20.3715  -11.3358 C   0  0  0  0  0  0  0  0  0  0  0  0
   25.2762  -20.4864  -11.0938 C   0  0  0  0  0  0  0  0  0  0  0  0
   26.2439  -20.3492  -12.1828 C   0  0  0  0  0  0  0  0  0  0  0  0
   25.9429  -21.2699  -13.3538 C   0  0  2  0  0  0  0  0  0  0  0  0
   25.9536  -22.6362  -12.8704 N   0  0  0  0  0  0  0  0  0  0  0  0
   26.9814  -21.1438  -14.4104 C   0  0  0  0  0  0  0  0  0  0  0  0
   28.2111  -21.3439  -14.1396 O   0  0  0  0  0  0  0  0  0  0  0  0
   25.7070  -20.7329   -9.8051 C   0  0  0  0  0  0  0  0  0  0  0  0
   24.8462  -20.8726   -8.7348 C   0  0  0  0  0  0  0  0  0  0  0  0
   26.6734  -20.7989  -15.7616 N   0  0  0  0  0  0  0  0  0  0  0  0
   27.5969  -20.9485  -16.8627 C   0  0  0  0  0  0  0  0  0  0  0  0
   27.7954  -22.3146  -17.3339 C   0  0  0  0  0  0  0  0  0  0  0  0
   27.5625  -22.5226  -18.5724 O   0  0  0  0  0  0  0  0  0  0  0  0
   28.2201  -23.4142  -16.5493 N   0  0  0  0  0  0  0  0  0  0  0  0
   28.4096  -24.7306  -17.1500 C   0  0  0  0  0  0  0  0  0  0  0  0
   27.1804  -25.5441  -16.9683 C   0  0  0  0  0  0  0  0  0  0  0  0
   26.0571  -24.9016  -16.4613 O   0  0  0  0  0  0  0  0  0  0  0  0
   27.1749  -26.7496  -17.2631 O   0  0  0  0  0  0  0  0  0  0  0  0
  2  1  1  0
  3  2  2  0
  4  3  1  0
  5  4  2  0
  5 11  1  0
  6  5  1  0
  7  9  1  0
  7  8  1  1
  7  6  1  0
  9 13  1  0
 10  9  2  0
 11 12  2  0
 12  2  1  0
 13 14  1  0
 14 15  1  0
 15 16  2  0
 15 17  1  0
 17 18  1  0
 19 18  1  0
 19 20  1  0
 21 19  2  0
M  END
$$$$
