YGG.pdb
     RDKit          3D

 21 21  0  0  1  0  0  0  0  0999 V2000
   29.1455  -11.2992  -16.4910 O   0  0  0  0  0  0  0  0  0  0  0  0
   27.9982  -10.5182  -16.5102 C   0  0  0  0  0  0  0  0  0  0  0  0
   27.2353  -10.3957  -15.3666 C   0  0  0  0  0  0  0  0  0  0  0  0
   26.0841   -9.6226  -15.3554 C   0  0  0  0  0  0  0  0  0  0  0  0
   25.7112   -8.9694  -16.5256 C   0  0  0  0  0  0  0  0  0  0  0  0
   24.5058   -8.1410  -16.5693 C   0  0  0  0  0  0  0  0  0  0  0  0
   23.2298   -8.9550  -16.4323 C   0  0  2  0  0  0  0  0  0  0  0  0
   23.4503  -10.2497  -17.0451 N   0  0  0  0  0  0  0  0  0  0  0  0
   22.0992   -8.2948  -17.1371 C   0  0  0  0  0  0  0  0  0  0  0  0
   21.7293   -8.6959  -18.2894 O   0  0  0  0  0  0  0  0  0  0  0  0
   26.4985   -9.1147  -17.6508 C   0  0  0  0  0  0  0  0  0  0  0  0
   27.6466   -9.8812  -17.6754 C   0  0  0  0  0  0  0  0  0  0  0  0
   21.3750   -7.1970  -16.5806 N   0  0  0  0  0  0  0  0  0  0  0  0
   20.3399   -6.4744  -17.2835 C   0  0  0  0  0  0  0  0  0  0  0  0
   19.6738   -5.4279  -16.5162 C   0  0  0  0  0  0  0  0  0  0  0  0
   19.9182   -5.4061  -15.2628 O   0  0  0  0  0  0  0  0  0  0  0  0
   18.7939   -4.4462  -17.0333 N   0  0  0  0  0  0  0  0  0  0  0  0
   18.0435   -3.5710  -16.1385 C   0  0  0  0  0  0  0  0  0  0  0  0
   18.8795   -2.4007  -15.7676 C   0  0  0  0  0  0  0  0  0  0  0  0
   18.3367   -1.4839  -14.8750 O   0  0  0  0  0  0  0  0  0  0  0  0
   20.0163   -2.2632  -16.2459 O   0  0  0  0  0  0  0  0  0  0  0  0
  2  1  1  0
  3  2  2  0
  4  3  1  0
  5  4  2  0
  5 11  1  0
  6  5  1  0
  7  9  1  0
  7  8  1  6
  7  6  1  0
  9 13  1  0
 10  9  2  0
 11 12  2  0
 12  2  1  0
 13 14  1  0
 14 15  1  0
 15 16  2  0
 15 17  1  0
 17 18  1  0
 19 18  1  0
 19 20  1  0
 21 19  2  0
M  END
$$$$
