YGG.pdb
     RDKit          3D

 21 21  0  0  1  0  0  0  0  0999 V2000
   18.7935  -28.1483  -14.9744 O   0  0  0  0  0  0  0  0  0  0  0  0
   19.9012  -27.3714  -14.6646 C   0  0  0  0  0  0  0  0  0  0  0  0
   19.7889  -26.3627  -13.7292 C   0  0  0  0  0  0  0  0  0  0  0  0
   20.8779  -25.5702  -13.3992 C   0  0  0  0  0  0  0  0  0  0  0  0
   22.0924  -25.8129  -14.0326 C   0  0  0  0  0  0  0  0  0  0  0  0
   23.2733  -25.0067  -13.7220 C   0  0  0  0  0  0  0  0  0  0  0  0
   23.8586  -24.3275  -14.9491 C   0  0  2  0  0  0  0  0  0  0  0  0
   24.8103  -25.2348  -15.5586 N   0  0  0  0  0  0  0  0  0  0  0  0
   24.5795  -23.0820  -14.5750 C   0  0  0  0  0  0  0  0  0  0  0  0
   23.9672  -22.1273  -13.9929 O   0  0  0  0  0  0  0  0  0  0  0  0
   22.1679  -26.8305  -14.9633 C   0  0  0  0  0  0  0  0  0  0  0  0
   21.0916  -27.6266  -15.3009 C   0  0  0  0  0  0  0  0  0  0  0  0
   25.9689  -22.8828  -14.8380 N   0  0  0  0  0  0  0  0  0  0  0  0
   26.6778  -21.6584  -14.5450 C   0  0  0  0  0  0  0  0  0  0  0  0
   25.9506  -20.4276  -14.8350 C   0  0  0  0  0  0  0  0  0  0  0  0
   25.3226  -19.9004  -13.8558 O   0  0  0  0  0  0  0  0  0  0  0  0
   25.8833  -19.7744  -16.0896 N   0  0  0  0  0  0  0  0  0  0  0  0
   25.0777  -18.5697  -16.2614 C   0  0  0  0  0  0  0  0  0  0  0  0
   25.2155  -18.0711  -17.6535 C   0  0  0  0  0  0  0  0  0  0  0  0
   24.5862  -16.8727  -17.9692 O   0  0  0  0  0  0  0  0  0  0  0  0
   25.8711  -18.7128  -18.4892 O   0  0  0  0  0  0  0  0  0  0  0  0
  2  1  1  0
  3  2  2  0
  4  3  1  0
  5  4  2  0
  5 11  1  0
  6  5  1  0
  7  9  1  0
  7  8  1  1
  7  6  1  0
  9 13  1  0
 10  9  2  0
 11 12  2  0
 12  2  1  0
 13 14  1  0
 14 15  1  0
 15 16  2  0
 15 17  1  0
 17 18  1  0
 19 18  1  0
 19 20  1  0
 21 19  2  0
M  END
$$$$
