YGG.pdb
     RDKit          3D

 21 21  0  0  1  0  0  0  0  0999 V2000
   19.0855  -21.6592  -11.0792 O   0  0  0  0  0  0  0  0  0  0  0  0
   20.3242  -21.5826  -11.7007 C   0  0  0  0  0  0  0  0  0  0  0  0
   20.5829  -22.3640  -12.8086 C   0  0  0  0  0  0  0  0  0  0  0  0
   21.8108  -22.3091  -13.4505 C   0  0  0  0  0  0  0  0  0  0  0  0
   22.7822  -21.4463  -12.9534 C   0  0  0  0  0  0  0  0  0  0  0  0
   24.0951  -21.3489  -13.5922 C   0  0  0  0  0  0  0  0  0  0  0  0
   24.2228  -20.1262  -14.4857 C   0  0  2  0  0  0  0  0  0  0  0  0
   23.1580  -20.1693  -15.4678 N   0  0  0  0  0  0  0  0  0  0  0  0
   25.5217  -20.1295  -15.2095 C   0  0  0  0  0  0  0  0  0  0  0  0
   25.5640  -20.3389  -16.4664 O   0  0  0  0  0  0  0  0  0  0  0  0
   22.4884  -20.6794  -11.8431 C   0  0  0  0  0  0  0  0  0  0  0  0
   21.2702  -20.7245  -11.1949 C   0  0  0  0  0  0  0  0  0  0  0  0
   26.7720  -19.9038  -14.5576 N   0  0  0  0  0  0  0  0  0  0  0  0
   28.0491  -19.9248  -15.2330 C   0  0  0  0  0  0  0  0  0  0  0  0
   28.3998  -21.1879  -15.8727 C   0  0  0  0  0  0  0  0  0  0  0  0
   29.4903  -21.1988  -16.5376 O   0  0  0  0  0  0  0  0  0  0  0  0
   27.6483  -22.3868  -15.8195 N   0  0  0  0  0  0  0  0  0  0  0  0
   28.0945  -23.5796  -16.5322 C   0  0  0  0  0  0  0  0  0  0  0  0
   27.1583  -24.7009  -16.2643 C   0  0  0  0  0  0  0  0  0  0  0  0
   26.0042  -24.4130  -15.5453 O   0  0  0  0  0  0  0  0  0  0  0  0
   27.4129  -25.8442  -16.6743 O   0  0  0  0  0  0  0  0  0  0  0  0
  2  1  1  0
  3  2  2  0
  4  3  1  0
  5  4  2  0
  5 11  1  0
  6  5  1  0
  7  9  1  0
  7  8  1  6
  7  6  1  0
  9 13  1  0
 10  9  2  0
 11 12  2  0
 12  2  1  0
 13 14  1  0
 14 15  1  0
 15 16  2  0
 15 17  1  0
 17 18  1  0
 19 18  1  0
 19 20  1  0
 21 19  2  0
M  END
$$$$
