YGG.pdb
     RDKit          3D

 21 21  0  0  1  0  0  0  0  0999 V2000
   24.0069  -21.4164   -8.4232 O   0  0  0  0  0  0  0  0  0  0  0  0
   24.5795  -21.3287   -9.6846 C   0  0  0  0  0  0  0  0  0  0  0  0
   23.7895  -21.4802  -10.8062 C   0  0  0  0  0  0  0  0  0  0  0  0
   24.3331  -21.3977  -12.0792 C   0  0  0  0  0  0  0  0  0  0  0  0
   25.6976  -21.1580  -12.2045 C   0  0  0  0  0  0  0  0  0  0  0  0
   26.3230  -21.0616  -13.5239 C   0  0  0  0  0  0  0  0  0  0  0  0
   26.1835  -19.6790  -14.1390 C   0  0  2  0  0  0  0  0  0  0  0  0
   24.7757  -19.4274  -14.3738 N   0  0  0  0  0  0  0  0  0  0  0  0
   26.8921  -19.6032  -15.4441 C   0  0  0  0  0  0  0  0  0  0  0  0
   26.4199  -20.1873  -16.4742 O   0  0  0  0  0  0  0  0  0  0  0  0
   26.4573  -21.0117  -11.0605 C   0  0  0  0  0  0  0  0  0  0  0  0
   25.9286  -21.0915   -9.7876 C   0  0  0  0  0  0  0  0  0  0  0  0
   28.1159  -18.8888  -15.6203 N   0  0  0  0  0  0  0  0  0  0  0  0
   28.8514  -18.8431  -16.8632 C   0  0  0  0  0  0  0  0  0  0  0  0
   28.3729  -17.8711  -17.8399 C   0  0  0  0  0  0  0  0  0  0  0  0
   29.2204  -17.4887  -18.7156 O   0  0  0  0  0  0  0  0  0  0  0  0
   27.0683  -17.3242  -17.9023 N   0  0  0  0  0  0  0  0  0  0  0  0
   26.6607  -16.4930  -19.0305 C   0  0  0  0  0  0  0  0  0  0  0  0
   27.0364  -15.0797  -18.7709 C   0  0  0  0  0  0  0  0  0  0  0  0
   27.7262  -14.4067  -19.7724 O   0  0  0  0  0  0  0  0  0  0  0  0
   26.7375  -14.5371  -17.6956 O   0  0  0  0  0  0  0  0  0  0  0  0
  2  1  1  0
  3  2  2  0
  4  3  1  0
  5  4  2  0
  5 11  1  0
  6  5  1  0
  7  9  1  0
  7  8  1  6
  7  6  1  0
  9 13  1  0
 10  9  2  0
 11 12  2  0
 12  2  1  0
 13 14  1  0
 14 15  1  0
 15 16  2  0
 15 17  1  0
 17 18  1  0
 19 18  1  0
 19 20  1  0
 21 19  2  0
M  END
$$$$
