YGG.pdb
     RDKit          3D

 21 21  0  0  1  0  0  0  0  0999 V2000
   20.2470  -17.9268  -16.8283 O   0  0  0  0  0  0  0  0  0  0  0  0
   20.0277  -16.5995  -16.4865 C   0  0  0  0  0  0  0  0  0  0  0  0
   20.6561  -16.0656  -15.3797 C   0  0  0  0  0  0  0  0  0  0  0  0
   20.4564  -14.7431  -15.0136 C   0  0  0  0  0  0  0  0  0  0  0  0
   19.6058  -13.9607  -15.7877 C   0  0  0  0  0  0  0  0  0  0  0  0
   19.3596  -12.5592  -15.4465 C   0  0  0  0  0  0  0  0  0  0  0  0
   19.9434  -11.5963  -16.4670 C   0  0  2  0  0  0  0  0  0  0  0  0
   21.3750  -11.5231  -16.2538 N   0  0  0  0  0  0  0  0  0  0  0  0
   19.3786  -10.2316  -16.2949 C   0  0  0  0  0  0  0  0  0  0  0  0
   18.1616   -9.9908  -16.5884 O   0  0  0  0  0  0  0  0  0  0  0  0
   18.9940  -14.5283  -16.8881 C   0  0  0  0  0  0  0  0  0  0  0  0
   19.1842  -15.8432  -17.2634 C   0  0  0  0  0  0  0  0  0  0  0  0
   20.1458   -9.1326  -15.8020 N   0  0  0  0  0  0  0  0  0  0  0  0
   20.5873   -9.0072  -14.4319 C   0  0  0  0  0  0  0  0  0  0  0  0
   21.3162   -7.7836  -14.1172 C   0  0  0  0  0  0  0  0  0  0  0  0
   21.7325   -7.6695  -12.9151 O   0  0  0  0  0  0  0  0  0  0  0  0
   21.6006   -6.7274  -15.0163 N   0  0  0  0  0  0  0  0  0  0  0  0
   22.3578   -5.5588  -14.5793 C   0  0  0  0  0  0  0  0  0  0  0  0
   21.4473   -4.5960  -13.9086 C   0  0  0  0  0  0  0  0  0  0  0  0
   21.9872   -3.3813  -13.5027 O   0  0  0  0  0  0  0  0  0  0  0  0
   20.2536   -4.8820  -13.7261 O   0  0  0  0  0  0  0  0  0  0  0  0
  2  1  1  0
  3  2  2  0
  4  3  1  0
  5  4  2  0
  5 11  1  0
  6  5  1  0
  7  9  1  0
  7  8  1  1
  7  6  1  0
  9 13  1  0
 10  9  2  0
 11 12  2  0
 12  2  1  0
 13 14  1  0
 14 15  1  0
 15 16  2  0
 15 17  1  0
 17 18  1  0
 19 18  1  0
 19 20  1  0
 21 19  2  0
M  END
$$$$
