YGG.pdb
     RDKit          3D

 21 21  0  0  1  0  0  0  0  0999 V2000
   29.5059  -20.2118   -4.1082 O   0  0  0  0  0  0  0  0  0  0  0  0
   28.7606  -20.0358   -5.2658 C   0  0  0  0  0  0  0  0  0  0  0  0
   29.0656  -20.7706   -6.3937 C   0  0  0  0  0  0  0  0  0  0  0  0
   28.3389  -20.6165   -7.5646 C   0  0  0  0  0  0  0  0  0  0  0  0
   27.2909  -19.7019   -7.5805 C   0  0  0  0  0  0  0  0  0  0  0  0
   26.4917  -19.4997   -8.7895 C   0  0  0  0  0  0  0  0  0  0  0  0
   25.6443  -20.7112   -9.1413 C   0  0  2  0  0  0  0  0  0  0  0  0
   26.2853  -21.4095  -10.2376 N   0  0  0  0  0  0  0  0  0  0  0  0
   24.2859  -20.2999   -9.5846 C   0  0  0  0  0  0  0  0  0  0  0  0
   23.4891  -19.7158   -8.7788 O   0  0  0  0  0  0  0  0  0  0  0  0
   27.0142  -18.9841   -6.4336 C   0  0  0  0  0  0  0  0  0  0  0  0
   27.7297  -19.1280   -5.2616 C   0  0  0  0  0  0  0  0  0  0  0  0
   23.8012  -20.5280  -10.9083 N   0  0  0  0  0  0  0  0  0  0  0  0
   24.6107  -20.3944  -12.0978 C   0  0  0  0  0  0  0  0  0  0  0  0
   24.3805  -21.3995  -13.1294 C   0  0  0  0  0  0  0  0  0  0  0  0
   25.1427  -22.4239  -13.0978 O   0  0  0  0  0  0  0  0  0  0  0  0
   23.3977  -21.3404  -14.1471 N   0  0  0  0  0  0  0  0  0  0  0  0
   22.9296  -22.5566  -14.8041 C   0  0  0  0  0  0  0  0  0  0  0  0
   21.7115  -23.0577  -14.1180 C   0  0  0  0  0  0  0  0  0  0  0  0
   20.4825  -22.6098  -14.5878 O   0  0  0  0  0  0  0  0  0  0  0  0
   21.8064  -23.8455  -13.1638 O   0  0  0  0  0  0  0  0  0  0  0  0
  2  1  1  0
  3  2  2  0
  4  3  1  0
  5  4  2  0
  5 11  1  0
  6  5  1  0
  7  9  1  0
  7  8  1  6
  7  6  1  0
  9 13  1  0
 10  9  2  0
 11 12  2  0
 12  2  1  0
 13 14  1  0
 14 15  1  0
 15 16  2  0
 15 17  1  0
 17 18  1  0
 19 18  1  0
 19 20  1  0
 21 19  2  0
M  END
$$$$
