YGG.pdb
     RDKit          3D

 21 21  0  0  1  0  0  0  0  0999 V2000
   17.1368  -20.7552  -16.4855 O   0  0  0  0  0  0  0  0  0  0  0  0
   18.3533  -20.2484  -16.9210 C   0  0  0  0  0  0  0  0  0  0  0  0
   18.3977  -19.0177  -17.5442 C   0  0  0  0  0  0  0  0  0  0  0  0
   19.5981  -18.4856  -17.9899 C   0  0  0  0  0  0  0  0  0  0  0  0
   20.7632  -19.2204  -17.7957 C   0  0  0  0  0  0  0  0  0  0  0  0
   22.0569  -18.7061  -18.2464 C   0  0  0  0  0  0  0  0  0  0  0  0
   22.9121  -18.1870  -17.1024 C   0  0  2  0  0  0  0  0  0  0  0  0
   22.1466  -17.1903  -16.3806 N   0  0  0  0  0  0  0  0  0  0  0  0
   24.1495  -17.5404  -17.6140 C   0  0  0  0  0  0  0  0  0  0  0  0
   24.0839  -16.4854  -18.3267 O   0  0  0  0  0  0  0  0  0  0  0  0
   20.6812  -20.4480  -17.1684 C   0  0  0  0  0  0  0  0  0  0  0  0
   19.4927  -20.9890  -16.7200 C   0  0  0  0  0  0  0  0  0  0  0  0
   25.4566  -18.0489  -17.3453 N   0  0  0  0  0  0  0  0  0  0  0  0
   26.6741  -17.4412  -17.8313 C   0  0  0  0  0  0  0  0  0  0  0  0
   27.0852  -16.2227  -17.1430 C   0  0  0  0  0  0  0  0  0  0  0  0
   28.1994  -15.7173  -17.5096 O   0  0  0  0  0  0  0  0  0  0  0  0
   26.3655  -15.5593  -16.1197 N   0  0  0  0  0  0  0  0  0  0  0  0
   26.8832  -14.3356  -15.5162 C   0  0  0  0  0  0  0  0  0  0  0  0
   26.6540  -13.1905  -16.4338 C   0  0  0  0  0  0  0  0  0  0  0  0
   27.0536  -11.9323  -15.9991 O   0  0  0  0  0  0  0  0  0  0  0  0
   26.1248  -13.3690  -17.5420 O   0  0  0  0  0  0  0  0  0  0  0  0
  2  1  1  0
  3  2  2  0
  4  3  1  0
  5  4  2  0
  5 11  1  0
  6  5  1  0
  7  9  1  0
  7  8  1  6
  7  6  1  0
  9 13  1  0
 10  9  2  0
 11 12  2  0
 12  2  1  0
 13 14  1  0
 14 15  1  0
 15 16  2  0
 15 17  1  0
 17 18  1  0
 19 18  1  0
 19 20  1  0
 21 19  2  0
M  END
$$$$
