VYS.pdb
     RDKit          3D

 26 26  0  0  1  0  0  0  0  0999 V2000
   26.8223  -12.5171  -19.7838 C   0  0  0  0  0  0  0  0  0  0  0  0
   26.4527  -13.5275  -18.7196 C   0  0  1  0  0  0  0  0  0  0  0  0
   27.5337  -14.5500  -18.5478 C   0  0  0  0  0  0  0  0  0  0  0  0
   26.1510  -12.7892  -17.4345 C   0  0  2  0  0  0  0  0  0  0  0  0
   25.9031  -13.7059  -16.3398 N   0  0  0  0  0  0  0  0  0  0  0  0
   24.9811  -11.8617  -17.6189 C   0  0  0  0  0  0  0  0  0  0  0  0
   25.0552  -10.8666  -18.3819 O   0  0  0  0  0  0  0  0  0  0  0  0
   16.1246  -10.1338  -17.4773 O   0  0  0  0  0  0  0  0  0  0  0  0
   17.4297  -10.6305  -17.4490 C   0  0  0  0  0  0  0  0  0  0  0  0
   17.8930  -11.2143  -16.2903 C   0  0  0  0  0  0  0  0  0  0  0  0
   19.1931  -11.7188  -16.2349 C   0  0  0  0  0  0  0  0  0  0  0  0
   20.0432  -11.6565  -17.3052 C   0  0  0  0  0  0  0  0  0  0  0  0
   21.3868  -12.1918  -17.2413 C   0  0  0  0  0  0  0  0  0  0  0  0
   22.5389  -11.2526  -17.2437 C   0  0  2  0  0  0  0  0  0  0  0  0
   23.7566  -12.0712  -16.9443 N   0  0  0  0  0  0  0  0  0  0  0  0
   22.4963  -10.1048  -16.3520 C   0  0  0  0  0  0  0  0  0  0  0  0
   22.8280  -10.2735  -15.1233 O   0  0  0  0  0  0  0  0  0  0  0  0
   19.5583  -11.0659  -18.4596 C   0  0  0  0  0  0  0  0  0  0  0  0
   18.2733  -10.5671  -18.5144 C   0  0  0  0  0  0  0  0  0  0  0  0
   22.2996   -6.1710  -17.5719 O   0  0  0  0  0  0  0  0  0  0  0  0
   22.9416   -6.5207  -16.3840 C   0  0  0  0  0  0  0  0  0  0  0  0
   22.1765   -7.6859  -15.7947 C   0  0  2  0  0  0  0  0  0  0  0  0
   22.1307   -8.8110  -16.7106 N   0  0  0  0  0  0  0  0  0  0  0  0
   20.8382   -7.2288  -15.4366 C   0  0  0  0  0  0  0  0  0  0  0  0
   19.8305   -7.6688  -16.0346 O   0  0  0  0  0  0  0  0  0  0  0  0
   20.6122   -6.2868  -14.4192 O   0  0  0  0  0  0  0  0  0  0  0  0
  2  1  1  6
  3  2  1  0
  4  2  1  0
  4  5  1  1
  6 15  1  0
  6  4  1  0
  7  6  2  0
  9  8  1  0
 10  9  2  0
 11 10  1  0
 12 18  1  0
 12 11  2  0
 13 12  1  0
 14 15  1  0
 14 13  1  1
 16 14  1  0
 17 16  2  0
 18 19  2  0
 19  9  1  0
 20 21  1  0
 22 21  1  6
 22 24  1  0
 22 23  1  0
 23 16  1  0
 24 26  1  0
 25 24  2  0
M  END
$$$$
