VYS.pdb
     RDKit          3D

 26 26  0  0  1  0  0  0  0  0999 V2000
   21.6803   -8.1402  -20.3783 C   0  0  0  0  0  0  0  0  0  0  0  0
   20.8474   -9.3215  -20.8268 C   0  0  1  0  0  0  0  0  0  0  0  0
   21.4110   -9.9378  -22.0702 C   0  0  0  0  0  0  0  0  0  0  0  0
   20.7557  -10.3105  -19.6863 C   0  0  2  0  0  0  0  0  0  0  0  0
   19.9638  -11.4688  -20.0488 N   0  0  0  0  0  0  0  0  0  0  0  0
   20.1912   -9.6510  -18.4577 C   0  0  0  0  0  0  0  0  0  0  0  0
   18.9884   -9.2924  -18.4076 O   0  0  0  0  0  0  0  0  0  0  0  0
   16.3257  -13.8982  -15.7203 O   0  0  0  0  0  0  0  0  0  0  0  0
   17.2959  -12.9082  -15.5491 C   0  0  0  0  0  0  0  0  0  0  0  0
   18.6038  -13.1973  -15.8719 C   0  0  0  0  0  0  0  0  0  0  0  0
   19.5931  -12.2262  -15.7104 C   0  0  0  0  0  0  0  0  0  0  0  0
   19.3121  -10.9742  -15.2357 C   0  0  0  0  0  0  0  0  0  0  0  0
   20.3438   -9.9703  -15.0813 C   0  0  0  0  0  0  0  0  0  0  0  0
   20.4095   -8.8474  -16.0530 C   0  0  2  0  0  0  0  0  0  0  0  0
   20.9876   -9.4092  -17.3150 N   0  0  0  0  0  0  0  0  0  0  0  0
   21.1431   -7.6497  -15.6761 C   0  0  0  0  0  0  0  0  0  0  0  0
   22.4261   -7.6949  -15.6739 O   0  0  0  0  0  0  0  0  0  0  0  0
   17.9922  -10.7042  -14.9172 C   0  0  0  0  0  0  0  0  0  0  0  0
   17.0142  -11.6639  -15.0766 C   0  0  0  0  0  0  0  0  0  0  0  0
   21.3474   -2.9280  -14.7123 O   0  0  0  0  0  0  0  0  0  0  0  0
   20.5107   -3.9955  -15.0377 C   0  0  0  0  0  0  0  0  0  0  0  0
   21.3600   -5.2478  -15.0072 C   0  0  2  0  0  0  0  0  0  0  0  0
   20.5772   -6.4301  -15.3175 N   0  0  0  0  0  0  0  0  0  0  0  0
   21.9906   -5.3489  -13.6956 C   0  0  0  0  0  0  0  0  0  0  0  0
   21.4510   -6.0029  -12.7749 O   0  0  0  0  0  0  0  0  0  0  0  0
   23.2160   -4.7286  -13.4002 O   0  0  0  0  0  0  0  0  0  0  0  0
  2  1  1  1
  3  2  1  0
  4  2  1  0
  4  5  1  6
  6 15  1  0
  6  4  1  0
  7  6  2  0
  9  8  1  0
 10  9  2  0
 11 10  1  0
 12 18  1  0
 12 11  2  0
 13 12  1  0
 14 15  1  0
 14 13  1  1
 16 14  1  0
 17 16  2  0
 18 19  2  0
 19  9  1  0
 20 21  1  0
 22 21  1  1
 22 24  1  0
 22 23  1  0
 23 16  1  0
 24 26  1  0
 25 24  2  0
M  END
$$$$
