VYS.pdb
     RDKit          3D

 26 26  0  0  1  0  0  0  0  0999 V2000
   34.8414  -29.2934  -20.5983 C   0  0  0  0  0  0  0  0  0  0  0  0
   33.3794  -28.9050  -20.5532 C   0  0  1  0  0  0  0  0  0  0  0  0
   32.6671  -29.3397  -21.7971 C   0  0  0  0  0  0  0  0  0  0  0  0
   32.7611  -29.4900  -19.3030 C   0  0  2  0  0  0  0  0  0  0  0  0
   32.7761  -30.9389  -19.3300 N   0  0  0  0  0  0  0  0  0  0  0  0
   31.3573  -28.9820  -19.1191 C   0  0  0  0  0  0  0  0  0  0  0  0
   30.3649  -29.7031  -19.3892 O   0  0  0  0  0  0  0  0  0  0  0  0
   24.4231  -24.8722  -15.4905 O   0  0  0  0  0  0  0  0  0  0  0  0
   25.6730  -25.3573  -15.8820 C   0  0  0  0  0  0  0  0  0  0  0  0
   25.8471  -26.7182  -16.0086 C   0  0  0  0  0  0  0  0  0  0  0  0
   27.0858  -27.2296  -16.3982 C   0  0  0  0  0  0  0  0  0  0  0  0
   28.1554  -26.4193  -16.6652 C   0  0  0  0  0  0  0  0  0  0  0  0
   29.4336  -26.9589  -17.0788 C   0  0  0  0  0  0  0  0  0  0  0  0
   29.7069  -27.1369  -18.5290 C   0  0  2  0  0  0  0  0  0  0  0  0
   31.0989  -27.6784  -18.6369 N   0  0  0  0  0  0  0  0  0  0  0  0
   29.5668  -25.9846  -19.4049 C   0  0  0  0  0  0  0  0  0  0  0  0
   30.5662  -25.1888  -19.5316 O   0  0  0  0  0  0  0  0  0  0  0  0
   27.9595  -25.0553  -16.5319 C   0  0  0  0  0  0  0  0  0  0  0  0
   26.7352  -24.5497  -16.1466 C   0  0  0  0  0  0  0  0  0  0  0  0
   26.4496  -25.3816  -21.9577 O   0  0  0  0  0  0  0  0  0  0  0  0
   26.8690  -24.2015  -21.3435 C   0  0  0  0  0  0  0  0  0  0  0  0
   28.2961  -24.4221  -20.8908 C   0  0  2  0  0  0  0  0  0  0  0  0
   28.4324  -25.6578  -20.1415 N   0  0  0  0  0  0  0  0  0  0  0  0
   28.7175  -23.2673  -20.1053 C   0  0  0  0  0  0  0  0  0  0  0  0
   28.4673  -23.2007  -18.8808 O   0  0  0  0  0  0  0  0  0  0  0  0
   29.4147  -22.1867  -20.6710 O   0  0  0  0  0  0  0  0  0  0  0  0
  2  1  1  6
  3  2  1  0
  4  2  1  0
  4  5  1  6
  6 15  1  0
  6  4  1  0
  7  6  2  0
  9  8  1  0
 10  9  2  0
 11 10  1  0
 12 18  1  0
 12 11  2  0
 13 12  1  0
 14 15  1  0
 14 13  1  1
 16 14  1  0
 17 16  2  0
 18 19  2  0
 19  9  1  0
 20 21  1  0
 22 21  1  1
 22 24  1  0
 22 23  1  0
 23 16  1  0
 24 26  1  0
 25 24  2  0
M  END
$$$$
