VYS.pdb
     RDKit          3D

 26 26  0  0  1  0  0  0  0  0999 V2000
   18.4176  -10.1696  -20.7940 C   0  0  0  0  0  0  0  0  0  0  0  0
   19.9161  -10.2370  -20.9943 C   0  0  1  0  0  0  0  0  0  0  0  0
   20.2570  -10.8779  -22.3045 C   0  0  0  0  0  0  0  0  0  0  0  0
   20.4844   -8.8406  -20.8729 C   0  0  2  0  0  0  0  0  0  0  0  0
   21.8894   -8.8054  -21.2263 N   0  0  0  0  0  0  0  0  0  0  0  0
   20.2781   -8.3040  -19.4828 C   0  0  0  0  0  0  0  0  0  0  0  0
   19.1441   -8.3184  -18.9427 O   0  0  0  0  0  0  0  0  0  0  0  0
   22.0276   -7.8885  -10.9270 O   0  0  0  0  0  0  0  0  0  0  0  0
   22.1053   -7.7954  -12.3184 C   0  0  0  0  0  0  0  0  0  0  0  0
   22.3760   -8.9337  -13.0460 C   0  0  0  0  0  0  0  0  0  0  0  0
   22.4592   -8.8686  -14.4376 C   0  0  0  0  0  0  0  0  0  0  0  0
   22.2791   -7.6981  -15.1227 C   0  0  0  0  0  0  0  0  0  0  0  0
   22.3573   -7.6428  -16.5673 C   0  0  0  0  0  0  0  0  0  0  0  0
   21.1521   -7.2441  -17.3407 C   0  0  2  0  0  0  0  0  0  0  0  0
   21.3470   -7.7643  -18.7313 N   0  0  0  0  0  0  0  0  0  0  0  0
   20.8023   -5.8337  -17.3962 C   0  0  0  0  0  0  0  0  0  0  0  0
   21.2974   -5.1186  -18.3404 O   0  0  0  0  0  0  0  0  0  0  0  0
   22.0084   -6.5662  -14.3730 C   0  0  0  0  0  0  0  0  0  0  0  0
   21.9263   -6.6303  -12.9975 C   0  0  0  0  0  0  0  0  0  0  0  0
   18.0088   -2.1013  -16.5312 O   0  0  0  0  0  0  0  0  0  0  0  0
   18.1881   -3.4784  -16.4010 C   0  0  0  0  0  0  0  0  0  0  0  0
   19.6632   -3.7526  -16.5993 C   0  0  2  0  0  0  0  0  0  0  0  0
   19.9580   -5.1711  -16.5106 N   0  0  0  0  0  0  0  0  0  0  0  0
   20.4147   -2.9842  -15.6131 C   0  0  0  0  0  0  0  0  0  0  0  0
   20.7502   -3.4978  -14.5221 O   0  0  0  0  0  0  0  0  0  0  0  0
   20.7958   -1.6496  -15.8307 O   0  0  0  0  0  0  0  0  0  0  0  0
  2  1  1  6
  3  2  1  0
  4  2  1  0
  4  5  1  1
  6 15  1  0
  6  4  1  0
  7  6  2  0
  9  8  1  0
 10  9  2  0
 11 10  1  0
 12 18  1  0
 12 11  2  0
 13 12  1  0
 14 15  1  0
 14 13  1  1
 16 14  1  0
 17 16  2  0
 18 19  2  0
 19  9  1  0
 20 21  1  0
 22 21  1  1
 22 24  1  0
 22 23  1  0
 23 16  1  0
 24 26  1  0
 25 24  2  0
M  END
$$$$
