VYS.pdb
     RDKit          3D

 26 26  0  0  1  0  0  0  0  0999 V2000
   27.5239  -15.7066  -14.8706 C   0  0  0  0  0  0  0  0  0  0  0  0
   26.5967  -16.9012  -14.8118 C   0  0  1  0  0  0  0  0  0  0  0  0
   25.4535  -16.7442  -15.7668 C   0  0  0  0  0  0  0  0  0  0  0  0
   27.4018  -18.1530  -15.0805 C   0  0  2  0  0  0  0  0  0  0  0  0
   27.9860  -18.1355  -16.4066 N   0  0  0  0  0  0  0  0  0  0  0  0
   26.5504  -19.3796  -14.8971 C   0  0  0  0  0  0  0  0  0  0  0  0
   26.1553  -20.0494  -15.8834 O   0  0  0  0  0  0  0  0  0  0  0  0
   25.9077  -19.9569   -7.0275 O   0  0  0  0  0  0  0  0  0  0  0  0
   25.8973  -20.4369   -8.3390 C   0  0  0  0  0  0  0  0  0  0  0  0
   26.9650  -20.1476   -9.1604 C   0  0  0  0  0  0  0  0  0  0  0  0
   26.9800  -20.6149  -10.4754 C   0  0  0  0  0  0  0  0  0  0  0  0
   25.9582  -21.3635  -10.9926 C   0  0  0  0  0  0  0  0  0  0  0  0
   25.9877  -21.8523  -12.3550 C   0  0  0  0  0  0  0  0  0  0  0  0
   25.3282  -21.0552  -13.4224 C   0  0  2  0  0  0  0  0  0  0  0  0
   26.1622  -19.8261  -13.6132 N   0  0  0  0  0  0  0  0  0  0  0  0
   23.9373  -20.6725  -13.2392 C   0  0  0  0  0  0  0  0  0  0  0  0
   23.6795  -19.6166  -12.5561 O   0  0  0  0  0  0  0  0  0  0  0  0
   24.8950  -21.6427  -10.1510 C   0  0  0  0  0  0  0  0  0  0  0  0
   24.8800  -21.1807   -8.8512 C   0  0  0  0  0  0  0  0  0  0  0  0
   21.0506  -21.8298  -15.6588 O   0  0  0  0  0  0  0  0  0  0  0  0
   20.7414  -20.7263  -14.8636 C   0  0  0  0  0  0  0  0  0  0  0  0
   21.4654  -20.9132  -13.5478 C   0  0  2  0  0  0  0  0  0  0  0  0
   22.8347  -21.3500  -13.7505 N   0  0  0  0  0  0  0  0  0  0  0  0
   20.7127  -21.8620  -12.7347 C   0  0  0  0  0  0  0  0  0  0  0  0
   21.2228  -22.9498  -12.3839 O   0  0  0  0  0  0  0  0  0  0  0  0
   19.3977  -21.6105  -12.3088 O   0  0  0  0  0  0  0  0  0  0  0  0
  2  1  1  6
  3  2  1  0
  4  2  1  0
  4  5  1  6
  6 15  1  0
  6  4  1  0
  7  6  2  0
  9  8  1  0
 10  9  2  0
 11 10  1  0
 12 18  1  0
 12 11  2  0
 13 12  1  0
 14 15  1  0
 14 13  1  1
 16 14  1  0
 17 16  2  0
 18 19  2  0
 19  9  1  0
 20 21  1  0
 22 21  1  6
 22 24  1  0
 22 23  1  0
 23 16  1  0
 24 26  1  0
 25 24  2  0
M  END
$$$$
