VYS.pdb
     RDKit          3D

 26 26  0  0  1  0  0  0  0  0999 V2000
   21.1227   -9.8903  -21.7300 C   0  0  0  0  0  0  0  0  0  0  0  0
   21.9081  -10.8263  -20.8371 C   0  0  1  0  0  0  0  0  0  0  0  0
   22.7108  -11.7976  -21.6470 C   0  0  0  0  0  0  0  0  0  0  0  0
   22.7714  -10.0004  -19.9097 C   0  0  2  0  0  0  0  0  0  0  0  0
   23.8033  -10.8047  -19.2863 N   0  0  0  0  0  0  0  0  0  0  0  0
   21.9282   -9.3239  -18.8637 C   0  0  0  0  0  0  0  0  0  0  0  0
   20.9257   -8.6372  -19.1819 O   0  0  0  0  0  0  0  0  0  0  0  0
   17.0480  -13.7074  -16.8893 O   0  0  0  0  0  0  0  0  0  0  0  0
   18.0507  -12.7946  -16.5543 C   0  0  0  0  0  0  0  0  0  0  0  0
   17.6877  -11.5638  -16.0527 C   0  0  0  0  0  0  0  0  0  0  0  0
   18.6696  -10.6331  -15.7100 C   0  0  0  0  0  0  0  0  0  0  0  0
   20.0041  -10.8980  -15.8541 C   0  0  0  0  0  0  0  0  0  0  0  0
   21.0155   -9.9296  -15.4861 C   0  0  0  0  0  0  0  0  0  0  0  0
   21.3456   -8.8344  -16.4353 C   0  0  2  0  0  0  0  0  0  0  0  0
   22.2282   -9.4330  -17.4865 N   0  0  0  0  0  0  0  0  0  0  0  0
   21.9674   -7.6292  -15.9103 C   0  0  0  0  0  0  0  0  0  0  0  0
   23.1550   -7.7145  -15.4301 O   0  0  0  0  0  0  0  0  0  0  0  0
   20.3475  -12.1400  -16.3598 C   0  0  0  0  0  0  0  0  0  0  0  0
   19.3771  -13.0600  -16.6987 C   0  0  0  0  0  0  0  0  0  0  0  0
   20.0984   -3.9592  -15.6316 O   0  0  0  0  0  0  0  0  0  0  0  0
   21.4610   -3.9130  -15.9257 C   0  0  0  0  0  0  0  0  0  0  0  0
   22.0739   -5.1853  -15.3816 C   0  0  2  0  0  0  0  0  0  0  0  0
   21.3908   -6.3632  -15.8845 N   0  0  0  0  0  0  0  0  0  0  0  0
   22.0453   -5.1278  -13.9242 C   0  0  0  0  0  0  0  0  0  0  0  0
   22.6286   -4.2074  -13.3086 O   0  0  0  0  0  0  0  0  0  0  0  0
   21.3732   -6.0857  -13.1467 O   0  0  0  0  0  0  0  0  0  0  0  0
  2  1  1  6
  3  2  1  0
  4  2  1  0
  4  5  1  1
  6 15  1  0
  6  4  1  0
  7  6  2  0
  9  8  1  0
 10  9  2  0
 11 10  1  0
 12 18  1  0
 12 11  2  0
 13 12  1  0
 14 15  1  0
 14 13  1  1
 16 14  1  0
 17 16  2  0
 18 19  2  0
 19  9  1  0
 20 21  1  0
 22 21  1  6
 22 24  1  0
 22 23  1  0
 23 16  1  0
 24 26  1  0
 25 24  2  0
M  END
$$$$
