VYS.pdb
     RDKit          3D

 26 26  0  0  1  0  0  0  0  0999 V2000
   37.0846   -8.0198  -12.9883 C   0  0  0  0  0  0  0  0  0  0  0  0
   36.1324   -7.6331  -14.0992 C   0  0  1  0  0  0  0  0  0  0  0  0
   36.6402   -6.4439  -14.8552 C   0  0  0  0  0  0  0  0  0  0  0  0
   35.9184   -8.8338  -14.9936 C   0  0  2  0  0  0  0  0  0  0  0  0
   37.1726   -9.3391  -15.5150 N   0  0  0  0  0  0  0  0  0  0  0  0
   34.9794   -8.4950  -16.1190 C   0  0  0  0  0  0  0  0  0  0  0  0
   35.4135   -8.1214  -17.2369 O   0  0  0  0  0  0  0  0  0  0  0  0
   27.8065   -8.9776  -21.3386 O   0  0  0  0  0  0  0  0  0  0  0  0
   28.7674   -9.0769  -20.3297 C   0  0  0  0  0  0  0  0  0  0  0  0
   30.0957   -9.1665  -20.6844 C   0  0  0  0  0  0  0  0  0  0  0  0
   31.0762   -9.2667  -19.6963 C   0  0  0  0  0  0  0  0  0  0  0  0
   30.7666   -9.2795  -18.3636 C   0  0  0  0  0  0  0  0  0  0  0  0
   31.7918   -9.3735  -17.3457 C   0  0  0  0  0  0  0  0  0  0  0  0
   32.6349   -8.1835  -17.0583 C   0  0  2  0  0  0  0  0  0  0  0  0
   33.5769   -8.5828  -15.9648 N   0  0  0  0  0  0  0  0  0  0  0  0
   31.9740   -6.9395  -16.6973 C   0  0  0  0  0  0  0  0  0  0  0  0
   31.5464   -6.8020  -15.4946 O   0  0  0  0  0  0  0  0  0  0  0  0
   29.4264   -9.1886  -18.0287 C   0  0  0  0  0  0  0  0  0  0  0  0
   28.4571   -9.0898  -19.0052 C   0  0  0  0  0  0  0  0  0  0  0  0
   31.4285   -2.7228  -15.7309 O   0  0  0  0  0  0  0  0  0  0  0  0
   32.0798   -3.8981  -16.1052 C   0  0  0  0  0  0  0  0  0  0  0  0
   31.1860   -4.5993  -17.1051 C   0  0  2  0  0  0  0  0  0  0  0  0
   31.7625   -5.8567  -17.5451 N   0  0  0  0  0  0  0  0  0  0  0  0
   30.9452   -3.6965  -18.2254 C   0  0  0  0  0  0  0  0  0  0  0  0
   31.5529   -3.8457  -19.3094 O   0  0  0  0  0  0  0  0  0  0  0  0
   30.0343   -2.6297  -18.1494 O   0  0  0  0  0  0  0  0  0  0  0  0
  2  1  1  1
  3  2  1  0
  4  2  1  0
  4  5  1  6
  6 15  1  0
  6  4  1  0
  7  6  2  0
  9  8  1  0
 10  9  2  0
 11 10  1  0
 12 18  1  0
 12 11  2  0
 13 12  1  0
 14 15  1  0
 14 13  1  1
 16 14  1  0
 17 16  2  0
 18 19  2  0
 19  9  1  0
 20 21  1  0
 22 21  1  1
 22 24  1  0
 22 23  1  0
 23 16  1  0
 24 26  1  0
 25 24  2  0
M  END
$$$$
