VYS.pdb
     RDKit          3D

 26 26  0  0  1  0  0  0  0  0999 V2000
   30.2890   -9.3304  -18.4190 C   0  0  0  0  0  0  0  0  0  0  0  0
   30.3178  -10.7655  -18.8982 C   0  0  1  0  0  0  0  0  0  0  0  0
   31.7183  -11.2957  -18.9299 C   0  0  0  0  0  0  0  0  0  0  0  0
   29.4113  -11.5905  -18.0121 C   0  0  2  0  0  0  0  0  0  0  0  0
   29.4071  -12.9850  -18.4064 N   0  0  0  0  0  0  0  0  0  0  0  0
   28.0128  -11.0365  -18.0234 C   0  0  0  0  0  0  0  0  0  0  0  0
   27.1682  -11.4224  -18.8692 O   0  0  0  0  0  0  0  0  0  0  0  0
   20.3323   -8.5864  -14.3613 O   0  0  0  0  0  0  0  0  0  0  0  0
   21.6627   -8.8695  -14.6781 C   0  0  0  0  0  0  0  0  0  0  0  0
   22.0359  -10.1825  -14.8652 C   0  0  0  0  0  0  0  0  0  0  0  0
   23.3590  -10.4933  -15.1825 C   0  0  0  0  0  0  0  0  0  0  0  0
   24.3196   -9.5286  -15.3186 C   0  0  0  0  0  0  0  0  0  0  0  0
   25.6874   -9.8602  -15.6581 C   0  0  0  0  0  0  0  0  0  0  0  0
   26.1791   -9.5767  -17.0319 C   0  0  2  0  0  0  0  0  0  0  0  0
   27.5942  -10.0637  -17.0869 N   0  0  0  0  0  0  0  0  0  0  0  0
   26.1194   -8.2076  -17.5182 C   0  0  0  0  0  0  0  0  0  0  0  0
   27.0355   -7.3878  -17.1483 O   0  0  0  0  0  0  0  0  0  0  0  0
   23.9240   -8.2160  -15.1263 C   0  0  0  0  0  0  0  0  0  0  0  0
   22.6164   -7.9087  -14.8125 C   0  0  0  0  0  0  0  0  0  0  0  0
   23.1816   -6.8420  -19.9896 O   0  0  0  0  0  0  0  0  0  0  0  0
   24.3968   -6.1751  -20.1451 C   0  0  0  0  0  0  0  0  0  0  0  0
   25.1486   -6.3165  -18.8393 C   0  0  2  0  0  0  0  0  0  0  0  0
   25.1489   -7.6904  -18.3707 N   0  0  0  0  0  0  0  0  0  0  0  0
   24.5520   -5.4143  -17.8603 C   0  0  0  0  0  0  0  0  0  0  0  0
   23.9372   -5.8639  -16.8672 O   0  0  0  0  0  0  0  0  0  0  0  0
   24.6340   -4.0167  -17.9774 O   0  0  0  0  0  0  0  0  0  0  0  0
  2  1  1  1
  3  2  1  0
  4  2  1  0
  4  5  1  6
  6 15  1  0
  6  4  1  0
  7  6  2  0
  9  8  1  0
 10  9  2  0
 11 10  1  0
 12 18  1  0
 12 11  2  0
 13 12  1  0
 14 15  1  0
 14 13  1  1
 16 14  1  0
 17 16  2  0
 18 19  2  0
 19  9  1  0
 20 21  1  0
 22 21  1  6
 22 24  1  0
 22 23  1  0
 23 16  1  0
 24 26  1  0
 25 24  2  0
M  END
$$$$
