VYS.pdb
     RDKit          3D

 26 26  0  0  1  0  0  0  0  0999 V2000
   26.2777  -19.8830  -20.7695 C   0  0  0  0  0  0  0  0  0  0  0  0
   26.1113  -20.5889  -19.4412 C   0  0  1  0  0  0  0  0  0  0  0  0
   27.3754  -20.5346  -18.6395 C   0  0  0  0  0  0  0  0  0  0  0  0
   24.9399  -19.9734  -18.7089 C   0  0  2  0  0  0  0  0  0  0  0  0
   25.1247  -18.5498  -18.5108 N   0  0  0  0  0  0  0  0  0  0  0  0
   24.7178  -20.6634  -17.3907 C   0  0  0  0  0  0  0  0  0  0  0  0
   24.5209  -21.9025  -17.3313 O   0  0  0  0  0  0  0  0  0  0  0  0
   24.3678  -21.3596   -8.4133 O   0  0  0  0  0  0  0  0  0  0  0  0
   24.5481  -20.9820   -9.7458 C   0  0  0  0  0  0  0  0  0  0  0  0
   25.4720  -21.6614  -10.5093 C   0  0  0  0  0  0  0  0  0  0  0  0
   25.6719  -21.3044  -11.8437 C   0  0  0  0  0  0  0  0  0  0  0  0
   24.9743  -20.2877  -12.4365 C   0  0  0  0  0  0  0  0  0  0  0  0
   25.1816  -19.9315  -13.8243 C   0  0  0  0  0  0  0  0  0  0  0  0
   24.3662  -20.6015  -14.8711 C   0  0  2  0  0  0  0  0  0  0  0  0
   24.7218  -19.9487  -16.1710 N   0  0  0  0  0  0  0  0  0  0  0  0
   22.9203  -20.6161  -14.7165 C   0  0  0  0  0  0  0  0  0  0  0  0
   22.2588  -19.5718  -15.0630 O   0  0  0  0  0  0  0  0  0  0  0  0
   24.0512  -19.6177  -11.6519 C   0  0  0  0  0  0  0  0  0  0  0  0
   23.8535  -19.9703  -10.3331 C   0  0  0  0  0  0  0  0  0  0  0  0
   18.6856  -22.7237  -14.2881 O   0  0  0  0  0  0  0  0  0  0  0  0
   20.0606  -22.9177  -14.4194 C   0  0  0  0  0  0  0  0  0  0  0  0
   20.7293  -21.6155  -14.0353 C   0  0  2  0  0  0  0  0  0  0  0  0
   22.1668  -21.6781  -14.2263 N   0  0  0  0  0  0  0  0  0  0  0  0
   20.3831  -21.3063  -12.6523 C   0  0  0  0  0  0  0  0  0  0  0  0
   21.0203  -21.8171  -11.7038 O   0  0  0  0  0  0  0  0  0  0  0  0
   19.3344  -20.4340  -12.3163 O   0  0  0  0  0  0  0  0  0  0  0  0
  2  1  1  6
  3  2  1  0
  4  2  1  0
  4  5  1  1
  6 15  1  0
  6  4  1  0
  7  6  2  0
  9  8  1  0
 10  9  2  0
 11 10  1  0
 12 18  1  0
 12 11  2  0
 13 12  1  0
 14 15  1  0
 14 13  1  1
 16 14  1  0
 17 16  2  0
 18 19  2  0
 19  9  1  0
 20 21  1  0
 22 21  1  1
 22 24  1  0
 22 23  1  0
 23 16  1  0
 24 26  1  0
 25 24  2  0
M  END
$$$$
