VYS.pdb
     RDKit          3D

 26 26  0  0  1  0  0  0  0  0999 V2000
   23.6395  -19.1233  -19.1242 C   0  0  0  0  0  0  0  0  0  0  0  0
   24.8673  -19.7920  -19.7032 C   0  0  1  0  0  0  0  0  0  0  0  0
   25.2890  -19.1328  -20.9804 C   0  0  0  0  0  0  0  0  0  0  0  0
   25.9632  -19.7786  -18.6609 C   0  0  2  0  0  0  0  0  0  0  0  0
   27.1747  -20.4022  -19.1545 N   0  0  0  0  0  0  0  0  0  0  0  0
   25.5013  -20.4533  -17.3983 C   0  0  0  0  0  0  0  0  0  0  0  0
   25.4054  -21.7037  -17.3277 O   0  0  0  0  0  0  0  0  0  0  0  0
   24.4446  -21.5045   -8.5889 O   0  0  0  0  0  0  0  0  0  0  0  0
   24.6495  -21.0379   -9.8894 C   0  0  0  0  0  0  0  0  0  0  0  0
   25.7709  -21.4519  -10.5744 C   0  0  0  0  0  0  0  0  0  0  0  0
   25.9997  -21.0009  -11.8752 C   0  0  0  0  0  0  0  0  0  0  0  0
   25.1392  -20.1479  -12.5107 C   0  0  0  0  0  0  0  0  0  0  0  0
   25.3801  -19.6937  -13.8641 C   0  0  0  0  0  0  0  0  0  0  0  0
   24.6869  -20.3753  -14.9885 C   0  0  2  0  0  0  0  0  0  0  0  0
   25.1581  -19.7110  -16.2451 N   0  0  0  0  0  0  0  0  0  0  0  0
   23.2333  -20.4182  -14.9797 C   0  0  0  0  0  0  0  0  0  0  0  0
   22.5891  -19.3392  -15.2421 O   0  0  0  0  0  0  0  0  0  0  0  0
   24.0189  -19.7440  -11.8050 C   0  0  0  0  0  0  0  0  0  0  0  0
   23.7926  -20.1896  -10.5192 C   0  0  0  0  0  0  0  0  0  0  0  0
   21.0534  -23.6006  -13.6667 O   0  0  0  0  0  0  0  0  0  0  0  0
   20.4444  -22.9432  -14.7355 C   0  0  0  0  0  0  0  0  0  0  0  0
   21.0051  -21.5378  -14.7672 C   0  0  2  0  0  0  0  0  0  0  0  0
   22.4558  -21.5417  -14.7164 N   0  0  0  0  0  0  0  0  0  0  0  0
   20.4299  -20.7836  -13.6588 C   0  0  0  0  0  0  0  0  0  0  0  0
   21.1511  -20.3728  -12.7220 O   0  0  0  0  0  0  0  0  0  0  0  0
   19.0596  -20.4831  -13.5844 O   0  0  0  0  0  0  0  0  0  0  0  0
  2  1  1  1
  3  2  1  0
  4  2  1  0
  4  5  1  6
  6 15  1  0
  6  4  1  0
  7  6  2  0
  9  8  1  0
 10  9  2  0
 11 10  1  0
 12 18  1  0
 12 11  2  0
 13 12  1  0
 14 15  1  0
 14 13  1  1
 16 14  1  0
 17 16  2  0
 18 19  2  0
 19  9  1  0
 20 21  1  0
 22 21  1  1
 22 24  1  0
 22 23  1  0
 23 16  1  0
 24 26  1  0
 25 24  2  0
M  END
$$$$
