VYS.pdb
     RDKit          3D

 26 26  0  0  1  0  0  0  0  0999 V2000
   24.3491  -35.4522  -16.0436 C   0  0  0  0  0  0  0  0  0  0  0  0
   24.1145  -34.0967  -16.6743 C   0  0  1  0  0  0  0  0  0  0  0  0
   23.2117  -34.2047  -17.8647 C   0  0  0  0  0  0  0  0  0  0  0  0
   23.5661  -33.1604  -15.6207 C   0  0  2  0  0  0  0  0  0  0  0  0
   23.4013  -31.8164  -16.1370 N   0  0  0  0  0  0  0  0  0  0  0  0
   24.4537  -33.1521  -14.4062 C   0  0  0  0  0  0  0  0  0  0  0  0
   25.2222  -32.1870  -14.1700 O   0  0  0  0  0  0  0  0  0  0  0  0
   26.4121  -32.9188   -5.9531 O   0  0  0  0  0  0  0  0  0  0  0  0
   25.9994  -32.9828   -7.2859 C   0  0  0  0  0  0  0  0  0  0  0  0
   24.8674  -33.7040   -7.5966 C   0  0  0  0  0  0  0  0  0  0  0  0
   24.4329  -33.7843   -8.9205 C   0  0  0  0  0  0  0  0  0  0  0  0
   25.0978  -33.1638   -9.9426 C   0  0  0  0  0  0  0  0  0  0  0  0
   24.6334  -33.2445  -11.3115 C   0  0  0  0  0  0  0  0  0  0  0  0
   25.2940  -34.1962  -12.2429 C   0  0  2  0  0  0  0  0  0  0  0  0
   24.4590  -34.2250  -13.4856 N   0  0  0  0  0  0  0  0  0  0  0  0
   25.5306  -35.5568  -11.7873 C   0  0  0  0  0  0  0  0  0  0  0  0
   24.5969  -36.4239  -11.9434 O   0  0  0  0  0  0  0  0  0  0  0  0
   26.2327  -32.4445   -9.6091 C   0  0  0  0  0  0  0  0  0  0  0  0
   26.6623  -32.3652   -8.3007 C   0  0  0  0  0  0  0  0  0  0  0  0
   28.3919  -38.9768   -9.9595 O   0  0  0  0  0  0  0  0  0  0  0  0
   28.2375  -37.5996  -10.1175 C   0  0  0  0  0  0  0  0  0  0  0  0
   26.8517  -37.3723  -10.6817 C   0  0  2  0  0  0  0  0  0  0  0  0
   26.6994  -36.0223  -11.1929 N   0  0  0  0  0  0  0  0  0  0  0  0
   25.8728  -37.6672   -9.6411 C   0  0  0  0  0  0  0  0  0  0  0  0
   25.3010  -38.7797   -9.5973 O   0  0  0  0  0  0  0  0  0  0  0  0
   25.5252  -36.7348   -8.6493 O   0  0  0  0  0  0  0  0  0  0  0  0
  2  1  1  1
  3  2  1  0
  4  2  1  0
  4  5  1  6
  6 15  1  0
  6  4  1  0
  7  6  2  0
  9  8  1  0
 10  9  2  0
 11 10  1  0
 12 18  1  0
 12 11  2  0
 13 12  1  0
 14 15  1  0
 14 13  1  1
 16 14  1  0
 17 16  2  0
 18 19  2  0
 19  9  1  0
 20 21  1  0
 22 21  1  1
 22 24  1  0
 22 23  1  0
 23 16  1  0
 24 26  1  0
 25 24  2  0
M  END
$$$$
