VYS.pdb
     RDKit          3D

 26 26  0  0  1  0  0  0  0  0999 V2000
   22.1283   -7.0809  -20.8381 C   0  0  0  0  0  0  0  0  0  0  0  0
   22.1072   -8.5405  -21.2371 C   0  0  1  0  0  0  0  0  0  0  0  0
   22.7015   -8.7365  -22.5979 C   0  0  0  0  0  0  0  0  0  0  0  0
   22.8257   -9.3433  -20.1756 C   0  0  2  0  0  0  0  0  0  0  0  0
   22.8493  -10.7552  -20.5012 N   0  0  0  0  0  0  0  0  0  0  0  0
   22.1936   -9.1248  -18.8281 C   0  0  0  0  0  0  0  0  0  0  0  0
   21.0536   -9.5812  -18.5638 O   0  0  0  0  0  0  0  0  0  0  0  0
   22.2226  -14.7303  -16.1096 O   0  0  0  0  0  0  0  0  0  0  0  0
   22.4418  -13.3570  -15.9804 C   0  0  0  0  0  0  0  0  0  0  0  0
   21.3860  -12.5467  -15.6240 C   0  0  0  0  0  0  0  0  0  0  0  0
   21.5776  -11.1709  -15.4880 C   0  0  0  0  0  0  0  0  0  0  0  0
   22.7948  -10.5823  -15.6977 C   0  0  0  0  0  0  0  0  0  0  0  0
   22.9859   -9.1554  -15.5441 C   0  0  0  0  0  0  0  0  0  0  0  0
   22.2556   -8.2279  -16.4474 C   0  0  2  0  0  0  0  0  0  0  0  0
   22.8537   -8.4004  -17.8093 N   0  0  0  0  0  0  0  0  0  0  0  0
   22.2249   -6.8143  -16.1079 C   0  0  0  0  0  0  0  0  0  0  0  0
   23.2700   -6.1069  -16.3438 O   0  0  0  0  0  0  0  0  0  0  0  0
   23.8421  -11.4141  -16.0551 C   0  0  0  0  0  0  0  0  0  0  0  0
   23.6529  -12.7738  -16.1898 C   0  0  0  0  0  0  0  0  0  0  0  0
   19.8696   -2.8021  -14.8612 O   0  0  0  0  0  0  0  0  0  0  0  0
   19.7536   -4.1754  -15.0763 C   0  0  0  0  0  0  0  0  0  0  0  0
   21.1551   -4.7120  -15.2714 C   0  0  2  0  0  0  0  0  0  0  0  0
   21.1464   -6.1371  -15.5473 N   0  0  0  0  0  0  0  0  0  0  0  0
   21.9415   -4.3987  -14.0833 C   0  0  0  0  0  0  0  0  0  0  0  0
   21.9616   -5.1794  -13.1052 O   0  0  0  0  0  0  0  0  0  0  0  0
   22.7053   -3.2246  -13.9748 O   0  0  0  0  0  0  0  0  0  0  0  0
  2  1  1  1
  3  2  1  0
  4  2  1  0
  4  5  1  6
  6 15  1  0
  6  4  1  0
  7  6  2  0
  9  8  1  0
 10  9  2  0
 11 10  1  0
 12 18  1  0
 12 11  2  0
 13 12  1  0
 14 15  1  0
 14 13  1  1
 16 14  1  0
 17 16  2  0
 18 19  2  0
 19  9  1  0
 20 21  1  0
 22 21  1  1
 22 24  1  0
 22 23  1  0
 23 16  1  0
 24 26  1  0
 25 24  2  0
M  END
$$$$
