VYS.pdb
     RDKit          3D

 26 26  0  0  1  0  0  0  0  0999 V2000
   24.2763  -19.5203  -21.0804 C   0  0  0  0  0  0  0  0  0  0  0  0
   24.3281  -20.2891  -19.7779 C   0  0  1  0  0  0  0  0  0  0  0  0
   24.5308  -21.7528  -20.0232 C   0  0  0  0  0  0  0  0  0  0  0  0
   25.4146  -19.6966  -18.9084 C   0  0  2  0  0  0  0  0  0  0  0  0
   26.7125  -19.7806  -19.5475 N   0  0  0  0  0  0  0  0  0  0  0  0
   25.4451  -20.3725  -17.5649 C   0  0  0  0  0  0  0  0  0  0  0  0
   26.3144  -21.2373  -17.2926 O   0  0  0  0  0  0  0  0  0  0  0  0
   24.1666  -21.2591   -8.7548 O   0  0  0  0  0  0  0  0  0  0  0  0
   24.2739  -20.8899  -10.0976 C   0  0  0  0  0  0  0  0  0  0  0  0
   23.1381  -20.4960  -10.7707 C   0  0  0  0  0  0  0  0  0  0  0  0
   23.2172  -20.1220  -12.1130 C   0  0  0  0  0  0  0  0  0  0  0  0
   24.3996  -20.1303  -12.8014 C   0  0  0  0  0  0  0  0  0  0  0  0
   24.4731  -19.7308  -14.1910 C   0  0  0  0  0  0  0  0  0  0  0  0
   24.4838  -20.7798  -15.2441 C   0  0  2  0  0  0  0  0  0  0  0  0
   24.5011  -20.0634  -16.5590 N   0  0  0  0  0  0  0  0  0  0  0  0
   23.4170  -21.7681  -15.2456 C   0  0  0  0  0  0  0  0  0  0  0  0
   22.2831  -21.4418  -15.7515 O   0  0  0  0  0  0  0  0  0  0  0  0
   25.5286  -20.5295  -12.1069 C   0  0  0  0  0  0  0  0  0  0  0  0
   25.4506  -20.8993  -10.7802 C   0  0  0  0  0  0  0  0  0  0  0  0
   23.7501  -25.8279  -15.3148 O   0  0  0  0  0  0  0  0  0  0  0  0
   22.8479  -25.3900  -14.3454 C   0  0  0  0  0  0  0  0  0  0  0  0
   22.4023  -24.0019  -14.7515 C   0  0  2  0  0  0  0  0  0  0  0  0
   23.5103  -23.0643  -14.7483 N   0  0  0  0  0  0  0  0  0  0  0  0
   21.3344  -23.5760  -13.8535 C   0  0  0  0  0  0  0  0  0  0  0  0
   21.5097  -22.6280  -13.0553 O   0  0  0  0  0  0  0  0  0  0  0  0
   20.0739  -24.1960  -13.8364 O   0  0  0  0  0  0  0  0  0  0  0  0
  2  1  1  6
  3  2  1  0
  4  2  1  0
  4  5  1  6
  6 15  1  0
  6  4  1  0
  7  6  2  0
  9  8  1  0
 10  9  2  0
 11 10  1  0
 12 18  1  0
 12 11  2  0
 13 12  1  0
 14 15  1  0
 14 13  1  1
 16 14  1  0
 17 16  2  0
 18 19  2  0
 19  9  1  0
 20 21  1  0
 22 21  1  1
 22 24  1  0
 22 23  1  0
 23 16  1  0
 24 26  1  0
 25 24  2  0
M  END
$$$$
