VYS.pdb
     RDKit          3D

 26 26  0  0  1  0  0  0  0  0999 V2000
   32.5244    4.3667   -7.1122 C   0  0  0  0  0  0  0  0  0  0  0  0
   32.9051    4.1854   -8.5656 C   0  0  1  0  0  0  0  0  0  0  0  0
   34.3804    3.9732   -8.7143 C   0  0  0  0  0  0  0  0  0  0  0  0
   32.0996    3.0405   -9.1382 C   0  0  2  0  0  0  0  0  0  0  0  0
   32.3837    2.8415  -10.5453 N   0  0  0  0  0  0  0  0  0  0  0  0
   30.6282    3.2702   -8.9260 C   0  0  0  0  0  0  0  0  0  0  0  0
   29.9973    4.1138   -9.6101 O   0  0  0  0  0  0  0  0  0  0  0  0
   22.0939    1.4426   -7.9461 O   0  0  0  0  0  0  0  0  0  0  0  0
   23.4897    1.4457   -7.8987 C   0  0  0  0  0  0  0  0  0  0  0  0
   24.1914    1.8260   -9.0218 C   0  0  0  0  0  0  0  0  0  0  0  0
   25.5869    1.8381   -9.0016 C   0  0  0  0  0  0  0  0  0  0  0  0
   26.3008    1.4811   -7.8904 C   0  0  0  0  0  0  0  0  0  0  0  0
   27.7483    1.5067   -7.8760 C   0  0  0  0  0  0  0  0  0  0  0  0
   28.4456    2.8078   -7.7019 C   0  0  2  0  0  0  0  0  0  0  0  0
   29.8991    2.5492   -7.9528 N   0  0  0  0  0  0  0  0  0  0  0  0
   28.2903    3.5112   -6.4386 C   0  0  0  0  0  0  0  0  0  0  0  0
   29.0581    3.1884   -5.4617 O   0  0  0  0  0  0  0  0  0  0  0  0
   25.5769    1.1021   -6.7729 C   0  0  0  0  0  0  0  0  0  0  0  0
   24.1976    1.0900   -6.7928 C   0  0  0  0  0  0  0  0  0  0  0  0
   28.0813    6.8367   -3.4629 O   0  0  0  0  0  0  0  0  0  0  0  0
   28.2889    6.2716   -4.7211 C   0  0  0  0  0  0  0  0  0  0  0  0
   27.2513    5.1834   -4.8934 C   0  0  2  0  0  0  0  0  0  0  0  0
   27.3756    4.5280   -6.1826 N   0  0  0  0  0  0  0  0  0  0  0  0
   25.9283    5.7712   -4.7140 C   0  0  0  0  0  0  0  0  0  0  0  0
   25.0915    5.7597   -5.6447 O   0  0  0  0  0  0  0  0  0  0  0  0
   25.5289    6.3712   -3.5081 O   0  0  0  0  0  0  0  0  0  0  0  0
  2  1  1  1
  3  2  1  0
  4  2  1  0
  4  5  1  6
  6 15  1  0
  6  4  1  0
  7  6  2  0
  9  8  1  0
 10  9  2  0
 11 10  1  0
 12 18  1  0
 12 11  2  0
 13 12  1  0
 14 15  1  0
 14 13  1  1
 16 14  1  0
 17 16  2  0
 18 19  2  0
 19  9  1  0
 20 21  1  0
 22 21  1  6
 22 24  1  0
 22 23  1  0
 23 16  1  0
 24 26  1  0
 25 24  2  0
M  END
$$$$
