SPL.pdb
     RDKit          3D

 22 22  0  0  1  0  0  0  0  0999 V2000
   10.3746  -12.5364   18.2431 O   0  0  0  0  0  0  0  0  0  0  0  0
    9.9224  -12.9494   19.4972 C   0  0  0  0  0  0  0  0  0  0  0  0
    8.6861  -13.8447   19.3298 C   0  0  2  0  0  0  0  0  0  0  0  0
    7.6318  -12.9383   18.8975 N   0  0  0  0  0  0  0  0  0  0  0  0
    8.3393  -14.4895   20.6018 C   0  0  0  0  0  0  0  0  0  0  0  0
    7.4754  -13.9227   21.3334 O   0  0  0  0  0  0  0  0  0  0  0  0
    8.8948  -15.6940   21.0727 N   0  0  0  0  0  0  0  0  0  0  0  0
    9.8454  -16.4990   20.2903 C   0  0  0  0  0  0  0  0  0  0  0  0
    9.5563  -17.9359   20.7250 C   0  0  0  0  0  0  0  0  0  0  0  0
    9.2586  -17.7340   22.1952 C   0  0  0  0  0  0  0  0  0  0  0  0
    8.6744  -16.3620   22.3295 C   0  0  1  0  0  0  0  0  0  0  0  0
    9.2954  -15.6436   23.4731 C   0  0  0  0  0  0  0  0  0  0  0  0
   10.4227  -15.0914   23.3910 O   0  0  0  0  0  0  0  0  0  0  0  0
    6.4623  -12.1900   25.4093 C   0  0  0  0  0  0  0  0  0  0  0  0
    7.0225  -13.5099   25.8164 C   0  0  2  0  0  0  0  0  0  0  0  0
    6.3966  -13.9413   27.1095 C   0  0  0  0  0  0  0  0  0  0  0  0
    8.5265  -13.5166   25.9195 C   0  0  0  0  0  0  0  0  0  0  0  0
    9.1145  -14.8870   25.8709 C   0  0  2  0  0  0  0  0  0  0  0  0
    8.6087  -15.5722   24.6937 N   0  0  0  0  0  0  0  0  0  0  0  0
    8.6842  -15.6123   27.0980 C   0  0  0  0  0  0  0  0  0  0  0  0
    7.8241  -16.5305   27.0925 O   0  0  0  0  0  0  0  0  0  0  0  0
    9.2470  -15.2754   28.3214 O   0  0  0  0  0  0  0  0  0  0  0  0
  2  1  1  0
  3  5  1  0
  3  2  1  0
  3  4  1  1
  5  6  2  0
  5  7  1  0
  7 11  1  0
  8  7  1  0
  9  8  1  0
  9 10  1  0
 10 11  1  0
 11 12  1  1
 12 13  2  0
 12 19  1  0
 15 16  1  1
 15 14  1  0
 17 15  1  0
 18 20  1  0
 18 17  1  1
 19 18  1  0
 20 22  1  0
 21 20  2  0
M  END
$$$$
