SPL.pdb
     RDKit          3D

 22 22  0  0  1  0  0  0  0  0999 V2000
    6.6820  -18.2082   24.1261 O   0  0  0  0  0  0  0  0  0  0  0  0
    5.8276  -18.4692   23.0539 C   0  0  0  0  0  0  0  0  0  0  0  0
    6.5707  -18.2263   21.7323 C   0  0  2  0  0  0  0  0  0  0  0  0
    7.0132  -19.5480   21.3112 N   0  0  0  0  0  0  0  0  0  0  0  0
    7.7130  -17.3283   21.9395 C   0  0  0  0  0  0  0  0  0  0  0  0
    8.8114  -17.8454   22.2990 O   0  0  0  0  0  0  0  0  0  0  0  0
    7.6817  -15.9315   21.7685 N   0  0  0  0  0  0  0  0  0  0  0  0
    6.4532  -15.1904   21.4440 C   0  0  0  0  0  0  0  0  0  0  0  0
    6.9453  -14.0114   20.6043 C   0  0  0  0  0  0  0  0  0  0  0  0
    8.2526  -13.6940   21.2979 C   0  0  0  0  0  0  0  0  0  0  0  0
    8.7620  -14.9837   21.8629 C   0  0  1  0  0  0  0  0  0  0  0  0
    9.2286  -14.7890   23.2606 C   0  0  0  0  0  0  0  0  0  0  0  0
   10.3542  -14.2982   23.5340 O   0  0  0  0  0  0  0  0  0  0  0  0
    8.2406  -11.9534   26.2291 C   0  0  0  0  0  0  0  0  0  0  0  0
    7.2185  -12.9866   25.8983 C   0  0  2  0  0  0  0  0  0  0  0  0
    5.8778  -12.5434   26.4043 C   0  0  0  0  0  0  0  0  0  0  0  0
    7.5625  -14.3585   26.4199 C   0  0  0  0  0  0  0  0  0  0  0  0
    8.7274  -14.9786   25.7239 C   0  0  2  0  0  0  0  0  0  0  0  0
    8.3919  -15.1626   24.3222 N   0  0  0  0  0  0  0  0  0  0  0  0
    8.9860  -16.3015   26.3564 C   0  0  0  0  0  0  0  0  0  0  0  0
    8.7229  -17.3979   25.7981 O   0  0  0  0  0  0  0  0  0  0  0  0
    9.5452  -16.3524   27.6259 O   0  0  0  0  0  0  0  0  0  0  0  0
  2  1  1  0
  3  5  1  0
  3  2  1  0
  3  4  1  1
  5  6  2  0
  5  7  1  0
  7 11  1  0
  8  7  1  0
  9  8  1  0
  9 10  1  0
 10 11  1  0
 11 12  1  1
 12 13  2  0
 12 19  1  0
 15 16  1  1
 15 14  1  0
 17 15  1  0
 18 20  1  0
 18 17  1  1
 19 18  1  0
 20 22  1  0
 21 20  2  0
M  END
$$$$
