SPL.pdb
     RDKit          3D

 22 22  0  0  1  0  0  0  0  0999 V2000
    8.7759  -18.8514   22.2151 O   0  0  0  0  0  0  0  0  0  0  0  0
    8.6615  -18.3892   20.9032 C   0  0  0  0  0  0  0  0  0  0  0  0
    9.6927  -17.2784   20.6567 C   0  0  2  0  0  0  0  0  0  0  0  0
   10.9827  -17.9467   20.7527 N   0  0  0  0  0  0  0  0  0  0  0  0
    9.5678  -16.2237   21.6698 C   0  0  0  0  0  0  0  0  0  0  0  0
   10.3887  -16.2325   22.6337 O   0  0  0  0  0  0  0  0  0  0  0  0
    8.6028  -15.1993   21.6522 N   0  0  0  0  0  0  0  0  0  0  0  0
    7.6091  -15.0516   20.5776 C   0  0  0  0  0  0  0  0  0  0  0  0
    7.3724  -13.5432   20.4996 C   0  0  0  0  0  0  0  0  0  0  0  0
    7.4515  -13.1667   21.9635 C   0  0  0  0  0  0  0  0  0  0  0  0
    8.3865  -14.1431   22.6072 C   0  0  1  0  0  0  0  0  0  0  0  0
    7.8168  -14.6400   23.8870 C   0  0  0  0  0  0  0  0  0  0  0  0
    7.0278  -15.6184   23.9396 O   0  0  0  0  0  0  0  0  0  0  0  0
   10.0486  -15.6299   27.6394 C   0  0  0  0  0  0  0  0  0  0  0  0
    9.8595  -14.1752   27.3754 C   0  0  2  0  0  0  0  0  0  0  0  0
   10.7129  -13.3807   28.3190 C   0  0  0  0  0  0  0  0  0  0  0  0
    8.4200  -13.7342   27.4527 C   0  0  0  0  0  0  0  0  0  0  0  0
    7.5673  -14.3138   26.3742 C   0  0  2  0  0  0  0  0  0  0  0  0
    8.1646  -14.0025   25.0868 N   0  0  0  0  0  0  0  0  0  0  0  0
    6.2211  -13.6847   26.4687 C   0  0  0  0  0  0  0  0  0  0  0  0
    5.8458  -12.7403   25.7270 O   0  0  0  0  0  0  0  0  0  0  0  0
    5.3176  -14.1474   27.4156 O   0  0  0  0  0  0  0  0  0  0  0  0
  2  1  1  0
  3  5  1  0
  3  2  1  0
  3  4  1  1
  5  6  2  0
  5  7  1  0
  7 11  1  0
  8  7  1  0
  9  8  1  0
  9 10  1  0
 10 11  1  0
 11 12  1  1
 12 13  2  0
 12 19  1  0
 15 16  1  1
 15 14  1  0
 17 15  1  0
 18 20  1  0
 18 17  1  1
 19 18  1  0
 20 22  1  0
 21 20  2  0
M  END
$$$$
