SPL.pdb
     RDKit          3D

 22 22  0  0  1  0  0  0  0  0999 V2000
   10.1878  -14.2621   17.2338 O   0  0  0  0  0  0  0  0  0  0  0  0
    9.8609  -14.1699   18.5874 C   0  0  0  0  0  0  0  0  0  0  0  0
    8.3492  -13.9464   18.7382 C   0  0  2  0  0  0  0  0  0  0  0  0
    8.1376  -12.5687   18.3171 N   0  0  0  0  0  0  0  0  0  0  0  0
    7.9347  -14.1419   20.1325 C   0  0  0  0  0  0  0  0  0  0  0  0
    7.9318  -13.1301   20.8937 O   0  0  0  0  0  0  0  0  0  0  0  0
    7.5383  -15.3717   20.6907 N   0  0  0  0  0  0  0  0  0  0  0  0
    7.5774  -16.6401   19.9468 C   0  0  0  0  0  0  0  0  0  0  0  0
    6.4149  -17.4445   20.5290 C   0  0  0  0  0  0  0  0  0  0  0  0
    6.4887  -17.0380   21.9851 C   0  0  0  0  0  0  0  0  0  0  0  0
    7.0409  -15.6465   22.0141 C   0  0  1  0  0  0  0  0  0  0  0  0
    8.0954  -15.5287   23.0550 C   0  0  0  0  0  0  0  0  0  0  0  0
    9.2749  -15.9244   22.8684 O   0  0  0  0  0  0  0  0  0  0  0  0
    6.9354  -11.5638   26.3350 C   0  0  0  0  0  0  0  0  0  0  0  0
    7.0959  -13.0134   26.0275 C   0  0  2  0  0  0  0  0  0  0  0  0
    6.2930  -13.8231   27.0021 C   0  0  0  0  0  0  0  0  0  0  0  0
    8.5336  -13.4667   26.0093 C   0  0  0  0  0  0  0  0  0  0  0  0
    8.7199  -14.8110   25.3895 C   0  0  2  0  0  0  0  0  0  0  0  0
    7.7755  -14.9570   24.2949 N   0  0  0  0  0  0  0  0  0  0  0  0
    8.4429  -15.8371   26.4322 C   0  0  0  0  0  0  0  0  0  0  0  0
    9.1333  -15.9657   27.4761 O   0  0  0  0  0  0  0  0  0  0  0  0
    7.3740  -16.7068   26.2655 O   0  0  0  0  0  0  0  0  0  0  0  0
  2  1  1  0
  3  5  1  0
  3  2  1  0
  3  4  1  1
  5  6  2  0
  5  7  1  0
  7 11  1  0
  8  7  1  0
  9  8  1  0
  9 10  1  0
 10 11  1  0
 11 12  1  1
 12 13  2  0
 12 19  1  0
 15 16  1  1
 15 14  1  0
 17 15  1  0
 18 20  1  0
 18 17  1  1
 19 18  1  0
 20 22  1  0
 21 20  2  0
M  END
$$$$
