SPL.pdb
     RDKit          3D

 22 22  0  0  1  0  0  0  0  0999 V2000
    6.7838  -19.0441   24.4115 O   0  0  0  0  0  0  0  0  0  0  0  0
    5.9597  -18.6856   23.3437 C   0  0  0  0  0  0  0  0  0  0  0  0
    6.8101  -18.4882   22.0805 C   0  0  2  0  0  0  0  0  0  0  0  0
    7.3990  -19.7953   21.8259 N   0  0  0  0  0  0  0  0  0  0  0  0
    7.8487  -17.4768   22.3099 C   0  0  0  0  0  0  0  0  0  0  0  0
    8.9957  -17.8799   22.6634 O   0  0  0  0  0  0  0  0  0  0  0  0
    7.6674  -16.0885   22.1663 N   0  0  0  0  0  0  0  0  0  0  0  0
    6.3543  -15.4717   21.9228 C   0  0  0  0  0  0  0  0  0  0  0  0
    6.6776  -14.2383   21.0792 C   0  0  0  0  0  0  0  0  0  0  0  0
    7.9831  -13.7988   21.7063 C   0  0  0  0  0  0  0  0  0  0  0  0
    8.6505  -15.0371   22.2191 C   0  0  1  0  0  0  0  0  0  0  0  0
    9.1727  -14.8138   23.5927 C   0  0  0  0  0  0  0  0  0  0  0  0
   10.1319  -14.0358   23.8316 O   0  0  0  0  0  0  0  0  0  0  0  0
    8.4666  -12.1218   26.2894 C   0  0  0  0  0  0  0  0  0  0  0  0
    7.4477  -13.1719   26.0052 C   0  0  2  0  0  0  0  0  0  0  0  0
    6.0887  -12.6672   26.3906 C   0  0  0  0  0  0  0  0  0  0  0  0
    7.7413  -14.4893   26.6766 C   0  0  0  0  0  0  0  0  0  0  0  0
    8.8891  -15.2199   26.0644 C   0  0  2  0  0  0  0  0  0  0  0  0
    8.5823  -15.4900   24.6701 N   0  0  0  0  0  0  0  0  0  0  0  0
    9.0577  -16.5037   26.7995 C   0  0  0  0  0  0  0  0  0  0  0  0
    8.7402  -17.6223   26.3190 O   0  0  0  0  0  0  0  0  0  0  0  0
    9.5901  -16.4902   28.0814 O   0  0  0  0  0  0  0  0  0  0  0  0
  2  1  1  0
  3  5  1  0
  3  2  1  0
  3  4  1  1
  5  6  2  0
  5  7  1  0
  7 11  1  0
  8  7  1  0
  9  8  1  0
  9 10  1  0
 10 11  1  0
 11 12  1  1
 12 13  2  0
 12 19  1  0
 15 16  1  1
 15 14  1  0
 17 15  1  0
 18 20  1  0
 18 17  1  1
 19 18  1  0
 20 22  1  0
 21 20  2  0
M  END
$$$$
