SPL.pdb
     RDKit          3D

 22 22  0  0  1  0  0  0  0  0999 V2000
    6.6688  -18.9098   24.2472 O   0  0  0  0  0  0  0  0  0  0  0  0
    5.7337  -18.2008   23.4918 C   0  0  0  0  0  0  0  0  0  0  0  0
    6.2412  -18.0535   22.0501 C   0  0  2  0  0  0  0  0  0  0  0  0
    6.4205  -19.4207   21.5822 N   0  0  0  0  0  0  0  0  0  0  0  0
    7.5093  -17.3153   22.0218 C   0  0  0  0  0  0  0  0  0  0  0  0
    8.5781  -17.9735   22.1877 O   0  0  0  0  0  0  0  0  0  0  0  0
    7.6296  -15.9270   21.8234 N   0  0  0  0  0  0  0  0  0  0  0  0
    6.4727  -15.0439   21.6099 C   0  0  0  0  0  0  0  0  0  0  0  0
    7.0134  -13.9425   20.6978 C   0  0  0  0  0  0  0  0  0  0  0  0
    8.4148  -13.7811   21.2465 C   0  0  0  0  0  0  0  0  0  0  0  0
    8.8205  -15.1179   21.7852 C   0  0  1  0  0  0  0  0  0  0  0  0
    9.4507  -14.9682   23.1231 C   0  0  0  0  0  0  0  0  0  0  0  0
   10.6599  -14.6527   23.2678 O   0  0  0  0  0  0  0  0  0  0  0  0
    6.9375  -12.0407   25.7375 C   0  0  0  0  0  0  0  0  0  0  0  0
    7.2310  -13.5012   25.6902 C   0  0  2  0  0  0  0  0  0  0  0  0
    6.1341  -14.2543   26.3827 C   0  0  0  0  0  0  0  0  0  0  0  0
    8.5764  -13.8612   26.2673 C   0  0  0  0  0  0  0  0  0  0  0  0
    9.1894  -15.0621   25.6286 C   0  0  2  0  0  0  0  0  0  0  0  0
    8.6788  -15.1841   24.2738 N   0  0  0  0  0  0  0  0  0  0  0  0
    8.7917  -16.2559   26.4247 C   0  0  0  0  0  0  0  0  0  0  0  0
    9.1407  -16.4375   27.6198 O   0  0  0  0  0  0  0  0  0  0  0  0
    7.9956  -17.2309   25.8395 O   0  0  0  0  0  0  0  0  0  0  0  0
  2  1  1  0
  3  5  1  0
  3  2  1  0
  3  4  1  1
  5  6  2  0
  5  7  1  0
  7 11  1  0
  8  7  1  0
  9  8  1  0
  9 10  1  0
 10 11  1  0
 11 12  1  1
 12 13  2  0
 12 19  1  0
 15 16  1  1
 15 14  1  0
 17 15  1  0
 18 20  1  0
 18 17  1  1
 19 18  1  0
 20 22  1  0
 21 20  2  0
M  END
$$$$
