SPL.pdb
     RDKit          3D

 22 22  0  0  1  0  0  0  0  0999 V2000
    6.1568  -18.1843   16.6757 O   0  0  0  0  0  0  0  0  0  0  0  0
    7.1148  -17.8071   17.6178 C   0  0  0  0  0  0  0  0  0  0  0  0
    7.9094  -16.6035   17.0909 C   0  0  2  0  0  0  0  0  0  0  0  0
    8.7431  -17.1497   16.0294 N   0  0  0  0  0  0  0  0  0  0  0  0
    8.7296  -16.0187   18.1584 C   0  0  0  0  0  0  0  0  0  0  0  0
    9.8989  -16.4763   18.3207 O   0  0  0  0  0  0  0  0  0  0  0  0
    8.3153  -14.9844   19.0184 N   0  0  0  0  0  0  0  0  0  0  0  0
    7.0360  -14.2752   18.8622 C   0  0  0  0  0  0  0  0  0  0  0  0
    7.3321  -12.8648   19.3725 C   0  0  0  0  0  0  0  0  0  0  0  0
    8.2711  -13.1686   20.5201 C   0  0  0  0  0  0  0  0  0  0  0  0
    8.9975  -14.4268   20.1577 C   0  0  1  0  0  0  0  0  0  0  0  0
    9.0294  -15.3588   21.3151 C   0  0  0  0  0  0  0  0  0  0  0  0
    8.0442  -16.0734   21.6333 O   0  0  0  0  0  0  0  0  0  0  0  0
   13.5948  -18.0778   24.4312 C   0  0  0  0  0  0  0  0  0  0  0  0
   12.1374  -17.9189   24.1621 C   0  0  2  0  0  0  0  0  0  0  0  0
   11.5593  -19.2386   23.7447 C   0  0  0  0  0  0  0  0  0  0  0  0
   11.8290  -16.8515   23.1432 C   0  0  0  0  0  0  0  0  0  0  0  0
   10.3954  -16.4380   23.1383 C   0  0  2  0  0  0  0  0  0  0  0  0
   10.1954  -15.4537   22.0884 N   0  0  0  0  0  0  0  0  0  0  0  0
   10.0913  -15.8289   24.4625 C   0  0  0  0  0  0  0  0  0  0  0  0
   10.2488  -14.6062   24.7136 O   0  0  0  0  0  0  0  0  0  0  0  0
    9.6083  -16.6315   25.4870 O   0  0  0  0  0  0  0  0  0  0  0  0
  2  1  1  0
  3  5  1  0
  3  2  1  0
  3  4  1  6
  5  6  2  0
  5  7  1  0
  7 11  1  0
  8  7  1  0
  9  8  1  0
  9 10  1  0
 10 11  1  0
 11 12  1  1
 12 13  2  0
 12 19  1  0
 15 16  1  6
 15 14  1  0
 17 15  1  0
 18 20  1  0
 18 17  1  1
 19 18  1  0
 20 22  1  0
 21 20  2  0
M  END
$$$$
