SPL.pdb
     RDKit          3D

 22 22  0  0  1  0  0  0  0  0999 V2000
   10.1640  -18.8752   21.1852 O   0  0  0  0  0  0  0  0  0  0  0  0
   11.0242  -18.3107   20.2423 C   0  0  0  0  0  0  0  0  0  0  0  0
   10.3774  -17.0540   19.6422 C   0  0  2  0  0  0  0  0  0  0  0  0
   11.3475  -16.5698   18.6703 N   0  0  0  0  0  0  0  0  0  0  0  0
   10.1301  -16.0519   20.6856 C   0  0  0  0  0  0  0  0  0  0  0  0
   11.1157  -15.3688   21.0919 O   0  0  0  0  0  0  0  0  0  0  0  0
    8.8773  -15.7904   21.2713 N   0  0  0  0  0  0  0  0  0  0  0  0
    7.6162  -16.3352   20.7451 C   0  0  0  0  0  0  0  0  0  0  0  0
    6.5817  -15.2615   21.0833 C   0  0  0  0  0  0  0  0  0  0  0  0
    7.0835  -14.7982   22.4340 C   0  0  0  0  0  0  0  0  0  0  0  0
    8.5684  -14.9902   22.4284 C   0  0  1  0  0  0  0  0  0  0  0  0
    9.0139  -15.6258   23.6960 C   0  0  0  0  0  0  0  0  0  0  0  0
    9.2551  -16.8572   23.7850 O   0  0  0  0  0  0  0  0  0  0  0  0
    9.8804  -13.6348   29.5318 C   0  0  0  0  0  0  0  0  0  0  0  0
   10.1439  -14.6483   28.4712 C   0  0  2  0  0  0  0  0  0  0  0  0
   11.6074  -14.9761   28.4454 C   0  0  0  0  0  0  0  0  0  0  0  0
    9.6643  -14.2256   27.1059 C   0  0  0  0  0  0  0  0  0  0  0  0
    9.7324  -15.3188   26.0928 C   0  0  2  0  0  0  0  0  0  0  0  0
    9.1748  -14.8335   24.8419 N   0  0  0  0  0  0  0  0  0  0  0  0
    8.9188  -16.4595   26.5964 C   0  0  0  0  0  0  0  0  0  0  0  0
    9.4055  -17.4248   27.2401 O   0  0  0  0  0  0  0  0  0  0  0  0
    7.5519  -16.4805   26.3554 O   0  0  0  0  0  0  0  0  0  0  0  0
  2  1  1  0
  3  5  1  0
  3  2  1  0
  3  4  1  6
  5  6  2  0
  5  7  1  0
  7 11  1  0
  8  7  1  0
  9  8  1  0
  9 10  1  0
 10 11  1  0
 11 12  1  1
 12 13  2  0
 12 19  1  0
 15 16  1  6
 15 14  1  0
 17 15  1  0
 18 20  1  0
 18 17  1  1
 19 18  1  0
 20 22  1  0
 21 20  2  0
M  END
$$$$
