SPL.pdb
     RDKit          3D

 22 22  0  0  1  0  0  0  0  0999 V2000
   13.5486  -16.5097   19.9799 O   0  0  0  0  0  0  0  0  0  0  0  0
   12.1757  -16.3536   20.1759 C   0  0  0  0  0  0  0  0  0  0  0  0
   11.7566  -14.9317   19.7755 C   0  0  2  0  0  0  0  0  0  0  0  0
   13.0003  -14.1748   19.7524 N   0  0  0  0  0  0  0  0  0  0  0  0
   10.8176  -14.3745   20.7563 C   0  0  0  0  0  0  0  0  0  0  0  0
   11.3016  -13.8243   21.7888 O   0  0  0  0  0  0  0  0  0  0  0  0
    9.4155  -14.4043   20.6370 N   0  0  0  0  0  0  0  0  0  0  0  0
    8.7212  -14.9813   19.4756 C   0  0  0  0  0  0  0  0  0  0  0  0
    7.4479  -14.1439   19.3543 C   0  0  0  0  0  0  0  0  0  0  0  0
    7.1166  -13.9167   20.8136 C   0  0  0  0  0  0  0  0  0  0  0  0
    8.4186  -13.9128   21.5530 C   0  0  1  0  0  0  0  0  0  0  0  0
    8.3184  -14.7401   22.7837 C   0  0  0  0  0  0  0  0  0  0  0  0
    8.8639  -15.8692   22.8840 O   0  0  0  0  0  0  0  0  0  0  0  0
    8.1280  -12.3394   26.8846 C   0  0  0  0  0  0  0  0  0  0  0  0
    6.9083  -12.6767   26.0970 C   0  0  2  0  0  0  0  0  0  0  0  0
    5.7383  -11.9061   26.6328 C   0  0  0  0  0  0  0  0  0  0  0  0
    6.6075  -14.1535   26.0612 C   0  0  0  0  0  0  0  0  0  0  0  0
    7.5258  -14.9206   25.1700 C   0  0  2  0  0  0  0  0  0  0  0  0
    7.5916  -14.2544   23.8804 N   0  0  0  0  0  0  0  0  0  0  0  0
    6.9615  -16.2880   25.0008 C   0  0  0  0  0  0  0  0  0  0  0  0
    6.2995  -16.6427   23.9914 O   0  0  0  0  0  0  0  0  0  0  0  0
    7.1632  -17.2362   25.9944 O   0  0  0  0  0  0  0  0  0  0  0  0
  2  1  1  0
  3  5  1  0
  3  2  1  0
  3  4  1  1
  5  6  2  0
  5  7  1  0
  7 11  1  0
  8  7  1  0
  9  8  1  0
  9 10  1  0
 10 11  1  0
 11 12  1  1
 12 13  2  0
 12 19  1  0
 15 16  1  1
 15 14  1  0
 17 15  1  0
 18 20  1  0
 18 17  1  1
 19 18  1  0
 20 22  1  0
 21 20  2  0
M  END
$$$$
