SPL.pdb
     RDKit          3D

 22 22  0  0  1  0  0  0  0  0999 V2000
    6.4980  -18.5912   23.1859 O   0  0  0  0  0  0  0  0  0  0  0  0
    5.6255  -17.7564   22.4862 C   0  0  0  0  0  0  0  0  0  0  0  0
    6.1978  -17.4663   21.0912 C   0  0  2  0  0  0  0  0  0  0  0  0
    6.4101  -18.7801   20.5006 N   0  0  0  0  0  0  0  0  0  0  0  0
    7.4596  -16.7239   21.1947 C   0  0  0  0  0  0  0  0  0  0  0  0
    8.5318  -17.3925   21.2747 O   0  0  0  0  0  0  0  0  0  0  0  0
    7.5702  -15.3208   21.2117 N   0  0  0  0  0  0  0  0  0  0  0  0
    6.4061  -14.4235   21.1528 C   0  0  0  0  0  0  0  0  0  0  0  0
    6.9283  -13.1907   20.4146 C   0  0  0  0  0  0  0  0  0  0  0  0
    8.3366  -13.1062   20.9626 C   0  0  0  0  0  0  0  0  0  0  0  0
    8.7566  -14.5072   21.2828 C   0  0  1  0  0  0  0  0  0  0  0  0
    9.4054  -14.5615   22.6190 C   0  0  0  0  0  0  0  0  0  0  0  0
   10.6242  -14.2999   22.7885 O   0  0  0  0  0  0  0  0  0  0  0  0
    7.0345  -12.1813   24.7541 C   0  0  0  0  0  0  0  0  0  0  0  0
    7.2468  -13.4024   25.5820 C   0  0  2  0  0  0  0  0  0  0  0  0
    6.5167  -13.2567   26.8841 C   0  0  0  0  0  0  0  0  0  0  0  0
    8.7013  -13.7230   25.8151 C   0  0  0  0  0  0  0  0  0  0  0  0
    9.1569  -14.9491   25.0975 C   0  0  2  0  0  0  0  0  0  0  0  0
    8.6406  -14.9162   23.7398 N   0  0  0  0  0  0  0  0  0  0  0  0
    8.6051  -16.1306   25.8163 C   0  0  0  0  0  0  0  0  0  0  0  0
    8.8986  -16.4149   27.0062 O   0  0  0  0  0  0  0  0  0  0  0  0
    7.7201  -16.9752   25.1603 O   0  0  0  0  0  0  0  0  0  0  0  0
  2  1  1  0
  3  5  1  0
  3  2  1  0
  3  4  1  1
  5  6  2  0
  5  7  1  0
  7 11  1  0
  8  7  1  0
  9  8  1  0
  9 10  1  0
 10 11  1  0
 11 12  1  1
 12 13  2  0
 12 19  1  0
 15 16  1  1
 15 14  1  0
 17 15  1  0
 18 20  1  0
 18 17  1  1
 19 18  1  0
 20 22  1  0
 21 20  2  0
M  END
$$$$
