ASY.pdb
     RDKit          3D

 24 24  0  0  1  0  0  0  0  0999 V2000
   33.5341  -27.9558  -18.0833 C   0  0  0  0  0  0  0  0  0  0  0  0
   34.3216  -29.2524  -18.2844 C   0  0  2  0  0  0  0  0  0  0  0  0
   34.1429  -29.6600  -19.6409 N   0  0  0  0  0  0  0  0  0  0  0  0
   33.7389  -30.3064  -17.3694 C   0  0  0  0  0  0  0  0  0  0  0  0
   33.7099  -30.1436  -16.1327 O   0  0  0  0  0  0  0  0  0  0  0  0
   32.3997  -34.1826  -18.9422 O   0  0  0  0  0  0  0  0  0  0  0  0
   31.8243  -33.4991  -17.8759 C   0  0  0  0  0  0  0  0  0  0  0  0
   32.7687  -32.5935  -17.1746 C   0  0  2  0  0  0  0  0  0  0  0  0
   33.2232  -31.4901  -17.9475 N   0  0  0  0  0  0  0  0  0  0  0  0
   33.8353  -33.3735  -16.4948 C   0  0  0  0  0  0  0  0  0  0  0  0
   34.9731  -33.6081  -16.9515 O   0  0  0  0  0  0  0  0  0  0  0  0
   39.4760  -36.4166  -10.8492 O   0  0  0  0  0  0  0  0  0  0  0  0
   38.4146  -35.7953  -11.5023 C   0  0  0  0  0  0  0  0  0  0  0  0
   37.3031  -35.4512  -10.7751 C   0  0  0  0  0  0  0  0  0  0  0  0
   36.2232  -34.8319  -11.3803 C   0  0  0  0  0  0  0  0  0  0  0  0
   36.2602  -34.5544  -12.7352 C   0  0  0  0  0  0  0  0  0  0  0  0
   35.0963  -33.8923  -13.3628 C   0  0  0  0  0  0  0  0  0  0  0  0
   34.5300  -34.7435  -14.5010 C   0  0  2  0  0  0  0  0  0  0  0  0
   33.5602  -33.9075  -15.2133 N   0  0  0  0  0  0  0  0  0  0  0  0
   33.9326  -35.9838  -14.0114 C   0  0  0  0  0  0  0  0  0  0  0  0
   34.7226  -37.0042  -13.5237 O   0  0  0  0  0  0  0  0  0  0  0  0
   37.3847  -34.9074  -13.4487 C   0  0  0  0  0  0  0  0  0  0  0  0
   38.4431  -35.5177  -12.8402 C   0  0  0  0  0  0  0  0  0  0  0  0
   32.6939  -36.1389  -14.0272 O   0  0  0  0  0  0  0  0  0  0  0  0
  2  1  1  6
  2  3  1  0
  4  2  1  0
  4  9  1  0
  5  4  2  0
  6  7  1  0
  8 10  1  0
  8  7  1  6
  8  9  1  0
 10 19  1  0
 11 10  2  0
 13 12  1  0
 14 13  2  0
 15 14  1  0
 16 22  1  0
 16 15  2  0
 17 16  1  0
 18 17  1  1
 19 18  1  0
 20 18  1  0
 21 20  1  0
 22 23  2  0
 23 13  1  0
 24 20  2  0
M  END
$$$$
