ASY.pdb
     RDKit          3D

 24 24  0  0  1  0  0  0  0  0999 V2000
   27.7406  -11.5002  -15.1287 C   0  0  0  0  0  0  0  0  0  0  0  0
   26.7236  -12.3322  -15.9133 C   0  0  2  0  0  0  0  0  0  0  0  0
   27.4118  -12.9319  -17.0110 N   0  0  0  0  0  0  0  0  0  0  0  0
   25.6593  -11.3989  -16.4459 C   0  0  0  0  0  0  0  0  0  0  0  0
   25.9132  -10.5800  -17.3524 O   0  0  0  0  0  0  0  0  0  0  0  0
   21.7547  -11.1984  -14.5210 O   0  0  0  0  0  0  0  0  0  0  0  0
   21.9525  -11.0216  -15.8866 C   0  0  0  0  0  0  0  0  0  0  0  0
   23.3215  -10.5629  -16.2319 C   0  0  2  0  0  0  0  0  0  0  0  0
   24.3597  -11.4730  -15.8921 N   0  0  0  0  0  0  0  0  0  0  0  0
   23.5338   -9.1625  -15.7821 C   0  0  0  0  0  0  0  0  0  0  0  0
   24.1820   -8.8083  -14.7758 O   0  0  0  0  0  0  0  0  0  0  0  0
   23.5094   -0.3729  -16.5250 O   0  0  0  0  0  0  0  0  0  0  0  0
   23.3892   -1.7394  -16.7651 C   0  0  0  0  0  0  0  0  0  0  0  0
   24.5306   -2.4846  -16.9211 C   0  0  0  0  0  0  0  0  0  0  0  0
   24.4616   -3.8461  -17.1613 C   0  0  0  0  0  0  0  0  0  0  0  0
   23.2285   -4.4678  -17.2459 C   0  0  0  0  0  0  0  0  0  0  0  0
   23.1763   -5.9231  -17.5032 C   0  0  0  0  0  0  0  0  0  0  0  0
   23.1429   -6.7102  -16.1917 C   0  0  2  0  0  0  0  0  0  0  0  0
   22.9601   -8.1197  -16.5479 N   0  0  0  0  0  0  0  0  0  0  0  0
   22.0963   -6.2299  -15.2921 C   0  0  0  0  0  0  0  0  0  0  0  0
   22.3733   -5.2832  -14.3276 O   0  0  0  0  0  0  0  0  0  0  0  0
   22.0937   -3.7030  -17.0865 C   0  0  0  0  0  0  0  0  0  0  0  0
   22.1752   -2.3612  -16.8501 C   0  0  0  0  0  0  0  0  0  0  0  0
   20.9319   -6.6708  -15.3834 O   0  0  0  0  0  0  0  0  0  0  0  0
  2  1  1  1
  2  3  1  0
  4  2  1  0
  4  9  1  0
  5  4  2  0
  6  7  1  0
  8 10  1  0
  8  7  1  1
  8  9  1  0
 10 19  1  0
 11 10  2  0
 13 12  1  0
 14 13  2  0
 15 14  1  0
 16 22  1  0
 16 15  2  0
 17 16  1  0
 18 17  1  6
 19 18  1  0
 20 18  1  0
 21 20  1  0
 22 23  2  0
 23 13  1  0
 24 20  2  0
M  END
$$$$
