ASY.pdb
     RDKit          3D

 24 24  0  0  1  0  0  0  0  0999 V2000
   19.1751  -12.6372    4.6480 C   0  0  0  0  0  0  0  0  0  0  0  0
   17.7507  -13.1916    4.5715 C   0  0  2  0  0  0  0  0  0  0  0  0
   16.8786  -12.2226    5.1534 N   0  0  0  0  0  0  0  0  0  0  0  0
   17.6938  -14.4633    5.3883 C   0  0  0  0  0  0  0  0  0  0  0  0
   17.2891  -14.4554    6.5685 O   0  0  0  0  0  0  0  0  0  0  0  0
   17.5906  -19.2490    5.4509 O   0  0  0  0  0  0  0  0  0  0  0  0
   17.6784  -18.0810    4.7003 C   0  0  0  0  0  0  0  0  0  0  0  0
   18.1542  -16.9107    5.4799 C   0  0  2  0  0  0  0  0  0  0  0  0
   18.1116  -15.6719    4.7833 N   0  0  0  0  0  0  0  0  0  0  0  0
   19.4447  -17.2172    6.1498 C   0  0  0  0  0  0  0  0  0  0  0  0
   20.5799  -17.0710    5.6515 O   0  0  0  0  0  0  0  0  0  0  0  0
   22.3954  -11.9788    8.5932 O   0  0  0  0  0  0  0  0  0  0  0  0
   21.9218  -13.2696    8.8139 C   0  0  0  0  0  0  0  0  0  0  0  0
   22.8288  -14.2820    9.0010 C   0  0  0  0  0  0  0  0  0  0  0  0
   22.4059  -15.5811    9.2237 C   0  0  0  0  0  0  0  0  0  0  0  0
   21.0527  -15.8673    9.2589 C   0  0  0  0  0  0  0  0  0  0  0  0
   20.6215  -17.2615    9.4980 C   0  0  0  0  0  0  0  0  0  0  0  0
   20.6330  -18.0688    8.1986 C   0  0  2  0  0  0  0  0  0  0  0  0
   19.4092  -17.7202    7.4723 N   0  0  0  0  0  0  0  0  0  0  0  0
   20.7347  -19.5050    8.4479 C   0  0  0  0  0  0  0  0  0  0  0  0
   21.9474  -20.0839    8.7597 O   0  0  0  0  0  0  0  0  0  0  0  0
   20.1572  -14.8377    9.0689 C   0  0  0  0  0  0  0  0  0  0  0  0
   20.5870  -13.5608    8.8502 C   0  0  0  0  0  0  0  0  0  0  0  0
   19.7219  -20.2320    8.3822 O   0  0  0  0  0  0  0  0  0  0  0  0
  2  1  1  1
  2  3  1  0
  4  2  1  0
  4  9  1  0
  5  4  2  0
  6  7  1  0
  8 10  1  0
  8  7  1  6
  8  9  1  0
 10 19  1  0
 11 10  2  0
 13 12  1  0
 14 13  2  0
 15 14  1  0
 16 22  1  0
 16 15  2  0
 17 16  1  0
 18 17  1  1
 19 18  1  0
 20 18  1  0
 21 20  1  0
 22 23  2  0
 23 13  1  0
 24 20  2  0
M  END
$$$$
