ASY.pdb
     RDKit          3D

 24 24  0  0  1  0  0  0  0  0999 V2000
   21.2889  -10.9275  -20.6651 C   0  0  0  0  0  0  0  0  0  0  0  0
   22.1295  -10.5171  -19.4540 C   0  0  2  0  0  0  0  0  0  0  0  0
   21.3178  -10.6782  -18.2906 N   0  0  0  0  0  0  0  0  0  0  0  0
   22.4951   -9.0572  -19.6048 C   0  0  0  0  0  0  0  0  0  0  0  0
   23.2579   -8.6730  -20.5142 O   0  0  0  0  0  0  0  0  0  0  0  0
   22.2370   -4.7542  -20.1258 O   0  0  0  0  0  0  0  0  0  0  0  0
   21.9909   -6.1230  -20.0929 C   0  0  0  0  0  0  0  0  0  0  0  0
   22.2087   -6.7316  -18.7565 C   0  0  2  0  0  0  0  0  0  0  0  0
   21.9509   -8.1281  -18.6872 N   0  0  0  0  0  0  0  0  0  0  0  0
   21.5623   -5.9143  -17.6971 C   0  0  0  0  0  0  0  0  0  0  0  0
   20.3333   -5.7677  -17.5348 O   0  0  0  0  0  0  0  0  0  0  0  0
   19.0690   -9.8995  -13.6958 O   0  0  0  0  0  0  0  0  0  0  0  0
   19.8268   -8.7413  -13.8492 C   0  0  0  0  0  0  0  0  0  0  0  0
   21.0865   -8.8433  -14.3836 C   0  0  0  0  0  0  0  0  0  0  0  0
   21.8771   -7.7202  -14.5554 C   0  0  0  0  0  0  0  0  0  0  0  0
   21.3957   -6.4771  -14.1852 C   0  0  0  0  0  0  0  0  0  0  0  0
   22.2561   -5.2897  -14.3768 C   0  0  0  0  0  0  0  0  0  0  0  0
   21.8435   -4.5105  -15.6272 C   0  0  2  0  0  0  0  0  0  0  0  0
   22.3941   -5.2324  -16.7772 N   0  0  0  0  0  0  0  0  0  0  0  0
   22.2967   -3.1221  -15.5807 C   0  0  0  0  0  0  0  0  0  0  0  0
   21.8211   -2.2554  -14.6186 O   0  0  0  0  0  0  0  0  0  0  0  0
   20.1287   -6.3947  -13.6504 C   0  0  0  0  0  0  0  0  0  0  0  0
   19.3588   -7.5097  -13.4862 C   0  0  0  0  0  0  0  0  0  0  0  0
   23.1241   -2.6983  -16.4140 O   0  0  0  0  0  0  0  0  0  0  0  0
  2  1  1  6
  2  3  1  0
  4  2  1  0
  4  9  1  0
  5  4  2  0
  6  7  1  0
  8 10  1  0
  8  7  1  6
  8  9  1  0
 10 19  1  0
 11 10  2  0
 13 12  1  0
 14 13  2  0
 15 14  1  0
 16 22  1  0
 16 15  2  0
 17 16  1  0
 18 17  1  1
 19 18  1  0
 20 18  1  0
 21 20  1  0
 22 23  2  0
 23 13  1  0
 24 20  2  0
M  END
$$$$
