ASY.pdb
     RDKit          3D

 24 24  0  0  1  0  0  0  0  0999 V2000
   24.8979  -12.8424  -17.8655 C   0  0  0  0  0  0  0  0  0  0  0  0
   23.5684  -12.2001  -18.2679 C   0  0  2  0  0  0  0  0  0  0  0  0
   23.5067  -12.1930  -19.6942 N   0  0  0  0  0  0  0  0  0  0  0  0
   23.5606  -10.7739  -17.7645 C   0  0  0  0  0  0  0  0  0  0  0  0
   23.6486  -10.5184  -16.5464 O   0  0  0  0  0  0  0  0  0  0  0  0
   23.5508   -6.0673  -19.0659 O   0  0  0  0  0  0  0  0  0  0  0  0
   23.5239   -7.3990  -19.4675 C   0  0  0  0  0  0  0  0  0  0  0  0
   23.3930   -8.3549  -18.3393 C   0  0  2  0  0  0  0  0  0  0  0  0
   23.4508   -9.7266  -18.7091 N   0  0  0  0  0  0  0  0  0  0  0  0
   22.2499   -7.9814  -17.4663 C   0  0  0  0  0  0  0  0  0  0  0  0
   21.0442   -8.1941  -17.7097 O   0  0  0  0  0  0  0  0  0  0  0  0
   17.9065  -12.1295  -14.6041 O   0  0  0  0  0  0  0  0  0  0  0  0
   18.7783  -11.0531  -14.4603 C   0  0  0  0  0  0  0  0  0  0  0  0
   19.9987  -11.1046  -15.0852 C   0  0  0  0  0  0  0  0  0  0  0  0
   20.8986  -10.0590  -14.9715 C   0  0  0  0  0  0  0  0  0  0  0  0
   20.5678   -8.9458  -14.2195 C   0  0  0  0  0  0  0  0  0  0  0  0
   21.5431   -7.8395  -14.1105 C   0  0  0  0  0  0  0  0  0  0  0  0
   21.4612   -6.9155  -15.3271 C   0  0  2  0  0  0  0  0  0  0  0  0
   22.5284   -7.3257  -16.2434 N   0  0  0  0  0  0  0  0  0  0  0  0
   21.5688   -5.5072  -14.9525 C   0  0  0  0  0  0  0  0  0  0  0  0
   22.6517   -4.7509  -15.3505 O   0  0  0  0  0  0  0  0  0  0  0  0
   19.3379   -8.9123  -13.5995 C   0  0  0  0  0  0  0  0  0  0  0  0
   18.4594   -9.9499  -13.7194 C   0  0  0  0  0  0  0  0  0  0  0  0
   20.6791   -4.9657  -14.2642 O   0  0  0  0  0  0  0  0  0  0  0  0
  2  1  1  6
  2  3  1  0
  4  2  1  0
  4  9  1  0
  5  4  2  0
  6  7  1  0
  8 10  1  0
  8  7  1  6
  8  9  1  0
 10 19  1  0
 11 10  2  0
 13 12  1  0
 14 13  2  0
 15 14  1  0
 16 22  1  0
 16 15  2  0
 17 16  1  0
 18 17  1  1
 19 18  1  0
 20 18  1  0
 21 20  1  0
 22 23  2  0
 23 13  1  0
 24 20  2  0
M  END
$$$$
