ASY.pdb
     RDKit          3D

 24 24  0  0  1  0  0  0  0  0999 V2000
   22.0865  -11.6347  -20.7900 C   0  0  0  0  0  0  0  0  0  0  0  0
   22.4700  -11.5104  -19.3138 C   0  0  2  0  0  0  0  0  0  0  0  0
   21.7972  -12.5506  -18.6041 N   0  0  0  0  0  0  0  0  0  0  0  0
   21.9818  -10.1706  -18.8095 C   0  0  0  0  0  0  0  0  0  0  0  0
   22.5254   -9.1073  -19.1710 O   0  0  0  0  0  0  0  0  0  0  0  0
   18.0329   -9.4682  -17.1415 O   0  0  0  0  0  0  0  0  0  0  0  0
   18.9703   -8.6325  -17.7399 C   0  0  0  0  0  0  0  0  0  0  0  0
   20.3705   -8.9438  -17.3573 C   0  0  2  0  0  0  0  0  0  0  0  0
   20.8880  -10.1461  -17.9126 N   0  0  0  0  0  0  0  0  0  0  0  0
   20.5595   -8.7898  -15.8915 C   0  0  0  0  0  0  0  0  0  0  0  0
   20.3313   -9.6632  -15.0293 O   0  0  0  0  0  0  0  0  0  0  0  0
   22.0690   -1.3628  -16.0821 O   0  0  0  0  0  0  0  0  0  0  0  0
   22.1660   -2.6193  -15.4897 C   0  0  0  0  0  0  0  0  0  0  0  0
   22.6302   -3.6690  -16.2415 C   0  0  0  0  0  0  0  0  0  0  0  0
   22.7442   -4.9363  -15.6964 C   0  0  0  0  0  0  0  0  0  0  0  0
   22.3868   -5.1522  -14.3774 C   0  0  0  0  0  0  0  0  0  0  0  0
   22.5160   -6.5133  -13.8139 C   0  0  0  0  0  0  0  0  0  0  0  0
   21.2121   -7.2977  -13.9725 C   0  0  2  0  0  0  0  0  0  0  0  0
   21.0417   -7.5510  -15.4056 N   0  0  0  0  0  0  0  0  0  0  0  0
   20.0720   -6.5850  -13.4004 C   0  0  0  0  0  0  0  0  0  0  0  0
   19.8611   -6.5683  -12.0371 O   0  0  0  0  0  0  0  0  0  0  0  0
   21.9230   -4.0860  -13.6384 C   0  0  0  0  0  0  0  0  0  0  0  0
   21.8152   -2.8411  -14.1876 C   0  0  0  0  0  0  0  0  0  0  0  0
   19.2692   -5.9785  -14.1393 O   0  0  0  0  0  0  0  0  0  0  0  0
  2  1  1  6
  2  3  1  0
  4  2  1  0
  4  9  1  0
  5  4  2  0
  6  7  1  0
  8 10  1  0
  8  7  1  1
  8  9  1  0
 10 19  1  0
 11 10  2  0
 13 12  1  0
 14 13  2  0
 15 14  1  0
 16 22  1  0
 16 15  2  0
 17 16  1  0
 18 17  1  6
 19 18  1  0
 20 18  1  0
 21 20  1  0
 22 23  2  0
 23 13  1  0
 24 20  2  0
M  END
$$$$
