ASY.pdb
     RDKit          3D

 24 24  0  0  1  0  0  0  0  0999 V2000
   28.0021  -23.1049  -18.4549 C   0  0  0  0  0  0  0  0  0  0  0  0
   28.2567  -21.5959  -18.4583 C   0  0  2  0  0  0  0  0  0  0  0  0
   29.4219  -21.3566  -19.2478 N   0  0  0  0  0  0  0  0  0  0  0  0
   28.5237  -21.1581  -17.0354 C   0  0  0  0  0  0  0  0  0  0  0  0
   29.6388  -20.7139  -16.6948 O   0  0  0  0  0  0  0  0  0  0  0  0
   27.1993  -18.0508  -14.3185 O   0  0  0  0  0  0  0  0  0  0  0  0
   27.3910  -18.9179  -15.3894 C   0  0  0  0  0  0  0  0  0  0  0  0
   27.3145  -20.3514  -15.0113 C   0  0  2  0  0  0  0  0  0  0  0  0
   27.4762  -21.2630  -16.0904 N   0  0  0  0  0  0  0  0  0  0  0  0
   26.1360  -20.6015  -14.1414 C   0  0  0  0  0  0  0  0  0  0  0  0
   24.9404  -20.5423  -14.4954 O   0  0  0  0  0  0  0  0  0  0  0  0
   27.9189  -18.5477   -6.9256 O   0  0  0  0  0  0  0  0  0  0  0  0
   27.4076  -19.4357   -7.8686 C   0  0  0  0  0  0  0  0  0  0  0  0
   28.2730  -20.2809   -8.5161 C   0  0  0  0  0  0  0  0  0  0  0  0
   27.8117  -21.1808   -9.4612 C   0  0  0  0  0  0  0  0  0  0  0  0
   26.4619  -21.2325   -9.7603 C   0  0  0  0  0  0  0  0  0  0  0  0
   25.9892  -22.2009  -10.7730 C   0  0  0  0  0  0  0  0  0  0  0  0
   25.3019  -21.4844  -11.9370 C   0  0  2  0  0  0  0  0  0  0  0  0
   26.3645  -20.9400  -12.7863 N   0  0  0  0  0  0  0  0  0  0  0  0
   24.3818  -20.4478  -11.4745 C   0  0  0  0  0  0  0  0  0  0  0  0
   23.1001  -20.7671  -11.0763 O   0  0  0  0  0  0  0  0  0  0  0  0
   25.6084  -20.3760   -9.0999 C   0  0  0  0  0  0  0  0  0  0  0  0
   26.0758  -19.4931   -8.1698 C   0  0  0  0  0  0  0  0  0  0  0  0
   24.7432  -19.2536  -11.4326 O   0  0  0  0  0  0  0  0  0  0  0  0
  2  1  1  1
  2  3  1  0
  4  2  1  0
  4  9  1  0
  5  4  2  0
  6  7  1  0
  8 10  1  0
  8  7  1  6
  8  9  1  0
 10 19  1  0
 11 10  2  0
 13 12  1  0
 14 13  2  0
 15 14  1  0
 16 22  1  0
 16 15  2  0
 17 16  1  0
 18 17  1  1
 19 18  1  0
 20 18  1  0
 21 20  1  0
 22 23  2  0
 23 13  1  0
 24 20  2  0
M  END
$$$$
