ASY.pdb
     RDKit          3D

 24 24  0  0  1  0  0  0  0  0999 V2000
   25.4130  -21.2640  -21.1497 C   0  0  0  0  0  0  0  0  0  0  0  0
   25.8292  -21.7803  -19.7705 C   0  0  2  0  0  0  0  0  0  0  0  0
   25.0273  -22.9246  -19.4780 N   0  0  0  0  0  0  0  0  0  0  0  0
   25.5394  -20.6990  -18.7535 C   0  0  0  0  0  0  0  0  0  0  0  0
   25.5576  -19.4924  -19.0706 O   0  0  0  0  0  0  0  0  0  0  0  0
   22.9904  -18.6193  -15.8859 O   0  0  0  0  0  0  0  0  0  0  0  0
   23.4430  -19.5376  -16.8277 C   0  0  0  0  0  0  0  0  0  0  0  0
   24.7262  -20.1843  -16.4548 C   0  0  2  0  0  0  0  0  0  0  0  0
   25.2448  -21.0852  -17.4248 N   0  0  0  0  0  0  0  0  0  0  0  0
   24.6622  -20.7140  -15.0679 C   0  0  0  0  0  0  0  0  0  0  0  0
   24.0047  -21.7071  -14.6943 O   0  0  0  0  0  0  0  0  0  0  0  0
   26.3290  -20.7745   -6.3991 O   0  0  0  0  0  0  0  0  0  0  0  0
   26.3642  -20.4860   -7.7610 C   0  0  0  0  0  0  0  0  0  0  0  0
   26.6873  -21.4891   -8.6396 C   0  0  0  0  0  0  0  0  0  0  0  0
   26.7352  -21.2505  -10.0022 C   0  0  0  0  0  0  0  0  0  0  0  0
   26.4547  -19.9863  -10.4892 C   0  0  0  0  0  0  0  0  0  0  0  0
   26.5113  -19.7519  -11.9483 C   0  0  0  0  0  0  0  0  0  0  0  0
   25.3795  -20.4899  -12.6659 C   0  0  2  0  0  0  0  0  0  0  0  0
   25.4060  -20.0501  -14.0633 N   0  0  0  0  0  0  0  0  0  0  0  0
   24.0831  -20.2469  -12.0370 C   0  0  0  0  0  0  0  0  0  0  0  0
   23.5780  -21.1225  -11.0981 O   0  0  0  0  0  0  0  0  0  0  0  0
   26.1324  -18.9919   -9.5917 C   0  0  0  0  0  0  0  0  0  0  0  0
   26.0885  -19.2401   -8.2503 C   0  0  0  0  0  0  0  0  0  0  0  0
   23.4110  -19.2398  -12.3411 O   0  0  0  0  0  0  0  0  0  0  0  0
  2  1  1  6
  2  3  1  0
  4  2  1  0
  4  9  1  0
  5  4  2  0
  6  7  1  0
  8 10  1  0
  8  7  1  6
  8  9  1  0
 10 19  1  0
 11 10  2  0
 13 12  1  0
 14 13  2  0
 15 14  1  0
 16 22  1  0
 16 15  2  0
 17 16  1  0
 18 17  1  1
 19 18  1  0
 20 18  1  0
 21 20  1  0
 22 23  2  0
 23 13  1  0
 24 20  2  0
M  END
$$$$
