ASY.pdb
     RDKit          3D

 24 24  0  0  1  0  0  0  0  0999 V2000
   16.7757  -13.0155  -16.9973 C   0  0  0  0  0  0  0  0  0  0  0  0
   18.2656  -12.7585  -16.7612 C   0  0  2  0  0  0  0  0  0  0  0  0
   18.5235  -12.9605  -15.3716 N   0  0  0  0  0  0  0  0  0  0  0  0
   18.5589  -11.3176  -17.1152 C   0  0  0  0  0  0  0  0  0  0  0  0
   18.4365  -10.9022  -18.2854 O   0  0  0  0  0  0  0  0  0  0  0  0
   17.0257   -8.0837  -16.1465 O   0  0  0  0  0  0  0  0  0  0  0  0
   18.1167   -8.3292  -16.9740 C   0  0  0  0  0  0  0  0  0  0  0  0
   19.2198   -9.0578  -16.2986 C   0  0  2  0  0  0  0  0  0  0  0  0
   18.9783  -10.4427  -16.0857 N   0  0  0  0  0  0  0  0  0  0  0  0
   19.6916   -8.3060  -15.1068 C   0  0  0  0  0  0  0  0  0  0  0  0
   19.1757   -8.3387  -13.9706 O   0  0  0  0  0  0  0  0  0  0  0  0
   26.1553   -9.7812  -17.0830 O   0  0  0  0  0  0  0  0  0  0  0  0
   25.2298   -9.2327  -16.1988 C   0  0  0  0  0  0  0  0  0  0  0  0
   24.6586  -10.0463  -15.2531 C   0  0  0  0  0  0  0  0  0  0  0  0
   23.7336   -9.5467  -14.3527 C   0  0  0  0  0  0  0  0  0  0  0  0
   23.3774   -8.2107  -14.4028 C   0  0  0  0  0  0  0  0  0  0  0  0
   22.3875   -7.6965  -13.4320 C   0  0  0  0  0  0  0  0  0  0  0  0
   21.3977   -6.7471  -14.1100 C   0  0  2  0  0  0  0  0  0  0  0  0
   20.8265   -7.4723  -15.2479 N   0  0  0  0  0  0  0  0  0  0  0  0
   22.0320   -5.4955  -14.5175 C   0  0  0  0  0  0  0  0  0  0  0  0
   22.5605   -4.6330  -13.5795 O   0  0  0  0  0  0  0  0  0  0  0  0
   23.9616   -7.4094  -15.3593 C   0  0  0  0  0  0  0  0  0  0  0  0
   24.8724   -7.9143  -16.2415 C   0  0  0  0  0  0  0  0  0  0  0  0
   22.1053   -5.1870  -15.7250 O   0  0  0  0  0  0  0  0  0  0  0  0
  2  1  1  1
  2  3  1  0
  4  2  1  0
  4  9  1  0
  5  4  2  0
  6  7  1  0
  8 10  1  0
  8  7  1  1
  8  9  1  0
 10 19  1  0
 11 10  2  0
 13 12  1  0
 14 13  2  0
 15 14  1  0
 16 22  1  0
 16 15  2  0
 17 16  1  0
 18 17  1  6
 19 18  1  0
 20 18  1  0
 21 20  1  0
 22 23  2  0
 23 13  1  0
 24 20  2  0
M  END
$$$$
