ASY.pdb
     RDKit          3D

 24 24  0  0  1  0  0  0  0  0999 V2000
   18.5815  -10.1871  -16.2461 C   0  0  0  0  0  0  0  0  0  0  0  0
   19.9863   -9.6197  -16.0307 C   0  0  2  0  0  0  0  0  0  0  0  0
   20.9219  -10.6433  -16.3699 N   0  0  0  0  0  0  0  0  0  0  0  0
   20.1378   -9.2755  -14.5657 C   0  0  0  0  0  0  0  0  0  0  0  0
   20.8898   -9.9367  -13.8213 O   0  0  0  0  0  0  0  0  0  0  0  0
   21.4123   -6.1129  -13.1190 O   0  0  0  0  0  0  0  0  0  0  0  0
   21.0058   -7.2592  -12.4437 C   0  0  0  0  0  0  0  0  0  0  0  0
   19.6082   -7.6591  -12.7445 C   0  0  2  0  0  0  0  0  0  0  0  0
   19.4045   -8.1805  -14.0515 N   0  0  0  0  0  0  0  0  0  0  0  0
   18.6580   -6.5937  -12.3318 C   0  0  0  0  0  0  0  0  0  0  0  0
   18.0988   -5.7779  -13.0934 O   0  0  0  0  0  0  0  0  0  0  0  0
   13.6408  -10.3746   -8.9682 O   0  0  0  0  0  0  0  0  0  0  0  0
   14.2509   -9.2580   -9.5341 C   0  0  0  0  0  0  0  0  0  0  0  0
   14.0792   -8.0368   -8.9327 C   0  0  0  0  0  0  0  0  0  0  0  0
   14.6658   -6.8985   -9.4582 C   0  0  0  0  0  0  0  0  0  0  0  0
   15.4359   -6.9882  -10.6041 C   0  0  0  0  0  0  0  0  0  0  0  0
   16.0540   -5.7605  -11.1497 C   0  0  0  0  0  0  0  0  0  0  0  0
   17.3927   -5.4718  -10.4677 C   0  0  2  0  0  0  0  0  0  0  0  0
   18.3425   -6.4743  -10.9573 N   0  0  0  0  0  0  0  0  0  0  0  0
   17.2790   -5.4868   -9.0111 C   0  0  0  0  0  0  0  0  0  0  0  0
   17.9930   -6.3939   -8.2558 O   0  0  0  0  0  0  0  0  0  0  0  0
   15.5969   -8.2230  -11.1937 C   0  0  0  0  0  0  0  0  0  0  0  0
   15.0131   -9.3380  -10.6656 C   0  0  0  0  0  0  0  0  0  0  0  0
   16.5311   -4.6760   -8.4263 O   0  0  0  0  0  0  0  0  0  0  0  0
  2  1  1  1
  2  3  1  0
  4  2  1  0
  4  9  1  0
  5  4  2  0
  6  7  1  0
  8 10  1  0
  8  7  1  6
  8  9  1  0
 10 19  1  0
 11 10  2  0
 13 12  1  0
 14 13  2  0
 15 14  1  0
 16 22  1  0
 16 15  2  0
 17 16  1  0
 18 17  1  6
 19 18  1  0
 20 18  1  0
 21 20  1  0
 22 23  2  0
 23 13  1  0
 24 20  2  0
M  END
$$$$
