ASY.pdb
     RDKit          3D

 24 24  0  0  1  0  0  0  0  0999 V2000
   31.1599  -17.7520  -18.2405 C   0  0  0  0  0  0  0  0  0  0  0  0
   31.9087  -18.7135  -19.1661 C   0  0  2  0  0  0  0  0  0  0  0  0
   32.5478  -17.9315  -20.1751 N   0  0  0  0  0  0  0  0  0  0  0  0
   30.8955  -19.6292  -19.8164 C   0  0  0  0  0  0  0  0  0  0  0  0
   30.0957  -19.2023  -20.6735 O   0  0  0  0  0  0  0  0  0  0  0  0
   31.2042  -23.8572  -19.2855 O   0  0  0  0  0  0  0  0  0  0  0  0
   30.5103  -23.2422  -20.3226 C   0  0  0  0  0  0  0  0  0  0  0  0
   29.9355  -21.9249  -19.9508 C   0  0  2  0  0  0  0  0  0  0  0  0
   30.8721  -20.9901  -19.4308 N   0  0  0  0  0  0  0  0  0  0  0  0
   28.7008  -22.1013  -19.1430 C   0  0  0  0  0  0  0  0  0  0  0  0
   27.6973  -22.7645  -19.4770 O   0  0  0  0  0  0  0  0  0  0  0  0
   28.4183  -27.8475  -16.7615 O   0  0  0  0  0  0  0  0  0  0  0  0
   28.3213  -26.4794  -16.5200 C   0  0  0  0  0  0  0  0  0  0  0  0
   27.0924  -25.9482  -16.2192 C   0  0  0  0  0  0  0  0  0  0  0  0
   26.9463  -24.5942  -15.9716 C   0  0  0  0  0  0  0  0  0  0  0  0
   28.0501  -23.7620  -16.0268 C   0  0  0  0  0  0  0  0  0  0  0  0
   27.8729  -22.3185  -15.7591 C   0  0  0  0  0  0  0  0  0  0  0  0
   27.4456  -21.5749  -17.0260 C   0  0  2  0  0  0  0  0  0  0  0  0
   28.6335  -21.4713  -17.8775 N   0  0  0  0  0  0  0  0  0  0  0  0
   26.8691  -20.2666  -16.7241 C   0  0  0  0  0  0  0  0  0  0  0  0
   25.7346  -20.1566  -15.9471 O   0  0  0  0  0  0  0  0  0  0  0  0
   29.2756  -24.3136  -16.3303 C   0  0  0  0  0  0  0  0  0  0  0  0
   29.4065  -25.6505  -16.5725 C   0  0  0  0  0  0  0  0  0  0  0  0
   27.3967  -19.2252  -17.1666 O   0  0  0  0  0  0  0  0  0  0  0  0
  2  1  1  1
  2  3  1  0
  4  2  1  0
  4  9  1  0
  5  4  2  0
  6  7  1  0
  8 10  1  0
  8  7  1  1
  8  9  1  0
 10 19  1  0
 11 10  2  0
 13 12  1  0
 14 13  2  0
 15 14  1  0
 16 22  1  0
 16 15  2  0
 17 16  1  0
 18 17  1  1
 19 18  1  0
 20 18  1  0
 21 20  1  0
 22 23  2  0
 23 13  1  0
 24 20  2  0
M  END
$$$$
