ASY.pdb
     RDKit          3D

 24 24  0  0  1  0  0  0  0  0999 V2000
   18.9670  -18.0913  -15.9363 C   0  0  0  0  0  0  0  0  0  0  0  0
   20.1822  -17.5647  -15.1696 C   0  0  2  0  0  0  0  0  0  0  0  0
   20.6556  -16.4053  -15.8550 N   0  0  0  0  0  0  0  0  0  0  0  0
   21.2563  -18.6293  -15.1967 C   0  0  0  0  0  0  0  0  0  0  0  0
   21.0637  -19.7541  -14.6922 O   0  0  0  0  0  0  0  0  0  0  0  0
   25.1595  -18.1259  -17.2902 O   0  0  0  0  0  0  0  0  0  0  0  0
   24.3440  -19.2409  -17.1259 C   0  0  0  0  0  0  0  0  0  0  0  0
   23.5833  -19.2351  -15.8511 C   0  0  2  0  0  0  0  0  0  0  0  0
   22.4936  -18.3227  -15.8102 N   0  0  0  0  0  0  0  0  0  0  0  0
   24.5079  -19.1706  -14.6896 C   0  0  0  0  0  0  0  0  0  0  0  0
   24.9004  -18.1289  -14.1246 O   0  0  0  0  0  0  0  0  0  0  0  0
   27.1889  -19.8214   -6.7256 O   0  0  0  0  0  0  0  0  0  0  0  0
   26.5740  -19.8916   -7.9732 C   0  0  0  0  0  0  0  0  0  0  0  0
   26.5545  -18.7697   -8.7630 C   0  0  0  0  0  0  0  0  0  0  0  0
   25.9552  -18.7909  -10.0105 C   0  0  0  0  0  0  0  0  0  0  0  0
   25.3672  -19.9554  -10.4713 C   0  0  0  0  0  0  0  0  0  0  0  0
   24.7322  -19.9573  -11.8069 C   0  0  0  0  0  0  0  0  0  0  0  0
   25.7128  -20.4370  -12.8788 C   0  0  2  0  0  0  0  0  0  0  0  0
   25.0002  -20.3864  -14.1580 N   0  0  0  0  0  0  0  0  0  0  0  0
   26.2292  -21.7729  -12.5891 C   0  0  0  0  0  0  0  0  0  0  0  0
   27.5023  -21.9445  -12.0862 O   0  0  0  0  0  0  0  0  0  0  0  0
   25.3968  -21.0715   -9.6641 C   0  0  0  0  0  0  0  0  0  0  0  0
   25.9910  -21.0377   -8.4358 C   0  0  0  0  0  0  0  0  0  0  0  0
   25.5235  -22.7822  -12.7931 O   0  0  0  0  0  0  0  0  0  0  0  0
  2  1  1  6
  2  3  1  0
  4  2  1  0
  4  9  1  0
  5  4  2  0
  6  7  1  0
  8 10  1  0
  8  7  1  6
  8  9  1  0
 10 19  1  0
 11 10  2  0
 13 12  1  0
 14 13  2  0
 15 14  1  0
 16 22  1  0
 16 15  2  0
 17 16  1  0
 18 17  1  1
 19 18  1  0
 20 18  1  0
 21 20  1  0
 22 23  2  0
 23 13  1  0
 24 20  2  0
M  END
$$$$
