ASY.pdb
     RDKit          3D

 24 24  0  0  1  0  0  0  0  0999 V2000
   29.0839   -8.8123  -17.4836 C   0  0  0  0  0  0  0  0  0  0  0  0
   29.1178  -10.2792  -17.9181 C   0  0  2  0  0  0  0  0  0  0  0  0
   29.6054  -10.3209  -19.2593 N   0  0  0  0  0  0  0  0  0  0  0  0
   27.7034  -10.8142  -17.8883 C   0  0  0  0  0  0  0  0  0  0  0  0
   26.8970  -10.5594  -18.8056 O   0  0  0  0  0  0  0  0  0  0  0  0
   24.5948  -13.8706  -15.7587 O   0  0  0  0  0  0  0  0  0  0  0  0
   25.8776  -13.3334  -15.7923 C   0  0  0  0  0  0  0  0  0  0  0  0
   25.9876  -12.1162  -16.6350 C   0  0  2  0  0  0  0  0  0  0  0  0
   27.3092  -11.6155  -16.7912 N   0  0  0  0  0  0  0  0  0  0  0  0
   24.9712  -11.1086  -16.2351 C   0  0  0  0  0  0  0  0  0  0  0  0
   25.0996  -10.2612  -15.3276 O   0  0  0  0  0  0  0  0  0  0  0  0
   22.9602   -4.0417  -14.9964 O   0  0  0  0  0  0  0  0  0  0  0  0
   22.9104   -5.2809  -15.6296 C   0  0  0  0  0  0  0  0  0  0  0  0
   21.6852   -5.8498  -15.8706 C   0  0  0  0  0  0  0  0  0  0  0  0
   21.5852   -7.0800  -16.4971 C   0  0  0  0  0  0  0  0  0  0  0  0
   22.7321   -7.7483  -16.8871 C   0  0  0  0  0  0  0  0  0  0  0  0
   22.6037   -9.0615  -17.5550 C   0  0  0  0  0  0  0  0  0  0  0  0
   22.6429  -10.2009  -16.5348 C   0  0  2  0  0  0  0  0  0  0  0  0
   23.7395  -11.0878  -16.9320 N   0  0  0  0  0  0  0  0  0  0  0  0
   21.3661  -10.9068  -16.4540 C   0  0  0  0  0  0  0  0  0  0  0  0
   20.2194  -10.2500  -16.0578 O   0  0  0  0  0  0  0  0  0  0  0  0
   23.9531   -7.1613  -16.6367 C   0  0  0  0  0  0  0  0  0  0  0  0
   24.0383   -5.9477  -16.0181 C   0  0  0  0  0  0  0  0  0  0  0  0
   21.2937  -12.1191  -16.7434 O   0  0  0  0  0  0  0  0  0  0  0  0
  2  1  1  6
  2  3  1  0
  4  2  1  0
  4  9  1  0
  5  4  2  0
  6  7  1  0
  8 10  1  0
  8  7  1  1
  8  9  1  0
 10 19  1  0
 11 10  2  0
 13 12  1  0
 14 13  2  0
 15 14  1  0
 16 22  1  0
 16 15  2  0
 17 16  1  0
 18 17  1  6
 19 18  1  0
 20 18  1  0
 21 20  1  0
 22 23  2  0
 23 13  1  0
 24 20  2  0
M  END
$$$$
