ASY.pdb
     RDKit          3D

 24 24  0  0  1  0  0  0  0  0999 V2000
   19.1531   -7.7776  -20.3552 C   0  0  0  0  0  0  0  0  0  0  0  0
   19.8715   -7.4942  -19.0341 C   0  0  2  0  0  0  0  0  0  0  0  0
   19.6402   -8.6066  -18.1697 N   0  0  0  0  0  0  0  0  0  0  0  0
   19.2607   -6.2542  -18.4201 C   0  0  0  0  0  0  0  0  0  0  0  0
   19.4707   -5.1234  -18.9038 O   0  0  0  0  0  0  0  0  0  0  0  0
   16.4763   -6.5502  -15.0634 O   0  0  0  0  0  0  0  0  0  0  0  0
   16.4633   -5.5971  -16.0766 C   0  0  0  0  0  0  0  0  0  0  0  0
   17.8089   -5.3044  -16.6312 C   0  0  2  0  0  0  0  0  0  0  0  0
   18.4401   -6.4024  -17.2773 N   0  0  0  0  0  0  0  0  0  0  0  0
   18.6446   -4.5923  -15.6299 C   0  0  0  0  0  0  0  0  0  0  0  0
   18.3045   -3.5828  -14.9791 O   0  0  0  0  0  0  0  0  0  0  0  0
   24.5081   -8.4089  -17.7077 O   0  0  0  0  0  0  0  0  0  0  0  0
   23.7685   -7.7522  -16.7274 C   0  0  0  0  0  0  0  0  0  0  0  0
   24.2359   -6.5590  -16.2370 C   0  0  0  0  0  0  0  0  0  0  0  0
   23.5356   -5.8696  -15.2622 C   0  0  0  0  0  0  0  0  0  0  0  0
   22.3490   -6.3860  -14.7730 C   0  0  0  0  0  0  0  0  0  0  0  0
   21.6160   -5.6341  -13.7317 C   0  0  0  0  0  0  0  0  0  0  0  0
   20.8083   -4.4904  -14.3483 C   0  0  2  0  0  0  0  0  0  0  0  0
   19.9464   -5.0849  -15.3732 N   0  0  0  0  0  0  0  0  0  0  0  0
   21.6703   -3.4440  -14.8935 C   0  0  0  0  0  0  0  0  0  0  0  0
   21.6976   -3.1858  -16.2484 O   0  0  0  0  0  0  0  0  0  0  0  0
   21.8957   -7.5852  -15.2775 C   0  0  0  0  0  0  0  0  0  0  0  0
   22.5955   -8.2554  -16.2388 C   0  0  0  0  0  0  0  0  0  0  0  0
   22.3974   -2.7659  -14.1385 O   0  0  0  0  0  0  0  0  0  0  0  0
  2  1  1  6
  2  3  1  0
  4  2  1  0
  4  9  1  0
  5  4  2  0
  6  7  1  0
  8 10  1  0
  8  7  1  1
  8  9  1  0
 10 19  1  0
 11 10  2  0
 13 12  1  0
 14 13  2  0
 15 14  1  0
 16 22  1  0
 16 15  2  0
 17 16  1  0
 18 17  1  6
 19 18  1  0
 20 18  1  0
 21 20  1  0
 22 23  2  0
 23 13  1  0
 24 20  2  0
M  END
$$$$
