ENI.pdb
     RDKit          3D

 26 25  0  0  1  0  0  0  0  0999 V2000
   13.8467  -11.8056  -12.2943 N   0  0  0  0  0  0  0  0  0  0  0  0
   15.1050  -11.6728  -11.6205 C   0  0  1  0  0  0  0  0  0  0  0  0
   16.1172  -12.6994  -12.0735 C   0  0  0  0  0  0  0  0  0  0  0  0
   15.5631  -13.6226  -13.1089 C   0  0  0  0  0  0  0  0  0  0  0  0
   16.5424  -13.8023  -14.2068 C   0  0  0  0  0  0  0  0  0  0  0  0
   17.7594  -13.8486  -13.9405 O   0  0  0  0  0  0  0  0  0  0  0  0
   15.6512  -10.3244  -11.8834 C   0  0  0  0  0  0  0  0  0  0  0  0
   15.5098   -9.7715  -12.9963 O   0  0  0  0  0  0  0  0  0  0  0  0
   16.0877  -13.9182  -15.5353 O   0  0  0  0  0  0  0  0  0  0  0  0
   15.0412   -6.8723   -8.0615 N   0  0  0  0  0  0  0  0  0  0  0  0
   15.3279   -7.0906   -9.4470 C   0  0  0  0  0  0  0  0  0  0  0  0
   14.3939   -6.9756  -10.2708 O   0  0  0  0  0  0  0  0  0  0  0  0
   16.7157   -7.4399   -9.8189 C   0  0  0  0  0  0  0  0  0  0  0  0
   16.7627   -8.2709  -11.0534 C   0  0  2  0  0  0  0  0  0  0  0  0
   16.3474   -9.6421  -10.8610 N   0  0  0  0  0  0  0  0  0  0  0  0
   18.1795   -8.2507  -11.5486 C   0  0  0  0  0  0  0  0  0  0  0  0
   19.1021   -8.6802  -10.8122 O   0  0  0  0  0  0  0  0  0  0  0  0
   19.4243  -10.6123  -15.7845 C   0  0  0  0  0  0  0  0  0  0  0  0
   19.3653   -9.9245  -14.4239 C   0  0  0  0  0  0  0  0  0  0  0  0
   19.9029   -8.5356  -14.5927 C   0  0  2  0  0  0  0  0  0  0  0  0
   21.3059   -8.5529  -15.1764 C   0  0  0  0  0  0  0  0  0  0  0  0
   19.8418   -7.7869  -13.3022 C   0  0  2  0  0  0  0  0  0  0  0  0
   18.4570   -7.7499  -12.8341 N   0  0  0  0  0  0  0  0  0  0  0  0
   20.3883   -6.4248  -13.4046 C   0  0  0  0  0  0  0  0  0  0  0  0
   21.6671   -6.0234  -13.1110 O   0  0  0  0  0  0  0  0  0  0  0  0
   19.6016   -5.4971  -13.8081 O   0  0  0  0  0  0  0  0  0  0  0  0
  2  7  1  0
  2  1  1  6
  3  2  1  0
  4  3  1  0
  5  4  1  0
  5  6  2  0
  7  8  2  0
  9  5  1  0
 10 11  1  0
 11 13  1  0
 12 11  2  0
 14 13  1  1
 15 14  1  0
 15  7  1  0
 16 17  2  0
 16 14  1  0
 19 18  1  0
 19 20  1  0
 20 22  1  0
 20 21  1  1
 22 24  1  0
 22 23  1  6
 23 16  1  0
 24 25  1  0
 26 24  2  0
M  END
$$$$
