ENI.pdb
     RDKit          3D

 26 25  0  0  1  0  0  0  0  0999 V2000
   14.5173  -12.9701  -18.2026 N   0  0  0  0  0  0  0  0  0  0  0  0
   15.4743  -12.7491  -17.1584 C   0  0  1  0  0  0  0  0  0  0  0  0
   16.1057  -14.0318  -16.6687 C   0  0  0  0  0  0  0  0  0  0  0  0
   15.1485  -14.8725  -15.8887 C   0  0  0  0  0  0  0  0  0  0  0  0
   15.4425  -14.7672  -14.4399 C   0  0  0  0  0  0  0  0  0  0  0  0
   16.6048  -14.9650  -14.0349 O   0  0  0  0  0  0  0  0  0  0  0  0
   16.5424  -11.8615  -17.6653 C   0  0  0  0  0  0  0  0  0  0  0  0
   16.7056  -11.6754  -18.8913 O   0  0  0  0  0  0  0  0  0  0  0  0
   14.4077  -14.4455  -13.5395 O   0  0  0  0  0  0  0  0  0  0  0  0
   18.4599   -8.6176  -20.2109 N   0  0  0  0  0  0  0  0  0  0  0  0
   17.5153   -9.2783  -19.3620 C   0  0  0  0  0  0  0  0  0  0  0  0
   16.6595  -10.0203  -19.8924 O   0  0  0  0  0  0  0  0  0  0  0  0
   17.6109   -9.0413  -17.9056 C   0  0  0  0  0  0  0  0  0  0  0  0
   18.2916  -10.1667  -17.2078 C   0  0  2  0  0  0  0  0  0  0  0  0
   17.3986  -11.2079  -16.7514 N   0  0  0  0  0  0  0  0  0  0  0  0
   19.0138   -9.5855  -16.0274 C   0  0  0  0  0  0  0  0  0  0  0  0
   18.3684   -9.2689  -14.9973 O   0  0  0  0  0  0  0  0  0  0  0  0
   23.4748  -11.9267  -14.7476 C   0  0  0  0  0  0  0  0  0  0  0  0
   22.1305  -11.2171  -14.8789 C   0  0  0  0  0  0  0  0  0  0  0  0
   22.3787   -9.7447  -14.7489 C   0  0  2  0  0  0  0  0  0  0  0  0
   23.1145   -9.4198  -13.4594 C   0  0  0  0  0  0  0  0  0  0  0  0
   21.1008   -8.9822  -14.8726 C   0  0  2  0  0  0  0  0  0  0  0  0
   20.4076   -9.4021  -16.0897 N   0  0  0  0  0  0  0  0  0  0  0  0
   21.3017   -7.5248  -14.8699 C   0  0  0  0  0  0  0  0  0  0  0  0
   21.2694   -6.6883  -13.7828 O   0  0  0  0  0  0  0  0  0  0  0  0
   21.5315   -6.9540  -15.9941 O   0  0  0  0  0  0  0  0  0  0  0  0
  2  7  1  0
  2  1  1  6
  3  2  1  0
  4  3  1  0
  5  4  1  0
  5  6  2  0
  7  8  2  0
  9  5  1  0
 10 11  1  0
 11 13  1  0
 12 11  2  0
 14 13  1  1
 15 14  1  0
 15  7  1  0
 16 17  2  0
 16 14  1  0
 19 18  1  0
 19 20  1  0
 20 22  1  0
 20 21  1  1
 22 24  1  0
 22 23  1  6
 23 16  1  0
 24 25  1  0
 26 24  2  0
M  END
$$$$
