ENI.pdb
     RDKit          3D

 26 25  0  0  1  0  0  0  0  0999 V2000
   16.4358  -11.9304  -14.5345 N   0  0  0  0  0  0  0  0  0  0  0  0
   17.3925  -12.1025  -15.5881 C   0  0  1  0  0  0  0  0  0  0  0  0
   16.8417  -12.8995  -16.7478 C   0  0  0  0  0  0  0  0  0  0  0  0
   16.2598  -14.2046  -16.3126 C   0  0  0  0  0  0  0  0  0  0  0  0
   14.8382  -14.0266  -15.9333 C   0  0  0  0  0  0  0  0  0  0  0  0
   14.1364  -13.2054  -16.5557 O   0  0  0  0  0  0  0  0  0  0  0  0
   17.8057  -10.7725  -16.0841 C   0  0  0  0  0  0  0  0  0  0  0  0
   18.7161  -10.6494  -16.9328 O   0  0  0  0  0  0  0  0  0  0  0  0
   14.2976  -14.7855  -14.8764 O   0  0  0  0  0  0  0  0  0  0  0  0
   18.3249   -5.9123  -17.0501 N   0  0  0  0  0  0  0  0  0  0  0  0
   16.9563   -6.0079  -16.6410 C   0  0  0  0  0  0  0  0  0  0  0  0
   16.2243   -5.0035  -16.7812 O   0  0  0  0  0  0  0  0  0  0  0  0
   16.4920   -7.2930  -16.0760 C   0  0  0  0  0  0  0  0  0  0  0  0
   17.5837   -8.3048  -16.0385 C   0  0  2  0  0  0  0  0  0  0  0  0
   17.1631   -9.6142  -15.5933 N   0  0  0  0  0  0  0  0  0  0  0  0
   18.6398   -7.7842  -15.1076 C   0  0  0  0  0  0  0  0  0  0  0  0
   18.3688   -7.6125  -13.8930 O   0  0  0  0  0  0  0  0  0  0  0  0
   22.8230  -10.3711  -14.4498 C   0  0  0  0  0  0  0  0  0  0  0  0
   21.6087   -9.4477  -14.4256 C   0  0  0  0  0  0  0  0  0  0  0  0
   22.0882   -8.0579  -14.7172 C   0  0  2  0  0  0  0  0  0  0  0  0
   23.2293   -7.6618  -13.7951 C   0  0  0  0  0  0  0  0  0  0  0  0
   20.9557   -7.0866  -14.6569 C   0  0  2  0  0  0  0  0  0  0  0  0
   19.9227   -7.4945  -15.6081 N   0  0  0  0  0  0  0  0  0  0  0  0
   21.3763   -5.7006  -14.9150 C   0  0  0  0  0  0  0  0  0  0  0  0
   21.7809   -4.7737  -13.9878 O   0  0  0  0  0  0  0  0  0  0  0  0
   21.3702   -5.2937  -16.1302 O   0  0  0  0  0  0  0  0  0  0  0  0
  2  7  1  0
  2  1  1  1
  3  2  1  0
  4  3  1  0
  5  4  1  0
  5  6  2  0
  7  8  2  0
  9  5  1  0
 10 11  1  0
 11 13  1  0
 12 11  2  0
 14 13  1  1
 15 14  1  0
 15  7  1  0
 16 17  2  0
 16 14  1  0
 19 18  1  0
 19 20  1  0
 20 22  1  0
 20 21  1  1
 22 24  1  0
 22 23  1  6
 23 16  1  0
 24 25  1  0
 26 24  2  0
M  END
$$$$
