ENI.pdb
     RDKit          3D

 26 25  0  0  1  0  0  0  0  0999 V2000
   27.9102  -20.9565  -14.2255 N   0  0  0  0  0  0  0  0  0  0  0  0
   27.9977  -19.5929  -13.7922 C   0  0  1  0  0  0  0  0  0  0  0  0
   27.7479  -18.6105  -14.9129 C   0  0  0  0  0  0  0  0  0  0  0  0
   27.4094  -19.2918  -16.1984 C   0  0  0  0  0  0  0  0  0  0  0  0
   28.4813  -19.0594  -17.1952 C   0  0  0  0  0  0  0  0  0  0  0  0
   29.0967  -20.0334  -17.6712 O   0  0  0  0  0  0  0  0  0  0  0  0
   26.9961  -19.3608  -12.7298 C   0  0  0  0  0  0  0  0  0  0  0  0
   26.6217  -18.2055  -12.4307 O   0  0  0  0  0  0  0  0  0  0  0  0
   28.7916  -17.7436  -17.5922 O   0  0  0  0  0  0  0  0  0  0  0  0
   23.4947  -19.6303   -9.2505 N   0  0  0  0  0  0  0  0  0  0  0  0
   23.1172  -20.5403  -10.2893 C   0  0  0  0  0  0  0  0  0  0  0  0
   21.9558  -21.0040  -10.2777 O   0  0  0  0  0  0  0  0  0  0  0  0
   24.1280  -20.8762  -11.3148 C   0  0  0  0  0  0  0  0  0  0  0  0
   25.4462  -20.2526  -11.0141 C   0  0  2  0  0  0  0  0  0  0  0  0
   26.4476  -20.4619  -12.0354 N   0  0  0  0  0  0  0  0  0  0  0  0
   25.9312  -20.8410   -9.7213 C   0  0  0  0  0  0  0  0  0  0  0  0
   26.4638  -21.9787   -9.7167 O   0  0  0  0  0  0  0  0  0  0  0  0
   28.9653  -18.5541   -6.1486 C   0  0  0  0  0  0  0  0  0  0  0  0
   28.2212  -19.5224   -7.0633 C   0  0  0  0  0  0  0  0  0  0  0  0
   26.9077  -19.8415   -6.4157 C   0  0  2  0  0  0  0  0  0  0  0  0
   27.1018  -20.3805   -5.0081 C   0  0  0  0  0  0  0  0  0  0  0  0
   26.1129  -20.7744   -7.2687 C   0  0  2  0  0  0  0  0  0  0  0  0
   25.7830  -20.1094   -8.5284 N   0  0  0  0  0  0  0  0  0  0  0  0
   24.8919  -21.2568   -6.6047 C   0  0  0  0  0  0  0  0  0  0  0  0
   24.7833  -22.3233   -5.7483 O   0  0  0  0  0  0  0  0  0  0  0  0
   23.7997  -20.6286   -6.8388 O   0  0  0  0  0  0  0  0  0  0  0  0
  2  7  1  0
  2  1  1  6
  3  2  1  0
  4  3  1  0
  5  4  1  0
  5  6  2  0
  7  8  2  0
  9  5  1  0
 10 11  1  0
 11 13  1  0
 12 11  2  0
 14 13  1  6
 15 14  1  0
 15  7  1  0
 16 17  2  0
 16 14  1  0
 19 18  1  0
 19 20  1  0
 20 22  1  0
 20 21  1  1
 22 24  1  0
 22 23  1  6
 23 16  1  0
 24 25  1  0
 26 24  2  0
M  END
$$$$
