ENI.pdb
     RDKit          3D

 26 25  0  0  1  0  0  0  0  0999 V2000
   22.5177  -10.4967  -16.6993 N   0  0  0  0  0  0  0  0  0  0  0  0
   21.6574   -9.7740  -17.5895 C   0  0  1  0  0  0  0  0  0  0  0  0
   20.6060  -10.6551  -18.2234 C   0  0  0  0  0  0  0  0  0  0  0  0
   20.4181  -11.9371  -17.4801 C   0  0  0  0  0  0  0  0  0  0  0  0
   20.6757  -13.0881  -18.3776 C   0  0  0  0  0  0  0  0  0  0  0  0
   19.7163  -13.7652  -18.7961 O   0  0  0  0  0  0  0  0  0  0  0  0
   20.9789   -8.6988  -16.8350 C   0  0  0  0  0  0  0  0  0  0  0  0
   20.1753   -7.9202  -17.3937 O   0  0  0  0  0  0  0  0  0  0  0  0
   21.9986  -13.4029  -18.7465 O   0  0  0  0  0  0  0  0  0  0  0  0
   18.2183   -8.9170  -14.7994 N   0  0  0  0  0  0  0  0  0  0  0  0
   18.7576   -8.7240  -13.4873 C   0  0  0  0  0  0  0  0  0  0  0  0
   18.1151   -9.1696  -12.5111 O   0  0  0  0  0  0  0  0  0  0  0  0
   20.0452   -8.0071  -13.3679 C   0  0  0  0  0  0  0  0  0  0  0  0
   20.5383   -7.5359  -14.6915 C   0  0  2  0  0  0  0  0  0  0  0  0
   21.2396   -8.5430  -15.4554 N   0  0  0  0  0  0  0  0  0  0  0  0
   21.4615   -6.3805  -14.4358 C   0  0  0  0  0  0  0  0  0  0  0  0
   22.6344   -6.5968  -14.0414 O   0  0  0  0  0  0  0  0  0  0  0  0
   21.2842   -2.0414  -17.6473 C   0  0  0  0  0  0  0  0  0  0  0  0
   20.9473   -2.6935  -16.3097 C   0  0  0  0  0  0  0  0  0  0  0  0
   22.2026   -3.3168  -15.7785 C   0  0  2  0  0  0  0  0  0  0  0  0
   22.8099   -4.2805  -16.7844 C   0  0  0  0  0  0  0  0  0  0  0  0
   21.9493   -3.9691  -14.4594 C   0  0  2  0  0  0  0  0  0  0  0  0
   21.0006   -5.0669  -14.6414 N   0  0  0  0  0  0  0  0  0  0  0  0
   21.4596   -3.0278  -13.4403 C   0  0  0  0  0  0  0  0  0  0  0  0
   20.2120   -3.0030  -12.8698 O   0  0  0  0  0  0  0  0  0  0  0  0
   22.2690   -2.1239  -13.0277 O   0  0  0  0  0  0  0  0  0  0  0  0
  2  7  1  0
  2  1  1  1
  3  2  1  0
  4  3  1  0
  5  4  1  0
  5  6  2  0
  7  8  2  0
  9  5  1  0
 10 11  1  0
 11 13  1  0
 12 11  2  0
 14 13  1  1
 15 14  1  0
 15  7  1  0
 16 17  2  0
 16 14  1  0
 19 18  1  0
 19 20  1  0
 20 22  1  0
 20 21  1  6
 22 24  1  0
 22 23  1  6
 23 16  1  0
 24 25  1  0
 26 24  2  0
M  END
$$$$
