ENI.pdb
     RDKit          3D

 26 25  0  0  1  0  0  0  0  0999 V2000
   16.0987  -10.0701  -18.5375 N   0  0  0  0  0  0  0  0  0  0  0  0
   15.8937   -8.8953  -17.7420 C   0  0  1  0  0  0  0  0  0  0  0  0
   15.2836   -9.2057  -16.3947 C   0  0  0  0  0  0  0  0  0  0  0  0
   15.8991  -10.4085  -15.7578 C   0  0  0  0  0  0  0  0  0  0  0  0
   16.9198   -9.9933  -14.7667 C   0  0  0  0  0  0  0  0  0  0  0  0
   18.0102  -10.5958  -14.7214 O   0  0  0  0  0  0  0  0  0  0  0  0
   17.1949   -8.2270  -17.5276 C   0  0  0  0  0  0  0  0  0  0  0  0
   18.2742   -8.8255  -17.7302 O   0  0  0  0  0  0  0  0  0  0  0  0
   16.6467   -8.9252  -13.8894 O   0  0  0  0  0  0  0  0  0  0  0  0
   20.6743   -4.8704  -17.9253 N   0  0  0  0  0  0  0  0  0  0  0  0
   19.5616   -4.0334  -17.5923 C   0  0  0  0  0  0  0  0  0  0  0  0
   19.6836   -2.7978  -17.7428 O   0  0  0  0  0  0  0  0  0  0  0  0
   18.3331   -4.6846  -17.0893 C   0  0  0  0  0  0  0  0  0  0  0  0
   18.4780   -6.1654  -17.0329 C   0  0  2  0  0  0  0  0  0  0  0  0
   17.2258   -6.8858  -17.0850 N   0  0  0  0  0  0  0  0  0  0  0  0
   19.1819   -6.4941  -15.7487 C   0  0  0  0  0  0  0  0  0  0  0  0
   18.5099   -6.7716  -14.7243 O   0  0  0  0  0  0  0  0  0  0  0  0
   23.2380   -9.9830  -13.6441 C   0  0  0  0  0  0  0  0  0  0  0  0
   22.4829   -8.6891  -13.3552 C   0  0  0  0  0  0  0  0  0  0  0  0
   21.9551   -8.1698  -14.6583 C   0  0  2  0  0  0  0  0  0  0  0  0
   23.0587   -8.0600  -15.6974 C   0  0  0  0  0  0  0  0  0  0  0  0
   21.2422   -6.8730  -14.4585 C   0  0  2  0  0  0  0  0  0  0  0  0
   20.5885   -6.4874  -15.7083 N   0  0  0  0  0  0  0  0  0  0  0  0
   22.1302   -5.7986  -13.9878 C   0  0  0  0  0  0  0  0  0  0  0  0
   22.4088   -5.4679  -12.6857 O   0  0  0  0  0  0  0  0  0  0  0  0
   22.7158   -5.0805  -14.8730 O   0  0  0  0  0  0  0  0  0  0  0  0
  2  7  1  0
  2  1  1  1
  3  2  1  0
  4  3  1  0
  5  4  1  0
  5  6  2  0
  7  8  2  0
  9  5  1  0
 10 11  1  0
 11 13  1  0
 12 11  2  0
 14 13  1  1
 15 14  1  0
 15  7  1  0
 16 17  2  0
 16 14  1  0
 19 18  1  0
 19 20  1  0
 20 22  1  0
 20 21  1  6
 22 24  1  0
 22 23  1  6
 23 16  1  0
 24 25  1  0
 26 24  2  0
M  END
$$$$
