ENI.pdb
     RDKit          3D

 26 25  0  0  1  0  0  0  0  0999 V2000
   28.6544  -22.6552  -16.9992 N   0  0  0  0  0  0  0  0  0  0  0  0
   29.0264  -21.2713  -17.0325 C   0  0  1  0  0  0  0  0  0  0  0  0
   29.0702  -20.7156  -18.4371 C   0  0  0  0  0  0  0  0  0  0  0  0
   27.8355  -21.0392  -19.2130 C   0  0  0  0  0  0  0  0  0  0  0  0
   27.1708  -19.7907  -19.6557 C   0  0  0  0  0  0  0  0  0  0  0  0
   25.9258  -19.7385  -19.6898 O   0  0  0  0  0  0  0  0  0  0  0  0
   28.0465  -20.4910  -16.2472 C   0  0  0  0  0  0  0  0  0  0  0  0
   28.1790  -19.2582  -16.0832 O   0  0  0  0  0  0  0  0  0  0  0  0
   27.9518  -18.6799  -20.0318 O   0  0  0  0  0  0  0  0  0  0  0  0
   23.8079  -18.7097  -17.2363 N   0  0  0  0  0  0  0  0  0  0  0  0
   24.4170  -18.8758  -15.9514 C   0  0  0  0  0  0  0  0  0  0  0  0
   24.7221  -17.8507  -15.3032 O   0  0  0  0  0  0  0  0  0  0  0  0
   24.6480  -20.2544  -15.4692 C   0  0  0  0  0  0  0  0  0  0  0  0
   25.9969  -20.4051  -14.8570 C   0  0  2  0  0  0  0  0  0  0  0  0
   26.9366  -21.1456  -15.6683 N   0  0  0  0  0  0  0  0  0  0  0  0
   25.8131  -21.1133  -13.5464 C   0  0  0  0  0  0  0  0  0  0  0  0
   25.6224  -22.3548  -13.5317 O   0  0  0  0  0  0  0  0  0  0  0  0
   26.9707  -20.4197   -7.6292 C   0  0  0  0  0  0  0  0  0  0  0  0
   26.1762  -21.1574   -8.7027 C   0  0  0  0  0  0  0  0  0  0  0  0
   26.3693  -20.4246   -9.9958 C   0  0  2  0  0  0  0  0  0  0  0  0
   26.0115  -18.9541   -9.8566 C   0  0  0  0  0  0  0  0  0  0  0  0
   25.6053  -21.0859  -11.0951 C   0  0  2  0  0  0  0  0  0  0  0  0
   25.8569  -20.3762  -12.3485 N   0  0  0  0  0  0  0  0  0  0  0  0
   24.1610  -21.1588  -10.8245 C   0  0  0  0  0  0  0  0  0  0  0  0
   23.4977  -22.1446  -10.1383 O   0  0  0  0  0  0  0  0  0  0  0  0
   23.4237  -20.2102  -11.2703 O   0  0  0  0  0  0  0  0  0  0  0  0
  2  7  1  0
  2  1  1  6
  3  2  1  0
  4  3  1  0
  5  4  1  0
  5  6  2  0
  7  8  2  0
  9  5  1  0
 10 11  1  0
 11 13  1  0
 12 11  2  0
 14 13  1  6
 15 14  1  0
 15  7  1  0
 16 17  2  0
 16 14  1  0
 19 18  1  0
 19 20  1  0
 20 22  1  0
 20 21  1  1
 22 24  1  0
 22 23  1  6
 23 16  1  0
 24 25  1  0
 26 24  2  0
M  END
$$$$
