ENI.pdb
     RDKit          3D

 26 25  0  0  1  0  0  0  0  0999 V2000
   18.8645  -22.8099  -12.9773 N   0  0  0  0  0  0  0  0  0  0  0  0
   19.5416  -21.5870  -13.2947 C   0  0  1  0  0  0  0  0  0  0  0  0
   19.5184  -20.5974  -12.1528 C   0  0  0  0  0  0  0  0  0  0  0  0
   18.1541  -20.0365  -11.9171 C   0  0  0  0  0  0  0  0  0  0  0  0
   17.7624  -19.1597  -13.0459 C   0  0  0  0  0  0  0  0  0  0  0  0
   18.5502  -18.2765  -13.4374 O   0  0  0  0  0  0  0  0  0  0  0  0
   20.9499  -21.8897  -13.6275 C   0  0  0  0  0  0  0  0  0  0  0  0
   21.5991  -22.7466  -12.9882 O   0  0  0  0  0  0  0  0  0  0  0  0
   16.5073  -19.3342  -13.6620 O   0  0  0  0  0  0  0  0  0  0  0  0
   25.3351  -22.4516  -15.9098 N   0  0  0  0  0  0  0  0  0  0  0  0
   24.5617  -21.7738  -16.9059 C   0  0  0  0  0  0  0  0  0  0  0  0
   25.0516  -21.6432  -18.0492 O   0  0  0  0  0  0  0  0  0  0  0  0
   23.2271  -21.2685  -16.5190 C   0  0  0  0  0  0  0  0  0  0  0  0
   22.9223  -21.5555  -15.0901 C   0  0  2  0  0  0  0  0  0  0  0  0
   21.5800  -21.2007  -14.6876 N   0  0  0  0  0  0  0  0  0  0  0  0
   23.9054  -20.7805  -14.2621 C   0  0  0  0  0  0  0  0  0  0  0  0
   23.7196  -19.5544  -14.0612 O   0  0  0  0  0  0  0  0  0  0  0  0
   25.1060  -21.3105   -9.4483 C   0  0  0  0  0  0  0  0  0  0  0  0
   24.8912  -20.8509  -10.8872 C   0  0  0  0  0  0  0  0  0  0  0  0
   26.1715  -21.0772  -11.6330 C   0  0  2  0  0  0  0  0  0  0  0  0
   27.3452  -20.4157  -10.9299 C   0  0  0  0  0  0  0  0  0  0  0  0
   26.0415  -20.6275  -13.0509 C   0  0  2  0  0  0  0  0  0  0  0  0
   25.0251  -21.4383  -13.7201 N   0  0  0  0  0  0  0  0  0  0  0  0
   27.3137  -20.6837  -13.7878 C   0  0  0  0  0  0  0  0  0  0  0  0
   28.2178  -19.6651  -13.9542 O   0  0  0  0  0  0  0  0  0  0  0  0
   27.6305  -21.7941  -14.3436 O   0  0  0  0  0  0  0  0  0  0  0  0
  2  7  1  0
  2  1  1  1
  3  2  1  0
  4  3  1  0
  5  4  1  0
  5  6  2  0
  7  8  2  0
  9  5  1  0
 10 11  1  0
 11 13  1  0
 12 11  2  0
 14 13  1  6
 15 14  1  0
 15  7  1  0
 16 17  2  0
 16 14  1  0
 19 18  1  0
 19 20  1  0
 20 22  1  0
 20 21  1  1
 22 24  1  0
 22 23  1  6
 23 16  1  0
 24 25  1  0
 26 24  2  0
M  END
$$$$
