ENI.pdb
     RDKit          3D

 26 25  0  0  1  0  0  0  0  0999 V2000
   21.0262  -27.5806  -12.1107 N   0  0  0  0  0  0  0  0  0  0  0  0
   19.7699  -27.8272  -11.4658 C   0  0  1  0  0  0  0  0  0  0  0  0
   19.7870  -29.0805  -10.6216 C   0  0  0  0  0  0  0  0  0  0  0  0
   19.6436  -30.3193  -11.4440 C   0  0  0  0  0  0  0  0  0  0  0  0
   18.2112  -30.6717  -11.5876 C   0  0  0  0  0  0  0  0  0  0  0  0
   17.3547  -30.0244  -10.9538 O   0  0  0  0  0  0  0  0  0  0  0  0
   19.4422  -26.6775  -10.5960 C   0  0  0  0  0  0  0  0  0  0  0  0
   20.3303  -26.0730   -9.9557 O   0  0  0  0  0  0  0  0  0  0  0  0
   17.8350  -31.7313  -12.4366 O   0  0  0  0  0  0  0  0  0  0  0  0
   19.0747  -23.3746  -12.2091 N   0  0  0  0  0  0  0  0  0  0  0  0
   18.2965  -23.0118  -11.0635 C   0  0  0  0  0  0  0  0  0  0  0  0
   18.5500  -21.9276  -10.4941 O   0  0  0  0  0  0  0  0  0  0  0  0
   17.2376  -23.9454  -10.6235 C   0  0  0  0  0  0  0  0  0  0  0  0
   17.7838  -25.0336   -9.7665 C   0  0  2  0  0  0  0  0  0  0  0  0
   18.1010  -26.2489  -10.4821 N   0  0  0  0  0  0  0  0  0  0  0  0
   16.7516  -25.3343   -8.7191 C   0  0  0  0  0  0  0  0  0  0  0  0
   15.7422  -26.0192   -9.0190 O   0  0  0  0  0  0  0  0  0  0  0  0
   18.1512  -26.6033   -3.7724 C   0  0  0  0  0  0  0  0  0  0  0  0
   17.5538  -26.4339   -5.1661 C   0  0  0  0  0  0  0  0  0  0  0  0
   16.5253  -25.3462   -5.0910 C   0  0  2  0  0  0  0  0  0  0  0  0
   15.4985  -25.6300   -4.0072 C   0  0  0  0  0  0  0  0  0  0  0  0
   15.8884  -25.1307   -6.4242 C   0  0  2  0  0  0  0  0  0  0  0  0
   16.9280  -24.8443   -7.4118 N   0  0  0  0  0  0  0  0  0  0  0  0
   14.8807  -24.0589   -6.4103 C   0  0  0  0  0  0  0  0  0  0  0  0
   13.5325  -24.1951   -6.1945 O   0  0  0  0  0  0  0  0  0  0  0  0
   15.2836  -22.8609   -6.6220 O   0  0  0  0  0  0  0  0  0  0  0  0
  2  7  1  0
  2  1  1  1
  3  2  1  0
  4  3  1  0
  5  4  1  0
  5  6  2  0
  7  8  2  0
  9  5  1  0
 10 11  1  0
 11 13  1  0
 12 11  2  0
 14 13  1  6
 15 14  1  0
 15  7  1  0
 16 17  2  0
 16 14  1  0
 19 18  1  0
 19 20  1  0
 20 22  1  0
 20 21  1  1
 22 24  1  0
 22 23  1  6
 23 16  1  0
 24 25  1  0
 26 24  2  0
M  END
$$$$
