ENI.pdb
     RDKit          3D

 26 25  0  0  1  0  0  0  0  0999 V2000
   20.2576  -20.5695  -14.2837 N   0  0  0  0  0  0  0  0  0  0  0  0
   20.8844  -19.8360  -13.2235 C   0  0  1  0  0  0  0  0  0  0  0  0
   19.9114  -19.4403  -12.1371 C   0  0  0  0  0  0  0  0  0  0  0  0
   18.8597  -18.5024  -12.6328 C   0  0  0  0  0  0  0  0  0  0  0  0
   17.5417  -18.8684  -12.0624 C   0  0  0  0  0  0  0  0  0  0  0  0
   16.8025  -19.6562  -12.6846 O   0  0  0  0  0  0  0  0  0  0  0  0
   21.9466  -20.6712  -12.6236 C   0  0  0  0  0  0  0  0  0  0  0  0
   21.6751  -21.7283  -12.0128 O   0  0  0  0  0  0  0  0  0  0  0  0
   17.1404  -18.3233  -10.8267 O   0  0  0  0  0  0  0  0  0  0  0  0
   26.3798  -23.0258  -12.3344 N   0  0  0  0  0  0  0  0  0  0  0  0
   25.8846  -22.8413  -13.6649 C   0  0  0  0  0  0  0  0  0  0  0  0
   26.3465  -23.5644  -14.5748 O   0  0  0  0  0  0  0  0  0  0  0  0
   24.8540  -21.8033  -13.8809 C   0  0  0  0  0  0  0  0  0  0  0  0
   24.3575  -21.2435  -12.5936 C   0  0  2  0  0  0  0  0  0  0  0  0
   23.2968  -20.2723  -12.7395 N   0  0  0  0  0  0  0  0  0  0  0  0
   25.5269  -20.5963  -11.9105 C   0  0  0  0  0  0  0  0  0  0  0  0
   25.9397  -19.4788  -12.3090 O   0  0  0  0  0  0  0  0  0  0  0  0
   26.5153  -19.9301   -6.6672 C   0  0  0  0  0  0  0  0  0  0  0  0
   26.4749  -19.7426   -8.1809 C   0  0  0  0  0  0  0  0  0  0  0  0
   27.3487  -20.7953   -8.7931 C   0  0  2  0  0  0  0  0  0  0  0  0
   28.7472  -20.7671   -8.1992 C   0  0  0  0  0  0  0  0  0  0  0  0
   27.3684  -20.6637  -10.2804 C   0  0  2  0  0  0  0  0  0  0  0  0
   26.1472  -21.2507  -10.8302 N   0  0  0  0  0  0  0  0  0  0  0  0
   28.5569  -21.2771  -10.8933 C   0  0  0  0  0  0  0  0  0  0  0  0
   29.8375  -20.7847  -10.8861 O   0  0  0  0  0  0  0  0  0  0  0  0
   28.4016  -22.3915  -11.5068 O   0  0  0  0  0  0  0  0  0  0  0  0
  2  7  1  0
  2  1  1  6
  3  2  1  0
  4  3  1  0
  5  4  1  0
  5  6  2  0
  7  8  2  0
  9  5  1  0
 10 11  1  0
 11 13  1  0
 12 11  2  0
 14 13  1  6
 15 14  1  0
 15  7  1  0
 16 17  2  0
 16 14  1  0
 19 18  1  0
 19 20  1  0
 20 22  1  0
 20 21  1  1
 22 24  1  0
 22 23  1  6
 23 16  1  0
 24 25  1  0
 26 24  2  0
M  END
$$$$
