ENI.pdb
     RDKit          3D

 26 25  0  0  1  0  0  0  0  0999 V2000
   23.9322  -33.9300  -17.6817 N   0  0  0  0  0  0  0  0  0  0  0  0
   24.2763  -34.6798  -16.5094 C   0  0  1  0  0  0  0  0  0  0  0  0
   25.7696  -34.7698  -16.2954 C   0  0  0  0  0  0  0  0  0  0  0  0
   26.3460  -36.0319  -16.8488 C   0  0  0  0  0  0  0  0  0  0  0  0
   26.1739  -37.1383  -15.8779 C   0  0  0  0  0  0  0  0  0  0  0  0
   25.4279  -38.0949  -16.1653 O   0  0  0  0  0  0  0  0  0  0  0  0
   23.6691  -34.0304  -15.3281 C   0  0  0  0  0  0  0  0  0  0  0  0
   22.8238  -33.1169  -15.4513 O   0  0  0  0  0  0  0  0  0  0  0  0
   26.8535  -37.0964  -14.6444 O   0  0  0  0  0  0  0  0  0  0  0  0
   21.1613  -32.2698  -11.4560 N   0  0  0  0  0  0  0  0  0  0  0  0
   21.2851  -33.6896  -11.5922 C   0  0  0  0  0  0  0  0  0  0  0  0
   20.8585  -34.4132  -10.6656 O   0  0  0  0  0  0  0  0  0  0  0  0
   21.9121  -34.2136  -12.8245 C   0  0  0  0  0  0  0  0  0  0  0  0
   23.3700  -33.9146  -12.8709 C   0  0  2  0  0  0  0  0  0  0  0  0
   24.0474  -34.4460  -14.0321 N   0  0  0  0  0  0  0  0  0  0  0  0
   23.9831  -34.5005  -11.6324 C   0  0  0  0  0  0  0  0  0  0  0  0
   24.3631  -35.6979  -11.6331 O   0  0  0  0  0  0  0  0  0  0  0  0
   26.9958  -32.4061   -6.7963 C   0  0  0  0  0  0  0  0  0  0  0  0
   26.3250  -33.6059   -7.4584 C   0  0  0  0  0  0  0  0  0  0  0  0
   25.5573  -33.1016   -8.6428 C   0  0  2  0  0  0  0  0  0  0  0  0
   24.5595  -32.0289   -8.2389 C   0  0  0  0  0  0  0  0  0  0  0  0
   24.9031  -34.2320   -9.3665 C   0  0  2  0  0  0  0  0  0  0  0  0
   24.1247  -33.6997  -10.4840 N   0  0  0  0  0  0  0  0  0  0  0  0
   24.0537  -35.0558   -8.4922 C   0  0  0  0  0  0  0  0  0  0  0  0
   22.6974  -34.9461   -8.3162 O   0  0  0  0  0  0  0  0  0  0  0  0
   24.6218  -35.9808   -7.8110 O   0  0  0  0  0  0  0  0  0  0  0  0
  2  7  1  0
  2  1  1  6
  3  2  1  0
  4  3  1  0
  5  4  1  0
  5  6  2  0
  7  8  2  0
  9  5  1  0
 10 11  1  0
 11 13  1  0
 12 11  2  0
 14 13  1  6
 15 14  1  0
 15  7  1  0
 16 17  2  0
 16 14  1  0
 19 18  1  0
 19 20  1  0
 20 22  1  0
 20 21  1  1
 22 24  1  0
 22 23  1  6
 23 16  1  0
 24 25  1  0
 26 24  2  0
M  END
$$$$
