VFP.pdb
     RDKit          3D

 26 27  0  0  1  0  0  0  0  0999 V2000
    6.9185  -22.3649   23.6590 C   0  0  0  0  0  0  0  0  0  0  0  0
    7.0186  -20.8764   23.6008 C   0  0  1  0  0  0  0  0  0  0  0  0
    7.4267  -20.4563   22.2101 C   0  0  0  0  0  0  0  0  0  0  0  0
    5.7642  -20.1685   24.0582 C   0  0  2  0  0  0  0  0  0  0  0  0
    4.6879  -20.5384   23.1555 N   0  0  0  0  0  0  0  0  0  0  0  0
    6.0000  -18.7037   24.0006 C   0  0  0  0  0  0  0  0  0  0  0  0
    5.7062  -18.1113   22.9311 O   0  0  0  0  0  0  0  0  0  0  0  0
    6.5446  -17.9720   25.1199 N   0  0  0  0  0  0  0  0  0  0  0  0
    6.8706  -16.6014   24.9440 C   0  0  1  0  0  0  0  0  0  0  0  0
    6.9162  -15.9910   26.3369 C   0  0  0  0  0  0  0  0  0  0  0  0
    7.0995  -14.5507   26.3778 C   0  0  0  0  0  0  0  0  0  0  0  0
    8.3583  -14.0028   26.4527 C   0  0  0  0  0  0  0  0  0  0  0  0
    8.5781  -12.6370   26.4938 C   0  0  0  0  0  0  0  0  0  0  0  0
    7.5140  -11.7636   26.4599 C   0  0  0  0  0  0  0  0  0  0  0  0
    6.2487  -12.2907   26.3851 C   0  0  0  0  0  0  0  0  0  0  0  0
    6.0324  -13.6488   26.3444 C   0  0  0  0  0  0  0  0  0  0  0  0
    8.0071  -16.2524   24.1111 C   0  0  0  0  0  0  0  0  0  0  0  0
    9.1057  -16.8181   24.4470 O   0  0  0  0  0  0  0  0  0  0  0  0
    8.0727  -15.3831   22.9904 N   0  0  0  0  0  0  0  0  0  0  0  0
    6.8674  -14.6661   22.5434 C   0  0  0  0  0  0  0  0  0  0  0  0
    7.3747  -13.6117   21.5721 C   0  0  0  0  0  0  0  0  0  0  0  0
    8.8553  -13.5260   21.8568 C   0  0  0  0  0  0  0  0  0  0  0  0
    9.1225  -15.0336   22.1179 C   0  0  1  0  0  0  0  0  0  0  0  0
   10.5037  -15.2064   22.5399 C   0  0  0  0  0  0  0  0  0  0  0  0
   11.0294  -15.4697   23.7671 O   0  0  0  0  0  0  0  0  0  0  0  0
   11.3760  -15.0876   21.5956 O   0  0  0  0  0  0  0  0  0  0  0  0
  2  4  1  0
  2  1  1  6
  3  2  1  0
  4  5  1  6
  6  4  1  0
  6  7  2  0
  8  6  1  0
  9  8  1  0
  9 10  1  1
 11 10  1  0
 11 12  2  0
 13 12  1  0
 14 13  2  0
 15 16  2  0
 15 14  1  0
 16 11  1  0
 17 19  1  0
 17  9  1  0
 18 17  2  0
 19 20  1  0
 21 20  1  0
 22 23  1  0
 22 21  1  0
 23 19  1  0
 23 24  1  1
 25 24  1  0
 26 24  2  0
M  END
$$$$
