VFP.pdb
     RDKit          3D

 26 27  0  0  1  0  0  0  0  0999 V2000
    7.6080  -20.3983   22.5461 C   0  0  0  0  0  0  0  0  0  0  0  0
    7.4579  -19.6809   21.2455 C   0  0  1  0  0  0  0  0  0  0  0  0
    6.9615  -20.6455   20.1964 C   0  0  0  0  0  0  0  0  0  0  0  0
    6.5895  -18.4472   21.3329 C   0  0  2  0  0  0  0  0  0  0  0  0
    6.4675  -17.8910   19.9967 N   0  0  0  0  0  0  0  0  0  0  0  0
    7.2465  -17.4693   22.2366 C   0  0  0  0  0  0  0  0  0  0  0  0
    8.2655  -16.8737   21.8030 O   0  0  0  0  0  0  0  0  0  0  0  0
    6.7481  -17.2004   23.5648 N   0  0  0  0  0  0  0  0  0  0  0  0
    7.4182  -16.2348   24.3612 C   0  0  1  0  0  0  0  0  0  0  0  0
    6.3479  -15.5625   25.2082 C   0  0  0  0  0  0  0  0  0  0  0  0
    6.7624  -14.3425   25.8788 C   0  0  0  0  0  0  0  0  0  0  0  0
    7.5818  -14.3888   26.9819 C   0  0  0  0  0  0  0  0  0  0  0  0
    8.0004  -13.2516   27.6506 C   0  0  0  0  0  0  0  0  0  0  0  0
    7.5977  -12.0075   27.2190 C   0  0  0  0  0  0  0  0  0  0  0  0
    6.7792  -11.9397   26.1190 C   0  0  0  0  0  0  0  0  0  0  0  0
    6.3642  -13.0714   25.4557 C   0  0  0  0  0  0  0  0  0  0  0  0
    8.5942  -16.6381   25.1104 C   0  0  0  0  0  0  0  0  0  0  0  0
    8.3530  -17.4106   26.1027 O   0  0  0  0  0  0  0  0  0  0  0  0
    9.9578  -16.3014   24.9017 N   0  0  0  0  0  0  0  0  0  0  0  0
   10.3644  -15.6083   23.6685 C   0  0  0  0  0  0  0  0  0  0  0  0
   11.7817  -15.1269   23.9372 C   0  0  0  0  0  0  0  0  0  0  0  0
   11.9235  -15.2088   25.4384 C   0  0  0  0  0  0  0  0  0  0  0  0
   11.1190  -16.5170   25.6702 C   0  0  1  0  0  0  0  0  0  0  0  0
   11.0074  -16.7605   27.0998 C   0  0  0  0  0  0  0  0  0  0  0  0
   11.8318  -17.4275   27.9525 O   0  0  0  0  0  0  0  0  0  0  0  0
    9.9504  -16.2650   27.6513 O   0  0  0  0  0  0  0  0  0  0  0  0
  2  4  1  0
  2  1  1  1
  3  2  1  0
  4  5  1  6
  6  4  1  0
  6  7  2  0
  8  6  1  0
  9  8  1  0
  9 10  1  1
 11 10  1  0
 11 12  2  0
 13 12  1  0
 14 13  2  0
 15 16  2  0
 15 14  1  0
 16 11  1  0
 17 19  1  0
 17  9  1  0
 18 17  2  0
 19 20  1  0
 21 20  1  0
 22 23  1  0
 22 21  1  0
 23 19  1  0
 23 24  1  1
 25 24  1  0
 26 24  2  0
M  END
$$$$
