VFP.pdb
     RDKit          3D

 26 27  0  0  1  0  0  0  0  0999 V2000
    6.4723  -22.4804   24.3596 C   0  0  0  0  0  0  0  0  0  0  0  0
    6.8615  -21.0450   24.2292 C   0  0  1  0  0  0  0  0  0  0  0  0
    7.8500  -20.8952   23.0989 C   0  0  0  0  0  0  0  0  0  0  0  0
    5.6832  -20.1113   24.0750 C   0  0  2  0  0  0  0  0  0  0  0  0
    5.0210  -20.4307   22.8223 N   0  0  0  0  0  0  0  0  0  0  0  0
    6.1868  -18.7148   24.0464 C   0  0  0  0  0  0  0  0  0  0  0  0
    6.4209  -18.2065   22.9204 O   0  0  0  0  0  0  0  0  0  0  0  0
    6.4048  -17.9554   25.2549 N   0  0  0  0  0  0  0  0  0  0  0  0
    6.9294  -16.6405   25.1477 C   0  0  1  0  0  0  0  0  0  0  0  0
    6.6652  -15.9647   26.4851 C   0  0  0  0  0  0  0  0  0  0  0  0
    7.0270  -14.5597   26.5529 C   0  0  0  0  0  0  0  0  0  0  0  0
    6.0894  -13.5794   26.3285 C   0  0  0  0  0  0  0  0  0  0  0  0
    6.3910  -12.2297   26.3832 C   0  0  0  0  0  0  0  0  0  0  0  0
    7.6731  -11.8184   26.6717 C   0  0  0  0  0  0  0  0  0  0  0  0
    8.6242  -12.7818   26.8990 C   0  0  0  0  0  0  0  0  0  0  0  0
    8.3223  -14.1230   26.8441 C   0  0  0  0  0  0  0  0  0  0  0  0
    8.2840  -16.4640   24.6568 C   0  0  0  0  0  0  0  0  0  0  0  0
    9.1899  -16.9815   25.3992 O   0  0  0  0  0  0  0  0  0  0  0  0
    8.7415  -15.8067   23.4843 N   0  0  0  0  0  0  0  0  0  0  0  0
    7.7727  -15.2999   22.4989 C   0  0  0  0  0  0  0  0  0  0  0  0
    8.5804  -14.3924   21.5842 C   0  0  0  0  0  0  0  0  0  0  0  0
    9.8467  -14.1159   22.3592 C   0  0  0  0  0  0  0  0  0  0  0  0
   10.0321  -15.5199   22.9969 C   0  0  1  0  0  0  0  0  0  0  0  0
   11.1610  -15.4814   23.9132 C   0  0  0  0  0  0  0  0  0  0  0  0
   11.2072  -15.5954   25.2684 O   0  0  0  0  0  0  0  0  0  0  0  0
   12.3092  -15.3075   23.3490 O   0  0  0  0  0  0  0  0  0  0  0  0
  2  4  1  0
  2  1  1  6
  3  2  1  0
  4  5  1  6
  6  4  1  0
  6  7  2  0
  8  6  1  0
  9  8  1  0
  9 10  1  1
 11 10  1  0
 11 12  2  0
 13 12  1  0
 14 13  2  0
 15 16  2  0
 15 14  1  0
 16 11  1  0
 17 19  1  0
 17  9  1  0
 18 17  2  0
 19 20  1  0
 21 20  1  0
 22 23  1  0
 22 21  1  0
 23 19  1  0
 23 24  1  1
 25 24  1  0
 26 24  2  0
M  END
$$$$
