VFP.pdb
     RDKit          3D

 26 27  0  0  1  0  0  0  0  0999 V2000
    6.3565  -22.2913   23.0817 C   0  0  0  0  0  0  0  0  0  0  0  0
    6.5699  -20.8147   23.1374 C   0  0  1  0  0  0  0  0  0  0  0  0
    6.9085  -20.3057   21.7577 C   0  0  0  0  0  0  0  0  0  0  0  0
    5.4119  -20.0598   23.7482 C   0  0  2  0  0  0  0  0  0  0  0  0
    4.2473  -20.2700   22.9060 N   0  0  0  0  0  0  0  0  0  0  0  0
    5.7584  -18.6167   23.7919 C   0  0  0  0  0  0  0  0  0  0  0  0
    5.4272  -17.9113   22.8051 O   0  0  0  0  0  0  0  0  0  0  0  0
    6.4486  -18.0294   24.9160 N   0  0  0  0  0  0  0  0  0  0  0  0
    6.8361  -16.6657   24.8405 C   0  0  1  0  0  0  0  0  0  0  0  0
    6.8462  -16.1446   26.2699 C   0  0  0  0  0  0  0  0  0  0  0  0
    6.9706  -14.7038   26.4046 C   0  0  0  0  0  0  0  0  0  0  0  0
    8.2047  -14.1132   26.5414 C   0  0  0  0  0  0  0  0  0  0  0  0
    8.3686  -12.7451   26.6724 C   0  0  0  0  0  0  0  0  0  0  0  0
    7.2711  -11.9135   26.6695 C   0  0  0  0  0  0  0  0  0  0  0  0
    6.0297  -12.4835   26.5341 C   0  0  0  0  0  0  0  0  0  0  0  0
    5.8690  -13.8438   26.4039 C   0  0  0  0  0  0  0  0  0  0  0  0
    8.0202  -16.3145   24.0778 C   0  0  0  0  0  0  0  0  0  0  0  0
    9.0965  -16.8827   24.4758 O   0  0  0  0  0  0  0  0  0  0  0  0
    8.1529  -15.4406   22.9666 N   0  0  0  0  0  0  0  0  0  0  0  0
    6.9805  -14.7067   22.4632 C   0  0  0  0  0  0  0  0  0  0  0  0
    7.5488  -13.6539   21.5245 C   0  0  0  0  0  0  0  0  0  0  0  0
    9.0141  -13.5880   21.8840 C   0  0  0  0  0  0  0  0  0  0  0  0
    9.2496  -15.0999   22.1501 C   0  0  1  0  0  0  0  0  0  0  0  0
   10.6055  -15.2918   22.6403 C   0  0  0  0  0  0  0  0  0  0  0  0
   11.7933  -15.3136   21.9769 O   0  0  0  0  0  0  0  0  0  0  0  0
   10.6982  -15.4746   23.9150 O   0  0  0  0  0  0  0  0  0  0  0  0
  2  4  1  0
  2  1  1  6
  3  2  1  0
  4  5  1  6
  6  4  1  0
  6  7  2  0
  8  6  1  0
  9  8  1  0
  9 10  1  1
 11 10  1  0
 11 12  2  0
 13 12  1  0
 14 13  2  0
 15 16  2  0
 15 14  1  0
 16 11  1  0
 17 19  1  0
 17  9  1  0
 18 17  2  0
 19 20  1  0
 21 20  1  0
 22 23  1  0
 22 21  1  0
 23 19  1  0
 23 24  1  1
 25 24  1  0
 26 24  2  0
M  END
$$$$
