VFP.pdb
     RDKit          3D

 26 27  0  0  1  0  0  0  0  0999 V2000
    2.8012  -18.6199   21.2136 C   0  0  0  0  0  0  0  0  0  0  0  0
    3.2940  -19.3673   22.4083 C   0  0  1  0  0  0  0  0  0  0  0  0
    2.7554  -20.7765   22.3742 C   0  0  0  0  0  0  0  0  0  0  0  0
    4.7975  -19.3419   22.5586 C   0  0  2  0  0  0  0  0  0  0  0  0
    5.1572  -20.2759   23.6114 N   0  0  0  0  0  0  0  0  0  0  0  0
    5.2126  -17.9659   22.9311 C   0  0  0  0  0  0  0  0  0  0  0  0
    4.9686  -17.0451   22.1103 O   0  0  0  0  0  0  0  0  0  0  0  0
    5.8719  -17.6783   24.1831 N   0  0  0  0  0  0  0  0  0  0  0  0
    6.4818  -16.4079   24.3557 C   0  0  1  0  0  0  0  0  0  0  0  0
    6.5116  -16.1483   25.8545 C   0  0  0  0  0  0  0  0  0  0  0  0
    6.7993  -14.7783   26.2417 C   0  0  0  0  0  0  0  0  0  0  0  0
    5.7888  -13.8539   26.3634 C   0  0  0  0  0  0  0  0  0  0  0  0
    6.0182  -12.5391   26.7296 C   0  0  0  0  0  0  0  0  0  0  0  0
    7.2995  -12.1069   26.9897 C   0  0  0  0  0  0  0  0  0  0  0  0
    8.3228  -13.0146   26.8739 C   0  0  0  0  0  0  0  0  0  0  0  0
    8.0925  -14.3212   26.5097 C   0  0  0  0  0  0  0  0  0  0  0  0
    7.7415  -16.1384   23.6867 C   0  0  0  0  0  0  0  0  0  0  0  0
    8.7261  -16.8429   24.1038 O   0  0  0  0  0  0  0  0  0  0  0  0
    8.0335  -15.2153   22.6480 N   0  0  0  0  0  0  0  0  0  0  0  0
    6.9662  -14.3637   22.0986 C   0  0  0  0  0  0  0  0  0  0  0  0
    7.6894  -13.3068   21.2785 C   0  0  0  0  0  0  0  0  0  0  0  0
    9.1191  -13.3772   21.7598 C   0  0  0  0  0  0  0  0  0  0  0  0
    9.2187  -14.9158   21.9472 C   0  0  1  0  0  0  0  0  0  0  0  0
   10.5094  -15.2417   22.5331 C   0  0  0  0  0  0  0  0  0  0  0  0
   11.7205  -15.4517   21.9493 O   0  0  0  0  0  0  0  0  0  0  0  0
   10.5060  -15.3532   23.8194 O   0  0  0  0  0  0  0  0  0  0  0  0
  2  4  1  0
  2  1  1  6
  3  2  1  0
  4  5  1  1
  6  4  1  0
  6  7  2  0
  8  6  1  0
  9  8  1  0
  9 10  1  1
 11 10  1  0
 11 12  2  0
 13 12  1  0
 14 13  2  0
 15 16  2  0
 15 14  1  0
 16 11  1  0
 17 19  1  0
 17  9  1  0
 18 17  2  0
 19 20  1  0
 21 20  1  0
 22 23  1  0
 22 21  1  0
 23 19  1  0
 23 24  1  1
 25 24  1  0
 26 24  2  0
M  END
$$$$
