VFP.pdb
     RDKit          3D

 26 27  0  0  1  0  0  0  0  0999 V2000
    6.8621  -22.3837   23.5425 C   0  0  0  0  0  0  0  0  0  0  0  0
    6.9795  -20.8958   23.5092 C   0  0  1  0  0  0  0  0  0  0  0  0
    7.3870  -20.4568   22.1241 C   0  0  0  0  0  0  0  0  0  0  0  0
    5.7355  -20.1810   23.9839 C   0  0  2  0  0  0  0  0  0  0  0  0
    4.6573  -20.5026   23.0652 N   0  0  0  0  0  0  0  0  0  0  0  0
    5.9971  -18.7194   23.9748 C   0  0  0  0  0  0  0  0  0  0  0  0
    5.7417  -18.0919   22.9155 O   0  0  0  0  0  0  0  0  0  0  0  0
    6.5239  -18.0294   25.1285 N   0  0  0  0  0  0  0  0  0  0  0  0
    6.8824  -16.6618   24.9992 C   0  0  1  0  0  0  0  0  0  0  0  0
    6.9104  -16.0923   26.4098 C   0  0  0  0  0  0  0  0  0  0  0  0
    7.0891  -14.6534   26.4950 C   0  0  0  0  0  0  0  0  0  0  0  0
    8.3445  -14.1055   26.6149 C   0  0  0  0  0  0  0  0  0  0  0  0
    8.5598  -12.7409   26.6990 C   0  0  0  0  0  0  0  0  0  0  0  0
    7.4946  -11.8689   26.6641 C   0  0  0  0  0  0  0  0  0  0  0  0
    6.2327  -12.3960   26.5447 C   0  0  0  0  0  0  0  0  0  0  0  0
    6.0209  -13.7529   26.4613 C   0  0  0  0  0  0  0  0  0  0  0  0
    8.0439  -16.3139   24.2011 C   0  0  0  0  0  0  0  0  0  0  0  0
    9.1422  -16.8319   24.6072 O   0  0  0  0  0  0  0  0  0  0  0  0
    8.1338  -15.4904   23.0478 N   0  0  0  0  0  0  0  0  0  0  0  0
    6.9097  -14.9699   22.4177 C   0  0  0  0  0  0  0  0  0  0  0  0
    7.3896  -13.8948   21.4551 C   0  0  0  0  0  0  0  0  0  0  0  0
    8.7965  -13.5892   21.9110 C   0  0  0  0  0  0  0  0  0  0  0  0
    9.2295  -15.0319   22.2896 C   0  0  1  0  0  0  0  0  0  0  0  0
   10.5560  -14.9903   22.8846 C   0  0  0  0  0  0  0  0  0  0  0  0
   11.7865  -14.9444   22.3054 O   0  0  0  0  0  0  0  0  0  0  0  0
   10.5697  -15.0019   24.1756 O   0  0  0  0  0  0  0  0  0  0  0  0
  2  4  1  0
  2  1  1  6
  3  2  1  0
  4  5  1  6
  6  4  1  0
  6  7  2  0
  8  6  1  0
  9  8  1  0
  9 10  1  1
 11 10  1  0
 11 12  2  0
 13 12  1  0
 14 13  2  0
 15 16  2  0
 15 14  1  0
 16 11  1  0
 17 19  1  0
 17  9  1  0
 18 17  2  0
 19 20  1  0
 21 20  1  0
 22 23  1  0
 22 21  1  0
 23 19  1  0
 23 24  1  1
 25 24  1  0
 26 24  2  0
M  END
$$$$
