VFP.pdb
     RDKit          3D

 26 27  0  0  1  0  0  0  0  0999 V2000
   11.2409  -19.0045   23.0057 C   0  0  0  0  0  0  0  0  0  0  0  0
   11.8640  -18.2162   21.9015 C   0  0  1  0  0  0  0  0  0  0  0  0
   12.3581  -19.1584   20.8312 C   0  0  0  0  0  0  0  0  0  0  0  0
   10.9576  -17.1471   21.3366 C   0  0  2  0  0  0  0  0  0  0  0  0
   11.6915  -16.4400   20.3016 N   0  0  0  0  0  0  0  0  0  0  0  0
   10.5880  -16.2137   22.4306 C   0  0  0  0  0  0  0  0  0  0  0  0
   11.4617  -15.3939   22.8124 O   0  0  0  0  0  0  0  0  0  0  0  0
    9.2809  -16.2328   23.0435 N   0  0  0  0  0  0  0  0  0  0  0  0
    9.0283  -15.3627   24.1366 C   0  0  1  0  0  0  0  0  0  0  0  0
    7.6371  -14.7887   23.9132 C   0  0  0  0  0  0  0  0  0  0  0  0
    7.2174  -13.7857   24.8763 C   0  0  0  0  0  0  0  0  0  0  0  0
    7.5006  -12.4552   24.6762 C   0  0  0  0  0  0  0  0  0  0  0  0
    7.1197  -11.4673   25.5675 C   0  0  0  0  0  0  0  0  0  0  0  0
    6.4274  -11.7970   26.7113 C   0  0  0  0  0  0  0  0  0  0  0  0
    6.1346  -13.1202   26.9297 C   0  0  0  0  0  0  0  0  0  0  0  0
    6.5142  -14.1007   26.0423 C   0  0  0  0  0  0  0  0  0  0  0  0
    9.2550  -15.8479   25.4858 C   0  0  0  0  0  0  0  0  0  0  0  0
    8.6828  -16.9619   25.7530 O   0  0  0  0  0  0  0  0  0  0  0  0
   10.0119  -15.2694   26.5387 N   0  0  0  0  0  0  0  0  0  0  0  0
   10.5460  -13.9052   26.3978 C   0  0  0  0  0  0  0  0  0  0  0  0
   10.9905  -13.5104   27.7976 C   0  0  0  0  0  0  0  0  0  0  0  0
   10.2964  -14.5017   28.7011 C   0  0  0  0  0  0  0  0  0  0  0  0
   10.4205  -15.7576   27.7958 C   0  0  1  0  0  0  0  0  0  0  0  0
    9.7030  -16.8622   28.4126 C   0  0  0  0  0  0  0  0  0  0  0  0
    8.5408  -17.4737   28.0562 O   0  0  0  0  0  0  0  0  0  0  0  0
   10.2580  -17.3404   29.4757 O   0  0  0  0  0  0  0  0  0  0  0  0
  2  4  1  0
  2  1  1  1
  3  2  1  0
  4  5  1  6
  6  4  1  0
  6  7  2  0
  8  6  1  0
  9  8  1  0
  9 10  1  1
 11 10  1  0
 11 12  2  0
 13 12  1  0
 14 13  2  0
 15 16  2  0
 15 14  1  0
 16 11  1  0
 17 19  1  0
 17  9  1  0
 18 17  2  0
 19 20  1  0
 21 20  1  0
 22 23  1  0
 22 21  1  0
 23 19  1  0
 23 24  1  1
 25 24  1  0
 26 24  2  0
M  END
$$$$
