VFP.pdb
     RDKit          3D

 26 27  0  0  1  0  0  0  0  0999 V2000
    8.0034  -20.4816   22.9841 C   0  0  0  0  0  0  0  0  0  0  0  0
    6.5548  -20.7207   22.7130 C   0  0  1  0  0  0  0  0  0  0  0  0
    6.3231  -22.1960   22.4965 C   0  0  0  0  0  0  0  0  0  0  0  0
    5.6404  -20.1564   23.7757 C   0  0  2  0  0  0  0  0  0  0  0  0
    4.2716  -20.4540   23.3913 N   0  0  0  0  0  0  0  0  0  0  0  0
    5.8450  -18.6873   23.8445 C   0  0  0  0  0  0  0  0  0  0  0  0
    5.4865  -18.0054   22.8507 O   0  0  0  0  0  0  0  0  0  0  0  0
    6.4313  -18.0500   24.9998 N   0  0  0  0  0  0  0  0  0  0  0  0
    6.8056  -16.6836   24.9073 C   0  0  1  0  0  0  0  0  0  0  0  0
    6.8549  -16.1566   26.3337 C   0  0  0  0  0  0  0  0  0  0  0  0
    7.0734  -14.7262   26.4599 C   0  0  0  0  0  0  0  0  0  0  0  0
    6.0149  -13.8488   26.4535 C   0  0  0  0  0  0  0  0  0  0  0  0
    6.1779  -12.4795   26.5710 C   0  0  0  0  0  0  0  0  0  0  0  0
    7.4389  -11.9416   26.7014 C   0  0  0  0  0  0  0  0  0  0  0  0
    8.5093  -12.8009   26.7101 C   0  0  0  0  0  0  0  0  0  0  0  0
    8.3450  -14.1619   26.5931 C   0  0  0  0  0  0  0  0  0  0  0  0
    7.9632  -16.3264   24.1077 C   0  0  0  0  0  0  0  0  0  0  0  0
    9.0743  -16.7891   24.5450 O   0  0  0  0  0  0  0  0  0  0  0  0
    8.0376  -15.5460   22.9239 N   0  0  0  0  0  0  0  0  0  0  0  0
    6.8033  -15.1032   22.2554 C   0  0  0  0  0  0  0  0  0  0  0  0
    7.2535  -14.0475   21.2576 C   0  0  0  0  0  0  0  0  0  0  0  0
    8.6387  -13.6646   21.7216 C   0  0  0  0  0  0  0  0  0  0  0  0
    9.1254  -15.0716   22.1642 C   0  0  1  0  0  0  0  0  0  0  0  0
   10.4391  -14.9503   22.7765 C   0  0  0  0  0  0  0  0  0  0  0  0
   11.6709  -14.8179   22.2136 O   0  0  0  0  0  0  0  0  0  0  0  0
   10.4378  -14.9751   24.0674 O   0  0  0  0  0  0  0  0  0  0  0  0
  2  4  1  0
  2  1  1  1
  3  2  1  0
  4  5  1  6
  6  4  1  0
  6  7  2  0
  8  6  1  0
  9  8  1  0
  9 10  1  1
 11 10  1  0
 11 12  2  0
 13 12  1  0
 14 13  2  0
 15 16  2  0
 15 14  1  0
 16 11  1  0
 17 19  1  0
 17  9  1  0
 18 17  2  0
 19 20  1  0
 21 20  1  0
 22 23  1  0
 22 21  1  0
 23 19  1  0
 23 24  1  1
 25 24  1  0
 26 24  2  0
M  END
$$$$
