VFP.pdb
     RDKit          3D

 26 27  0  0  1  0  0  0  0  0999 V2000
    7.5086  -20.7735   22.2678 C   0  0  0  0  0  0  0  0  0  0  0  0
    6.8975  -21.1132   23.5869 C   0  0  1  0  0  0  0  0  0  0  0  0
    7.9626  -21.0789   24.6554 C   0  0  0  0  0  0  0  0  0  0  0  0
    5.7121  -20.2467   23.9445 C   0  0  2  0  0  0  0  0  0  0  0  0
    4.6912  -20.4456   22.9306 N   0  0  0  0  0  0  0  0  0  0  0  0
    6.1502  -18.8281   23.9586 C   0  0  0  0  0  0  0  0  0  0  0  0
    6.2065  -18.2282   22.8549 O   0  0  0  0  0  0  0  0  0  0  0  0
    6.5018  -18.1483   25.1830 N   0  0  0  0  0  0  0  0  0  0  0  0
    7.0291  -16.8324   25.1042 C   0  0  1  0  0  0  0  0  0  0  0  0
    6.5868  -16.1182   26.3727 C   0  0  0  0  0  0  0  0  0  0  0  0
    6.9087  -14.7032   26.4328 C   0  0  0  0  0  0  0  0  0  0  0  0
    5.9632  -13.7523   26.1288 C   0  0  0  0  0  0  0  0  0  0  0  0
    6.2272  -12.3944   26.1733 C   0  0  0  0  0  0  0  0  0  0  0  0
    7.4779  -11.9441   26.5328 C   0  0  0  0  0  0  0  0  0  0  0  0
    8.4362  -12.8777   26.8402 C   0  0  0  0  0  0  0  0  0  0  0  0
    8.1717  -14.2271   26.7954 C   0  0  0  0  0  0  0  0  0  0  0  0
    8.4358  -16.6585   24.7910 C   0  0  0  0  0  0  0  0  0  0  0  0
    9.2379  -17.1914   25.6349 O   0  0  0  0  0  0  0  0  0  0  0  0
    9.0412  -15.9890   23.6949 N   0  0  0  0  0  0  0  0  0  0  0  0
    8.2097  -15.2368   22.7414 C   0  0  0  0  0  0  0  0  0  0  0  0
    9.1931  -14.4054   21.9326 C   0  0  0  0  0  0  0  0  0  0  0  0
   10.4590  -14.4222   22.7561 C   0  0  0  0  0  0  0  0  0  0  0  0
   10.3788  -15.8881   23.2633 C   0  0  1  0  0  0  0  0  0  0  0  0
   11.4635  -16.1271   24.2024 C   0  0  0  0  0  0  0  0  0  0  0  0
   11.4454  -16.3032   25.5516 O   0  0  0  0  0  0  0  0  0  0  0  0
   12.6382  -16.1779   23.6692 O   0  0  0  0  0  0  0  0  0  0  0  0
  2  4  1  0
  2  1  1  6
  3  2  1  0
  4  5  1  6
  6  4  1  0
  6  7  2  0
  8  6  1  0
  9  8  1  0
  9 10  1  1
 11 10  1  0
 11 12  2  0
 13 12  1  0
 14 13  2  0
 15 16  2  0
 15 14  1  0
 16 11  1  0
 17 19  1  0
 17  9  1  0
 18 17  2  0
 19 20  1  0
 21 20  1  0
 22 23  1  0
 22 21  1  0
 23 19  1  0
 23 24  1  1
 25 24  1  0
 26 24  2  0
M  END
$$$$
