VFP.pdb
     RDKit          3D

 26 27  0  0  1  0  0  0  0  0999 V2000
    7.8489  -20.9952   24.0260 C   0  0  0  0  0  0  0  0  0  0  0  0
    6.6790  -20.9830   23.0986 C   0  0  1  0  0  0  0  0  0  0  0  0
    6.2065  -22.3978   22.8704 C   0  0  0  0  0  0  0  0  0  0  0  0
    5.5561  -20.0803   23.5547 C   0  0  2  0  0  0  0  0  0  0  0  0
    4.4936  -20.1549   22.5672 N   0  0  0  0  0  0  0  0  0  0  0  0
    6.0732  -18.6914   23.6465 C   0  0  0  0  0  0  0  0  0  0  0  0
    6.3152  -18.0910   22.5685 O   0  0  0  0  0  0  0  0  0  0  0  0
    6.2953  -18.0403   24.9159 N   0  0  0  0  0  0  0  0  0  0  0  0
    6.8739  -16.7438   24.9244 C   0  0  1  0  0  0  0  0  0  0  0  0
    6.4558  -16.0979   26.2369 C   0  0  0  0  0  0  0  0  0  0  0  0
    6.8351  -14.7044   26.3917 C   0  0  0  0  0  0  0  0  0  0  0  0
    8.0746  -14.3617   26.8782 C   0  0  0  0  0  0  0  0  0  0  0  0
    8.4767  -13.0475   27.0414 C   0  0  0  0  0  0  0  0  0  0  0  0
    7.6242  -12.0173   26.7125 C   0  0  0  0  0  0  0  0  0  0  0  0
    6.3818  -12.3383   26.2250 C   0  0  0  0  0  0  0  0  0  0  0  0
    5.9840  -13.6455   26.0635 C   0  0  0  0  0  0  0  0  0  0  0  0
    8.2873  -16.6049   24.6242 C   0  0  0  0  0  0  0  0  0  0  0  0
    9.0642  -17.2415   25.4184 O   0  0  0  0  0  0  0  0  0  0  0  0
    8.9230  -15.8719   23.5875 N   0  0  0  0  0  0  0  0  0  0  0  0
    8.1148  -15.1000   22.6296 C   0  0  0  0  0  0  0  0  0  0  0  0
    9.1104  -14.2082   21.9042 C   0  0  0  0  0  0  0  0  0  0  0  0
   10.3375  -14.2287   22.7843 C   0  0  0  0  0  0  0  0  0  0  0  0
   10.2754  -15.7172   23.2235 C   0  0  1  0  0  0  0  0  0  0  0  0
   11.3225  -15.9694   24.2010 C   0  0  0  0  0  0  0  0  0  0  0  0
   11.7892  -15.1972   25.2196 O   0  0  0  0  0  0  0  0  0  0  0  0
   11.9088  -17.1135   24.0815 O   0  0  0  0  0  0  0  0  0  0  0  0
  2  4  1  0
  2  1  1  1
  3  2  1  0
  4  5  1  6
  6  4  1  0
  6  7  2  0
  8  6  1  0
  9  8  1  0
  9 10  1  1
 11 10  1  0
 11 12  2  0
 13 12  1  0
 14 13  2  0
 15 16  2  0
 15 14  1  0
 16 11  1  0
 17 19  1  0
 17  9  1  0
 18 17  2  0
 19 20  1  0
 21 20  1  0
 22 23  1  0
 22 21  1  0
 23 19  1  0
 23 24  1  1
 25 24  1  0
 26 24  2  0
M  END
$$$$
