VFP.pdb
     RDKit          3D

 26 27  0  0  1  0  0  0  0  0999 V2000
    6.1318  -20.5554   20.3243 C   0  0  0  0  0  0  0  0  0  0  0  0
    6.8827  -19.5072   21.0769 C   0  0  1  0  0  0  0  0  0  0  0  0
    8.3516  -19.6099   20.7468 C   0  0  0  0  0  0  0  0  0  0  0  0
    6.3521  -18.1094   20.8576 C   0  0  2  0  0  0  0  0  0  0  0  0
    6.6238  -17.7393   19.4795 N   0  0  0  0  0  0  0  0  0  0  0  0
    7.0548  -17.1858   21.7837 C   0  0  0  0  0  0  0  0  0  0  0  0
    8.0872  -16.6101   21.3549 O   0  0  0  0  0  0  0  0  0  0  0  0
    6.5849  -16.9464   23.1278 N   0  0  0  0  0  0  0  0  0  0  0  0
    7.2813  -16.0096   23.9361 C   0  0  1  0  0  0  0  0  0  0  0  0
    6.2396  -15.3681   24.8406 C   0  0  0  0  0  0  0  0  0  0  0  0
    6.7281  -14.2907   25.6834 C   0  0  0  0  0  0  0  0  0  0  0  0
    6.4659  -12.9778   25.3705 C   0  0  0  0  0  0  0  0  0  0  0  0
    6.9118  -11.9211   26.1452 C   0  0  0  0  0  0  0  0  0  0  0  0
    7.6508  -12.1604   27.2823 C   0  0  0  0  0  0  0  0  0  0  0  0
    7.9234  -13.4647   27.6122 C   0  0  0  0  0  0  0  0  0  0  0  0
    7.4791  -14.5137   26.8407 C   0  0  0  0  0  0  0  0  0  0  0  0
    8.4805  -16.4392   24.6322 C   0  0  0  0  0  0  0  0  0  0  0  0
    8.2693  -17.2342   25.6135 O   0  0  0  0  0  0  0  0  0  0  0  0
    9.8381  -16.1067   24.3824 N   0  0  0  0  0  0  0  0  0  0  0  0
   10.2072  -15.3994   23.1455 C   0  0  0  0  0  0  0  0  0  0  0  0
   11.6353  -14.9287   23.3728 C   0  0  0  0  0  0  0  0  0  0  0  0
   11.8267  -15.0312   24.8673 C   0  0  0  0  0  0  0  0  0  0  0  0
   11.0232  -16.3382   25.1087 C   0  0  1  0  0  0  0  0  0  0  0  0
   10.9580  -16.6002   26.5379 C   0  0  0  0  0  0  0  0  0  0  0  0
    9.9153  -16.5151   27.4082 O   0  0  0  0  0  0  0  0  0  0  0  0
   12.0737  -16.9721   27.0704 O   0  0  0  0  0  0  0  0  0  0  0  0
  2  4  1  0
  2  1  1  6
  3  2  1  0
  4  5  1  6
  6  4  1  0
  6  7  2  0
  8  6  1  0
  9  8  1  0
  9 10  1  1
 11 10  1  0
 11 12  2  0
 13 12  1  0
 14 13  2  0
 15 16  2  0
 15 14  1  0
 16 11  1  0
 17 19  1  0
 17  9  1  0
 18 17  2  0
 19 20  1  0
 21 20  1  0
 22 23  1  0
 22 21  1  0
 23 19  1  0
 23 24  1  1
 25 24  1  0
 26 24  2  0
M  END
$$$$
