VFP.pdb
     RDKit          3D

 26 27  0  0  1  0  0  0  0  0999 V2000
    6.5812  -22.2936   23.5201 C   0  0  0  0  0  0  0  0  0  0  0  0
    6.7706  -20.8135   23.4709 C   0  0  1  0  0  0  0  0  0  0  0  0
    7.2846  -20.4199   22.1078 C   0  0  0  0  0  0  0  0  0  0  0  0
    5.5343  -20.0334   23.8541 C   0  0  2  0  0  0  0  0  0  0  0  0
    4.4988  -20.3301   22.8796 N   0  0  0  0  0  0  0  0  0  0  0  0
    5.8618  -18.5854   23.8283 C   0  0  0  0  0  0  0  0  0  0  0  0
    5.6606  -17.9651   22.7533 O   0  0  0  0  0  0  0  0  0  0  0  0
    6.3914  -17.9003   24.9837 N   0  0  0  0  0  0  0  0  0  0  0  0
    6.7307  -16.5268   24.8649 C   0  0  1  0  0  0  0  0  0  0  0  0
    6.6543  -15.9449   26.2686 C   0  0  0  0  0  0  0  0  0  0  0  0
    6.8522  -14.5086   26.3569 C   0  0  0  0  0  0  0  0  0  0  0  0
    8.1017  -13.9826   26.5862 C   0  0  0  0  0  0  0  0  0  0  0  0
    8.3347  -12.6214   26.6775 C   0  0  0  0  0  0  0  0  0  0  0  0
    7.2941  -11.7305   26.5376 C   0  0  0  0  0  0  0  0  0  0  0  0
    6.0385  -12.2355   26.3081 C   0  0  0  0  0  0  0  0  0  0  0  0
    5.8090  -13.5891   26.2177 C   0  0  0  0  0  0  0  0  0  0  0  0
    7.9352  -16.1622   24.1415 C   0  0  0  0  0  0  0  0  0  0  0  0
    9.0159  -16.6423   24.6329 O   0  0  0  0  0  0  0  0  0  0  0  0
    8.0835  -15.3584   22.9805 N   0  0  0  0  0  0  0  0  0  0  0  0
    6.8984  -14.7666   22.3387 C   0  0  0  0  0  0  0  0  0  0  0  0
    7.4511  -13.7349   21.3678 C   0  0  0  0  0  0  0  0  0  0  0  0
    8.8727  -13.5159   21.8279 C   0  0  0  0  0  0  0  0  0  0  0  0
    9.2099  -14.9795   22.2235 C   0  0  1  0  0  0  0  0  0  0  0  0
   10.5336  -15.0174   22.8250 C   0  0  0  0  0  0  0  0  0  0  0  0
   10.9167  -15.2373   24.1121 O   0  0  0  0  0  0  0  0  0  0  0  0
   11.5066  -14.8044   22.0035 O   0  0  0  0  0  0  0  0  0  0  0  0
  2  4  1  0
  2  1  1  6
  3  2  1  0
  4  5  1  6
  6  4  1  0
  6  7  2  0
  8  6  1  0
  9  8  1  0
  9 10  1  1
 11 10  1  0
 11 12  2  0
 13 12  1  0
 14 13  2  0
 15 16  2  0
 15 14  1  0
 16 11  1  0
 17 19  1  0
 17  9  1  0
 18 17  2  0
 19 20  1  0
 21 20  1  0
 22 23  1  0
 22 21  1  0
 23 19  1  0
 23 24  1  1
 25 24  1  0
 26 24  2  0
M  END
$$$$
