VFP.pdb
     RDKit          3D

 26 27  0  0  1  0  0  0  0  0999 V2000
    6.8441  -22.3713   23.8813 C   0  0  0  0  0  0  0  0  0  0  0  0
    7.0055  -20.8904   23.7826 C   0  0  1  0  0  0  0  0  0  0  0  0
    7.5691  -20.5377   22.4279 C   0  0  0  0  0  0  0  0  0  0  0  0
    5.7386  -20.1234   24.0831 C   0  0  2  0  0  0  0  0  0  0  0  0
    4.7489  -20.4860   23.0836 N   0  0  0  0  0  0  0  0  0  0  0  0
    6.0355  -18.6706   24.0061 C   0  0  0  0  0  0  0  0  0  0  0  0
    5.9251  -18.1155   22.8833 O   0  0  0  0  0  0  0  0  0  0  0  0
    6.4367  -17.9094   25.1656 N   0  0  0  0  0  0  0  0  0  0  0  0
    6.8069  -16.5496   24.9930 C   0  0  1  0  0  0  0  0  0  0  0  0
    6.7604  -15.9154   26.3752 C   0  0  0  0  0  0  0  0  0  0  0  0
    6.9837  -14.4806   26.4077 C   0  0  0  0  0  0  0  0  0  0  0  0
    5.9285  -13.6019   26.3381 C   0  0  0  0  0  0  0  0  0  0  0  0
    6.0961  -12.2283   26.3658 C   0  0  0  0  0  0  0  0  0  0  0  0
    7.3584  -11.6873   26.4665 C   0  0  0  0  0  0  0  0  0  0  0  0
    8.4256  -12.5478   26.5372 C   0  0  0  0  0  0  0  0  0  0  0  0
    8.2568  -13.9130   26.5095 C   0  0  0  0  0  0  0  0  0  0  0  0
    8.0113  -16.2406   24.2440 C   0  0  0  0  0  0  0  0  0  0  0  0
    9.0823  -16.7508   24.7259 O   0  0  0  0  0  0  0  0  0  0  0  0
    8.1685  -15.4620   23.0670 N   0  0  0  0  0  0  0  0  0  0  0  0
    6.9865  -14.9039   22.3903 C   0  0  0  0  0  0  0  0  0  0  0  0
    7.5411  -13.8867   21.4052 C   0  0  0  0  0  0  0  0  0  0  0  0
    8.9506  -13.6350   21.8853 C   0  0  0  0  0  0  0  0  0  0  0  0
    9.3026  -15.0835   22.3214 C   0  0  1  0  0  0  0  0  0  0  0  0
   10.6157  -15.0867   22.9472 C   0  0  0  0  0  0  0  0  0  0  0  0
   10.9751  -15.2171   24.2531 O   0  0  0  0  0  0  0  0  0  0  0  0
   11.6040  -14.9386   22.1298 O   0  0  0  0  0  0  0  0  0  0  0  0
  2  4  1  0
  2  1  1  6
  3  2  1  0
  4  5  1  6
  6  4  1  0
  6  7  2  0
  8  6  1  0
  9  8  1  0
  9 10  1  1
 11 10  1  0
 11 12  2  0
 13 12  1  0
 14 13  2  0
 15 16  2  0
 15 14  1  0
 16 11  1  0
 17 19  1  0
 17  9  1  0
 18 17  2  0
 19 20  1  0
 21 20  1  0
 22 23  1  0
 22 21  1  0
 23 19  1  0
 23 24  1  1
 25 24  1  0
 26 24  2  0
M  END
$$$$
