VFP.pdb
     RDKit          3D

 26 27  0  0  1  0  0  0  0  0999 V2000
    8.0582  -20.8067   24.0142 C   0  0  0  0  0  0  0  0  0  0  0  0
    6.7584  -20.9383   23.2918 C   0  0  1  0  0  0  0  0  0  0  0  0
    6.4040  -22.3993   23.1615 C   0  0  0  0  0  0  0  0  0  0  0  0
    5.6372  -20.1397   23.9156 C   0  0  2  0  0  0  0  0  0  0  0  0
    4.4500  -20.3229   23.0989 N   0  0  0  0  0  0  0  0  0  0  0  0
    6.0298  -18.7079   23.9343 C   0  0  0  0  0  0  0  0  0  0  0  0
    6.0753  -18.1053   22.8317 O   0  0  0  0  0  0  0  0  0  0  0  0
    6.3502  -18.0186   25.1619 N   0  0  0  0  0  0  0  0  0  0  0  0
    6.8270  -16.6833   25.0889 C   0  0  1  0  0  0  0  0  0  0  0  0
    6.5271  -16.0481   26.4385 C   0  0  0  0  0  0  0  0  0  0  0  0
    6.8783  -14.6436   26.5554 C   0  0  0  0  0  0  0  0  0  0  0  0
    5.9449  -13.6622   26.3187 C   0  0  0  0  0  0  0  0  0  0  0  0
    6.2367  -12.3130   26.4187 C   0  0  0  0  0  0  0  0  0  0  0  0
    7.5043  -11.9033   26.7675 C   0  0  0  0  0  0  0  0  0  0  0  0
    8.4510  -12.8678   27.0082 C   0  0  0  0  0  0  0  0  0  0  0  0
    8.1588  -14.2086   26.9082 C   0  0  0  0  0  0  0  0  0  0  0  0
    8.1781  -16.4463   24.6142 C   0  0  0  0  0  0  0  0  0  0  0  0
    9.0973  -16.9221   25.3682 O   0  0  0  0  0  0  0  0  0  0  0  0
    8.6199  -15.7697   23.4467 N   0  0  0  0  0  0  0  0  0  0  0  0
    7.6385  -15.2634   22.4735 C   0  0  0  0  0  0  0  0  0  0  0  0
    8.4290  -14.3353   21.5645 C   0  0  0  0  0  0  0  0  0  0  0  0
    9.6969  -14.0524   22.3345 C   0  0  0  0  0  0  0  0  0  0  0  0
    9.9037  -15.4614   22.9544 C   0  0  1  0  0  0  0  0  0  0  0  0
   11.0380  -15.4197   23.8639 C   0  0  0  0  0  0  0  0  0  0  0  0
   11.0890  -15.4949   25.2216 O   0  0  0  0  0  0  0  0  0  0  0  0
   12.1865  -15.2866   23.2893 O   0  0  0  0  0  0  0  0  0  0  0  0
  2  4  1  0
  2  1  1  1
  3  2  1  0
  4  5  1  6
  6  4  1  0
  6  7  2  0
  8  6  1  0
  9  8  1  0
  9 10  1  1
 11 10  1  0
 11 12  2  0
 13 12  1  0
 14 13  2  0
 15 16  2  0
 15 14  1  0
 16 11  1  0
 17 19  1  0
 17  9  1  0
 18 17  2  0
 19 20  1  0
 21 20  1  0
 22 23  1  0
 22 21  1  0
 23 19  1  0
 23 24  1  1
 25 24  1  0
 26 24  2  0
M  END
$$$$
