HGK.pdb
     RDKit          3D

 24 24  0  0  1  0  0  0  0  0999 V2000
   27.1875  -12.4376  -15.1106 N   0  0  0  0  0  0  0  0  0  0  0  0
   26.6955  -12.5678  -16.4677 C   0  0  1  0  0  0  0  0  0  0  0  0
   25.6112  -13.6260  -16.5710 C   0  0  0  0  0  0  0  0  0  0  0  0
   26.1883  -14.9383  -16.1882 C   0  0  0  0  0  0  0  0  0  0  0  0
   25.7102  -15.7670  -15.2046 C   0  0  0  0  0  0  0  0  0  0  0  0
   26.5101  -16.8479  -15.1751 N   0  0  0  0  0  0  0  0  0  0  0  0
   27.4627  -16.7050  -16.1109 C   0  0  0  0  0  0  0  0  0  0  0  0
   27.2546  -15.5331  -16.7233 N   0  0  0  0  0  0  0  0  0  0  0  0
   26.1865  -11.2370  -16.8871 C   0  0  0  0  0  0  0  0  0  0  0  0
   25.8329  -11.0166  -18.0868 O   0  0  0  0  0  0  0  0  0  0  0  0
   26.0611  -10.1349  -15.9913 N   0  0  0  0  0  0  0  0  0  0  0  0
   25.5045   -8.8695  -16.4077 C   0  0  0  0  0  0  0  0  0  0  0  0
   24.0352   -8.8990  -16.0682 C   0  0  0  0  0  0  0  0  0  0  0  0
   23.5327   -9.9066  -15.5055 O   0  0  0  0  0  0  0  0  0  0  0  0
   23.1949   -7.8009  -16.3732 N   0  0  0  0  0  0  0  0  0  0  0  0
   21.7880   -7.7012  -16.0874 C   0  0  1  0  0  0  0  0  0  0  0  0
   21.2296   -6.3246  -16.1754 C   0  0  0  0  0  0  0  0  0  0  0  0
   19.8405   -6.1777  -15.6709 C   0  0  0  0  0  0  0  0  0  0  0  0
   19.2410   -4.8293  -15.7879 C   0  0  0  0  0  0  0  0  0  0  0  0
   17.8755   -4.6863  -15.1807 C   0  0  0  0  0  0  0  0  0  0  0  0
   17.2845   -3.3986  -15.3197 N   0  0  0  0  0  0  0  0  0  0  0  0
   20.9919   -8.5882  -17.0159 C   0  0  0  0  0  0  0  0  0  0  0  0
   21.4712   -8.8258  -18.1418 O   0  0  0  0  0  0  0  0  0  0  0  0
   19.7779   -9.1150  -16.6285 O   0  0  0  0  0  0  0  0  0  0  0  0
  2  1  1  1
  2  9  1  0
  3  4  1  0
  3  2  1  0
  4  5  2  0
  5  6  1  0
  7  6  1  0
  8  4  1  0
  8  7  2  0
  9 10  2  0
 11 12  1  0
 11  9  1  0
 12 13  1  0
 13 14  2  0
 13 15  1  0
 15 16  1  0
 16 17  1  6
 16 22  1  0
 17 18  1  0
 19 18  1  0
 20 21  1  0
 20 19  1  0
 22 24  1  0
 23 22  2  0
M  END
$$$$
