HGK.pdb
     RDKit          3D

 24 24  0  0  1  0  0  0  0  0999 V2000
   31.4397  -31.0884  -17.9503 N   0  0  0  0  0  0  0  0  0  0  0  0
   30.3430  -30.2370  -17.5342 C   0  0  1  0  0  0  0  0  0  0  0  0
   29.5358  -29.7431  -18.7220 C   0  0  0  0  0  0  0  0  0  0  0  0
   30.3740  -28.8069  -19.5112 C   0  0  0  0  0  0  0  0  0  0  0  0
   31.2842  -27.9185  -18.9962 C   0  0  0  0  0  0  0  0  0  0  0  0
   31.8277  -27.2620  -20.0366 N   0  0  0  0  0  0  0  0  0  0  0  0
   31.2774  -27.7220  -21.1719 C   0  0  0  0  0  0  0  0  0  0  0  0
   30.3900  -28.6664  -20.8367 N   0  0  0  0  0  0  0  0  0  0  0  0
   29.4963  -31.0244  -16.6018 C   0  0  0  0  0  0  0  0  0  0  0  0
   28.4783  -30.5091  -16.0441 O   0  0  0  0  0  0  0  0  0  0  0  0
   29.7606  -32.3863  -16.2732 N   0  0  0  0  0  0  0  0  0  0  0  0
   28.9192  -33.1325  -15.3678 C   0  0  0  0  0  0  0  0  0  0  0  0
   28.3187  -34.2690  -16.1568 C   0  0  0  0  0  0  0  0  0  0  0  0
   28.4616  -34.3210  -17.4063 O   0  0  0  0  0  0  0  0  0  0  0  0
   27.5859  -35.2955  -15.5130 N   0  0  0  0  0  0  0  0  0  0  0  0
   27.0389  -36.4706  -16.1381 C   0  0  1  0  0  0  0  0  0  0  0  0
   26.6508  -37.5552  -15.1959 C   0  0  0  0  0  0  0  0  0  0  0  0
   26.2920  -38.8453  -15.8380 C   0  0  0  0  0  0  0  0  0  0  0  0
   25.7892  -39.9070  -14.9373 C   0  0  0  0  0  0  0  0  0  0  0  0
   25.3789  -41.1788  -15.6213 C   0  0  0  0  0  0  0  0  0  0  0  0
   24.8854  -42.1971  -14.7575 N   0  0  0  0  0  0  0  0  0  0  0  0
   25.8267  -36.1170  -16.9678 C   0  0  0  0  0  0  0  0  0  0  0  0
   25.1345  -35.1486  -16.5977 O   0  0  0  0  0  0  0  0  0  0  0  0
   25.5001  -36.8422  -18.0942 O   0  0  0  0  0  0  0  0  0  0  0  0
  2  1  1  6
  2  9  1  0
  3  4  1  0
  3  2  1  0
  4  5  2  0
  5  6  1  0
  7  6  1  0
  8  4  1  0
  8  7  2  0
  9 10  2  0
 11 12  1  0
 11  9  1  0
 12 13  1  0
 13 14  2  0
 13 15  1  0
 15 16  1  0
 16 17  1  1
 16 22  1  0
 17 18  1  0
 19 18  1  0
 20 21  1  0
 20 19  1  0
 22 24  1  0
 23 22  2  0
M  END
$$$$
