HGK.pdb
     RDKit          3D

 24 24  0  0  1  0  0  0  0  0999 V2000
   23.4227  -11.3719  -15.5417 N   0  0  0  0  0  0  0  0  0  0  0  0
   23.5738   -9.9540  -15.8013 C   0  0  1  0  0  0  0  0  0  0  0  0
   24.5493   -9.6933  -16.9356 C   0  0  0  0  0  0  0  0  0  0  0  0
   25.8519  -10.3179  -16.5966 C   0  0  0  0  0  0  0  0  0  0  0  0
   26.4038  -11.4080  -17.2211 C   0  0  0  0  0  0  0  0  0  0  0  0
   27.5809  -11.6545  -16.6189 N   0  0  0  0  0  0  0  0  0  0  0  0
   27.7652  -10.7481  -15.6452 C   0  0  0  0  0  0  0  0  0  0  0  0
   26.7007   -9.9367  -15.6421 N   0  0  0  0  0  0  0  0  0  0  0  0
   22.2274   -9.4128  -16.1182 C   0  0  0  0  0  0  0  0  0  0  0  0
   21.2440  -10.1851  -16.3402 O   0  0  0  0  0  0  0  0  0  0  0  0
   21.9488   -8.0166  -16.1940 N   0  0  0  0  0  0  0  0  0  0  0  0
   20.6232   -7.5143  -16.4678 C   0  0  0  0  0  0  0  0  0  0  0  0
   20.7232   -6.0105  -16.5271 C   0  0  0  0  0  0  0  0  0  0  0  0
   21.7847   -5.4297  -16.1805 O   0  0  0  0  0  0  0  0  0  0  0  0
   19.6320   -5.2248  -16.9711 N   0  0  0  0  0  0  0  0  0  0  0  0
   19.6250   -3.7955  -17.1374 C   0  0  1  0  0  0  0  0  0  0  0  0
   18.5071   -3.2694  -17.9671 C   0  0  0  0  0  0  0  0  0  0  0  0
   18.4741   -3.7697  -19.3650 C   0  0  0  0  0  0  0  0  0  0  0  0
   17.3565   -3.2865  -20.2068 C   0  0  0  0  0  0  0  0  0  0  0  0
   17.3619   -3.7906  -21.6208 C   0  0  0  0  0  0  0  0  0  0  0  0
   16.3365   -3.2616  -22.4547 N   0  0  0  0  0  0  0  0  0  0  0  0
   19.5759   -3.1035  -15.7952 C   0  0  0  0  0  0  0  0  0  0  0  0
   19.7846   -1.8748  -15.7695 O   0  0  0  0  0  0  0  0  0  0  0  0
   19.3094   -3.8092  -14.6409 O   0  0  0  0  0  0  0  0  0  0  0  0
  2  1  1  6
  2  9  1  0
  3  4  1  0
  3  2  1  0
  4  5  2  0
  5  6  1  0
  7  6  1  0
  8  4  1  0
  8  7  2  0
  9 10  2  0
 11 12  1  0
 11  9  1  0
 12 13  1  0
 13 14  2  0
 13 15  1  0
 15 16  1  0
 16 17  1  6
 16 22  1  0
 17 18  1  0
 19 18  1  0
 20 21  1  0
 20 19  1  0
 22 24  1  0
 23 22  2  0
M  END
$$$$
