HGK.pdb
     RDKit          3D

 24 24  0  0  1  0  0  0  0  0999 V2000
   20.7260  -17.4854  -16.9336 N   0  0  0  0  0  0  0  0  0  0  0  0
   20.6820  -17.2091  -15.5115 C   0  0  1  0  0  0  0  0  0  0  0  0
   22.0689  -17.2335  -14.8933 C   0  0  0  0  0  0  0  0  0  0  0  0
   22.6404  -18.5928  -15.0589 C   0  0  0  0  0  0  0  0  0  0  0  0
   23.7288  -18.9154  -15.8298 C   0  0  0  0  0  0  0  0  0  0  0  0
   23.9192  -20.2413  -15.7095 N   0  0  0  0  0  0  0  0  0  0  0  0
   22.9802  -20.7391  -14.8885 C   0  0  0  0  0  0  0  0  0  0  0  0
   22.2046  -19.7206  -14.4976 N   0  0  0  0  0  0  0  0  0  0  0  0
   20.0405  -15.8812  -15.3349 C   0  0  0  0  0  0  0  0  0  0  0  0
   19.9185  -15.3579  -14.1842 O   0  0  0  0  0  0  0  0  0  0  0  0
   19.5265  -15.1153  -16.4220 N   0  0  0  0  0  0  0  0  0  0  0  0
   18.8980  -13.8307  -16.2238 C   0  0  0  0  0  0  0  0  0  0  0  0
   17.4115  -14.0373  -16.3741 C   0  0  0  0  0  0  0  0  0  0  0  0
   16.9664  -14.8751  -17.2014 O   0  0  0  0  0  0  0  0  0  0  0  0
   16.4906  -13.2979  -15.5928 N   0  0  0  0  0  0  0  0  0  0  0  0
   15.0589  -13.2997  -15.7371 C   0  0  1  0  0  0  0  0  0  0  0  0
   14.3031  -13.3909  -14.4583 C   0  0  0  0  0  0  0  0  0  0  0  0
   12.8250  -13.3980  -14.6023 C   0  0  0  0  0  0  0  0  0  0  0  0
   12.0884  -14.3520  -13.7428 C   0  0  0  0  0  0  0  0  0  0  0  0
   10.6245  -14.4830  -14.0485 C   0  0  0  0  0  0  0  0  0  0  0  0
    9.9510  -15.5209  -13.3444 N   0  0  0  0  0  0  0  0  0  0  0  0
   14.5956  -12.0598  -16.4657 C   0  0  0  0  0  0  0  0  0  0  0  0
   13.6512  -12.1802  -17.2704 O   0  0  0  0  0  0  0  0  0  0  0  0
   15.1984  -10.8392  -16.2460 O   0  0  0  0  0  0  0  0  0  0  0  0
  2  1  1  6
  2  9  1  0
  3  4  1  0
  3  2  1  0
  4  5  2  0
  5  6  1  0
  7  6  1  0
  8  4  1  0
  8  7  2  0
  9 10  2  0
 11 12  1  0
 11  9  1  0
 12 13  1  0
 13 14  2  0
 13 15  1  0
 15 16  1  0
 16 17  1  1
 16 22  1  0
 17 18  1  0
 19 18  1  0
 20 21  1  0
 20 19  1  0
 22 24  1  0
 23 22  2  0
M  END
$$$$
