HGK.pdb
     RDKit          3D

 24 24  0  0  1  0  0  0  0  0999 V2000
   25.0010  -18.7353  -17.6353 N   0  0  0  0  0  0  0  0  0  0  0  0
   25.8533  -19.6303  -18.3925 C   0  0  1  0  0  0  0  0  0  0  0  0
   26.5367  -18.9128  -19.5432 C   0  0  0  0  0  0  0  0  0  0  0  0
   25.4976  -18.4119  -20.4766 C   0  0  0  0  0  0  0  0  0  0  0  0
   24.6860  -19.1897  -21.2634 C   0  0  0  0  0  0  0  0  0  0  0  0
   23.8900  -18.3557  -21.9561 N   0  0  0  0  0  0  0  0  0  0  0  0
   24.1906  -17.0916  -21.6166 C   0  0  0  0  0  0  0  0  0  0  0  0
   25.1752  -17.1399  -20.7111 N   0  0  0  0  0  0  0  0  0  0  0  0
   26.8496  -20.2009  -17.4501 C   0  0  0  0  0  0  0  0  0  0  0  0
   27.5999  -21.1667  -17.7921 O   0  0  0  0  0  0  0  0  0  0  0  0
   27.0307  -19.7150  -16.1220 N   0  0  0  0  0  0  0  0  0  0  0  0
   27.9293  -20.3531  -15.1894 C   0  0  0  0  0  0  0  0  0  0  0  0
   27.0768  -21.0189  -14.1383 C   0  0  0  0  0  0  0  0  0  0  0  0
   26.5606  -22.1456  -14.3582 O   0  0  0  0  0  0  0  0  0  0  0  0
   26.8403  -20.3947  -12.8895 N   0  0  0  0  0  0  0  0  0  0  0  0
   26.0218  -20.9084  -11.8232 C   0  0  1  0  0  0  0  0  0  0  0  0
   26.3295  -20.3528  -10.4773 C   0  0  0  0  0  0  0  0  0  0  0  0
   25.5333  -20.9288   -9.3639 C   0  0  0  0  0  0  0  0  0  0  0  0
   25.8161  -20.3946   -8.0125 C   0  0  0  0  0  0  0  0  0  0  0  0
   25.0836  -21.0766   -6.8936 C   0  0  0  0  0  0  0  0  0  0  0  0
   25.4109  -20.6147   -5.5874 N   0  0  0  0  0  0  0  0  0  0  0  0
   24.5589  -20.6596  -12.1076 C   0  0  0  0  0  0  0  0  0  0  0  0
   24.2439  -19.5577  -12.5978 O   0  0  0  0  0  0  0  0  0  0  0  0
   23.6080  -21.6199  -11.8333 O   0  0  0  0  0  0  0  0  0  0  0  0
  2  1  1  1
  2  9  1  0
  3  4  1  0
  3  2  1  0
  4  5  2  0
  5  6  1  0
  7  6  1  0
  8  4  1  0
  8  7  2  0
  9 10  2  0
 11 12  1  0
 11  9  1  0
 12 13  1  0
 13 14  2  0
 13 15  1  0
 15 16  1  0
 16 17  1  1
 16 22  1  0
 17 18  1  0
 19 18  1  0
 20 21  1  0
 20 19  1  0
 22 24  1  0
 23 22  2  0
M  END
$$$$
