HGK.pdb
     RDKit          3D

 24 24  0  0  1  0  0  0  0  0999 V2000
   21.9587  -20.1209  -17.3808 N   0  0  0  0  0  0  0  0  0  0  0  0
   22.5948  -19.2867  -16.3807 C   0  0  1  0  0  0  0  0  0  0  0  0
   22.8346  -17.8786  -16.8962 C   0  0  0  0  0  0  0  0  0  0  0  0
   23.8125  -17.9395  -18.0106 C   0  0  0  0  0  0  0  0  0  0  0  0
   25.1737  -17.8161  -17.8891 C   0  0  0  0  0  0  0  0  0  0  0  0
   25.6925  -17.9286  -19.1249 N   0  0  0  0  0  0  0  0  0  0  0  0
   24.6897  -18.1170  -19.9981 C   0  0  0  0  0  0  0  0  0  0  0  0
   23.5453  -18.1216  -19.3038 N   0  0  0  0  0  0  0  0  0  0  0  0
   21.7151  -19.2761  -15.1839 C   0  0  0  0  0  0  0  0  0  0  0  0
   20.4872  -18.9648  -15.2734 O   0  0  0  0  0  0  0  0  0  0  0  0
   22.1770  -19.6077  -13.8765 N   0  0  0  0  0  0  0  0  0  0  0  0
   21.3116  -19.5529  -12.7220 C   0  0  0  0  0  0  0  0  0  0  0  0
   20.6631  -20.9083  -12.5903 C   0  0  0  0  0  0  0  0  0  0  0  0
   20.7644  -21.7544  -13.5167 O   0  0  0  0  0  0  0  0  0  0  0  0
   19.9311  -21.2557  -11.4291 N   0  0  0  0  0  0  0  0  0  0  0  0
   19.3254  -22.5321  -11.1556 C   0  0  1  0  0  0  0  0  0  0  0  0
   19.1491  -22.8422   -9.7108 C   0  0  0  0  0  0  0  0  0  0  0  0
   18.7154  -24.2316   -9.4158 C   0  0  0  0  0  0  0  0  0  0  0  0
   18.6112  -24.5947   -7.9845 C   0  0  0  0  0  0  0  0  0  0  0  0
   18.0011  -25.9391   -7.7127 C   0  0  0  0  0  0  0  0  0  0  0  0
   17.9499  -26.3129   -6.3401 N   0  0  0  0  0  0  0  0  0  0  0  0
   17.9738  -22.6342  -11.8232 C   0  0  0  0  0  0  0  0  0  0  0  0
   17.2640  -21.6099  -11.8527 O   0  0  0  0  0  0  0  0  0  0  0  0
   17.5435  -23.8203  -12.3794 O   0  0  0  0  0  0  0  0  0  0  0  0
  2  1  1  6
  2  9  1  0
  3  4  1  0
  3  2  1  0
  4  5  2  0
  5  6  1  0
  7  6  1  0
  8  4  1  0
  8  7  2  0
  9 10  2  0
 11 12  1  0
 11  9  1  0
 12 13  1  0
 13 14  2  0
 13 15  1  0
 15 16  1  0
 16 17  1  1
 16 22  1  0
 17 18  1  0
 19 18  1  0
 20 21  1  0
 20 19  1  0
 22 24  1  0
 23 22  2  0
M  END
$$$$
