HGK.pdb
     RDKit          3D

 24 24  0  0  1  0  0  0  0  0999 V2000
   20.8195  -15.7910  -18.1649 N   0  0  0  0  0  0  0  0  0  0  0  0
   20.4708  -15.5465  -19.5503 C   0  0  1  0  0  0  0  0  0  0  0  0
   19.0118  -15.8658  -19.8252 C   0  0  0  0  0  0  0  0  0  0  0  0
   18.7934  -17.3177  -19.6105 C   0  0  0  0  0  0  0  0  0  0  0  0
   18.0088  -17.8732  -18.6315 C   0  0  0  0  0  0  0  0  0  0  0  0
   18.0779  -19.2082  -18.7796 N   0  0  0  0  0  0  0  0  0  0  0  0
   18.8811  -19.4855  -19.8196 C   0  0  0  0  0  0  0  0  0  0  0  0
   19.3120  -18.3208  -20.3189 N   0  0  0  0  0  0  0  0  0  0  0  0
   20.7707  -14.1210  -19.8406 C   0  0  0  0  0  0  0  0  0  0  0  0
   20.5782  -13.6309  -20.9963 O   0  0  0  0  0  0  0  0  0  0  0  0
   21.2855  -13.2200  -18.8629 N   0  0  0  0  0  0  0  0  0  0  0  0
   21.4806  -11.8170  -19.1422 C   0  0  0  0  0  0  0  0  0  0  0  0
   20.1697  -11.1242  -18.8656 C   0  0  0  0  0  0  0  0  0  0  0  0
   19.1603  -11.3654  -19.5779 O   0  0  0  0  0  0  0  0  0  0  0  0
   20.0471  -10.1936  -17.8054 N   0  0  0  0  0  0  0  0  0  0  0  0
   18.8487   -9.4963  -17.4200 C   0  0  1  0  0  0  0  0  0  0  0  0
   17.6880  -10.3746  -17.1104 C   0  0  0  0  0  0  0  0  0  0  0  0
   16.4166   -9.6593  -16.8322 C   0  0  0  0  0  0  0  0  0  0  0  0
   15.5680  -10.2261  -15.7599 C   0  0  0  0  0  0  0  0  0  0  0  0
   14.1891   -9.6402  -15.6643 C   0  0  0  0  0  0  0  0  0  0  0  0
   13.3257  -10.2771  -14.7286 N   0  0  0  0  0  0  0  0  0  0  0  0
   19.1061   -8.6210  -16.2156 C   0  0  0  0  0  0  0  0  0  0  0  0
   18.2206   -7.8049  -15.8934 O   0  0  0  0  0  0  0  0  0  0  0  0
   20.2804   -8.7237  -15.5001 O   0  0  0  0  0  0  0  0  0  0  0  0
  2  1  1  1
  2  9  1  0
  3  4  1  0
  3  2  1  0
  4  5  2  0
  5  6  1  0
  7  6  1  0
  8  4  1  0
  8  7  2  0
  9 10  2  0
 11 12  1  0
 11  9  1  0
 12 13  1  0
 13 14  2  0
 13 15  1  0
 15 16  1  0
 16 17  1  1
 16 22  1  0
 17 18  1  0
 19 18  1  0
 20 21  1  0
 20 19  1  0
 22 24  1  0
 23 22  2  0
M  END
$$$$
