HGK.pdb
     RDKit          3D

 24 24  0  0  1  0  0  0  0  0999 V2000
   18.4256  -22.4051  -11.7921 N   0  0  0  0  0  0  0  0  0  0  0  0
   18.8666  -23.7304  -11.4055 C   0  0  1  0  0  0  0  0  0  0  0  0
   20.0917  -24.1643  -12.1911 C   0  0  0  0  0  0  0  0  0  0  0  0
   19.7333  -24.2393  -13.6291 C   0  0  0  0  0  0  0  0  0  0  0  0
   19.9642  -23.2617  -14.5639 C   0  0  0  0  0  0  0  0  0  0  0  0
   19.4930  -23.7183  -15.7379 N   0  0  0  0  0  0  0  0  0  0  0  0
   18.9810  -24.9454  -15.5491 C   0  0  0  0  0  0  0  0  0  0  0  0
   19.1342  -25.2522  -14.2552 N   0  0  0  0  0  0  0  0  0  0  0  0
   19.1492  -23.6987   -9.9476 C   0  0  0  0  0  0  0  0  0  0  0  0
   20.0776  -22.9732   -9.4736 O   0  0  0  0  0  0  0  0  0  0  0  0
   18.4137  -24.4646   -8.9962 N   0  0  0  0  0  0  0  0  0  0  0  0
   18.6807  -24.3861   -7.5795 C   0  0  0  0  0  0  0  0  0  0  0  0
   17.6886  -25.2900   -6.8914 C   0  0  0  0  0  0  0  0  0  0  0  0
   16.8040  -25.8877   -7.5582 O   0  0  0  0  0  0  0  0  0  0  0  0
   17.7307  -25.4845   -5.4894 N   0  0  0  0  0  0  0  0  0  0  0  0
   16.6987  -26.0790   -4.6818 C   0  0  1  0  0  0  0  0  0  0  0  0
   17.1010  -26.3860   -3.2822 C   0  0  0  0  0  0  0  0  0  0  0  0
   18.2278  -27.3442   -3.1493 C   0  0  0  0  0  0  0  0  0  0  0  0
   18.6482  -27.6724   -1.7684 C   0  0  0  0  0  0  0  0  0  0  0  0
   19.7708  -28.6636   -1.6647 C   0  0  0  0  0  0  0  0  0  0  0  0
   20.2298  -28.9202   -0.3418 N   0  0  0  0  0  0  0  0  0  0  0  0
   15.4807  -25.1863   -4.6323 C   0  0  0  0  0  0  0  0  0  0  0  0
   15.6668  -23.9539   -4.6107 O   0  0  0  0  0  0  0  0  0  0  0  0
   14.2091  -25.7193   -4.6117 O   0  0  0  0  0  0  0  0  0  0  0  0
  2  1  1  6
  2  9  1  0
  3  4  1  0
  3  2  1  0
  4  5  2  0
  5  6  1  0
  7  6  1  0
  8  4  1  0
  8  7  2  0
  9 10  2  0
 11 12  1  0
 11  9  1  0
 12 13  1  0
 13 14  2  0
 13 15  1  0
 15 16  1  0
 16 17  1  1
 16 22  1  0
 17 18  1  0
 19 18  1  0
 20 21  1  0
 20 19  1  0
 22 24  1  0
 23 22  2  0
M  END
$$$$
