HGK.pdb
     RDKit          3D

 24 24  0  0  1  0  0  0  0  0999 V2000
   26.8468  -12.9469  -19.0155 N   0  0  0  0  0  0  0  0  0  0  0  0
   25.7200  -13.1108  -19.9122 C   0  0  1  0  0  0  0  0  0  0  0  0
   25.9374  -14.2605  -20.8802 C   0  0  0  0  0  0  0  0  0  0  0  0
   27.3390  -14.2161  -21.3654 C   0  0  0  0  0  0  0  0  0  0  0  0
   28.2882  -13.2999  -20.9881 C   0  0  0  0  0  0  0  0  0  0  0  0
   29.4179  -13.6055  -21.6510 N   0  0  0  0  0  0  0  0  0  0  0  0
   29.1879  -14.6807  -22.4221 C   0  0  0  0  0  0  0  0  0  0  0  0
   27.9129  -15.0442  -22.2382 N   0  0  0  0  0  0  0  0  0  0  0  0
   24.5135  -13.3362  -19.0756 C   0  0  0  0  0  0  0  0  0  0  0  0
   23.3664  -13.4793  -19.6014 O   0  0  0  0  0  0  0  0  0  0  0  0
   24.5564  -13.4066  -17.6523 N   0  0  0  0  0  0  0  0  0  0  0  0
   23.3651  -13.5961  -16.8589 C   0  0  0  0  0  0  0  0  0  0  0  0
   22.9981  -15.0560  -16.9533 C   0  0  0  0  0  0  0  0  0  0  0  0
   23.7009  -15.8454  -17.6367 O   0  0  0  0  0  0  0  0  0  0  0  0
   21.8622  -15.5665  -16.2793 N   0  0  0  0  0  0  0  0  0  0  0  0
   21.4250  -16.9375  -16.2676 C   0  0  1  0  0  0  0  0  0  0  0  0
   20.6175  -17.3246  -15.0790 C   0  0  0  0  0  0  0  0  0  0  0  0
   20.1720  -18.7412  -15.0577 C   0  0  0  0  0  0  0  0  0  0  0  0
   19.2534  -19.1218  -13.9611 C   0  0  0  0  0  0  0  0  0  0  0  0
   18.8383  -20.5645  -13.9518 C   0  0  0  0  0  0  0  0  0  0  0  0
   17.8779  -20.9104  -12.9596 N   0  0  0  0  0  0  0  0  0  0  0  0
   20.6143  -17.2484  -17.5041 C   0  0  0  0  0  0  0  0  0  0  0  0
   20.5369  -18.4402  -17.8610 O   0  0  0  0  0  0  0  0  0  0  0  0
   19.9832  -16.2465  -18.2109 O   0  0  0  0  0  0  0  0  0  0  0  0
  2  1  1  1
  2  9  1  0
  3  4  1  0
  3  2  1  0
  4  5  2  0
  5  6  1  0
  7  6  1  0
  8  4  1  0
  8  7  2  0
  9 10  2  0
 11 12  1  0
 11  9  1  0
 12 13  1  0
 13 14  2  0
 13 15  1  0
 15 16  1  0
 16 17  1  1
 16 22  1  0
 17 18  1  0
 19 18  1  0
 20 21  1  0
 20 19  1  0
 22 24  1  0
 23 22  2  0
M  END
$$$$
