HGK.pdb
     RDKit          3D

 24 24  0  0  1  0  0  0  0  0999 V2000
   13.4475  -23.9178   -1.2741 N   0  0  0  0  0  0  0  0  0  0  0  0
   12.1946  -24.3925   -0.7213 C   0  0  1  0  0  0  0  0  0  0  0  0
   12.3118  -25.8184   -0.2120 C   0  0  0  0  0  0  0  0  0  0  0  0
   12.4638  -26.7283   -1.3743 C   0  0  0  0  0  0  0  0  0  0  0  0
   13.5350  -27.5524   -1.6114 C   0  0  0  0  0  0  0  0  0  0  0  0
   13.2844  -28.2057   -2.7600 N   0  0  0  0  0  0  0  0  0  0  0  0
   12.0925  -27.8059   -3.2322 C   0  0  0  0  0  0  0  0  0  0  0  0
   11.6011  -26.9023   -2.3755 N   0  0  0  0  0  0  0  0  0  0  0  0
   11.8091  -23.4636    0.3718 C   0  0  0  0  0  0  0  0  0  0  0  0
   10.7619  -23.6602    1.0628 O   0  0  0  0  0  0  0  0  0  0  0  0
   12.5715  -22.3091    0.7160 N   0  0  0  0  0  0  0  0  0  0  0  0
   12.1857  -21.4307    1.7950 C   0  0  0  0  0  0  0  0  0  0  0  0
   13.2035  -20.3188    1.8459 C   0  0  0  0  0  0  0  0  0  0  0  0
   14.2449  -20.3772    1.1413 O   0  0  0  0  0  0  0  0  0  0  0  0
   13.0107  -19.1925    2.6822 N   0  0  0  0  0  0  0  0  0  0  0  0
   13.8763  -18.0470    2.7794 C   0  0  1  0  0  0  0  0  0  0  0  0
   13.1731  -16.7460    2.9456 C   0  0  0  0  0  0  0  0  0  0  0  0
   12.3514  -16.3241    1.7827 C   0  0  0  0  0  0  0  0  0  0  0  0
   11.6543  -15.0246    1.9110 C   0  0  0  0  0  0  0  0  0  0  0  0
   10.8462  -14.6160    0.7136 C   0  0  0  0  0  0  0  0  0  0  0  0
   10.1250  -13.3973    0.8589 N   0  0  0  0  0  0  0  0  0  0  0  0
   14.8423  -18.2059    3.9303 C   0  0  0  0  0  0  0  0  0  0  0  0
   14.6154  -19.1120    4.7556 O   0  0  0  0  0  0  0  0  0  0  0  0
   15.9358  -17.3758    4.0602 O   0  0  0  0  0  0  0  0  0  0  0  0
  2  1  1  1
  2  9  1  0
  3  4  1  0
  3  2  1  0
  4  5  2  0
  5  6  1  0
  7  6  1  0
  8  4  1  0
  8  7  2  0
  9 10  2  0
 11 12  1  0
 11  9  1  0
 12 13  1  0
 13 14  2  0
 13 15  1  0
 15 16  1  0
 16 17  1  1
 16 22  1  0
 17 18  1  0
 19 18  1  0
 20 21  1  0
 20 19  1  0
 22 24  1  0
 23 22  2  0
M  END
$$$$
