HGK.pdb
     RDKit          3D

 24 24  0  0  1  0  0  0  0  0999 V2000
   18.0881  -13.5809  -17.3876 N   0  0  0  0  0  0  0  0  0  0  0  0
   17.5744  -12.8390  -16.2534 C   0  0  1  0  0  0  0  0  0  0  0  0
   18.1161  -13.3768  -14.9406 C   0  0  0  0  0  0  0  0  0  0  0  0
   17.5835  -14.7458  -14.7308 C   0  0  0  0  0  0  0  0  0  0  0  0
   16.3263  -15.1770  -15.0720 C   0  0  0  0  0  0  0  0  0  0  0  0
   16.2425  -16.4714  -14.7167 N   0  0  0  0  0  0  0  0  0  0  0  0
   17.4103  -16.8446  -14.1687 C   0  0  0  0  0  0  0  0  0  0  0  0
   18.2217  -15.7802  -14.1833 N   0  0  0  0  0  0  0  0  0  0  0  0
   17.9509  -11.4149  -16.4446 C   0  0  0  0  0  0  0  0  0  0  0  0
   17.5777  -10.5205  -15.6239 O   0  0  0  0  0  0  0  0  0  0  0  0
   18.7416  -10.9601  -17.5403 N   0  0  0  0  0  0  0  0  0  0  0  0
   19.0677   -9.5655  -17.7221 C   0  0  0  0  0  0  0  0  0  0  0  0
   20.1189   -9.2194  -16.6974 C   0  0  0  0  0  0  0  0  0  0  0  0
   20.5212  -10.0886  -15.8807 O   0  0  0  0  0  0  0  0  0  0  0  0
   20.6722   -7.9176  -16.6325 N   0  0  0  0  0  0  0  0  0  0  0  0
   21.7251   -7.4838  -15.7527 C   0  0  1  0  0  0  0  0  0  0  0  0
   22.5893   -6.4027  -16.2997 C   0  0  0  0  0  0  0  0  0  0  0  0
   23.1662   -6.6786  -17.6401 C   0  0  0  0  0  0  0  0  0  0  0  0
   23.9664   -5.5898  -18.2448 C   0  0  0  0  0  0  0  0  0  0  0  0
   24.6465   -5.9428  -19.5357 C   0  0  0  0  0  0  0  0  0  0  0  0
   25.4861   -4.9268  -20.0736 N   0  0  0  0  0  0  0  0  0  0  0  0
   21.1566   -7.0061  -14.4368 C   0  0  0  0  0  0  0  0  0  0  0  0
   21.9499   -6.8399  -13.4898 O   0  0  0  0  0  0  0  0  0  0  0  0
   19.8069   -6.7635  -14.2919 O   0  0  0  0  0  0  0  0  0  0  0  0
  2  1  1  6
  2  9  1  0
  3  4  1  0
  3  2  1  0
  4  5  2  0
  5  6  1  0
  7  6  1  0
  8  4  1  0
  8  7  2  0
  9 10  2  0
 11 12  1  0
 11  9  1  0
 12 13  1  0
 13 14  2  0
 13 15  1  0
 15 16  1  0
 16 17  1  6
 16 22  1  0
 17 18  1  0
 19 18  1  0
 20 21  1  0
 20 19  1  0
 22 24  1  0
 23 22  2  0
M  END
$$$$
