HGK.pdb
     RDKit          3D

 24 24  0  0  1  0  0  0  0  0999 V2000
   28.5210  -22.9719  -17.1104 N   0  0  0  0  0  0  0  0  0  0  0  0
   29.2923  -21.7499  -17.2215 C   0  0  1  0  0  0  0  0  0  0  0  0
   29.2509  -21.1879  -18.6317 C   0  0  0  0  0  0  0  0  0  0  0  0
   30.1779  -21.9723  -19.4844 C   0  0  0  0  0  0  0  0  0  0  0  0
   30.9150  -23.0564  -19.0793 C   0  0  0  0  0  0  0  0  0  0  0  0
   31.6200  -23.4757  -20.1451 N   0  0  0  0  0  0  0  0  0  0  0  0
   31.3361  -22.6807  -21.1896 C   0  0  0  0  0  0  0  0  0  0  0  0
   30.4530  -21.7655  -20.7723 N   0  0  0  0  0  0  0  0  0  0  0  0
   28.7362  -20.7811  -16.2425 C   0  0  0  0  0  0  0  0  0  0  0  0
   29.1990  -19.6021  -16.1491 O   0  0  0  0  0  0  0  0  0  0  0  0
   27.6655  -21.0990  -15.3564 N   0  0  0  0  0  0  0  0  0  0  0  0
   27.0845  -20.1152  -14.4738 C   0  0  0  0  0  0  0  0  0  0  0  0
   25.9862  -20.8051  -13.7039 C   0  0  0  0  0  0  0  0  0  0  0  0
   25.1825  -21.5737  -14.2935 O   0  0  0  0  0  0  0  0  0  0  0  0
   25.8365  -20.6042  -12.3102 N   0  0  0  0  0  0  0  0  0  0  0  0
   24.7706  -21.1114  -11.4873 C   0  0  1  0  0  0  0  0  0  0  0  0
   24.8465  -20.7164  -10.0545 C   0  0  0  0  0  0  0  0  0  0  0  0
   23.7855  -21.2905   -9.1884 C   0  0  0  0  0  0  0  0  0  0  0  0
   23.7806  -20.8447   -7.7769 C   0  0  0  0  0  0  0  0  0  0  0  0
   22.6633  -21.3970   -6.9400 C   0  0  0  0  0  0  0  0  0  0  0  0
   22.6803  -21.0014   -5.5726 N   0  0  0  0  0  0  0  0  0  0  0  0
   23.4284  -20.6700  -12.0227 C   0  0  0  0  0  0  0  0  0  0  0  0
   23.3181  -19.4889  -12.4059 O   0  0  0  0  0  0  0  0  0  0  0  0
   22.3647  -21.5453  -12.0839 O   0  0  0  0  0  0  0  0  0  0  0  0
  2  1  1  6
  2  9  1  0
  3  4  1  0
  3  2  1  0
  4  5  2  0
  5  6  1  0
  7  6  1  0
  8  4  1  0
  8  7  2  0
  9 10  2  0
 11 12  1  0
 11  9  1  0
 12 13  1  0
 13 14  2  0
 13 15  1  0
 15 16  1  0
 16 17  1  1
 16 22  1  0
 17 18  1  0
 19 18  1  0
 20 21  1  0
 20 19  1  0
 22 24  1  0
 23 22  2  0
M  END
$$$$
