HGK.pdb
     RDKit          3D

 24 24  0  0  1  0  0  0  0  0999 V2000
   22.2300   -8.8294  -15.1255 N   0  0  0  0  0  0  0  0  0  0  0  0
   20.7818   -8.8766  -15.0922 C   0  0  1  0  0  0  0  0  0  0  0  0
   20.2380   -9.9978  -15.9603 C   0  0  0  0  0  0  0  0  0  0  0  0
   20.5413   -9.6907  -17.3800 C   0  0  0  0  0  0  0  0  0  0  0  0
   21.5812  -10.2122  -18.1075 C   0  0  0  0  0  0  0  0  0  0  0  0
   21.5041   -9.6838  -19.3419 N   0  0  0  0  0  0  0  0  0  0  0  0
   20.4485   -8.8550  -19.3910 C   0  0  0  0  0  0  0  0  0  0  0  0
   19.8683   -8.8683  -18.1848 N   0  0  0  0  0  0  0  0  0  0  0  0
   20.3737   -9.0512  -13.6747 C   0  0  0  0  0  0  0  0  0  0  0  0
   20.9300   -9.9188  -12.9327 O   0  0  0  0  0  0  0  0  0  0  0  0
   19.3499   -8.2733  -13.0590 N   0  0  0  0  0  0  0  0  0  0  0  0
   19.0271   -8.4042  -11.6578 C   0  0  0  0  0  0  0  0  0  0  0  0
   17.9422   -7.4003  -11.3578 C   0  0  0  0  0  0  0  0  0  0  0  0
   17.5983   -6.5571  -12.2267 O   0  0  0  0  0  0  0  0  0  0  0  0
   17.2915   -7.3849  -10.1003 N   0  0  0  0  0  0  0  0  0  0  0  0
   16.2374   -6.4912   -9.6988 C   0  0  1  0  0  0  0  0  0  0  0  0
   15.2697   -7.0655   -8.7250 C   0  0  0  0  0  0  0  0  0  0  0  0
   14.2647   -7.9892   -9.3099 C   0  0  0  0  0  0  0  0  0  0  0  0
   13.6413   -8.9542   -8.3764 C   0  0  0  0  0  0  0  0  0  0  0  0
   12.5381   -9.7852   -8.9645 C   0  0  0  0  0  0  0  0  0  0  0  0
   11.8879  -10.6608   -8.0495 N   0  0  0  0  0  0  0  0  0  0  0  0
   16.8099   -5.2283   -9.0986 C   0  0  0  0  0  0  0  0  0  0  0  0
   17.8597   -5.3276   -8.4338 O   0  0  0  0  0  0  0  0  0  0  0  0
   16.1904   -4.0100   -9.2816 O   0  0  0  0  0  0  0  0  0  0  0  0
  2  1  1  1
  2  9  1  0
  3  4  1  0
  3  2  1  0
  4  5  2  0
  5  6  1  0
  7  6  1  0
  8  4  1  0
  8  7  2  0
  9 10  2  0
 11 12  1  0
 11  9  1  0
 12 13  1  0
 13 14  2  0
 13 15  1  0
 15 16  1  0
 16 17  1  1
 16 22  1  0
 17 18  1  0
 19 18  1  0
 20 21  1  0
 20 19  1  0
 22 24  1  0
 23 22  2  0
M  END
$$$$
