HGK.pdb
     RDKit          3D

 24 24  0  0  1  0  0  0  0  0999 V2000
   25.2266  -15.1084  -17.2716 N   0  0  0  0  0  0  0  0  0  0  0  0
   24.9015  -15.0977  -15.8592 C   0  0  1  0  0  0  0  0  0  0  0  0
   26.1391  -14.9018  -15.0012 C   0  0  0  0  0  0  0  0  0  0  0  0
   27.1012  -15.9920  -15.2970 C   0  0  0  0  0  0  0  0  0  0  0  0
   27.0967  -17.2403  -14.7275 C   0  0  0  0  0  0  0  0  0  0  0  0
   28.1248  -17.9226  -15.2625 N   0  0  0  0  0  0  0  0  0  0  0  0
   28.7577  -17.1291  -16.1419 C   0  0  0  0  0  0  0  0  0  0  0  0
   28.1218  -15.9513  -16.1536 N   0  0  0  0  0  0  0  0  0  0  0  0
   23.9176  -14.0075  -15.6364 C   0  0  0  0  0  0  0  0  0  0  0  0
   23.5080  -13.7201  -14.4692 O   0  0  0  0  0  0  0  0  0  0  0  0
   23.3741  -13.2223  -16.6951 N   0  0  0  0  0  0  0  0  0  0  0  0
   22.4951  -12.1045  -16.4457 C   0  0  0  0  0  0  0  0  0  0  0  0
   22.2055  -11.4629  -17.7797 C   0  0  0  0  0  0  0  0  0  0  0  0
   22.6759  -11.9561  -18.8379 O   0  0  0  0  0  0  0  0  0  0  0  0
   21.4034  -10.2995  -17.8696 N   0  0  0  0  0  0  0  0  0  0  0  0
   20.9873   -9.6448  -19.0817 C   0  0  1  0  0  0  0  0  0  0  0  0
   19.9709   -8.5739  -18.8950 C   0  0  0  0  0  0  0  0  0  0  0  0
   18.8107   -8.9510  -18.0482 C   0  0  0  0  0  0  0  0  0  0  0  0
   17.4957   -8.4117  -18.4621 C   0  0  0  0  0  0  0  0  0  0  0  0
   16.3548   -8.7460  -17.5454 C   0  0  0  0  0  0  0  0  0  0  0  0
   15.0736   -8.3184  -17.9950 N   0  0  0  0  0  0  0  0  0  0  0  0
   22.1746   -9.0422  -19.7960 C   0  0  0  0  0  0  0  0  0  0  0  0
   23.1672   -8.7320  -19.1088 O   0  0  0  0  0  0  0  0  0  0  0  0
   22.1575   -8.8436  -21.1605 O   0  0  0  0  0  0  0  0  0  0  0  0
  2  1  1  6
  2  9  1  0
  3  4  1  0
  3  2  1  0
  4  5  2  0
  5  6  1  0
  7  6  1  0
  8  4  1  0
  8  7  2  0
  9 10  2  0
 11 12  1  0
 11  9  1  0
 12 13  1  0
 13 14  2  0
 13 15  1  0
 15 16  1  0
 16 17  1  1
 16 22  1  0
 17 18  1  0
 19 18  1  0
 20 21  1  0
 20 19  1  0
 22 24  1  0
 23 22  2  0
M  END
$$$$
