RHA.pdb
     RDKit          3D

 27 27  0  0  1  0  0  0  0  0999 V2000
    7.4719  -14.9946   16.6424 N   0  0  0  0  0  0  0  0  0  0  0  0
    8.4894  -14.0095   16.9188 C   0  0  0  0  0  0  0  0  0  0  0  0
    9.6579  -14.1721   16.4175 N   0  0  0  0  0  0  0  0  0  0  0  0
    8.2184  -12.8859   17.7208 N   0  0  0  0  0  0  0  0  0  0  0  0
    8.0270  -13.0373   19.1765 C   0  0  0  0  0  0  0  0  0  0  0  0
    7.5579  -14.4069   19.5031 C   0  0  0  0  0  0  0  0  0  0  0  0
    7.2497  -14.6992   20.9329 C   0  0  0  0  0  0  0  0  0  0  0  0
    8.4468  -15.0915   21.7146 C   0  0  2  0  0  0  0  0  0  0  0  0
    9.1812  -16.1413   21.0710 N   0  0  0  0  0  0  0  0  0  0  0  0
    8.1212  -15.4325   23.1306 C   0  0  0  0  0  0  0  0  0  0  0  0
    7.3475  -14.6826   23.7700 O   0  0  0  0  0  0  0  0  0  0  0  0
   10.4088  -13.4902   16.6001 N   0  0  0  0  0  0  0  0  0  0  0  0
    8.6478  -16.5699   23.7908 C   0  0  1  0  0  0  0  0  0  0  0  0
    8.3560  -16.8492   25.1613 C   0  0  0  0  0  0  0  0  0  0  0  0
    8.3280  -18.3617   25.4325 C   0  0  0  0  0  0  0  0  0  0  0  0
    7.2899  -19.0321   24.6565 C   0  0  0  0  0  0  0  0  0  0  0  0
    5.9912  -18.5967   24.5197 N   0  0  0  0  0  0  0  0  0  0  0  0
    5.3622  -19.4926   23.7278 C   0  0  0  0  0  0  0  0  0  0  0  0
    6.2377  -20.4416   23.3902 N   0  0  0  0  0  0  0  0  0  0  0  0
    7.4399  -20.1712   23.9584 C   0  0  0  0  0  0  0  0  0  0  0  0
    9.3114  -16.1921   26.0953 O   0  0  0  0  0  0  0  0  0  0  0  0
   10.5237  -16.5614   26.1471 C   0  0  0  0  0  0  0  0  0  0  0  0
    9.2673  -13.2806   28.5263 C   0  0  2  0  0  0  0  0  0  0  0  0
    9.8079  -14.5793   27.9690 N   0  0  0  0  0  0  0  0  0  0  0  0
    8.9385  -15.1412   26.9637 C   0  0  0  0  0  0  0  0  0  0  0  0
   10.0915  -15.5494   29.0611 O   0  0  0  0  0  0  0  0  0  0  0  0
   10.9150  -15.1952   29.9498 O   0  0  0  0  0  0  0  0  0  0  0  0
  2  4  1  0
  2  1  1  0
  3  2  2  0
  5  4  1  0
  5  6  1  0
  7  6  1  0
  7  8  1  0
  8  9  1  6
 10  8  1  0
 10 12  1  0
 11 10  2  0
 13 12  1  0
 13 14  1  6
 15 14  1  0
 15 16  2  0
 17 16  1  0
 18 17  1  0
 19 18  2  0
 19 15  1  0
 20 13  1  0
 21 20  2  0
 23 22  1  6
 23 24  1  0
 23 25  1  0
 24 20  1  0
 25 27  1  0
 26 25  2  0
M  END
$$$$
