RHA.pdb
     RDKit          3D

 27 27  0  0  1  0  0  0  0  0999 V2000
    7.5478  -13.7277   20.8908 N   0  0  0  0  0  0  0  0  0  0  0  0
    7.9007  -12.5389   20.1530 C   0  0  0  0  0  0  0  0  0  0  0  0
    8.2937  -11.5048   20.8007 N   0  0  0  0  0  0  0  0  0  0  0  0
    7.8210  -12.5009   18.7491 N   0  0  0  0  0  0  0  0  0  0  0  0
    7.2447  -13.6372   18.0037 C   0  0  0  0  0  0  0  0  0  0  0  0
    8.2955  -14.3398   17.2260 C   0  0  0  0  0  0  0  0  0  0  0  0
    9.3235  -15.0965   17.9975 C   0  0  0  0  0  0  0  0  0  0  0  0
   10.4568  -15.5539   17.1581 C   0  0  2  0  0  0  0  0  0  0  0  0
   10.0485  -16.5499   16.2111 N   0  0  0  0  0  0  0  0  0  0  0  0
   11.6248  -16.0075   17.9686 C   0  0  0  0  0  0  0  0  0  0  0  0
   11.8488  -17.2361   18.0707 O   0  0  0  0  0  0  0  0  0  0  0  0
    8.5046  -10.6241   20.3087 N   0  0  0  0  0  0  0  0  0  0  0  0
   12.4980  -15.1110   18.6324 C   0  0  2  0  0  0  0  0  0  0  0  0
   13.5540  -15.5724   19.4770 C   0  0  0  0  0  0  0  0  0  0  0  0
   14.6978  -14.5490   19.5562 C   0  0  0  0  0  0  0  0  0  0  0  0
   15.5050  -14.5436   18.3405 C   0  0  0  0  0  0  0  0  0  0  0  0
   15.4584  -13.5810   17.3576 N   0  0  0  0  0  0  0  0  0  0  0  0
   16.3545  -13.9449   16.4143 C   0  0  0  0  0  0  0  0  0  0  0  0
   16.9301  -15.0854   16.8002 N   0  0  0  0  0  0  0  0  0  0  0  0
   16.4142  -15.4714   17.9945 C   0  0  0  0  0  0  0  0  0  0  0  0
   13.0848  -15.9041   20.8506 O   0  0  0  0  0  0  0  0  0  0  0  0
   12.4601  -15.0468   21.5460 C   0  0  0  0  0  0  0  0  0  0  0  0
   12.3869  -19.0149   22.7772 C   0  0  2  0  0  0  0  0  0  0  0  0
   12.7565  -17.5483   22.7340 N   0  0  0  0  0  0  0  0  0  0  0  0
   13.3004  -17.1639   21.4539 C   0  0  0  0  0  0  0  0  0  0  0  0
   13.6726  -17.1976   23.8530 O   0  0  0  0  0  0  0  0  0  0  0  0
   14.8343  -16.8087   23.5492 O   0  0  0  0  0  0  0  0  0  0  0  0
  2  4  1  0
  2  1  1  0
  3  2  2  0
  5  4  1  0
  5  6  1  0
  7  6  1  0
  7  8  1  0
  8  9  1  1
 10  8  1  0
 10 12  1  0
 11 10  2  0
 13 12  1  0
 13 14  1  6
 15 14  1  0
 15 16  2  0
 17 16  1  0
 18 17  1  0
 19 18  2  0
 19 15  1  0
 20 13  1  0
 21 20  2  0
 23 22  1  6
 23 24  1  0
 23 25  1  0
 24 20  1  0
 25 27  1  0
 26 25  2  0
M  END
$$$$
