RHA.pdb
     RDKit          3D

 27 27  0  0  1  0  0  0  0  0999 V2000
    7.0512  -13.9219   16.8398 N   0  0  0  0  0  0  0  0  0  0  0  0
    7.9395  -13.0305   17.5458 C   0  0  0  0  0  0  0  0  0  0  0  0
    8.9611  -12.5617   16.9295 N   0  0  0  0  0  0  0  0  0  0  0  0
    7.7011  -12.6727   18.8853 N   0  0  0  0  0  0  0  0  0  0  0  0
    8.0769  -13.5885   19.9802 C   0  0  0  0  0  0  0  0  0  0  0  0
    7.0909  -14.6911   20.1019 C   0  0  0  0  0  0  0  0  0  0  0  0
    7.3415  -15.7166   21.1556 C   0  0  0  0  0  0  0  0  0  0  0  0
    8.1916  -16.8358   20.6836 C   0  0  2  0  0  0  0  0  0  0  0  0
    7.4516  -17.7612   19.8763 N   0  0  0  0  0  0  0  0  0  0  0  0
    8.9061  -17.5236   21.7988 C   0  0  0  0  0  0  0  0  0  0  0  0
    8.2322  -18.1082   22.6786 O   0  0  0  0  0  0  0  0  0  0  0  0
    9.6111  -11.9167   17.4024 N   0  0  0  0  0  0  0  0  0  0  0  0
   10.3180  -17.5475   21.9117 C   0  0  2  0  0  0  0  0  0  0  0  0
   10.9760  -18.1636   23.0203 C   0  0  0  0  0  0  0  0  0  0  0  0
   12.4995  -18.1980   22.8207 C   0  0  0  0  0  0  0  0  0  0  0  0
   13.1644  -18.9781   23.8592 C   0  0  0  0  0  0  0  0  0  0  0  0
   12.5333  -19.6190   24.9012 N   0  0  0  0  0  0  0  0  0  0  0  0
   13.4989  -20.2215   25.6292 C   0  0  0  0  0  0  0  0  0  0  0  0
   14.6774  -19.9623   25.0590 N   0  0  0  0  0  0  0  0  0  0  0  0
   14.4881  -19.1913   23.9585 C   0  0  0  0  0  0  0  0  0  0  0  0
   10.6569  -17.5018   24.3153 O   0  0  0  0  0  0  0  0  0  0  0  0
   10.8824  -16.2650   24.4831 C   0  0  0  0  0  0  0  0  0  0  0  0
    8.2554  -17.3119   26.7732 C   0  0  2  0  0  0  0  0  0  0  0  0
    9.7433  -17.5643   26.6647 N   0  0  0  0  0  0  0  0  0  0  0  0
   10.0968  -18.1918   25.4143 C   0  0  0  0  0  0  0  0  0  0  0  0
   10.2375  -18.3413   27.8336 O   0  0  0  0  0  0  0  0  0  0  0  0
   10.6501  -19.5141   27.6159 O   0  0  0  0  0  0  0  0  0  0  0  0
  2  4  1  0
  2  1  1  0
  3  2  2  0
  5  4  1  0
  5  6  1  0
  7  6  1  0
  7  8  1  0
  8  9  1  1
 10  8  1  0
 10 12  1  0
 11 10  2  0
 13 12  1  0
 13 14  1  6
 15 14  1  0
 15 16  2  0
 17 16  1  0
 18 17  1  0
 19 18  2  0
 19 15  1  0
 20 13  1  0
 21 20  2  0
 23 22  1  6
 23 24  1  0
 23 25  1  0
 24 20  1  0
 25 27  1  0
 26 25  2  0
M  END
$$$$
