RHA.pdb
     RDKit          3D

 27 27  0  0  1  0  0  0  0  0999 V2000
    8.1100  -13.2998   13.0069 N   0  0  0  0  0  0  0  0  0  0  0  0
    7.4954  -13.8101   14.2086 C   0  0  0  0  0  0  0  0  0  0  0  0
    7.0108  -14.9968   14.1976 N   0  0  0  0  0  0  0  0  0  0  0  0
    7.4231  -13.0318   15.3782 N   0  0  0  0  0  0  0  0  0  0  0  0
    8.3031  -13.3267   16.5260 C   0  0  0  0  0  0  0  0  0  0  0  0
    7.7288  -14.4111   17.3608 C   0  0  0  0  0  0  0  0  0  0  0  0
    8.4336  -14.7371   18.6342 C   0  0  0  0  0  0  0  0  0  0  0  0
    9.6749  -15.5203   18.4246 C   0  0  2  0  0  0  0  0  0  0  0  0
    9.6198  -16.2903   17.2165 N   0  0  0  0  0  0  0  0  0  0  0  0
   10.0261  -16.3655   19.6033 C   0  0  0  0  0  0  0  0  0  0  0  0
    9.2027  -17.2234   19.9984 O   0  0  0  0  0  0  0  0  0  0  0  0
    6.5863  -15.4001   15.0458 N   0  0  0  0  0  0  0  0  0  0  0  0
   11.2527  -16.2442   20.3016 C   0  0  1  0  0  0  0  0  0  0  0  0
   11.5965  -17.1161   21.3800 C   0  0  0  0  0  0  0  0  0  0  0  0
   13.1193  -17.2018   21.5693 C   0  0  0  0  0  0  0  0  0  0  0  0
   13.4802  -18.1078   22.6547 C   0  0  0  0  0  0  0  0  0  0  0  0
   12.8228  -18.2089   23.8599 N   0  0  0  0  0  0  0  0  0  0  0  0
   13.4675  -19.1557   24.5763 C   0  0  0  0  0  0  0  0  0  0  0  0
   14.4811  -19.6194   23.8424 N   0  0  0  0  0  0  0  0  0  0  0  0
   14.5037  -18.9794   22.6460 C   0  0  0  0  0  0  0  0  0  0  0  0
   10.9554  -16.7191   22.6638 O   0  0  0  0  0  0  0  0  0  0  0  0
   11.1204  -17.4139   23.7120 C   0  0  0  0  0  0  0  0  0  0  0  0
    7.9747  -15.1478   23.8617 C   0  0  1  0  0  0  0  0  0  0  0  0
    9.4792  -15.1873   24.0177 N   0  0  0  0  0  0  0  0  0  0  0  0
   10.1410  -15.5713   22.7943 C   0  0  0  0  0  0  0  0  0  0  0  0
    9.8729  -16.0589   25.1577 O   0  0  0  0  0  0  0  0  0  0  0  0
   10.5674  -17.0790   24.8928 O   0  0  0  0  0  0  0  0  0  0  0  0
  2  4  1  0
  2  1  1  0
  3  2  2  0
  5  4  1  0
  5  6  1  0
  7  6  1  0
  7  8  1  0
  8  9  1  6
 10  8  1  0
 10 12  1  0
 11 10  2  0
 13 12  1  0
 13 14  1  1
 15 14  1  0
 15 16  2  0
 17 16  1  0
 18 17  1  0
 19 18  2  0
 19 15  1  0
 20 13  1  0
 21 20  2  0
 23 22  1  6
 23 24  1  0
 23 25  1  0
 24 20  1  0
 25 27  1  0
 26 25  2  0
M  END
$$$$
