RHA.pdb
     RDKit          3D

 27 27  0  0  1  0  0  0  0  0999 V2000
    7.1810  -15.0093   15.3950 N   0  0  0  0  0  0  0  0  0  0  0  0
    7.9494  -14.0333   16.1294 C   0  0  0  0  0  0  0  0  0  0  0  0
    9.0624  -13.6285   15.6389 N   0  0  0  0  0  0  0  0  0  0  0  0
    7.4978  -13.5258   17.3612 N   0  0  0  0  0  0  0  0  0  0  0  0
    8.4522  -13.2709   18.4579 C   0  0  0  0  0  0  0  0  0  0  0  0
    8.7436  -14.5229   19.1997 C   0  0  0  0  0  0  0  0  0  0  0  0
    8.4902  -14.5192   20.6696 C   0  0  0  0  0  0  0  0  0  0  0  0
    9.6587  -14.0585   21.4573 C   0  0  2  0  0  0  0  0  0  0  0  0
   10.8934  -14.3121   20.7740 N   0  0  0  0  0  0  0  0  0  0  0  0
    9.6704  -14.6113   22.8434 C   0  0  0  0  0  0  0  0  0  0  0  0
   10.7727  -14.8371   23.3946 O   0  0  0  0  0  0  0  0  0  0  0  0
    9.7234  -13.0839   16.2123 N   0  0  0  0  0  0  0  0  0  0  0  0
    8.4883  -14.8952   23.5707 C   0  0  1  0  0  0  0  0  0  0  0  0
    8.5229  -15.2835   24.9452 C   0  0  0  0  0  0  0  0  0  0  0  0
    7.1409  -15.1440   25.6032 C   0  0  0  0  0  0  0  0  0  0  0  0
    6.7747  -13.7457   25.8030 C   0  0  0  0  0  0  0  0  0  0  0  0
    7.6051  -12.6674   25.5968 N   0  0  0  0  0  0  0  0  0  0  0  0
    6.8873  -11.5617   25.8926 C   0  0  0  0  0  0  0  0  0  0  0  0
    5.6642  -11.9431   26.2660 N   0  0  0  0  0  0  0  0  0  0  0  0
    5.5770  -13.2964   26.2162 C   0  0  0  0  0  0  0  0  0  0  0  0
    9.0287  -16.6708   25.1355 O   0  0  0  0  0  0  0  0  0  0  0  0
    8.9896  -17.2234   26.2765 C   0  0  0  0  0  0  0  0  0  0  0  0
   10.4896  -19.3994   22.9256 C   0  0  2  0  0  0  0  0  0  0  0  0
   10.0704  -18.7872   24.2443 N   0  0  0  0  0  0  0  0  0  0  0  0
    9.5725  -17.4424   24.0836 C   0  0  0  0  0  0  0  0  0  0  0  0
   11.1770  -18.8534   25.2370 O   0  0  0  0  0  0  0  0  0  0  0  0
   11.1784  -19.8295   26.0372 O   0  0  0  0  0  0  0  0  0  0  0  0
  2  4  1  0
  2  1  1  0
  3  2  2  0
  5  4  1  0
  5  6  1  0
  7  6  1  0
  7  8  1  0
  8  9  1  6
 10  8  1  0
 10 12  1  0
 11 10  2  0
 13 12  1  0
 13 14  1  1
 15 14  1  0
 15 16  2  0
 17 16  1  0
 18 17  1  0
 19 18  2  0
 19 15  1  0
 20 13  1  0
 21 20  2  0
 23 22  1  6
 23 24  1  0
 23 25  1  0
 24 20  1  0
 25 27  1  0
 26 25  2  0
M  END
$$$$
