RHA.pdb
     RDKit          3D

 27 27  0  0  1  0  0  0  0  0999 V2000
    9.1170  -16.4697   16.3855 N   0  0  0  0  0  0  0  0  0  0  0  0
    8.0952  -15.4966   16.0832 C   0  0  0  0  0  0  0  0  0  0  0  0
    7.9879  -15.0683   14.8798 N   0  0  0  0  0  0  0  0  0  0  0  0
    7.2253  -15.0185   17.0800 N   0  0  0  0  0  0  0  0  0  0  0  0
    7.5569  -13.7942   17.8349 C   0  0  0  0  0  0  0  0  0  0  0  0
    9.0025  -13.7608   18.1690 C   0  0  0  0  0  0  0  0  0  0  0  0
    9.3724  -13.3606   19.5574 C   0  0  0  0  0  0  0  0  0  0  0  0
    9.8262  -14.5021   20.3875 C   0  0  2  0  0  0  0  0  0  0  0  0
    9.0877  -15.6964   20.0978 N   0  0  0  0  0  0  0  0  0  0  0  0
    9.8203  -14.1889   21.8466 C   0  0  0  0  0  0  0  0  0  0  0  0
   10.4985  -13.2194   22.2591 O   0  0  0  0  0  0  0  0  0  0  0  0
    7.2397  -14.4086   14.6204 N   0  0  0  0  0  0  0  0  0  0  0  0
    9.0808  -14.9392   22.7937 C   0  0  1  0  0  0  0  0  0  0  0  0
    8.8140  -14.4433   24.1068 C   0  0  0  0  0  0  0  0  0  0  0  0
    7.3169  -14.5246   24.4444 C   0  0  0  0  0  0  0  0  0  0  0  0
    6.9749  -13.6938   25.5942 C   0  0  0  0  0  0  0  0  0  0  0  0
    7.8483  -12.8745   26.2730 N   0  0  0  0  0  0  0  0  0  0  0  0
    7.1403  -12.2857   27.2616 C   0  0  0  0  0  0  0  0  0  0  0  0
    5.8817  -12.7242   27.1948 N   0  0  0  0  0  0  0  0  0  0  0  0
    5.7613  -13.5996   26.1650 C   0  0  0  0  0  0  0  0  0  0  0  0
    9.6013  -15.1481   25.1557 O   0  0  0  0  0  0  0  0  0  0  0  0
    9.8646  -16.3840   25.0467 C   0  0  0  0  0  0  0  0  0  0  0  0
   11.1532  -14.2383   28.5077 C   0  0  2  0  0  0  0  0  0  0  0  0
   10.7784  -15.1815   27.3855 N   0  0  0  0  0  0  0  0  0  0  0  0
   10.0934  -14.5021   26.3125 C   0  0  0  0  0  0  0  0  0  0  0  0
    9.9933  -16.3358   27.9009 O   0  0  0  0  0  0  0  0  0  0  0  0
    8.7884  -16.4249   27.5355 O   0  0  0  0  0  0  0  0  0  0  0  0
  2  4  1  0
  2  1  1  0
  3  2  2  0
  5  4  1  0
  5  6  1  0
  7  6  1  0
  7  8  1  0
  8  9  1  1
 10  8  1  0
 10 12  1  0
 11 10  2  0
 13 12  1  0
 13 14  1  6
 15 14  1  0
 15 16  2  0
 17 16  1  0
 18 17  1  0
 19 18  2  0
 19 15  1  0
 20 13  1  0
 21 20  2  0
 23 22  1  6
 23 24  1  0
 23 25  1  0
 24 20  1  0
 25 27  1  0
 26 25  2  0
M  END
$$$$
