RHA.pdb
     RDKit          3D

 27 27  0  0  1  0  0  0  0  0999 V2000
    8.6224  -18.9392   13.4821 N   0  0  0  0  0  0  0  0  0  0  0  0
    7.6965  -17.8412   13.3433 C   0  0  0  0  0  0  0  0  0  0  0  0
    7.3903  -17.4375   12.1658 N   0  0  0  0  0  0  0  0  0  0  0  0
    7.1315  -17.2164   14.4699 N   0  0  0  0  0  0  0  0  0  0  0  0
    7.9957  -16.5630   15.4723 C   0  0  0  0  0  0  0  0  0  0  0  0
    9.2096  -17.3778   15.7276 C   0  0  0  0  0  0  0  0  0  0  0  0
   10.1682  -16.8708   16.7516 C   0  0  0  0  0  0  0  0  0  0  0  0
   10.1898  -17.6958   17.9833 C   0  0  2  0  0  0  0  0  0  0  0  0
    9.0635  -18.5805   18.0499 N   0  0  0  0  0  0  0  0  0  0  0  0
   10.3214  -16.8743   19.2221 C   0  0  0  0  0  0  0  0  0  0  0  0
   11.2478  -16.0338   19.2941 O   0  0  0  0  0  0  0  0  0  0  0  0
    6.6943  -16.6896   12.0300 N   0  0  0  0  0  0  0  0  0  0  0  0
    9.4444  -16.9995   20.3276 C   0  0  2  0  0  0  0  0  0  0  0  0
    9.6373  -16.2553   21.5319 C   0  0  0  0  0  0  0  0  0  0  0  0
    8.3841  -15.4442   21.8976 C   0  0  0  0  0  0  0  0  0  0  0  0
    8.0430  -14.4767   20.8598 C   0  0  0  0  0  0  0  0  0  0  0  0
    6.9415  -14.5460   20.0371 N   0  0  0  0  0  0  0  0  0  0  0  0
    6.9938  -13.4670   19.2257 C   0  0  0  0  0  0  0  0  0  0  0  0
    8.0834  -12.7615   19.5356 N   0  0  0  0  0  0  0  0  0  0  0  0
    8.7467  -13.3743   20.5485 C   0  0  0  0  0  0  0  0  0  0  0  0
   10.0269  -17.1176   22.6814 O   0  0  0  0  0  0  0  0  0  0  0  0
    9.4434  -18.2247   22.8873 C   0  0  0  0  0  0  0  0  0  0  0  0
   12.8592  -17.2556   25.1721 C   0  0  2  0  0  0  0  0  0  0  0  0
   11.4659  -17.6021   24.6947 N   0  0  0  0  0  0  0  0  0  0  0  0
   11.0463  -16.7667   23.5955 C   0  0  0  0  0  0  0  0  0  0  0  0
   10.4936  -17.5659   25.8206 O   0  0  0  0  0  0  0  0  0  0  0  0
    9.5902  -16.6855   25.7765 O   0  0  0  0  0  0  0  0  0  0  0  0
  2  4  1  0
  2  1  1  0
  3  2  2  0
  5  4  1  0
  5  6  1  0
  7  6  1  0
  7  8  1  0
  8  9  1  1
 10  8  1  0
 10 12  1  0
 11 10  2  0
 13 12  1  0
 13 14  1  6
 15 14  1  0
 15 16  2  0
 17 16  1  0
 18 17  1  0
 19 18  2  0
 19 15  1  0
 20 13  1  0
 21 20  2  0
 23 22  1  6
 23 24  1  0
 23 25  1  0
 24 20  1  0
 25 27  1  0
 26 25  2  0
M  END
$$$$
