RHA.pdb
     RDKit          3D

 27 27  0  0  1  0  0  0  0  0999 V2000
    8.2372  -12.2779   17.2983 N   0  0  0  0  0  0  0  0  0  0  0  0
    8.2502  -12.9340   18.5835 C   0  0  0  0  0  0  0  0  0  0  0  0
    9.3742  -13.1140   19.1728 N   0  0  0  0  0  0  0  0  0  0  0  0
    7.0595  -13.3724   19.1909 N   0  0  0  0  0  0  0  0  0  0  0  0
    7.0133  -13.6268   20.6442 C   0  0  0  0  0  0  0  0  0  0  0  0
    6.7931  -15.0690   20.9164 C   0  0  0  0  0  0  0  0  0  0  0  0
    7.9104  -15.8200   21.5585 C   0  0  0  0  0  0  0  0  0  0  0  0
    8.7182  -16.5975   20.5884 C   0  0  2  0  0  0  0  0  0  0  0  0
    7.9887  -17.7154   20.0650 N   0  0  0  0  0  0  0  0  0  0  0  0
   10.0402  -17.0112   21.1437 C   0  0  0  0  0  0  0  0  0  0  0  0
   10.1361  -18.1250   21.7095 O   0  0  0  0  0  0  0  0  0  0  0  0
    9.4336  -13.6806   20.0317 N   0  0  0  0  0  0  0  0  0  0  0  0
   11.1990  -16.2005   21.0617 C   0  0  2  0  0  0  0  0  0  0  0  0
   12.4631  -16.6383   21.5637 C   0  0  0  0  0  0  0  0  0  0  0  0
   13.5890  -15.6678   21.1731 C   0  0  0  0  0  0  0  0  0  0  0  0
   13.9071  -15.7510   19.7514 C   0  0  0  0  0  0  0  0  0  0  0  0
   13.5471  -16.7822   18.9136 N   0  0  0  0  0  0  0  0  0  0  0  0
   14.0306  -16.4758   17.6898 C   0  0  0  0  0  0  0  0  0  0  0  0
   14.6630  -15.3033   17.7701 N   0  0  0  0  0  0  0  0  0  0  0  0
   14.5959  -14.8391   19.0435 C   0  0  0  0  0  0  0  0  0  0  0  0
   12.4579  -16.8285   23.0403 O   0  0  0  0  0  0  0  0  0  0  0  0
   12.6251  -15.8428   23.8207 C   0  0  0  0  0  0  0  0  0  0  0  0
   11.0627  -19.2353   25.4516 C   0  0  2  0  0  0  0  0  0  0  0  0
   12.1803  -18.2857   25.0795 N   0  0  0  0  0  0  0  0  0  0  0  0
   12.2717  -18.0885   23.6530 C   0  0  0  0  0  0  0  0  0  0  0  0
   13.4747  -18.7340   25.6608 O   0  0  0  0  0  0  0  0  0  0  0  0
   13.5620  -18.7694   26.9195 O   0  0  0  0  0  0  0  0  0  0  0  0
  2  4  1  0
  2  1  1  0
  3  2  2  0
  5  4  1  0
  5  6  1  0
  7  6  1  0
  7  8  1  0
  8  9  1  1
 10  8  1  0
 10 12  1  0
 11 10  2  0
 13 12  1  0
 13 14  1  6
 15 14  1  0
 15 16  2  0
 17 16  1  0
 18 17  1  0
 19 18  2  0
 19 15  1  0
 20 13  1  0
 21 20  2  0
 23 22  1  1
 23 24  1  0
 23 25  1  0
 24 20  1  0
 25 27  1  0
 26 25  2  0
M  END
$$$$
