RHA.pdb
     RDKit          3D

 27 27  0  0  1  0  0  0  0  0999 V2000
    7.6952  -13.7805   17.0609 N   0  0  0  0  0  0  0  0  0  0  0  0
    8.7159  -13.3993   18.0070 C   0  0  0  0  0  0  0  0  0  0  0  0
    8.7164  -12.2021   18.4650 N   0  0  0  0  0  0  0  0  0  0  0  0
    9.6979  -14.3140   18.4290 N   0  0  0  0  0  0  0  0  0  0  0  0
    9.6879  -15.7026   17.9286 C   0  0  0  0  0  0  0  0  0  0  0  0
    9.3667  -16.6512   19.0239 C   0  0  0  0  0  0  0  0  0  0  0  0
   10.3739  -16.8005   20.1138 C   0  0  0  0  0  0  0  0  0  0  0  0
    9.8996  -17.6572   21.2270 C   0  0  2  0  0  0  0  0  0  0  0  0
    8.5662  -18.1330   21.0004 N   0  0  0  0  0  0  0  0  0  0  0  0
   10.0313  -16.9943   22.5576 C   0  0  0  0  0  0  0  0  0  0  0  0
   11.1710  -16.6575   22.9546 O   0  0  0  0  0  0  0  0  0  0  0  0
    9.4338  -11.8964   19.1388 N   0  0  0  0  0  0  0  0  0  0  0  0
    8.9235  -16.7258   23.3987 C   0  0  1  0  0  0  0  0  0  0  0  0
    9.0803  -16.1169   24.6817 C   0  0  0  0  0  0  0  0  0  0  0  0
    7.9003  -15.1888   25.0108 C   0  0  0  0  0  0  0  0  0  0  0  0
    8.1363  -14.4245   26.2312 C   0  0  0  0  0  0  0  0  0  0  0  0
    9.2066  -14.5905   27.0808 N   0  0  0  0  0  0  0  0  0  0  0  0
    9.0520  -13.6950   28.0805 C   0  0  0  0  0  0  0  0  0  0  0  0
    7.9319  -13.0050   27.8562 N   0  0  0  0  0  0  0  0  0  0  0  0
    7.3505  -13.4452   26.7118 C   0  0  0  0  0  0  0  0  0  0  0  0
    9.2490  -17.1160   25.7726 O   0  0  0  0  0  0  0  0  0  0  0  0
    8.2968  -17.8891   26.0955 C   0  0  0  0  0  0  0  0  0  0  0  0
   11.8342  -19.1696   27.1831 C   0  0  2  0  0  0  0  0  0  0  0  0
   10.6621  -18.2712   27.5125 N   0  0  0  0  0  0  0  0  0  0  0  0
   10.4509  -17.2634   26.5016 C   0  0  0  0  0  0  0  0  0  0  0  0
   10.8140  -17.6740   28.8670 O   0  0  0  0  0  0  0  0  0  0  0  0
   11.0479  -16.4352   28.9299 O   0  0  0  0  0  0  0  0  0  0  0  0
  2  4  1  0
  2  1  1  0
  3  2  2  0
  5  4  1  0
  5  6  1  0
  7  6  1  0
  7  8  1  0
  8  9  1  6
 10  8  1  0
 10 12  1  0
 11 10  2  0
 13 12  1  0
 13 14  1  1
 15 14  1  0
 15 16  2  0
 17 16  1  0
 18 17  1  0
 19 18  2  0
 19 15  1  0
 20 13  1  0
 21 20  2  0
 23 22  1  6
 23 24  1  0
 23 25  1  0
 24 20  1  0
 25 27  1  0
 26 25  2  0
M  END
$$$$
