RFN.pdb
     RDKit          3D

 31 31  0  0  1  0  0  0  0  0999 V2000
    8.9141  -20.3980   17.7745 N   0  0  0  0  0  0  0  0  0  0  0  0
    9.8480  -20.1570   16.7431 C   0  0  0  0  0  0  0  0  0  0  0  0
   10.0739  -21.0735   15.8509 N   0  0  0  0  0  0  0  0  0  0  0  0
   10.5810  -18.9339   16.6161 N   0  0  0  0  0  0  0  0  0  0  0  0
   10.5475  -17.8978   17.6033 C   0  0  0  0  0  0  0  0  0  0  0  0
   10.8664  -18.5009   18.9469 C   0  0  0  0  0  0  0  0  0  0  0  0
   10.9993  -17.4480   20.0298 C   0  0  0  0  0  0  0  0  0  0  0  0
    9.7658  -17.5322   20.8950 C   0  0  2  0  0  0  0  0  0  0  0  0
    8.5648  -17.5284   20.0890 N   0  0  0  0  0  0  0  0  0  0  0  0
    9.6845  -16.3723   21.8342 C   0  0  0  0  0  0  0  0  0  0  0  0
   10.5497  -15.4677   21.7961 O   0  0  0  0  0  0  0  0  0  0  0  0
   10.7805  -20.9370   15.0899 N   0  0  0  0  0  0  0  0  0  0  0  0
    8.6346  -16.2647   22.7868 C   0  0  1  0  0  0  0  0  0  0  0  0
    8.4972  -15.2482   23.7889 C   0  0  0  0  0  0  0  0  0  0  0  0
    7.1596  -14.6147   23.8684 C   0  0  0  0  0  0  0  0  0  0  0  0
    7.0368  -13.6060   24.9353 C   0  0  0  0  0  0  0  0  0  0  0  0
    7.5940  -12.3473   24.7614 C   0  0  0  0  0  0  0  0  0  0  0  0
    7.4693  -11.4232   25.7756 C   0  0  0  0  0  0  0  0  0  0  0  0
    6.7935  -11.7789   26.9339 C   0  0  0  0  0  0  0  0  0  0  0  0
    6.2359  -13.0257   27.1185 C   0  0  0  0  0  0  0  0  0  0  0  0
    6.3683  -13.9346   26.0998 C   0  0  0  0  0  0  0  0  0  0  0  0
    9.0874  -15.6223   25.0997 O   0  0  0  0  0  0  0  0  0  0  0  0
    8.5963  -16.5880   25.7208 N   0  0  0  0  0  0  0  0  0  0  0  0
   10.4468  -14.5455   30.1979 C   0  0  0  0  0  0  0  0  0  0  0  0
    9.9254  -15.5549   29.3673 O   0  0  0  0  0  0  0  0  0  0  0  0
    9.8695  -16.7362   29.7899 C   0  0  0  0  0  0  0  0  0  0  0  0
    9.4380  -15.2670   28.0038 C   0  0  1  0  0  0  0  0  0  0  0  0
   10.5951  -15.3173   27.0418 N   0  0  0  0  0  0  0  0  0  0  0  0
   10.1767  -14.9414   25.6829 C   0  0  0  0  0  0  0  0  0  0  0  0
   11.2344  -16.6510   27.0346 O   0  0  0  0  0  0  0  0  0  0  0  0
   10.5735  -17.7064   26.4427 O   0  0  0  0  0  0  0  0  0  0  0  0
  2  3  2  0
  2  1  1  0
  4  2  1  0
  5  4  1  0
  6  5  1  0
  7  6  1  0
  8  7  1  0
  8  9  1  6
 10 12  1  0
 10  8  1  0
 11 10  2  0
 13 12  1  0
 13 14  1  6
 15 20  2  0
 15 14  1  0
 16 15  1  0
 17 18  1  0
 17 16  2  0
 18 19  2  0
 19 20  1  0
 21 13  1  0
 21 22  2  0
 24 26  1  0
 24 23  1  0
 25 24  2  0
 27 28  1  0
 27 26  1  1
 28 21  1  0
 29 27  1  0
 30 29  1  0
 31 29  2  0
M  END
$$$$
