RFN.pdb
     RDKit          3D

 31 31  0  0  1  0  0  0  0  0999 V2000
    7.8359  -13.0776   16.6955 N   0  0  0  0  0  0  0  0  0  0  0  0
    8.4530  -12.9392   17.9580 C   0  0  0  0  0  0  0  0  0  0  0  0
    8.6422  -11.7548   18.4568 N   0  0  0  0  0  0  0  0  0  0  0  0
    8.8952  -14.0514   18.7433 N   0  0  0  0  0  0  0  0  0  0  0  0
    8.6014  -15.4111   18.4056 C   0  0  0  0  0  0  0  0  0  0  0  0
    8.0322  -16.0979   19.6201 C   0  0  0  0  0  0  0  0  0  0  0  0
    8.7527  -15.6993   20.8933 C   0  0  0  0  0  0  0  0  0  0  0  0
    8.5383  -16.8046   21.8981 C   0  0  2  0  0  0  0  0  0  0  0  0
    7.1429  -17.1785   21.9689 N   0  0  0  0  0  0  0  0  0  0  0  0
    8.9633  -16.3802   23.2668 C   0  0  0  0  0  0  0  0  0  0  0  0
   10.0681  -15.8155   23.4378 O   0  0  0  0  0  0  0  0  0  0  0  0
    9.1496  -11.6147   19.3623 N   0  0  0  0  0  0  0  0  0  0  0  0
    8.1350  -16.6035   24.4005 C   0  0  1  0  0  0  0  0  0  0  0  0
    8.5031  -16.4110   25.7731 C   0  0  0  0  0  0  0  0  0  0  0  0
    7.4884  -15.7288   26.6108 C   0  0  0  0  0  0  0  0  0  0  0  0
    7.3395  -14.2921   26.3206 C   0  0  0  0  0  0  0  0  0  0  0  0
    8.2647  -13.3879   26.8222 C   0  0  0  0  0  0  0  0  0  0  0  0
    8.1008  -12.0493   26.5404 C   0  0  0  0  0  0  0  0  0  0  0  0
    7.0205  -11.6494   25.7673 C   0  0  0  0  0  0  0  0  0  0  0  0
    6.0949  -12.5375   25.2634 C   0  0  0  0  0  0  0  0  0  0  0  0
    6.2717  -13.8666   25.5525 C   0  0  0  0  0  0  0  0  0  0  0  0
    9.1204  -17.6098   26.3963 O   0  0  0  0  0  0  0  0  0  0  0  0
    8.4911  -18.6880   26.3668 N   0  0  0  0  0  0  0  0  0  0  0  0
   13.2273  -20.9826   25.4714 C   0  0  0  0  0  0  0  0  0  0  0  0
   13.2726  -19.8612   26.3205 O   0  0  0  0  0  0  0  0  0  0  0  0
   14.0866  -19.8419   27.2767 C   0  0  0  0  0  0  0  0  0  0  0  0
   12.3866  -18.6973   26.1214 C   0  0  1  0  0  0  0  0  0  0  0  0
   11.1857  -18.8278   27.0202 N   0  0  0  0  0  0  0  0  0  0  0  0
   10.3842  -17.5947   27.0231 C   0  0  0  0  0  0  0  0  0  0  0  0
   11.5793  -19.1909   28.3989 O   0  0  0  0  0  0  0  0  0  0  0  0
   11.5015  -18.2357   29.3901 O   0  0  0  0  0  0  0  0  0  0  0  0
  2  3  2  0
  2  1  1  0
  4  2  1  0
  5  4  1  0
  6  5  1  0
  7  6  1  0
  8  7  1  0
  8  9  1  1
 10 12  1  0
 10  8  1  0
 11 10  2  0
 13 12  1  0
 13 14  1  1
 15 20  2  0
 15 14  1  0
 16 15  1  0
 17 18  1  0
 17 16  2  0
 18 19  2  0
 19 20  1  0
 21 13  1  0
 21 22  2  0
 24 26  1  0
 24 23  1  0
 25 24  2  0
 27 28  1  0
 27 26  1  6
 28 21  1  0
 29 27  1  0
 30 29  1  0
 31 29  2  0
M  END
$$$$
