RFN.pdb
     RDKit          3D

 31 31  0  0  1  0  0  0  0  0999 V2000
    8.1412  -12.8668   15.8550 N   0  0  0  0  0  0  0  0  0  0  0  0
    8.5964  -13.9484   15.0695 C   0  0  0  0  0  0  0  0  0  0  0  0
    8.5108  -13.8860   13.7749 N   0  0  0  0  0  0  0  0  0  0  0  0
    9.1609  -15.1409   15.6250 N   0  0  0  0  0  0  0  0  0  0  0  0
    8.5670  -15.8499   16.7176 C   0  0  0  0  0  0  0  0  0  0  0  0
    8.6362  -14.9844   17.9492 C   0  0  0  0  0  0  0  0  0  0  0  0
    9.7470  -15.4127   18.8881 C   0  0  0  0  0  0  0  0  0  0  0  0
    9.1345  -16.3180   19.9285 C   0  0  2  0  0  0  0  0  0  0  0  0
    7.7201  -16.5023   19.6888 N   0  0  0  0  0  0  0  0  0  0  0  0
    9.2904  -15.7467   21.3009 C   0  0  0  0  0  0  0  0  0  0  0  0
   10.4321  -15.5351   21.7704 O   0  0  0  0  0  0  0  0  0  0  0  0
    8.8432  -14.6691   13.1639 N   0  0  0  0  0  0  0  0  0  0  0  0
    8.1598  -15.4313   22.1031 C   0  0  1  0  0  0  0  0  0  0  0  0
    8.1832  -14.8457   23.4119 C   0  0  0  0  0  0  0  0  0  0  0  0
    7.0284  -13.9751   23.7365 C   0  0  0  0  0  0  0  0  0  0  0  0
    7.1366  -13.2973   25.0401 C   0  0  0  0  0  0  0  0  0  0  0  0
    6.3133  -13.6830   26.0882 C   0  0  0  0  0  0  0  0  0  0  0  0
    6.4310  -13.0306   27.2959 C   0  0  0  0  0  0  0  0  0  0  0  0
    7.3648  -12.0128   27.4254 C   0  0  0  0  0  0  0  0  0  0  0  0
    8.1880  -11.6205   26.3920 C   0  0  0  0  0  0  0  0  0  0  0  0
    8.0591  -12.2795   25.1961 C   0  0  0  0  0  0  0  0  0  0  0  0
    8.5624  -15.8015   24.4838 O   0  0  0  0  0  0  0  0  0  0  0  0
    7.8451  -16.8073   24.6669 N   0  0  0  0  0  0  0  0  0  0  0  0
   11.2223  -18.9679   27.3419 C   0  0  0  0  0  0  0  0  0  0  0  0
   12.0795  -18.2772   26.4652 O   0  0  0  0  0  0  0  0  0  0  0  0
   13.2636  -18.6701   26.3207 C   0  0  0  0  0  0  0  0  0  0  0  0
   11.6276  -17.0961   25.7037 C   0  0  1  0  0  0  0  0  0  0  0  0
   10.1965  -16.7931   26.0601 N   0  0  0  0  0  0  0  0  0  0  0  0
    9.6935  -15.6324   25.3099 C   0  0  0  0  0  0  0  0  0  0  0  0
   10.0358  -16.5767   27.5144 O   0  0  0  0  0  0  0  0  0  0  0  0
   10.1700  -17.6503   28.3691 O   0  0  0  0  0  0  0  0  0  0  0  0
  2  3  2  0
  2  1  1  0
  4  2  1  0
  5  4  1  0
  6  5  1  0
  7  6  1  0
  8  7  1  0
  8  9  1  6
 10 12  1  0
 10  8  1  0
 11 10  2  0
 13 12  1  0
 13 14  1  1
 15 20  2  0
 15 14  1  0
 16 15  1  0
 17 18  1  0
 17 16  2  0
 18 19  2  0
 19 20  1  0
 21 13  1  0
 21 22  2  0
 24 26  1  0
 24 23  1  0
 25 24  2  0
 27 28  1  0
 27 26  1  6
 28 21  1  0
 29 27  1  0
 30 29  1  0
 31 29  2  0
M  END
$$$$
