RFN.pdb
     RDKit          3D

 31 31  0  0  1  0  0  0  0  0999 V2000
    7.1315  -13.2374   17.6286 N   0  0  0  0  0  0  0  0  0  0  0  0
    8.3966  -13.2136   18.2556 C   0  0  0  0  0  0  0  0  0  0  0  0
    8.8398  -12.1069   18.7714 N   0  0  0  0  0  0  0  0  0  0  0  0
    9.2438  -14.3627   18.3609 N   0  0  0  0  0  0  0  0  0  0  0  0
    8.9121  -15.6319   17.7879 C   0  0  0  0  0  0  0  0  0  0  0  0
    8.8347  -16.6546   18.8919 C   0  0  0  0  0  0  0  0  0  0  0  0
   10.1914  -16.9358   19.5077 C   0  0  0  0  0  0  0  0  0  0  0  0
    9.9596  -17.3517   20.9397 C   0  0  2  0  0  0  0  0  0  0  0  0
    8.7282  -18.0991   21.0705 N   0  0  0  0  0  0  0  0  0  0  0  0
    9.8648  -16.1618   21.8392 C   0  0  0  0  0  0  0  0  0  0  0  0
   10.8619  -15.4257   22.0191 O   0  0  0  0  0  0  0  0  0  0  0  0
    9.7955  -12.0423   19.1950 N   0  0  0  0  0  0  0  0  0  0  0  0
    8.6536  -15.8359   22.5087 C   0  0  1  0  0  0  0  0  0  0  0  0
    8.5202  -14.9954   23.6629 C   0  0  0  0  0  0  0  0  0  0  0  0
    7.1912  -14.3622   23.8346 C   0  0  0  0  0  0  0  0  0  0  0  0
    7.0734  -13.5360   25.0487 C   0  0  0  0  0  0  0  0  0  0  0  0
    7.7979  -12.3573   25.1535 C   0  0  0  0  0  0  0  0  0  0  0  0
    7.6737  -11.6048   26.3008 C   0  0  0  0  0  0  0  0  0  0  0  0
    6.8319  -12.0473   27.3108 C   0  0  0  0  0  0  0  0  0  0  0  0
    6.1071  -13.2160   27.2187 C   0  0  0  0  0  0  0  0  0  0  0  0
    6.2413  -13.9541   26.0704 C   0  0  0  0  0  0  0  0  0  0  0  0
    9.0909  -15.5890   24.8993 O   0  0  0  0  0  0  0  0  0  0  0  0
    9.1074  -14.8983   25.9396 N   0  0  0  0  0  0  0  0  0  0  0  0
   10.1290  -20.2639   28.2702 C   0  0  0  0  0  0  0  0  0  0  0  0
    9.8970  -18.8841   28.1189 O   0  0  0  0  0  0  0  0  0  0  0  0
   10.2569  -18.0933   29.0258 C   0  0  0  0  0  0  0  0  0  0  0  0
    9.2389  -18.3320   26.9184 C   0  0  2  0  0  0  0  0  0  0  0  0
   10.1756  -17.3706   26.2363 N   0  0  0  0  0  0  0  0  0  0  0  0
    9.6183  -16.8961   24.9607 C   0  0  0  0  0  0  0  0  0  0  0  0
   11.5092  -17.9738   26.0243 O   0  0  0  0  0  0  0  0  0  0  0  0
   12.3050  -18.2390   27.1186 O   0  0  0  0  0  0  0  0  0  0  0  0
  2  3  2  0
  2  1  1  0
  4  2  1  0
  5  4  1  0
  6  5  1  0
  7  6  1  0
  8  7  1  0
  8  9  1  6
 10 12  1  0
 10  8  1  0
 11 10  2  0
 13 12  1  0
 13 14  1  1
 15 20  2  0
 15 14  1  0
 16 15  1  0
 17 18  1  0
 17 16  2  0
 18 19  2  0
 19 20  1  0
 21 13  1  0
 21 22  2  0
 24 26  1  0
 24 23  1  0
 25 24  2  0
 27 28  1  0
 27 26  1  1
 28 21  1  0
 29 27  1  0
 30 29  1  0
 31 29  2  0
M  END
$$$$
