RFN.pdb
     RDKit          3D

 31 31  0  0  1  0  0  0  0  0999 V2000
    6.7819  -21.2056   19.1064 N   0  0  0  0  0  0  0  0  0  0  0  0
    7.9002  -21.8812   18.5705 C   0  0  0  0  0  0  0  0  0  0  0  0
    7.7420  -22.7017   17.5761 N   0  0  0  0  0  0  0  0  0  0  0  0
    9.2321  -21.7145   19.0678 N   0  0  0  0  0  0  0  0  0  0  0  0
    9.5518  -20.8615   20.1721 C   0  0  0  0  0  0  0  0  0  0  0  0
    9.3082  -19.4316   19.7638 C   0  0  0  0  0  0  0  0  0  0  0  0
    9.7155  -18.4502   20.8454 C   0  0  0  0  0  0  0  0  0  0  0  0
    9.3122  -17.0726   20.3800 C   0  0  2  0  0  0  0  0  0  0  0  0
   10.1506  -16.6269   19.2889 N   0  0  0  0  0  0  0  0  0  0  0  0
    9.4353  -16.0720   21.4835 C   0  0  0  0  0  0  0  0  0  0  0  0
   10.5579  -15.6146   21.7983 O   0  0  0  0  0  0  0  0  0  0  0  0
    8.5507  -23.2179   17.1559 N   0  0  0  0  0  0  0  0  0  0  0  0
    8.2943  -15.6168   22.1992 C   0  0  2  0  0  0  0  0  0  0  0  0
    8.3010  -14.8802   23.4296 C   0  0  0  0  0  0  0  0  0  0  0  0
    7.0810  -14.0819   23.6960 C   0  0  0  0  0  0  0  0  0  0  0  0
    7.1094  -13.3531   24.9760 C   0  0  0  0  0  0  0  0  0  0  0  0
    6.3712  -13.8224   26.0531 C   0  0  0  0  0  0  0  0  0  0  0  0
    6.4110  -13.1204   27.2379 C   0  0  0  0  0  0  0  0  0  0  0  0
    7.1845  -11.9713   27.3163 C   0  0  0  0  0  0  0  0  0  0  0  0
    7.9218  -11.4951   26.2538 C   0  0  0  0  0  0  0  0  0  0  0  0
    7.8720  -12.2049   25.0812 C   0  0  0  0  0  0  0  0  0  0  0  0
    8.7963  -15.6653   24.5893 O   0  0  0  0  0  0  0  0  0  0  0  0
    8.1586  -16.6809   24.9378 N   0  0  0  0  0  0  0  0  0  0  0  0
   13.4421  -15.8576   24.3446 C   0  0  0  0  0  0  0  0  0  0  0  0
   12.5522  -16.6657   25.0765 O   0  0  0  0  0  0  0  0  0  0  0  0
   12.2272  -17.7923   24.6268 C   0  0  0  0  0  0  0  0  0  0  0  0
   11.9840  -16.2276   26.3667 C   0  0  2  0  0  0  0  0  0  0  0  0
   10.4814  -16.2903   26.2945 N   0  0  0  0  0  0  0  0  0  0  0  0
    9.9526  -15.3227   25.3213 C   0  0  0  0  0  0  0  0  0  0  0  0
    9.8670  -16.0749   27.6225 O   0  0  0  0  0  0  0  0  0  0  0  0
    9.0206  -17.0368   28.1319 O   0  0  0  0  0  0  0  0  0  0  0  0
  2  3  2  0
  2  1  1  0
  4  2  1  0
  5  4  1  0
  6  5  1  0
  7  6  1  0
  8  7  1  0
  8  9  1  6
 10 12  1  0
 10  8  1  0
 11 10  2  0
 13 12  1  0
 13 14  1  6
 15 20  2  0
 15 14  1  0
 16 15  1  0
 17 18  1  0
 17 16  2  0
 18 19  2  0
 19 20  1  0
 21 13  1  0
 21 22  2  0
 24 26  1  0
 24 23  1  0
 25 24  2  0
 27 28  1  0
 27 26  1  6
 28 21  1  0
 29 27  1  0
 30 29  1  0
 31 29  2  0
M  END
$$$$
