RFN.pdb
     RDKit          3D

 31 31  0  0  1  0  0  0  0  0999 V2000
    7.6302  -13.1831   19.9931 N   0  0  0  0  0  0  0  0  0  0  0  0
    8.1527  -13.3164   18.6880 C   0  0  0  0  0  0  0  0  0  0  0  0
    8.8982  -12.3751   18.1928 N   0  0  0  0  0  0  0  0  0  0  0  0
    7.9054  -14.4535   17.8544 N   0  0  0  0  0  0  0  0  0  0  0  0
    8.9301  -15.3750   17.4672 C   0  0  0  0  0  0  0  0  0  0  0  0
    8.9737  -16.4981   18.4710 C   0  0  0  0  0  0  0  0  0  0  0  0
   10.2111  -16.4367   19.3451 C   0  0  0  0  0  0  0  0  0  0  0  0
    9.8853  -17.1419   20.6388 C   0  0  2  0  0  0  0  0  0  0  0  0
    8.6085  -17.8163   20.5553 N   0  0  0  0  0  0  0  0  0  0  0  0
    9.8137  -16.1761   21.7773 C   0  0  0  0  0  0  0  0  0  0  0  0
   10.8268  -15.5213   22.1141 O   0  0  0  0  0  0  0  0  0  0  0  0
    9.2547  -12.4170   17.2088 N   0  0  0  0  0  0  0  0  0  0  0  0
    8.6070  -15.9760   22.5021 C   0  0  1  0  0  0  0  0  0  0  0  0
    8.4504  -15.1903   23.6915 C   0  0  0  0  0  0  0  0  0  0  0  0
    7.1863  -14.4216   23.7803 C   0  0  0  0  0  0  0  0  0  0  0  0
    7.0869  -13.5679   24.9769 C   0  0  0  0  0  0  0  0  0  0  0  0
    7.9270  -12.4722   25.1139 C   0  0  0  0  0  0  0  0  0  0  0  0
    7.8173  -11.6922   26.2442 C   0  0  0  0  0  0  0  0  0  0  0  0
    6.8744  -12.0255   27.2057 C   0  0  0  0  0  0  0  0  0  0  0  0
    6.0345  -13.1111   27.0814 C   0  0  0  0  0  0  0  0  0  0  0  0
    6.1557  -13.8778   25.9506 C   0  0  0  0  0  0  0  0  0  0  0  0
    8.8288  -15.9112   24.9339 O   0  0  0  0  0  0  0  0  0  0  0  0
    8.7127  -15.3177   26.0265 N   0  0  0  0  0  0  0  0  0  0  0  0
    7.8596  -19.4032   25.1343 C   0  0  0  0  0  0  0  0  0  0  0  0
    9.1168  -19.9842   25.3835 O   0  0  0  0  0  0  0  0  0  0  0  0
    9.3330  -21.1683   25.0251 C   0  0  0  0  0  0  0  0  0  0  0  0
   10.1987  -19.2402   26.0583 C   0  0  2  0  0  0  0  0  0  0  0  0
    9.7868  -17.8009   26.2183 N   0  0  0  0  0  0  0  0  0  0  0  0
    9.3151  -17.2355   24.9451 C   0  0  0  0  0  0  0  0  0  0  0  0
   10.8875  -16.9818   26.7705 O   0  0  0  0  0  0  0  0  0  0  0  0
   10.8720  -16.6564   28.1103 O   0  0  0  0  0  0  0  0  0  0  0  0
  2  3  2  0
  2  1  1  0
  4  2  1  0
  5  4  1  0
  6  5  1  0
  7  6  1  0
  8  7  1  0
  8  9  1  6
 10 12  1  0
 10  8  1  0
 11 10  2  0
 13 12  1  0
 13 14  1  1
 15 20  2  0
 15 14  1  0
 16 15  1  0
 17 18  1  0
 17 16  2  0
 18 19  2  0
 19 20  1  0
 21 13  1  0
 21 22  2  0
 24 26  1  0
 24 23  1  0
 25 24  2  0
 27 28  1  0
 27 26  1  1
 28 21  1  0
 29 27  1  0
 30 29  1  0
 31 29  2  0
M  END
$$$$
