RFN.pdb
     RDKit          3D

 31 31  0  0  1  0  0  0  0  0999 V2000
    8.7571  -15.2580   15.5781 N   0  0  0  0  0  0  0  0  0  0  0  0
    8.1589  -13.9948   15.7793 C   0  0  0  0  0  0  0  0  0  0  0  0
    7.8504  -13.2572   14.7556 N   0  0  0  0  0  0  0  0  0  0  0  0
    7.8637  -13.4618   17.0747 N   0  0  0  0  0  0  0  0  0  0  0  0
    8.1412  -14.1657   18.2899 C   0  0  0  0  0  0  0  0  0  0  0  0
    7.0512  -13.8598   19.2845 C   0  0  0  0  0  0  0  0  0  0  0  0
    7.5836  -13.7438   20.6994 C   0  0  0  0  0  0  0  0  0  0  0  0
    8.1269  -15.0964   21.0895 C   0  0  2  0  0  0  0  0  0  0  0  0
    7.0807  -16.0951   21.0928 N   0  0  0  0  0  0  0  0  0  0  0  0
    8.7257  -15.0636   22.4586 C   0  0  0  0  0  0  0  0  0  0  0  0
    9.8122  -14.4735   22.6582 O   0  0  0  0  0  0  0  0  0  0  0  0
    7.4529  -12.2951   14.8715 N   0  0  0  0  0  0  0  0  0  0  0  0
    8.0862  -15.6947   23.5605 C   0  0  1  0  0  0  0  0  0  0  0  0
    8.5277  -15.6747   24.9247 C   0  0  0  0  0  0  0  0  0  0  0  0
    7.4723  -15.3962   25.9274 C   0  0  0  0  0  0  0  0  0  0  0  0
    7.2732  -13.9632   26.2056 C   0  0  0  0  0  0  0  0  0  0  0  0
    8.3576  -13.1718   26.5561 C   0  0  0  0  0  0  0  0  0  0  0  0
    8.1444  -11.8357   26.8156 C   0  0  0  0  0  0  0  0  0  0  0  0
    6.8578  -11.3258   26.7187 C   0  0  0  0  0  0  0  0  0  0  0  0
    5.7728  -12.1015   26.3716 C   0  0  0  0  0  0  0  0  0  0  0  0
    6.0010  -13.4296   26.1163 C   0  0  0  0  0  0  0  0  0  0  0  0
    9.4349  -16.7984   25.2721 O   0  0  0  0  0  0  0  0  0  0  0  0
    9.0099  -17.9666   25.1527 N   0  0  0  0  0  0  0  0  0  0  0  0
   13.4699  -16.4884   23.4589 C   0  0  0  0  0  0  0  0  0  0  0  0
   12.9475  -17.6068   24.1348 O   0  0  0  0  0  0  0  0  0  0  0  0
   12.4577  -18.5558   23.4739 C   0  0  0  0  0  0  0  0  0  0  0  0
   12.9569  -17.7008   25.6081 C   0  0  2  0  0  0  0  0  0  0  0  0
   11.5404  -17.8012   26.1084 N   0  0  0  0  0  0  0  0  0  0  0  0
   10.7558  -16.6154   25.7325 C   0  0  0  0  0  0  0  0  0  0  0  0
   11.4976  -18.0056   27.5726 O   0  0  0  0  0  0  0  0  0  0  0  0
   12.1435  -19.0963   28.1149 O   0  0  0  0  0  0  0  0  0  0  0  0
  2  3  2  0
  2  1  1  0
  4  2  1  0
  5  4  1  0
  6  5  1  0
  7  6  1  0
  8  7  1  0
  8  9  1  1
 10 12  1  0
 10  8  1  0
 11 10  2  0
 13 12  1  0
 13 14  1  1
 15 20  2  0
 15 14  1  0
 16 15  1  0
 17 18  1  0
 17 16  2  0
 18 19  2  0
 19 20  1  0
 21 13  1  0
 21 22  2  0
 24 26  1  0
 24 23  1  0
 25 24  2  0
 27 28  1  0
 27 26  1  6
 28 21  1  0
 29 27  1  0
 30 29  1  0
 31 29  2  0
M  END
$$$$
