RFN.pdb
     RDKit          3D

 31 31  0  0  1  0  0  0  0  0999 V2000
    7.8707  -12.7243   16.0888 N   0  0  0  0  0  0  0  0  0  0  0  0
    8.2888  -13.8754   16.7918 C   0  0  0  0  0  0  0  0  0  0  0  0
    8.5864  -14.9576   16.1378 N   0  0  0  0  0  0  0  0  0  0  0  0
    8.4081  -13.9261   18.2174 N   0  0  0  0  0  0  0  0  0  0  0  0
    7.3036  -14.2073   19.0835 C   0  0  0  0  0  0  0  0  0  0  0  0
    7.7378  -13.9808   20.5086 C   0  0  0  0  0  0  0  0  0  0  0  0
    9.1520  -14.4661   20.7600 C   0  0  0  0  0  0  0  0  0  0  0  0
    9.0541  -15.7804   21.4950 C   0  0  2  0  0  0  0  0  0  0  0  0
    7.7216  -16.3337   21.3944 N   0  0  0  0  0  0  0  0  0  0  0  0
    9.3660  -15.6119   22.9470 C   0  0  0  0  0  0  0  0  0  0  0  0
   10.4217  -15.0401   23.3035 O   0  0  0  0  0  0  0  0  0  0  0  0
    8.9062  -15.8257   16.6288 N   0  0  0  0  0  0  0  0  0  0  0  0
    8.4830  -16.0909   23.9531 C   0  0  1  0  0  0  0  0  0  0  0  0
    8.7372  -16.1179   25.3642 C   0  0  0  0  0  0  0  0  0  0  0  0
    7.5929  -15.7264   26.2210 C   0  0  0  0  0  0  0  0  0  0  0  0
    7.3970  -14.2703   26.3305 C   0  0  0  0  0  0  0  0  0  0  0  0
    6.1822  -13.7086   25.9644 C   0  0  0  0  0  0  0  0  0  0  0  0
    6.0256  -12.3441   26.0720 C   0  0  0  0  0  0  0  0  0  0  0  0
    7.0829  -11.5779   26.5408 C   0  0  0  0  0  0  0  0  0  0  0  0
    8.2942  -12.1238   26.9074 C   0  0  0  0  0  0  0  0  0  0  0  0
    8.4346  -13.4836   26.7948 C   0  0  0  0  0  0  0  0  0  0  0  0
    9.4639  -17.3329   25.8138 O   0  0  0  0  0  0  0  0  0  0  0  0
    9.0853  -18.4451   25.3903 N   0  0  0  0  0  0  0  0  0  0  0  0
   13.8492  -20.4947   26.6355 C   0  0  0  0  0  0  0  0  0  0  0  0
   13.3804  -19.5894   27.6057 O   0  0  0  0  0  0  0  0  0  0  0  0
   13.5118  -19.8653   28.8238 C   0  0  0  0  0  0  0  0  0  0  0  0
   12.7340  -18.3153   27.2341 C   0  0  1  0  0  0  0  0  0  0  0  0
   11.2666  -18.5537   26.9964 N   0  0  0  0  0  0  0  0  0  0  0  0
   10.5627  -17.2972   26.6979 C   0  0  0  0  0  0  0  0  0  0  0  0
   10.6367  -19.2373   28.1468 O   0  0  0  0  0  0  0  0  0  0  0  0
   10.1052  -18.4776   29.1673 O   0  0  0  0  0  0  0  0  0  0  0  0
  2  3  2  0
  2  1  1  0
  4  2  1  0
  5  4  1  0
  6  5  1  0
  7  6  1  0
  8  7  1  0
  8  9  1  1
 10 12  1  0
 10  8  1  0
 11 10  2  0
 13 12  1  0
 13 14  1  1
 15 20  2  0
 15 14  1  0
 16 15  1  0
 17 18  1  0
 17 16  2  0
 18 19  2  0
 19 20  1  0
 21 13  1  0
 21 22  2  0
 24 26  1  0
 24 23  1  0
 25 24  2  0
 27 28  1  0
 27 26  1  6
 28 21  1  0
 29 27  1  0
 30 29  1  0
 31 29  2  0
M  END
$$$$
