RFN.pdb
     RDKit          3D

 31 31  0  0  1  0  0  0  0  0999 V2000
    7.9490  -12.9882   14.9927 N   0  0  0  0  0  0  0  0  0  0  0  0
    8.3055  -14.2473   15.5234 C   0  0  0  0  0  0  0  0  0  0  0  0
    7.5471  -15.2783   15.3022 N   0  0  0  0  0  0  0  0  0  0  0  0
    9.4810  -14.4644   16.3109 N   0  0  0  0  0  0  0  0  0  0  0  0
    9.6184  -15.5593   17.2227 C   0  0  0  0  0  0  0  0  0  0  0  0
    8.5602  -15.4356   18.2884 C   0  0  0  0  0  0  0  0  0  0  0  0
    8.6421  -16.5540   19.3089 C   0  0  0  0  0  0  0  0  0  0  0  0
    7.4974  -16.3686   20.2745 C   0  0  2  0  0  0  0  0  0  0  0  0
    6.4512  -15.5587   19.6903 N   0  0  0  0  0  0  0  0  0  0  0  0
    7.9511  -15.6886   21.5259 C   0  0  0  0  0  0  0  0  0  0  0  0
    8.9183  -14.8936   21.4969 O   0  0  0  0  0  0  0  0  0  0  0  0
    7.7659  -16.2186   15.7084 N   0  0  0  0  0  0  0  0  0  0  0  0
    7.3049  -15.9229   22.7704 C   0  0  1  0  0  0  0  0  0  0  0  0
    7.6886  -15.3828   24.0422 C   0  0  0  0  0  0  0  0  0  0  0  0
    6.5938  -14.7553   24.8197 C   0  0  0  0  0  0  0  0  0  0  0  0
    7.0545  -13.9771   25.9827 C   0  0  0  0  0  0  0  0  0  0  0  0
    7.4025  -14.6312   27.1558 C   0  0  0  0  0  0  0  0  0  0  0  0
    7.8261  -13.8805   28.2306 C   0  0  0  0  0  0  0  0  0  0  0  0
    7.8910  -12.5003   28.1066 C   0  0  0  0  0  0  0  0  0  0  0  0
    7.5481  -11.8390   26.9470 C   0  0  0  0  0  0  0  0  0  0  0  0
    7.1284  -12.6001   25.8859 C   0  0  0  0  0  0  0  0  0  0  0  0
    8.5730  -16.2819   24.8271 O   0  0  0  0  0  0  0  0  0  0  0  0
    8.3824  -17.5142   24.7586 N   0  0  0  0  0  0  0  0  0  0  0  0
   14.1707  -16.0135   24.2681 C   0  0  0  0  0  0  0  0  0  0  0  0
   12.9733  -16.7527   24.2709 O   0  0  0  0  0  0  0  0  0  0  0  0
   13.0210  -18.0076   24.2515 C   0  0  0  0  0  0  0  0  0  0  0  0
   11.6519  -16.0949   24.2961 C   0  0  2  0  0  0  0  0  0  0  0  0
   10.9311  -16.4766   25.5616 N   0  0  0  0  0  0  0  0  0  0  0  0
    9.6201  -15.8158   25.6497 C   0  0  0  0  0  0  0  0  0  0  0  0
   11.7438  -16.1725   26.7593 O   0  0  0  0  0  0  0  0  0  0  0  0
   12.5909  -17.1403   27.2562 O   0  0  0  0  0  0  0  0  0  0  0  0
  2  3  2  0
  2  1  1  0
  4  2  1  0
  5  4  1  0
  6  5  1  0
  7  6  1  0
  8  7  1  0
  8  9  1  6
 10 12  1  0
 10  8  1  0
 11 10  2  0
 13 12  1  0
 13 14  1  1
 15 20  2  0
 15 14  1  0
 16 15  1  0
 17 18  1  0
 17 16  2  0
 18 19  2  0
 19 20  1  0
 21 13  1  0
 21 22  2  0
 24 26  1  0
 24 23  1  0
 25 24  2  0
 27 28  1  0
 27 26  1  6
 28 21  1  0
 29 27  1  0
 30 29  1  0
 31 29  2  0
M  END
$$$$
