RFN.pdb
     RDKit          3D

 31 31  0  0  1  0  0  0  0  0999 V2000
    7.4824  -13.2760   17.3906 N   0  0  0  0  0  0  0  0  0  0  0  0
    7.9841  -14.1607   16.4110 C   0  0  0  0  0  0  0  0  0  0  0  0
    8.1428  -13.7475   15.1899 N   0  0  0  0  0  0  0  0  0  0  0  0
    8.3377  -15.5202   16.6865 N   0  0  0  0  0  0  0  0  0  0  0  0
    8.2907  -16.0881   17.9996 C   0  0  0  0  0  0  0  0  0  0  0  0
    8.8832  -15.1025   18.9733 C   0  0  0  0  0  0  0  0  0  0  0  0
    8.9813  -15.6714   20.3753 C   0  0  0  0  0  0  0  0  0  0  0  0
    9.5857  -14.6040   21.2542 C   0  0  2  0  0  0  0  0  0  0  0  0
   10.9555  -14.3343   20.8763 N   0  0  0  0  0  0  0  0  0  0  0  0
    9.5859  -15.0221   22.6892 C   0  0  0  0  0  0  0  0  0  0  0  0
   10.6621  -15.3050   23.2640 O   0  0  0  0  0  0  0  0  0  0  0  0
    8.5008  -14.3820   14.4374 N   0  0  0  0  0  0  0  0  0  0  0  0
    8.3778  -15.1100   23.4337 C   0  0  2  0  0  0  0  0  0  0  0  0
    8.2447  -15.5659   24.7868 C   0  0  0  0  0  0  0  0  0  0  0  0
    7.0368  -15.0872   25.5000 C   0  0  0  0  0  0  0  0  0  0  0  0
    7.1273  -13.6909   25.9613 C   0  0  0  0  0  0  0  0  0  0  0  0
    7.5964  -13.4155   27.2377 C   0  0  0  0  0  0  0  0  0  0  0  0
    7.6673  -12.1019   27.6469 C   0  0  0  0  0  0  0  0  0  0  0  0
    7.2689  -11.1002   26.7737 C   0  0  0  0  0  0  0  0  0  0  0  0
    6.8012  -11.3608   25.5038 C   0  0  0  0  0  0  0  0  0  0  0  0
    6.7366  -12.6734   25.1109 C   0  0  0  0  0  0  0  0  0  0  0  0
    8.5357  -17.0124   24.9577 O   0  0  0  0  0  0  0  0  0  0  0  0
    7.9931  -17.8256   24.1805 N   0  0  0  0  0  0  0  0  0  0  0  0
   13.3569  -19.4931   24.3463 C   0  0  0  0  0  0  0  0  0  0  0  0
   11.9666  -19.5404   24.1334 O   0  0  0  0  0  0  0  0  0  0  0  0
   11.4430  -20.5962   23.6992 C   0  0  0  0  0  0  0  0  0  0  0  0
   11.0969  -18.3792   24.4063 C   0  0  2  0  0  0  0  0  0  0  0  0
   10.2601  -18.6611   25.6257 N   0  0  0  0  0  0  0  0  0  0  0  0
    9.3949  -17.5185   25.9557 C   0  0  0  0  0  0  0  0  0  0  0  0
   11.1017  -19.0235   26.7868 O   0  0  0  0  0  0  0  0  0  0  0  0
   11.9050  -18.0591   27.3575 O   0  0  0  0  0  0  0  0  0  0  0  0
  2  3  2  0
  2  1  1  0
  4  2  1  0
  5  4  1  0
  6  5  1  0
  7  6  1  0
  8  7  1  0
  8  9  1  6
 10 12  1  0
 10  8  1  0
 11 10  2  0
 13 12  1  0
 13 14  1  1
 15 20  2  0
 15 14  1  0
 16 15  1  0
 17 18  1  0
 17 16  2  0
 18 19  2  0
 19 20  1  0
 21 13  1  0
 21 22  2  0
 24 26  1  0
 24 23  1  0
 25 24  2  0
 27 28  1  0
 27 26  1  6
 28 21  1  0
 29 27  1  0
 30 29  1  0
 31 29  2  0
M  END
$$$$
