RFN.pdb
     RDKit          3D

 31 31  0  0  1  0  0  0  0  0999 V2000
    7.1661  -21.1164   16.5491 N   0  0  0  0  0  0  0  0  0  0  0  0
    7.2364  -20.8159   17.9270 C   0  0  0  0  0  0  0  0  0  0  0  0
    6.2628  -21.1641   18.7133 N   0  0  0  0  0  0  0  0  0  0  0  0
    8.3420  -20.1332   18.5276 N   0  0  0  0  0  0  0  0  0  0  0  0
    8.7978  -18.8491   18.0891 C   0  0  0  0  0  0  0  0  0  0  0  0
    9.0692  -17.9939   19.2997 C   0  0  0  0  0  0  0  0  0  0  0  0
    7.7970  -17.4198   19.8919 C   0  0  0  0  0  0  0  0  0  0  0  0
    7.9398  -15.9176   19.8979 C   0  0  2  0  0  0  0  0  0  0  0  0
    8.8487  -15.4782   18.8622 N   0  0  0  0  0  0  0  0  0  0  0  0
    8.4747  -15.4311   21.2061 C   0  0  0  0  0  0  0  0  0  0  0  0
    9.7102  -15.3941   21.4082 O   0  0  0  0  0  0  0  0  0  0  0  0
    6.2920  -20.9713   19.7423 N   0  0  0  0  0  0  0  0  0  0  0  0
    7.6058  -15.0018   22.2463 C   0  0  2  0  0  0  0  0  0  0  0  0
    8.0004  -14.5051   23.5324 C   0  0  0  0  0  0  0  0  0  0  0  0
    7.0641  -13.5370   24.1514 C   0  0  0  0  0  0  0  0  0  0  0  0
    7.5193  -13.0094   25.4495 C   0  0  0  0  0  0  0  0  0  0  0  0
    6.8448  -13.3589   26.6105 C   0  0  0  0  0  0  0  0  0  0  0  0
    7.2875  -12.8488   27.8113 C   0  0  0  0  0  0  0  0  0  0  0  0
    8.3889  -12.0052   27.8217 C   0  0  0  0  0  0  0  0  0  0  0  0
    9.0671  -11.6506   26.6755 C   0  0  0  0  0  0  0  0  0  0  0  0
    8.6144  -12.1666   25.4879 C   0  0  0  0  0  0  0  0  0  0  0  0
    8.4996  -15.5614   24.4497 O   0  0  0  0  0  0  0  0  0  0  0  0
    7.7470  -16.5204   24.7205 N   0  0  0  0  0  0  0  0  0  0  0  0
   11.6374  -18.6849   23.6927 C   0  0  0  0  0  0  0  0  0  0  0  0
   11.7813  -17.3757   24.1885 O   0  0  0  0  0  0  0  0  0  0  0  0
   12.0560  -16.4409   23.3960 C   0  0  0  0  0  0  0  0  0  0  0  0
   11.6182  -17.0635   25.6221 C   0  0  2  0  0  0  0  0  0  0  0  0
   10.1896  -16.6673   25.8847 N   0  0  0  0  0  0  0  0  0  0  0  0
    9.7834  -15.5382   25.0343 C   0  0  0  0  0  0  0  0  0  0  0  0
    9.9720  -16.3433   27.3113 O   0  0  0  0  0  0  0  0  0  0  0  0
   10.7400  -15.3602   27.8986 O   0  0  0  0  0  0  0  0  0  0  0  0
  2  3  2  0
  2  1  1  0
  4  2  1  0
  5  4  1  0
  6  5  1  0
  7  6  1  0
  8  7  1  0
  8  9  1  6
 10 12  1  0
 10  8  1  0
 11 10  2  0
 13 12  1  0
 13 14  1  1
 15 20  2  0
 15 14  1  0
 16 15  1  0
 17 18  1  0
 17 16  2  0
 18 19  2  0
 19 20  1  0
 21 13  1  0
 21 22  2  0
 24 26  1  0
 24 23  1  0
 25 24  2  0
 27 28  1  0
 27 26  1  6
 28 21  1  0
 29 27  1  0
 30 29  1  0
 31 29  2  0
M  END
$$$$
