RFN.pdb
     RDKit          3D

 31 31  0  0  1  0  0  0  0  0999 V2000
    9.6043  -13.3470   17.7707 N   0  0  0  0  0  0  0  0  0  0  0  0
    8.6490  -13.6757   16.7841 C   0  0  0  0  0  0  0  0  0  0  0  0
    7.9800  -12.7312   16.1945 N   0  0  0  0  0  0  0  0  0  0  0  0
    8.3637  -15.0198   16.3827 N   0  0  0  0  0  0  0  0  0  0  0  0
    8.9495  -16.1636   17.0132 C   0  0  0  0  0  0  0  0  0  0  0  0
    8.7135  -16.0698   18.4985 C   0  0  0  0  0  0  0  0  0  0  0  0
   10.0105  -16.0424   19.2835 C   0  0  0  0  0  0  0  0  0  0  0  0
    9.8167  -16.9060   20.5057 C   0  0  2  0  0  0  0  0  0  0  0  0
    8.5460  -17.5953   20.4583 N   0  0  0  0  0  0  0  0  0  0  0  0
    9.8410  -16.0866   21.7555 C   0  0  0  0  0  0  0  0  0  0  0  0
   10.9119  -15.5727   22.1524 O   0  0  0  0  0  0  0  0  0  0  0  0
    7.2889  -12.9390   15.4355 N   0  0  0  0  0  0  0  0  0  0  0  0
    8.6624  -15.8703   22.5206 C   0  0  1  0  0  0  0  0  0  0  0  0
    8.5706  -15.1422   23.7526 C   0  0  0  0  0  0  0  0  0  0  0  0
    7.3370  -14.3384   23.9223 C   0  0  0  0  0  0  0  0  0  0  0  0
    7.3198  -13.5182   25.1461 C   0  0  0  0  0  0  0  0  0  0  0  0
    8.0934  -12.3685   25.2163 C   0  0  0  0  0  0  0  0  0  0  0  0
    8.0633  -11.6211   26.3733 C   0  0  0  0  0  0  0  0  0  0  0  0
    7.2640  -12.0398   27.4271 C   0  0  0  0  0  0  0  0  0  0  0  0
    6.4914  -13.1797   27.3696 C   0  0  0  0  0  0  0  0  0  0  0  0
    6.5320  -13.9130   26.2112 C   0  0  0  0  0  0  0  0  0  0  0  0
    8.9635  -15.9379   24.9438 O   0  0  0  0  0  0  0  0  0  0  0  0
    8.2371  -16.8934   25.2886 N   0  0  0  0  0  0  0  0  0  0  0  0
   12.9452  -16.6858   24.4621 C   0  0  0  0  0  0  0  0  0  0  0  0
   12.2411  -17.4732   25.3920 O   0  0  0  0  0  0  0  0  0  0  0  0
   11.8717  -18.6294   25.0694 C   0  0  0  0  0  0  0  0  0  0  0  0
   11.9204  -16.9795   26.7458 C   0  0  2  0  0  0  0  0  0  0  0  0
   10.4668  -16.5915   26.8016 N   0  0  0  0  0  0  0  0  0  0  0  0
   10.1176  -15.6700   25.7098 C   0  0  0  0  0  0  0  0  0  0  0  0
   10.1155  -15.9982   28.1100 O   0  0  0  0  0  0  0  0  0  0  0  0
   10.3154  -16.7388   29.2557 O   0  0  0  0  0  0  0  0  0  0  0  0
  2  3  2  0
  2  1  1  0
  4  2  1  0
  5  4  1  0
  6  5  1  0
  7  6  1  0
  8  7  1  0
  8  9  1  6
 10 12  1  0
 10  8  1  0
 11 10  2  0
 13 12  1  0
 13 14  1  1
 15 20  2  0
 15 14  1  0
 16 15  1  0
 17 18  1  0
 17 16  2  0
 18 19  2  0
 19 20  1  0
 21 13  1  0
 21 22  2  0
 24 26  1  0
 24 23  1  0
 25 24  2  0
 27 28  1  0
 27 26  1  6
 28 21  1  0
 29 27  1  0
 30 29  1  0
 31 29  2  0
M  END
$$$$
