RFN.pdb
     RDKit          3D

 31 31  0  0  1  0  0  0  0  0999 V2000
    6.3119  -20.8065   17.4242 N   0  0  0  0  0  0  0  0  0  0  0  0
    7.2212  -21.0491   18.4769 C   0  0  0  0  0  0  0  0  0  0  0  0
    6.9446  -21.9473   19.3736 N   0  0  0  0  0  0  0  0  0  0  0  0
    8.4611  -20.3486   18.6221 N   0  0  0  0  0  0  0  0  0  0  0  0
    8.9338  -19.3926   17.6673 C   0  0  0  0  0  0  0  0  0  0  0  0
    8.2976  -18.0591   17.9639 C   0  0  0  0  0  0  0  0  0  0  0  0
    8.8571  -17.4254   19.2226 C   0  0  0  0  0  0  0  0  0  0  0  0
    8.1077  -16.1354   19.4498 C   0  0  2  0  0  0  0  0  0  0  0  0
    8.3712  -15.1881   18.3892 N   0  0  0  0  0  0  0  0  0  0  0  0
    8.5117  -15.4959   20.7389 C   0  0  0  0  0  0  0  0  0  0  0  0
    9.7078  -15.1845   20.9412 O   0  0  0  0  0  0  0  0  0  0  0  0
    7.5887  -22.1378   20.1772 N   0  0  0  0  0  0  0  0  0  0  0  0
    7.5604  -15.2264   21.7605 C   0  0  2  0  0  0  0  0  0  0  0  0
    7.8451  -14.7497   23.0826 C   0  0  0  0  0  0  0  0  0  0  0  0
    6.6975  -14.1420   23.7971 C   0  0  0  0  0  0  0  0  0  0  0  0
    7.0332  -13.6155   25.1315 C   0  0  0  0  0  0  0  0  0  0  0  0
    7.3140  -12.2660   25.2896 C   0  0  0  0  0  0  0  0  0  0  0  0
    7.6294  -11.7992   26.5469 C   0  0  0  0  0  0  0  0  0  0  0  0
    7.6562  -12.6894   27.6106 C   0  0  0  0  0  0  0  0  0  0  0  0
    7.3794  -14.0318   27.4664 C   0  0  0  0  0  0  0  0  0  0  0  0
    7.0670  -14.4812   26.2088 C   0  0  0  0  0  0  0  0  0  0  0  0
    8.6528  -15.6959   23.8942 O   0  0  0  0  0  0  0  0  0  0  0  0
    8.3234  -16.9004   23.9091 N   0  0  0  0  0  0  0  0  0  0  0  0
   13.2889  -18.2640   24.3105 C   0  0  0  0  0  0  0  0  0  0  0  0
   13.0631  -17.0621   25.0069 O   0  0  0  0  0  0  0  0  0  0  0  0
   13.6805  -16.8427   26.0783 C   0  0  0  0  0  0  0  0  0  0  0  0
   12.1159  -16.0427   24.5142 C   0  0  1  0  0  0  0  0  0  0  0  0
   10.7435  -16.3348   25.0601 N   0  0  0  0  0  0  0  0  0  0  0  0
    9.7761  -15.3045   24.6528 C   0  0  0  0  0  0  0  0  0  0  0  0
   10.7649  -16.4691   26.5329 O   0  0  0  0  0  0  0  0  0  0  0  0
   11.4273  -17.5385   27.0974 O   0  0  0  0  0  0  0  0  0  0  0  0
  2  3  2  0
  2  1  1  0
  4  2  1  0
  5  4  1  0
  6  5  1  0
  7  6  1  0
  8  7  1  0
  8  9  1  6
 10 12  1  0
 10  8  1  0
 11 10  2  0
 13 12  1  0
 13 14  1  6
 15 20  2  0
 15 14  1  0
 16 15  1  0
 17 18  1  0
 17 16  2  0
 18 19  2  0
 19 20  1  0
 21 13  1  0
 21 22  2  0
 24 26  1  0
 24 23  1  0
 25 24  2  0
 27 28  1  0
 27 26  1  6
 28 21  1  0
 29 27  1  0
 30 29  1  0
 31 29  2  0
M  END
$$$$
