RFN.pdb
     RDKit          3D

 31 31  0  0  1  0  0  0  0  0999 V2000
    9.7000  -13.5862   17.0210 N   0  0  0  0  0  0  0  0  0  0  0  0
    8.6113  -14.1372   16.3102 C   0  0  0  0  0  0  0  0  0  0  0  0
    7.7683  -13.3511   15.7114 N   0  0  0  0  0  0  0  0  0  0  0  0
    8.3718  -15.5446   16.2058 N   0  0  0  0  0  0  0  0  0  0  0  0
    8.7116  -16.4730   17.2411 C   0  0  0  0  0  0  0  0  0  0  0  0
    8.4497  -15.8246   18.5759 C   0  0  0  0  0  0  0  0  0  0  0  0
    9.6487  -15.9125   19.4999 C   0  0  0  0  0  0  0  0  0  0  0  0
    9.2668  -16.8109   20.6506 C   0  0  2  0  0  0  0  0  0  0  0  0
    7.8973  -17.2594   20.5269 N   0  0  0  0  0  0  0  0  0  0  0  0
    9.3933  -16.0975   21.9579 C   0  0  0  0  0  0  0  0  0  0  0  0
   10.4777  -15.5609   22.2817 O   0  0  0  0  0  0  0  0  0  0  0  0
    7.0165  -13.7261   15.0859 N   0  0  0  0  0  0  0  0  0  0  0  0
    8.2986  -16.0092   22.8608 C   0  0  1  0  0  0  0  0  0  0  0  0
    8.2888  -15.3232   24.1200 C   0  0  0  0  0  0  0  0  0  0  0  0
    7.0073  -14.6682   24.4740 C   0  0  0  0  0  0  0  0  0  0  0  0
    7.0981  -13.7588   25.6295 C   0  0  0  0  0  0  0  0  0  0  0  0
    7.2956  -12.4008   25.4243 C   0  0  0  0  0  0  0  0  0  0  0  0
    7.3815  -11.5720   26.5215 C   0  0  0  0  0  0  0  0  0  0  0  0
    7.2685  -12.1190   27.7914 C   0  0  0  0  0  0  0  0  0  0  0  0
    7.0724  -13.4658   28.0083 C   0  0  0  0  0  0  0  0  0  0  0  0
    6.9889  -14.2779   26.9061 C   0  0  0  0  0  0  0  0  0  0  0  0
    8.9181  -16.0951   25.2221 O   0  0  0  0  0  0  0  0  0  0  0  0
    8.3784  -17.1603   25.5879 N   0  0  0  0  0  0  0  0  0  0  0  0
   11.8804  -18.4208   25.2637 C   0  0  0  0  0  0  0  0  0  0  0  0
   12.7245  -17.5288   25.9509 O   0  0  0  0  0  0  0  0  0  0  0  0
   13.9670  -17.5986   25.7819 C   0  0  0  0  0  0  0  0  0  0  0  0
   12.1916  -16.5052   26.8716 C   0  0  2  0  0  0  0  0  0  0  0  0
   10.6882  -16.5839   26.8854 N   0  0  0  0  0  0  0  0  0  0  0  0
   10.0971  -15.6869   25.8808 C   0  0  0  0  0  0  0  0  0  0  0  0
   10.1435  -16.2856   28.2277 O   0  0  0  0  0  0  0  0  0  0  0  0
    9.9567  -17.3209   29.1189 O   0  0  0  0  0  0  0  0  0  0  0  0
  2  3  2  0
  2  1  1  0
  4  2  1  0
  5  4  1  0
  6  5  1  0
  7  6  1  0
  8  7  1  0
  8  9  1  6
 10 12  1  0
 10  8  1  0
 11 10  2  0
 13 12  1  0
 13 14  1  1
 15 20  2  0
 15 14  1  0
 16 15  1  0
 17 18  1  0
 17 16  2  0
 18 19  2  0
 19 20  1  0
 21 13  1  0
 21 22  2  0
 24 26  1  0
 24 23  1  0
 25 24  2  0
 27 28  1  0
 27 26  1  6
 28 21  1  0
 29 27  1  0
 30 29  1  0
 31 29  2  0
M  END
$$$$
