RFN.pdb
     RDKit          3D

 31 31  0  0  1  0  0  0  0  0999 V2000
    7.7286  -12.6431   17.0232 N   0  0  0  0  0  0  0  0  0  0  0  0
    8.1545  -13.7301   16.2288 C   0  0  0  0  0  0  0  0  0  0  0  0
    7.9198  -13.7260   14.9513 N   0  0  0  0  0  0  0  0  0  0  0  0
    8.8467  -14.8664   16.7571 N   0  0  0  0  0  0  0  0  0  0  0  0
    8.3139  -15.6891   17.8004 C   0  0  0  0  0  0  0  0  0  0  0  0
    8.9604  -15.2953   19.1033 C   0  0  0  0  0  0  0  0  0  0  0  0
   10.1526  -16.1702   19.4381 C   0  0  0  0  0  0  0  0  0  0  0  0
    9.8367  -16.8900   20.7262 C   0  0  2  0  0  0  0  0  0  0  0  0
    8.5493  -17.5452   20.6527 N   0  0  0  0  0  0  0  0  0  0  0  0
    9.7962  -15.9403   21.8797 C   0  0  0  0  0  0  0  0  0  0  0  0
   10.8471  -15.3895   22.2808 O   0  0  0  0  0  0  0  0  0  0  0  0
    8.2120  -14.5220   14.3365 N   0  0  0  0  0  0  0  0  0  0  0  0
    8.5774  -15.6393   22.5469 C   0  0  1  0  0  0  0  0  0  0  0  0
    8.4341  -14.8711   23.7493 C   0  0  0  0  0  0  0  0  0  0  0  0
    7.1263  -14.1937   23.9155 C   0  0  0  0  0  0  0  0  0  0  0  0
    7.0518  -13.3161   25.0965 C   0  0  0  0  0  0  0  0  0  0  0  0
    6.1828  -13.6269   26.1326 C   0  0  0  0  0  0  0  0  0  0  0  0
    6.1285  -12.7880   27.2241 C   0  0  0  0  0  0  0  0  0  0  0  0
    6.9408  -11.6637   27.2527 C   0  0  0  0  0  0  0  0  0  0  0  0
    7.8078  -11.3442   26.2300 C   0  0  0  0  0  0  0  0  0  0  0  0
    7.8505  -12.1891   25.1504 C   0  0  0  0  0  0  0  0  0  0  0  0
    8.9321  -15.5684   24.9627 O   0  0  0  0  0  0  0  0  0  0  0  0
    9.1116  -14.9007   26.0026 N   0  0  0  0  0  0  0  0  0  0  0  0
    8.9837  -20.0126   28.6905 C   0  0  0  0  0  0  0  0  0  0  0  0
    9.7571  -19.5907   27.5931 O   0  0  0  0  0  0  0  0  0  0  0  0
   11.0033  -19.7442   27.6191 C   0  0  0  0  0  0  0  0  0  0  0  0
    9.1453  -18.9684   26.4024 C   0  0  1  0  0  0  0  0  0  0  0  0
    9.6268  -17.5470   26.2821 N   0  0  0  0  0  0  0  0  0  0  0  0
    9.2151  -16.9500   25.0026 C   0  0  0  0  0  0  0  0  0  0  0  0
   11.0942  -17.4578   26.4447 O   0  0  0  0  0  0  0  0  0  0  0  0
   11.8960  -17.5144   25.3244 O   0  0  0  0  0  0  0  0  0  0  0  0
  2  3  2  0
  2  1  1  0
  4  2  1  0
  5  4  1  0
  6  5  1  0
  7  6  1  0
  8  7  1  0
  8  9  1  6
 10 12  1  0
 10  8  1  0
 11 10  2  0
 13 12  1  0
 13 14  1  6
 15 20  2  0
 15 14  1  0
 16 15  1  0
 17 18  1  0
 17 16  2  0
 18 19  2  0
 19 20  1  0
 21 13  1  0
 21 22  2  0
 24 26  1  0
 24 23  1  0
 25 24  2  0
 27 28  1  0
 27 26  1  1
 28 21  1  0
 29 27  1  0
 30 29  1  0
 31 29  2  0
M  END
$$$$
