TIK.pdb
     RDKit          3D

 25 24  0  0  1  0  0  0  0  0999 V2000
    6.0169  -16.4765   20.1262 C   0  0  0  0  0  0  0  0  0  0  0  0
    6.7458  -16.2227   21.4369 C   0  0  1  0  0  0  0  0  0  0  0  0
    7.7793  -17.1165   21.6121 O   0  0  0  0  0  0  0  0  0  0  0  0
    7.1962  -14.7919   21.4252 C   0  0  2  0  0  0  0  0  0  0  0  0
    7.9662  -14.4626   20.2591 N   0  0  0  0  0  0  0  0  0  0  0  0
    7.9681  -14.4218   22.6417 C   0  0  0  0  0  0  0  0  0  0  0  0
    9.2031  -14.1424   22.5599 O   0  0  0  0  0  0  0  0  0  0  0  0
    5.7292  -11.4145   26.6382 C   0  0  0  0  0  0  0  0  0  0  0  0
    6.7995  -11.9923   25.7680 C   0  0  0  0  0  0  0  0  0  0  0  0
    7.3082  -13.3264   26.1462 C   0  0  2  0  0  0  0  0  0  0  0  0
    8.2035  -13.1249   27.3805 C   0  0  0  0  0  0  0  0  0  0  0  0
    8.1474  -14.0251   25.1322 C   0  0  2  0  0  0  0  0  0  0  0  0
    7.3945  -14.3576   23.9365 N   0  0  0  0  0  0  0  0  0  0  0  0
    8.8675  -15.1947   25.6837 C   0  0  0  0  0  0  0  0  0  0  0  0
    9.6764  -14.9487   26.6307 O   0  0  0  0  0  0  0  0  0  0  0  0
    8.7157  -16.5086   25.2395 N   0  0  0  0  0  0  0  0  0  0  0  0
    9.6107  -17.5366   25.7872 C   0  0  1  0  0  0  0  0  0  0  0  0
   10.7955  -17.7391   24.8640 C   0  0  0  0  0  0  0  0  0  0  0  0
   11.8124  -18.6917   25.4123 C   0  0  0  0  0  0  0  0  0  0  0  0
   12.9528  -18.9190   24.4488 C   0  0  0  0  0  0  0  0  0  0  0  0
   13.9747  -19.8403   25.0526 C   0  0  0  0  0  0  0  0  0  0  0  0
   15.0610  -20.0718   24.1319 N   0  0  0  0  0  0  0  0  0  0  0  0
   10.0078  -17.1121   27.1517 C   0  0  0  0  0  0  0  0  0  0  0  0
    9.9913  -17.9324   28.2675 O   0  0  0  0  0  0  0  0  0  0  0  0
   10.4025  -15.9154   27.3788 O   0  0  0  0  0  0  0  0  0  0  0  0
  2  1  1  6
  2  3  1  0
  4  5  1  6
  4  2  1  0
  6  4  1  0
  7  6  2  0
  8  9  1  0
 10 11  1  1
 10  9  1  0
 10 12  1  0
 12 13  1  6
 13  6  1  0
 14 12  1  0
 14 15  2  0
 16 14  1  0
 17 16  1  0
 17 18  1  6
 19 18  1  0
 20 19  1  0
 21 20  1  0
 22 21  1  0
 23 24  1  0
 23 17  1  0
 25 23  2  0
M  END
$$$$
