TIK.pdb
     RDKit          3D

 25 24  0  0  1  0  0  0  0  0999 V2000
    5.7385  -16.6178   20.0418 C   0  0  0  0  0  0  0  0  0  0  0  0
    6.5892  -16.4856   21.2958 C   0  0  1  0  0  0  0  0  0  0  0  0
    7.6088  -17.4121   21.3048 O   0  0  0  0  0  0  0  0  0  0  0  0
    7.0768  -15.0683   21.3549 C   0  0  2  0  0  0  0  0  0  0  0  0
    7.8522  -14.7003   20.2039 N   0  0  0  0  0  0  0  0  0  0  0  0
    7.8613  -14.7806   22.5855 C   0  0  0  0  0  0  0  0  0  0  0  0
    9.1296  -14.7631   22.5507 O   0  0  0  0  0  0  0  0  0  0  0  0
    5.8374  -11.4794   26.5541 C   0  0  0  0  0  0  0  0  0  0  0  0
    6.8524  -12.1516   25.6855 C   0  0  0  0  0  0  0  0  0  0  0  0
    7.2478  -13.5211   26.0721 C   0  0  2  0  0  0  0  0  0  0  0  0
    8.1599  -13.3875   27.3033 C   0  0  0  0  0  0  0  0  0  0  0  0
    8.0227  -14.2949   25.0614 C   0  0  2  0  0  0  0  0  0  0  0  0
    7.2643  -14.5142   23.8434 N   0  0  0  0  0  0  0  0  0  0  0  0
    8.5874  -15.5513   25.6031 C   0  0  0  0  0  0  0  0  0  0  0  0
    7.7461  -16.4617   25.8772 O   0  0  0  0  0  0  0  0  0  0  0  0
    9.9448  -15.7872   25.8236 N   0  0  0  0  0  0  0  0  0  0  0  0
   10.3665  -17.1495   26.1760 C   0  0  1  0  0  0  0  0  0  0  0  0
   11.6299  -17.5135   25.4221 C   0  0  0  0  0  0  0  0  0  0  0  0
   12.1724  -18.8576   25.7976 C   0  0  0  0  0  0  0  0  0  0  0  0
   13.4197  -19.2025   25.0192 C   0  0  0  0  0  0  0  0  0  0  0  0
   13.9085  -20.5737   25.3913 C   0  0  0  0  0  0  0  0  0  0  0  0
   15.1125  -20.9007   24.6669 N   0  0  0  0  0  0  0  0  0  0  0  0
   10.5364  -17.2051   27.6483 C   0  0  0  0  0  0  0  0  0  0  0  0
   10.5247  -16.1012   28.4846 O   0  0  0  0  0  0  0  0  0  0  0  0
   10.7104  -18.3231   28.2479 O   0  0  0  0  0  0  0  0  0  0  0  0
  2  1  1  6
  2  3  1  0
  4  5  1  6
  4  2  1  0
  6  4  1  0
  7  6  2  0
  8  9  1  0
 10 11  1  1
 10  9  1  0
 10 12  1  0
 12 13  1  6
 13  6  1  0
 14 12  1  0
 14 15  2  0
 16 14  1  0
 17 16  1  0
 17 18  1  6
 19 18  1  0
 20 19  1  0
 21 20  1  0
 22 21  1  0
 23 24  1  0
 23 17  1  0
 25 23  2  0
M  END
$$$$
