TIK.pdb
     RDKit          3D

 25 24  0  0  1  0  0  0  0  0999 V2000
    6.0143  -16.6480   21.7215 C   0  0  0  0  0  0  0  0  0  0  0  0
    6.8519  -15.9214   20.6802 C   0  0  1  0  0  0  0  0  0  0  0  0
    6.2899  -16.0290   19.4270 O   0  0  0  0  0  0  0  0  0  0  0  0
    7.0018  -14.5021   21.1418 C   0  0  2  0  0  0  0  0  0  0  0  0
    7.5525  -13.6453   20.1298 N   0  0  0  0  0  0  0  0  0  0  0  0
    7.8170  -14.3829   22.3803 C   0  0  0  0  0  0  0  0  0  0  0  0
    9.0844  -14.3758   22.3183 O   0  0  0  0  0  0  0  0  0  0  0  0
    5.9600  -11.4503   26.6924 C   0  0  0  0  0  0  0  0  0  0  0  0
    6.9282  -12.0658   25.7331 C   0  0  0  0  0  0  0  0  0  0  0  0
    7.2967  -13.4744   25.9808 C   0  0  2  0  0  0  0  0  0  0  0  0
    8.2276  -13.4795   27.2052 C   0  0  0  0  0  0  0  0  0  0  0  0
    8.0403  -14.1644   24.8891 C   0  0  2  0  0  0  0  0  0  0  0  0
    7.2514  -14.2726   23.6755 N   0  0  0  0  0  0  0  0  0  0  0  0
    8.6054  -15.4669   25.3074 C   0  0  0  0  0  0  0  0  0  0  0  0
    7.7602  -16.3790   25.5629 O   0  0  0  0  0  0  0  0  0  0  0  0
    9.9672  -15.7432   25.4339 N   0  0  0  0  0  0  0  0  0  0  0  0
   10.3795  -17.1401   25.6248 C   0  0  1  0  0  0  0  0  0  0  0  0
   11.5938  -17.4446   24.7706 C   0  0  0  0  0  0  0  0  0  0  0  0
   12.1638  -18.8061   25.0225 C   0  0  0  0  0  0  0  0  0  0  0  0
   13.4712  -19.0159   24.2964 C   0  0  0  0  0  0  0  0  0  0  0  0
   13.9560  -20.4256   24.4846 C   0  0  0  0  0  0  0  0  0  0  0  0
   15.2512  -20.6059   23.8752 N   0  0  0  0  0  0  0  0  0  0  0  0
   10.6255  -17.3466   27.0727 C   0  0  0  0  0  0  0  0  0  0  0  0
   10.6437  -18.5811   27.7001 O   0  0  0  0  0  0  0  0  0  0  0  0
   10.8426  -16.3529   27.8507 O   0  0  0  0  0  0  0  0  0  0  0  0
  2  1  1  1
  2  3  1  0
  4  5  1  6
  4  2  1  0
  6  4  1  0
  7  6  2  0
  8  9  1  0
 10 11  1  1
 10  9  1  0
 10 12  1  0
 12 13  1  6
 13  6  1  0
 14 12  1  0
 14 15  2  0
 16 14  1  0
 17 16  1  0
 17 18  1  6
 19 18  1  0
 20 19  1  0
 21 20  1  0
 22 21  1  0
 23 24  1  0
 23 17  1  0
 25 23  2  0
M  END
$$$$
