TIK.pdb
     RDKit          3D

 25 24  0  0  1  0  0  0  0  0999 V2000
    5.8608  -16.3036   19.7634 C   0  0  0  0  0  0  0  0  0  0  0  0
    6.6436  -16.2086   21.0641 C   0  0  1  0  0  0  0  0  0  0  0  0
    7.6138  -17.1842   21.1328 O   0  0  0  0  0  0  0  0  0  0  0  0
    7.1966  -14.8169   21.1496 C   0  0  2  0  0  0  0  0  0  0  0  0
    8.0578  -14.4939   20.0472 N   0  0  0  0  0  0  0  0  0  0  0  0
    7.9181  -14.5617   22.4251 C   0  0  0  0  0  0  0  0  0  0  0  0
    9.1865  -14.5663   22.4589 O   0  0  0  0  0  0  0  0  0  0  0  0
    5.6933  -11.3675   26.3432 C   0  0  0  0  0  0  0  0  0  0  0  0
    6.7565  -12.0214   25.5195 C   0  0  0  0  0  0  0  0  0  0  0  0
    7.1468  -13.3904   25.9129 C   0  0  2  0  0  0  0  0  0  0  0  0
    8.0264  -13.2563   27.1675 C   0  0  0  0  0  0  0  0  0  0  0  0
    7.9504  -14.1590   24.9208 C   0  0  2  0  0  0  0  0  0  0  0  0
    7.2585  -14.3038   23.6531 N   0  0  0  0  0  0  0  0  0  0  0  0
    8.4326  -15.4558   25.4468 C   0  0  0  0  0  0  0  0  0  0  0  0
    7.5489  -16.3556   25.5919 O   0  0  0  0  0  0  0  0  0  0  0  0
    9.7570  -15.7391   25.7819 N   0  0  0  0  0  0  0  0  0  0  0  0
   10.1078  -17.1241   26.1235 C   0  0  1  0  0  0  0  0  0  0  0  0
   11.3240  -17.5621   25.3322 C   0  0  0  0  0  0  0  0  0  0  0  0
   11.7845  -18.9442   25.6783 C   0  0  0  0  0  0  0  0  0  0  0  0
   13.0175  -19.3413   24.9021 C   0  0  0  0  0  0  0  0  0  0  0  0
   13.4222  -20.7476   25.2428 C   0  0  0  0  0  0  0  0  0  0  0  0
   14.6210  -21.1205   24.5320 N   0  0  0  0  0  0  0  0  0  0  0  0
   10.3186  -17.1901   27.5901 C   0  0  0  0  0  0  0  0  0  0  0  0
   10.3080  -18.3574   28.3353 O   0  0  0  0  0  0  0  0  0  0  0  0
   10.5297  -16.1272   28.2722 O   0  0  0  0  0  0  0  0  0  0  0  0
  2  1  1  6
  2  3  1  0
  4  5  1  6
  4  2  1  0
  6  4  1  0
  7  6  2  0
  8  9  1  0
 10 11  1  1
 10  9  1  0
 10 12  1  0
 12 13  1  6
 13  6  1  0
 14 12  1  0
 14 15  2  0
 16 14  1  0
 17 16  1  0
 17 18  1  6
 19 18  1  0
 20 19  1  0
 21 20  1  0
 22 21  1  0
 23 24  1  0
 23 17  1  0
 25 23  2  0
M  END
$$$$
