TIK.pdb
     RDKit          3D

 25 24  0  0  1  0  0  0  0  0999 V2000
    6.3301  -16.8416   20.2882 C   0  0  0  0  0  0  0  0  0  0  0  0
    7.0507  -16.5791   21.6018 C   0  0  1  0  0  0  0  0  0  0  0  0
    8.1933  -17.3420   21.7031 O   0  0  0  0  0  0  0  0  0  0  0  0
    7.3149  -15.1044   21.6769 C   0  0  2  0  0  0  0  0  0  0  0  0
    8.0740  -14.6196   20.5588 N   0  0  0  0  0  0  0  0  0  0  0  0
    7.9935  -14.7051   22.9389 C   0  0  0  0  0  0  0  0  0  0  0  0
    9.2424  -14.4813   22.9550 O   0  0  0  0  0  0  0  0  0  0  0  0
    5.3398  -11.6680   26.6273 C   0  0  0  0  0  0  0  0  0  0  0  0
    6.4784  -12.2352   25.8408 C   0  0  0  0  0  0  0  0  0  0  0  0
    7.0768  -13.4841   26.3541 C   0  0  2  0  0  0  0  0  0  0  0  0
    7.9405  -13.0954   27.5660 C   0  0  0  0  0  0  0  0  0  0  0  0
    7.9762  -14.2182   25.4197 C   0  0  2  0  0  0  0  0  0  0  0  0
    7.3124  -14.5516   24.1727 N   0  0  0  0  0  0  0  0  0  0  0  0
    8.6213  -15.3956   26.0429 C   0  0  0  0  0  0  0  0  0  0  0  0
    7.8413  -16.3393   26.3785 O   0  0  0  0  0  0  0  0  0  0  0  0
    9.9907  -15.5261   26.2760 N   0  0  0  0  0  0  0  0  0  0  0  0
   10.4754  -16.7624   26.9040 C   0  0  1  0  0  0  0  0  0  0  0  0
   11.6203  -17.3408   26.0967 C   0  0  0  0  0  0  0  0  0  0  0  0
   11.2378  -17.6726   24.6875 C   0  0  0  0  0  0  0  0  0  0  0  0
   12.3734  -18.3177   23.9294 C   0  0  0  0  0  0  0  0  0  0  0  0
   11.9763  -18.5687   22.5022 C   0  0  0  0  0  0  0  0  0  0  0  0
   13.1256  -18.9288   21.7080 N   0  0  0  0  0  0  0  0  0  0  0  0
   10.8577  -16.4421   28.3007 C   0  0  0  0  0  0  0  0  0  0  0  0
   11.0796  -17.3835   29.2920 O   0  0  0  0  0  0  0  0  0  0  0  0
   11.0083  -15.2280   28.6789 O   0  0  0  0  0  0  0  0  0  0  0  0
  2  1  1  6
  2  3  1  0
  4  5  1  6
  4  2  1  0
  6  4  1  0
  7  6  2  0
  8  9  1  0
 10 11  1  1
 10  9  1  0
 10 12  1  0
 12 13  1  6
 13  6  1  0
 14 12  1  0
 14 15  2  0
 16 14  1  0
 17 16  1  0
 17 18  1  6
 19 18  1  0
 20 19  1  0
 21 20  1  0
 22 21  1  0
 23 24  1  0
 23 17  1  0
 25 23  2  0
M  END
$$$$
