TIK.pdb
     RDKit          3D

 25 24  0  0  1  0  0  0  0  0999 V2000
    5.9146  -15.8593   19.6314 C   0  0  0  0  0  0  0  0  0  0  0  0
    6.6370  -15.8588   20.9700 C   0  0  1  0  0  0  0  0  0  0  0  0
    7.5023  -16.9262   21.0682 O   0  0  0  0  0  0  0  0  0  0  0  0
    7.3188  -14.5297   21.1067 C   0  0  2  0  0  0  0  0  0  0  0  0
    8.2612  -14.2790   20.0530 N   0  0  0  0  0  0  0  0  0  0  0  0
    7.9976  -14.3636   22.4198 C   0  0  0  0  0  0  0  0  0  0  0  0
    9.2575  -14.4827   22.5125 O   0  0  0  0  0  0  0  0  0  0  0  0
    5.8044  -11.1928   26.4400 C   0  0  0  0  0  0  0  0  0  0  0  0
    6.8296  -11.8749   25.5913 C   0  0  0  0  0  0  0  0  0  0  0  0
    7.1309  -13.2819   25.9240 C   0  0  2  0  0  0  0  0  0  0  0  0
    7.9570  -13.2627   27.2213 C   0  0  0  0  0  0  0  0  0  0  0  0
    7.9394  -14.0380   24.9263 C   0  0  2  0  0  0  0  0  0  0  0  0
    7.3048  -14.0698   23.6213 N   0  0  0  0  0  0  0  0  0  0  0  0
    8.3223  -15.3885   25.3957 C   0  0  0  0  0  0  0  0  0  0  0  0
    7.3740  -16.2261   25.5004 O   0  0  0  0  0  0  0  0  0  0  0  0
    9.6207  -15.7833   25.7198 N   0  0  0  0  0  0  0  0  0  0  0  0
    9.8545  -17.1917   26.0654 C   0  0  1  0  0  0  0  0  0  0  0  0
   11.0195  -17.7368   25.2638 C   0  0  0  0  0  0  0  0  0  0  0  0
   11.4046  -19.1291   25.6580 C   0  0  0  0  0  0  0  0  0  0  0  0
   12.6651  -19.5862   24.9631 C   0  0  0  0  0  0  0  0  0  0  0  0
   13.0272  -20.9790   25.3950 C   0  0  0  0  0  0  0  0  0  0  0  0
   14.3225  -21.3526   24.8812 N   0  0  0  0  0  0  0  0  0  0  0  0
   10.0749  -17.2688   27.5300 C   0  0  0  0  0  0  0  0  0  0  0  0
   10.3376  -16.1804   28.3451 O   0  0  0  0  0  0  0  0  0  0  0  0
   10.0328  -18.3924   28.1427 O   0  0  0  0  0  0  0  0  0  0  0  0
  2  1  1  6
  2  3  1  0
  4  5  1  6
  4  2  1  0
  6  4  1  0
  7  6  2  0
  8  9  1  0
 10 11  1  1
 10  9  1  0
 10 12  1  0
 12 13  1  6
 13  6  1  0
 14 12  1  0
 14 15  2  0
 16 14  1  0
 17 16  1  0
 17 18  1  6
 19 18  1  0
 20 19  1  0
 21 20  1  0
 22 21  1  0
 23 24  1  0
 23 17  1  0
 25 23  2  0
M  END
$$$$
