TIK.pdb
     RDKit          3D

 25 24  0  0  1  0  0  0  0  0999 V2000
    6.4291  -15.8438   20.7882 C   0  0  0  0  0  0  0  0  0  0  0  0
    7.2755  -14.8913   19.9575 C   0  0  1  0  0  0  0  0  0  0  0  0
    6.8365  -14.8455   18.6525 O   0  0  0  0  0  0  0  0  0  0  0  0
    7.2422  -13.5562   20.6404 C   0  0  2  0  0  0  0  0  0  0  0  0
    7.8247  -12.5121   19.8453 N   0  0  0  0  0  0  0  0  0  0  0  0
    7.8964  -13.5767   21.9761 C   0  0  0  0  0  0  0  0  0  0  0  0
    9.1616  -13.5731   22.0731 O   0  0  0  0  0  0  0  0  0  0  0  0
    5.7387  -11.1464   26.4721 C   0  0  0  0  0  0  0  0  0  0  0  0
    6.7084  -11.7155   25.4859 C   0  0  0  0  0  0  0  0  0  0  0  0
    6.9793  -13.1638   25.5880 C   0  0  2  0  0  0  0  0  0  0  0  0
    7.7756  -13.3743   26.8870 C   0  0  0  0  0  0  0  0  0  0  0  0
    7.7983  -13.7611   24.4957 C   0  0  2  0  0  0  0  0  0  0  0  0
    7.1736  -13.6009   23.1954 N   0  0  0  0  0  0  0  0  0  0  0  0
    8.1832  -15.1652   24.7627 C   0  0  0  0  0  0  0  0  0  0  0  0
    7.2460  -16.0183   24.6879 O   0  0  0  0  0  0  0  0  0  0  0  0
    9.4723  -15.5933   25.0815 N   0  0  0  0  0  0  0  0  0  0  0  0
    9.7107  -17.0353   25.2287 C   0  0  1  0  0  0  0  0  0  0  0  0
   10.7849  -17.4858   24.2591 C   0  0  0  0  0  0  0  0  0  0  0  0
   10.7565  -18.9590   23.9926 C   0  0  0  0  0  0  0  0  0  0  0  0
   11.9216  -19.4029   23.1404 C   0  0  0  0  0  0  0  0  0  0  0  0
   11.9267  -20.8984   22.9960 C   0  0  0  0  0  0  0  0  0  0  0  0
   13.1047  -21.3392   22.2892 N   0  0  0  0  0  0  0  0  0  0  0  0
   10.0659  -17.2941   26.6451 C   0  0  0  0  0  0  0  0  0  0  0  0
    9.9965  -18.5328   27.2607 O   0  0  0  0  0  0  0  0  0  0  0  0
   10.4717  -16.3464   27.4046 O   0  0  0  0  0  0  0  0  0  0  0  0
  2  1  1  1
  2  3  1  0
  4  5  1  6
  4  2  1  0
  6  4  1  0
  7  6  2  0
  8  9  1  0
 10 11  1  1
 10  9  1  0
 10 12  1  0
 12 13  1  6
 13  6  1  0
 14 12  1  0
 14 15  2  0
 16 14  1  0
 17 16  1  0
 17 18  1  6
 19 18  1  0
 20 19  1  0
 21 20  1  0
 22 21  1  0
 23 24  1  0
 23 17  1  0
 25 23  2  0
M  END
$$$$
