TIK.pdb
     RDKit          3D

 25 24  0  0  1  0  0  0  0  0999 V2000
    6.5242  -17.4374   22.5223 C   0  0  0  0  0  0  0  0  0  0  0  0
    7.2977  -17.0194   21.2811 C   0  0  1  0  0  0  0  0  0  0  0  0
    6.7431  -17.5631   20.1433 O   0  0  0  0  0  0  0  0  0  0  0  0
    7.3337  -15.5199   21.2637 C   0  0  2  0  0  0  0  0  0  0  0  0
    7.8976  -14.9930   20.0530 N   0  0  0  0  0  0  0  0  0  0  0  0
    8.0583  -14.9482   22.4301 C   0  0  0  0  0  0  0  0  0  0  0  0
    9.3267  -14.9530   22.4651 O   0  0  0  0  0  0  0  0  0  0  0  0
    7.2482  -11.1375   27.3118 C   0  0  0  0  0  0  0  0  0  0  0  0
    7.9884  -12.2396   26.6232 C   0  0  0  0  0  0  0  0  0  0  0  0
    7.3497  -12.8121   25.4208 C   0  0  2  0  0  0  0  0  0  0  0  0
    6.0169  -13.4284   25.8788 C   0  0  0  0  0  0  0  0  0  0  0  0
    8.0971  -13.9012   24.7311 C   0  0  2  0  0  0  0  0  0  0  0  0
    7.4018  -14.3761   23.5488 N   0  0  0  0  0  0  0  0  0  0  0  0
    8.4776  -15.0068   25.6388 C   0  0  0  0  0  0  0  0  0  0  0  0
    7.5758  -15.8718   25.8634 O   0  0  0  0  0  0  0  0  0  0  0  0
    9.7270  -15.1504   26.2428 N   0  0  0  0  0  0  0  0  0  0  0  0
   10.0276  -16.4139   26.9291 C   0  0  1  0  0  0  0  0  0  0  0  0
   11.1879  -17.1116   26.2481 C   0  0  0  0  0  0  0  0  0  0  0  0
   11.5366  -18.4246   26.8780 C   0  0  0  0  0  0  0  0  0  0  0  0
   12.7614  -19.0463   26.2504 C   0  0  0  0  0  0  0  0  0  0  0  0
   13.0726  -20.3647   26.9004 C   0  0  0  0  0  0  0  0  0  0  0  0
   14.2519  -20.9562   26.3167 N   0  0  0  0  0  0  0  0  0  0  0  0
   10.2965  -16.1033   28.3541 C   0  0  0  0  0  0  0  0  0  0  0  0
   10.3228  -17.0411   29.3730 O   0  0  0  0  0  0  0  0  0  0  0  0
   10.5273  -14.9021   28.7327 O   0  0  0  0  0  0  0  0  0  0  0  0
  2  1  1  1
  2  3  1  0
  4  5  1  6
  4  2  1  0
  6  4  1  0
  7  6  2  0
  8  9  1  0
 10 11  1  1
 10  9  1  0
 10 12  1  0
 12 13  1  6
 13  6  1  0
 14 12  1  0
 14 15  2  0
 16 14  1  0
 17 16  1  0
 17 18  1  6
 19 18  1  0
 20 19  1  0
 21 20  1  0
 22 21  1  0
 23 24  1  0
 23 17  1  0
 25 23  2  0
M  END
$$$$
