TIK.pdb
     RDKit          3D

 25 24  0  0  1  0  0  0  0  0999 V2000
    6.2170  -16.8830   21.7920 C   0  0  0  0  0  0  0  0  0  0  0  0
    7.2151  -16.2758   20.8180 C   0  0  1  0  0  0  0  0  0  0  0  0
    6.8309  -16.4925   19.5130 O   0  0  0  0  0  0  0  0  0  0  0  0
    7.3449  -14.8218   21.1632 C   0  0  2  0  0  0  0  0  0  0  0  0
    8.0482  -14.0742   20.1593 N   0  0  0  0  0  0  0  0  0  0  0  0
    7.9939  -14.5994   22.4830 C   0  0  0  0  0  0  0  0  0  0  0  0
    9.2584  -14.6074   22.5878 O   0  0  0  0  0  0  0  0  0  0  0  0
    5.8716  -11.2638   26.3894 C   0  0  0  0  0  0  0  0  0  0  0  0
    6.8510  -12.0300   25.5586 C   0  0  0  0  0  0  0  0  0  0  0  0
    7.0634  -13.4445   25.9265 C   0  0  2  0  0  0  0  0  0  0  0  0
    7.8173  -13.4445   27.2671 C   0  0  0  0  0  0  0  0  0  0  0  0
    7.8867  -14.2552   24.9854 C   0  0  2  0  0  0  0  0  0  0  0  0
    7.2666  -14.3703   23.6781 N   0  0  0  0  0  0  0  0  0  0  0  0
    8.2714  -15.5724   25.5404 C   0  0  0  0  0  0  0  0  0  0  0  0
    7.3223  -16.3980   25.7113 O   0  0  0  0  0  0  0  0  0  0  0  0
    9.5723  -15.9486   25.8763 N   0  0  0  0  0  0  0  0  0  0  0  0
    9.8052  -17.3293   26.3202 C   0  0  1  0  0  0  0  0  0  0  0  0
   10.8134  -18.0039   25.4116 C   0  0  0  0  0  0  0  0  0  0  0  0
   11.0997  -19.4213   25.8002 C   0  0  0  0  0  0  0  0  0  0  0  0
   12.2348  -20.0105   24.9971 C   0  0  0  0  0  0  0  0  0  0  0  0
   12.4318  -21.4577   25.3500 C   0  0  0  0  0  0  0  0  0  0  0  0
   13.3981  -22.0707   24.4715 N   0  0  0  0  0  0  0  0  0  0  0  0
   10.2443  -17.2828   27.7360 C   0  0  0  0  0  0  0  0  0  0  0  0
   10.4901  -16.1195   28.4463 O   0  0  0  0  0  0  0  0  0  0  0  0
   10.4271  -18.3603   28.4031 O   0  0  0  0  0  0  0  0  0  0  0  0
  2  1  1  1
  2  3  1  0
  4  5  1  6
  4  2  1  0
  6  4  1  0
  7  6  2  0
  8  9  1  0
 10 11  1  1
 10  9  1  0
 10 12  1  0
 12 13  1  6
 13  6  1  0
 14 12  1  0
 14 15  2  0
 16 14  1  0
 17 16  1  0
 17 18  1  6
 19 18  1  0
 20 19  1  0
 21 20  1  0
 22 21  1  0
 23 24  1  0
 23 17  1  0
 25 23  2  0
M  END
$$$$
