TIK.pdb
     RDKit          3D

 25 24  0  0  1  0  0  0  0  0999 V2000
    5.9026  -16.3447   19.8661 C   0  0  0  0  0  0  0  0  0  0  0  0
    6.6070  -16.2920   21.2132 C   0  0  1  0  0  0  0  0  0  0  0  0
    7.4385  -17.3773   21.3821 O   0  0  0  0  0  0  0  0  0  0  0  0
    7.3265  -14.9779   21.2875 C   0  0  2  0  0  0  0  0  0  0  0  0
    8.2612  -14.7961   20.2130 N   0  0  0  0  0  0  0  0  0  0  0  0
    8.0270  -14.7781   22.5844 C   0  0  0  0  0  0  0  0  0  0  0  0
    9.2873  -14.9037   22.6610 O   0  0  0  0  0  0  0  0  0  0  0  0
    6.0871  -11.3104   26.5231 C   0  0  0  0  0  0  0  0  0  0  0  0
    7.0421  -12.0893   25.6758 C   0  0  0  0  0  0  0  0  0  0  0  0
    7.2387  -13.5077   26.0375 C   0  0  2  0  0  0  0  0  0  0  0  0
    8.0308  -13.5224   27.3559 C   0  0  0  0  0  0  0  0  0  0  0  0
    8.0194  -14.3331   25.0732 C   0  0  2  0  0  0  0  0  0  0  0  0
    7.3553  -14.4437   23.7872 N   0  0  0  0  0  0  0  0  0  0  0  0
    8.4036  -15.6537   25.6203 C   0  0  0  0  0  0  0  0  0  0  0  0
    7.4560  -16.4846   25.7736 O   0  0  0  0  0  0  0  0  0  0  0  0
    9.7024  -16.0277   25.9665 N   0  0  0  0  0  0  0  0  0  0  0  0
    9.9430  -17.4212   26.3641 C   0  0  1  0  0  0  0  0  0  0  0  0
   10.7082  -18.1471   25.2757 C   0  0  0  0  0  0  0  0  0  0  0  0
   12.0984  -17.6245   25.0853 C   0  0  0  0  0  0  0  0  0  0  0  0
   12.7819  -18.2539   23.8948 C   0  0  0  0  0  0  0  0  0  0  0  0
   14.1601  -17.6822   23.7177 C   0  0  0  0  0  0  0  0  0  0  0  0
   14.8645  -18.3654   22.6602 N   0  0  0  0  0  0  0  0  0  0  0  0
   10.6606  -17.4052   27.6620 C   0  0  0  0  0  0  0  0  0  0  0  0
   11.0076  -18.5350   28.3839 O   0  0  0  0  0  0  0  0  0  0  0  0
   11.0108  -16.3000   28.2056 O   0  0  0  0  0  0  0  0  0  0  0  0
  2  1  1  6
  2  3  1  0
  4  5  1  6
  4  2  1  0
  6  4  1  0
  7  6  2  0
  8  9  1  0
 10 11  1  1
 10  9  1  0
 10 12  1  0
 12 13  1  6
 13  6  1  0
 14 12  1  0
 14 15  2  0
 16 14  1  0
 17 16  1  0
 17 18  1  6
 19 18  1  0
 20 19  1  0
 21 20  1  0
 22 21  1  0
 23 24  1  0
 23 17  1  0
 25 23  2  0
M  END
$$$$
