TIK.pdb
     RDKit          3D

 25 24  0  0  1  0  0  0  0  0999 V2000
    6.0393  -16.9046   20.2006 C   0  0  0  0  0  0  0  0  0  0  0  0
    6.7867  -16.6876   21.5075 C   0  0  1  0  0  0  0  0  0  0  0  0
    7.7843  -17.6235   21.6709 O   0  0  0  0  0  0  0  0  0  0  0  0
    7.2945  -15.2762   21.5002 C   0  0  2  0  0  0  0  0  0  0  0  0
    8.1344  -14.9951   20.3701 N   0  0  0  0  0  0  0  0  0  0  0  0
    8.0192  -14.9190   22.7491 C   0  0  0  0  0  0  0  0  0  0  0  0
    9.2877  -14.9112   22.7773 O   0  0  0  0  0  0  0  0  0  0  0  0
    5.9784  -11.2586   26.2510 C   0  0  0  0  0  0  0  0  0  0  0  0
    6.9847  -12.0811   25.5109 C   0  0  0  0  0  0  0  0  0  0  0  0
    7.3185  -13.3964   26.0939 C   0  0  2  0  0  0  0  0  0  0  0  0
    8.2367  -13.1264   27.2980 C   0  0  0  0  0  0  0  0  0  0  0  0
    8.0571  -14.3422   25.2104 C   0  0  2  0  0  0  0  0  0  0  0  0
    7.3625  -14.5732   23.9570 N   0  0  0  0  0  0  0  0  0  0  0  0
    8.4201  -15.6057   25.8905 C   0  0  0  0  0  0  0  0  0  0  0  0
    7.4478  -16.3418   26.2434 O   0  0  0  0  0  0  0  0  0  0  0  0
    9.7244  -16.0226   26.1584 N   0  0  0  0  0  0  0  0  0  0  0  0
    9.9199  -17.3305   26.7979 C   0  0  1  0  0  0  0  0  0  0  0  0
   11.0336  -18.0874   26.1023 C   0  0  0  0  0  0  0  0  0  0  0  0
   10.7457  -18.3625   24.6589 C   0  0  0  0  0  0  0  0  0  0  0  0
   11.9286  -18.9822   23.9536 C   0  0  0  0  0  0  0  0  0  0  0  0
   11.6520  -19.1161   22.4829 C   0  0  0  0  0  0  0  0  0  0  0  0
   12.8435  -19.5135   21.7732 N   0  0  0  0  0  0  0  0  0  0  0  0
   10.1921  -17.0958   28.2367 C   0  0  0  0  0  0  0  0  0  0  0  0
   10.0991  -18.0629   29.2237 O   0  0  0  0  0  0  0  0  0  0  0  0
   10.5414  -15.9386   28.6592 O   0  0  0  0  0  0  0  0  0  0  0  0
  2  1  1  6
  2  3  1  0
  4  5  1  6
  4  2  1  0
  6  4  1  0
  7  6  2  0
  8  9  1  0
 10 11  1  1
 10  9  1  0
 10 12  1  0
 12 13  1  6
 13  6  1  0
 14 12  1  0
 14 15  2  0
 16 14  1  0
 17 16  1  0
 17 18  1  6
 19 18  1  0
 20 19  1  0
 21 20  1  0
 22 21  1  0
 23 24  1  0
 23 17  1  0
 25 23  2  0
M  END
$$$$
