TIK.pdb
     RDKit          3D

 25 24  0  0  1  0  0  0  0  0999 V2000
    7.3271  -19.3901   19.3340 C   0  0  0  0  0  0  0  0  0  0  0  0
    8.1464  -19.3809   18.0525 C   0  0  1  0  0  0  0  0  0  0  0  0
    7.6496  -20.2840   17.1384 O   0  0  0  0  0  0  0  0  0  0  0  0
    8.1597  -17.9700   17.5435 C   0  0  2  0  0  0  0  0  0  0  0  0
    8.8158  -17.8453   16.2725 N   0  0  0  0  0  0  0  0  0  0  0  0
    8.7734  -17.0167   18.5063 C   0  0  0  0  0  0  0  0  0  0  0  0
   10.0339  -16.9594   18.6403 O   0  0  0  0  0  0  0  0  0  0  0  0
    6.6317  -12.0398   20.0280 C   0  0  0  0  0  0  0  0  0  0  0  0
    7.6549  -13.1018   19.7788 C   0  0  0  0  0  0  0  0  0  0  0  0
    7.7251  -14.1952   20.7691 C   0  0  2  0  0  0  0  0  0  0  0  0
    8.3343  -13.5956   22.0478 C   0  0  0  0  0  0  0  0  0  0  0  0
    8.5804  -15.3605   20.4068 C   0  0  2  0  0  0  0  0  0  0  0  0
    8.0155  -16.1336   19.3159 N   0  0  0  0  0  0  0  0  0  0  0  0
    8.9292  -16.2062   21.5704 C   0  0  0  0  0  0  0  0  0  0  0  0
    7.9844  -16.9088   22.0453 O   0  0  0  0  0  0  0  0  0  0  0  0
   10.1930  -16.2751   22.1576 N   0  0  0  0  0  0  0  0  0  0  0  0
   10.4123  -17.2607   23.2246 C   0  0  1  0  0  0  0  0  0  0  0  0
   10.9144  -18.5628   22.6336 C   0  0  0  0  0  0  0  0  0  0  0  0
   11.1327  -19.6298   23.6612 C   0  0  0  0  0  0  0  0  0  0  0  0
   11.6157  -20.9205   23.0437 C   0  0  0  0  0  0  0  0  0  0  0  0
   11.7700  -21.9810   24.0969 C   0  0  0  0  0  0  0  0  0  0  0  0
   12.2638  -23.2070   23.5187 N   0  0  0  0  0  0  0  0  0  0  0  0
   11.3569  -16.6681   24.2023 C   0  0  0  0  0  0  0  0  0  0  0  0
   12.0182  -15.4638   24.0280 O   0  0  0  0  0  0  0  0  0  0  0  0
   11.6218  -17.2640   25.3043 O   0  0  0  0  0  0  0  0  0  0  0  0
  2  1  1  1
  2  3  1  0
  4  5  1  6
  4  2  1  0
  6  4  1  0
  7  6  2  0
  8  9  1  0
 10 11  1  1
 10  9  1  0
 10 12  1  0
 12 13  1  6
 13  6  1  0
 14 12  1  0
 14 15  2  0
 16 14  1  0
 17 16  1  0
 17 18  1  6
 19 18  1  0
 20 19  1  0
 21 20  1  0
 22 21  1  0
 23 24  1  0
 23 17  1  0
 25 23  2  0
M  END
$$$$
