TIK.pdb
     RDKit          3D

 25 24  0  0  1  0  0  0  0  0999 V2000
    5.9280  -16.1473   19.8476 C   0  0  0  0  0  0  0  0  0  0  0  0
    6.7204  -16.1189   21.1457 C   0  0  1  0  0  0  0  0  0  0  0  0
    7.6863  -17.1011   21.1601 O   0  0  0  0  0  0  0  0  0  0  0  0
    7.2807  -14.7354   21.2942 C   0  0  2  0  0  0  0  0  0  0  0  0
    8.1174  -14.3548   20.1913 N   0  0  0  0  0  0  0  0  0  0  0  0
    8.0326  -14.5526   22.5645 C   0  0  0  0  0  0  0  0  0  0  0  0
    9.3000  -14.6122   22.5764 O   0  0  0  0  0  0  0  0  0  0  0  0
    6.0679  -11.4253   26.7068 C   0  0  0  0  0  0  0  0  0  0  0  0
    7.0916  -12.0916   25.8438 C   0  0  0  0  0  0  0  0  0  0  0  0
    7.3594  -13.5176   26.1197 C   0  0  2  0  0  0  0  0  0  0  0  0
    8.2204  -13.5677   27.3932 C   0  0  0  0  0  0  0  0  0  0  0  0
    8.1176  -14.2615   25.0745 C   0  0  2  0  0  0  0  0  0  0  0  0
    7.4042  -14.3066   23.8113 N   0  0  0  0  0  0  0  0  0  0  0  0
    8.5520  -15.6044   25.5204 C   0  0  0  0  0  0  0  0  0  0  0  0
    7.6365  -16.4793   25.6099 O   0  0  0  0  0  0  0  0  0  0  0  0
    9.8646  -15.9548   25.8382 N   0  0  0  0  0  0  0  0  0  0  0  0
   10.1497  -17.3565   26.1721 C   0  0  1  0  0  0  0  0  0  0  0  0
   11.2395  -17.8948   25.2668 C   0  0  0  0  0  0  0  0  0  0  0  0
   11.6527  -19.2925   25.6104 C   0  0  0  0  0  0  0  0  0  0  0  0
   12.7541  -19.7954   24.7078 C   0  0  0  0  0  0  0  0  0  0  0  0
   13.1123  -21.2125   25.0560 C   0  0  0  0  0  0  0  0  0  0  0  0
   14.2702  -21.6442   24.3116 N   0  0  0  0  0  0  0  0  0  0  0  0
   10.5112  -17.4160   27.6093 C   0  0  0  0  0  0  0  0  0  0  0  0
   10.6357  -16.3120   28.4362 O   0  0  0  0  0  0  0  0  0  0  0  0
   10.7370  -18.5376   28.1842 O   0  0  0  0  0  0  0  0  0  0  0  0
  2  1  1  6
  2  3  1  0
  4  5  1  6
  4  2  1  0
  6  4  1  0
  7  6  2  0
  8  9  1  0
 10 11  1  1
 10  9  1  0
 10 12  1  0
 12 13  1  6
 13  6  1  0
 14 12  1  0
 14 15  2  0
 16 14  1  0
 17 16  1  0
 17 18  1  6
 19 18  1  0
 20 19  1  0
 21 20  1  0
 22 21  1  0
 23 24  1  0
 23 17  1  0
 25 23  2  0
M  END
$$$$
