TIK.pdb
     RDKit          3D

 25 24  0  0  1  0  0  0  0  0999 V2000
    7.4232  -19.8405   16.5448 C   0  0  0  0  0  0  0  0  0  0  0  0
    7.9526  -19.0822   17.7524 C   0  0  1  0  0  0  0  0  0  0  0  0
    8.8426  -19.8502   18.4707 O   0  0  0  0  0  0  0  0  0  0  0  0
    8.5491  -17.8020   17.2470 C   0  0  2  0  0  0  0  0  0  0  0  0
    9.6065  -18.0188   16.3003 N   0  0  0  0  0  0  0  0  0  0  0  0
    9.0452  -16.9265   18.3424 C   0  0  0  0  0  0  0  0  0  0  0  0
   10.2887  -16.8292   18.5754 O   0  0  0  0  0  0  0  0  0  0  0  0
    6.4462  -12.2078   19.7836 C   0  0  0  0  0  0  0  0  0  0  0  0
    7.5385  -13.2038   19.5563 C   0  0  0  0  0  0  0  0  0  0  0  0
    7.7154  -14.2372   20.5965 C   0  0  2  0  0  0  0  0  0  0  0  0
    8.2887  -13.5259   21.8339 C   0  0  0  0  0  0  0  0  0  0  0  0
    8.6621  -15.3423   20.2752 C   0  0  2  0  0  0  0  0  0  0  0  0
    8.1890  -16.1638   19.1761 N   0  0  0  0  0  0  0  0  0  0  0  0
    9.0317  -16.1502   21.4592 C   0  0  0  0  0  0  0  0  0  0  0  0
    8.2017  -17.0505   21.7941 O   0  0  0  0  0  0  0  0  0  0  0  0
   10.1996  -15.9866   22.2049 N   0  0  0  0  0  0  0  0  0  0  0  0
   10.6745  -17.1183   23.0121 C   0  0  1  0  0  0  0  0  0  0  0  0
   11.0820  -18.2654   22.1092 C   0  0  0  0  0  0  0  0  0  0  0  0
   11.6048  -19.4495   22.8621 C   0  0  0  0  0  0  0  0  0  0  0  0
   10.5199  -20.4585   23.1549 C   0  0  0  0  0  0  0  0  0  0  0  0
   11.1207  -21.7579   23.6110 C   0  0  0  0  0  0  0  0  0  0  0  0
   10.4449  -22.2479   24.7877 N   0  0  0  0  0  0  0  0  0  0  0  0
   11.7859  -16.6321   23.8653 C   0  0  0  0  0  0  0  0  0  0  0  0
   12.6189  -15.5729   23.5454 O   0  0  0  0  0  0  0  0  0  0  0  0
   12.0444  -17.1897   24.9886 O   0  0  0  0  0  0  0  0  0  0  0  0
  2  1  1  6
  2  3  1  0
  4  5  1  6
  4  2  1  0
  6  4  1  0
  7  6  2  0
  8  9  1  0
 10 11  1  1
 10  9  1  0
 10 12  1  0
 12 13  1  6
 13  6  1  0
 14 12  1  0
 14 15  2  0
 16 14  1  0
 17 16  1  0
 17 18  1  6
 19 18  1  0
 20 19  1  0
 21 20  1  0
 22 21  1  0
 23 24  1  0
 23 17  1  0
 25 23  2  0
M  END
$$$$
