MFE.pdb
     RDKit          3D

 29 29  0  0  1  0  0  0  0  0999 V2000
   26.8221  -31.9403  -18.5261 C   0  0  0  0  0  0  0  0  0  0  0  0
   27.8188  -31.3764  -19.9324 S   0  0  0  0  0  0  0  0  0  0  0  0
   29.3078  -30.5874  -19.2596 C   0  0  0  0  0  0  0  0  0  0  0  0
   28.8810  -29.8166  -18.0236 C   0  0  0  0  0  0  0  0  0  0  0  0
   29.3109  -28.3654  -18.0809 C   0  0  2  0  0  0  0  0  0  0  0  0
   30.5659  -28.2545  -17.3689 N   0  0  0  0  0  0  0  0  0  0  0  0
   28.2610  -27.5694  -17.4137 C   0  0  0  0  0  0  0  0  0  0  0  0
   28.3675  -27.3880  -16.1779 O   0  0  0  0  0  0  0  0  0  0  0  0
   27.1460  -26.9946  -18.0512 N   0  0  0  0  0  0  0  0  0  0  0  0
   26.2668  -26.0867  -17.4043 C   0  0  1  0  0  0  0  0  0  0  0  0
   26.2495  -24.7017  -17.9583 C   0  0  0  0  0  0  0  0  0  0  0  0
   27.3752  -23.8603  -17.5511 C   0  0  0  0  0  0  0  0  0  0  0  0
   27.2106  -22.8685  -16.5758 C   0  0  0  0  0  0  0  0  0  0  0  0
   28.2473  -22.0579  -16.1660 C   0  0  0  0  0  0  0  0  0  0  0  0
   29.5078  -22.1987  -16.7136 C   0  0  0  0  0  0  0  0  0  0  0  0
   29.6914  -23.1615  -17.6685 C   0  0  0  0  0  0  0  0  0  0  0  0
   28.6419  -23.9669  -18.0692 C   0  0  0  0  0  0  0  0  0  0  0  0
   24.8847  -26.6086  -17.3391 C   0  0  0  0  0  0  0  0  0  0  0  0
   24.4614  -27.3685  -18.2766 O   0  0  0  0  0  0  0  0  0  0  0  0
   23.9772  -26.3335  -16.3027 N   0  0  0  0  0  0  0  0  0  0  0  0
   22.5841  -26.7914  -16.2887 C   0  0  1  0  0  0  0  0  0  0  0  0
   21.9309  -26.3659  -14.9925 C   0  0  0  0  0  0  0  0  0  0  0  0
   20.5249  -26.8747  -14.9407 C   0  0  0  0  0  0  0  0  0  0  0  0
   19.9207  -26.5229  -13.6191 C   0  0  0  0  0  0  0  0  0  0  0  0
   18.7419  -26.8275  -13.3963 O   0  0  0  0  0  0  0  0  0  0  0  0
   21.9009  -26.1468  -17.4124 C   0  0  0  0  0  0  0  0  0  0  0  0
   22.1466  -24.8167  -17.7065 O   0  0  0  0  0  0  0  0  0  0  0  0
   20.6842  -25.8706  -12.6822 O   0  0  0  0  0  0  0  0  0  0  0  0
   21.0895  -26.7418  -18.1362 O   0  0  0  0  0  0  0  0  0  0  0  0
  2  1  1  0
  3  2  1  0
  4  3  1  0
  5  4  1  0
  5  6  1  1
  7  5  1  0
  7  8  2  0
  9  7  1  0
 10  9  1  0
 10 11  1  6
 12 11  1  0
 12 13  2  0
 14 13  1  0
 15 14  2  0
 16 17  2  0
 16 15  1  0
 17 12  1  0
 18 10  1  0
 19 18  2  0
 20 18  1  0
 21 20  1  0
 21 22  1  1
 22 23  1  0
 23 24  1  0
 24 25  2  0
 24 28  1  0
 26 27  1  0
 26 21  1  0
 29 26  2  0
M  END
$$$$
