MFE.pdb
     RDKit          3D

 29 29  0  0  1  0  0  0  0  0999 V2000
   23.8810  -18.2522  -19.8466 C   0  0  0  0  0  0  0  0  0  0  0  0
   25.1383  -18.4762  -21.1344 S   0  0  0  0  0  0  0  0  0  0  0  0
   26.6876  -18.9297  -20.3061 C   0  0  0  0  0  0  0  0  0  0  0  0
   26.3116  -19.5688  -18.9817 C   0  0  0  0  0  0  0  0  0  0  0  0
   27.5030  -19.7048  -18.0564 C   0  0  2  0  0  0  0  0  0  0  0  0
   28.4138  -20.6562  -18.6559 N   0  0  0  0  0  0  0  0  0  0  0  0
   26.9994  -20.2090  -16.7628 C   0  0  0  0  0  0  0  0  0  0  0  0
   26.7599  -21.4361  -16.6718 O   0  0  0  0  0  0  0  0  0  0  0  0
   26.7648  -19.4245  -15.6185 N   0  0  0  0  0  0  0  0  0  0  0  0
   26.2881  -19.9634  -14.3945 C   0  0  1  0  0  0  0  0  0  0  0  0
   26.7913  -19.2974  -13.1582 C   0  0  0  0  0  0  0  0  0  0  0  0
   26.3185  -19.8855  -11.9046 C   0  0  0  0  0  0  0  0  0  0  0  0
   27.0124  -20.9440  -11.3047 C   0  0  0  0  0  0  0  0  0  0  0  0
   26.5983  -21.5224  -10.1241 C   0  0  0  0  0  0  0  0  0  0  0  0
   25.4632  -21.0691   -9.4801 C   0  0  0  0  0  0  0  0  0  0  0  0
   24.7694  -20.0356  -10.0486 C   0  0  0  0  0  0  0  0  0  0  0  0
   25.1973  -19.4658  -11.2330 C   0  0  0  0  0  0  0  0  0  0  0  0
   24.8109  -20.0226  -14.3559 C   0  0  0  0  0  0  0  0  0  0  0  0
   24.1431  -18.9325  -14.3930 O   0  0  0  0  0  0  0  0  0  0  0  0
   24.0626  -21.2092  -14.2835 N   0  0  0  0  0  0  0  0  0  0  0  0
   22.5970  -21.2553  -14.2655 C   0  0  1  0  0  0  0  0  0  0  0  0
   22.1293  -22.5423  -14.9081 C   0  0  0  0  0  0  0  0  0  0  0  0
   22.8462  -23.7051  -14.2978 C   0  0  0  0  0  0  0  0  0  0  0  0
   24.0212  -24.0635  -15.1502 C   0  0  0  0  0  0  0  0  0  0  0  0
   25.1055  -24.3109  -14.6068 O   0  0  0  0  0  0  0  0  0  0  0  0
   22.1761  -21.2308  -12.8630 C   0  0  0  0  0  0  0  0  0  0  0  0
   20.8472  -21.0194  -12.5383 O   0  0  0  0  0  0  0  0  0  0  0  0
   23.8735  -24.1106  -16.5147 O   0  0  0  0  0  0  0  0  0  0  0  0
   22.9658  -21.3920  -11.9215 O   0  0  0  0  0  0  0  0  0  0  0  0
  2  1  1  0
  3  2  1  0
  4  3  1  0
  5  4  1  0
  5  6  1  6
  7  5  1  0
  7  8  2  0
  9  7  1  0
 10  9  1  0
 10 11  1  1
 12 11  1  0
 12 13  2  0
 14 13  1  0
 15 14  2  0
 16 17  2  0
 16 15  1  0
 17 12  1  0
 18 10  1  0
 19 18  2  0
 20 18  1  0
 21 20  1  0
 21 22  1  1
 22 23  1  0
 23 24  1  0
 24 25  2  0
 24 28  1  0
 26 27  1  0
 26 21  1  0
 29 26  2  0
M  END
$$$$
