MFE.pdb
     RDKit          3D

 29 29  0  0  1  0  0  0  0  0999 V2000
   16.7048  -15.6704  -16.4731 C   0  0  0  0  0  0  0  0  0  0  0  0
   17.0266  -16.2002  -18.1775 S   0  0  0  0  0  0  0  0  0  0  0  0
   18.7652  -16.7117  -18.2670 C   0  0  0  0  0  0  0  0  0  0  0  0
   19.5279  -15.8676  -17.2620 C   0  0  0  0  0  0  0  0  0  0  0  0
   21.0063  -16.1960  -17.2482 C   0  0  2  0  0  0  0  0  0  0  0  0
   21.1834  -17.3739  -16.4264 N   0  0  0  0  0  0  0  0  0  0  0  0
   21.7081  -15.0383  -16.6579 C   0  0  0  0  0  0  0  0  0  0  0  0
   21.6029  -14.8649  -15.4208 O   0  0  0  0  0  0  0  0  0  0  0  0
   22.4886  -14.1091  -17.3703 N   0  0  0  0  0  0  0  0  0  0  0  0
   23.1542  -13.0195  -16.7495 C   0  0  1  0  0  0  0  0  0  0  0  0
   24.6384  -13.0020  -16.8988 C   0  0  0  0  0  0  0  0  0  0  0  0
   25.3242  -14.1872  -16.3832 C   0  0  0  0  0  0  0  0  0  0  0  0
   25.5316  -14.3519  -15.0078 C   0  0  0  0  0  0  0  0  0  0  0  0
   26.1722  -15.4548  -14.4853 C   0  0  0  0  0  0  0  0  0  0  0  0
   26.6403  -16.4544  -15.3161 C   0  0  0  0  0  0  0  0  0  0  0  0
   26.4486  -16.3142  -16.6638 C   0  0  0  0  0  0  0  0  0  0  0  0
   25.8044  -15.2023  -17.1729 C   0  0  0  0  0  0  0  0  0  0  0  0
   22.6004  -11.7173  -17.1792 C   0  0  0  0  0  0  0  0  0  0  0  0
   22.1527  -11.5940  -18.3709 O   0  0  0  0  0  0  0  0  0  0  0  0
   22.5208  -10.5768  -16.3630 N   0  0  0  0  0  0  0  0  0  0  0  0
   21.9203   -9.3069  -16.7837 C   0  0  1  0  0  0  0  0  0  0  0  0
   21.8727   -8.3612  -15.6041 C   0  0  0  0  0  0  0  0  0  0  0  0
   20.6286   -8.6026  -14.8088 C   0  0  0  0  0  0  0  0  0  0  0  0
   20.6649   -7.7671  -13.5694 C   0  0  0  0  0  0  0  0  0  0  0  0
   21.0080   -6.5808  -13.6534 O   0  0  0  0  0  0  0  0  0  0  0  0
   22.7793   -8.7414  -17.8263 C   0  0  0  0  0  0  0  0  0  0  0  0
   22.2926   -7.7611  -18.6738 O   0  0  0  0  0  0  0  0  0  0  0  0
   20.3178   -8.3317  -12.3665 O   0  0  0  0  0  0  0  0  0  0  0  0
   23.9524   -9.1022  -17.9995 O   0  0  0  0  0  0  0  0  0  0  0  0
  2  1  1  0
  3  2  1  0
  4  3  1  0
  5  4  1  0
  5  6  1  1
  7  5  1  0
  7  8  2  0
  9  7  1  0
 10  9  1  0
 10 11  1  6
 12 11  1  0
 12 13  2  0
 14 13  1  0
 15 14  2  0
 16 17  2  0
 16 15  1  0
 17 12  1  0
 18 10  1  0
 19 18  2  0
 20 18  1  0
 21 20  1  0
 21 22  1  1
 22 23  1  0
 23 24  1  0
 24 25  2  0
 24 28  1  0
 26 27  1  0
 26 21  1  0
 29 26  2  0
M  END
$$$$
