MFE.pdb
     RDKit          3D

 29 29  0  0  1  0  0  0  0  0999 V2000
   17.1525  -11.4890  -22.0735 C   0  0  0  0  0  0  0  0  0  0  0  0
   18.8135  -11.1999  -22.7418 S   0  0  0  0  0  0  0  0  0  0  0  0
   19.9918  -12.0411  -21.6481 C   0  0  0  0  0  0  0  0  0  0  0  0
   19.8736  -11.3879  -20.2830 C   0  0  0  0  0  0  0  0  0  0  0  0
   20.9805  -11.8236  -19.3456 C   0  0  2  0  0  0  0  0  0  0  0  0
   20.7787  -13.2269  -19.0555 N   0  0  0  0  0  0  0  0  0  0  0  0
   20.8590  -11.0144  -18.1160 C   0  0  0  0  0  0  0  0  0  0  0  0
   19.9080  -11.2745  -17.3418 O   0  0  0  0  0  0  0  0  0  0  0  0
   21.7246   -9.9713  -17.7386 N   0  0  0  0  0  0  0  0  0  0  0  0
   21.5027   -9.1550  -16.5984 C   0  0  1  0  0  0  0  0  0  0  0  0
   22.7114   -8.8518  -15.7782 C   0  0  0  0  0  0  0  0  0  0  0  0
   22.4662   -8.0124  -14.6051 C   0  0  0  0  0  0  0  0  0  0  0  0
   22.0849   -8.5835  -13.3842 C   0  0  0  0  0  0  0  0  0  0  0  0
   21.8465   -7.8255  -12.2579 C   0  0  0  0  0  0  0  0  0  0  0  0
   21.9781   -6.4508  -12.2957 C   0  0  0  0  0  0  0  0  0  0  0  0
   22.3496   -5.8714  -13.4784 C   0  0  0  0  0  0  0  0  0  0  0  0
   22.5852   -6.6449  -14.5995 C   0  0  0  0  0  0  0  0  0  0  0  0
   20.8156   -7.8931  -16.9484 C   0  0  0  0  0  0  0  0  0  0  0  0
   21.2064   -7.2350  -17.9730 O   0  0  0  0  0  0  0  0  0  0  0  0
   19.7387   -7.3466  -16.2307 N   0  0  0  0  0  0  0  0  0  0  0  0
   19.0890   -6.0757  -16.5672 C   0  0  1  0  0  0  0  0  0  0  0  0
   17.5919   -6.2818  -16.6338 C   0  0  0  0  0  0  0  0  0  0  0  0
   16.9153   -4.9899  -16.9681 C   0  0  0  0  0  0  0  0  0  0  0  0
   15.4354   -5.2012  -16.9991 C   0  0  0  0  0  0  0  0  0  0  0  0
   14.6996   -4.2579  -17.3168 O   0  0  0  0  0  0  0  0  0  0  0  0
   19.4024   -5.1275  -15.4960 C   0  0  0  0  0  0  0  0  0  0  0  0
   19.7831   -3.8323  -15.8017 O   0  0  0  0  0  0  0  0  0  0  0  0
   14.9245   -6.4341  -16.6752 O   0  0  0  0  0  0  0  0  0  0  0  0
   19.3458   -5.4279  -14.2948 O   0  0  0  0  0  0  0  0  0  0  0  0
  2  1  1  0
  3  2  1  0
  4  3  1  0
  5  4  1  0
  5  6  1  1
  7  5  1  0
  7  8  2  0
  9  7  1  0
 10  9  1  0
 10 11  1  6
 12 11  1  0
 12 13  2  0
 14 13  1  0
 15 14  2  0
 16 17  2  0
 16 15  1  0
 17 12  1  0
 18 10  1  0
 19 18  2  0
 20 18  1  0
 21 20  1  0
 21 22  1  1
 22 23  1  0
 23 24  1  0
 24 25  2  0
 24 28  1  0
 26 27  1  0
 26 21  1  0
 29 26  2  0
M  END
$$$$
