MFE.pdb
     RDKit          3D

 29 29  0  0  1  0  0  0  0  0999 V2000
   20.3028  -14.4872  -20.9876 C   0  0  0  0  0  0  0  0  0  0  0  0
   21.7598  -13.8050  -21.8249 S   0  0  0  0  0  0  0  0  0  0  0  0
   23.1005  -13.7298  -20.6046 C   0  0  0  0  0  0  0  0  0  0  0  0
   22.6071  -12.8681  -19.4565 C   0  0  0  0  0  0  0  0  0  0  0  0
   23.6730  -12.6616  -18.4006 C   0  0  2  0  0  0  0  0  0  0  0  0
   23.8940  -13.9350  -17.7496 N   0  0  0  0  0  0  0  0  0  0  0  0
   23.1528  -11.6682  -17.4394 C   0  0  0  0  0  0  0  0  0  0  0  0
   22.1578  -11.9935  -16.7499 O   0  0  0  0  0  0  0  0  0  0  0  0
   23.6825  -10.3812  -17.2315 N   0  0  0  0  0  0  0  0  0  0  0  0
   23.0863   -9.4295  -16.3629 C   0  0  1  0  0  0  0  0  0  0  0  0
   24.0363   -8.6109  -15.5550 C   0  0  0  0  0  0  0  0  0  0  0  0
   23.4116   -7.5784  -14.7275 C   0  0  0  0  0  0  0  0  0  0  0  0
   23.4784   -6.2288  -15.0964 C   0  0  0  0  0  0  0  0  0  0  0  0
   22.9015   -5.2289  -14.3433 C   0  0  0  0  0  0  0  0  0  0  0  0
   22.2249   -5.5295  -13.1769 C   0  0  0  0  0  0  0  0  0  0  0  0
   22.1472   -6.8420  -12.7973 C   0  0  0  0  0  0  0  0  0  0  0  0
   22.7310   -7.8336  -13.5631 C   0  0  0  0  0  0  0  0  0  0  0  0
   22.1530   -8.5352  -17.0814 C   0  0  0  0  0  0  0  0  0  0  0  0
   22.4985   -8.0570  -18.2161 O   0  0  0  0  0  0  0  0  0  0  0  0
   20.8841   -8.1616  -16.6084 N   0  0  0  0  0  0  0  0  0  0  0  0
   19.9755   -7.2586  -17.3221 C   0  0  1  0  0  0  0  0  0  0  0  0
   18.5877   -7.8600  -17.3436 C   0  0  0  0  0  0  0  0  0  0  0  0
   17.6597   -6.9699  -18.1083 C   0  0  0  0  0  0  0  0  0  0  0  0
   17.2625   -7.6472  -19.3808 C   0  0  0  0  0  0  0  0  0  0  0  0
   17.5622   -8.8364  -19.5483 O   0  0  0  0  0  0  0  0  0  0  0  0
   19.9464   -5.9943  -16.5835 C   0  0  0  0  0  0  0  0  0  0  0  0
   20.1230   -4.7941  -17.2502 O   0  0  0  0  0  0  0  0  0  0  0  0
   16.5753   -6.9376  -20.3349 O   0  0  0  0  0  0  0  0  0  0  0  0
   19.7688   -5.9357  -15.3583 O   0  0  0  0  0  0  0  0  0  0  0  0
  2  1  1  0
  3  2  1  0
  4  3  1  0
  5  4  1  0
  5  6  1  1
  7  5  1  0
  7  8  2  0
  9  7  1  0
 10  9  1  0
 10 11  1  6
 12 11  1  0
 12 13  2  0
 14 13  1  0
 15 14  2  0
 16 17  2  0
 16 15  1  0
 17 12  1  0
 18 10  1  0
 19 18  2  0
 20 18  1  0
 21 20  1  0
 21 22  1  1
 22 23  1  0
 23 24  1  0
 24 25  2  0
 24 28  1  0
 26 27  1  0
 26 21  1  0
 29 26  2  0
M  END
$$$$
