MFE.pdb
     RDKit          3D

 29 29  0  0  1  0  0  0  0  0999 V2000
   47.4066   -8.4013   -5.6015 C   0  0  0  0  0  0  0  0  0  0  0  0
   46.0304   -8.0742   -6.7366 S   0  0  0  0  0  0  0  0  0  0  0  0
   44.9826   -9.5554   -6.7589 C   0  0  0  0  0  0  0  0  0  0  0  0
   43.7517   -9.2152   -7.5794 C   0  0  0  0  0  0  0  0  0  0  0  0
   42.7063  -10.3094   -7.5181 C   0  0  2  0  0  0  0  0  0  0  0  0
   43.2623  -11.4799   -8.1623 N   0  0  0  0  0  0  0  0  0  0  0  0
   41.5195   -9.8249   -8.2516 C   0  0  0  0  0  0  0  0  0  0  0  0
   41.4719  -10.0407   -9.4855 O   0  0  0  0  0  0  0  0  0  0  0  0
   40.4326   -9.1383   -7.6795 N   0  0  0  0  0  0  0  0  0  0  0  0
   39.2445   -8.8355   -8.3953 C   0  0  1  0  0  0  0  0  0  0  0  0
   37.9707   -9.2216   -7.7217 C   0  0  0  0  0  0  0  0  0  0  0  0
   37.6323  -10.6424   -7.8098 C   0  0  0  0  0  0  0  0  0  0  0  0
   37.4903  -11.4169   -6.6514 C   0  0  0  0  0  0  0  0  0  0  0  0
   37.1712  -12.7571   -6.6947 C   0  0  0  0  0  0  0  0  0  0  0  0
   36.9770  -13.3941   -7.9052 C   0  0  0  0  0  0  0  0  0  0  0  0
   37.1109  -12.6565   -9.0500 C   0  0  0  0  0  0  0  0  0  0  0  0
   37.4312  -11.3133   -8.9904 C   0  0  0  0  0  0  0  0  0  0  0  0
   39.1833   -7.4104   -8.7855 C   0  0  0  0  0  0  0  0  0  0  0  0
   39.6838   -6.5293   -8.0052 O   0  0  0  0  0  0  0  0  0  0  0  0
   38.6086   -6.9340   -9.9755 N   0  0  0  0  0  0  0  0  0  0  0  0
   38.6458   -5.5309  -10.4004 C   0  0  1  0  0  0  0  0  0  0  0  0
   37.9404   -5.3928  -11.7314 C   0  0  0  0  0  0  0  0  0  0  0  0
   38.0322   -3.9786  -12.2110 C   0  0  0  0  0  0  0  0  0  0  0  0
   37.2579   -3.8370  -13.4823 C   0  0  0  0  0  0  0  0  0  0  0  0
   36.2392   -3.1340  -13.4911 O   0  0  0  0  0  0  0  0  0  0  0  0
   37.9327   -4.7486   -9.3883 C   0  0  0  0  0  0  0  0  0  0  0  0
   36.7352   -5.2089   -8.8686 O   0  0  0  0  0  0  0  0  0  0  0  0
   37.6919   -4.4883  -14.6108 O   0  0  0  0  0  0  0  0  0  0  0  0
   38.3522   -3.6645   -8.9584 O   0  0  0  0  0  0  0  0  0  0  0  0
  2  1  1  0
  3  2  1  0
  4  3  1  0
  5  4  1  0
  5  6  1  6
  7  5  1  0
  7  8  2  0
  9  7  1  0
 10  9  1  0
 10 11  1  1
 12 11  1  0
 12 13  2  0
 14 13  1  0
 15 14  2  0
 16 17  2  0
 16 15  1  0
 17 12  1  0
 18 10  1  0
 19 18  2  0
 20 18  1  0
 21 20  1  0
 21 22  1  6
 22 23  1  0
 23 24  1  0
 24 25  2  0
 24 28  1  0
 26 27  1  0
 26 21  1  0
 29 26  2  0
M  END
$$$$
