MFE.pdb
     RDKit          3D

 29 29  0  0  1  0  0  0  0  0999 V2000
   25.8365  -16.6767  -16.0100 C   0  0  0  0  0  0  0  0  0  0  0  0
   27.6085  -16.3054  -16.1160 S   0  0  0  0  0  0  0  0  0  0  0  0
   28.4983  -17.6835  -15.3405 C   0  0  0  0  0  0  0  0  0  0  0  0
   27.4573  -18.5635  -14.6728 C   0  0  0  0  0  0  0  0  0  0  0  0
   28.0881  -19.6469  -13.8229 C   0  0  2  0  0  0  0  0  0  0  0  0
   28.8163  -20.5282  -14.7102 N   0  0  0  0  0  0  0  0  0  0  0  0
   26.9912  -20.3731  -13.1515 C   0  0  0  0  0  0  0  0  0  0  0  0
   26.6237  -21.4617  -13.6529 O   0  0  0  0  0  0  0  0  0  0  0  0
   26.3209  -19.9442  -11.9911 N   0  0  0  0  0  0  0  0  0  0  0  0
   25.3137  -20.7125  -11.3499 C   0  0  1  0  0  0  0  0  0  0  0  0
   25.1754  -20.4950   -9.8805 C   0  0  0  0  0  0  0  0  0  0  0  0
   26.4311  -20.5333   -9.1304 C   0  0  0  0  0  0  0  0  0  0  0  0
   27.4645  -21.3994   -9.5095 C   0  0  0  0  0  0  0  0  0  0  0  0
   28.6612  -21.4625   -8.8284 C   0  0  0  0  0  0  0  0  0  0  0  0
   28.8863  -20.6584   -7.7278 C   0  0  0  0  0  0  0  0  0  0  0  0
   27.8900  -19.8044   -7.3395 C   0  0  0  0  0  0  0  0  0  0  0  0
   26.6953  -19.7525   -8.0327 C   0  0  0  0  0  0  0  0  0  0  0  0
   23.9954  -20.5457  -11.9989 C   0  0  0  0  0  0  0  0  0  0  0  0
   23.6208  -19.3761  -12.3557 O   0  0  0  0  0  0  0  0  0  0  0  0
   23.1000  -21.5948  -12.2653 N   0  0  0  0  0  0  0  0  0  0  0  0
   21.8487  -21.4356  -13.0133 C   0  0  1  0  0  0  0  0  0  0  0  0
   21.4622  -22.7619  -13.6293 C   0  0  0  0  0  0  0  0  0  0  0  0
   20.1385  -22.6374  -14.3155 C   0  0  0  0  0  0  0  0  0  0  0  0
   20.3591  -22.3304  -15.7621 C   0  0  0  0  0  0  0  0  0  0  0  0
   21.5170  -22.2816  -16.1970 O   0  0  0  0  0  0  0  0  0  0  0  0
   20.8177  -21.0240  -12.0580 C   0  0  0  0  0  0  0  0  0  0  0  0
   19.6995  -20.3346  -12.4941 O   0  0  0  0  0  0  0  0  0  0  0  0
   19.2754  -22.1095  -16.5762 O   0  0  0  0  0  0  0  0  0  0  0  0
   20.8921  -21.2638  -10.8442 O   0  0  0  0  0  0  0  0  0  0  0  0
  2  1  1  0
  3  2  1  0
  4  3  1  0
  5  4  1  0
  5  6  1  6
  7  5  1  0
  7  8  2  0
  9  7  1  0
 10  9  1  0
 10 11  1  1
 12 11  1  0
 12 13  2  0
 14 13  1  0
 15 14  2  0
 16 17  2  0
 16 15  1  0
 17 12  1  0
 18 10  1  0
 19 18  2  0
 20 18  1  0
 21 20  1  0
 21 22  1  1
 22 23  1  0
 23 24  1  0
 24 25  2  0
 24 28  1  0
 26 27  1  0
 26 21  1  0
 29 26  2  0
M  END
$$$$
