MFE.pdb
     RDKit          3D

 29 29  0  0  1  0  0  0  0  0999 V2000
   13.6776  -28.6787    7.2646 C   0  0  0  0  0  0  0  0  0  0  0  0
   13.0863  -28.2880    5.5952 S   0  0  0  0  0  0  0  0  0  0  0  0
   13.7369  -29.5612    4.4781 C   0  0  0  0  0  0  0  0  0  0  0  0
   15.2507  -29.4602    4.5248 C   0  0  0  0  0  0  0  0  0  0  0  0
   15.7955  -28.5634    3.4326 C   0  0  2  0  0  0  0  0  0  0  0  0
   15.8334  -29.3382    2.2110 N   0  0  0  0  0  0  0  0  0  0  0  0
   17.1574  -28.1581    3.8354 C   0  0  0  0  0  0  0  0  0  0  0  0
   18.0594  -29.0274    3.7881 O   0  0  0  0  0  0  0  0  0  0  0  0
   17.5296  -26.8726    4.2698 N   0  0  0  0  0  0  0  0  0  0  0  0
   18.8706  -26.5139    4.5679 C   0  0  1  0  0  0  0  0  0  0  0  0
   19.4237  -25.3757    3.7780 C   0  0  0  0  0  0  0  0  0  0  0  0
   19.7955  -25.7033    2.4013 C   0  0  0  0  0  0  0  0  0  0  0  0
   21.1420  -25.8076    2.0297 C   0  0  0  0  0  0  0  0  0  0  0  0
   21.5304  -26.1154    0.7435 C   0  0  0  0  0  0  0  0  0  0  0  0
   20.5871  -26.3358   -0.2414 C   0  0  0  0  0  0  0  0  0  0  0  0
   19.2653  -26.2390    0.0994 C   0  0  0  0  0  0  0  0  0  0  0  0
   18.8913  -25.9295    1.3936 C   0  0  0  0  0  0  0  0  0  0  0  0
   19.0642  -26.2526    6.0106 C   0  0  0  0  0  0  0  0  0  0  0  0
   18.2484  -25.4771    6.6177 O   0  0  0  0  0  0  0  0  0  0  0  0
   20.0956  -26.8038    6.7889 N   0  0  0  0  0  0  0  0  0  0  0  0
   20.3179  -26.4832    8.2025 C   0  0  1  0  0  0  0  0  0  0  0  0
   21.5432  -27.2205    8.6956 C   0  0  0  0  0  0  0  0  0  0  0  0
   21.8010  -26.8765   10.1287 C   0  0  0  0  0  0  0  0  0  0  0  0
   22.9315  -27.7102   10.6410 C   0  0  0  0  0  0  0  0  0  0  0  0
   23.4974  -28.4958    9.8698 O   0  0  0  0  0  0  0  0  0  0  0  0
   20.5496  -25.0399    8.2921 C   0  0  0  0  0  0  0  0  0  0  0  0
   20.1200  -24.3333    9.4021 O   0  0  0  0  0  0  0  0  0  0  0  0
   23.3176  -27.5875   11.9533 O   0  0  0  0  0  0  0  0  0  0  0  0
   21.1247  -24.3952    7.4034 O   0  0  0  0  0  0  0  0  0  0  0  0
  2  1  1  0
  3  2  1  0
  4  3  1  0
  5  4  1  0
  5  6  1  6
  7  5  1  0
  7  8  2  0
  9  7  1  0
 10  9  1  0
 10 11  1  6
 12 11  1  0
 12 13  2  0
 14 13  1  0
 15 14  2  0
 16 17  2  0
 16 15  1  0
 17 12  1  0
 18 10  1  0
 19 18  2  0
 20 18  1  0
 21 20  1  0
 21 22  1  6
 22 23  1  0
 23 24  1  0
 24 25  2  0
 24 28  1  0
 26 27  1  0
 26 21  1  0
 29 26  2  0
M  END
$$$$
