MFE.pdb
     RDKit          3D

 29 29  0  0  1  0  0  0  0  0999 V2000
   25.2308  -19.3061  -19.4713 C   0  0  0  0  0  0  0  0  0  0  0  0
   25.5805  -20.9488  -20.1557 S   0  0  0  0  0  0  0  0  0  0  0  0
   26.8699  -21.7021  -19.1249 C   0  0  0  0  0  0  0  0  0  0  0  0
   26.4195  -21.5660  -17.6818 C   0  0  0  0  0  0  0  0  0  0  0  0
   27.4961  -21.9944  -16.7065 C   0  0  2  0  0  0  0  0  0  0  0  0
   27.8513  -23.3613  -17.0224 N   0  0  0  0  0  0  0  0  0  0  0  0
   26.9202  -21.9058  -15.3494 C   0  0  0  0  0  0  0  0  0  0  0  0
   26.0121  -22.7164  -15.0502 O   0  0  0  0  0  0  0  0  0  0  0  0
   27.3068  -20.9837  -14.3593 N   0  0  0  0  0  0  0  0  0  0  0  0
   26.7246  -20.9478  -13.0648 C   0  0  1  0  0  0  0  0  0  0  0  0
   27.5413  -20.2808  -12.0096 C   0  0  0  0  0  0  0  0  0  0  0  0
   26.9153  -20.2250  -10.6883 C   0  0  0  0  0  0  0  0  0  0  0  0
   26.8637  -21.3626   -9.8727 C   0  0  0  0  0  0  0  0  0  0  0  0
   26.2836  -21.3481   -8.6225 C   0  0  0  0  0  0  0  0  0  0  0  0
   25.7228  -20.1891   -8.1217 C   0  0  0  0  0  0  0  0  0  0  0  0
   25.7620  -19.0654   -8.9017 C   0  0  0  0  0  0  0  0  0  0  0  0
   26.3472  -19.0956  -10.1535 C   0  0  0  0  0  0  0  0  0  0  0  0
   25.3691  -20.3571  -13.0856 C   0  0  0  0  0  0  0  0  0  0  0  0
   25.1786  -19.2577  -13.7107 O   0  0  0  0  0  0  0  0  0  0  0  0
   24.2442  -20.9216  -12.4616 N   0  0  0  0  0  0  0  0  0  0  0  0
   22.9063  -20.3215  -12.4831 C   0  0  1  0  0  0  0  0  0  0  0  0
   22.0986  -20.9403  -13.6023 C   0  0  0  0  0  0  0  0  0  0  0  0
   20.7100  -20.3834  -13.5952 C   0  0  0  0  0  0  0  0  0  0  0  0
   20.4079  -19.7927  -14.9351 C   0  0  0  0  0  0  0  0  0  0  0  0
   21.0873  -20.1363  -15.9111 O   0  0  0  0  0  0  0  0  0  0  0  0
   22.2706  -20.6247  -11.1990 C   0  0  0  0  0  0  0  0  0  0  0  0
   21.0550  -20.0497  -10.8708 O   0  0  0  0  0  0  0  0  0  0  0  0
   19.3857  -18.8834  -15.0549 O   0  0  0  0  0  0  0  0  0  0  0  0
   22.7747  -21.3890  -10.3635 O   0  0  0  0  0  0  0  0  0  0  0  0
  2  1  1  0
  3  2  1  0
  4  3  1  0
  5  4  1  0
  5  6  1  6
  7  5  1  0
  7  8  2  0
  9  7  1  0
 10  9  1  0
 10 11  1  1
 12 11  1  0
 12 13  2  0
 14 13  1  0
 15 14  2  0
 16 17  2  0
 16 15  1  0
 17 12  1  0
 18 10  1  0
 19 18  2  0
 20 18  1  0
 21 20  1  0
 21 22  1  6
 22 23  1  0
 23 24  1  0
 24 25  2  0
 24 28  1  0
 26 27  1  0
 26 21  1  0
 29 26  2  0
M  END
$$$$
