MFE.pdb
     RDKit          3D

 29 29  0  0  1  0  0  0  0  0999 V2000
   17.9594  -15.1896  -20.4459 C   0  0  0  0  0  0  0  0  0  0  0  0
   18.1785  -14.1103  -19.0050 S   0  0  0  0  0  0  0  0  0  0  0  0
   19.5246  -12.9567  -19.3918 C   0  0  0  0  0  0  0  0  0  0  0  0
   19.6476  -12.0079  -18.2133 C   0  0  0  0  0  0  0  0  0  0  0  0
   21.0909  -11.6690  -17.9035 C   0  0  2  0  0  0  0  0  0  0  0  0
   21.6740  -12.8137  -17.2373 N   0  0  0  0  0  0  0  0  0  0  0  0
   21.0840  -10.4933  -17.0096 C   0  0  0  0  0  0  0  0  0  0  0  0
   20.6519  -10.6532  -15.8438 O   0  0  0  0  0  0  0  0  0  0  0  0
   21.5238   -9.2029  -17.3578 N   0  0  0  0  0  0  0  0  0  0  0  0
   21.5936   -8.1315  -16.4288 C   0  0  1  0  0  0  0  0  0  0  0  0
   22.9687   -7.6726  -16.0770 C   0  0  0  0  0  0  0  0  0  0  0  0
   23.8147   -8.6860  -15.4459 C   0  0  0  0  0  0  0  0  0  0  0  0
   24.9486   -9.1809  -16.1026 C   0  0  0  0  0  0  0  0  0  0  0  0
   25.7696  -10.1343  -15.5396 C   0  0  0  0  0  0  0  0  0  0  0  0
   25.4967  -10.6438  -14.2848 C   0  0  0  0  0  0  0  0  0  0  0  0
   24.3936  -10.1745  -13.6249 C   0  0  0  0  0  0  0  0  0  0  0  0
   23.5797   -9.2182  -14.2026 C   0  0  0  0  0  0  0  0  0  0  0  0
   20.7829   -6.9726  -16.8609 C   0  0  0  0  0  0  0  0  0  0  0  0
   20.8608   -6.5763  -18.0744 O   0  0  0  0  0  0  0  0  0  0  0  0
   19.9092   -6.2558  -16.0266 N   0  0  0  0  0  0  0  0  0  0  0  0
   19.0940   -5.1215  -16.4731 C   0  0  1  0  0  0  0  0  0  0  0  0
   17.7828   -5.1205  -15.7189 C   0  0  0  0  0  0  0  0  0  0  0  0
   16.9733   -3.9240  -16.1081 C   0  0  0  0  0  0  0  0  0  0  0  0
   15.6919   -3.9229  -15.3377 C   0  0  0  0  0  0  0  0  0  0  0  0
   15.4954   -4.8085  -14.4956 O   0  0  0  0  0  0  0  0  0  0  0  0
   19.8369   -3.8990  -16.1590 C   0  0  0  0  0  0  0  0  0  0  0  0
   19.7223   -2.7859  -16.9738 O   0  0  0  0  0  0  0  0  0  0  0  0
   14.7618   -2.9419  -15.5799 O   0  0  0  0  0  0  0  0  0  0  0  0
   20.5860   -3.8015  -15.1764 O   0  0  0  0  0  0  0  0  0  0  0  0
  2  1  1  0
  3  2  1  0
  4  3  1  0
  5  4  1  0
  5  6  1  1
  7  5  1  0
  7  8  2  0
  9  7  1  0
 10  9  1  0
 10 11  1  6
 12 11  1  0
 12 13  2  0
 14 13  1  0
 15 14  2  0
 16 17  2  0
 16 15  1  0
 17 12  1  0
 18 10  1  0
 19 18  2  0
 20 18  1  0
 21 20  1  0
 21 22  1  1
 22 23  1  0
 23 24  1  0
 24 25  2  0
 24 28  1  0
 26 27  1  0
 26 21  1  0
 29 26  2  0
M  END
$$$$
