MFE.pdb
     RDKit          3D

 29 29  0  0  1  0  0  0  0  0999 V2000
   27.4156  -25.2544  -20.8552 C   0  0  0  0  0  0  0  0  0  0  0  0
   28.6692  -24.0604  -20.3150 S   0  0  0  0  0  0  0  0  0  0  0  0
   27.7987  -22.6888  -19.5069 C   0  0  0  0  0  0  0  0  0  0  0  0
   27.0667  -23.2713  -18.3116 C   0  0  0  0  0  0  0  0  0  0  0  0
   27.9769  -23.4385  -17.1126 C   0  0  2  0  0  0  0  0  0  0  0  0
   28.4396  -24.8097  -17.1047 N   0  0  0  0  0  0  0  0  0  0  0  0
   27.1728  -23.1528  -15.9072 C   0  0  0  0  0  0  0  0  0  0  0  0
   26.5332  -24.1029  -15.3976 O   0  0  0  0  0  0  0  0  0  0  0  0
   27.0636  -21.8982  -15.2796 N   0  0  0  0  0  0  0  0  0  0  0  0
   26.3150  -21.6891  -14.0914 C   0  0  1  0  0  0  0  0  0  0  0  0
   26.8985  -20.7130  -13.1260 C   0  0  0  0  0  0  0  0  0  0  0  0
   26.1385  -20.5409  -11.8875 C   0  0  0  0  0  0  0  0  0  0  0  0
   26.4796  -21.2580  -10.7337 C   0  0  0  0  0  0  0  0  0  0  0  0
   25.7882  -21.1215   -9.5491 C   0  0  0  0  0  0  0  0  0  0  0  0
   24.7150  -20.2563   -9.4579 C   0  0  0  0  0  0  0  0  0  0  0  0
   24.3641  -19.5454  -10.5733 C   0  0  0  0  0  0  0  0  0  0  0  0
   25.0671  -19.6931  -11.7541 C   0  0  0  0  0  0  0  0  0  0  0  0
   24.9130  -21.3181  -14.3806 C   0  0  0  0  0  0  0  0  0  0  0  0
   24.6768  -20.3917  -15.2300 O   0  0  0  0  0  0  0  0  0  0  0  0
   23.7909  -21.9184  -13.7856 N   0  0  0  0  0  0  0  0  0  0  0  0
   22.4045  -21.5557  -14.0968 C   0  0  1  0  0  0  0  0  0  0  0  0
   21.5603  -22.8096  -14.1529 C   0  0  0  0  0  0  0  0  0  0  0  0
   20.1517  -22.4583  -14.5149 C   0  0  0  0  0  0  0  0  0  0  0  0
   19.5237  -23.6109  -15.2309 C   0  0  0  0  0  0  0  0  0  0  0  0
   19.1354  -24.5867  -14.5757 O   0  0  0  0  0  0  0  0  0  0  0  0
   21.9246  -20.6941  -13.0142 C   0  0  0  0  0  0  0  0  0  0  0  0
   21.0218  -19.6791  -13.2802 O   0  0  0  0  0  0  0  0  0  0  0  0
   19.3911  -23.5633  -16.5970 O   0  0  0  0  0  0  0  0  0  0  0  0
   22.2927  -20.8247  -11.8379 O   0  0  0  0  0  0  0  0  0  0  0  0
  2  1  1  0
  3  2  1  0
  4  3  1  0
  5  4  1  0
  5  6  1  1
  7  5  1  0
  7  8  2  0
  9  7  1  0
 10  9  1  0
 10 11  1  6
 12 11  1  0
 12 13  2  0
 14 13  1  0
 15 14  2  0
 16 17  2  0
 16 15  1  0
 17 12  1  0
 18 10  1  0
 19 18  2  0
 20 18  1  0
 21 20  1  0
 21 22  1  1
 22 23  1  0
 23 24  1  0
 24 25  2  0
 24 28  1  0
 26 27  1  0
 26 21  1  0
 29 26  2  0
M  END
$$$$
