MFE.pdb
     RDKit          3D

 29 29  0  0  1  0  0  0  0  0999 V2000
   20.0622  -24.1720   -9.7819 C   0  0  0  0  0  0  0  0  0  0  0  0
   19.2006  -24.3793   -8.1996 S   0  0  0  0  0  0  0  0  0  0  0  0
   20.0388  -23.3249   -6.9839 C   0  0  0  0  0  0  0  0  0  0  0  0
   21.1948  -22.6529   -7.7022 C   0  0  0  0  0  0  0  0  0  0  0  0
   22.1104  -21.9186   -6.7449 C   0  0  2  0  0  0  0  0  0  0  0  0
   21.2841  -21.0600   -5.9239 N   0  0  0  0  0  0  0  0  0  0  0  0
   23.0464  -21.1175   -7.5594 C   0  0  0  0  0  0  0  0  0  0  0  0
   22.6669  -19.9820   -7.9310 O   0  0  0  0  0  0  0  0  0  0  0  0
   24.3343  -21.5232   -7.9553 N   0  0  0  0  0  0  0  0  0  0  0  0
   25.2125  -20.6936   -8.7011 C   0  0  1  0  0  0  0  0  0  0  0  0
   26.6628  -20.8428   -8.3852 C   0  0  0  0  0  0  0  0  0  0  0  0
   27.0808  -20.2537   -7.1127 C   0  0  0  0  0  0  0  0  0  0  0  0
   27.1182  -18.8634   -6.9463 C   0  0  0  0  0  0  0  0  0  0  0  0
   27.5052  -18.2723   -5.7628 C   0  0  0  0  0  0  0  0  0  0  0  0
   27.8762  -19.0457   -4.6798 C   0  0  0  0  0  0  0  0  0  0  0  0
   27.8471  -20.4067   -4.8201 C   0  0  0  0  0  0  0  0  0  0  0  0
   27.4568  -20.9847   -6.0134 C   0  0  0  0  0  0  0  0  0  0  0  0
   25.0078  -20.8423  -10.1581 C   0  0  0  0  0  0  0  0  0  0  0  0
   25.0214  -22.0132  -10.6723 O   0  0  0  0  0  0  0  0  0  0  0  0
   24.7904  -19.7750  -11.0453 N   0  0  0  0  0  0  0  0  0  0  0  0
   24.3933  -19.9411  -12.4471 C   0  0  1  0  0  0  0  0  0  0  0  0
   23.9818  -18.5997  -13.0124 C   0  0  0  0  0  0  0  0  0  0  0  0
   23.6299  -18.7442  -14.4594 C   0  0  0  0  0  0  0  0  0  0  0  0
   22.2105  -19.1986  -14.5794 C   0  0  0  0  0  0  0  0  0  0  0  0
   21.3014  -18.3640  -14.4837 O   0  0  0  0  0  0  0  0  0  0  0  0
   25.5617  -20.4388  -13.1764 C   0  0  0  0  0  0  0  0  0  0  0  0
   26.8344  -20.2461  -12.6673 O   0  0  0  0  0  0  0  0  0  0  0  0
   21.9454  -20.5292  -14.7926 O   0  0  0  0  0  0  0  0  0  0  0  0
   25.4736  -21.0396  -14.2569 O   0  0  0  0  0  0  0  0  0  0  0  0
  2  1  1  0
  3  2  1  0
  4  3  1  0
  5  4  1  0
  5  6  1  1
  7  5  1  0
  7  8  2  0
  9  7  1  0
 10  9  1  0
 10 11  1  6
 12 11  1  0
 12 13  2  0
 14 13  1  0
 15 14  2  0
 16 17  2  0
 16 15  1  0
 17 12  1  0
 18 10  1  0
 19 18  2  0
 20 18  1  0
 21 20  1  0
 21 22  1  6
 22 23  1  0
 23 24  1  0
 24 25  2  0
 24 28  1  0
 26 27  1  0
 26 21  1  0
 29 26  2  0
M  END
$$$$
