MFE.pdb
     RDKit          3D

 29 29  0  0  1  0  0  0  0  0999 V2000
   27.3179  -26.1373  -16.7203 C   0  0  0  0  0  0  0  0  0  0  0  0
   28.0207  -25.0960  -18.0284 S   0  0  0  0  0  0  0  0  0  0  0  0
   27.7267  -23.3675  -17.5616 C   0  0  0  0  0  0  0  0  0  0  0  0
   26.5794  -23.3656  -16.5679 C   0  0  0  0  0  0  0  0  0  0  0  0
   26.1818  -21.9623  -16.1598 C   0  0  2  0  0  0  0  0  0  0  0  0
   27.3404  -21.1130  -16.3347 N   0  0  0  0  0  0  0  0  0  0  0  0
   25.7833  -22.0142  -14.7386 C   0  0  0  0  0  0  0  0  0  0  0  0
   24.7775  -22.7014  -14.4426 O   0  0  0  0  0  0  0  0  0  0  0  0
   26.4405  -21.3542  -13.6839 N   0  0  0  0  0  0  0  0  0  0  0  0
   25.8621  -21.1808  -12.3989 C   0  0  1  0  0  0  0  0  0  0  0  0
   26.7964  -20.7273  -11.3280 C   0  0  0  0  0  0  0  0  0  0  0  0
   26.2027  -20.6234   -9.9947 C   0  0  0  0  0  0  0  0  0  0  0  0
   26.5061  -19.5409   -9.1591 C   0  0  0  0  0  0  0  0  0  0  0  0
   25.9657  -19.4085   -7.8981 C   0  0  0  0  0  0  0  0  0  0  0  0
   25.0898  -20.3569   -7.4061 C   0  0  0  0  0  0  0  0  0  0  0  0
   24.7793  -21.4232   -8.2055 C   0  0  0  0  0  0  0  0  0  0  0  0
   25.3293  -21.5422   -9.4680 C   0  0  0  0  0  0  0  0  0  0  0  0
   24.6866  -20.2844  -12.4392 C   0  0  0  0  0  0  0  0  0  0  0  0
   24.8473  -19.0620  -12.7791 O   0  0  0  0  0  0  0  0  0  0  0  0
   23.3738  -20.6775  -12.1302 N   0  0  0  0  0  0  0  0  0  0  0  0
   22.2161  -19.7785  -12.1747 C   0  0  1  0  0  0  0  0  0  0  0  0
   21.8470  -19.5097  -13.6168 C   0  0  0  0  0  0  0  0  0  0  0  0
   21.5341  -20.7980  -14.3101 C   0  0  0  0  0  0  0  0  0  0  0  0
   21.1266  -20.5136  -15.7203 C   0  0  0  0  0  0  0  0  0  0  0  0
   21.6590  -21.1482  -16.6401 O   0  0  0  0  0  0  0  0  0  0  0  0
   21.1059  -20.4622  -11.5077 C   0  0  0  0  0  0  0  0  0  0  0  0
   19.9624  -19.7620  -11.1641 O   0  0  0  0  0  0  0  0  0  0  0  0
   20.1727  -19.5564  -15.9654 O   0  0  0  0  0  0  0  0  0  0  0  0
   21.1330  -21.6683  -11.2233 O   0  0  0  0  0  0  0  0  0  0  0  0
  2  1  1  0
  3  2  1  0
  4  3  1  0
  5  4  1  0
  5  6  1  1
  7  5  1  0
  7  8  2  0
  9  7  1  0
 10  9  1  0
 10 11  1  1
 12 11  1  0
 12 13  2  0
 14 13  1  0
 15 14  2  0
 16 17  2  0
 16 15  1  0
 17 12  1  0
 18 10  1  0
 19 18  2  0
 20 18  1  0
 21 20  1  0
 21 22  1  6
 22 23  1  0
 23 24  1  0
 24 25  2  0
 24 28  1  0
 26 27  1  0
 26 21  1  0
 29 26  2  0
M  END
$$$$
