WNN.pdb
     RDKit          3D

 31 32  0  0  1  0  0  0  0  0999 V2000
   20.8371  -13.8990  -18.5522 N   0  0  0  0  0  0  0  0  0  0  0  0
   19.6807  -13.0055  -18.3944 C   0  0  1  0  0  0  0  0  0  0  0  0
   19.0153  -13.3431  -17.0692 C   0  0  0  0  0  0  0  0  0  0  0  0
   18.3623  -14.6684  -17.2411 C   0  0  0  0  0  0  0  0  0  0  0  0
   18.8559  -15.8654  -16.7699 C   0  0  0  0  0  0  0  0  0  0  0  0
   17.9752  -16.8405  -17.1346 N   0  0  0  0  0  0  0  0  0  0  0  0
   16.9445  -16.3116  -17.8171 C   0  0  0  0  0  0  0  0  0  0  0  0
   15.8111  -16.8859  -18.3887 C   0  0  0  0  0  0  0  0  0  0  0  0
   14.9004  -16.0779  -19.0413 C   0  0  0  0  0  0  0  0  0  0  0  0
   15.1199  -14.7118  -19.1221 C   0  0  0  0  0  0  0  0  0  0  0  0
   16.2647  -14.1673  -18.5395 C   0  0  0  0  0  0  0  0  0  0  0  0
   17.1807  -14.9583  -17.8864 C   0  0  0  0  0  0  0  0  0  0  0  0
   20.1279  -11.5990  -18.4498 C   0  0  0  0  0  0  0  0  0  0  0  0
   21.2126  -11.3035  -17.8417 O   0  0  0  0  0  0  0  0  0  0  0  0
   20.4447   -7.8277  -22.4140 N   0  0  0  0  0  0  0  0  0  0  0  0
   19.8123   -8.7701  -21.5688 C   0  0  0  0  0  0  0  0  0  0  0  0
   19.6731   -9.9453  -21.9702 O   0  0  0  0  0  0  0  0  0  0  0  0
   19.3328   -8.3661  -20.2513 C   0  0  0  0  0  0  0  0  0  0  0  0
   19.9503   -9.1777  -19.1056 C   0  0  2  0  0  0  0  0  0  0  0  0
   19.4687  -10.5423  -19.1141 N   0  0  0  0  0  0  0  0  0  0  0  0
   19.6813   -8.4825  -17.8276 C   0  0  0  0  0  0  0  0  0  0  0  0
   18.4889   -8.3583  -17.3813 O   0  0  0  0  0  0  0  0  0  0  0  0
   19.7006   -6.0729  -13.3920 N   0  0  0  0  0  0  0  0  0  0  0  0
   20.2566   -7.3740  -13.3396 C   0  0  0  0  0  0  0  0  0  0  0  0
   20.4791   -7.8987  -12.2285 O   0  0  0  0  0  0  0  0  0  0  0  0
   20.5737   -8.1111  -14.5679 C   0  0  0  0  0  0  0  0  0  0  0  0
   20.3563   -7.2028  -15.7601 C   0  0  2  0  0  0  0  0  0  0  0  0
   20.6766   -7.9066  -16.9968 N   0  0  0  0  0  0  0  0  0  0  0  0
   21.1046   -5.9623  -15.6158 C   0  0  0  0  0  0  0  0  0  0  0  0
   22.4768   -5.9545  -15.8859 O   0  0  0  0  0  0  0  0  0  0  0  0
   20.5946   -4.8833  -15.2597 O   0  0  0  0  0  0  0  0  0  0  0  0
  2  1  1  1
  2  3  1  0
  2 13  1  0
  3  4  1  0
  4  5  2  0
  6  5  1  0
  7  6  1  0
  8  7  2  0
  9  8  1  0
 10  9  2  0
 10 11  1  0
 11 12  2  0
 12  7  1  0
 12  4  1  0
 13 14  2  0
 15 16  1  0
 16 17  2  0
 19 18  1  6
 18 16  1  0
 20 13  1  0
 20 19  1  0
 21 22  2  0
 21 19  1  0
 23 24  1  0
 24 26  1  0
 24 25  2  0
 27 26  1  1
 27 28  1  0
 28 21  1  0
 29 27  1  0
 29 30  1  0
 31 29  2  0
M  END
$$$$
