WNN.pdb
     RDKit          3D

 31 32  0  0  1  0  0  0  0  0999 V2000
   23.8400  -21.1111  -14.3980 N   0  0  0  0  0  0  0  0  0  0  0  0
   23.5044  -21.3621  -12.9891 C   0  0  1  0  0  0  0  0  0  0  0  0
   24.0233  -20.1866  -12.1756 C   0  0  0  0  0  0  0  0  0  0  0  0
   25.4261  -20.5086  -11.8008 C   0  0  0  0  0  0  0  0  0  0  0  0
   26.4396  -20.7994  -12.6877 C   0  0  0  0  0  0  0  0  0  0  0  0
   27.5641  -21.0418  -11.9554 N   0  0  0  0  0  0  0  0  0  0  0  0
   27.3055  -20.9168  -10.6418 C   0  0  0  0  0  0  0  0  0  0  0  0
   28.1114  -21.0606   -9.5144 C   0  0  0  0  0  0  0  0  0  0  0  0
   27.5623  -20.8648   -8.2621 C   0  0  0  0  0  0  0  0  0  0  0  0
   26.2233  -20.5293   -8.1378 C   0  0  0  0  0  0  0  0  0  0  0  0
   25.4428  -20.3929   -9.2861 C   0  0  0  0  0  0  0  0  0  0  0  0
   25.9746  -20.5846  -10.5399 C   0  0  0  0  0  0  0  0  0  0  0  0
   22.0444  -21.5343  -12.8489 C   0  0  0  0  0  0  0  0  0  0  0  0
   21.3143  -20.4947  -12.9905 O   0  0  0  0  0  0  0  0  0  0  0  0
   19.4986  -21.0530  -14.5192 N   0  0  0  0  0  0  0  0  0  0  0  0
   19.1426  -22.4015  -14.7592 C   0  0  0  0  0  0  0  0  0  0  0  0
   18.7042  -22.7203  -15.8851 O   0  0  0  0  0  0  0  0  0  0  0  0
   19.2879  -23.3963  -13.7018 C   0  0  0  0  0  0  0  0  0  0  0  0
   19.9355  -22.8383  -12.4283 C   0  0  2  0  0  0  0  0  0  0  0  0
   21.3724  -22.7443  -12.5717 N   0  0  0  0  0  0  0  0  0  0  0  0
   19.5275  -23.6745  -11.2780 C   0  0  0  0  0  0  0  0  0  0  0  0
   20.0149  -24.8446  -11.1060 O   0  0  0  0  0  0  0  0  0  0  0  0
   18.6504  -25.1211   -6.1137 N   0  0  0  0  0  0  0  0  0  0  0  0
   17.7590  -24.2580   -6.7958 C   0  0  0  0  0  0  0  0  0  0  0  0
   16.5534  -24.2444   -6.4705 O   0  0  0  0  0  0  0  0  0  0  0  0
   18.2304  -23.3832   -7.8751 C   0  0  0  0  0  0  0  0  0  0  0  0
   18.2093  -24.1519   -9.1798 C   0  0  2  0  0  0  0  0  0  0  0  0
   18.5931  -23.2815  -10.2856 N   0  0  0  0  0  0  0  0  0  0  0  0
   16.9158  -24.7850   -9.3930 C   0  0  0  0  0  0  0  0  0  0  0  0
   16.7070  -26.0890   -8.9326 O   0  0  0  0  0  0  0  0  0  0  0  0
   15.9610  -24.2322   -9.9708 O   0  0  0  0  0  0  0  0  0  0  0  0
  2  1  1  6
  2  3  1  0
  2 13  1  0
  3  4  1  0
  4  5  2  0
  6  5  1  0
  7  6  1  0
  8  7  2  0
  9  8  1  0
 10  9  2  0
 10 11  1  0
 11 12  2  0
 12  7  1  0
 12  4  1  0
 13 14  2  0
 15 16  1  0
 16 17  2  0
 19 18  1  6
 18 16  1  0
 20 13  1  0
 20 19  1  0
 21 22  2  0
 21 19  1  0
 23 24  1  0
 24 26  1  0
 24 25  2  0
 27 26  1  1
 27 28  1  0
 28 21  1  0
 29 27  1  0
 29 30  1  0
 31 29  2  0
M  END
$$$$
