WNN.pdb
     RDKit          3D

 31 32  0  0  1  0  0  0  0  0999 V2000
   28.0598  -21.4896  -10.4951 N   0  0  0  0  0  0  0  0  0  0  0  0
   26.8584  -20.8457   -9.9449 C   0  0  1  0  0  0  0  0  0  0  0  0
   27.3163  -19.7026   -9.0524 C   0  0  0  0  0  0  0  0  0  0  0  0
   28.3029  -20.2721   -8.0962 C   0  0  0  0  0  0  0  0  0  0  0  0
   29.4371  -20.9719   -8.4460 C   0  0  0  0  0  0  0  0  0  0  0  0
   30.0690  -21.3265   -7.2907 N   0  0  0  0  0  0  0  0  0  0  0  0
   29.3827  -20.8807   -6.2238 C   0  0  0  0  0  0  0  0  0  0  0  0
   29.6161  -20.9850   -4.8542 C   0  0  0  0  0  0  0  0  0  0  0  0
   28.7205  -20.4142   -3.9709 C   0  0  0  0  0  0  0  0  0  0  0  0
   27.6045  -19.7469   -4.4506 C   0  0  0  0  0  0  0  0  0  0  0  0
   27.3990  -19.6599   -5.8278 C   0  0  0  0  0  0  0  0  0  0  0  0
   28.2812  -20.2230   -6.7201 C   0  0  0  0  0  0  0  0  0  0  0  0
   25.9953  -20.3784  -11.0484 C   0  0  0  0  0  0  0  0  0  0  0  0
   26.4374  -19.4253  -11.7764 O   0  0  0  0  0  0  0  0  0  0  0  0
   24.1423  -20.8659  -16.2260 N   0  0  0  0  0  0  0  0  0  0  0  0
   24.0229  -20.1592  -15.0059 C   0  0  0  0  0  0  0  0  0  0  0  0
   23.2919  -19.1466  -14.9622 O   0  0  0  0  0  0  0  0  0  0  0  0
   24.7468  -20.6130  -13.8231 C   0  0  0  0  0  0  0  0  0  0  0  0
   23.9572  -20.4296  -12.5209 C   0  0  2  0  0  0  0  0  0  0  0  0
   24.7204  -20.8861  -11.3793 N   0  0  0  0  0  0  0  0  0  0  0  0
   22.6534  -21.1166  -12.6510 C   0  0  0  0  0  0  0  0  0  0  0  0
   22.5843  -22.3906  -12.7437 O   0  0  0  0  0  0  0  0  0  0  0  0
   19.4300  -21.7369  -10.3617 N   0  0  0  0  0  0  0  0  0  0  0  0
   18.7223  -20.6904  -11.0009 C   0  0  0  0  0  0  0  0  0  0  0  0
   17.8715  -20.0445  -10.3540 O   0  0  0  0  0  0  0  0  0  0  0  0
   18.9737  -20.3558  -12.4071 C   0  0  0  0  0  0  0  0  0  0  0  0
   20.1439  -21.1758  -12.9091 C   0  0  2  0  0  0  0  0  0  0  0  0
   21.3955  -20.4616  -12.6832 N   0  0  0  0  0  0  0  0  0  0  0  0
   19.9604  -21.5495  -14.3042 C   0  0  0  0  0  0  0  0  0  0  0  0
   20.3023  -20.6380  -15.3084 O   0  0  0  0  0  0  0  0  0  0  0  0
   19.5091  -22.6503  -14.6727 O   0  0  0  0  0  0  0  0  0  0  0  0
  2  1  1  6
  2  3  1  0
  2 13  1  0
  3  4  1  0
  4  5  2  0
  6  5  1  0
  7  6  1  0
  8  7  2  0
  9  8  1  0
 10  9  2  0
 10 11  1  0
 11 12  2  0
 12  7  1  0
 12  4  1  0
 13 14  2  0
 15 16  1  0
 16 17  2  0
 19 18  1  6
 18 16  1  0
 20 13  1  0
 20 19  1  0
 21 22  2  0
 21 19  1  0
 23 24  1  0
 24 26  1  0
 24 25  2  0
 27 26  1  6
 27 28  1  0
 28 21  1  0
 29 27  1  0
 29 30  1  0
 31 29  2  0
M  END
$$$$
