WNN.pdb
     RDKit          3D

 31 32  0  0  1  0  0  0  0  0999 V2000
   25.7343  -18.7386   -9.1729 N   0  0  0  0  0  0  0  0  0  0  0  0
   26.4707  -19.8801   -9.7343 C   0  0  1  0  0  0  0  0  0  0  0  0
   26.2863  -21.0571   -8.7890 C   0  0  0  0  0  0  0  0  0  0  0  0
   26.7611  -20.6130   -7.4513 C   0  0  0  0  0  0  0  0  0  0  0  0
   25.9817  -20.0028   -6.4929 C   0  0  0  0  0  0  0  0  0  0  0  0
   26.7822  -19.7489   -5.4185 N   0  0  0  0  0  0  0  0  0  0  0  0
   28.0360  -20.1726   -5.6561 C   0  0  0  0  0  0  0  0  0  0  0  0
   29.1940  -20.1409   -4.8820 C   0  0  0  0  0  0  0  0  0  0  0  0
   30.3647  -20.6639   -5.3961 C   0  0  0  0  0  0  0  0  0  0  0  0
   30.3781  -21.2120   -6.6690 C   0  0  0  0  0  0  0  0  0  0  0  0
   29.2018  -21.2285   -7.4190 C   0  0  0  0  0  0  0  0  0  0  0  0
   28.0284  -20.7119   -6.9215 C   0  0  0  0  0  0  0  0  0  0  0  0
   25.9714  -20.1743  -11.0928 C   0  0  0  0  0  0  0  0  0  0  0  0
   24.7946  -19.7705  -11.3860 O   0  0  0  0  0  0  0  0  0  0  0  0
   28.1290  -19.2378  -14.3881 N   0  0  0  0  0  0  0  0  0  0  0  0
   28.2877  -20.5993  -14.7397 C   0  0  0  0  0  0  0  0  0  0  0  0
   29.3179  -20.9493  -15.3543 O   0  0  0  0  0  0  0  0  0  0  0  0
   27.2586  -21.5714  -14.3867 C   0  0  0  0  0  0  0  0  0  0  0  0
   26.1784  -21.0017  -13.4586 C   0  0  2  0  0  0  0  0  0  0  0  0
   26.6731  -20.8628  -12.1057 N   0  0  0  0  0  0  0  0  0  0  0  0
   24.9744  -21.8572  -13.5439 C   0  0  0  0  0  0  0  0  0  0  0  0
   24.8980  -22.9570  -12.8951 O   0  0  0  0  0  0  0  0  0  0  0  0
   19.9197  -21.0749  -11.5653 N   0  0  0  0  0  0  0  0  0  0  0  0
   20.9154  -21.9609  -12.0430 C   0  0  0  0  0  0  0  0  0  0  0  0
   20.6724  -23.1850  -12.0887 O   0  0  0  0  0  0  0  0  0  0  0  0
   22.2233  -21.4627  -12.4831 C   0  0  0  0  0  0  0  0  0  0  0  0
   22.4774  -21.9266  -13.9022 C   0  0  2  0  0  0  0  0  0  0  0  0
   23.8254  -21.5586  -14.3206 N   0  0  0  0  0  0  0  0  0  0  0  0
   21.4561  -21.4213  -14.8084 C   0  0  0  0  0  0  0  0  0  0  0  0
   20.1965  -22.0288  -14.8283 O   0  0  0  0  0  0  0  0  0  0  0  0
   21.6317  -20.4636  -15.5850 O   0  0  0  0  0  0  0  0  0  0  0  0
  2  1  1  1
  2  3  1  0
  2 13  1  0
  3  4  1  0
  4  5  2  0
  6  5  1  0
  7  6  1  0
  8  7  2  0
  9  8  1  0
 10  9  2  0
 10 11  1  0
 11 12  2  0
 12  7  1  0
 12  4  1  0
 13 14  2  0
 15 16  1  0
 16 17  2  0
 19 18  1  6
 18 16  1  0
 20 13  1  0
 20 19  1  0
 21 22  2  0
 21 19  1  0
 23 24  1  0
 24 26  1  0
 24 25  2  0
 27 26  1  1
 27 28  1  0
 28 21  1  0
 29 27  1  0
 29 30  1  0
 31 29  2  0
M  END
$$$$
