WNN.pdb
     RDKit          3D

 31 32  0  0  1  0  0  0  0  0999 V2000
   26.9787  -22.4057  -14.5371 N   0  0  0  0  0  0  0  0  0  0  0  0
   25.9721  -21.8740  -13.6073 C   0  0  1  0  0  0  0  0  0  0  0  0
   26.3728  -20.4486  -13.2604 C   0  0  0  0  0  0  0  0  0  0  0  0
   27.4922  -20.5415  -12.2855 C   0  0  0  0  0  0  0  0  0  0  0  0
   28.8316  -20.4954  -12.6055 C   0  0  0  0  0  0  0  0  0  0  0  0
   29.5324  -20.6180  -11.4421 N   0  0  0  0  0  0  0  0  0  0  0  0
   28.6932  -20.7399  -10.3986 C   0  0  0  0  0  0  0  0  0  0  0  0
   28.9193  -20.8871   -9.0317 C   0  0  0  0  0  0  0  0  0  0  0  0
   27.8400  -20.9882   -8.1755 C   0  0  0  0  0  0  0  0  0  0  0  0
   26.5497  -20.9429   -8.6794 C   0  0  0  0  0  0  0  0  0  0  0  0
   26.3566  -20.7948  -10.0531 C   0  0  0  0  0  0  0  0  0  0  0  0
   27.4206  -20.6929  -10.9185 C   0  0  0  0  0  0  0  0  0  0  0  0
   24.6350  -21.9397  -14.2311 C   0  0  0  0  0  0  0  0  0  0  0  0
   24.5226  -21.5007  -15.4263 O   0  0  0  0  0  0  0  0  0  0  0  0
   23.5825  -24.6801  -15.5717 N   0  0  0  0  0  0  0  0  0  0  0  0
   22.4471  -25.0398  -14.8074 C   0  0  0  0  0  0  0  0  0  0  0  0
   22.1516  -26.2488  -14.6951 O   0  0  0  0  0  0  0  0  0  0  0  0
   21.6400  -24.0079  -14.1651 C   0  0  0  0  0  0  0  0  0  0  0  0
   22.2095  -22.5947  -14.3415 C   0  0  2  0  0  0  0  0  0  0  0  0
   23.4611  -22.4441  -13.6310 N   0  0  0  0  0  0  0  0  0  0  0  0
   21.1883  -21.6111  -13.9190 C   0  0  0  0  0  0  0  0  0  0  0  0
   20.9741  -21.3716  -12.6808 O   0  0  0  0  0  0  0  0  0  0  0  0
   17.5179  -18.0631  -13.6657 N   0  0  0  0  0  0  0  0  0  0  0  0
   18.3719  -17.7285  -14.7443 C   0  0  0  0  0  0  0  0  0  0  0  0
   18.2028  -16.6463  -15.3441 O   0  0  0  0  0  0  0  0  0  0  0  0
   19.4483  -18.6322  -15.1653 C   0  0  0  0  0  0  0  0  0  0  0  0
   19.3823  -19.8993  -14.3385 C   0  0  2  0  0  0  0  0  0  0  0  0
   20.3747  -20.8604  -14.8062 N   0  0  0  0  0  0  0  0  0  0  0  0
   18.0345  -20.4497  -14.3317 C   0  0  0  0  0  0  0  0  0  0  0  0
   17.2573  -20.3448  -13.1737 O   0  0  0  0  0  0  0  0  0  0  0  0
   17.5148  -21.0209  -15.3088 O   0  0  0  0  0  0  0  0  0  0  0  0
  2  1  1  6
  2  3  1  0
  2 13  1  0
  3  4  1  0
  4  5  2  0
  6  5  1  0
  7  6  1  0
  8  7  2  0
  9  8  1  0
 10  9  2  0
 10 11  1  0
 11 12  2  0
 12  7  1  0
 12  4  1  0
 13 14  2  0
 15 16  1  0
 16 17  2  0
 19 18  1  1
 18 16  1  0
 20 13  1  0
 20 19  1  0
 21 22  2  0
 21 19  1  0
 23 24  1  0
 24 26  1  0
 24 25  2  0
 27 26  1  6
 27 28  1  0
 28 21  1  0
 29 27  1  0
 29 30  1  0
 31 29  2  0
M  END
$$$$
