WNN.pdb
     RDKit          3D

 31 32  0  0  1  0  0  0  0  0999 V2000
   25.5484  -18.7211  -18.7747 N   0  0  0  0  0  0  0  0  0  0  0  0
   24.6172  -18.5737  -17.6470 C   0  0  1  0  0  0  0  0  0  0  0  0
   23.2057  -18.5678  -18.2131 C   0  0  0  0  0  0  0  0  0  0  0  0
   23.0217  -17.2595  -18.8962 C   0  0  0  0  0  0  0  0  0  0  0  0
   23.2971  -17.0092  -20.2228 C   0  0  0  0  0  0  0  0  0  0  0  0
   23.0027  -15.6988  -20.4593 N   0  0  0  0  0  0  0  0  0  0  0  0
   22.5524  -15.1086  -19.3383 C   0  0  0  0  0  0  0  0  0  0  0  0
   22.1292  -13.8076  -19.0741 C   0  0  0  0  0  0  0  0  0  0  0  0
   21.7083  -13.4798  -17.8000 C   0  0  0  0  0  0  0  0  0  0  0  0
   21.7104  -14.4408  -16.8012 C   0  0  0  0  0  0  0  0  0  0  0  0
   22.1402  -15.7345  -17.0977 C   0  0  0  0  0  0  0  0  0  0  0  0
   22.5623  -16.0766  -18.3611 C   0  0  0  0  0  0  0  0  0  0  0  0
   24.8254  -19.6733  -16.6833 C   0  0  0  0  0  0  0  0  0  0  0  0
   24.7094  -20.8683  -17.1220 O   0  0  0  0  0  0  0  0  0  0  0  0
   28.2098  -19.5678  -13.8184 N   0  0  0  0  0  0  0  0  0  0  0  0
   27.3473  -20.6776  -13.9824 C   0  0  0  0  0  0  0  0  0  0  0  0
   27.7259  -21.6395  -14.6844 O   0  0  0  0  0  0  0  0  0  0  0  0
   26.0379  -20.6887  -13.3388 C   0  0  0  0  0  0  0  0  0  0  0  0
   24.8739  -20.5555  -14.3288 C   0  0  2  0  0  0  0  0  0  0  0  0
   25.1424  -19.5313  -15.3151 N   0  0  0  0  0  0  0  0  0  0  0  0
   23.6271  -20.3094  -13.5712 C   0  0  0  0  0  0  0  0  0  0  0  0
   23.3579  -19.1508  -13.1005 O   0  0  0  0  0  0  0  0  0  0  0  0
   18.8483  -18.5488  -13.3980 N   0  0  0  0  0  0  0  0  0  0  0  0
   19.2738  -19.8152  -13.8668 C   0  0  0  0  0  0  0  0  0  0  0  0
   18.4266  -20.7136  -14.0530 O   0  0  0  0  0  0  0  0  0  0  0  0
   20.6906  -20.0854  -14.1356 C   0  0  0  0  0  0  0  0  0  0  0  0
   21.2485  -20.9512  -13.0254 C   0  0  2  0  0  0  0  0  0  0  0  0
   22.6399  -21.2915  -13.3004 N   0  0  0  0  0  0  0  0  0  0  0  0
   20.4190  -22.1288  -12.8135 C   0  0  0  0  0  0  0  0  0  0  0  0
   20.7137  -23.3080  -13.5054 O   0  0  0  0  0  0  0  0  0  0  0  0
   19.4425  -22.1581  -12.0410 O   0  0  0  0  0  0  0  0  0  0  0  0
  2  1  1  6
  2  3  1  0
  2 13  1  0
  3  4  1  0
  4  5  2  0
  6  5  1  0
  7  6  1  0
  8  7  2  0
  9  8  1  0
 10  9  2  0
 10 11  1  0
 11 12  2  0
 12  7  1  0
 12  4  1  0
 13 14  2  0
 15 16  1  0
 16 17  2  0
 19 18  1  1
 18 16  1  0
 20 13  1  0
 20 19  1  0
 21 22  2  0
 21 19  1  0
 23 24  1  0
 24 26  1  0
 24 25  2  0
 27 26  1  6
 27 28  1  0
 28 21  1  0
 29 27  1  0
 29 30  1  0
 31 29  2  0
M  END
$$$$
