WNN.pdb
     RDKit          3D

 31 32  0  0  1  0  0  0  0  0999 V2000
   20.8014  -20.9624  -16.2568 N   0  0  0  0  0  0  0  0  0  0  0  0
   19.9016  -21.8378  -15.4922 C   0  0  1  0  0  0  0  0  0  0  0  0
   19.8763  -23.1910  -16.1859 C   0  0  0  0  0  0  0  0  0  0  0  0
   19.3095  -22.9683  -17.5428 C   0  0  0  0  0  0  0  0  0  0  0  0
   20.0077  -23.0833  -18.7251 C   0  0  0  0  0  0  0  0  0  0  0  0
   19.1417  -22.7962  -19.7386 N   0  0  0  0  0  0  0  0  0  0  0  0
   17.9244  -22.5042  -19.2480 C   0  0  0  0  0  0  0  0  0  0  0  0
   16.7273  -22.1545  -19.8694 C   0  0  0  0  0  0  0  0  0  0  0  0
   15.6108  -21.9078  -19.0943 C   0  0  0  0  0  0  0  0  0  0  0  0
   15.6895  -22.0091  -17.7143 C   0  0  0  0  0  0  0  0  0  0  0  0
   16.9029  -22.3612  -17.1224 C   0  0  0  0  0  0  0  0  0  0  0  0
   18.0233  -22.6099  -17.8802 C   0  0  0  0  0  0  0  0  0  0  0  0
   20.3724  -21.9372  -14.0960 C   0  0  0  0  0  0  0  0  0  0  0  0
   21.1582  -22.9035  -13.8088 O   0  0  0  0  0  0  0  0  0  0  0  0
   21.6965  -21.1995   -9.1607 N   0  0  0  0  0  0  0  0  0  0  0  0
   21.4237  -19.9331   -9.7303 C   0  0  0  0  0  0  0  0  0  0  0  0
   21.7105  -18.9039   -9.0822 O   0  0  0  0  0  0  0  0  0  0  0  0
   20.8161  -19.8410  -11.0536 C   0  0  0  0  0  0  0  0  0  0  0  0
   20.5498  -21.2083  -11.6956 C   0  0  2  0  0  0  0  0  0  0  0  0
   20.0363  -21.0621  -13.0406 N   0  0  0  0  0  0  0  0  0  0  0  0
   19.6445  -21.9813  -10.8170 C   0  0  0  0  0  0  0  0  0  0  0  0
   18.4330  -21.6152  -10.6307 O   0  0  0  0  0  0  0  0  0  0  0  0
   18.8957  -25.5295   -6.5049 N   0  0  0  0  0  0  0  0  0  0  0  0
   18.5781  -24.1927   -6.8468 C   0  0  0  0  0  0  0  0  0  0  0  0
   17.5592  -23.6626   -6.3565 O   0  0  0  0  0  0  0  0  0  0  0  0
   19.4261  -23.4250   -7.7655 C   0  0  0  0  0  0  0  0  0  0  0  0
   19.1101  -23.8338   -9.1890 C   0  0  2  0  0  0  0  0  0  0  0  0
   20.0097  -23.1615  -10.1197 N   0  0  0  0  0  0  0  0  0  0  0  0
   17.7080  -23.5981   -9.5018 C   0  0  0  0  0  0  0  0  0  0  0  0
   16.8267  -24.6826   -9.5582 O   0  0  0  0  0  0  0  0  0  0  0  0
   17.2289  -22.4709   -9.7282 O   0  0  0  0  0  0  0  0  0  0  0  0
  2  1  1  6
  2  3  1  0
  2 13  1  0
  3  4  1  0
  4  5  2  0
  6  5  1  0
  7  6  1  0
  8  7  2  0
  9  8  1  0
 10  9  2  0
 10 11  1  0
 11 12  2  0
 12  7  1  0
 12  4  1  0
 13 14  2  0
 15 16  1  0
 16 17  2  0
 19 18  1  1
 18 16  1  0
 20 13  1  0
 20 19  1  0
 21 22  2  0
 21 19  1  0
 23 24  1  0
 24 26  1  0
 24 25  2  0
 27 26  1  1
 27 28  1  0
 28 21  1  0
 29 27  1  0
 29 30  1  0
 31 29  2  0
M  END
$$$$
