WNN.pdb
     RDKit          3D

 31 32  0  0  1  0  0  0  0  0999 V2000
   28.0358  -21.3585   -9.1446 N   0  0  0  0  0  0  0  0  0  0  0  0
   26.5694  -21.4149   -9.2289 C   0  0  1  0  0  0  0  0  0  0  0  0
   26.0189  -21.1973   -7.8280 C   0  0  0  0  0  0  0  0  0  0  0  0
   26.8750  -20.1651   -7.1849 C   0  0  0  0  0  0  0  0  0  0  0  0
   27.0215  -18.8672   -7.6236 C   0  0  0  0  0  0  0  0  0  0  0  0
   27.8889  -18.2461   -6.7742 N   0  0  0  0  0  0  0  0  0  0  0  0
   28.2979  -19.0959   -5.8159 C   0  0  0  0  0  0  0  0  0  0  0  0
   29.1655  -18.9382   -4.7371 C   0  0  0  0  0  0  0  0  0  0  0  0
   29.4012  -20.0094   -3.8975 C   0  0  0  0  0  0  0  0  0  0  0  0
   28.7773  -21.2244   -4.1332 C   0  0  0  0  0  0  0  0  0  0  0  0
   27.9141  -21.3502   -5.2220 C   0  0  0  0  0  0  0  0  0  0  0  0
   27.6692  -20.2933   -6.0671 C   0  0  0  0  0  0  0  0  0  0  0  0
   26.0865  -20.3944  -10.1810 C   0  0  0  0  0  0  0  0  0  0  0  0
   26.7001  -19.2733  -10.2012 O   0  0  0  0  0  0  0  0  0  0  0  0
   28.7546  -21.3460  -12.9058 N   0  0  0  0  0  0  0  0  0  0  0  0
   27.5490  -20.6519  -13.1658 C   0  0  0  0  0  0  0  0  0  0  0  0
   27.6039  -19.4516  -13.5089 O   0  0  0  0  0  0  0  0  0  0  0  0
   26.2671  -21.3356  -13.0318 C   0  0  0  0  0  0  0  0  0  0  0  0
   25.1458  -20.4265  -12.5131 C   0  0  2  0  0  0  0  0  0  0  0  0
   25.0054  -20.5384  -11.0772 N   0  0  0  0  0  0  0  0  0  0  0  0
   23.8964  -20.7464  -13.2381 C   0  0  0  0  0  0  0  0  0  0  0  0
   23.8557  -20.7453  -14.5166 O   0  0  0  0  0  0  0  0  0  0  0  0
   21.7164  -23.1577  -14.6668 N   0  0  0  0  0  0  0  0  0  0  0  0
   20.6742  -23.1544  -13.7084 C   0  0  0  0  0  0  0  0  0  0  0  0
   19.9707  -24.1766  -13.5679 O   0  0  0  0  0  0  0  0  0  0  0  0
   20.4105  -21.9715  -12.8816 C   0  0  0  0  0  0  0  0  0  0  0  0
   21.3763  -20.8714  -13.2697 C   0  0  2  0  0  0  0  0  0  0  0  0
   22.6644  -21.0760  -12.6168 N   0  0  0  0  0  0  0  0  0  0  0  0
   20.8130  -19.5583  -12.9901 C   0  0  0  0  0  0  0  0  0  0  0  0
   19.6098  -19.1854  -13.5978 O   0  0  0  0  0  0  0  0  0  0  0  0
   21.3418  -18.7255  -12.2299 O   0  0  0  0  0  0  0  0  0  0  0  0
  2  1  1  1
  2  3  1  0
  2 13  1  0
  3  4  1  0
  4  5  2  0
  6  5  1  0
  7  6  1  0
  8  7  2  0
  9  8  1  0
 10  9  2  0
 10 11  1  0
 11 12  2  0
 12  7  1  0
 12  4  1  0
 13 14  2  0
 15 16  1  0
 16 17  2  0
 19 18  1  6
 18 16  1  0
 20 13  1  0
 20 19  1  0
 21 22  2  0
 21 19  1  0
 23 24  1  0
 24 26  1  0
 24 25  2  0
 27 26  1  1
 27 28  1  0
 28 21  1  0
 29 27  1  0
 29 30  1  0
 31 29  2  0
M  END
$$$$
