WNN.pdb
     RDKit          3D

 31 32  0  0  1  0  0  0  0  0999 V2000
   25.9876  -22.4365  -14.4816 N   0  0  0  0  0  0  0  0  0  0  0  0
   25.2319  -21.6257  -13.5162 C   0  0  1  0  0  0  0  0  0  0  0  0
   25.9096  -20.2673  -13.4253 C   0  0  0  0  0  0  0  0  0  0  0  0
   26.9109  -20.3585  -12.3293 C   0  0  0  0  0  0  0  0  0  0  0  0
   28.2776  -20.3894  -12.5010 C   0  0  0  0  0  0  0  0  0  0  0  0
   28.8414  -20.4814  -11.2627 N   0  0  0  0  0  0  0  0  0  0  0  0
   27.8892  -20.5102  -10.3138 C   0  0  0  0  0  0  0  0  0  0  0  0
   27.9583  -20.5948   -8.9248 C   0  0  0  0  0  0  0  0  0  0  0  0
   26.7891  -20.6020   -8.1894 C   0  0  0  0  0  0  0  0  0  0  0  0
   25.5647  -20.5257   -8.8345 C   0  0  0  0  0  0  0  0  0  0  0  0
   25.5291  -20.4421  -10.2267 C   0  0  0  0  0  0  0  0  0  0  0  0
   26.6843  -20.4339  -10.9729 C   0  0  0  0  0  0  0  0  0  0  0  0
   23.8249  -21.5174  -13.9515 C   0  0  0  0  0  0  0  0  0  0  0  0
   23.5504  -21.8795  -15.1463 O   0  0  0  0  0  0  0  0  0  0  0  0
   18.6504  -21.9181  -13.7927 N   0  0  0  0  0  0  0  0  0  0  0  0
   19.2390  -22.2644  -12.5533 C   0  0  0  0  0  0  0  0  0  0  0  0
   18.5611  -22.9006  -11.7182 O   0  0  0  0  0  0  0  0  0  0  0  0
   20.6163  -21.8794  -12.2638 C   0  0  0  0  0  0  0  0  0  0  0  0
   21.3611  -21.3258  -13.4851 C   0  0  2  0  0  0  0  0  0  0  0  0
   22.7463  -21.0494  -13.1704 N   0  0  0  0  0  0  0  0  0  0  0  0
   20.6388  -20.1364  -13.9874 C   0  0  0  0  0  0  0  0  0  0  0  0
   19.6732  -20.2519  -14.8185 O   0  0  0  0  0  0  0  0  0  0  0  0
   22.6766  -15.7222  -16.4847 N   0  0  0  0  0  0  0  0  0  0  0  0
   21.9471  -16.9232  -16.6587 C   0  0  0  0  0  0  0  0  0  0  0  0
   21.2522  -17.0722  -17.6855 O   0  0  0  0  0  0  0  0  0  0  0  0
   21.9962  -17.9905  -15.6532 C   0  0  0  0  0  0  0  0  0  0  0  0
   20.9681  -17.7053  -14.5784 C   0  0  2  0  0  0  0  0  0  0  0  0
   20.9283  -18.7988  -13.6140 N   0  0  0  0  0  0  0  0  0  0  0  0
   19.6631  -17.4308  -15.1626 C   0  0  0  0  0  0  0  0  0  0  0  0
   19.0253  -18.4244  -15.9123 O   0  0  0  0  0  0  0  0  0  0  0  0
   19.0627  -16.3468  -15.0380 O   0  0  0  0  0  0  0  0  0  0  0  0
  2  1  1  6
  2  3  1  0
  2 13  1  0
  3  4  1  0
  4  5  2  0
  6  5  1  0
  7  6  1  0
  8  7  2  0
  9  8  1  0
 10  9  2  0
 10 11  1  0
 11 12  2  0
 12  7  1  0
 12  4  1  0
 13 14  2  0
 15 16  1  0
 16 17  2  0
 19 18  1  1
 18 16  1  0
 20 13  1  0
 20 19  1  0
 21 22  2  0
 21 19  1  0
 23 24  1  0
 24 26  1  0
 24 25  2  0
 27 26  1  6
 27 28  1  0
 28 21  1  0
 29 27  1  0
 29 30  1  0
 31 29  2  0
M  END
$$$$
