WNN.pdb
     RDKit          3D

 31 32  0  0  1  0  0  0  0  0999 V2000
   22.5937   -9.3868  -17.9470 N   0  0  0  0  0  0  0  0  0  0  0  0
   22.8239   -8.3752  -16.9058 C   0  0  1  0  0  0  0  0  0  0  0  0
   23.9402   -7.4624  -17.3891 C   0  0  0  0  0  0  0  0  0  0  0  0
   25.1531   -8.3097  -17.5415 C   0  0  0  0  0  0  0  0  0  0  0  0
   25.8390   -8.5124  -18.7191 C   0  0  0  0  0  0  0  0  0  0  0  0
   26.8799   -9.3496  -18.4449 N   0  0  0  0  0  0  0  0  0  0  0  0
   26.8822   -9.6857  -17.1430 C   0  0  0  0  0  0  0  0  0  0  0  0
   27.7271  -10.4991  -16.3909 C   0  0  0  0  0  0  0  0  0  0  0  0
   27.4822  -10.6628  -15.0413 C   0  0  0  0  0  0  0  0  0  0  0  0
   26.4052  -10.0212  -14.4501 C   0  0  0  0  0  0  0  0  0  0  0  0
   25.5777   -9.2135  -15.2306 C   0  0  0  0  0  0  0  0  0  0  0  0
   25.8082   -9.0405  -16.5754 C   0  0  0  0  0  0  0  0  0  0  0  0
   21.5727   -7.6345  -16.6468 C   0  0  0  0  0  0  0  0  0  0  0  0
   20.9842   -7.1069  -17.6514 O   0  0  0  0  0  0  0  0  0  0  0  0
   17.0785   -5.8042  -15.1343 N   0  0  0  0  0  0  0  0  0  0  0  0
   17.2826   -6.9149  -15.9871 C   0  0  0  0  0  0  0  0  0  0  0  0
   16.3144   -7.3653  -16.6362 O   0  0  0  0  0  0  0  0  0  0  0  0
   18.6063   -7.5184  -16.0993 C   0  0  0  0  0  0  0  0  0  0  0  0
   19.6616   -6.8339  -15.2216 C   0  0  2  0  0  0  0  0  0  0  0  0
   20.9595   -7.4517  -15.3886 N   0  0  0  0  0  0  0  0  0  0  0  0
   19.1971   -6.8465  -13.8170 C   0  0  0  0  0  0  0  0  0  0  0  0
   19.1901   -7.9275  -13.1331 O   0  0  0  0  0  0  0  0  0  0  0  0
   17.7045   -5.6911   -9.0792 N   0  0  0  0  0  0  0  0  0  0  0  0
   17.6951   -4.4529   -9.7659 C   0  0  0  0  0  0  0  0  0  0  0  0
   17.3391   -3.4210   -9.1593 O   0  0  0  0  0  0  0  0  0  0  0  0
   18.0962   -4.3660  -11.1744 C   0  0  0  0  0  0  0  0  0  0  0  0
   18.3273   -5.7635  -11.7102 C   0  0  2  0  0  0  0  0  0  0  0  0
   18.7318   -5.7077  -13.1104 N   0  0  0  0  0  0  0  0  0  0  0  0
   17.1566   -6.6036  -11.5021 C   0  0  0  0  0  0  0  0  0  0  0  0
   16.1820   -6.6805  -12.5023 O   0  0  0  0  0  0  0  0  0  0  0  0
   16.9590   -7.2731  -10.4707 O   0  0  0  0  0  0  0  0  0  0  0  0
  2  1  1  6
  2  3  1  0
  2 13  1  0
  3  4  1  0
  4  5  2  0
  6  5  1  0
  7  6  1  0
  8  7  2  0
  9  8  1  0
 10  9  2  0
 10 11  1  0
 11 12  2  0
 12  7  1  0
 12  4  1  0
 13 14  2  0
 15 16  1  0
 16 17  2  0
 19 18  1  6
 18 16  1  0
 20 13  1  0
 20 19  1  0
 21 22  2  0
 21 19  1  0
 23 24  1  0
 24 26  1  0
 24 25  2  0
 27 26  1  6
 27 28  1  0
 28 21  1  0
 29 27  1  0
 29 30  1  0
 31 29  2  0
M  END
$$$$
