WNN.pdb
     RDKit          3D

 31 32  0  0  1  0  0  0  0  0999 V2000
   27.8041  -20.3199  -16.6012 N   0  0  0  0  0  0  0  0  0  0  0  0
   27.0942  -19.4716  -15.6333 C   0  0  1  0  0  0  0  0  0  0  0  0
   26.1462  -18.5752  -16.4148 C   0  0  0  0  0  0  0  0  0  0  0  0
   26.9300  -17.3832  -16.8354 C   0  0  0  0  0  0  0  0  0  0  0  0
   27.5215  -17.2147  -18.0684 C   0  0  0  0  0  0  0  0  0  0  0  0
   28.1460  -16.0025  -18.0579 N   0  0  0  0  0  0  0  0  0  0  0  0
   27.9748  -15.3960  -16.8702 C   0  0  0  0  0  0  0  0  0  0  0  0
   28.4095  -14.1667  -16.3791 C   0  0  0  0  0  0  0  0  0  0  0  0
   28.0727  -13.7963  -15.0917 C   0  0  0  0  0  0  0  0  0  0  0  0
   27.3104  -14.6445  -14.3040 C   0  0  0  0  0  0  0  0  0  0  0  0
   26.8907  -15.8688  -14.8249 C   0  0  0  0  0  0  0  0  0  0  0  0
   27.2178  -16.2520  -16.1046 C   0  0  0  0  0  0  0  0  0  0  0  0
   26.3801  -20.3202  -14.6582 C   0  0  0  0  0  0  0  0  0  0  0  0
   25.8885  -21.4198  -15.0860 O   0  0  0  0  0  0  0  0  0  0  0  0
   27.8165  -21.6592  -11.8700 N   0  0  0  0  0  0  0  0  0  0  0  0
   27.0458  -21.2086  -10.7721 C   0  0  0  0  0  0  0  0  0  0  0  0
   27.5479  -21.2374   -9.6281 O   0  0  0  0  0  0  0  0  0  0  0  0
   25.6869  -20.7209  -10.9825 C   0  0  0  0  0  0  0  0  0  0  0  0
   25.2515  -20.7529  -12.4529 C   0  0  2  0  0  0  0  0  0  0  0  0
   26.1868  -20.0326  -13.2898 N   0  0  0  0  0  0  0  0  0  0  0  0
   23.8710  -20.2307  -12.5546 C   0  0  0  0  0  0  0  0  0  0  0  0
   23.6449  -18.9752  -12.6492 O   0  0  0  0  0  0  0  0  0  0  0  0
   20.3203  -18.6655  -15.7925 N   0  0  0  0  0  0  0  0  0  0  0  0
   20.5160  -20.0083  -15.3885 C   0  0  0  0  0  0  0  0  0  0  0  0
   19.6165  -20.8476  -15.6028 O   0  0  0  0  0  0  0  0  0  0  0  0
   21.7559  -20.4254  -14.7243 C   0  0  0  0  0  0  0  0  0  0  0  0
   21.4800  -20.6390  -13.2506 C   0  0  2  0  0  0  0  0  0  0  0  0
   22.7021  -21.0346  -12.5597 N   0  0  0  0  0  0  0  0  0  0  0  0
   20.3965  -21.5913  -13.0541 C   0  0  0  0  0  0  0  0  0  0  0  0
   20.6202  -22.9472  -13.3140 O   0  0  0  0  0  0  0  0  0  0  0  0
   19.2579  -21.2735  -12.6617 O   0  0  0  0  0  0  0  0  0  0  0  0
  2  1  1  6
  2  3  1  0
  2 13  1  0
  3  4  1  0
  4  5  2  0
  6  5  1  0
  7  6  1  0
  8  7  2  0
  9  8  1  0
 10  9  2  0
 10 11  1  0
 11 12  2  0
 12  7  1  0
 12  4  1  0
 13 14  2  0
 15 16  1  0
 16 17  2  0
 19 18  1  1
 18 16  1  0
 20 13  1  0
 20 19  1  0
 21 22  2  0
 21 19  1  0
 23 24  1  0
 24 26  1  0
 24 25  2  0
 27 26  1  6
 27 28  1  0
 28 21  1  0
 29 27  1  0
 29 30  1  0
 31 29  2  0
M  END
$$$$
