WNN.pdb
     RDKit          3D

 31 32  0  0  1  0  0  0  0  0999 V2000
   25.2780  -21.8801  -13.8615 N   0  0  0  0  0  0  0  0  0  0  0  0
   24.4648  -20.9070  -13.1184 C   0  0  1  0  0  0  0  0  0  0  0  0
   25.3900  -19.7929  -12.6538 C   0  0  0  0  0  0  0  0  0  0  0  0
   26.4277  -20.4252  -11.7962 C   0  0  0  0  0  0  0  0  0  0  0  0
   27.6441  -20.8986  -12.2375 C   0  0  0  0  0  0  0  0  0  0  0  0
   28.3007  -21.4050  -11.1550 N   0  0  0  0  0  0  0  0  0  0  0  0
   27.5515  -21.2723  -10.0465 C   0  0  0  0  0  0  0  0  0  0  0  0
   27.7791  -21.6269   -8.7184 C   0  0  0  0  0  0  0  0  0  0  0  0
   26.8089  -21.3598   -7.7721 C   0  0  0  0  0  0  0  0  0  0  0  0
   25.6248  -20.7456   -8.1484 C   0  0  0  0  0  0  0  0  0  0  0  0
   25.4271  -20.4031   -9.4863 C   0  0  0  0  0  0  0  0  0  0  0  0
   26.3832  -20.6623  -10.4403 C   0  0  0  0  0  0  0  0  0  0  0  0
   23.3785  -20.4035  -13.9831 C   0  0  0  0  0  0  0  0  0  0  0  0
   23.5722  -19.2906  -14.5812 O   0  0  0  0  0  0  0  0  0  0  0  0
   21.6368  -22.3225  -18.8492 N   0  0  0  0  0  0  0  0  0  0  0  0
   21.7140  -21.2353  -17.9468 C   0  0  0  0  0  0  0  0  0  0  0  0
   21.2471  -20.1286  -18.2915 O   0  0  0  0  0  0  0  0  0  0  0  0
   22.3317  -21.4133  -16.6370 C   0  0  0  0  0  0  0  0  0  0  0  0
   21.4345  -20.9642  -15.4768 C   0  0  2  0  0  0  0  0  0  0  0  0
   22.1384  -21.0369  -14.2145 N   0  0  0  0  0  0  0  0  0  0  0  0
   20.1952  -21.7721  -15.4897 C   0  0  0  0  0  0  0  0  0  0  0  0
   19.3526  -21.6741  -16.4471 O   0  0  0  0  0  0  0  0  0  0  0  0
   19.4302  -25.2340  -13.9206 N   0  0  0  0  0  0  0  0  0  0  0  0
   19.1065  -24.7180  -12.6424 C   0  0  0  0  0  0  0  0  0  0  0  0
   19.2659  -25.4384  -11.6349 O   0  0  0  0  0  0  0  0  0  0  0  0
   18.5885  -23.3543  -12.4861 C   0  0  0  0  0  0  0  0  0  0  0  0
   18.5159  -22.6937  -13.8470 C   0  0  2  0  0  0  0  0  0  0  0  0
   19.8279  -22.7030  -14.4841 N   0  0  0  0  0  0  0  0  0  0  0  0
   17.9544  -21.3540  -13.7487 C   0  0  0  0  0  0  0  0  0  0  0  0
   16.8752  -21.0018  -14.5655 O   0  0  0  0  0  0  0  0  0  0  0  0
   18.3796  -20.4804  -12.9695 O   0  0  0  0  0  0  0  0  0  0  0  0
  2  1  1  6
  2  3  1  0
  2 13  1  0
  3  4  1  0
  4  5  2  0
  6  5  1  0
  7  6  1  0
  8  7  2  0
  9  8  1  0
 10  9  2  0
 10 11  1  0
 11 12  2  0
 12  7  1  0
 12  4  1  0
 13 14  2  0
 15 16  1  0
 16 17  2  0
 19 18  1  6
 18 16  1  0
 20 13  1  0
 20 19  1  0
 21 22  2  0
 21 19  1  0
 23 24  1  0
 24 26  1  0
 24 25  2  0
 27 26  1  1
 27 28  1  0
 28 21  1  0
 29 27  1  0
 29 30  1  0
 31 29  2  0
M  END
$$$$
