NPS.pdb
     RDKit          3D

 22 22  0  0  1  0  0  0  0  0999 V2000
   13.0469  -18.5568    0.8989 N   0  0  0  0  0  0  0  0  0  0  0  0
   13.2436  -19.1295    2.1780 C   0  0  0  0  0  0  0  0  0  0  0  0
   12.3356  -19.9469    2.5660 O   0  0  0  0  0  0  0  0  0  0  0  0
   14.3793  -18.8635    3.0597 C   0  0  0  0  0  0  0  0  0  0  0  0
   15.7003  -18.6720    2.3570 C   0  0  2  0  0  0  0  0  0  0  0  0
   15.8966  -19.8042    1.5195 N   0  0  0  0  0  0  0  0  0  0  0  0
   16.7693  -18.3244    3.2896 C   0  0  0  0  0  0  0  0  0  0  0  0
   17.2207  -19.2884    4.0053 O   0  0  0  0  0  0  0  0  0  0  0  0
   17.3752  -17.0804    3.5139 N   0  0  0  0  0  0  0  0  0  0  0  0
   17.7162  -16.0844    2.4597 C   0  0  0  0  0  0  0  0  0  0  0  0
   17.0022  -14.8508    3.0484 C   0  0  0  0  0  0  0  0  0  0  0  0
   16.8607  -15.1380    4.5483 C   0  0  0  0  0  0  0  0  0  0  0  0
   17.7944  -16.3357    4.6519 C   0  0  1  0  0  0  0  0  0  0  0  0
   17.9040  -16.9262    5.9541 C   0  0  0  0  0  0  0  0  0  0  0  0
   16.9613  -17.4824    6.5424 O   0  0  0  0  0  0  0  0  0  0  0  0
   21.0729  -18.9818    7.3986 O   0  0  0  0  0  0  0  0  0  0  0  0
   20.7148  -17.9228    8.2049 C   0  0  0  0  0  0  0  0  0  0  0  0
   19.2600  -17.5041    8.0117 C   0  0  2  0  0  0  0  0  0  0  0  0
   19.1353  -16.9297    6.7132 N   0  0  0  0  0  0  0  0  0  0  0  0
   18.9850  -16.5017    9.1000 C   0  0  0  0  0  0  0  0  0  0  0  0
   18.8345  -15.3026    8.7345 O   0  0  0  0  0  0  0  0  0  0  0  0
   18.8971  -16.8490   10.4361 O   0  0  0  0  0  0  0  0  0  0  0  0
  1  2  1  0
  2  4  1  0
  3  2  2  0
  4  5  1  0
  5  7  1  0
  5  6  1  1
  7  8  2  0
  9 13  1  0
  9  7  1  0
 10  9  1  0
 11 10  1  0
 11 12  1  0
 12 13  1  0
 13 14  1  1
 14 15  2  0
 14 19  1  0
 17 16  1  0
 18 17  1  1
 19 18  1  0
 20 18  1  0
 20 22  1  0
 21 20  2  0
M  END
$$$$
