NPS.pdb
     RDKit          3D

 22 22  0  0  1  0  0  0  0  0999 V2000
   22.9891  -13.9780  -19.8274 N   0  0  0  0  0  0  0  0  0  0  0  0
   22.9370  -12.5928  -20.1128 C   0  0  0  0  0  0  0  0  0  0  0  0
   22.8917  -12.2834  -21.3559 O   0  0  0  0  0  0  0  0  0  0  0  0
   22.9283  -11.5225  -19.1167 C   0  0  0  0  0  0  0  0  0  0  0  0
   22.9767  -11.9866  -17.6822 C   0  0  2  0  0  0  0  0  0  0  0  0
   21.9544  -12.9619  -17.5234 N   0  0  0  0  0  0  0  0  0  0  0  0
   22.9964  -10.8655  -16.7462 C   0  0  0  0  0  0  0  0  0  0  0  0
   21.8823  -10.2493  -16.5904 O   0  0  0  0  0  0  0  0  0  0  0  0
   24.0655  -10.3657  -15.9898 N   0  0  0  0  0  0  0  0  0  0  0  0
   25.0640  -11.1928  -15.2560 C   0  0  0  0  0  0  0  0  0  0  0  0
   26.3575  -10.5963  -15.8470 C   0  0  0  0  0  0  0  0  0  0  0  0
   25.9686   -9.2038  -16.3585 C   0  0  0  0  0  0  0  0  0  0  0  0
   24.6019   -9.0798  -15.6998 C   0  0  1  0  0  0  0  0  0  0  0  0
   23.8845   -7.8706  -15.9819 C   0  0  0  0  0  0  0  0  0  0  0  0
   23.9497   -7.2651  -17.0651 O   0  0  0  0  0  0  0  0  0  0  0  0
   20.2304   -7.2338  -15.6644 O   0  0  0  0  0  0  0  0  0  0  0  0
   20.8328   -6.2569  -14.9010 C   0  0  0  0  0  0  0  0  0  0  0  0
   22.2929   -6.0308  -15.2833 C   0  0  2  0  0  0  0  0  0  0  0  0
   23.0085   -7.2355  -15.0219 N   0  0  0  0  0  0  0  0  0  0  0  0
   22.7625   -4.8964  -14.4130 C   0  0  0  0  0  0  0  0  0  0  0  0
   22.2857   -3.7561  -14.6705 O   0  0  0  0  0  0  0  0  0  0  0  0
   23.6671   -5.0669  -13.3804 O   0  0  0  0  0  0  0  0  0  0  0  0
  1  2  1  0
  2  4  1  0
  3  2  2  0
  4  5  1  0
  5  7  1  0
  5  6  1  1
  7  8  2  0
  9 13  1  0
  9  7  1  0
 10  9  1  0
 11 10  1  0
 11 12  1  0
 12 13  1  0
 13 14  1  6
 14 15  2  0
 14 19  1  0
 17 16  1  0
 18 17  1  1
 19 18  1  0
 20 18  1  0
 20 22  1  0
 21 20  2  0
M  END
$$$$
