NPS.pdb
     RDKit          3D

 22 22  0  0  1  0  0  0  0  0999 V2000
   29.7109  -21.0964  -18.9870 N   0  0  0  0  0  0  0  0  0  0  0  0
   28.3608  -20.9779  -19.3946 C   0  0  0  0  0  0  0  0  0  0  0  0
   28.1774  -20.5973  -20.6047 O   0  0  0  0  0  0  0  0  0  0  0  0
   27.1955  -21.2547  -18.5559 C   0  0  0  0  0  0  0  0  0  0  0  0
   27.5132  -21.7520  -17.1676 C   0  0  2  0  0  0  0  0  0  0  0  0
   27.7618  -23.1482  -17.2701 N   0  0  0  0  0  0  0  0  0  0  0  0
   26.5233  -21.3090  -16.1893 C   0  0  0  0  0  0  0  0  0  0  0  0
   25.3652  -21.8526  -16.2821 O   0  0  0  0  0  0  0  0  0  0  0  0
   26.6606  -20.3699  -15.1577 N   0  0  0  0  0  0  0  0  0  0  0  0
   27.8013  -20.2988  -14.2020 C   0  0  0  0  0  0  0  0  0  0  0  0
   28.1972  -18.8220  -14.4030 C   0  0  0  0  0  0  0  0  0  0  0  0
   26.9455  -18.1363  -14.9641 C   0  0  0  0  0  0  0  0  0  0  0  0
   25.9295  -19.2384  -14.6989 C   0  0  1  0  0  0  0  0  0  0  0  0
   24.5905  -18.9655  -15.1336 C   0  0  0  0  0  0  0  0  0  0  0  0
   24.3135  -18.2535  -16.1137 O   0  0  0  0  0  0  0  0  0  0  0  0
   21.5893  -19.6085  -17.3745 O   0  0  0  0  0  0  0  0  0  0  0  0
   22.1136  -20.2916  -16.2982 C   0  0  0  0  0  0  0  0  0  0  0  0
   22.1110  -19.4607  -15.0181 C   0  0  2  0  0  0  0  0  0  0  0  0
   23.4240  -19.4992  -14.4650 N   0  0  0  0  0  0  0  0  0  0  0  0
   21.1007  -20.1182  -14.1172 C   0  0  0  0  0  0  0  0  0  0  0  0
   21.5273  -21.0507  -13.3807 O   0  0  0  0  0  0  0  0  0  0  0  0
   19.7704  -19.7406  -14.0790 O   0  0  0  0  0  0  0  0  0  0  0  0
  1  2  1  0
  2  4  1  0
  3  2  2  0
  4  5  1  0
  5  7  1  0
  5  6  1  6
  7  8  2  0
  9 13  1  0
  9  7  1  0
 10  9  1  0
 11 10  1  0
 11 12  1  0
 12 13  1  0
 13 14  1  6
 14 15  2  0
 14 19  1  0
 17 16  1  0
 18 17  1  6
 19 18  1  0
 20 18  1  0
 20 22  1  0
 21 20  2  0
M  END
$$$$
