NPS.pdb
     RDKit          3D

 22 22  0  0  1  0  0  0  0  0999 V2000
   18.3654  -12.3322  -21.2598 N   0  0  0  0  0  0  0  0  0  0  0  0
   19.6635  -11.8538  -20.9613 C   0  0  0  0  0  0  0  0  0  0  0  0
   20.6020  -12.2836  -21.7212 O   0  0  0  0  0  0  0  0  0  0  0  0
   19.9972  -10.9280  -19.8799 C   0  0  0  0  0  0  0  0  0  0  0  0
   21.1026  -11.3904  -18.9635 C   0  0  2  0  0  0  0  0  0  0  0  0
   20.7120  -12.6541  -18.4417 N   0  0  0  0  0  0  0  0  0  0  0  0
   21.4914  -10.3537  -18.0109 C   0  0  0  0  0  0  0  0  0  0  0  0
   20.5274   -9.7598  -17.4084 O   0  0  0  0  0  0  0  0  0  0  0  0
   22.7754   -9.9144  -17.6597 N   0  0  0  0  0  0  0  0  0  0  0  0
   23.9954  -10.7680  -17.6089 C   0  0  0  0  0  0  0  0  0  0  0  0
   24.9182   -9.9303  -18.5171 C   0  0  0  0  0  0  0  0  0  0  0  0
   24.3408   -8.5098  -18.4870 C   0  0  0  0  0  0  0  0  0  0  0  0
   23.3746   -8.6686  -17.3215 C   0  0  1  0  0  0  0  0  0  0  0  0
   22.5963   -7.5084  -16.9982 C   0  0  0  0  0  0  0  0  0  0  0  0
   21.8084   -6.9623  -17.7889 O   0  0  0  0  0  0  0  0  0  0  0  0
   21.7989   -6.4218  -13.1111 O   0  0  0  0  0  0  0  0  0  0  0  0
   21.0841   -5.9157  -14.1754 C   0  0  0  0  0  0  0  0  0  0  0  0
   21.9590   -5.6537  -15.3982 C   0  0  2  0  0  0  0  0  0  0  0  0
   22.6560   -6.8578  -15.7076 N   0  0  0  0  0  0  0  0  0  0  0  0
   22.8961   -4.5494  -14.9894 C   0  0  0  0  0  0  0  0  0  0  0  0
   24.1161   -4.8575  -14.8853 O   0  0  0  0  0  0  0  0  0  0  0  0
   22.4697   -3.2581  -14.7356 O   0  0  0  0  0  0  0  0  0  0  0  0
  1  2  1  0
  2  4  1  0
  3  2  2  0
  4  5  1  0
  5  7  1  0
  5  6  1  1
  7  8  2  0
  9 13  1  0
  9  7  1  0
 10  9  1  0
 11 10  1  0
 11 12  1  0
 12 13  1  0
 13 14  1  6
 14 15  2  0
 14 19  1  0
 17 16  1  0
 18 17  1  1
 19 18  1  0
 20 18  1  0
 20 22  1  0
 21 20  2  0
M  END
$$$$
