NPS.pdb
     RDKit          3D

 22 22  0  0  1  0  0  0  0  0999 V2000
   16.7358  -12.7712  -18.0062 N   0  0  0  0  0  0  0  0  0  0  0  0
   16.4080  -11.4247  -17.7189 C   0  0  0  0  0  0  0  0  0  0  0  0
   15.3221  -10.9930  -18.2456 O   0  0  0  0  0  0  0  0  0  0  0  0
   17.1978  -10.5202  -16.8847 C   0  0  0  0  0  0  0  0  0  0  0  0
   18.4532  -11.1219  -16.3039 C   0  0  2  0  0  0  0  0  0  0  0  0
   18.0485  -12.1393  -15.3967 N   0  0  0  0  0  0  0  0  0  0  0  0
   19.3712  -10.0987  -15.8103 C   0  0  0  0  0  0  0  0  0  0  0  0
   18.8770   -9.2634  -14.9718 O   0  0  0  0  0  0  0  0  0  0  0  0
   20.7228   -9.8998  -16.1244 N   0  0  0  0  0  0  0  0  0  0  0  0
   21.7304  -10.9793  -16.3223 C   0  0  0  0  0  0  0  0  0  0  0  0
   22.2602  -10.5680  -17.7109 C   0  0  0  0  0  0  0  0  0  0  0  0
   21.9297   -9.0767  -17.8488 C   0  0  0  0  0  0  0  0  0  0  0  0
   21.5553   -8.7798  -16.4036 C   0  0  1  0  0  0  0  0  0  0  0  0
   21.1416   -7.4335  -16.1338 C   0  0  0  0  0  0  0  0  0  0  0  0
   20.1228   -6.9130  -16.6192 O   0  0  0  0  0  0  0  0  0  0  0  0
   20.5394   -3.7934  -13.3235 O   0  0  0  0  0  0  0  0  0  0  0  0
   21.0123   -5.0565  -13.6076 C   0  0  0  0  0  0  0  0  0  0  0  0
   21.5235   -5.1831  -15.0400 C   0  0  2  0  0  0  0  0  0  0  0  0
   21.8792   -6.5454  -15.2623 N   0  0  0  0  0  0  0  0  0  0  0  0
   22.7163   -4.2691  -15.1206 C   0  0  0  0  0  0  0  0  0  0  0  0
   23.8392   -4.7868  -14.8655 O   0  0  0  0  0  0  0  0  0  0  0  0
   22.6152   -2.9303  -15.4538 O   0  0  0  0  0  0  0  0  0  0  0  0
  1  2  1  0
  2  4  1  0
  3  2  2  0
  4  5  1  0
  5  7  1  0
  5  6  1  1
  7  8  2  0
  9 13  1  0
  9  7  1  0
 10  9  1  0
 11 10  1  0
 11 12  1  0
 12 13  1  0
 13 14  1  6
 14 15  2  0
 14 19  1  0
 17 16  1  0
 18 17  1  1
 19 18  1  0
 20 18  1  0
 20 22  1  0
 21 20  2  0
M  END
$$$$
