NPS.pdb
     RDKit          3D

 22 22  0  0  1  0  0  0  0  0999 V2000
   20.1445   -9.5787  -18.2448 N   0  0  0  0  0  0  0  0  0  0  0  0
   18.8548   -9.5674  -17.6619 C   0  0  0  0  0  0  0  0  0  0  0  0
   17.9321  -10.1385  -18.3440 O   0  0  0  0  0  0  0  0  0  0  0  0
   18.5137   -8.9697  -16.3718 C   0  0  0  0  0  0  0  0  0  0  0  0
   19.4339   -9.3392  -15.2350 C   0  0  2  0  0  0  0  0  0  0  0  0
   19.4540  -10.7588  -15.1578 N   0  0  0  0  0  0  0  0  0  0  0  0
   19.1208   -8.5976  -14.0163 C   0  0  0  0  0  0  0  0  0  0  0  0
   17.9501   -8.7925  -13.5298 O   0  0  0  0  0  0  0  0  0  0  0  0
   19.9230   -7.6992  -13.2990 N   0  0  0  0  0  0  0  0  0  0  0  0
   21.4018   -7.7959  -13.1459 C   0  0  0  0  0  0  0  0  0  0  0  0
   21.7906   -6.3839  -13.6288 C   0  0  0  0  0  0  0  0  0  0  0  0
   20.5320   -5.5276  -13.4426 C   0  0  0  0  0  0  0  0  0  0  0  0
   19.7154   -6.4851  -12.5862 C   0  0  1  0  0  0  0  0  0  0  0  0
   18.4066   -6.0277  -12.2198 C   0  0  0  0  0  0  0  0  0  0  0  0
   17.5727   -5.5952  -13.0333 O   0  0  0  0  0  0  0  0  0  0  0  0
   17.3522   -6.0728   -8.2149 O   0  0  0  0  0  0  0  0  0  0  0  0
   16.3020   -6.1001   -9.1071 C   0  0  0  0  0  0  0  0  0  0  0  0
   16.6662   -5.4962  -10.4606 C   0  0  2  0  0  0  0  0  0  0  0  0
   17.9292   -6.0265  -10.8543 N   0  0  0  0  0  0  0  0  0  0  0  0
   16.7258   -4.0100  -10.2318 C   0  0  0  0  0  0  0  0  0  0  0  0
   15.6291   -3.4350   -9.9853 O   0  0  0  0  0  0  0  0  0  0  0  0
   17.9052   -3.2890  -10.2832 O   0  0  0  0  0  0  0  0  0  0  0  0
  1  2  1  0
  2  4  1  0
  3  2  2  0
  4  5  1  0
  5  7  1  0
  5  6  1  1
  7  8  2  0
  9 13  1  0
  9  7  1  0
 10  9  1  0
 11 10  1  0
 11 12  1  0
 12 13  1  0
 13 14  1  6
 14 15  2  0
 14 19  1  0
 17 16  1  0
 18 17  1  1
 19 18  1  0
 20 18  1  0
 20 22  1  0
 21 20  2  0
M  END
$$$$
