NPS.pdb
     RDKit          3D

 22 22  0  0  1  0  0  0  0  0999 V2000
   13.3086   -9.9631  -17.6011 N   0  0  0  0  0  0  0  0  0  0  0  0
   14.6879  -10.0645  -17.9016 C   0  0  0  0  0  0  0  0  0  0  0  0
   14.9745  -10.6578  -19.0010 O   0  0  0  0  0  0  0  0  0  0  0  0
   15.7758   -9.5513  -17.0703 C   0  0  0  0  0  0  0  0  0  0  0  0
   16.9945  -10.4374  -16.9974 C   0  0  2  0  0  0  0  0  0  0  0  0
   16.5884  -11.6582  -16.3921 N   0  0  0  0  0  0  0  0  0  0  0  0
   18.1413   -9.7418  -16.4192 C   0  0  0  0  0  0  0  0  0  0  0  0
   17.9414   -9.1881  -15.2796 O   0  0  0  0  0  0  0  0  0  0  0  0
   19.4361   -9.5937  -16.9355 N   0  0  0  0  0  0  0  0  0  0  0  0
   20.1842  -10.6314  -17.6990 C   0  0  0  0  0  0  0  0  0  0  0  0
   20.5440   -9.8034  -18.9493 C   0  0  0  0  0  0  0  0  0  0  0  0
   20.4716   -8.3379  -18.5034 C   0  0  0  0  0  0  0  0  0  0  0  0
   20.4005   -8.5490  -16.9976 C   0  0  1  0  0  0  0  0  0  0  0  0
   20.2883   -7.3568  -16.2085 C   0  0  0  0  0  0  0  0  0  0  0  0
   19.4253   -6.4825  -16.3960 O   0  0  0  0  0  0  0  0  0  0  0  0
   21.5163   -7.1939  -12.3637 O   0  0  0  0  0  0  0  0  0  0  0  0
   20.6927   -6.2376  -12.9180 C   0  0  0  0  0  0  0  0  0  0  0  0
   21.1051   -5.8600  -14.3381 C   0  0  2  0  0  0  0  0  0  0  0  0
   21.1786   -7.0568  -15.1086 N   0  0  0  0  0  0  0  0  0  0  0  0
   22.4482   -5.1952  -14.2004 C   0  0  0  0  0  0  0  0  0  0  0  0
   23.4262   -5.7886  -14.7346 O   0  0  0  0  0  0  0  0  0  0  0  0
   22.6286   -3.9987  -13.5300 O   0  0  0  0  0  0  0  0  0  0  0  0
  1  2  1  0
  2  4  1  0
  3  2  2  0
  4  5  1  0
  5  7  1  0
  5  6  1  1
  7  8  2  0
  9 13  1  0
  9  7  1  0
 10  9  1  0
 11 10  1  0
 11 12  1  0
 12 13  1  0
 13 14  1  1
 14 15  2  0
 14 19  1  0
 17 16  1  0
 18 17  1  1
 19 18  1  0
 20 18  1  0
 20 22  1  0
 21 20  2  0
M  END
$$$$
