NPS.pdb
     RDKit          3D

 22 22  0  0  1  0  0  0  0  0999 V2000
   20.0002  -23.1944  -14.3638 N   0  0  0  0  0  0  0  0  0  0  0  0
   20.4520  -22.1951  -15.2584 C   0  0  0  0  0  0  0  0  0  0  0  0
   19.9908  -22.2688  -16.4521 O   0  0  0  0  0  0  0  0  0  0  0  0
   21.3785  -21.1147  -14.9236 C   0  0  0  0  0  0  0  0  0  0  0  0
   21.8979  -21.1366  -13.5075 C   0  0  2  0  0  0  0  0  0  0  0  0
   20.7859  -20.9110  -12.6507 N   0  0  0  0  0  0  0  0  0  0  0  0
   23.0675  -20.2776  -13.3418 C   0  0  0  0  0  0  0  0  0  0  0  0
   22.8956  -19.0394  -13.6290 O   0  0  0  0  0  0  0  0  0  0  0  0
   24.3576  -20.6164  -12.9105 N   0  0  0  0  0  0  0  0  0  0  0  0
   24.6994  -21.1862  -11.5771 C   0  0  0  0  0  0  0  0  0  0  0  0
   25.4824  -22.4326  -12.0370 C   0  0  0  0  0  0  0  0  0  0  0  0
   25.9590  -22.1136  -13.4594 C   0  0  0  0  0  0  0  0  0  0  0  0
   25.6605  -20.6211  -13.4829 C   0  0  1  0  0  0  0  0  0  0  0  0
   25.9573  -19.9483  -14.7140 C   0  0  0  0  0  0  0  0  0  0  0  0
   25.3529  -20.1579  -15.7794 O   0  0  0  0  0  0  0  0  0  0  0  0
   28.8527  -16.6207  -16.8987 O   0  0  0  0  0  0  0  0  0  0  0  0
   28.4274  -17.2797  -15.7653 C   0  0  0  0  0  0  0  0  0  0  0  0
   27.3486  -18.3181  -16.0605 C   0  0  2  0  0  0  0  0  0  0  0  0
   26.9993  -18.9520  -14.8326 N   0  0  0  0  0  0  0  0  0  0  0  0
   27.9759  -19.2804  -17.0327 C   0  0  0  0  0  0  0  0  0  0  0  0
   28.5773  -20.2718  -16.5332 O   0  0  0  0  0  0  0  0  0  0  0  0
   27.9119  -19.1109  -18.4041 O   0  0  0  0  0  0  0  0  0  0  0  0
  1  2  1  0
  2  4  1  0
  3  2  2  0
  4  5  1  0
  5  7  1  0
  5  6  1  1
  7  8  2  0
  9 13  1  0
  9  7  1  0
 10  9  1  0
 11 10  1  0
 11 12  1  0
 12 13  1  0
 13 14  1  6
 14 15  2  0
 14 19  1  0
 17 16  1  0
 18 17  1  1
 19 18  1  0
 20 18  1  0
 20 22  1  0
 21 20  2  0
M  END
$$$$
