NPS.pdb
     RDKit          3D

 22 22  0  0  1  0  0  0  0  0999 V2000
   20.1057  -10.4557  -18.0728 N   0  0  0  0  0  0  0  0  0  0  0  0
   19.1010   -9.4706  -17.9201 C   0  0  0  0  0  0  0  0  0  0  0  0
   18.5527   -9.0638  -19.0048 O   0  0  0  0  0  0  0  0  0  0  0  0
   18.6565   -8.9045  -16.6474 C   0  0  0  0  0  0  0  0  0  0  0  0
   19.3048   -9.5016  -15.4232 C   0  0  2  0  0  0  0  0  0  0  0  0
   18.9427  -10.8762  -15.3865 N   0  0  0  0  0  0  0  0  0  0  0  0
   19.0537   -8.7016  -14.2273 C   0  0  0  0  0  0  0  0  0  0  0  0
   17.8408   -8.6868  -13.8105 O   0  0  0  0  0  0  0  0  0  0  0  0
   19.9553   -7.9444  -13.4664 N   0  0  0  0  0  0  0  0  0  0  0  0
   21.3987   -8.2593  -13.2742 C   0  0  0  0  0  0  0  0  0  0  0  0
   22.0038   -6.9100  -13.7119 C   0  0  0  0  0  0  0  0  0  0  0  0
   20.8780   -5.8828  -13.5405 C   0  0  0  0  0  0  0  0  0  0  0  0
   19.9044   -6.7273  -12.7307 C   0  0  1  0  0  0  0  0  0  0  0  0
   18.6654   -6.0908  -12.3902 C   0  0  0  0  0  0  0  0  0  0  0  0
   17.8327   -5.7059  -13.2286 O   0  0  0  0  0  0  0  0  0  0  0  0
   17.6943   -5.5181   -8.3641 O   0  0  0  0  0  0  0  0  0  0  0  0
   16.6590   -5.6099   -9.2695 C   0  0  0  0  0  0  0  0  0  0  0  0
   17.0620   -5.1553  -10.6696 C   0  0  2  0  0  0  0  0  0  0  0  0
   18.2641   -5.8340  -11.0244 N   0  0  0  0  0  0  0  0  0  0  0  0
   17.2651   -3.6680  -10.5635 C   0  0  0  0  0  0  0  0  0  0  0  0
   18.4501   -3.2520  -10.6929 O   0  0  0  0  0  0  0  0  0  0  0  0
   16.2267   -2.7826  -10.3367 O   0  0  0  0  0  0  0  0  0  0  0  0
  1  2  1  0
  2  4  1  0
  3  2  2  0
  4  5  1  0
  5  7  1  0
  5  6  1  1
  7  8  2  0
  9 13  1  0
  9  7  1  0
 10  9  1  0
 11 10  1  0
 11 12  1  0
 12 13  1  0
 13 14  1  6
 14 15  2  0
 14 19  1  0
 17 16  1  0
 18 17  1  1
 19 18  1  0
 20 18  1  0
 20 22  1  0
 21 20  2  0
M  END
$$$$
