NPS.pdb
     RDKit          3D

 22 22  0  0  1  0  0  0  0  0999 V2000
   20.9845  -20.9719  -12.6702 N   0  0  0  0  0  0  0  0  0  0  0  0
   21.8507  -21.8559  -13.3567 C   0  0  0  0  0  0  0  0  0  0  0  0
   21.5066  -23.0905  -13.3460 O   0  0  0  0  0  0  0  0  0  0  0  0
   23.0731  -21.4685  -14.0594 C   0  0  0  0  0  0  0  0  0  0  0  0
   23.4905  -20.0317  -13.8670 C   0  0  2  0  0  0  0  0  0  0  0  0
   22.3205  -19.2348  -14.0004 N   0  0  0  0  0  0  0  0  0  0  0  0
   24.6459  -19.6841  -14.6901 C   0  0  0  0  0  0  0  0  0  0  0  0
   24.3823  -19.2705  -15.8753 O   0  0  0  0  0  0  0  0  0  0  0  0
   26.0087  -19.7380  -14.3663 N   0  0  0  0  0  0  0  0  0  0  0  0
   26.5967  -19.3756  -13.0463 C   0  0  0  0  0  0  0  0  0  0  0  0
   27.3841  -20.6714  -12.7651 C   0  0  0  0  0  0  0  0  0  0  0  0
   27.6060  -21.3203  -14.1369 C   0  0  0  0  0  0  0  0  0  0  0  0
   27.2018  -20.1506  -15.0233 C   0  0  1  0  0  0  0  0  0  0  0  0
   27.2516  -20.3959  -16.4353 C   0  0  0  0  0  0  0  0  0  0  0  0
   26.9232  -21.4726  -16.9618 O   0  0  0  0  0  0  0  0  0  0  0  0
   26.0323  -17.8476  -19.0334 O   0  0  0  0  0  0  0  0  0  0  0  0
   26.3143  -19.1650  -19.3251 C   0  0  0  0  0  0  0  0  0  0  0  0
   27.6790  -19.6028  -18.8005 C   0  0  2  0  0  0  0  0  0  0  0  0
   27.6937  -19.4027  -17.3894 N   0  0  0  0  0  0  0  0  0  0  0  0
   28.6779  -18.7246  -19.5045 C   0  0  0  0  0  0  0  0  0  0  0  0
   29.2895  -17.8835  -18.7886 O   0  0  0  0  0  0  0  0  0  0  0  0
   28.9311  -18.8136  -20.8616 O   0  0  0  0  0  0  0  0  0  0  0  0
  1  2  1  0
  2  4  1  0
  3  2  2  0
  4  5  1  0
  5  7  1  0
  5  6  1  6
  7  8  2  0
  9 13  1  0
  9  7  1  0
 10  9  1  0
 11 10  1  0
 11 12  1  0
 12 13  1  0
 13 14  1  6
 14 15  2  0
 14 19  1  0
 17 16  1  0
 18 17  1  6
 19 18  1  0
 20 18  1  0
 20 22  1  0
 21 20  2  0
M  END
$$$$
