NPS.pdb
     RDKit          3D

 22 22  0  0  1  0  0  0  0  0999 V2000
   28.7475  -24.2954  -19.0056 N   0  0  0  0  0  0  0  0  0  0  0  0
   27.4789  -23.6722  -19.0781 C   0  0  0  0  0  0  0  0  0  0  0  0
   26.9793  -23.5650  -20.2536 O   0  0  0  0  0  0  0  0  0  0  0  0
   26.7202  -23.1604  -17.9377 C   0  0  0  0  0  0  0  0  0  0  0  0
   27.4052  -23.3024  -16.6012 C   0  0  2  0  0  0  0  0  0  0  0  0
   27.8068  -24.6609  -16.4792 N   0  0  0  0  0  0  0  0  0  0  0  0
   26.6113  -22.7295  -15.5174 C   0  0  0  0  0  0  0  0  0  0  0  0
   25.7689  -23.5224  -14.9635 O   0  0  0  0  0  0  0  0  0  0  0  0
   26.6402  -21.4295  -14.9938 N   0  0  0  0  0  0  0  0  0  0  0  0
   27.8696  -20.6217  -14.7580 C   0  0  0  0  0  0  0  0  0  0  0  0
   27.4798  -19.3496  -15.5378 C   0  0  0  0  0  0  0  0  0  0  0  0
   25.9480  -19.3684  -15.6104 C   0  0  0  0  0  0  0  0  0  0  0  0
   25.6735  -20.4656  -14.5917 C   0  0  1  0  0  0  0  0  0  0  0  0
   24.2928  -20.8018  -14.3989 C   0  0  0  0  0  0  0  0  0  0  0  0
   23.5839  -21.3372  -15.2679 O   0  0  0  0  0  0  0  0  0  0  0  0
   20.5101  -20.6845  -11.2523 O   0  0  0  0  0  0  0  0  0  0  0  0
   21.8418  -20.4672  -11.5338 C   0  0  0  0  0  0  0  0  0  0  0  0
   22.1930  -20.7794  -12.9858 C   0  0  2  0  0  0  0  0  0  0  0  0
   23.5882  -20.5465  -13.1617 N   0  0  0  0  0  0  0  0  0  0  0  0
   21.3565  -19.8384  -13.8102 C   0  0  0  0  0  0  0  0  0  0  0  0
   21.8793  -18.7253  -14.0958 O   0  0  0  0  0  0  0  0  0  0  0  0
   20.0809  -20.1517  -14.2442 O   0  0  0  0  0  0  0  0  0  0  0  0
  1  2  1  0
  2  4  1  0
  3  2  2  0
  4  5  1  0
  5  7  1  0
  5  6  1  1
  7  8  2  0
  9 13  1  0
  9  7  1  0
 10  9  1  0
 11 10  1  0
 11 12  1  0
 12 13  1  0
 13 14  1  6
 14 15  2  0
 14 19  1  0
 17 16  1  0
 18 17  1  1
 19 18  1  0
 20 18  1  0
 20 22  1  0
 21 20  2  0
M  END
$$$$
