NPS.pdb
     RDKit          3D

 22 22  0  0  1  0  0  0  0  0999 V2000
   14.3203  -20.5205    0.9534 N   0  0  0  0  0  0  0  0  0  0  0  0
   13.8550  -19.8567    2.1135 C   0  0  0  0  0  0  0  0  0  0  0  0
   12.5888  -19.9000    2.3078 O   0  0  0  0  0  0  0  0  0  0  0  0
   14.6948  -19.1489    3.0787 C   0  0  0  0  0  0  0  0  0  0  0  0
   16.1487  -19.0323    2.6935 C   0  0  2  0  0  0  0  0  0  0  0  0
   16.6055  -20.3426    2.3834 N   0  0  0  0  0  0  0  0  0  0  0  0
   16.9122  -18.2611    3.6711 C   0  0  0  0  0  0  0  0  0  0  0  0
   17.0664  -18.8122    4.8189 O   0  0  0  0  0  0  0  0  0  0  0  0
   17.5037  -16.9979    3.5314 N   0  0  0  0  0  0  0  0  0  0  0  0
   18.2468  -16.5214    2.3313 C   0  0  0  0  0  0  0  0  0  0  0  0
   17.4753  -15.2120    2.0697 C   0  0  0  0  0  0  0  0  0  0  0  0
   16.8275  -14.8449    3.4104 C   0  0  0  0  0  0  0  0  0  0  0  0
   17.5813  -15.8113    4.3132 C   0  0  1  0  0  0  0  0  0  0  0  0
   17.2118  -15.7828    5.6985 C   0  0  0  0  0  0  0  0  0  0  0  0
   16.0513  -15.9556    6.1080 O   0  0  0  0  0  0  0  0  0  0  0  0
   18.9095  -17.5424    8.6830 O   0  0  0  0  0  0  0  0  0  0  0  0
   17.7006  -16.8802    8.6878 C   0  0  0  0  0  0  0  0  0  0  0  0
   17.8071  -15.4607    8.1374 C   0  0  2  0  0  0  0  0  0  0  0  0
   18.1653  -15.5476    6.7605 N   0  0  0  0  0  0  0  0  0  0  0  0
   18.8784  -14.7938    8.9572 C   0  0  0  0  0  0  0  0  0  0  0  0
   19.9519  -14.5110    8.3558 O   0  0  0  0  0  0  0  0  0  0  0  0
   18.7210  -14.4958   10.2989 O   0  0  0  0  0  0  0  0  0  0  0  0
  1  2  1  0
  2  4  1  0
  3  2  2  0
  4  5  1  0
  5  7  1  0
  5  6  1  1
  7  8  2  0
  9 13  1  0
  9  7  1  0
 10  9  1  0
 11 10  1  0
 11 12  1  0
 12 13  1  0
 13 14  1  1
 14 15  2  0
 14 19  1  0
 17 16  1  0
 18 17  1  1
 19 18  1  0
 20 18  1  0
 20 22  1  0
 21 20  2  0
M  END
$$$$
