NPS.pdb
     RDKit          3D

 22 22  0  0  1  0  0  0  0  0999 V2000
   11.9644  -10.0894   -9.5578 N   0  0  0  0  0  0  0  0  0  0  0  0
   12.3747   -8.7695   -9.8620 C   0  0  0  0  0  0  0  0  0  0  0  0
   11.4601   -7.8742   -9.7942 O   0  0  0  0  0  0  0  0  0  0  0  0
   13.7308   -8.3686  -10.2340 C   0  0  0  0  0  0  0  0  0  0  0  0
   14.7433   -9.4867  -10.2527 C   0  0  2  0  0  0  0  0  0  0  0  0
   14.7307  -10.0840   -8.9625 N   0  0  0  0  0  0  0  0  0  0  0  0
   16.0308   -9.0482  -10.7850 C   0  0  0  0  0  0  0  0  0  0  0  0
   16.7007   -8.2496  -10.0376 O   0  0  0  0  0  0  0  0  0  0  0  0
   16.6413   -9.3788  -12.0028 N   0  0  0  0  0  0  0  0  0  0  0  0
   16.6019  -10.7193  -12.6516 C   0  0  0  0  0  0  0  0  0  0  0  0
   16.0773  -10.3035  -14.0408 C   0  0  0  0  0  0  0  0  0  0  0  0
   16.4272   -8.8169  -14.1813 C   0  0  0  0  0  0  0  0  0  0  0  0
   17.3788   -8.6823  -13.0009 C   0  0  1  0  0  0  0  0  0  0  0  0
   17.9126   -7.3697  -12.7809 C   0  0  0  0  0  0  0  0  0  0  0  0
   17.2631   -6.3230  -12.9447 O   0  0  0  0  0  0  0  0  0  0  0  0
   20.0637   -4.4815  -10.0079 O   0  0  0  0  0  0  0  0  0  0  0  0
   19.6427   -5.7128  -10.4624 C   0  0  0  0  0  0  0  0  0  0  0  0
   19.7748   -5.8561  -11.9761 C   0  0  2  0  0  0  0  0  0  0  0  0
   19.2717   -7.1382  -12.3430 N   0  0  0  0  0  0  0  0  0  0  0  0
   21.2464   -5.7252  -12.2627 C   0  0  0  0  0  0  0  0  0  0  0  0
   21.8908   -6.8026  -12.3963 O   0  0  0  0  0  0  0  0  0  0  0  0
   21.8831   -4.5025  -12.3782 O   0  0  0  0  0  0  0  0  0  0  0  0
  1  2  1  0
  2  4  1  0
  3  2  2  0
  4  5  1  0
  5  7  1  0
  5  6  1  1
  7  8  2  0
  9 13  1  0
  9  7  1  0
 10  9  1  0
 11 10  1  0
 11 12  1  0
 12 13  1  0
 13 14  1  1
 14 15  2  0
 14 19  1  0
 17 16  1  0
 18 17  1  1
 19 18  1  0
 20 18  1  0
 20 22  1  0
 21 20  2  0
M  END
$$$$
