NPS.pdb
     RDKit          3D

 22 22  0  0  1  0  0  0  0  0999 V2000
   25.0456  -20.5892  -14.4739 N   0  0  0  0  0  0  0  0  0  0  0  0
   24.9193  -19.6885  -13.3896 C   0  0  0  0  0  0  0  0  0  0  0  0
   24.2492  -18.6223  -13.6285 O   0  0  0  0  0  0  0  0  0  0  0  0
   25.4811  -19.8864  -12.0543 C   0  0  0  0  0  0  0  0  0  0  0  0
   26.2568  -21.1674  -11.8727 C   0  0  2  0  0  0  0  0  0  0  0  0
   25.4335  -22.2256  -12.3462 N   0  0  0  0  0  0  0  0  0  0  0  0
   26.8065  -21.2864  -10.5248 C   0  0  0  0  0  0  0  0  0  0  0  0
   25.9667  -21.1462   -9.5655 O   0  0  0  0  0  0  0  0  0  0  0  0
   28.1283  -21.5339  -10.1291 N   0  0  0  0  0  0  0  0  0  0  0  0
   29.0402  -22.5370  -10.7471 C   0  0  0  0  0  0  0  0  0  0  0  0
   30.2391  -21.6185  -11.0587 C   0  0  0  0  0  0  0  0  0  0  0  0
   30.0971  -20.4245  -10.1068 C   0  0  0  0  0  0  0  0  0  0  0  0
   29.0316  -20.9858   -9.1758 C   0  0  1  0  0  0  0  0  0  0  0  0
   28.5980  -20.1079   -8.1282 C   0  0  0  0  0  0  0  0  0  0  0  0
   28.1385  -18.9702   -8.3256 O   0  0  0  0  0  0  0  0  0  0  0  0
   26.9377  -21.2215   -4.7591 O   0  0  0  0  0  0  0  0  0  0  0  0
   27.0760  -19.8783   -5.0359 C   0  0  0  0  0  0  0  0  0  0  0  0
   28.4254  -19.5452   -5.6665 C   0  0  2  0  0  0  0  0  0  0  0  0
   28.6554  -20.4678   -6.7283 N   0  0  0  0  0  0  0  0  0  0  0  0
   29.4325  -19.6985   -4.5588 C   0  0  0  0  0  0  0  0  0  0  0  0
   30.2526  -20.6516   -4.6730 O   0  0  0  0  0  0  0  0  0  0  0  0
   29.4787  -18.8545   -3.4638 O   0  0  0  0  0  0  0  0  0  0  0  0
  1  2  1  0
  2  4  1  0
  3  2  2  0
  4  5  1  0
  5  7  1  0
  5  6  1  1
  7  8  2  0
  9 13  1  0
  9  7  1  0
 10  9  1  0
 11 10  1  0
 11 12  1  0
 12 13  1  0
 13 14  1  6
 14 15  2  0
 14 19  1  0
 17 16  1  0
 18 17  1  1
 19 18  1  0
 20 18  1  0
 20 22  1  0
 21 20  2  0
M  END
$$$$
