FCY.pdb
     RDKit          3D

 30 31  0  0  1  0  0  0  0  0999 V2000
    7.4095  -17.2360   20.5180 N   0  0  0  0  0  0  0  0  0  0  0  0
    7.8075  -16.3584   21.5992 C   0  0  1  0  0  0  0  0  0  0  0  0
    6.7766  -15.2739   21.8263 C   0  0  0  0  0  0  0  0  0  0  0  0
    7.0832  -14.1589   20.9008 C   0  0  0  0  0  0  0  0  0  0  0  0
    7.8317  -13.1014   21.3527 C   0  0  0  0  0  0  0  0  0  0  0  0
    8.1400  -12.0351   20.5116 C   0  0  0  0  0  0  0  0  0  0  0  0
    7.6841  -12.0465   19.2060 C   0  0  0  0  0  0  0  0  0  0  0  0
    6.9386  -13.0900   18.7399 C   0  0  0  0  0  0  0  0  0  0  0  0
    6.6509  -14.1285   19.5957 C   0  0  0  0  0  0  0  0  0  0  0  0
    8.0903  -17.1399   22.8032 C   0  0  0  0  0  0  0  0  0  0  0  0
    7.4533  -18.1985   23.0221 O   0  0  0  0  0  0  0  0  0  0  0  0
    9.0681  -16.7750   23.7775 N   0  0  0  0  0  0  0  0  0  0  0  0
    9.2803  -17.5266   24.9994 C   0  0  1  0  0  0  0  0  0  0  0  0
    9.7716  -18.9028   24.6056 C   0  0  0  0  0  0  0  0  0  0  0  0
   11.1026  -18.6391   23.3753 S   0  0  0  0  0  0  0  0  0  0  0  0
   10.2126  -16.8327   25.9037 C   0  0  0  0  0  0  0  0  0  0  0  0
   11.3411  -16.5067   25.4518 O   0  0  0  0  0  0  0  0  0  0  0  0
    6.2012  -12.5833   24.8410 O   0  0  0  0  0  0  0  0  0  0  0  0
    7.2021  -13.0267   25.6937 C   0  0  0  0  0  0  0  0  0  0  0  0
    8.5042  -13.2398   25.2912 C   0  0  0  0  0  0  0  0  0  0  0  0
    9.4486  -13.6806   26.1895 C   0  0  0  0  0  0  0  0  0  0  0  0
    9.1639  -13.9350   27.5290 C   0  0  0  0  0  0  0  0  0  0  0  0
   10.2053  -14.4114   28.4398 C   0  0  0  0  0  0  0  0  0  0  0  0
   10.8297  -15.7185   28.0854 C   0  0  2  0  0  0  0  0  0  0  0  0
    9.9243  -16.5115   27.2360 N   0  0  0  0  0  0  0  0  0  0  0  0
   11.2077  -16.4957   29.2908 C   0  0  0  0  0  0  0  0  0  0  0  0
   10.7290  -17.6193   29.5727 O   0  0  0  0  0  0  0  0  0  0  0  0
    7.8501  -13.7164   27.9190 C   0  0  0  0  0  0  0  0  0  0  0  0
    6.9095  -13.2752   27.0161 C   0  0  0  0  0  0  0  0  0  0  0  0
   12.1487  -15.9849   30.1937 O   0  0  0  0  0  0  0  0  0  0  0  0
  2  3  1  0
  2  1  1  6
  3  4  1  0
  4  9  2  0
  5  6  2  0
  5  4  1  0
  6  7  1  0
  7  8  2  0
  9  8  1  0
 10 12  1  0
 10  2  1  0
 11 10  2  0
 13 14  1  6
 13 12  1  0
 14 15  1  0
 16 13  1  0
 16 17  2  0
 18 19  1  0
 19 29  2  0
 20 19  1  0
 20 21  2  0
 21 22  1  0
 22 28  2  0
 22 23  1  0
 24 23  1  1
 24 26  1  0
 24 25  1  0
 25 16  1  0
 26 30  1  0
 27 26  2  0
 29 28  1  0
M  END
$$$$
