FCY.pdb
     RDKit          3D

 30 31  0  0  1  0  0  0  0  0999 V2000
    5.9315  -17.6496   24.8829 N   0  0  0  0  0  0  0  0  0  0  0  0
    6.5285  -16.3368   24.7491 C   0  0  1  0  0  0  0  0  0  0  0  0
    6.9405  -15.7872   26.0976 C   0  0  0  0  0  0  0  0  0  0  0  0
    6.5739  -14.3526   26.1314 C   0  0  0  0  0  0  0  0  0  0  0  0
    5.2495  -14.0026   26.2112 C   0  0  0  0  0  0  0  0  0  0  0  0
    4.8666  -12.6641   26.2450 C   0  0  0  0  0  0  0  0  0  0  0  0
    5.8362  -11.6792   26.1974 C   0  0  0  0  0  0  0  0  0  0  0  0
    7.1579  -12.0091   26.1180 C   0  0  0  0  0  0  0  0  0  0  0  0
    7.5040  -13.3407   26.0863 C   0  0  0  0  0  0  0  0  0  0  0  0
    7.6311  -16.3813   23.7885 C   0  0  0  0  0  0  0  0  0  0  0  0
    8.3528  -17.4051   23.7162 O   0  0  0  0  0  0  0  0  0  0  0  0
    7.9560  -15.3121   22.8998 N   0  0  0  0  0  0  0  0  0  0  0  0
    8.9440  -15.4375   21.8458 C   0  0  1  0  0  0  0  0  0  0  0  0
    8.4986  -14.5554   20.6996 C   0  0  0  0  0  0  0  0  0  0  0  0
    6.8180  -15.1210   20.2407 S   0  0  0  0  0  0  0  0  0  0  0  0
   10.2928  -15.0963   22.3283 C   0  0  0  0  0  0  0  0  0  0  0  0
   10.5748  -13.8794   22.4821 O   0  0  0  0  0  0  0  0  0  0  0  0
   11.5123  -14.5096   30.2141 O   0  0  0  0  0  0  0  0  0  0  0  0
   11.3027  -14.9475   28.9142 C   0  0  0  0  0  0  0  0  0  0  0  0
   11.4076  -14.1276   27.8099 C   0  0  0  0  0  0  0  0  0  0  0  0
   11.1866  -14.6269   26.5469 C   0  0  0  0  0  0  0  0  0  0  0  0
   10.8512  -15.9565   26.3026 C   0  0  0  0  0  0  0  0  0  0  0  0
   10.6181  -16.4329   24.9389 C   0  0  0  0  0  0  0  0  0  0  0  0
   11.7655  -16.2920   23.9968 C   0  0  2  0  0  0  0  0  0  0  0  0
   11.2835  -16.0397   22.6278 N   0  0  0  0  0  0  0  0  0  0  0  0
   12.6455  -17.4859   24.0147 C   0  0  0  0  0  0  0  0  0  0  0  0
   13.8216  -17.4770   24.4483 O   0  0  0  0  0  0  0  0  0  0  0  0
   10.7491  -16.7690   27.4231 C   0  0  0  0  0  0  0  0  0  0  0  0
   10.9714  -16.2642   28.6842 C   0  0  0  0  0  0  0  0  0  0  0  0
   12.1788  -18.7142   23.5300 O   0  0  0  0  0  0  0  0  0  0  0  0
  2  3  1  0
  2  1  1  1
  3  4  1  0
  4  9  2  0
  5  6  2  0
  5  4  1  0
  6  7  1  0
  7  8  2  0
  9  8  1  0
 10 12  1  0
 10  2  1  0
 11 10  2  0
 13 14  1  6
 13 12  1  0
 14 15  1  0
 16 13  1  0
 16 17  2  0
 18 19  1  0
 19 29  2  0
 20 19  1  0
 20 21  2  0
 21 22  1  0
 22 28  2  0
 22 23  1  0
 24 23  1  1
 24 26  1  0
 24 25  1  0
 25 16  1  0
 26 30  1  0
 27 26  2  0
 29 28  1  0
M  END
$$$$
