FCY.pdb
     RDKit          3D

 30 31  0  0  1  0  0  0  0  0999 V2000
    6.0017  -18.3409   20.2913 N   0  0  0  0  0  0  0  0  0  0  0  0
    6.5541  -17.1461   20.8953 C   0  0  1  0  0  0  0  0  0  0  0  0
    5.7857  -15.9150   20.4658 C   0  0  0  0  0  0  0  0  0  0  0  0
    6.6067  -14.7296   20.8041 C   0  0  0  0  0  0  0  0  0  0  0  0
    7.4312  -14.1923   19.8478 C   0  0  0  0  0  0  0  0  0  0  0  0
    8.2179  -13.0781   20.1291 C   0  0  0  0  0  0  0  0  0  0  0  0
    8.1644  -12.5098   21.3888 C   0  0  0  0  0  0  0  0  0  0  0  0
    7.3502  -13.0311   22.3517 C   0  0  0  0  0  0  0  0  0  0  0  0
    6.5852  -14.1324   22.0426 C   0  0  0  0  0  0  0  0  0  0  0  0
    6.6194  -17.3014   22.3486 C   0  0  0  0  0  0  0  0  0  0  0  0
    5.6173  -17.7223   22.9753 O   0  0  0  0  0  0  0  0  0  0  0  0
    7.7756  -16.9997   23.1300 N   0  0  0  0  0  0  0  0  0  0  0  0
    7.8856  -17.3379   24.5358 C   0  0  1  0  0  0  0  0  0  0  0  0
    7.6261  -18.8231   24.6665 C   0  0  0  0  0  0  0  0  0  0  0  0
    7.8008  -19.2191   26.4463 S   0  0  0  0  0  0  0  0  0  0  0  0
    9.1945  -16.9441   25.0839 C   0  0  0  0  0  0  0  0  0  0  0  0
   10.0794  -17.8320   25.1954 O   0  0  0  0  0  0  0  0  0  0  0  0
    5.5859  -11.1367   25.6971 O   0  0  0  0  0  0  0  0  0  0  0  0
    6.5872  -11.9603   26.1915 C   0  0  0  0  0  0  0  0  0  0  0  0
    6.4835  -12.6534   27.3797 C   0  0  0  0  0  0  0  0  0  0  0  0
    7.5154  -13.4541   27.8123 C   0  0  0  0  0  0  0  0  0  0  0  0
    8.7021  -13.6160   27.1013 C   0  0  0  0  0  0  0  0  0  0  0  0
    9.7717  -14.4738   27.6125 C   0  0  0  0  0  0  0  0  0  0  0  0
   10.4334  -15.3550   26.6078 C   0  0  2  0  0  0  0  0  0  0  0  0
    9.5187  -15.6435   25.4897 N   0  0  0  0  0  0  0  0  0  0  0  0
   10.9124  -16.6215   27.2133 C   0  0  0  0  0  0  0  0  0  0  0  0
   11.6694  -16.6732   28.2110 O   0  0  0  0  0  0  0  0  0  0  0  0
    8.7919  -12.9125   25.9084 C   0  0  0  0  0  0  0  0  0  0  0  0
    7.7564  -12.1130   25.4803 C   0  0  0  0  0  0  0  0  0  0  0  0
   10.5226  -17.8537   26.6735 O   0  0  0  0  0  0  0  0  0  0  0  0
  2  3  1  0
  2  1  1  6
  3  4  1  0
  4  9  2  0
  5  6  2  0
  5  4  1  0
  6  7  1  0
  7  8  2  0
  9  8  1  0
 10 12  1  0
 10  2  1  0
 11 10  2  0
 13 14  1  6
 13 12  1  0
 14 15  1  0
 16 13  1  0
 16 17  2  0
 18 19  1  0
 19 29  2  0
 20 19  1  0
 20 21  2  0
 21 22  1  0
 22 28  2  0
 22 23  1  0
 24 23  1  1
 24 26  1  0
 24 25  1  0
 25 16  1  0
 26 30  1  0
 27 26  2  0
 29 28  1  0
M  END
$$$$
