FCY.pdb
     RDKit          3D

 30 31  0  0  1  0  0  0  0  0999 V2000
    6.0277  -17.0171   25.0600 N   0  0  0  0  0  0  0  0  0  0  0  0
    6.8482  -15.8928   24.6595 C   0  0  1  0  0  0  0  0  0  0  0  0
    7.5130  -15.2510   25.8581 C   0  0  0  0  0  0  0  0  0  0  0  0
    6.9250  -13.9029   26.0323 C   0  0  0  0  0  0  0  0  0  0  0  0
    7.6307  -12.8055   25.6073 C   0  0  0  0  0  0  0  0  0  0  0  0
    7.1102  -11.5222   25.7544 C   0  0  0  0  0  0  0  0  0  0  0  0
    5.8666  -11.3567   26.3363 C   0  0  0  0  0  0  0  0  0  0  0  0
    5.1510  -12.4367   26.7646 C   0  0  0  0  0  0  0  0  0  0  0  0
    5.6928  -13.6916   26.6051 C   0  0  0  0  0  0  0  0  0  0  0  0
    7.8017  -16.3074   23.6303 C   0  0  0  0  0  0  0  0  0  0  0  0
    8.3448  -17.4361   23.7033 O   0  0  0  0  0  0  0  0  0  0  0  0
    8.1711  -15.4967   22.5146 N   0  0  0  0  0  0  0  0  0  0  0  0
    9.1921  -15.8871   21.5618 C   0  0  1  0  0  0  0  0  0  0  0  0
    8.9638  -15.0856   20.2986 C   0  0  0  0  0  0  0  0  0  0  0  0
    7.1579  -15.1127   19.9939 S   0  0  0  0  0  0  0  0  0  0  0  0
   10.5443  -15.6972   22.1131 C   0  0  0  0  0  0  0  0  0  0  0  0
   11.1022  -14.5827   21.9384 O   0  0  0  0  0  0  0  0  0  0  0  0
   11.2153  -15.5009   30.6360 O   0  0  0  0  0  0  0  0  0  0  0  0
   11.0188  -15.6004   29.2659 C   0  0  0  0  0  0  0  0  0  0  0  0
   10.6128  -14.5436   28.4778 C   0  0  0  0  0  0  0  0  0  0  0  0
   10.4369  -14.7108   27.1234 C   0  0  0  0  0  0  0  0  0  0  0  0
   10.6503  -15.9237   26.4728 C   0  0  0  0  0  0  0  0  0  0  0  0
   10.4393  -16.0484   25.0302 C   0  0  0  0  0  0  0  0  0  0  0  0
   11.6055  -16.5436   24.2438 C   0  0  2  0  0  0  0  0  0  0  0  0
   11.2508  -16.6781   22.8204 N   0  0  0  0  0  0  0  0  0  0  0  0
   12.1160  -17.8349   24.7653 C   0  0  0  0  0  0  0  0  0  0  0  0
   11.5745  -18.9415   24.5345 O   0  0  0  0  0  0  0  0  0  0  0  0
   11.0580  -16.9775   27.2786 C   0  0  0  0  0  0  0  0  0  0  0  0
   11.2326  -16.8044   28.6329 C   0  0  0  0  0  0  0  0  0  0  0  0
   13.2651  -17.8684   25.5653 O   0  0  0  0  0  0  0  0  0  0  0  0
  2  3  1  0
  2  1  1  1
  3  4  1  0
  4  9  2  0
  5  6  2  0
  5  4  1  0
  6  7  1  0
  7  8  2  0
  9  8  1  0
 10 12  1  0
 10  2  1  0
 11 10  2  0
 13 14  1  6
 13 12  1  0
 14 15  1  0
 16 13  1  0
 16 17  2  0
 18 19  1  0
 19 29  2  0
 20 19  1  0
 20 21  2  0
 21 22  1  0
 22 28  2  0
 22 23  1  0
 24 23  1  1
 24 26  1  0
 24 25  1  0
 25 16  1  0
 26 30  1  0
 27 26  2  0
 29 28  1  0
M  END
$$$$
