FCY.pdb
     RDKit          3D

 30 31  0  0  1  0  0  0  0  0999 V2000
    7.1460  -17.4723   20.4804 N   0  0  0  0  0  0  0  0  0  0  0  0
    7.5515  -16.5249   21.4982 C   0  0  1  0  0  0  0  0  0  0  0  0
    6.5211  -15.4285   21.6614 C   0  0  0  0  0  0  0  0  0  0  0  0
    7.0522  -14.2094   21.0093 C   0  0  0  0  0  0  0  0  0  0  0  0
    7.8169  -13.3377   21.7430 C   0  0  0  0  0  0  0  0  0  0  0  0
    8.3335  -12.1812   21.1642 C   0  0  0  0  0  0  0  0  0  0  0  0
    8.0700  -11.9122   19.8335 C   0  0  0  0  0  0  0  0  0  0  0  0
    7.3115  -12.7679   19.0889 C   0  0  0  0  0  0  0  0  0  0  0  0
    6.8156  -13.9021   19.6900 C   0  0  0  0  0  0  0  0  0  0  0  0
    7.8447  -17.2251   22.7488 C   0  0  0  0  0  0  0  0  0  0  0  0
    6.9489  -17.9032   23.3074 O   0  0  0  0  0  0  0  0  0  0  0  0
    9.1147  -17.1923   23.4004 N   0  0  0  0  0  0  0  0  0  0  0  0
    9.3586  -17.8267   24.6814 C   0  0  1  0  0  0  0  0  0  0  0  0
   10.2085  -19.0525   24.4258 C   0  0  0  0  0  0  0  0  0  0  0  0
   11.6282  -18.4898   23.4144 S   0  0  0  0  0  0  0  0  0  0  0  0
    9.9857  -16.8946   25.6335 C   0  0  0  0  0  0  0  0  0  0  0  0
   10.8259  -16.0707   25.1870 O   0  0  0  0  0  0  0  0  0  0  0  0
    6.3736  -12.1135   24.7778 O   0  0  0  0  0  0  0  0  0  0  0  0
    7.1679  -12.7821   25.6984 C   0  0  0  0  0  0  0  0  0  0  0  0
    8.2730  -12.2173   26.3005 C   0  0  0  0  0  0  0  0  0  0  0  0
    9.0180  -12.9371   27.2061 C   0  0  0  0  0  0  0  0  0  0  0  0
    8.7169  -14.2480   27.5675 C   0  0  0  0  0  0  0  0  0  0  0  0
    9.5490  -14.9708   28.5300 C   0  0  0  0  0  0  0  0  0  0  0  0
   10.4446  -16.0167   27.9575 C   0  0  2  0  0  0  0  0  0  0  0  0
    9.7073  -16.8655   27.0057 N   0  0  0  0  0  0  0  0  0  0  0  0
   11.0622  -16.8546   29.0141 C   0  0  0  0  0  0  0  0  0  0  0  0
   10.8365  -18.0799   29.1512 O   0  0  0  0  0  0  0  0  0  0  0  0
    7.6027  -14.8027   26.9535 C   0  0  0  0  0  0  0  0  0  0  0  0
    6.8610  -14.0781   26.0484 C   0  0  0  0  0  0  0  0  0  0  0  0
   11.9543  -16.2879   29.9330 O   0  0  0  0  0  0  0  0  0  0  0  0
  2  3  1  0
  2  1  1  6
  3  4  1  0
  4  9  2  0
  5  6  2  0
  5  4  1  0
  6  7  1  0
  7  8  2  0
  9  8  1  0
 10 12  1  0
 10  2  1  0
 11 10  2  0
 13 14  1  6
 13 12  1  0
 14 15  1  0
 16 13  1  0
 16 17  2  0
 18 19  1  0
 19 29  2  0
 20 19  1  0
 20 21  2  0
 21 22  1  0
 22 28  2  0
 22 23  1  0
 24 23  1  1
 24 26  1  0
 24 25  1  0
 25 16  1  0
 26 30  1  0
 27 26  2  0
 29 28  1  0
M  END
$$$$
