FCY.pdb
     RDKit          3D

 30 31  0  0  1  0  0  0  0  0999 V2000
    7.4081  -17.1759   19.6805 N   0  0  0  0  0  0  0  0  0  0  0  0
    8.5909  -17.0980   20.5128 C   0  0  1  0  0  0  0  0  0  0  0  0
    9.2801  -15.7600   20.3537 C   0  0  0  0  0  0  0  0  0  0  0  0
    8.3451  -14.7120   20.8240 C   0  0  0  0  0  0  0  0  0  0  0  0
    7.5635  -14.0534   19.9083 C   0  0  0  0  0  0  0  0  0  0  0  0
    6.6728  -13.0623   20.3129 C   0  0  0  0  0  0  0  0  0  0  0  0
    6.5782  -12.7413   21.6547 C   0  0  0  0  0  0  0  0  0  0  0  0
    7.3477  -13.3860   22.5789 C   0  0  0  0  0  0  0  0  0  0  0  0
    8.2182  -14.3606   22.1473 C   0  0  0  0  0  0  0  0  0  0  0  0
    8.2493  -17.4039   21.9021 C   0  0  0  0  0  0  0  0  0  0  0  0
    7.2481  -18.1166   22.1545 O   0  0  0  0  0  0  0  0  0  0  0  0
    8.9949  -16.9364   23.0263 N   0  0  0  0  0  0  0  0  0  0  0  0
    9.0203  -17.6323   24.2983 C   0  0  1  0  0  0  0  0  0  0  0  0
    9.3215  -19.0877   24.0129 C   0  0  0  0  0  0  0  0  0  0  0  0
    9.3580  -19.9316   25.6381 S   0  0  0  0  0  0  0  0  0  0  0  0
    9.9920  -17.0267   25.2244 C   0  0  0  0  0  0  0  0  0  0  0  0
   11.2100  -17.0636   24.9097 O   0  0  0  0  0  0  0  0  0  0  0  0
    6.0248  -12.1888   24.6617 O   0  0  0  0  0  0  0  0  0  0  0  0
    7.0570  -12.7632   25.3898 C   0  0  0  0  0  0  0  0  0  0  0  0
    7.7252  -13.9025   24.9920 C   0  0  0  0  0  0  0  0  0  0  0  0
    8.7410  -14.4201   25.7624 C   0  0  0  0  0  0  0  0  0  0  0  0
    9.1533  -13.8464   26.9627 C   0  0  0  0  0  0  0  0  0  0  0  0
   10.2341  -14.4440   27.7475 C   0  0  0  0  0  0  0  0  0  0  0  0
   10.6423  -15.8213   27.3472 C   0  0  2  0  0  0  0  0  0  0  0  0
    9.6479  -16.4115   26.4346 N   0  0  0  0  0  0  0  0  0  0  0  0
   10.8404  -16.7032   28.5233 C   0  0  0  0  0  0  0  0  0  0  0  0
   11.7051  -16.5000   29.4076 O   0  0  0  0  0  0  0  0  0  0  0  0
    8.4718  -12.7012   27.3500 C   0  0  0  0  0  0  0  0  0  0  0  0
    7.4564  -12.1876   26.5753 C   0  0  0  0  0  0  0  0  0  0  0  0
   10.0391  -17.8386   28.6971 O   0  0  0  0  0  0  0  0  0  0  0  0
  2  3  1  0
  2  1  1  6
  3  4  1  0
  4  9  2  0
  5  6  2  0
  5  4  1  0
  6  7  1  0
  7  8  2  0
  9  8  1  0
 10 12  1  0
 10  2  1  0
 11 10  2  0
 13 14  1  6
 13 12  1  0
 14 15  1  0
 16 13  1  0
 16 17  2  0
 18 19  1  0
 19 29  2  0
 20 19  1  0
 20 21  2  0
 21 22  1  0
 22 28  2  0
 22 23  1  0
 24 23  1  1
 24 26  1  0
 24 25  1  0
 25 16  1  0
 26 30  1  0
 27 26  2  0
 29 28  1  0
M  END
$$$$
