FCY.pdb
     RDKit          3D

 30 31  0  0  1  0  0  0  0  0999 V2000
    7.4897  -17.2097   20.6861 N   0  0  0  0  0  0  0  0  0  0  0  0
    7.4807  -16.1635   21.6875 C   0  0  1  0  0  0  0  0  0  0  0  0
    6.4154  -15.1316   21.3859 C   0  0  0  0  0  0  0  0  0  0  0  0
    6.9528  -14.2171   20.3522 C   0  0  0  0  0  0  0  0  0  0  0  0
    6.4367  -14.2669   19.0817 C   0  0  0  0  0  0  0  0  0  0  0  0
    6.9166  -13.4227   18.0836 C   0  0  0  0  0  0  0  0  0  0  0  0
    7.9256  -12.5250   18.3810 C   0  0  0  0  0  0  0  0  0  0  0  0
    8.4505  -12.4618   19.6389 C   0  0  0  0  0  0  0  0  0  0  0  0
    7.9548  -13.3094   20.6031 C   0  0  0  0  0  0  0  0  0  0  0  0
    7.3503  -16.7466   23.0229 C   0  0  0  0  0  0  0  0  0  0  0  0
    6.2664  -17.2762   23.3678 O   0  0  0  0  0  0  0  0  0  0  0  0
    8.3985  -16.7577   23.9923 N   0  0  0  0  0  0  0  0  0  0  0  0
    8.2409  -17.3299   25.3154 C   0  0  1  0  0  0  0  0  0  0  0  0
    8.0249  -18.8178   25.1431 C   0  0  0  0  0  0  0  0  0  0  0  0
    9.5852  -19.4857   24.4545 S   0  0  0  0  0  0  0  0  0  0  0  0
    9.3961  -17.0239   26.1758 C   0  0  0  0  0  0  0  0  0  0  0  0
   10.5435  -17.3186   25.7509 O   0  0  0  0  0  0  0  0  0  0  0  0
    5.9026  -11.9707   25.5680 O   0  0  0  0  0  0  0  0  0  0  0  0
    6.9399  -12.5453   26.2887 C   0  0  0  0  0  0  0  0  0  0  0  0
    7.1050  -12.3775   27.6479 C   0  0  0  0  0  0  0  0  0  0  0  0
    8.1571  -12.9764   28.3019 C   0  0  0  0  0  0  0  0  0  0  0  0
    9.1012  -13.7708   27.6558 C   0  0  0  0  0  0  0  0  0  0  0  0
   10.2063  -14.3770   28.3989 C   0  0  0  0  0  0  0  0  0  0  0  0
   10.4525  -15.8233   28.1316 C   0  0  2  0  0  0  0  0  0  0  0  0
    9.3005  -16.4252   27.4383 N   0  0  0  0  0  0  0  0  0  0  0  0
   10.7460  -16.5737   29.3768 C   0  0  0  0  0  0  0  0  0  0  0  0
   11.7244  -16.3304   30.1217 O   0  0  0  0  0  0  0  0  0  0  0  0
    8.9221  -13.9302   26.2888 C   0  0  0  0  0  0  0  0  0  0  0  0
    7.8678  -13.3288   25.6397 C   0  0  0  0  0  0  0  0  0  0  0  0
    9.9105  -17.6216   29.7832 O   0  0  0  0  0  0  0  0  0  0  0  0
  2  3  1  0
  2  1  1  6
  3  4  1  0
  4  9  2  0
  5  6  2  0
  5  4  1  0
  6  7  1  0
  7  8  2  0
  9  8  1  0
 10 12  1  0
 10  2  1  0
 11 10  2  0
 13 14  1  6
 13 12  1  0
 14 15  1  0
 16 13  1  0
 16 17  2  0
 18 19  1  0
 19 29  2  0
 20 19  1  0
 20 21  2  0
 21 22  1  0
 22 28  2  0
 22 23  1  0
 24 23  1  1
 24 26  1  0
 24 25  1  0
 25 16  1  0
 26 30  1  0
 27 26  2  0
 29 28  1  0
M  END
$$$$
