FCY.pdb
     RDKit          3D

 30 31  0  0  1  0  0  0  0  0999 V2000
   10.1623  -15.7351   20.7400 N   0  0  0  0  0  0  0  0  0  0  0  0
    9.4269  -15.6915   21.9870 C   0  0  1  0  0  0  0  0  0  0  0  0
    7.9418  -15.8584   21.7482 C   0  0  0  0  0  0  0  0  0  0  0  0
    7.5117  -14.7906   20.8163 C   0  0  0  0  0  0  0  0  0  0  0  0
    7.5673  -13.4824   21.2269 C   0  0  0  0  0  0  0  0  0  0  0  0
    7.1714  -12.4514   20.3786 C   0  0  0  0  0  0  0  0  0  0  0  0
    6.7174  -12.7544   19.1079 C   0  0  0  0  0  0  0  0  0  0  0  0
    6.6555  -14.0496   18.6831 C   0  0  0  0  0  0  0  0  0  0  0  0
    7.0539  -15.0457   19.5450 C   0  0  0  0  0  0  0  0  0  0  0  0
    9.9694  -16.6742   22.9253 C   0  0  0  0  0  0  0  0  0  0  0  0
   11.0849  -17.2019   22.6984 O   0  0  0  0  0  0  0  0  0  0  0  0
    9.3018  -17.0896   24.1171 N   0  0  0  0  0  0  0  0  0  0  0  0
    9.8855  -16.9463   25.4368 C   0  0  1  0  0  0  0  0  0  0  0  0
   10.1315  -15.4708   25.6660 C   0  0  0  0  0  0  0  0  0  0  0  0
    8.4797  -14.6880   25.7831 S   0  0  0  0  0  0  0  0  0  0  0  0
    9.0260  -17.5422   26.4735 C   0  0  0  0  0  0  0  0  0  0  0  0
    7.7789  -17.4497   26.3318 O   0  0  0  0  0  0  0  0  0  0  0  0
    5.8791  -20.4420   22.4225 O   0  0  0  0  0  0  0  0  0  0  0  0
    6.7604  -20.4611   23.4941 C   0  0  0  0  0  0  0  0  0  0  0  0
    6.3802  -20.7620   24.7855 C   0  0  0  0  0  0  0  0  0  0  0  0
    7.3064  -20.7631   25.8030 C   0  0  0  0  0  0  0  0  0  0  0  0
    8.6534  -20.4689   25.6056 C   0  0  0  0  0  0  0  0  0  0  0  0
    9.5947  -20.4758   26.7260 C   0  0  0  0  0  0  0  0  0  0  0  0
    9.2228  -19.6235   27.8918 C   0  0  2  0  0  0  0  0  0  0  0  0
    9.5073  -18.2062   27.6088 N   0  0  0  0  0  0  0  0  0  0  0  0
    9.9212  -20.0455   29.1304 C   0  0  0  0  0  0  0  0  0  0  0  0
    9.5415  -20.9959   29.8541 O   0  0  0  0  0  0  0  0  0  0  0  0
    9.0209  -20.1680   24.3016 C   0  0  0  0  0  0  0  0  0  0  0  0
    8.0901  -20.1685   23.2876 C   0  0  0  0  0  0  0  0  0  0  0  0
   11.0744  -19.3733   29.5545 O   0  0  0  0  0  0  0  0  0  0  0  0
  2  3  1  0
  2  1  1  6
  3  4  1  0
  4  9  2  0
  5  6  2  0
  5  4  1  0
  6  7  1  0
  7  8  2  0
  9  8  1  0
 10 12  1  0
 10  2  1  0
 11 10  2  0
 13 14  1  1
 13 12  1  0
 14 15  1  0
 16 13  1  0
 16 17  2  0
 18 19  1  0
 19 29  2  0
 20 19  1  0
 20 21  2  0
 21 22  1  0
 22 28  2  0
 22 23  1  0
 24 23  1  6
 24 26  1  0
 24 25  1  0
 25 16  1  0
 26 30  1  0
 27 26  2  0
 29 28  1  0
M  END
$$$$
