FCY.pdb
     RDKit          3D

 30 31  0  0  1  0  0  0  0  0999 V2000
    9.8586  -15.1178   21.8104 N   0  0  0  0  0  0  0  0  0  0  0  0
    9.2930  -14.6206   23.0476 C   0  0  1  0  0  0  0  0  0  0  0  0
    7.7866  -14.7662   23.0536 C   0  0  0  0  0  0  0  0  0  0  0  0
    7.2728  -14.0914   24.2679 C   0  0  0  0  0  0  0  0  0  0  0  0
    6.5965  -14.8287   25.2070 C   0  0  0  0  0  0  0  0  0  0  0  0
    6.0989  -14.2291   26.3612 C   0  0  0  0  0  0  0  0  0  0  0  0
    6.2910  -12.8739   26.5590 C   0  0  0  0  0  0  0  0  0  0  0  0
    6.9611  -12.1254   25.6356 C   0  0  0  0  0  0  0  0  0  0  0  0
    7.4406  -12.7475   24.5055 C   0  0  0  0  0  0  0  0  0  0  0  0
    9.9349  -15.2698   24.1907 C   0  0  0  0  0  0  0  0  0  0  0  0
   10.2999  -16.4671   24.1025 O   0  0  0  0  0  0  0  0  0  0  0  0
   10.1842  -14.6209   25.4378 N   0  0  0  0  0  0  0  0  0  0  0  0
   11.0552  -15.1780   26.4547 C   0  0  1  0  0  0  0  0  0  0  0  0
   11.1252  -14.1786   27.5889 C   0  0  0  0  0  0  0  0  0  0  0  0
    9.4210  -14.0250   28.2424 S   0  0  0  0  0  0  0  0  0  0  0  0
   10.5874  -16.5020   26.8982 C   0  0  0  0  0  0  0  0  0  0  0  0
    9.3470  -16.7145   26.9168 O   0  0  0  0  0  0  0  0  0  0  0  0
    9.8257  -19.3406   21.4259 O   0  0  0  0  0  0  0  0  0  0  0  0
   10.2276  -19.4748   22.7472 C   0  0  0  0  0  0  0  0  0  0  0  0
   11.5135  -19.2249   23.1795 C   0  0  0  0  0  0  0  0  0  0  0  0
   11.8456  -19.3777   24.5060 C   0  0  0  0  0  0  0  0  0  0  0  0
   10.9328  -19.7837   25.4766 C   0  0  0  0  0  0  0  0  0  0  0  0
   11.3420  -19.9388   26.8729 C   0  0  0  0  0  0  0  0  0  0  0  0
   10.9379  -18.8380   27.7941 C   0  0  2  0  0  0  0  0  0  0  0  0
   11.4347  -17.5417   27.3013 N   0  0  0  0  0  0  0  0  0  0  0  0
   11.4146  -19.0727   29.1789 C   0  0  0  0  0  0  0  0  0  0  0  0
   11.1357  -20.0961   29.8468 O   0  0  0  0  0  0  0  0  0  0  0  0
    9.6435  -20.0316   25.0268 C   0  0  0  0  0  0  0  0  0  0  0  0
    9.3169  -19.8769   23.6986 C   0  0  0  0  0  0  0  0  0  0  0  0
   12.2246  -18.1249   29.8168 O   0  0  0  0  0  0  0  0  0  0  0  0
  2  3  1  0
  2  1  1  6
  3  4  1  0
  4  9  2  0
  5  6  2  0
  5  4  1  0
  6  7  1  0
  7  8  2  0
  9  8  1  0
 10 12  1  0
 10  2  1  0
 11 10  2  0
 13 14  1  1
 13 12  1  0
 14 15  1  0
 16 13  1  0
 16 17  2  0
 18 19  1  0
 19 29  2  0
 20 19  1  0
 20 21  2  0
 21 22  1  0
 22 28  2  0
 22 23  1  0
 24 23  1  6
 24 26  1  0
 24 25  1  0
 25 16  1  0
 26 30  1  0
 27 26  2  0
 29 28  1  0
M  END
$$$$
