FCY.pdb
     RDKit          3D

 30 31  0  0  1  0  0  0  0  0999 V2000
    8.1462  -16.8674   21.4721 N   0  0  0  0  0  0  0  0  0  0  0  0
    7.8416  -15.7947   22.3963 C   0  0  1  0  0  0  0  0  0  0  0  0
    6.6375  -15.0036   21.9328 C   0  0  0  0  0  0  0  0  0  0  0  0
    7.0629  -14.1618   20.7908 C   0  0  0  0  0  0  0  0  0  0  0  0
    7.7160  -12.9804   21.0377 C   0  0  0  0  0  0  0  0  0  0  0  0
    8.1311  -12.1628   19.9896 C   0  0  0  0  0  0  0  0  0  0  0  0
    7.8799  -12.5501   18.6860 C   0  0  0  0  0  0  0  0  0  0  0  0
    7.2318  -13.7216   18.4222 C   0  0  0  0  0  0  0  0  0  0  0  0
    6.8344  -14.5074   19.4797 C   0  0  0  0  0  0  0  0  0  0  0  0
    7.6901  -16.3258   23.7510 C   0  0  0  0  0  0  0  0  0  0  0  0
    7.2054  -15.6010   24.6532 O   0  0  0  0  0  0  0  0  0  0  0  0
    8.0650  -17.6493   24.1335 N   0  0  0  0  0  0  0  0  0  0  0  0
    8.0908  -18.0920   25.5141 C   0  0  1  0  0  0  0  0  0  0  0  0
    8.0914  -19.6054   25.5051 C   0  0  0  0  0  0  0  0  0  0  0  0
    6.4976  -20.1140   24.7594 S   0  0  0  0  0  0  0  0  0  0  0  0
    9.2447  -17.5323   26.2379 C   0  0  0  0  0  0  0  0  0  0  0  0
   10.3760  -17.6038   25.6911 O   0  0  0  0  0  0  0  0  0  0  0  0
    6.1481  -12.2479   25.3291 O   0  0  0  0  0  0  0  0  0  0  0  0
    7.0842  -12.8825   26.1330 C   0  0  0  0  0  0  0  0  0  0  0  0
    7.0721  -12.8164   27.5108 C   0  0  0  0  0  0  0  0  0  0  0  0
    8.0315  -13.4706   28.2489 C   0  0  0  0  0  0  0  0  0  0  0  0
    9.0521  -14.2233   27.6730 C   0  0  0  0  0  0  0  0  0  0  0  0
   10.0527  -14.8918   28.5056 C   0  0  0  0  0  0  0  0  0  0  0  0
   10.3254  -16.3196   28.1728 C   0  0  2  0  0  0  0  0  0  0  0  0
    9.1646  -16.9247   27.4971 N   0  0  0  0  0  0  0  0  0  0  0  0
   10.6826  -17.1095   29.3763 C   0  0  0  0  0  0  0  0  0  0  0  0
    9.9785  -18.0415   29.8311 O   0  0  0  0  0  0  0  0  0  0  0  0
    9.0514  -14.2803   26.2863 C   0  0  0  0  0  0  0  0  0  0  0  0
    8.0891  -13.6240   25.5530 C   0  0  0  0  0  0  0  0  0  0  0  0
   11.8638  -16.8341   30.0764 O   0  0  0  0  0  0  0  0  0  0  0  0
  2  3  1  0
  2  1  1  6
  3  4  1  0
  4  9  2  0
  5  6  2  0
  5  4  1  0
  6  7  1  0
  7  8  2  0
  9  8  1  0
 10 12  1  0
 10  2  1  0
 11 10  2  0
 13 14  1  6
 13 12  1  0
 14 15  1  0
 16 13  1  0
 16 17  2  0
 18 19  1  0
 19 29  2  0
 20 19  1  0
 20 21  2  0
 21 22  1  0
 22 28  2  0
 22 23  1  0
 24 23  1  1
 24 26  1  0
 24 25  1  0
 25 16  1  0
 26 30  1  0
 27 26  2  0
 29 28  1  0
M  END
$$$$
