FCY.pdb
     RDKit          3D

 30 31  0  0  1  0  0  0  0  0999 V2000
   13.3142  -19.7680   14.4708 N   0  0  0  0  0  0  0  0  0  0  0  0
   13.9630  -20.7458   15.3197 C   0  0  1  0  0  0  0  0  0  0  0  0
   15.0680  -21.4637   14.5754 C   0  0  0  0  0  0  0  0  0  0  0  0
   14.4374  -22.2998   13.5280 C   0  0  0  0  0  0  0  0  0  0  0  0
   14.5287  -21.9091   12.2157 C   0  0  0  0  0  0  0  0  0  0  0  0
   13.9485  -22.6695   11.2035 C   0  0  0  0  0  0  0  0  0  0  0  0
   13.2731  -23.8314   11.5295 C   0  0  0  0  0  0  0  0  0  0  0  0
   13.1725  -24.2348   12.8291 C   0  0  0  0  0  0  0  0  0  0  0  0
   13.7567  -23.4617   13.8063 C   0  0  0  0  0  0  0  0  0  0  0  0
   14.4235  -20.1123   16.5554 C   0  0  0  0  0  0  0  0  0  0  0  0
   14.5576  -18.8657   16.6034 O   0  0  0  0  0  0  0  0  0  0  0  0
   14.7415  -20.8309   17.7475 N   0  0  0  0  0  0  0  0  0  0  0  0
   15.3298  -20.2003   18.9133 C   0  0  1  0  0  0  0  0  0  0  0  0
   14.3913  -20.4338   20.0773 C   0  0  0  0  0  0  0  0  0  0  0  0
   15.1212  -19.5542   21.5085 S   0  0  0  0  0  0  0  0  0  0  0  0
   16.6873  -20.7084   19.1731 C   0  0  0  0  0  0  0  0  0  0  0  0
   16.8579  -21.9552   19.1912 O   0  0  0  0  0  0  0  0  0  0  0  0
   19.2292  -21.4424   13.2111 O   0  0  0  0  0  0  0  0  0  0  0  0
   19.4575  -21.0829   14.5318 C   0  0  0  0  0  0  0  0  0  0  0  0
   20.0204  -21.9302   15.4635 C   0  0  0  0  0  0  0  0  0  0  0  0
   20.2195  -21.5095   16.7584 C   0  0  0  0  0  0  0  0  0  0  0  0
   19.8765  -20.2358   17.2055 C   0  0  0  0  0  0  0  0  0  0  0  0
   20.1022  -19.8432   18.5970 C   0  0  0  0  0  0  0  0  0  0  0  0
   19.1618  -20.4261   19.5968 C   0  0  2  0  0  0  0  0  0  0  0  0
   17.8026  -19.8927   19.4018 N   0  0  0  0  0  0  0  0  0  0  0  0
   19.6110  -20.1783   20.9885 C   0  0  0  0  0  0  0  0  0  0  0  0
   18.9415  -19.5370   21.8321 O   0  0  0  0  0  0  0  0  0  0  0  0
   19.3111  -19.3950   16.2572 C   0  0  0  0  0  0  0  0  0  0  0  0
   19.1144  -19.8210   14.9632 C   0  0  0  0  0  0  0  0  0  0  0  0
   20.8461  -20.6697   21.4297 O   0  0  0  0  0  0  0  0  0  0  0  0
  2  3  1  0
  2  1  1  6
  3  4  1  0
  4  9  2  0
  5  6  2  0
  5  4  1  0
  6  7  1  0
  7  8  2  0
  9  8  1  0
 10 12  1  0
 10  2  1  0
 11 10  2  0
 13 14  1  1
 13 12  1  0
 14 15  1  0
 16 13  1  0
 16 17  2  0
 18 19  1  0
 19 29  2  0
 20 19  1  0
 20 21  2  0
 21 22  1  0
 22 28  2  0
 22 23  1  0
 24 23  1  6
 24 26  1  0
 24 25  1  0
 25 16  1  0
 26 30  1  0
 27 26  2  0
 29 28  1  0
M  END
$$$$
