FCY.pdb
     RDKit          3D

 30 31  0  0  1  0  0  0  0  0999 V2000
    8.4159  -17.0546   20.6617 N   0  0  0  0  0  0  0  0  0  0  0  0
    9.7052  -16.4863   20.9971 C   0  0  1  0  0  0  0  0  0  0  0  0
   10.0248  -15.3028   20.1096 C   0  0  0  0  0  0  0  0  0  0  0  0
    8.8620  -14.3861   20.1436 C   0  0  0  0  0  0  0  0  0  0  0  0
    7.7728  -14.7160   20.9102 C   0  0  0  0  0  0  0  0  0  0  0  0
    6.6611  -13.8791   20.9671 C   0  0  0  0  0  0  0  0  0  0  0  0
    6.6595  -12.7024   20.2404 C   0  0  0  0  0  0  0  0  0  0  0  0
    7.7340  -12.3587   19.4728 C   0  0  0  0  0  0  0  0  0  0  0  0
    8.8171  -13.2069   19.4377 C   0  0  0  0  0  0  0  0  0  0  0  0
    9.7565  -16.1624   22.4229 C   0  0  0  0  0  0  0  0  0  0  0  0
   10.8102  -15.6937   22.9172 O   0  0  0  0  0  0  0  0  0  0  0  0
    8.6616  -16.3462   23.3206 N   0  0  0  0  0  0  0  0  0  0  0  0
    8.7936  -16.2193   24.7591 C   0  0  1  0  0  0  0  0  0  0  0  0
    7.3970  -16.1761   25.3405 C   0  0  0  0  0  0  0  0  0  0  0  0
    6.6354  -14.6264   24.7297 S   0  0  0  0  0  0  0  0  0  0  0  0
    9.6056  -17.3102   25.3239 C   0  0  0  0  0  0  0  0  0  0  0  0
    9.2546  -18.4943   25.0815 O   0  0  0  0  0  0  0  0  0  0  0  0
   14.1339  -17.9791   20.8426 O   0  0  0  0  0  0  0  0  0  0  0  0
   13.8398  -18.0529   22.1966 C   0  0  0  0  0  0  0  0  0  0  0  0
   13.5397  -19.2324   22.8459 C   0  0  0  0  0  0  0  0  0  0  0  0
   13.2572  -19.2350   24.1925 C   0  0  0  0  0  0  0  0  0  0  0  0
   13.2547  -18.0803   24.9713 C   0  0  0  0  0  0  0  0  0  0  0  0
   12.9381  -18.1389   26.3987 C   0  0  0  0  0  0  0  0  0  0  0  0
   11.4888  -18.2226   26.7395 C   0  0  2  0  0  0  0  0  0  0  0  0
   10.7451  -17.1152   26.1145 N   0  0  0  0  0  0  0  0  0  0  0  0
   11.2645  -18.2227   28.2057 C   0  0  0  0  0  0  0  0  0  0  0  0
   11.7294  -19.0914   28.9806 O   0  0  0  0  0  0  0  0  0  0  0  0
   13.5581  -16.9017   24.3044 C   0  0  0  0  0  0  0  0  0  0  0  0
   13.8400  -16.9050   22.9571 C   0  0  0  0  0  0  0  0  0  0  0  0
   10.4965  -17.2151   28.8025 O   0  0  0  0  0  0  0  0  0  0  0  0
  2  3  1  0
  2  1  1  6
  3  4  1  0
  4  9  2  0
  5  6  2  0
  5  4  1  0
  6  7  1  0
  7  8  2  0
  9  8  1  0
 10 12  1  0
 10  2  1  0
 11 10  2  0
 13 14  1  1
 13 12  1  0
 14 15  1  0
 16 13  1  0
 16 17  2  0
 18 19  1  0
 19 29  2  0
 20 19  1  0
 20 21  2  0
 21 22  1  0
 22 28  2  0
 22 23  1  0
 24 23  1  1
 24 26  1  0
 24 25  1  0
 25 16  1  0
 26 30  1  0
 27 26  2  0
 29 28  1  0
M  END
$$$$
