WEQ.pdb
     RDKit          3D

 33 34  0  0  1  0  0  0  0  0999 V2000
    6.7800  -17.5604   24.7172 N   0  0  0  0  0  0  0  0  0  0  0  0
    7.5128  -16.5879   23.9131 C   0  0  1  0  0  0  0  0  0  0  0  0
    8.0704  -15.5786   24.8889 C   0  0  0  0  0  0  0  0  0  0  0  0
    7.0327  -14.6463   25.3728 C   0  0  0  0  0  0  0  0  0  0  0  0
    5.8218  -14.9868   25.9288 C   0  0  0  0  0  0  0  0  0  0  0  0
    5.1365  -13.8758   26.2527 N   0  0  0  0  0  0  0  0  0  0  0  0
    5.9136  -12.8404   25.9017 C   0  0  0  0  0  0  0  0  0  0  0  0
    5.7023  -11.4946   26.0080 C   0  0  0  0  0  0  0  0  0  0  0  0
    6.6417  -10.5689   25.5806 C   0  0  0  0  0  0  0  0  0  0  0  0
    7.8206  -11.0319   25.0336 C   0  0  0  0  0  0  0  0  0  0  0  0
    8.0592  -12.3766   24.9148 C   0  0  0  0  0  0  0  0  0  0  0  0
    7.0946  -13.2757   25.3540 C   0  0  0  0  0  0  0  0  0  0  0  0
    8.7144  -17.2453   23.2871 C   0  0  0  0  0  0  0  0  0  0  0  0
    9.1775  -18.3263   23.7160 O   0  0  0  0  0  0  0  0  0  0  0  0
    9.3520  -16.6380   22.1793 N   0  0  0  0  0  0  0  0  0  0  0  0
   10.5433  -17.3022   21.6184 C   0  0  1  0  0  0  0  0  0  0  0  0
   10.7085  -16.8493   20.2122 C   0  0  0  0  0  0  0  0  0  0  0  0
    9.9110  -17.5339   19.1755 C   0  0  0  0  0  0  0  0  0  0  0  0
   10.8260  -18.3121   18.2475 C   0  0  0  0  0  0  0  0  0  0  0  0
   10.7050  -19.5260   18.0738 O   0  0  0  0  0  0  0  0  0  0  0  0
   11.6642  -16.8458   22.4592 C   0  0  0  0  0  0  0  0  0  0  0  0
   11.7923  -15.6149   22.7966 O   0  0  0  0  0  0  0  0  0  0  0  0
   11.8202  -17.6162   17.5864 O   0  0  0  0  0  0  0  0  0  0  0  0
   10.3106  -17.9624   27.1063 N   0  0  0  0  0  0  0  0  0  0  0  0
   11.5907  -17.6638   27.6457 C   0  0  0  0  0  0  0  0  0  0  0  0
   11.7979  -17.6329   28.8817 O   0  0  0  0  0  0  0  0  0  0  0  0
   12.7084  -17.3812   26.6841 C   0  0  0  0  0  0  0  0  0  0  0  0
   12.2049  -17.5660   25.2967 C   0  0  0  0  0  0  0  0  0  0  0  0
   13.2981  -17.4025   24.2621 C   0  0  2  0  0  0  0  0  0  0  0  0
   12.6671  -17.7146   22.9585 N   0  0  0  0  0  0  0  0  0  0  0  0
   14.4106  -18.3357   24.5242 C   0  0  0  0  0  0  0  0  0  0  0  0
   14.3476  -19.4928   24.0381 O   0  0  0  0  0  0  0  0  0  0  0  0
   15.5403  -18.0511   25.2674 O   0  0  0  0  0  0  0  0  0  0  0  0
  2  1  1  1
  3  2  1  0
  4  3  1  0
  4  5  2  0
  6  5  1  0
  7  6  1  0
  8  7  2  0
  9 10  2  0
  9  8  1  0
 10 11  1  0
 11 12  2  0
 12  7  1  0
 12  4  1  0
 13 15  1  0
 13  2  1  0
 14 13  2  0
 16 17  1  6
 16 15  1  0
 18 17  1  0
 18 19  1  0
 19 23  1  0
 20 19  2  0
 21 16  1  0
 22 21  2  0
 24 25  1  0
 25 26  2  0
 27 25  1  0
 27 28  1  0
 29 28  1  1
 29 30  1  0
 30 21  1  0
 31 33  1  0
 31 29  1  0
 32 31  2  0
M  END
$$$$
