WEQ.pdb
     RDKit          3D

 33 34  0  0  1  0  0  0  0  0999 V2000
    6.5248  -17.2356   24.2524 N   0  0  0  0  0  0  0  0  0  0  0  0
    7.2184  -16.8456   23.0292 C   0  0  1  0  0  0  0  0  0  0  0  0
    7.4175  -15.3513   23.1235 C   0  0  0  0  0  0  0  0  0  0  0  0
    6.9263  -14.8082   24.4056 C   0  0  0  0  0  0  0  0  0  0  0  0
    6.1608  -15.4720   25.3357 C   0  0  0  0  0  0  0  0  0  0  0  0
    5.9037  -14.6640   26.3797 N   0  0  0  0  0  0  0  0  0  0  0  0
    6.5052  -13.4964   26.1072 C   0  0  0  0  0  0  0  0  0  0  0  0
    6.5612  -12.3363   26.8269 C   0  0  0  0  0  0  0  0  0  0  0  0
    7.2440  -11.2207   26.3676 C   0  0  0  0  0  0  0  0  0  0  0  0
    7.8819  -11.2958   25.1465 C   0  0  0  0  0  0  0  0  0  0  0  0
    7.8423  -12.4470   24.4033 C   0  0  0  0  0  0  0  0  0  0  0  0
    7.1482  -13.5459   24.8954 C   0  0  0  0  0  0  0  0  0  0  0  0
    8.6046  -17.4342   23.0189 C   0  0  0  0  0  0  0  0  0  0  0  0
    8.9492  -18.3331   23.8190 O   0  0  0  0  0  0  0  0  0  0  0  0
    9.5596  -16.9702   22.0834 N   0  0  0  0  0  0  0  0  0  0  0  0
   10.8512  -17.6780   22.0059 C   0  0  1  0  0  0  0  0  0  0  0  0
   11.5917  -17.1647   20.8236 C   0  0  0  0  0  0  0  0  0  0  0  0
   12.9665  -17.6587   20.6108 C   0  0  0  0  0  0  0  0  0  0  0  0
   13.4868  -17.1809   19.2674 C   0  0  0  0  0  0  0  0  0  0  0  0
   13.1418  -17.7046   18.2067 O   0  0  0  0  0  0  0  0  0  0  0  0
   11.5476  -17.3363   23.2589 C   0  0  0  0  0  0  0  0  0  0  0  0
   11.6872  -16.1191   23.6388 O   0  0  0  0  0  0  0  0  0  0  0  0
   14.3756  -16.1227   19.2573 O   0  0  0  0  0  0  0  0  0  0  0  0
   10.0932  -18.7101   28.4529 N   0  0  0  0  0  0  0  0  0  0  0  0
   11.3648  -18.2495   28.8885 C   0  0  0  0  0  0  0  0  0  0  0  0
   11.6233  -18.0668   30.1015 O   0  0  0  0  0  0  0  0  0  0  0  0
   12.4095  -17.9822   27.8440 C   0  0  0  0  0  0  0  0  0  0  0  0
   11.8253  -18.2506   26.5026 C   0  0  0  0  0  0  0  0  0  0  0  0
   12.7591  -17.8531   25.3791 C   0  0  2  0  0  0  0  0  0  0  0  0
   12.1018  -18.3067   24.1313 N   0  0  0  0  0  0  0  0  0  0  0  0
   14.0706  -18.5120   25.5308 C   0  0  0  0  0  0  0  0  0  0  0  0
   14.3017  -19.5465   24.8558 O   0  0  0  0  0  0  0  0  0  0  0  0
   15.0914  -18.0890   26.3607 O   0  0  0  0  0  0  0  0  0  0  0  0
  2  1  1  1
  3  2  1  0
  4  3  1  0
  4  5  2  0
  6  5  1  0
  7  6  1  0
  8  7  2  0
  9 10  2  0
  9  8  1  0
 10 11  1  0
 11 12  2  0
 12  7  1  0
 12  4  1  0
 13 15  1  0
 13  2  1  0
 14 13  2  0
 16 17  1  6
 16 15  1  0
 18 17  1  0
 18 19  1  0
 19 23  1  0
 20 19  2  0
 21 16  1  0
 22 21  2  0
 24 25  1  0
 25 26  2  0
 27 25  1  0
 27 28  1  0
 29 28  1  1
 29 30  1  0
 30 21  1  0
 31 33  1  0
 31 29  1  0
 32 31  2  0
M  END
$$$$
