WEQ.pdb
     RDKit          3D

 33 34  0  0  1  0  0  0  0  0999 V2000
    6.9916  -17.1879   23.2674 N   0  0  0  0  0  0  0  0  0  0  0  0
    8.0009  -16.1370   23.1873 C   0  0  1  0  0  0  0  0  0  0  0  0
    8.3070  -15.7461   24.6138 C   0  0  0  0  0  0  0  0  0  0  0  0
    7.2234  -14.9401   25.2106 C   0  0  0  0  0  0  0  0  0  0  0  0
    5.9792  -15.3911   25.5850 C   0  0  0  0  0  0  0  0  0  0  0  0
    5.2564  -14.3766   26.0920 N   0  0  0  0  0  0  0  0  0  0  0  0
    6.0430  -13.2915   26.0367 C   0  0  0  0  0  0  0  0  0  0  0  0
    5.8058  -12.0015   26.4195 C   0  0  0  0  0  0  0  0  0  0  0  0
    6.7615  -11.0072   26.2782 C   0  0  0  0  0  0  0  0  0  0  0  0
    7.9842  -11.3419   25.7337 C   0  0  0  0  0  0  0  0  0  0  0  0
    8.2495  -12.6283   25.3410 C   0  0  0  0  0  0  0  0  0  0  0  0
    7.2675  -13.5991   25.4978 C   0  0  0  0  0  0  0  0  0  0  0  0
    9.2857  -16.7038   22.6431 C   0  0  0  0  0  0  0  0  0  0  0  0
    9.6138  -17.8978   22.8264 O   0  0  0  0  0  0  0  0  0  0  0  0
   10.1607  -15.8770   21.8993 N   0  0  0  0  0  0  0  0  0  0  0  0
   11.4529  -16.4458   21.4728 C   0  0  1  0  0  0  0  0  0  0  0  0
   12.0258  -15.5617   20.4241 C   0  0  0  0  0  0  0  0  0  0  0  0
   13.3288  -15.9440   19.8449 C   0  0  0  0  0  0  0  0  0  0  0  0
   13.6455  -15.0596   18.6527 C   0  0  0  0  0  0  0  0  0  0  0  0
   12.8812  -14.9560   17.6917 O   0  0  0  0  0  0  0  0  0  0  0  0
   12.2888  -16.4420   22.6865 C   0  0  0  0  0  0  0  0  0  0  0  0
   12.2791  -15.4545   23.5051 O   0  0  0  0  0  0  0  0  0  0  0  0
   14.8354  -14.3570   18.6667 O   0  0  0  0  0  0  0  0  0  0  0  0
   11.3531  -17.5370   27.5637 N   0  0  0  0  0  0  0  0  0  0  0  0
   11.2031  -18.6224   26.6592 C   0  0  0  0  0  0  0  0  0  0  0  0
   10.3716  -19.5394   26.8569 O   0  0  0  0  0  0  0  0  0  0  0  0
   12.0791  -18.6456   25.4402 C   0  0  0  0  0  0  0  0  0  0  0  0
   12.8988  -17.4046   25.4156 C   0  0  0  0  0  0  0  0  0  0  0  0
   13.9241  -17.4151   24.3017 C   0  0  2  0  0  0  0  0  0  0  0  0
   13.1486  -17.5114   23.0431 N   0  0  0  0  0  0  0  0  0  0  0  0
   14.8267  -18.5751   24.4321 C   0  0  0  0  0  0  0  0  0  0  0  0
   15.6130  -18.6137   25.4117 O   0  0  0  0  0  0  0  0  0  0  0  0
   14.8892  -19.6467   23.5619 O   0  0  0  0  0  0  0  0  0  0  0  0
  2  1  1  1
  3  2  1  0
  4  3  1  0
  4  5  2  0
  6  5  1  0
  7  6  1  0
  8  7  2  0
  9 10  2  0
  9  8  1  0
 10 11  1  0
 11 12  2  0
 12  7  1  0
 12  4  1  0
 13 15  1  0
 13  2  1  0
 14 13  2  0
 16 17  1  6
 16 15  1  0
 18 17  1  0
 18 19  1  0
 19 23  1  0
 20 19  2  0
 21 16  1  0
 22 21  2  0
 24 25  1  0
 25 26  2  0
 27 25  1  0
 27 28  1  0
 29 28  1  1
 29 30  1  0
 30 21  1  0
 31 33  1  0
 31 29  1  0
 32 31  2  0
M  END
$$$$
