WEQ.pdb
     RDKit          3D

 33 34  0  0  1  0  0  0  0  0999 V2000
    6.5480  -17.5434   24.2229 N   0  0  0  0  0  0  0  0  0  0  0  0
    7.4291  -16.4816   23.7477 C   0  0  1  0  0  0  0  0  0  0  0  0
    7.9542  -15.7932   24.9853 C   0  0  0  0  0  0  0  0  0  0  0  0
    6.9990  -14.7975   25.5111 C   0  0  0  0  0  0  0  0  0  0  0  0
    5.8407  -15.0614   26.2041 C   0  0  0  0  0  0  0  0  0  0  0  0
    5.2251  -13.9095   26.5251 N   0  0  0  0  0  0  0  0  0  0  0  0
    5.9934  -12.9248   26.0357 C   0  0  0  0  0  0  0  0  0  0  0  0
    5.8342  -11.5684   26.0792 C   0  0  0  0  0  0  0  0  0  0  0  0
    6.7530  -10.7036   25.5048 C   0  0  0  0  0  0  0  0  0  0  0  0
    7.8563  -11.2397   24.8735 C   0  0  0  0  0  0  0  0  0  0  0  0
    8.0414  -12.5968   24.8148 C   0  0  0  0  0  0  0  0  0  0  0  0
    7.0996  -13.4335   25.4018 C   0  0  0  0  0  0  0  0  0  0  0  0
    8.6383  -17.0823   23.0804 C   0  0  0  0  0  0  0  0  0  0  0  0
    9.0790  -18.2101   23.3978 O   0  0  0  0  0  0  0  0  0  0  0  0
    9.3091  -16.3653   22.0614 N   0  0  0  0  0  0  0  0  0  0  0  0
   10.5682  -16.9259   21.5365 C   0  0  1  0  0  0  0  0  0  0  0  0
   10.9168  -16.1965   20.2891 C   0  0  0  0  0  0  0  0  0  0  0  0
   12.2614  -16.4173   19.7212 C   0  0  0  0  0  0  0  0  0  0  0  0
   12.1522  -17.1711   18.4083 C   0  0  0  0  0  0  0  0  0  0  0  0
   11.5386  -18.2354   18.3124 O   0  0  0  0  0  0  0  0  0  0  0  0
   11.5645  -16.6778   22.5937 C   0  0  0  0  0  0  0  0  0  0  0  0
   11.6418  -15.5450   23.1906 O   0  0  0  0  0  0  0  0  0  0  0  0
   12.7688  -16.6277   17.2974 O   0  0  0  0  0  0  0  0  0  0  0  0
   12.8082  -20.1699   27.0832 N   0  0  0  0  0  0  0  0  0  0  0  0
   13.9280  -19.3249   27.3084 C   0  0  0  0  0  0  0  0  0  0  0  0
   14.6612  -19.4516   28.3173 O   0  0  0  0  0  0  0  0  0  0  0  0
   14.2173  -18.2582   26.2923 C   0  0  0  0  0  0  0  0  0  0  0  0
   13.2119  -18.3518   25.2001 C   0  0  0  0  0  0  0  0  0  0  0  0
   13.4314  -17.3077   24.1259 C   0  0  2  0  0  0  0  0  0  0  0  0
   12.4945  -17.6540   23.0319 N   0  0  0  0  0  0  0  0  0  0  0  0
   14.8223  -17.3466   23.6347 C   0  0  0  0  0  0  0  0  0  0  0  0
   15.0710  -18.0070   22.5949 O   0  0  0  0  0  0  0  0  0  0  0  0
   15.8998  -16.7104   24.2210 O   0  0  0  0  0  0  0  0  0  0  0  0
  2  1  1  1
  3  2  1  0
  4  3  1  0
  4  5  2  0
  6  5  1  0
  7  6  1  0
  8  7  2  0
  9 10  2  0
  9  8  1  0
 10 11  1  0
 11 12  2  0
 12  7  1  0
 12  4  1  0
 13 15  1  0
 13  2  1  0
 14 13  2  0
 16 17  1  6
 16 15  1  0
 18 17  1  0
 18 19  1  0
 19 23  1  0
 20 19  2  0
 21 16  1  0
 22 21  2  0
 24 25  1  0
 25 26  2  0
 27 25  1  0
 27 28  1  0
 29 28  1  1
 29 30  1  0
 30 21  1  0
 31 33  1  0
 31 29  1  0
 32 31  2  0
M  END
$$$$
