WEQ.pdb
     RDKit          3D

 33 34  0  0  1  0  0  0  0  0999 V2000
    6.8070  -17.1055   23.9140 N   0  0  0  0  0  0  0  0  0  0  0  0
    8.0549  -16.4159   24.2248 C   0  0  1  0  0  0  0  0  0  0  0  0
    7.9271  -15.9519   25.6566 C   0  0  0  0  0  0  0  0  0  0  0  0
    6.9562  -14.8482   25.7952 C   0  0  0  0  0  0  0  0  0  0  0  0
    5.5904  -14.9687   25.9031 C   0  0  0  0  0  0  0  0  0  0  0  0
    5.0294  -13.7514   26.0145 N   0  0  0  0  0  0  0  0  0  0  0  0
    6.0386  -12.8686   25.9768 C   0  0  0  0  0  0  0  0  0  0  0  0
    6.0290  -11.5042   26.0493 C   0  0  0  0  0  0  0  0  0  0  0  0
    7.1962  -10.7585   25.9904 C   0  0  0  0  0  0  0  0  0  0  0  0
    8.3968  -11.4246   25.8546 C   0  0  0  0  0  0  0  0  0  0  0  0
    8.4361  -12.7929   25.7795 C   0  0  0  0  0  0  0  0  0  0  0  0
    7.2459  -13.5079   25.8419 C   0  0  0  0  0  0  0  0  0  0  0  0
    9.1955  -17.3993   24.2231 C   0  0  0  0  0  0  0  0  0  0  0  0
    9.2025  -18.4078   24.9645 O   0  0  0  0  0  0  0  0  0  0  0  0
   10.3010  -17.1939   23.3638 N   0  0  0  0  0  0  0  0  0  0  0  0
   11.4094  -18.1651   23.4201 C   0  0  1  0  0  0  0  0  0  0  0  0
   12.3491  -17.8621   22.3088 C   0  0  0  0  0  0  0  0  0  0  0  0
   12.9940  -16.5341   22.3020 C   0  0  0  0  0  0  0  0  0  0  0  0
   13.9216  -16.4145   21.1066 C   0  0  0  0  0  0  0  0  0  0  0  0
   13.4978  -16.2409   19.9626 O   0  0  0  0  0  0  0  0  0  0  0  0
   12.0453  -17.9405   24.7304 C   0  0  0  0  0  0  0  0  0  0  0  0
   12.4147  -16.7708   25.1055 O   0  0  0  0  0  0  0  0  0  0  0  0
   15.2820  -16.5065   21.3319 O   0  0  0  0  0  0  0  0  0  0  0  0
   10.9005  -19.9503   30.2250 N   0  0  0  0  0  0  0  0  0  0  0  0
   10.7487  -20.7745   29.0777 C   0  0  0  0  0  0  0  0  0  0  0  0
   10.0984  -21.8457   29.1129 O   0  0  0  0  0  0  0  0  0  0  0  0
   11.3965  -20.3246   27.8003 C   0  0  0  0  0  0  0  0  0  0  0  0
   12.0922  -19.0328   28.0451 C   0  0  0  0  0  0  0  0  0  0  0  0
   13.0235  -18.6578   26.9118 C   0  0  2  0  0  0  0  0  0  0  0  0
   12.2886  -18.9777   25.6658 N   0  0  0  0  0  0  0  0  0  0  0  0
   14.2725  -19.4406   26.9800 C   0  0  0  0  0  0  0  0  0  0  0  0
   14.5484  -20.2105   26.0258 O   0  0  0  0  0  0  0  0  0  0  0  0
   15.1880  -19.4049   28.0144 O   0  0  0  0  0  0  0  0  0  0  0  0
  2  1  1  1
  3  2  1  0
  4  3  1  0
  4  5  2  0
  6  5  1  0
  7  6  1  0
  8  7  2  0
  9 10  2  0
  9  8  1  0
 10 11  1  0
 11 12  2  0
 12  7  1  0
 12  4  1  0
 13 15  1  0
 13  2  1  0
 14 13  2  0
 16 17  1  6
 16 15  1  0
 18 17  1  0
 18 19  1  0
 19 23  1  0
 20 19  2  0
 21 16  1  0
 22 21  2  0
 24 25  1  0
 25 26  2  0
 27 25  1  0
 27 28  1  0
 29 28  1  1
 29 30  1  0
 30 21  1  0
 31 33  1  0
 31 29  1  0
 32 31  2  0
M  END
$$$$
