WEQ.pdb
     RDKit          3D

 33 34  0  0  1  0  0  0  0  0999 V2000
    6.4795  -17.7131   24.5785 N   0  0  0  0  0  0  0  0  0  0  0  0
    7.5138  -16.8429   24.0285 C   0  0  1  0  0  0  0  0  0  0  0  0
    8.0403  -16.0371   25.1925 C   0  0  0  0  0  0  0  0  0  0  0  0
    7.1507  -14.9082   25.5304 C   0  0  0  0  0  0  0  0  0  0  0  0
    5.8862  -14.9944   26.0644 C   0  0  0  0  0  0  0  0  0  0  0  0
    5.3770  -13.7620   26.2405 N   0  0  0  0  0  0  0  0  0  0  0  0
    6.3178  -12.9040   25.8187 C   0  0  0  0  0  0  0  0  0  0  0  0
    6.3197  -11.5383   25.7752 C   0  0  0  0  0  0  0  0  0  0  0  0
    7.4054  -10.8215   25.2963 C   0  0  0  0  0  0  0  0  0  0  0  0
    8.5107  -11.5183   24.8532 C   0  0  0  0  0  0  0  0  0  0  0  0
    8.5362  -12.8886   24.8854 C   0  0  0  0  0  0  0  0  0  0  0  0
    7.4295  -13.5741   25.3722 C   0  0  0  0  0  0  0  0  0  0  0  0
    8.6792  -17.6712   23.5555 C   0  0  0  0  0  0  0  0  0  0  0  0
    9.0026  -18.7422   24.1169 O   0  0  0  0  0  0  0  0  0  0  0  0
    9.4428  -17.2423   22.4440 N   0  0  0  0  0  0  0  0  0  0  0  0
   10.6343  -18.0310   22.0787 C   0  0  1  0  0  0  0  0  0  0  0  0
   11.1385  -17.5324   20.7723 C   0  0  0  0  0  0  0  0  0  0  0  0
   12.3657  -18.1504   20.2324 C   0  0  0  0  0  0  0  0  0  0  0  0
   12.6831  -17.5661   18.8680 C   0  0  0  0  0  0  0  0  0  0  0  0
   13.6772  -16.8652   18.6699 O   0  0  0  0  0  0  0  0  0  0  0  0
   11.6055  -17.7738   23.1568 C   0  0  0  0  0  0  0  0  0  0  0  0
   12.0418  -16.5921   23.3993 O   0  0  0  0  0  0  0  0  0  0  0  0
   11.8153  -17.8419   17.8285 O   0  0  0  0  0  0  0  0  0  0  0  0
    9.9745  -20.4569   27.9650 N   0  0  0  0  0  0  0  0  0  0  0  0
   11.1709  -19.6973   28.0652 C   0  0  0  0  0  0  0  0  0  0  0  0
   11.9333  -19.7898   29.0561 O   0  0  0  0  0  0  0  0  0  0  0  0
   11.5064  -18.7650   26.9373 C   0  0  0  0  0  0  0  0  0  0  0  0
   12.7365  -19.2557   26.2599 C   0  0  0  0  0  0  0  0  0  0  0  0
   13.0981  -18.4209   25.0498 C   0  0  2  0  0  0  0  0  0  0  0  0
   12.1200  -18.7905   24.0003 N   0  0  0  0  0  0  0  0  0  0  0  0
   14.4690  -18.7236   24.5958 C   0  0  0  0  0  0  0  0  0  0  0  0
   14.6167  -19.4757   23.5998 O   0  0  0  0  0  0  0  0  0  0  0  0
   15.6306  -18.2468   25.1728 O   0  0  0  0  0  0  0  0  0  0  0  0
  2  1  1  1
  3  2  1  0
  4  3  1  0
  4  5  2  0
  6  5  1  0
  7  6  1  0
  8  7  2  0
  9 10  2  0
  9  8  1  0
 10 11  1  0
 11 12  2  0
 12  7  1  0
 12  4  1  0
 13 15  1  0
 13  2  1  0
 14 13  2  0
 16 17  1  6
 16 15  1  0
 18 17  1  0
 18 19  1  0
 19 23  1  0
 20 19  2  0
 21 16  1  0
 22 21  2  0
 24 25  1  0
 25 26  2  0
 27 25  1  0
 27 28  1  0
 29 28  1  1
 29 30  1  0
 30 21  1  0
 31 33  1  0
 31 29  1  0
 32 31  2  0
M  END
$$$$
