WEQ.pdb
     RDKit          3D

 33 34  0  0  1  0  0  0  0  0999 V2000
    7.0256  -16.9551   23.7989 N   0  0  0  0  0  0  0  0  0  0  0  0
    7.9714  -16.1314   23.0530 C   0  0  1  0  0  0  0  0  0  0  0  0
    8.5631  -15.1683   24.0549 C   0  0  0  0  0  0  0  0  0  0  0  0
    7.5365  -14.6099   24.9574 C   0  0  0  0  0  0  0  0  0  0  0  0
    6.5160  -15.3039   25.5645 C   0  0  0  0  0  0  0  0  0  0  0  0
    5.7768  -14.4690   26.3165 N   0  0  0  0  0  0  0  0  0  0  0  0
    6.3303  -13.2545   26.1828 C   0  0  0  0  0  0  0  0  0  0  0  0
    5.9779  -12.0524   26.7283 C   0  0  0  0  0  0  0  0  0  0  0  0
    6.6873  -10.8911   26.4639 C   0  0  0  0  0  0  0  0  0  0  0  0
    7.7794  -10.9635   25.6240 C   0  0  0  0  0  0  0  0  0  0  0  0
    8.1557  -12.1564   25.0628 C   0  0  0  0  0  0  0  0  0  0  0  0
    7.4208  -13.3004   25.3503 C   0  0  0  0  0  0  0  0  0  0  0  0
    9.1247  -16.9778   22.5823 C   0  0  0  0  0  0  0  0  0  0  0  0
    8.9563  -17.9820   21.8542 O   0  0  0  0  0  0  0  0  0  0  0  0
   10.4456  -16.6430   22.9638 N   0  0  0  0  0  0  0  0  0  0  0  0
   11.5575  -17.2419   22.2021 C   0  0  1  0  0  0  0  0  0  0  0  0
   11.4673  -16.7654   20.7970 C   0  0  0  0  0  0  0  0  0  0  0  0
   11.7693  -15.3440   20.5365 C   0  0  0  0  0  0  0  0  0  0  0  0
   12.7141  -15.2230   19.3547 C   0  0  0  0  0  0  0  0  0  0  0  0
   12.4226  -15.6492   18.2359 O   0  0  0  0  0  0  0  0  0  0  0  0
   12.7794  -16.7410   22.8561 C   0  0  0  0  0  0  0  0  0  0  0  0
   13.9454  -16.9993   22.3878 O   0  0  0  0  0  0  0  0  0  0  0  0
   13.9356  -14.6113   19.5633 O   0  0  0  0  0  0  0  0  0  0  0  0
    9.9653  -19.1204   27.9347 N   0  0  0  0  0  0  0  0  0  0  0  0
   10.6108  -17.8564   27.8678 C   0  0  0  0  0  0  0  0  0  0  0  0
   10.0987  -16.8242   28.3616 O   0  0  0  0  0  0  0  0  0  0  0  0
   11.9434  -17.7850   27.1801 C   0  0  0  0  0  0  0  0  0  0  0  0
   11.7755  -17.0769   25.8828 C   0  0  0  0  0  0  0  0  0  0  0  0
   13.0918  -16.5761   25.3269 C   0  0  2  0  0  0  0  0  0  0  0  0
   12.7643  -15.9433   24.0280 N   0  0  0  0  0  0  0  0  0  0  0  0
   14.0334  -17.6939   25.1242 C   0  0  0  0  0  0  0  0  0  0  0  0
   14.6543  -18.1410   26.1212 O   0  0  0  0  0  0  0  0  0  0  0  0
   14.3014  -18.3103   23.9168 O   0  0  0  0  0  0  0  0  0  0  0  0
  2  1  1  1
  3  2  1  0
  4  3  1  0
  4  5  2  0
  6  5  1  0
  7  6  1  0
  8  7  2  0
  9 10  2  0
  9  8  1  0
 10 11  1  0
 11 12  2  0
 12  7  1  0
 12  4  1  0
 13 15  1  0
 13  2  1  0
 14 13  2  0
 16 17  1  6
 16 15  1  0
 18 17  1  0
 18 19  1  0
 19 23  1  0
 20 19  2  0
 21 16  1  0
 22 21  2  0
 24 25  1  0
 25 26  2  0
 27 25  1  0
 27 28  1  0
 29 28  1  6
 29 30  1  0
 30 21  1  0
 31 33  1  0
 31 29  1  0
 32 31  2  0
M  END
$$$$
