WEQ.pdb
     RDKit          3D

 33 34  0  0  1  0  0  0  0  0999 V2000
    6.6913  -17.8963   24.7449 N   0  0  0  0  0  0  0  0  0  0  0  0
    7.6716  -17.0062   24.1316 C   0  0  1  0  0  0  0  0  0  0  0  0
    8.1017  -16.0503   25.2191 C   0  0  0  0  0  0  0  0  0  0  0  0
    7.0520  -15.0598   25.5310 C   0  0  0  0  0  0  0  0  0  0  0  0
    5.7411  -15.3292   25.8482 C   0  0  0  0  0  0  0  0  0  0  0  0
    5.0774  -14.1810   26.0717 N   0  0  0  0  0  0  0  0  0  0  0  0
    5.9676  -13.1931   25.8957 C   0  0  0  0  0  0  0  0  0  0  0  0
    5.8232  -11.8382   25.9979 C   0  0  0  0  0  0  0  0  0  0  0  0
    6.8799  -10.9693   25.7735 C   0  0  0  0  0  0  0  0  0  0  0  0
    8.1085  -11.4996   25.4378 C   0  0  0  0  0  0  0  0  0  0  0  0
    8.2820  -12.8551   25.3283 C   0  0  0  0  0  0  0  0  0  0  0  0
    7.2001  -13.6960   25.5605 C   0  0  0  0  0  0  0  0  0  0  0  0
    8.9097  -17.7831   23.7690 C   0  0  0  0  0  0  0  0  0  0  0  0
    9.2485  -18.8173   24.3877 O   0  0  0  0  0  0  0  0  0  0  0  0
    9.7268  -17.3466   22.6992 N   0  0  0  0  0  0  0  0  0  0  0  0
   10.9812  -18.0793   22.4445 C   0  0  1  0  0  0  0  0  0  0  0  0
   11.5398  -17.6075   21.1504 C   0  0  0  0  0  0  0  0  0  0  0  0
   12.8728  -18.1067   20.7587 C   0  0  0  0  0  0  0  0  0  0  0  0
   13.1956  -17.6662   19.3425 C   0  0  0  0  0  0  0  0  0  0  0  0
   13.0260  -18.4053   18.3712 O   0  0  0  0  0  0  0  0  0  0  0  0
   11.8654  -17.7209   23.5677 C   0  0  0  0  0  0  0  0  0  0  0  0
   12.3285  -16.5325   23.7045 O   0  0  0  0  0  0  0  0  0  0  0  0
   13.6951  -16.3907   19.1599 O   0  0  0  0  0  0  0  0  0  0  0  0
   11.9060  -18.3909   29.4401 N   0  0  0  0  0  0  0  0  0  0  0  0
   11.5164  -19.4975   28.6387 C   0  0  0  0  0  0  0  0  0  0  0  0
   10.8470  -20.4496   29.1044 O   0  0  0  0  0  0  0  0  0  0  0  0
   11.9324  -19.4997   27.1962 C   0  0  0  0  0  0  0  0  0  0  0  0
   12.6183  -18.2149   26.8935 C   0  0  0  0  0  0  0  0  0  0  0  0
   13.3025  -18.2331   25.5430 C   0  0  2  0  0  0  0  0  0  0  0  0
   12.2616  -18.6408   24.5710 N   0  0  0  0  0  0  0  0  0  0  0  0
   14.4147  -19.2028   25.5328 C   0  0  0  0  0  0  0  0  0  0  0  0
   15.3934  -18.9982   26.2942 O   0  0  0  0  0  0  0  0  0  0  0  0
   14.4826  -20.3398   24.7505 O   0  0  0  0  0  0  0  0  0  0  0  0
  2  1  1  1
  3  2  1  0
  4  3  1  0
  4  5  2  0
  6  5  1  0
  7  6  1  0
  8  7  2  0
  9 10  2  0
  9  8  1  0
 10 11  1  0
 11 12  2  0
 12  7  1  0
 12  4  1  0
 13 15  1  0
 13  2  1  0
 14 13  2  0
 16 17  1  6
 16 15  1  0
 18 17  1  0
 18 19  1  0
 19 23  1  0
 20 19  2  0
 21 16  1  0
 22 21  2  0
 24 25  1  0
 25 26  2  0
 27 25  1  0
 27 28  1  0
 29 28  1  1
 29 30  1  0
 30 21  1  0
 31 33  1  0
 31 29  1  0
 32 31  2  0
M  END
$$$$
