WEQ.pdb
     RDKit          3D

 33 34  0  0  1  0  0  0  0  0999 V2000
    6.9998  -17.6027   24.3093 N   0  0  0  0  0  0  0  0  0  0  0  0
    8.0697  -16.6869   23.9270 C   0  0  1  0  0  0  0  0  0  0  0  0
    8.4121  -15.9054   25.1734 C   0  0  0  0  0  0  0  0  0  0  0  0
    7.3301  -14.9774   25.5584 C   0  0  0  0  0  0  0  0  0  0  0  0
    6.1346  -15.3145   26.1492 C   0  0  0  0  0  0  0  0  0  0  0  0
    5.3967  -14.2092   26.3557 N   0  0  0  0  0  0  0  0  0  0  0  0
    6.1254  -13.1808   25.8966 C   0  0  0  0  0  0  0  0  0  0  0  0
    5.8506  -11.8428   25.8614 C   0  0  0  0  0  0  0  0  0  0  0  0
    6.7468  -10.9238   25.3376 C   0  0  0  0  0  0  0  0  0  0  0  0
    7.9480  -11.3855   24.8403 C   0  0  0  0  0  0  0  0  0  0  0  0
    8.2500  -12.7225   24.8630 C   0  0  0  0  0  0  0  0  0  0  0  0
    7.3274  -13.6150   25.3957 C   0  0  0  0  0  0  0  0  0  0  0  0
    9.3129  -17.4669   23.5896 C   0  0  0  0  0  0  0  0  0  0  0  0
    9.5260  -18.6090   24.0556 O   0  0  0  0  0  0  0  0  0  0  0  0
   10.2803  -16.9086   22.7207 N   0  0  0  0  0  0  0  0  0  0  0  0
   11.5743  -17.6038   22.5896 C   0  0  1  0  0  0  0  0  0  0  0  0
   12.2268  -17.1382   21.3377 C   0  0  0  0  0  0  0  0  0  0  0  0
   11.7734  -17.7373   20.0669 C   0  0  0  0  0  0  0  0  0  0  0  0
   12.6448  -17.2495   18.9239 C   0  0  0  0  0  0  0  0  0  0  0  0
   12.3502  -17.4477   17.7439 O   0  0  0  0  0  0  0  0  0  0  0  0
   12.3473  -17.1951   23.7759 C   0  0  0  0  0  0  0  0  0  0  0  0
   13.2726  -16.3098   23.7018 O   0  0  0  0  0  0  0  0  0  0  0  0
   13.8018  -16.5631   19.2402 O   0  0  0  0  0  0  0  0  0  0  0  0
   10.8521  -15.2287   29.0990 N   0  0  0  0  0  0  0  0  0  0  0  0
   10.4058  -16.5557   28.8568 C   0  0  0  0  0  0  0  0  0  0  0  0
    9.3885  -17.0254   29.4188 O   0  0  0  0  0  0  0  0  0  0  0  0
   11.1950  -17.3965   27.8955 C   0  0  0  0  0  0  0  0  0  0  0  0
   12.1073  -16.5118   27.1225 C   0  0  0  0  0  0  0  0  0  0  0  0
   13.0028  -17.2906   26.1823 C   0  0  2  0  0  0  0  0  0  0  0  0
   12.1296  -17.7319   25.0699 N   0  0  0  0  0  0  0  0  0  0  0  0
   13.5864  -18.4613   26.8651 C   0  0  0  0  0  0  0  0  0  0  0  0
   13.1135  -19.5979   26.6126 O   0  0  0  0  0  0  0  0  0  0  0  0
   14.6272  -18.4258   27.7733 O   0  0  0  0  0  0  0  0  0  0  0  0
  2  1  1  1
  3  2  1  0
  4  3  1  0
  4  5  2  0
  6  5  1  0
  7  6  1  0
  8  7  2  0
  9 10  2  0
  9  8  1  0
 10 11  1  0
 11 12  2  0
 12  7  1  0
 12  4  1  0
 13 15  1  0
 13  2  1  0
 14 13  2  0
 16 17  1  6
 16 15  1  0
 18 17  1  0
 18 19  1  0
 19 23  1  0
 20 19  2  0
 21 16  1  0
 22 21  2  0
 24 25  1  0
 25 26  2  0
 27 25  1  0
 27 28  1  0
 29 28  1  1
 29 30  1  0
 30 21  1  0
 31 33  1  0
 31 29  1  0
 32 31  2  0
M  END
$$$$
