WEQ.pdb
     RDKit          3D

 33 34  0  0  1  0  0  0  0  0999 V2000
    7.9212  -16.3160   25.6027 N   0  0  0  0  0  0  0  0  0  0  0  0
    7.0947  -16.9544   24.5835 C   0  0  1  0  0  0  0  0  0  0  0  0
    5.7856  -16.2009   24.5789 C   0  0  0  0  0  0  0  0  0  0  0  0
    5.7471  -15.1538   25.6191 C   0  0  0  0  0  0  0  0  0  0  0  0
    5.0808  -15.2181   26.8206 C   0  0  0  0  0  0  0  0  0  0  0  0
    5.2715  -14.0810   27.5130 N   0  0  0  0  0  0  0  0  0  0  0  0
    6.0549  -13.3043   26.7498 C   0  0  0  0  0  0  0  0  0  0  0  0
    6.5503  -12.0505   26.9724 C   0  0  0  0  0  0  0  0  0  0  0  0
    7.3549  -11.4050   26.0462 C   0  0  0  0  0  0  0  0  0  0  0  0
    7.6576  -12.0575   24.8689 C   0  0  0  0  0  0  0  0  0  0  0  0
    7.1743  -13.3159   24.6192 C   0  0  0  0  0  0  0  0  0  0  0  0
    6.3705  -13.9325   25.5707 C   0  0  0  0  0  0  0  0  0  0  0  0
    7.6945  -16.7230   23.2216 C   0  0  0  0  0  0  0  0  0  0  0  0
    7.3641  -17.4071   22.2267 O   0  0  0  0  0  0  0  0  0  0  0  0
    8.6616  -15.7058   23.0418 N   0  0  0  0  0  0  0  0  0  0  0  0
    9.6612  -15.8843   21.9721 C   0  0  1  0  0  0  0  0  0  0  0  0
    9.5692  -14.7205   21.0519 C   0  0  0  0  0  0  0  0  0  0  0  0
    8.2417  -14.3924   20.4954 C   0  0  0  0  0  0  0  0  0  0  0  0
    8.3901  -13.8530   19.0844 C   0  0  0  0  0  0  0  0  0  0  0  0
    9.4733  -13.4690   18.6398 O   0  0  0  0  0  0  0  0  0  0  0  0
   10.9606  -15.9115   22.6668 C   0  0  0  0  0  0  0  0  0  0  0  0
   12.0584  -16.0970   22.0299 O   0  0  0  0  0  0  0  0  0  0  0  0
    7.2604  -13.7998   18.2902 O   0  0  0  0  0  0  0  0  0  0  0  0
   11.9277  -13.8953   28.3763 N   0  0  0  0  0  0  0  0  0  0  0  0
   11.2586  -15.1377   28.2106 C   0  0  0  0  0  0  0  0  0  0  0  0
   10.6724  -15.7064   29.1617 O   0  0  0  0  0  0  0  0  0  0  0  0
   11.2704  -15.7641   26.8463 C   0  0  0  0  0  0  0  0  0  0  0  0
   12.3138  -15.0973   26.0221 C   0  0  0  0  0  0  0  0  0  0  0  0
   12.4586  -15.7317   24.6551 C   0  0  2  0  0  0  0  0  0  0  0  0
   11.0993  -15.7312   24.0662 N   0  0  0  0  0  0  0  0  0  0  0  0
   12.9617  -17.1141   24.7704 C   0  0  0  0  0  0  0  0  0  0  0  0
   14.1559  -17.2886   25.1206 O   0  0  0  0  0  0  0  0  0  0  0  0
   12.2280  -18.2594   24.5267 O   0  0  0  0  0  0  0  0  0  0  0  0
  2  1  1  1
  3  2  1  0
  4  3  1  0
  4  5  2  0
  6  5  1  0
  7  6  1  0
  8  7  2  0
  9 10  2  0
  9  8  1  0
 10 11  1  0
 11 12  2  0
 12  7  1  0
 12  4  1  0
 13 15  1  0
 13  2  1  0
 14 13  2  0
 16 17  1  6
 16 15  1  0
 18 17  1  0
 18 19  1  0
 19 23  1  0
 20 19  2  0
 21 16  1  0
 22 21  2  0
 24 25  1  0
 25 26  2  0
 27 25  1  0
 27 28  1  0
 29 28  1  1
 29 30  1  0
 30 21  1  0
 31 33  1  0
 31 29  1  0
 32 31  2  0
M  END
$$$$
