WEQ.pdb
     RDKit          3D

 33 34  0  0  1  0  0  0  0  0999 V2000
    6.2449  -17.4480   23.9397 N   0  0  0  0  0  0  0  0  0  0  0  0
    7.4254  -16.5904   23.9577 C   0  0  1  0  0  0  0  0  0  0  0  0
    7.6236  -16.1873   25.3998 C   0  0  0  0  0  0  0  0  0  0  0  0
    6.8480  -14.9801   25.7477 C   0  0  0  0  0  0  0  0  0  0  0  0
    5.6887  -14.9371   26.4866 C   0  0  0  0  0  0  0  0  0  0  0  0
    5.2647  -13.6660   26.6022 N   0  0  0  0  0  0  0  0  0  0  0  0
    6.1540  -12.9123   25.9386 C   0  0  0  0  0  0  0  0  0  0  0  0
    6.2017  -11.5612   25.7409 C   0  0  0  0  0  0  0  0  0  0  0  0
    7.2186  -10.9620   25.0136 C   0  0  0  0  0  0  0  0  0  0  0  0
    8.2058  -11.7637   24.4785 C   0  0  0  0  0  0  0  0  0  0  0  0
    8.1830  -13.1222   24.6612 C   0  0  0  0  0  0  0  0  0  0  0  0
    7.1480  -13.6882   25.3961 C   0  0  0  0  0  0  0  0  0  0  0  0
    8.6461  -17.3947   23.5955 C   0  0  0  0  0  0  0  0  0  0  0  0
    8.7731  -18.5941   23.9303 O   0  0  0  0  0  0  0  0  0  0  0  0
    9.6909  -16.7936   22.8542 N   0  0  0  0  0  0  0  0  0  0  0  0
   10.8668  -17.6198   22.5230 C   0  0  1  0  0  0  0  0  0  0  0  0
   11.5225  -17.0347   21.3242 C   0  0  0  0  0  0  0  0  0  0  0  0
   10.9207  -17.3224   20.0071 C   0  0  0  0  0  0  0  0  0  0  0  0
   11.7148  -16.6327   18.9127 C   0  0  0  0  0  0  0  0  0  0  0  0
   12.8091  -16.1086   19.1276 O   0  0  0  0  0  0  0  0  0  0  0  0
   11.7414  -17.5276   23.7056 C   0  0  0  0  0  0  0  0  0  0  0  0
   11.9820  -16.4044   24.2765 O   0  0  0  0  0  0  0  0  0  0  0  0
   11.1736  -16.6037   17.6415 O   0  0  0  0  0  0  0  0  0  0  0  0
   10.9678  -17.8534   28.9975 N   0  0  0  0  0  0  0  0  0  0  0  0
   10.4592  -18.9176   28.2053 C   0  0  0  0  0  0  0  0  0  0  0  0
    9.5426  -19.6685   28.6144 O   0  0  0  0  0  0  0  0  0  0  0  0
   11.0557  -19.1250   26.8433 C   0  0  0  0  0  0  0  0  0  0  0  0
   12.0565  -18.0539   26.5904 C   0  0  0  0  0  0  0  0  0  0  0  0
   13.0998  -18.4703   25.5753 C   0  0  2  0  0  0  0  0  0  0  0  0
   12.3687  -18.6516   24.2996 N   0  0  0  0  0  0  0  0  0  0  0  0
   13.7439  -19.7360   25.9760 C   0  0  0  0  0  0  0  0  0  0  0  0
   13.4734  -20.7766   25.3255 O   0  0  0  0  0  0  0  0  0  0  0  0
   14.6371  -19.8883   27.0193 O   0  0  0  0  0  0  0  0  0  0  0  0
  2  1  1  1
  3  2  1  0
  4  3  1  0
  4  5  2  0
  6  5  1  0
  7  6  1  0
  8  7  2  0
  9 10  2  0
  9  8  1  0
 10 11  1  0
 11 12  2  0
 12  7  1  0
 12  4  1  0
 13 15  1  0
 13  2  1  0
 14 13  2  0
 16 17  1  6
 16 15  1  0
 18 17  1  0
 18 19  1  0
 19 23  1  0
 20 19  2  0
 21 16  1  0
 22 21  2  0
 24 25  1  0
 25 26  2  0
 27 25  1  0
 27 28  1  0
 29 28  1  1
 29 30  1  0
 30 21  1  0
 31 33  1  0
 31 29  1  0
 32 31  2  0
M  END
$$$$
