WEQ.pdb
     RDKit          3D

 33 34  0  0  1  0  0  0  0  0999 V2000
    6.3117  -16.9962   23.9553 N   0  0  0  0  0  0  0  0  0  0  0  0
    6.9692  -15.7718   23.5103 C   0  0  1  0  0  0  0  0  0  0  0  0
    7.7975  -15.2967   24.6806 C   0  0  0  0  0  0  0  0  0  0  0  0
    6.9957  -14.5178   25.6452 C   0  0  0  0  0  0  0  0  0  0  0  0
    6.1011  -15.0213   26.5605 C   0  0  0  0  0  0  0  0  0  0  0  0
    5.5577  -14.0174   27.2717 N   0  0  0  0  0  0  0  0  0  0  0  0
    6.1086  -12.8867   26.8053 C   0  0  0  0  0  0  0  0  0  0  0  0
    5.9123  -11.5853   27.1726 C   0  0  0  0  0  0  0  0  0  0  0  0
    6.5871  -10.5408   26.5599 C   0  0  0  0  0  0  0  0  0  0  0  0
    7.4806  -10.8360   25.5510 C   0  0  0  0  0  0  0  0  0  0  0  0
    7.6973  -12.1327   25.1622 C   0  0  0  0  0  0  0  0  0  0  0  0
    7.0029  -13.1544   25.7989 C   0  0  0  0  0  0  0  0  0  0  0  0
    7.9600  -16.0912   22.4221 C   0  0  0  0  0  0  0  0  0  0  0  0
    8.5030  -17.2152   22.3287 O   0  0  0  0  0  0  0  0  0  0  0  0
    8.2993  -15.1038   21.4668 N   0  0  0  0  0  0  0  0  0  0  0  0
    9.3647  -15.4184   20.4967 C   0  0  1  0  0  0  0  0  0  0  0  0
    9.3152  -14.4070   19.4086 C   0  0  0  0  0  0  0  0  0  0  0  0
    8.0383  -14.2418   18.6863 C   0  0  0  0  0  0  0  0  0  0  0  0
    8.2392  -14.5207   17.2079 C   0  0  0  0  0  0  0  0  0  0  0  0
    9.3394  -14.8206   16.7408 O   0  0  0  0  0  0  0  0  0  0  0  0
   10.6192  -15.3143   21.2629 C   0  0  0  0  0  0  0  0  0  0  0  0
   10.6980  -14.6046   22.3285 O   0  0  0  0  0  0  0  0  0  0  0  0
    7.1387  -14.4292   16.3771 O   0  0  0  0  0  0  0  0  0  0  0  0
   11.6609  -18.3370   25.1658 N   0  0  0  0  0  0  0  0  0  0  0  0
   12.3563  -19.0808   24.1749 C   0  0  0  0  0  0  0  0  0  0  0  0
   12.5472  -20.3148   24.2853 O   0  0  0  0  0  0  0  0  0  0  0  0
   12.8660  -18.3412   22.9719 C   0  0  0  0  0  0  0  0  0  0  0  0
   12.3501  -16.9466   23.0129 C   0  0  0  0  0  0  0  0  0  0  0  0
   12.9052  -16.0954   21.8906 C   0  0  2  0  0  0  0  0  0  0  0  0
   11.8141  -15.9827   20.8948 N   0  0  0  0  0  0  0  0  0  0  0  0
   14.0851  -16.7382   21.2806 C   0  0  0  0  0  0  0  0  0  0  0  0
   13.9447  -17.3200   20.1756 O   0  0  0  0  0  0  0  0  0  0  0  0
   15.3573  -16.7595   21.8196 O   0  0  0  0  0  0  0  0  0  0  0  0
  2  1  1  1
  3  2  1  0
  4  3  1  0
  4  5  2  0
  6  5  1  0
  7  6  1  0
  8  7  2  0
  9 10  2  0
  9  8  1  0
 10 11  1  0
 11 12  2  0
 12  7  1  0
 12  4  1  0
 13 15  1  0
 13  2  1  0
 14 13  2  0
 16 17  1  6
 16 15  1  0
 18 17  1  0
 18 19  1  0
 19 23  1  0
 20 19  2  0
 21 16  1  0
 22 21  2  0
 24 25  1  0
 25 26  2  0
 27 25  1  0
 27 28  1  0
 29 28  1  1
 29 30  1  0
 30 21  1  0
 31 33  1  0
 31 29  1  0
 32 31  2  0
M  END
$$$$
