WEQ.pdb
     RDKit          3D

 33 34  0  0  1  0  0  0  0  0999 V2000
    6.5876  -17.6177   24.1974 N   0  0  0  0  0  0  0  0  0  0  0  0
    7.7312  -16.7584   23.9092 C   0  0  1  0  0  0  0  0  0  0  0  0
    8.0810  -16.0818   25.2137 C   0  0  0  0  0  0  0  0  0  0  0  0
    7.1222  -15.0124   25.5559 C   0  0  0  0  0  0  0  0  0  0  0  0
    5.8330  -15.1820   26.0041 C   0  0  0  0  0  0  0  0  0  0  0  0
    5.2587  -13.9842   26.2145 N   0  0  0  0  0  0  0  0  0  0  0  0
    6.1832  -13.0647   25.8999 C   0  0  0  0  0  0  0  0  0  0  0  0
    6.1257  -11.6999   25.9310 C   0  0  0  0  0  0  0  0  0  0  0  0
    7.2046  -10.9119   25.5608 C   0  0  0  0  0  0  0  0  0  0  0  0
    8.3651  -11.5353   25.1507 C   0  0  0  0  0  0  0  0  0  0  0  0
    8.4509  -12.9029   25.1099 C   0  0  0  0  0  0  0  0  0  0  0  0
    7.3492  -13.6609   25.4883 C   0  0  0  0  0  0  0  0  0  0  0  0
    8.9292  -17.6024   23.5624 C   0  0  0  0  0  0  0  0  0  0  0  0
    9.1488  -18.7023   24.1183 O   0  0  0  0  0  0  0  0  0  0  0  0
    9.8449  -17.1555   22.5804 N   0  0  0  0  0  0  0  0  0  0  0  0
   11.0695  -17.9488   22.3657 C   0  0  1  0  0  0  0  0  0  0  0  0
   11.7763  -17.3998   21.1788 C   0  0  0  0  0  0  0  0  0  0  0  0
   13.0814  -17.9925   20.8258 C   0  0  0  0  0  0  0  0  0  0  0  0
   13.6207  -17.3443   19.5637 C   0  0  0  0  0  0  0  0  0  0  0  0
   14.6707  -16.6995   19.5550 O   0  0  0  0  0  0  0  0  0  0  0  0
   11.8644  -17.7602   23.5923 C   0  0  0  0  0  0  0  0  0  0  0  0
   12.1071  -16.5914   24.0616 O   0  0  0  0  0  0  0  0  0  0  0  0
   12.8940  -17.4950   18.3980 O   0  0  0  0  0  0  0  0  0  0  0  0
   11.2886  -20.4122   28.6366 N   0  0  0  0  0  0  0  0  0  0  0  0
   10.9054  -19.0602   28.4267 C   0  0  0  0  0  0  0  0  0  0  0  0
   10.0191  -18.5076   29.1200 O   0  0  0  0  0  0  0  0  0  0  0  0
   11.5988  -18.2960   27.3363 C   0  0  0  0  0  0  0  0  0  0  0  0
   12.6056  -19.1836   26.6949 C   0  0  0  0  0  0  0  0  0  0  0  0
   13.2730  -18.5290   25.5040 C   0  0  2  0  0  0  0  0  0  0  0  0
   12.4078  -18.8345   24.3408 N   0  0  0  0  0  0  0  0  0  0  0  0
   14.6241  -19.0828   25.2914 C   0  0  0  0  0  0  0  0  0  0  0  0
   14.7864  -19.9286   24.3762 O   0  0  0  0  0  0  0  0  0  0  0  0
   15.7521  -18.7509   26.0172 O   0  0  0  0  0  0  0  0  0  0  0  0
  2  1  1  1
  3  2  1  0
  4  3  1  0
  4  5  2  0
  6  5  1  0
  7  6  1  0
  8  7  2  0
  9 10  2  0
  9  8  1  0
 10 11  1  0
 11 12  2  0
 12  7  1  0
 12  4  1  0
 13 15  1  0
 13  2  1  0
 14 13  2  0
 16 17  1  6
 16 15  1  0
 18 17  1  0
 18 19  1  0
 19 23  1  0
 20 19  2  0
 21 16  1  0
 22 21  2  0
 24 25  1  0
 25 26  2  0
 27 25  1  0
 27 28  1  0
 29 28  1  1
 29 30  1  0
 30 21  1  0
 31 33  1  0
 31 29  1  0
 32 31  2  0
M  END
$$$$
