NWW.pdb
     RDKit          3D

 37 40  0  0  1  0  0  0  0  0999 V2000
   29.0923  -18.7843  -17.0420 N   0  0  0  0  0  0  0  0  0  0  0  0
   28.5613  -18.5796  -15.7468 C   0  0  0  0  0  0  0  0  0  0  0  0
   29.0364  -17.7092  -14.9878 O   0  0  0  0  0  0  0  0  0  0  0  0
   27.4308  -19.4121  -15.2905 C   0  0  0  0  0  0  0  0  0  0  0  0
   27.8832  -20.1024  -14.0159 C   0  0  2  0  0  0  0  0  0  0  0  0
   28.8377  -21.1244  -14.4073 N   0  0  0  0  0  0  0  0  0  0  0  0
   26.7517  -20.7637  -13.3258 C   0  0  0  0  0  0  0  0  0  0  0  0
   26.0806  -21.6489  -13.9042 O   0  0  0  0  0  0  0  0  0  0  0  0
   26.4746  -20.3474  -11.9964 N   0  0  0  0  0  0  0  0  0  0  0  0
   25.3393  -20.8194  -11.2657 C   0  0  1  0  0  0  0  0  0  0  0  0
   25.5112  -20.4747   -9.7714 C   0  0  0  0  0  0  0  0  0  0  0  0
   26.8490  -20.7744   -9.2640 C   0  0  0  0  0  0  0  0  0  0  0  0
   27.7508  -21.5597   -9.9966 C   0  0  0  0  0  0  0  0  0  0  0  0
   28.8779  -21.6182   -9.2918 N   0  0  0  0  0  0  0  0  0  0  0  0
   28.7877  -20.9300   -8.1469 C   0  0  0  0  0  0  0  0  0  0  0  0
   29.6702  -20.6983   -7.0981 C   0  0  0  0  0  0  0  0  0  0  0  0
   29.2787  -19.9433   -6.0394 C   0  0  0  0  0  0  0  0  0  0  0  0
   28.0311  -19.3954   -5.9659 C   0  0  0  0  0  0  0  0  0  0  0  0
   27.1571  -19.6367   -7.0262 C   0  0  0  0  0  0  0  0  0  0  0  0
   27.4989  -20.3922   -8.1247 C   0  0  0  0  0  0  0  0  0  0  0  0
   24.0266  -20.4476  -11.7093 C   0  0  0  0  0  0  0  0  0  0  0  0
   23.4558  -19.3638  -11.4604 O   0  0  0  0  0  0  0  0  0  0  0  0
   23.3076  -21.3961  -12.5126 N   0  0  0  0  0  0  0  0  0  0  0  0
   22.0216  -21.0406  -13.0933 C   0  0  1  0  0  0  0  0  0  0  0  0
   21.9143  -21.6543  -14.4800 C   0  0  0  0  0  0  0  0  0  0  0  0
   20.6888  -21.3282  -15.2072 C   0  0  0  0  0  0  0  0  0  0  0  0
   20.3136  -20.0332  -15.6307 C   0  0  0  0  0  0  0  0  0  0  0  0
   19.1531  -20.0984  -16.2911 N   0  0  0  0  0  0  0  0  0  0  0  0
   18.7208  -21.3813  -16.3356 C   0  0  0  0  0  0  0  0  0  0  0  0
   17.5878  -21.9412  -16.8921 C   0  0  0  0  0  0  0  0  0  0  0  0
   17.4037  -23.3037  -16.7695 C   0  0  0  0  0  0  0  0  0  0  0  0
   18.3131  -24.0931  -16.1143 C   0  0  0  0  0  0  0  0  0  0  0  0
   19.4326  -23.4828  -15.5740 C   0  0  0  0  0  0  0  0  0  0  0  0
   19.6797  -22.1371  -15.6595 C   0  0  0  0  0  0  0  0  0  0  0  0
   20.9303  -21.3406  -12.1906 C   0  0  0  0  0  0  0  0  0  0  0  0
   21.0198  -22.2885  -11.3713 O   0  0  0  0  0  0  0  0  0  0  0  0
   19.7454  -20.6161  -12.1681 O   0  0  0  0  0  0  0  0  0  0  0  0
  2  1  1  0
  3  2  2  0
  4  2  1  0
  5  6  1  6
  5  4  1  0
  7  5  1  0
  8  7  2  0
  9  7  1  0
 10  9  1  0
 10 11  1  1
 11 12  1  0
 12 13  2  0
 13 14  1  0
 15 16  2  0
 15 14  1  0
 17 16  1  0
 18 17  2  0
 19 18  1  0
 19 20  2  0
 20 12  1  0
 20 15  1  0
 21 23  1  0
 21 10  1  0
 22 21  2  0
 24 23  1  0
 24 25  1  6
 25 26  1  0
 26 27  2  0
 26 34  1  0
 27 28  1  0
 28 29  1  0
 29 30  2  0
 30 31  1  0
 32 31  2  0
 33 32  1  0
 34 33  2  0
 34 29  1  0
 35 37  1  0
 35 24  1  0
 36 35  2  0
M  END
$$$$
