NWW.pdb
     RDKit          3D

 37 40  0  0  1  0  0  0  0  0999 V2000
   27.7619  -24.0541  -20.1034 N   0  0  0  0  0  0  0  0  0  0  0  0
   27.0443  -22.9928  -19.5033 C   0  0  0  0  0  0  0  0  0  0  0  0
   26.9178  -21.8941  -20.0832 O   0  0  0  0  0  0  0  0  0  0  0  0
   26.4408  -23.1922  -18.1709 C   0  0  0  0  0  0  0  0  0  0  0  0
   27.1483  -22.2391  -17.2239 C   0  0  2  0  0  0  0  0  0  0  0  0
   28.3824  -22.8882  -16.8185 N   0  0  0  0  0  0  0  0  0  0  0  0
   26.3396  -21.9799  -16.0104 C   0  0  0  0  0  0  0  0  0  0  0  0
   26.1943  -22.8671  -15.1384 O   0  0  0  0  0  0  0  0  0  0  0  0
   25.7491  -20.6936  -15.8911 N   0  0  0  0  0  0  0  0  0  0  0  0
   24.8987  -20.3383  -14.7974 C   0  0  1  0  0  0  0  0  0  0  0  0
   25.5437  -19.1860  -13.9990 C   0  0  0  0  0  0  0  0  0  0  0  0
   26.5431  -19.6449  -13.0360 C   0  0  0  0  0  0  0  0  0  0  0  0
   27.9133  -19.6163  -13.3331 C   0  0  0  0  0  0  0  0  0  0  0  0
   28.5550  -20.0593  -12.2549 N   0  0  0  0  0  0  0  0  0  0  0  0
   27.7100  -20.3793  -11.2668 C   0  0  0  0  0  0  0  0  0  0  0  0
   27.8867  -20.8768   -9.9809 C   0  0  0  0  0  0  0  0  0  0  0  0
   26.8060  -21.1136   -9.1934 C   0  0  0  0  0  0  0  0  0  0  0  0
   25.5331  -20.8777   -9.6247 C   0  0  0  0  0  0  0  0  0  0  0  0
   25.3723  -20.3781  -10.9173 C   0  0  0  0  0  0  0  0  0  0  0  0
   26.4294  -20.1179  -11.7594 C   0  0  0  0  0  0  0  0  0  0  0  0
   23.5193  -20.0443  -15.0597 C   0  0  0  0  0  0  0  0  0  0  0  0
   23.1004  -19.1644  -15.8423 O   0  0  0  0  0  0  0  0  0  0  0  0
   22.5340  -20.8300  -14.3712 N   0  0  0  0  0  0  0  0  0  0  0  0
   21.1163  -20.5866  -14.5911 C   0  0  1  0  0  0  0  0  0  0  0  0
   20.5489  -21.6974  -15.4599 C   0  0  0  0  0  0  0  0  0  0  0  0
   20.6685  -23.0425  -14.9000 C   0  0  0  0  0  0  0  0  0  0  0  0
   19.8155  -23.5940  -13.9174 C   0  0  0  0  0  0  0  0  0  0  0  0
   20.1900  -24.8503  -13.6555 N   0  0  0  0  0  0  0  0  0  0  0  0
   21.2614  -25.1787  -14.4164 C   0  0  0  0  0  0  0  0  0  0  0  0
   21.9988  -26.3436  -14.4955 C   0  0  0  0  0  0  0  0  0  0  0  0
   23.0647  -26.3848  -15.3715 C   0  0  0  0  0  0  0  0  0  0  0  0
   23.3951  -25.3047  -16.1487 C   0  0  0  0  0  0  0  0  0  0  0  0
   22.6241  -24.1604  -16.0317 C   0  0  0  0  0  0  0  0  0  0  0  0
   21.5519  -24.0504  -15.1847 C   0  0  0  0  0  0  0  0  0  0  0  0
   20.4188  -20.3491  -13.3450 C   0  0  0  0  0  0  0  0  0  0  0  0
   21.0018  -20.5119  -12.2444 O   0  0  0  0  0  0  0  0  0  0  0  0
   19.0952  -19.9319  -13.2858 O   0  0  0  0  0  0  0  0  0  0  0  0
  2  1  1  0
  3  2  2  0
  4  2  1  0
  5  6  1  1
  5  4  1  0
  7  5  1  0
  8  7  2  0
  9  7  1  0
 10  9  1  0
 10 11  1  6
 11 12  1  0
 12 13  2  0
 13 14  1  0
 15 16  2  0
 15 14  1  0
 17 16  1  0
 18 17  2  0
 19 18  1  0
 19 20  2  0
 20 12  1  0
 20 15  1  0
 21 23  1  0
 21 10  1  0
 22 21  2  0
 24 23  1  0
 24 25  1  1
 25 26  1  0
 26 27  2  0
 26 34  1  0
 27 28  1  0
 28 29  1  0
 29 30  2  0
 30 31  1  0
 32 31  2  0
 33 32  1  0
 34 33  2  0
 34 29  1  0
 35 37  1  0
 35 24  1  0
 36 35  2  0
M  END
$$$$
