NWW.pdb
     RDKit          3D

 37 40  0  0  1  0  0  0  0  0999 V2000
   26.5667  -24.6526  -19.1743 N   0  0  0  0  0  0  0  0  0  0  0  0
   25.8845  -24.1880  -18.0253 C   0  0  0  0  0  0  0  0  0  0  0  0
   24.6817  -23.8571  -18.0821 O   0  0  0  0  0  0  0  0  0  0  0  0
   26.6112  -24.0928  -16.7438 C   0  0  0  0  0  0  0  0  0  0  0  0
   26.1947  -22.7811  -16.1020 C   0  0  2  0  0  0  0  0  0  0  0  0
   26.9524  -21.7317  -16.7603 N   0  0  0  0  0  0  0  0  0  0  0  0
   26.5233  -22.7551  -14.6580 C   0  0  0  0  0  0  0  0  0  0  0  0
   26.3821  -23.7802  -13.9525 O   0  0  0  0  0  0  0  0  0  0  0  0
   26.9994  -21.5269  -14.1267 N   0  0  0  0  0  0  0  0  0  0  0  0
   27.2188  -21.3302  -12.7271 C   0  0  1  0  0  0  0  0  0  0  0  0
   28.2373  -20.1892  -12.5226 C   0  0  0  0  0  0  0  0  0  0  0  0
   29.6253  -20.6464  -12.5581 C   0  0  0  0  0  0  0  0  0  0  0  0
   30.4517  -20.3924  -13.6622 C   0  0  0  0  0  0  0  0  0  0  0  0
   31.6489  -20.8987  -13.3773 N   0  0  0  0  0  0  0  0  0  0  0  0
   31.6749  -21.4692  -12.1663 C   0  0  0  0  0  0  0  0  0  0  0  0
   32.6626  -22.1211  -11.4372 C   0  0  0  0  0  0  0  0  0  0  0  0
   32.3790  -22.6122  -10.2033 C   0  0  0  0  0  0  0  0  0  0  0  0
   31.1406  -22.4875   -9.6441 C   0  0  0  0  0  0  0  0  0  0  0  0
   30.1601  -21.8305  -10.3881 C   0  0  0  0  0  0  0  0  0  0  0  0
   30.3899  -21.3116  -11.6419 C   0  0  0  0  0  0  0  0  0  0  0  0
   26.0855  -21.1389  -11.8686 C   0  0  0  0  0  0  0  0  0  0  0  0
   24.9629  -20.7242  -12.2293 O   0  0  0  0  0  0  0  0  0  0  0  0
   26.2497  -21.4557  -10.4776 N   0  0  0  0  0  0  0  0  0  0  0  0
   25.1436  -21.2782   -9.5488 C   0  0  1  0  0  0  0  0  0  0  0  0
   25.6396  -21.5169   -8.1319 C   0  0  0  0  0  0  0  0  0  0  0  0
   26.4507  -20.4379   -7.5707 C   0  0  0  0  0  0  0  0  0  0  0  0
   26.4263  -19.0924   -8.0021 C   0  0  0  0  0  0  0  0  0  0  0  0
   27.2673  -18.3691   -7.2559 N   0  0  0  0  0  0  0  0  0  0  0  0
   27.8642  -19.1633   -6.3353 C   0  0  0  0  0  0  0  0  0  0  0  0
   28.8002  -18.8814   -5.3599 C   0  0  0  0  0  0  0  0  0  0  0  0
   29.2422  -19.9153   -4.5592 C   0  0  0  0  0  0  0  0  0  0  0  0
   28.7737  -21.1940   -4.7171 C   0  0  0  0  0  0  0  0  0  0  0  0
   27.8359  -21.4241   -5.7096 C   0  0  0  0  0  0  0  0  0  0  0  0
   27.3520  -20.4456   -6.5389 C   0  0  0  0  0  0  0  0  0  0  0  0
   24.4620  -20.0202   -9.7692 C   0  0  0  0  0  0  0  0  0  0  0  0
   25.0512  -19.0628  -10.3296 O   0  0  0  0  0  0  0  0  0  0  0  0
   23.1447  -19.7962   -9.3898 O   0  0  0  0  0  0  0  0  0  0  0  0
  2  1  1  0
  3  2  2  0
  4  2  1  0
  5  6  1  6
  5  4  1  0
  7  5  1  0
  8  7  2  0
  9  7  1  0
 10  9  1  0
 10 11  1  6
 11 12  1  0
 12 13  2  0
 13 14  1  0
 15 16  2  0
 15 14  1  0
 17 16  1  0
 18 17  2  0
 19 18  1  0
 19 20  2  0
 20 12  1  0
 20 15  1  0
 21 23  1  0
 21 10  1  0
 22 21  2  0
 24 23  1  0
 24 25  1  1
 25 26  1  0
 26 27  2  0
 26 34  1  0
 27 28  1  0
 28 29  1  0
 29 30  2  0
 30 31  1  0
 32 31  2  0
 33 32  1  0
 34 33  2  0
 34 29  1  0
 35 37  1  0
 35 24  1  0
 36 35  2  0
M  END
$$$$
