NWW.pdb
     RDKit          3D

 37 40  0  0  1  0  0  0  0  0999 V2000
   29.6486  -16.4808  -18.1406 N   0  0  0  0  0  0  0  0  0  0  0  0
   29.4857  -17.6574  -17.3721 C   0  0  0  0  0  0  0  0  0  0  0  0
   29.9216  -18.7551  -17.7776 O   0  0  0  0  0  0  0  0  0  0  0  0
   28.7870  -17.5804  -16.0740 C   0  0  0  0  0  0  0  0  0  0  0  0
   27.6498  -18.5852  -16.1298 C   0  0  2  0  0  0  0  0  0  0  0  0
   26.6833  -18.0736  -17.0853 N   0  0  0  0  0  0  0  0  0  0  0  0
   26.9784  -18.7184  -14.8164 C   0  0  0  0  0  0  0  0  0  0  0  0
   26.7935  -17.7156  -14.0892 O   0  0  0  0  0  0  0  0  0  0  0  0
   26.5624  -20.0215  -14.4337 N   0  0  0  0  0  0  0  0  0  0  0  0
   25.9152  -20.2845  -13.1856 C   0  0  1  0  0  0  0  0  0  0  0  0
   24.5093  -20.8639  -13.4486 C   0  0  0  0  0  0  0  0  0  0  0  0
   23.5004  -19.8338  -13.6890 C   0  0  0  0  0  0  0  0  0  0  0  0
   23.4832  -19.0890  -14.8770 C   0  0  0  0  0  0  0  0  0  0  0  0
   22.4374  -18.2691  -14.8076 N   0  0  0  0  0  0  0  0  0  0  0  0
   21.7621  -18.4166  -13.6610 C   0  0  0  0  0  0  0  0  0  0  0  0
   20.6322  -17.8044  -13.1310 C   0  0  0  0  0  0  0  0  0  0  0  0
   20.1758  -18.1722  -11.9060 C   0  0  0  0  0  0  0  0  0  0  0  0
   20.7954  -19.1357  -11.1645 C   0  0  0  0  0  0  0  0  0  0  0  0
   21.9278  -19.7410  -11.7101 C   0  0  0  0  0  0  0  0  0  0  0  0
   22.4349  -19.4102  -12.9462 C   0  0  0  0  0  0  0  0  0  0  0  0
   26.5989  -21.0765  -12.2042 C   0  0  0  0  0  0  0  0  0  0  0  0
   27.0544  -22.2259  -12.3876 O   0  0  0  0  0  0  0  0  0  0  0  0
   26.7826  -20.5003  -10.9017 N   0  0  0  0  0  0  0  0  0  0  0  0
   26.6858  -21.3314   -9.7112 C   0  0  1  0  0  0  0  0  0  0  0  0
   27.9925  -21.2494   -8.9387 C   0  0  0  0  0  0  0  0  0  0  0  0
   28.0568  -20.1797   -7.9444 C   0  0  0  0  0  0  0  0  0  0  0  0
   27.3632  -18.9511   -8.0245 C   0  0  0  0  0  0  0  0  0  0  0  0
   27.6243  -18.2193   -6.9366 N   0  0  0  0  0  0  0  0  0  0  0  0
   28.4662  -18.8956   -6.1189 C   0  0  0  0  0  0  0  0  0  0  0  0
   29.0205  -18.5556   -4.9007 C   0  0  0  0  0  0  0  0  0  0  0  0
   29.8690  -19.4590   -4.2931 C   0  0  0  0  0  0  0  0  0  0  0  0
   30.1636  -20.6662   -4.8725 C   0  0  0  0  0  0  0  0  0  0  0  0
   29.5819  -20.9591   -6.0946 C   0  0  0  0  0  0  0  0  0  0  0  0
   28.7299  -20.1106   -6.7530 C   0  0  0  0  0  0  0  0  0  0  0  0
   25.4903  -21.0331   -8.9512 C   0  0  0  0  0  0  0  0  0  0  0  0
   24.7418  -20.0808   -9.2837 O   0  0  0  0  0  0  0  0  0  0  0  0
   25.0998  -21.7639   -7.8364 O   0  0  0  0  0  0  0  0  0  0  0  0
  2  1  1  0
  3  2  2  0
  4  2  1  0
  5  6  1  6
  5  4  1  0
  7  5  1  0
  8  7  2  0
  9  7  1  0
 10  9  1  0
 10 11  1  6
 11 12  1  0
 12 13  2  0
 13 14  1  0
 15 16  2  0
 15 14  1  0
 17 16  1  0
 18 17  2  0
 19 18  1  0
 19 20  2  0
 20 12  1  0
 20 15  1  0
 21 23  1  0
 21 10  1  0
 22 21  2  0
 24 23  1  0
 24 25  1  1
 25 26  1  0
 26 27  2  0
 26 34  1  0
 27 28  1  0
 28 29  1  0
 29 30  2  0
 30 31  1  0
 32 31  2  0
 33 32  1  0
 34 33  2  0
 34 29  1  0
 35 37  1  0
 35 24  1  0
 36 35  2  0
M  END
$$$$
