NWW.pdb
     RDKit          3D

 37 40  0  0  1  0  0  0  0  0999 V2000
   29.9347  -18.5304  -14.9242 N   0  0  0  0  0  0  0  0  0  0  0  0
   28.7787  -18.1409  -15.6407 C   0  0  0  0  0  0  0  0  0  0  0  0
   28.7837  -17.1230  -16.3641 O   0  0  0  0  0  0  0  0  0  0  0  0
   27.5507  -18.9521  -15.5252 C   0  0  0  0  0  0  0  0  0  0  0  0
   27.8904  -20.1344  -14.6348 C   0  0  2  0  0  0  0  0  0  0  0  0
   28.6917  -21.0452  -15.4329 N   0  0  0  0  0  0  0  0  0  0  0  0
   26.6708  -20.8514  -14.1961 C   0  0  0  0  0  0  0  0  0  0  0  0
   25.8260  -21.2451  -15.0326 O   0  0  0  0  0  0  0  0  0  0  0  0
   26.5149  -21.0649  -12.8005 N   0  0  0  0  0  0  0  0  0  0  0  0
   25.3248  -21.6249  -12.2385 C   0  0  1  0  0  0  0  0  0  0  0  0
   25.6430  -22.2186  -10.8501 C   0  0  0  0  0  0  0  0  0  0  0  0
   26.2724  -21.2576   -9.9462 C   0  0  0  0  0  0  0  0  0  0  0  0
   25.5082  -20.4093   -9.1320 C   0  0  0  0  0  0  0  0  0  0  0  0
   26.3626  -19.6888   -8.4098 N   0  0  0  0  0  0  0  0  0  0  0  0
   27.6356  -19.9978   -8.6869 C   0  0  0  0  0  0  0  0  0  0  0  0
   28.8573  -19.5332   -8.2137 C   0  0  0  0  0  0  0  0  0  0  0  0
   30.0131  -20.0500   -8.7047 C   0  0  0  0  0  0  0  0  0  0  0  0
   30.0195  -21.0238   -9.6606 C   0  0  0  0  0  0  0  0  0  0  0  0
   28.7856  -21.4798  -10.1250 C   0  0  0  0  0  0  0  0  0  0  0  0
   27.5830  -20.9946   -9.6639 C   0  0  0  0  0  0  0  0  0  0  0  0
   24.1437  -20.8136  -12.1685 C   0  0  0  0  0  0  0  0  0  0  0  0
   24.0496  -19.7176  -11.5751 O   0  0  0  0  0  0  0  0  0  0  0  0
   22.9704  -21.2958  -12.8415 N   0  0  0  0  0  0  0  0  0  0  0  0
   21.9811  -20.3597  -13.3538 C   0  0  1  0  0  0  0  0  0  0  0  0
   22.4812  -19.7740  -14.6644 C   0  0  0  0  0  0  0  0  0  0  0  0
   21.5696  -18.8290  -15.3069 C   0  0  0  0  0  0  0  0  0  0  0  0
   21.2677  -17.5345  -14.8268 C   0  0  0  0  0  0  0  0  0  0  0  0
   20.4238  -16.9313  -15.6700 N   0  0  0  0  0  0  0  0  0  0  0  0
   20.1370  -17.7584  -16.7036 C   0  0  0  0  0  0  0  0  0  0  0  0
   19.3209  -17.5899  -17.8047 C   0  0  0  0  0  0  0  0  0  0  0  0
   19.2127  -18.6314  -18.7042 C   0  0  0  0  0  0  0  0  0  0  0  0
   19.8914  -19.8086  -18.5218 C   0  0  0  0  0  0  0  0  0  0  0  0
   20.6966  -19.9271  -17.4015 C   0  0  0  0  0  0  0  0  0  0  0  0
   20.8517  -18.9340  -16.4692 C   0  0  0  0  0  0  0  0  0  0  0  0
   20.6612  -20.9528  -13.3970 C   0  0  0  0  0  0  0  0  0  0  0  0
   20.5186  -22.1807  -13.6198 O   0  0  0  0  0  0  0  0  0  0  0  0
   19.4964  -20.2234  -13.1956 O   0  0  0  0  0  0  0  0  0  0  0  0
  2  1  1  0
  3  2  2  0
  4  2  1  0
  5  6  1  6
  5  4  1  0
  7  5  1  0
  8  7  2  0
  9  7  1  0
 10  9  1  0
 10 11  1  1
 11 12  1  0
 12 13  2  0
 13 14  1  0
 15 16  2  0
 15 14  1  0
 17 16  1  0
 18 17  2  0
 19 18  1  0
 19 20  2  0
 20 12  1  0
 20 15  1  0
 21 23  1  0
 21 10  1  0
 22 21  2  0
 24 23  1  0
 24 25  1  6
 25 26  1  0
 26 27  2  0
 26 34  1  0
 27 28  1  0
 28 29  1  0
 29 30  2  0
 30 31  1  0
 32 31  2  0
 33 32  1  0
 34 33  2  0
 34 29  1  0
 35 37  1  0
 35 24  1  0
 36 35  2  0
M  END
$$$$
