NWW.pdb
     RDKit          3D

 37 40  0  0  1  0  0  0  0  0999 V2000
   24.7412  -26.6426  -18.0143 N   0  0  0  0  0  0  0  0  0  0  0  0
   26.1170  -26.4721  -18.2967 C   0  0  0  0  0  0  0  0  0  0  0  0
   26.5483  -26.5568  -19.4655 O   0  0  0  0  0  0  0  0  0  0  0  0
   27.0518  -26.1929  -17.1887 C   0  0  0  0  0  0  0  0  0  0  0  0
   27.8387  -24.9553  -17.5826 C   0  0  2  0  0  0  0  0  0  0  0  0
   29.2258  -25.3638  -17.7158 N   0  0  0  0  0  0  0  0  0  0  0  0
   27.7613  -23.9079  -16.5383 C   0  0  0  0  0  0  0  0  0  0  0  0
   27.8675  -24.2055  -15.3264 O   0  0  0  0  0  0  0  0  0  0  0  0
   27.5643  -22.5717  -16.9780 N   0  0  0  0  0  0  0  0  0  0  0  0
   27.4214  -21.4778  -16.0677 C   0  0  1  0  0  0  0  0  0  0  0  0
   27.3928  -20.1527  -16.8581 C   0  0  0  0  0  0  0  0  0  0  0  0
   27.2149  -18.9796  -16.0043 C   0  0  0  0  0  0  0  0  0  0  0  0
   28.2251  -18.5490  -15.1321 C   0  0  0  0  0  0  0  0  0  0  0  0
   27.7767  -17.4509  -14.5288 N   0  0  0  0  0  0  0  0  0  0  0  0
   26.5443  -17.1240  -14.9374 C   0  0  0  0  0  0  0  0  0  0  0  0
   25.6695  -16.0947  -14.6094 C   0  0  0  0  0  0  0  0  0  0  0  0
   24.4502  -16.0287  -15.2035 C   0  0  0  0  0  0  0  0  0  0  0  0
   24.0456  -16.9503  -16.1249 C   0  0  0  0  0  0  0  0  0  0  0  0
   24.9348  -17.9770  -16.4438 C   0  0  0  0  0  0  0  0  0  0  0  0
   26.1828  -18.0938  -15.8753 C   0  0  0  0  0  0  0  0  0  0  0  0
   26.3500  -21.5058  -15.1141 C   0  0  0  0  0  0  0  0  0  0  0  0
   25.1389  -21.6520  -15.3864 O   0  0  0  0  0  0  0  0  0  0  0  0
   26.6957  -21.3601  -13.7279 N   0  0  0  0  0  0  0  0  0  0  0  0
   25.6596  -21.3857  -12.7065 C   0  0  1  0  0  0  0  0  0  0  0  0
   26.1832  -22.1221  -11.4840 C   0  0  0  0  0  0  0  0  0  0  0  0
   26.3710  -21.2920  -10.2955 C   0  0  0  0  0  0  0  0  0  0  0  0
   25.4892  -20.2747   -9.8655 C   0  0  0  0  0  0  0  0  0  0  0  0
   25.9475  -19.7373   -8.7304 N   0  0  0  0  0  0  0  0  0  0  0  0
   27.1034  -20.3436   -8.3686 C   0  0  0  0  0  0  0  0  0  0  0  0
   27.9426  -20.1344   -7.2921 C   0  0  0  0  0  0  0  0  0  0  0  0
   29.0780  -20.9124   -7.1869 C   0  0  0  0  0  0  0  0  0  0  0  0
   29.3780  -21.8712   -8.1199 C   0  0  0  0  0  0  0  0  0  0  0  0
   28.5040  -22.0415   -9.1803 C   0  0  0  0  0  0  0  0  0  0  0  0
   27.3589  -21.3063   -9.3463 C   0  0  0  0  0  0  0  0  0  0  0  0
   25.1256  -20.0631  -12.4586 C   0  0  0  0  0  0  0  0  0  0  0  0
   25.8916  -19.0731  -12.3541 O   0  0  0  0  0  0  0  0  0  0  0  0
   23.7666  -19.8075  -12.3283 O   0  0  0  0  0  0  0  0  0  0  0  0
  2  1  1  0
  3  2  2  0
  4  2  1  0
  5  6  1  1
  5  4  1  0
  7  5  1  0
  8  7  2  0
  9  7  1  0
 10  9  1  0
 10 11  1  6
 11 12  1  0
 12 13  2  0
 13 14  1  0
 15 16  2  0
 15 14  1  0
 17 16  1  0
 18 17  2  0
 19 18  1  0
 19 20  2  0
 20 12  1  0
 20 15  1  0
 21 23  1  0
 21 10  1  0
 22 21  2  0
 24 23  1  0
 24 25  1  1
 25 26  1  0
 26 27  2  0
 26 34  1  0
 27 28  1  0
 28 29  1  0
 29 30  2  0
 30 31  1  0
 32 31  2  0
 33 32  1  0
 34 33  2  0
 34 29  1  0
 35 37  1  0
 35 24  1  0
 36 35  2  0
M  END
$$$$
