NWW.pdb
     RDKit          3D

 37 40  0  0  1  0  0  0  0  0999 V2000
   24.0639  -25.9922  -17.0677 N   0  0  0  0  0  0  0  0  0  0  0  0
   24.2727  -24.6149  -16.8204 C   0  0  0  0  0  0  0  0  0  0  0  0
   23.6075  -23.7460  -17.4219 O   0  0  0  0  0  0  0  0  0  0  0  0
   25.2954  -24.2052  -15.8377 C   0  0  0  0  0  0  0  0  0  0  0  0
   25.9386  -22.9403  -16.3784 C   0  0  2  0  0  0  0  0  0  0  0  0
   26.8428  -23.3486  -17.4388 N   0  0  0  0  0  0  0  0  0  0  0  0
   26.7289  -22.2452  -15.3362 C   0  0  0  0  0  0  0  0  0  0  0  0
   27.8435  -22.6896  -14.9777 O   0  0  0  0  0  0  0  0  0  0  0  0
   26.1644  -21.0682  -14.7763 N   0  0  0  0  0  0  0  0  0  0  0  0
   26.6263  -20.5070  -13.5445 C   0  0  1  0  0  0  0  0  0  0  0  0
   26.6610  -18.9688  -13.6623 C   0  0  0  0  0  0  0  0  0  0  0  0
   27.5817  -18.4934  -14.6934 C   0  0  0  0  0  0  0  0  0  0  0  0
   28.5915  -19.3181  -15.2099 C   0  0  0  0  0  0  0  0  0  0  0  0
   29.2283  -18.6159  -16.1437 N   0  0  0  0  0  0  0  0  0  0  0  0
   28.7143  -17.3873  -16.2824 C   0  0  0  0  0  0  0  0  0  0  0  0
   29.0260  -16.3069  -17.0996 C   0  0  0  0  0  0  0  0  0  0  0  0
   28.3087  -15.1578  -17.0037 C   0  0  0  0  0  0  0  0  0  0  0  0
   27.2772  -15.0224  -16.1207 C   0  0  0  0  0  0  0  0  0  0  0  0
   26.9765  -16.1157  -15.3078 C   0  0  0  0  0  0  0  0  0  0  0  0
   27.6673  -17.3048  -15.3616 C   0  0  0  0  0  0  0  0  0  0  0  0
   25.9815  -20.8932  -12.3225 C   0  0  0  0  0  0  0  0  0  0  0  0
   24.7492  -21.0277  -12.1627 O   0  0  0  0  0  0  0  0  0  0  0  0
   26.8207  -21.1540  -11.1868 N   0  0  0  0  0  0  0  0  0  0  0  0
   26.2306  -21.4086   -9.8812 C   0  0  1  0  0  0  0  0  0  0  0  0
   27.3412  -21.6173   -8.8645 C   0  0  0  0  0  0  0  0  0  0  0  0
   27.2653  -20.7618   -7.6816 C   0  0  0  0  0  0  0  0  0  0  0  0
   26.0734  -20.2419   -7.1281 C   0  0  0  0  0  0  0  0  0  0  0  0
   26.3631  -19.5267   -6.0365 N   0  0  0  0  0  0  0  0  0  0  0  0
   27.7005  -19.5361   -5.8222 C   0  0  0  0  0  0  0  0  0  0  0  0
   28.4691  -18.9430   -4.8402 C   0  0  0  0  0  0  0  0  0  0  0  0
   29.8372  -19.1214   -4.8834 C   0  0  0  0  0  0  0  0  0  0  0  0
   30.4316  -19.8648   -5.8702 C   0  0  0  0  0  0  0  0  0  0  0  0
   29.6164  -20.4384   -6.8314 C   0  0  0  0  0  0  0  0  0  0  0  0
   28.2522  -20.3042   -6.8487 C   0  0  0  0  0  0  0  0  0  0  0  0
   25.2487  -20.4020   -9.5370 C   0  0  0  0  0  0  0  0  0  0  0  0
   24.1342  -20.7318   -9.0607 O   0  0  0  0  0  0  0  0  0  0  0  0
   25.4701  -19.0407   -9.7019 O   0  0  0  0  0  0  0  0  0  0  0  0
  2  1  1  0
  3  2  2  0
  4  2  1  0
  5  6  1  6
  5  4  1  0
  7  5  1  0
  8  7  2  0
  9  7  1  0
 10  9  1  0
 10 11  1  6
 11 12  1  0
 12 13  2  0
 13 14  1  0
 15 16  2  0
 15 14  1  0
 17 16  1  0
 18 17  2  0
 19 18  1  0
 19 20  2  0
 20 12  1  0
 20 15  1  0
 21 23  1  0
 21 10  1  0
 22 21  2  0
 24 23  1  0
 24 25  1  1
 25 26  1  0
 26 27  2  0
 26 34  1  0
 27 28  1  0
 28 29  1  0
 29 30  2  0
 30 31  1  0
 32 31  2  0
 33 32  1  0
 34 33  2  0
 34 29  1  0
 35 37  1  0
 35 24  1  0
 36 35  2  0
M  END
$$$$
