NWW.pdb
     RDKit          3D

 37 40  0  0  1  0  0  0  0  0999 V2000
   29.4897  -20.9416  -18.3889 N   0  0  0  0  0  0  0  0  0  0  0  0
   28.1284  -20.9683  -18.7729 C   0  0  0  0  0  0  0  0  0  0  0  0
   27.7823  -20.6664  -19.9342 O   0  0  0  0  0  0  0  0  0  0  0  0
   27.1063  -21.3570  -17.7811 C   0  0  0  0  0  0  0  0  0  0  0  0
   27.8462  -21.6789  -16.4947 C   0  0  2  0  0  0  0  0  0  0  0  0
   28.3884  -23.0176  -16.6453 N   0  0  0  0  0  0  0  0  0  0  0  0
   26.9333  -21.6761  -15.3284 C   0  0  0  0  0  0  0  0  0  0  0  0
   26.0688  -22.5719  -15.1921 O   0  0  0  0  0  0  0  0  0  0  0  0
   27.0894  -20.6217  -14.3895 N   0  0  0  0  0  0  0  0  0  0  0  0
   26.1540  -20.3914  -13.3323 C   0  0  1  0  0  0  0  0  0  0  0  0
   26.7845  -19.4492  -12.2853 C   0  0  0  0  0  0  0  0  0  0  0  0
   27.1767  -20.1377  -11.0569 C   0  0  0  0  0  0  0  0  0  0  0  0
   26.2894  -20.2756   -9.9798 C   0  0  0  0  0  0  0  0  0  0  0  0
   26.9239  -20.9706   -9.0390 N   0  0  0  0  0  0  0  0  0  0  0  0
   28.1656  -21.3020   -9.4145 C   0  0  0  0  0  0  0  0  0  0  0  0
   29.1962  -22.0026   -8.7986 C   0  0  0  0  0  0  0  0  0  0  0  0
   30.3771  -22.1761   -9.4462 C   0  0  0  0  0  0  0  0  0  0  0  0
   30.5928  -21.6800  -10.6990 C   0  0  0  0  0  0  0  0  0  0  0  0
   29.5489  -20.9796  -11.3039 C   0  0  0  0  0  0  0  0  0  0  0  0
   28.3309  -20.7738  -10.6969 C   0  0  0  0  0  0  0  0  0  0  0  0
   24.8310  -19.9457  -13.6629 C   0  0  0  0  0  0  0  0  0  0  0  0
   24.5548  -18.9740  -14.3989 O   0  0  0  0  0  0  0  0  0  0  0  0
   23.7288  -20.6798  -13.1077 N   0  0  0  0  0  0  0  0  0  0  0  0
   22.3913  -20.5245  -13.6594 C   0  0  1  0  0  0  0  0  0  0  0  0
   22.4366  -20.7835  -15.1566 C   0  0  0  0  0  0  0  0  0  0  0  0
   21.1626  -20.6113  -15.8526 C   0  0  0  0  0  0  0  0  0  0  0  0
   20.3724  -19.4400  -15.8262 C   0  0  0  0  0  0  0  0  0  0  0  0
   19.2908  -19.6139  -16.5923 N   0  0  0  0  0  0  0  0  0  0  0  0
   19.3092  -20.8530  -17.1392 C   0  0  0  0  0  0  0  0  0  0  0  0
   18.4195  -21.4891  -17.9822 C   0  0  0  0  0  0  0  0  0  0  0  0
   18.7006  -22.7823  -18.3747 C   0  0  0  0  0  0  0  0  0  0  0  0
   19.8297  -23.4312  -17.9460 C   0  0  0  0  0  0  0  0  0  0  0  0
   20.6897  -22.7494  -17.1016 C   0  0  0  0  0  0  0  0  0  0  0  0
   20.4740  -21.4650  -16.6737 C   0  0  0  0  0  0  0  0  0  0  0  0
   21.4184  -21.3004  -12.9196 C   0  0  0  0  0  0  0  0  0  0  0  0
   21.7310  -22.4096  -12.4200 O   0  0  0  0  0  0  0  0  0  0  0  0
   20.1110  -20.8786  -12.7148 O   0  0  0  0  0  0  0  0  0  0  0  0
  2  1  1  0
  3  2  2  0
  4  2  1  0
  5  6  1  6
  5  4  1  0
  7  5  1  0
  8  7  2  0
  9  7  1  0
 10  9  1  0
 10 11  1  1
 11 12  1  0
 12 13  2  0
 13 14  1  0
 15 16  2  0
 15 14  1  0
 17 16  1  0
 18 17  2  0
 19 18  1  0
 19 20  2  0
 20 12  1  0
 20 15  1  0
 21 23  1  0
 21 10  1  0
 22 21  2  0
 24 23  1  0
 24 25  1  6
 25 26  1  0
 26 27  2  0
 26 34  1  0
 27 28  1  0
 28 29  1  0
 29 30  2  0
 30 31  1  0
 32 31  2  0
 33 32  1  0
 34 33  2  0
 34 29  1  0
 35 37  1  0
 35 24  1  0
 36 35  2  0
M  END
$$$$
