NWW.pdb
     RDKit          3D

 37 40  0  0  1  0  0  0  0  0999 V2000
   30.1854  -20.3252  -16.3342 N   0  0  0  0  0  0  0  0  0  0  0  0
   29.2402  -19.2806  -16.4651 C   0  0  0  0  0  0  0  0  0  0  0  0
   29.0798  -18.6921  -17.5547 O   0  0  0  0  0  0  0  0  0  0  0  0
   28.4368  -18.8833  -15.2921 C   0  0  0  0  0  0  0  0  0  0  0  0
   27.3694  -19.9483  -15.1128 C   0  0  2  0  0  0  0  0  0  0  0  0
   26.4975  -19.8690  -16.2714 N   0  0  0  0  0  0  0  0  0  0  0  0
   26.5546  -19.7014  -13.9008 C   0  0  0  0  0  0  0  0  0  0  0  0
   26.1510  -18.5479  -13.6269 O   0  0  0  0  0  0  0  0  0  0  0  0
   26.2605  -20.8238  -13.0814 N   0  0  0  0  0  0  0  0  0  0  0  0
   25.4351  -20.7283  -11.9173 C   0  0  1  0  0  0  0  0  0  0  0  0
   24.0981  -21.4545  -12.1752 C   0  0  0  0  0  0  0  0  0  0  0  0
   23.0716  -20.5815  -12.7419 C   0  0  0  0  0  0  0  0  0  0  0  0
   22.9934  -20.3435  -14.1217 C   0  0  0  0  0  0  0  0  0  0  0  0
   21.9461  -19.5471  -14.3207 N   0  0  0  0  0  0  0  0  0  0  0  0
   21.3264  -19.2405  -13.1741 C   0  0  0  0  0  0  0  0  0  0  0  0
   20.2184  -18.4602  -12.8648 C   0  0  0  0  0  0  0  0  0  0  0  0
   19.8227  -18.3302  -11.5723 C   0  0  0  0  0  0  0  0  0  0  0  0
   20.4833  -18.9468  -10.5498 C   0  0  0  0  0  0  0  0  0  0  0  0
   21.5931  -19.7266  -10.8763 C   0  0  0  0  0  0  0  0  0  0  0  0
   22.0392  -19.8957  -12.1674 C   0  0  0  0  0  0  0  0  0  0  0  0
   25.9761  -21.1275  -10.6499 C   0  0  0  0  0  0  0  0  0  0  0  0
   26.7710  -22.0742  -10.4654 O   0  0  0  0  0  0  0  0  0  0  0  0
   25.5775  -20.3735   -9.4946 N   0  0  0  0  0  0  0  0  0  0  0  0
   26.0484  -20.7541   -8.1714 C   0  0  1  0  0  0  0  0  0  0  0  0
   26.1811  -19.5072   -7.3121 C   0  0  0  0  0  0  0  0  0  0  0  0
   27.5328  -19.2301   -6.8293 C   0  0  0  0  0  0  0  0  0  0  0  0
   28.5148  -18.4976   -7.5338 C   0  0  0  0  0  0  0  0  0  0  0  0
   29.6233  -18.4089   -6.7920 N   0  0  0  0  0  0  0  0  0  0  0  0
   29.4398  -19.0496   -5.6128 C   0  0  0  0  0  0  0  0  0  0  0  0
   30.2853  -19.2360   -4.5370 C   0  0  0  0  0  0  0  0  0  0  0  0
   29.8185  -19.9547   -3.4549 C   0  0  0  0  0  0  0  0  0  0  0  0
   28.5509  -20.4767   -3.4350 C   0  0  0  0  0  0  0  0  0  0  0  0
   27.7426  -20.2617   -4.5386 C   0  0  0  0  0  0  0  0  0  0  0  0
   28.1400  -19.5569   -5.6453 C   0  0  0  0  0  0  0  0  0  0  0  0
   25.2459  -21.8193   -7.6083 C   0  0  0  0  0  0  0  0  0  0  0  0
   24.0454  -21.9641   -7.9482 O   0  0  0  0  0  0  0  0  0  0  0  0
   25.7388  -22.7302   -6.6828 O   0  0  0  0  0  0  0  0  0  0  0  0
  2  1  1  0
  3  2  2  0
  4  2  1  0
  5  6  1  6
  5  4  1  0
  7  5  1  0
  8  7  2  0
  9  7  1  0
 10  9  1  0
 10 11  1  6
 11 12  1  0
 12 13  2  0
 13 14  1  0
 15 16  2  0
 15 14  1  0
 17 16  1  0
 18 17  2  0
 19 18  1  0
 19 20  2  0
 20 12  1  0
 20 15  1  0
 21 23  1  0
 21 10  1  0
 22 21  2  0
 24 23  1  0
 24 25  1  1
 25 26  1  0
 26 27  2  0
 26 34  1  0
 27 28  1  0
 28 29  1  0
 29 30  2  0
 30 31  1  0
 32 31  2  0
 33 32  1  0
 34 33  2  0
 34 29  1  0
 35 37  1  0
 35 24  1  0
 36 35  2  0
M  END
$$$$
