NWW.pdb
     RDKit          3D

 37 40  0  0  1  0  0  0  0  0999 V2000
   30.5378  -21.8479  -18.6562 N   0  0  0  0  0  0  0  0  0  0  0  0
   29.6905  -21.3733  -17.6274 C   0  0  0  0  0  0  0  0  0  0  0  0
   29.6481  -20.1590  -17.3389 O   0  0  0  0  0  0  0  0  0  0  0  0
   28.8486  -22.3328  -16.8858 C   0  0  0  0  0  0  0  0  0  0  0  0
   29.4536  -22.4638  -15.4991 C   0  0  2  0  0  0  0  0  0  0  0  0
   30.0580  -23.7822  -15.4270 N   0  0  0  0  0  0  0  0  0  0  0  0
   28.4181  -22.3693  -14.4443 C   0  0  0  0  0  0  0  0  0  0  0  0
   27.2434  -22.7416  -14.6675 O   0  0  0  0  0  0  0  0  0  0  0  0
   28.8228  -21.8437  -13.1883 N   0  0  0  0  0  0  0  0  0  0  0  0
   27.8924  -21.5601  -12.1397 C   0  0  1  0  0  0  0  0  0  0  0  0
   28.6605  -21.1044  -10.8813 C   0  0  0  0  0  0  0  0  0  0  0  0
   27.7806  -20.7579   -9.7666 C   0  0  0  0  0  0  0  0  0  0  0  0
   26.3850  -20.8215   -9.8885 C   0  0  0  0  0  0  0  0  0  0  0  0
   25.8751  -20.4844   -8.7066 N   0  0  0  0  0  0  0  0  0  0  0  0
   26.8306  -20.2021   -7.8122 C   0  0  0  0  0  0  0  0  0  0  0  0
   26.8068  -19.8065   -6.4798 C   0  0  0  0  0  0  0  0  0  0  0  0
   27.9725  -19.5829   -5.8201 C   0  0  0  0  0  0  0  0  0  0  0  0
   29.1855  -19.7343   -6.4266 C   0  0  0  0  0  0  0  0  0  0  0  0
   29.1928  -20.1321   -7.7638 C   0  0  0  0  0  0  0  0  0  0  0  0
   28.0440  -20.3741   -8.4822 C   0  0  0  0  0  0  0  0  0  0  0  0
   26.8033  -20.6643  -12.4035 C   0  0  0  0  0  0  0  0  0  0  0  0
   26.9142  -19.4720  -12.7618 O   0  0  0  0  0  0  0  0  0  0  0  0
   25.4719  -21.1800  -12.2500 N   0  0  0  0  0  0  0  0  0  0  0  0
   24.3272  -20.4025  -12.7002 C   0  0  1  0  0  0  0  0  0  0  0  0
   24.5286  -20.0168  -14.1567 C   0  0  0  0  0  0  0  0  0  0  0  0
   23.3568  -19.4365  -14.8102 C   0  0  0  0  0  0  0  0  0  0  0  0
   22.6259  -18.3248  -14.3335 C   0  0  0  0  0  0  0  0  0  0  0  0
   21.6367  -18.0418  -15.1870 N   0  0  0  0  0  0  0  0  0  0  0  0
   21.6612  -18.9125  -16.2242 C   0  0  0  0  0  0  0  0  0  0  0  0
   20.8493  -19.0276  -17.3354 C   0  0  0  0  0  0  0  0  0  0  0  0
   21.1133  -20.0395  -18.2364 C   0  0  0  0  0  0  0  0  0  0  0  0
   22.1506  -20.9154  -18.0458 C   0  0  0  0  0  0  0  0  0  0  0  0
   22.9350  -20.7572  -16.9157 C   0  0  0  0  0  0  0  0  0  0  0  0
   22.7313  -19.7749  -15.9813 C   0  0  0  0  0  0  0  0  0  0  0  0
   23.0793  -21.0707  -12.3969 C   0  0  0  0  0  0  0  0  0  0  0  0
   22.1798  -20.4820  -11.7472 O   0  0  0  0  0  0  0  0  0  0  0  0
   22.7997  -22.3708  -12.7979 O   0  0  0  0  0  0  0  0  0  0  0  0
  2  1  1  0
  3  2  2  0
  4  2  1  0
  5  6  1  6
  5  4  1  0
  7  5  1  0
  8  7  2  0
  9  7  1  0
 10  9  1  0
 10 11  1  1
 11 12  1  0
 12 13  2  0
 13 14  1  0
 15 16  2  0
 15 14  1  0
 17 16  1  0
 18 17  2  0
 19 18  1  0
 19 20  2  0
 20 12  1  0
 20 15  1  0
 21 23  1  0
 21 10  1  0
 22 21  2  0
 24 23  1  0
 24 25  1  6
 25 26  1  0
 26 27  2  0
 26 34  1  0
 27 28  1  0
 28 29  1  0
 29 30  2  0
 30 31  1  0
 32 31  2  0
 33 32  1  0
 34 33  2  0
 34 29  1  0
 35 37  1  0
 35 24  1  0
 36 35  2  0
M  END
$$$$
