NWW.pdb
     RDKit          3D

 37 40  0  0  1  0  0  0  0  0999 V2000
   29.0880  -19.4637  -15.6023 N   0  0  0  0  0  0  0  0  0  0  0  0
   27.7477  -19.0109  -15.5923 C   0  0  0  0  0  0  0  0  0  0  0  0
   27.4005  -18.0163  -16.2628 O   0  0  0  0  0  0  0  0  0  0  0  0
   26.7502  -19.7273  -14.7731 C   0  0  0  0  0  0  0  0  0  0  0  0
   27.4772  -20.8863  -14.1142 C   0  0  2  0  0  0  0  0  0  0  0  0
   27.4855  -21.9770  -15.0729 N   0  0  0  0  0  0  0  0  0  0  0  0
   26.7734  -21.3454  -12.8946 C   0  0  0  0  0  0  0  0  0  0  0  0
   25.7197  -22.0171  -12.9801 O   0  0  0  0  0  0  0  0  0  0  0  0
   27.3483  -20.9897  -11.6454 N   0  0  0  0  0  0  0  0  0  0  0  0
   26.5627  -20.8015  -10.4652 C   0  0  1  0  0  0  0  0  0  0  0  0
   27.3741  -19.9917   -9.4322 C   0  0  0  0  0  0  0  0  0  0  0  0
   26.9552  -20.2381   -8.0535 C   0  0  0  0  0  0  0  0  0  0  0  0
   25.7136  -20.8194   -7.7584 C   0  0  0  0  0  0  0  0  0  0  0  0
   25.6456  -20.9419   -6.4351 N   0  0  0  0  0  0  0  0  0  0  0  0
   26.7506  -20.4841   -5.8334 C   0  0  0  0  0  0  0  0  0  0  0  0
   27.1477  -20.3921   -4.5045 C   0  0  0  0  0  0  0  0  0  0  0  0
   28.3583  -19.8598   -4.1960 C   0  0  0  0  0  0  0  0  0  0  0  0
   29.2127  -19.4044   -5.1577 C   0  0  0  0  0  0  0  0  0  0  0  0
   28.7999  -19.5039   -6.4866 C   0  0  0  0  0  0  0  0  0  0  0  0
   27.5859  -20.0349   -6.8588 C   0  0  0  0  0  0  0  0  0  0  0  0
   25.2421  -20.2556  -10.5919 C   0  0  0  0  0  0  0  0  0  0  0  0
   24.9334  -19.0557  -10.4266 O   0  0  0  0  0  0  0  0  0  0  0  0
   24.1843  -21.1604  -10.9447 N   0  0  0  0  0  0  0  0  0  0  0  0
   22.8951  -20.6473  -11.3829 C   0  0  1  0  0  0  0  0  0  0  0  0
   22.7963  -20.7732  -12.8946 C   0  0  0  0  0  0  0  0  0  0  0  0
   21.5968  -20.1838  -13.4869 C   0  0  0  0  0  0  0  0  0  0  0  0
   21.0445  -18.9322  -13.1324 C   0  0  0  0  0  0  0  0  0  0  0  0
   19.9694  -18.6885  -13.8885 N   0  0  0  0  0  0  0  0  0  0  0  0
   19.7646  -19.7197  -14.7425 C   0  0  0  0  0  0  0  0  0  0  0  0
   18.7914  -19.9294  -15.6995 C   0  0  0  0  0  0  0  0  0  0  0  0
   18.8301  -21.1026  -16.4257 C   0  0  0  0  0  0  0  0  0  0  0  0
   19.8031  -22.0448  -16.2129 C   0  0  0  0  0  0  0  0  0  0  0  0
   20.7558  -21.7865  -15.2417 C   0  0  0  0  0  0  0  0  0  0  0  0
   20.7788  -20.6434  -14.4853 C   0  0  0  0  0  0  0  0  0  0  0  0
   21.8062  -21.2380  -10.6337 C   0  0  0  0  0  0  0  0  0  0  0  0
   21.0030  -20.5144   -9.9942 O   0  0  0  0  0  0  0  0  0  0  0  0
   21.5808  -22.6075  -10.5779 O   0  0  0  0  0  0  0  0  0  0  0  0
  2  1  1  0
  3  2  2  0
  4  2  1  0
  5  6  1  6
  5  4  1  0
  7  5  1  0
  8  7  2  0
  9  7  1  0
 10  9  1  0
 10 11  1  1
 11 12  1  0
 12 13  2  0
 13 14  1  0
 15 16  2  0
 15 14  1  0
 17 16  1  0
 18 17  2  0
 19 18  1  0
 19 20  2  0
 20 12  1  0
 20 15  1  0
 21 23  1  0
 21 10  1  0
 22 21  2  0
 24 23  1  0
 24 25  1  6
 25 26  1  0
 26 27  2  0
 26 34  1  0
 27 28  1  0
 28 29  1  0
 29 30  2  0
 30 31  1  0
 32 31  2  0
 33 32  1  0
 34 33  2  0
 34 29  1  0
 35 37  1  0
 35 24  1  0
 36 35  2  0
M  END
$$$$
