NWW.pdb
     RDKit          3D

 37 40  0  0  1  0  0  0  0  0999 V2000
   29.6196  -22.6107  -17.0067 N   0  0  0  0  0  0  0  0  0  0  0  0
   29.1522  -21.5579  -16.1853 C   0  0  0  0  0  0  0  0  0  0  0  0
   29.6144  -20.4031  -16.2958 O   0  0  0  0  0  0  0  0  0  0  0  0
   28.1045  -21.8354  -15.1829 C   0  0  0  0  0  0  0  0  0  0  0  0
   28.6520  -21.3805  -13.8416 C   0  0  2  0  0  0  0  0  0  0  0  0
   29.7365  -22.2845  -13.5017 N   0  0  0  0  0  0  0  0  0  0  0  0
   27.6245  -21.4675  -12.7784 C   0  0  0  0  0  0  0  0  0  0  0  0
   26.8458  -22.4467  -12.7216 O   0  0  0  0  0  0  0  0  0  0  0  0
   27.5718  -20.3996  -11.8432 N   0  0  0  0  0  0  0  0  0  0  0  0
   26.4976  -20.2487  -10.9111 C   0  0  1  0  0  0  0  0  0  0  0  0
   26.9111  -19.2513   -9.8085 C   0  0  0  0  0  0  0  0  0  0  0  0
   26.8951  -19.8378   -8.4696 C   0  0  0  0  0  0  0  0  0  0  0  0
   25.9479  -20.8057   -8.1055 C   0  0  0  0  0  0  0  0  0  0  0  0
   26.2166  -21.1612   -6.8517 N   0  0  0  0  0  0  0  0  0  0  0  0
   27.2713  -20.4993   -6.3596 C   0  0  0  0  0  0  0  0  0  0  0  0
   27.9220  -20.5146   -5.1313 C   0  0  0  0  0  0  0  0  0  0  0  0
   28.9899  -19.7023   -4.9219 C   0  0  0  0  0  0  0  0  0  0  0  0
   29.4549  -18.8582   -5.8880 C   0  0  0  0  0  0  0  0  0  0  0  0
   28.7916  -18.8546   -7.1153 C   0  0  0  0  0  0  0  0  0  0  0  0
   27.7057  -19.6561   -7.3849 C   0  0  0  0  0  0  0  0  0  0  0  0
   25.1914  -19.9220  -11.4064 C   0  0  0  0  0  0  0  0  0  0  0  0
   24.8631  -18.8337  -11.9261 O   0  0  0  0  0  0  0  0  0  0  0  0
   24.1746  -20.9308  -11.3035 N   0  0  0  0  0  0  0  0  0  0  0  0
   22.8354  -20.6777  -11.8132 C   0  0  1  0  0  0  0  0  0  0  0  0
   22.5323  -21.6645  -12.9291 C   0  0  0  0  0  0  0  0  0  0  0  0
   21.2391  -21.4782  -13.5848 C   0  0  0  0  0  0  0  0  0  0  0  0
   20.8541  -20.3308  -14.3144 C   0  0  0  0  0  0  0  0  0  0  0  0
   19.6219  -20.5051  -14.8028 N   0  0  0  0  0  0  0  0  0  0  0  0
   19.1503  -21.7210  -14.4373 C   0  0  0  0  0  0  0  0  0  0  0  0
   17.9433  -22.3427  -14.6900 C   0  0  0  0  0  0  0  0  0  0  0  0
   17.7355  -23.6039  -14.1691 C   0  0  0  0  0  0  0  0  0  0  0  0
   18.6930  -24.2352  -13.4178 C   0  0  0  0  0  0  0  0  0  0  0  0
   19.8860  -23.5689  -13.1934 C   0  0  0  0  0  0  0  0  0  0  0  0
   20.1603  -22.3173  -13.6809 C   0  0  0  0  0  0  0  0  0  0  0  0
   21.8614  -20.6249  -10.7435 C   0  0  0  0  0  0  0  0  0  0  0  0
   22.0570  -21.2450   -9.6688 O   0  0  0  0  0  0  0  0  0  0  0  0
   20.6796  -19.9002  -10.8308 O   0  0  0  0  0  0  0  0  0  0  0  0
  2  1  1  0
  3  2  2  0
  4  2  1  0
  5  6  1  1
  5  4  1  0
  7  5  1  0
  8  7  2  0
  9  7  1  0
 10  9  1  0
 10 11  1  1
 11 12  1  0
 12 13  2  0
 13 14  1  0
 15 16  2  0
 15 14  1  0
 17 16  1  0
 18 17  2  0
 19 18  1  0
 19 20  2  0
 20 12  1  0
 20 15  1  0
 21 23  1  0
 21 10  1  0
 22 21  2  0
 24 23  1  0
 24 25  1  6
 25 26  1  0
 26 27  2  0
 26 34  1  0
 27 28  1  0
 28 29  1  0
 29 30  2  0
 30 31  1  0
 32 31  2  0
 33 32  1  0
 34 33  2  0
 34 29  1  0
 35 37  1  0
 35 24  1  0
 36 35  2  0
M  END
$$$$
