NWW.pdb
     RDKit          3D

 37 40  0  0  1  0  0  0  0  0999 V2000
   27.8554  -20.0742  -18.0674 N   0  0  0  0  0  0  0  0  0  0  0  0
   28.5000  -19.1376  -17.2255 C   0  0  0  0  0  0  0  0  0  0  0  0
   29.6454  -18.7169  -17.4909 O   0  0  0  0  0  0  0  0  0  0  0  0
   27.8044  -18.6564  -16.0156 C   0  0  0  0  0  0  0  0  0  0  0  0
   26.5108  -19.4450  -15.9128 C   0  0  2  0  0  0  0  0  0  0  0  0
   25.5830  -18.8565  -16.8623 N   0  0  0  0  0  0  0  0  0  0  0  0
   25.9182  -19.3414  -14.5593 C   0  0  0  0  0  0  0  0  0  0  0  0
   25.9785  -18.2682  -13.9164 O   0  0  0  0  0  0  0  0  0  0  0  0
   25.2884  -20.5038  -14.0400 N   0  0  0  0  0  0  0  0  0  0  0  0
   24.7220  -20.5478  -12.7274 C   0  0  1  0  0  0  0  0  0  0  0  0
   23.3230  -21.1956  -12.7936 C   0  0  0  0  0  0  0  0  0  0  0  0
   22.2783  -20.2624  -13.2113 C   0  0  0  0  0  0  0  0  0  0  0  0
   21.2408  -19.8893  -12.3448 C   0  0  0  0  0  0  0  0  0  0  0  0
   20.4825  -19.0135  -12.9995 N   0  0  0  0  0  0  0  0  0  0  0  0
   20.9419  -18.7804  -14.2354 C   0  0  0  0  0  0  0  0  0  0  0  0
   20.5088  -17.9721  -15.2801 C   0  0  0  0  0  0  0  0  0  0  0  0
   21.1989  -17.9511  -16.4494 C   0  0  0  0  0  0  0  0  0  0  0  0
   22.3193  -18.7064  -16.6398 C   0  0  0  0  0  0  0  0  0  0  0  0
   22.7414  -19.5122  -15.5819 C   0  0  0  0  0  0  0  0  0  0  0  0
   22.0834  -19.5730  -14.3746 C   0  0  0  0  0  0  0  0  0  0  0  0
   25.4857  -21.1321  -11.6627 C   0  0  0  0  0  0  0  0  0  0  0  0
   25.9832  -22.2787  -11.6703 O   0  0  0  0  0  0  0  0  0  0  0  0
   25.7041  -20.3321  -10.4904 N   0  0  0  0  0  0  0  0  0  0  0  0
   26.4298  -20.8784   -9.3537 C   0  0  1  0  0  0  0  0  0  0  0  0
   27.3972  -19.8296   -8.8293 C   0  0  0  0  0  0  0  0  0  0  0  0
   28.1747  -20.2354   -7.6598 C   0  0  0  0  0  0  0  0  0  0  0  0
   29.0293  -21.3594   -7.6004 C   0  0  0  0  0  0  0  0  0  0  0  0
   29.6050  -21.4192   -6.3953 N   0  0  0  0  0  0  0  0  0  0  0  0
   29.1796  -20.3852   -5.6308 C   0  0  0  0  0  0  0  0  0  0  0  0
   29.4813  -20.0300   -4.3309 C   0  0  0  0  0  0  0  0  0  0  0  0
   28.8751  -18.9083   -3.8018 C   0  0  0  0  0  0  0  0  0  0  0  0
   27.9937  -18.1572   -4.5357 C   0  0  0  0  0  0  0  0  0  0  0  0
   27.7251  -18.5559   -5.8343 C   0  0  0  0  0  0  0  0  0  0  0  0
   28.2916  -19.6565   -6.4235 C   0  0  0  0  0  0  0  0  0  0  0  0
   25.5297  -21.4455   -8.3718 C   0  0  0  0  0  0  0  0  0  0  0  0
   24.3348  -21.0643   -8.3038 O   0  0  0  0  0  0  0  0  0  0  0  0
   25.9164  -22.4260   -7.4672 O   0  0  0  0  0  0  0  0  0  0  0  0
  2  1  1  0
  3  2  2  0
  4  2  1  0
  5  6  1  6
  5  4  1  0
  7  5  1  0
  8  7  2  0
  9  7  1  0
 10  9  1  0
 10 11  1  6
 11 12  1  0
 12 13  2  0
 13 14  1  0
 15 16  2  0
 15 14  1  0
 17 16  1  0
 18 17  2  0
 19 18  1  0
 19 20  2  0
 20 12  1  0
 20 15  1  0
 21 23  1  0
 21 10  1  0
 22 21  2  0
 24 23  1  0
 24 25  1  1
 25 26  1  0
 26 27  2  0
 26 34  1  0
 27 28  1  0
 28 29  1  0
 29 30  2  0
 30 31  1  0
 32 31  2  0
 33 32  1  0
 34 33  2  0
 34 29  1  0
 35 37  1  0
 35 24  1  0
 36 35  2  0
M  END
$$$$
