NWW.pdb
     RDKit          3D

 37 40  0  0  1  0  0  0  0  0999 V2000
   29.2111  -20.9535  -19.0054 N   0  0  0  0  0  0  0  0  0  0  0  0
   27.8878  -21.4165  -19.1949 C   0  0  0  0  0  0  0  0  0  0  0  0
   27.3310  -21.3322  -20.3095 O   0  0  0  0  0  0  0  0  0  0  0  0
   27.1586  -22.0044  -18.0538 C   0  0  0  0  0  0  0  0  0  0  0  0
   28.1015  -21.9617  -16.8643 C   0  0  2  0  0  0  0  0  0  0  0  0
   29.0033  -23.0916  -17.0019 N   0  0  0  0  0  0  0  0  0  0  0  0
   27.3685  -22.1056  -15.5854 C   0  0  0  0  0  0  0  0  0  0  0  0
   26.7772  -23.1735  -15.3050 O   0  0  0  0  0  0  0  0  0  0  0  0
   27.3732  -20.9873  -14.7096 N   0  0  0  0  0  0  0  0  0  0  0  0
   26.5953  -20.9491  -13.5100 C   0  0  1  0  0  0  0  0  0  0  0  0
   27.2104  -19.9264  -12.5318 C   0  0  0  0  0  0  0  0  0  0  0  0
   27.8793  -20.5530  -11.3929 C   0  0  0  0  0  0  0  0  0  0  0  0
   29.0969  -21.2324  -11.5421 C   0  0  0  0  0  0  0  0  0  0  0  0
   29.4591  -21.6528  -10.3326 N   0  0  0  0  0  0  0  0  0  0  0  0
   28.5704  -21.3018   -9.3947 C   0  0  0  0  0  0  0  0  0  0  0  0
   28.4988  -21.5045   -8.0214 C   0  0  0  0  0  0  0  0  0  0  0  0
   27.4407  -21.0209   -7.3209 C   0  0  0  0  0  0  0  0  0  0  0  0
   26.4291  -20.3326   -7.9251 C   0  0  0  0  0  0  0  0  0  0  0  0
   26.5155  -20.1370   -9.3038 C   0  0  0  0  0  0  0  0  0  0  0  0
   27.5637  -20.6027  -10.0646 C   0  0  0  0  0  0  0  0  0  0  0  0
   25.1787  -20.7456  -13.6093 C   0  0  0  0  0  0  0  0  0  0  0  0
   24.6192  -19.8409  -14.2655 O   0  0  0  0  0  0  0  0  0  0  0  0
   24.3287  -21.6610  -12.9009 N   0  0  0  0  0  0  0  0  0  0  0  0
   22.8843  -21.4853  -12.9190 C   0  0  1  0  0  0  0  0  0  0  0  0
   22.2196  -22.7774  -12.4727 C   0  0  0  0  0  0  0  0  0  0  0  0
   20.7579  -22.7518  -12.4699 C   0  0  0  0  0  0  0  0  0  0  0  0
   19.9443  -22.5958  -13.6149 C   0  0  0  0  0  0  0  0  0  0  0  0
   18.6570  -22.6473  -13.2580 N   0  0  0  0  0  0  0  0  0  0  0  0
   18.5579  -22.8311  -11.9197 C   0  0  0  0  0  0  0  0  0  0  0  0
   17.4556  -22.9389  -11.0950 C   0  0  0  0  0  0  0  0  0  0  0  0
   17.6656  -23.1146   -9.7421 C   0  0  0  0  0  0  0  0  0  0  0  0
   18.9301  -23.1816   -9.2164 C   0  0  0  0  0  0  0  0  0  0  0  0
   20.0017  -23.0679  -10.0860 C   0  0  0  0  0  0  0  0  0  0  0  0
   19.8667  -22.8938  -11.4390 C   0  0  0  0  0  0  0  0  0  0  0  0
   22.4852  -20.2951  -12.1979 C   0  0  0  0  0  0  0  0  0  0  0  0
   23.1524  -19.8892  -11.2142 O   0  0  0  0  0  0  0  0  0  0  0  0
   21.3702  -19.5408  -12.5401 O   0  0  0  0  0  0  0  0  0  0  0  0
  2  1  1  0
  3  2  2  0
  4  2  1  0
  5  6  1  6
  5  4  1  0
  7  5  1  0
  8  7  2  0
  9  7  1  0
 10  9  1  0
 10 11  1  1
 11 12  1  0
 12 13  2  0
 13 14  1  0
 15 16  2  0
 15 14  1  0
 17 16  1  0
 18 17  2  0
 19 18  1  0
 19 20  2  0
 20 12  1  0
 20 15  1  0
 21 23  1  0
 21 10  1  0
 22 21  2  0
 24 23  1  0
 24 25  1  1
 25 26  1  0
 26 27  2  0
 26 34  1  0
 27 28  1  0
 28 29  1  0
 29 30  2  0
 30 31  1  0
 32 31  2  0
 33 32  1  0
 34 33  2  0
 34 29  1  0
 35 37  1  0
 35 24  1  0
 36 35  2  0
M  END
$$$$
