NWW.pdb
     RDKit          3D

 37 40  0  0  1  0  0  0  0  0999 V2000
   28.0885  -22.9821  -17.7153 N   0  0  0  0  0  0  0  0  0  0  0  0
   28.9906  -22.2477  -16.9101 C   0  0  0  0  0  0  0  0  0  0  0  0
   30.2218  -22.4440  -16.9815 O   0  0  0  0  0  0  0  0  0  0  0  0
   28.4625  -21.2378  -15.9717 C   0  0  0  0  0  0  0  0  0  0  0  0
   26.9566  -21.4282  -15.9273 C   0  0  2  0  0  0  0  0  0  0  0  0
   26.4151  -20.7728  -17.1045 N   0  0  0  0  0  0  0  0  0  0  0  0
   26.3644  -20.7920  -14.7279 C   0  0  0  0  0  0  0  0  0  0  0  0
   26.6598  -19.6151  -14.4178 O   0  0  0  0  0  0  0  0  0  0  0  0
   25.4591  -21.5749  -13.9630 N   0  0  0  0  0  0  0  0  0  0  0  0
   24.8864  -21.1078  -12.7385 C   0  0  1  0  0  0  0  0  0  0  0  0
   23.3602  -21.3343  -12.7664 C   0  0  0  0  0  0  0  0  0  0  0  0
   22.6300  -20.2415  -13.4064 C   0  0  0  0  0  0  0  0  0  0  0  0
   21.7939  -19.3897  -12.6702 C   0  0  0  0  0  0  0  0  0  0  0  0
   21.3086  -18.4894  -13.5214 N   0  0  0  0  0  0  0  0  0  0  0  0
   21.7617  -18.6834  -14.7663 C   0  0  0  0  0  0  0  0  0  0  0  0
   21.5481  -18.0301  -15.9745 C   0  0  0  0  0  0  0  0  0  0  0  0
   22.1595  -18.4766  -17.1018 C   0  0  0  0  0  0  0  0  0  0  0  0
   22.9887  -19.5604  -17.0921 C   0  0  0  0  0  0  0  0  0  0  0  0
   23.1932  -20.2052  -15.8719 C   0  0  0  0  0  0  0  0  0  0  0  0
   22.6019  -19.7970  -14.6979 C   0  0  0  0  0  0  0  0  0  0  0  0
   25.4312  -21.5752  -11.4964 C   0  0  0  0  0  0  0  0  0  0  0  0
   25.5620  -22.7735  -11.1659 O   0  0  0  0  0  0  0  0  0  0  0  0
   25.8702  -20.5850  -10.5535 N   0  0  0  0  0  0  0  0  0  0  0  0
   26.5012  -20.9883   -9.3059 C   0  0  1  0  0  0  0  0  0  0  0  0
   27.6575  -20.0482   -9.0057 C   0  0  0  0  0  0  0  0  0  0  0  0
   28.4112  -20.3628   -7.7933 C   0  0  0  0  0  0  0  0  0  0  0  0
   29.2281  -21.5022   -7.6152 C   0  0  0  0  0  0  0  0  0  0  0  0
   29.7912  -21.4627   -6.4034 N   0  0  0  0  0  0  0  0  0  0  0  0
   29.3932  -20.3463   -5.7477 C   0  0  0  0  0  0  0  0  0  0  0  0
   29.6951  -19.8761   -4.4849 C   0  0  0  0  0  0  0  0  0  0  0  0
   29.1213  -18.6897   -4.0742 C   0  0  0  0  0  0  0  0  0  0  0  0
   28.2713  -17.9859   -4.8877 C   0  0  0  0  0  0  0  0  0  0  0  0
   28.0010  -18.5003   -6.1446 C   0  0  0  0  0  0  0  0  0  0  0  0
   28.5363  -19.6704   -6.6176 C   0  0  0  0  0  0  0  0  0  0  0  0
   25.5288  -21.1425   -8.2446 C   0  0  0  0  0  0  0  0  0  0  0  0
   25.7642  -21.8928   -7.2652 O   0  0  0  0  0  0  0  0  0  0  0  0
   24.3056  -20.4845   -8.2371 O   0  0  0  0  0  0  0  0  0  0  0  0
  2  1  1  0
  3  2  2  0
  4  2  1  0
  5  6  1  6
  5  4  1  0
  7  5  1  0
  8  7  2  0
  9  7  1  0
 10  9  1  0
 10 11  1  6
 11 12  1  0
 12 13  2  0
 13 14  1  0
 15 16  2  0
 15 14  1  0
 17 16  1  0
 18 17  2  0
 19 18  1  0
 19 20  2  0
 20 12  1  0
 20 15  1  0
 21 23  1  0
 21 10  1  0
 22 21  2  0
 24 23  1  0
 24 25  1  1
 25 26  1  0
 26 27  2  0
 26 34  1  0
 27 28  1  0
 28 29  1  0
 29 30  2  0
 30 31  1  0
 32 31  2  0
 33 32  1  0
 34 33  2  0
 34 29  1  0
 35 37  1  0
 35 24  1  0
 36 35  2  0
M  END
$$$$
