LWN.pdb
     RDKit          3D

 31 32  0  0  1  0  0  0  0  0999 V2000
   28.6391  -17.4225  -14.8354 C   0  0  0  0  0  0  0  0  0  0  0  0
   28.2198  -18.8234  -15.1761 C   0  0  2  0  0  0  0  0  0  0  0  0
   27.4878  -18.7561  -16.5120 C   0  0  0  0  0  0  0  0  0  0  0  0
   27.2297  -19.3676  -14.1515 C   0  0  0  0  0  0  0  0  0  0  0  0
   27.8084  -20.5244  -13.4055 C   0  0  2  0  0  0  0  0  0  0  0  0
   28.1426  -21.6379  -14.2523 N   0  0  0  0  0  0  0  0  0  0  0  0
   26.8852  -20.9045  -12.3073 C   0  0  0  0  0  0  0  0  0  0  0  0
   26.0953  -21.8634  -12.5034 O   0  0  0  0  0  0  0  0  0  0  0  0
   26.8460  -20.2505  -11.0593 N   0  0  0  0  0  0  0  0  0  0  0  0
   25.8152  -20.5371  -10.1103 C   0  0  1  0  0  0  0  0  0  0  0  0
   26.0179  -19.9996   -8.7389 C   0  0  0  0  0  0  0  0  0  0  0  0
   27.3317  -20.2771   -8.1473 C   0  0  0  0  0  0  0  0  0  0  0  0
   28.4266  -20.8041   -8.8012 C   0  0  0  0  0  0  0  0  0  0  0  0
   29.4498  -20.9380   -7.9495 N   0  0  0  0  0  0  0  0  0  0  0  0
   29.0794  -20.5106   -6.7148 C   0  0  0  0  0  0  0  0  0  0  0  0
   29.7614  -20.4398   -5.5228 C   0  0  0  0  0  0  0  0  0  0  0  0
   29.1160  -19.9452   -4.4209 C   0  0  0  0  0  0  0  0  0  0  0  0
   27.8068  -19.5339   -4.5374 C   0  0  0  0  0  0  0  0  0  0  0  0
   27.1304  -19.6069   -5.7294 C   0  0  0  0  0  0  0  0  0  0  0  0
   27.7490  -20.0973   -6.8479 C   0  0  0  0  0  0  0  0  0  0  0  0
   24.5053  -20.1927  -10.7247 C   0  0  0  0  0  0  0  0  0  0  0  0
   24.4158  -19.2693  -11.5962 O   0  0  0  0  0  0  0  0  0  0  0  0
   20.0163  -20.6449  -13.1614 N   0  0  0  0  0  0  0  0  0  0  0  0
   21.2448  -21.2662  -13.4886 C   0  0  0  0  0  0  0  0  0  0  0  0
   21.3769  -21.7472  -14.6390 O   0  0  0  0  0  0  0  0  0  0  0  0
   22.3729  -21.3739  -12.5432 C   0  0  0  0  0  0  0  0  0  0  0  0
   22.0807  -20.6667  -11.2114 C   0  0  2  0  0  0  0  0  0  0  0  0
   23.2821  -20.8437  -10.4042 N   0  0  0  0  0  0  0  0  0  0  0  0
   20.8881  -21.2190  -10.5442 C   0  0  0  0  0  0  0  0  0  0  0  0
   19.7395  -20.4862  -10.3048 O   0  0  0  0  0  0  0  0  0  0  0  0
   20.9019  -22.4129  -10.1686 O   0  0  0  0  0  0  0  0  0  0  0  0
  2  1  1  1
  2  3  1  0
  4  5  1  0
  4  2  1  0
  5  6  1  6
  7  5  1  0
  7  8  2  0
  9  7  1  0
 10  9  1  0
 10 11  1  1
 12 11  1  0
 13 12  2  0
 14 13  1  0
 15 14  1  0
 15 20  2  0
 16 15  1  0
 17 16  2  0
 17 18  1  0
 18 19  2  0
 19 20  1  0
 20 12  1  0
 21 10  1  0
 22 21  2  0
 23 24  1  0
 24 26  1  0
 24 25  2  0
 27 26  1  6
 27 28  1  0
 27 29  1  0
 28 21  1  0
 29 30  1  0
 31 29  2  0
M  END
$$$$
