LWN.pdb
     RDKit          3D

 31 32  0  0  1  0  0  0  0  0999 V2000
   28.9238  -18.3444  -15.8400 C   0  0  0  0  0  0  0  0  0  0  0  0
   27.6059  -18.9137  -16.2797 C   0  0  2  0  0  0  0  0  0  0  0  0
   26.7637  -17.7471  -16.7845 C   0  0  0  0  0  0  0  0  0  0  0  0
   26.8533  -19.5329  -15.1065 C   0  0  0  0  0  0  0  0  0  0  0  0
   27.6565  -20.6142  -14.4621 C   0  0  2  0  0  0  0  0  0  0  0  0
   27.7901  -21.7890  -15.2811 N   0  0  0  0  0  0  0  0  0  0  0  0
   27.0817  -20.9159  -13.1274 C   0  0  0  0  0  0  0  0  0  0  0  0
   26.0516  -21.6358  -13.0757 O   0  0  0  0  0  0  0  0  0  0  0  0
   27.6265  -20.4405  -11.9176 N   0  0  0  0  0  0  0  0  0  0  0  0
   27.0015  -20.7313  -10.6645 C   0  0  1  0  0  0  0  0  0  0  0  0
   27.8184  -20.4754   -9.4488 C   0  0  0  0  0  0  0  0  0  0  0  0
   27.0970  -20.5903   -8.1762 C   0  0  0  0  0  0  0  0  0  0  0  0
   25.8288  -21.1049   -8.0003 C   0  0  0  0  0  0  0  0  0  0  0  0
   25.4811  -21.0390   -6.7099 N   0  0  0  0  0  0  0  0  0  0  0  0
   26.4909  -20.4865   -5.9892 C   0  0  0  0  0  0  0  0  0  0  0  0
   26.6216  -20.2139   -4.6477 C   0  0  0  0  0  0  0  0  0  0  0  0
   27.7853  -19.6485   -4.1989 C   0  0  0  0  0  0  0  0  0  0  0  0
   28.7883  -19.3699   -5.1005 C   0  0  0  0  0  0  0  0  0  0  0  0
   28.6528  -19.6437   -6.4386 C   0  0  0  0  0  0  0  0  0  0  0  0
   27.5010  -20.2082   -6.9170 C   0  0  0  0  0  0  0  0  0  0  0  0
   25.6570  -20.0956  -10.6542 C   0  0  0  0  0  0  0  0  0  0  0  0
   25.5321  -18.8313  -10.7331 O   0  0  0  0  0  0  0  0  0  0  0  0
   20.8391  -19.0946  -12.0977 N   0  0  0  0  0  0  0  0  0  0  0  0
   22.0239  -19.1796  -12.8668 C   0  0  0  0  0  0  0  0  0  0  0  0
   21.9936  -18.7621  -14.0487 O   0  0  0  0  0  0  0  0  0  0  0  0
   23.2880  -19.7343  -12.3449 C   0  0  0  0  0  0  0  0  0  0  0  0
   23.1530  -20.2130  -10.8916 C   0  0  2  0  0  0  0  0  0  0  0  0
   24.4367  -20.8201  -10.5603 N   0  0  0  0  0  0  0  0  0  0  0  0
   22.0397  -21.1647  -10.7260 C   0  0  0  0  0  0  0  0  0  0  0  0
   20.8725  -20.8634  -10.0474 O   0  0  0  0  0  0  0  0  0  0  0  0
   22.1428  -22.3101  -11.2202 O   0  0  0  0  0  0  0  0  0  0  0  0
  2  1  1  1
  2  3  1  0
  4  5  1  0
  4  2  1  0
  5  6  1  6
  7  5  1  0
  7  8  2  0
  9  7  1  0
 10  9  1  0
 10 11  1  1
 12 11  1  0
 13 12  2  0
 14 13  1  0
 15 14  1  0
 15 20  2  0
 16 15  1  0
 17 16  2  0
 17 18  1  0
 18 19  2  0
 19 20  1  0
 20 12  1  0
 21 10  1  0
 22 21  2  0
 23 24  1  0
 24 26  1  0
 24 25  2  0
 27 26  1  6
 27 28  1  0
 27 29  1  0
 28 21  1  0
 29 30  1  0
 31 29  2  0
M  END
$$$$
