LWN.pdb
     RDKit          3D

 31 32  0  0  1  0  0  0  0  0999 V2000
   29.2671  -18.0510  -15.2375 C   0  0  0  0  0  0  0  0  0  0  0  0
   27.8047  -18.3855  -15.2987 C   0  0  2  0  0  0  0  0  0  0  0  0
   27.0790  -17.1252  -15.7572 C   0  0  0  0  0  0  0  0  0  0  0  0
   27.2606  -18.7364  -13.9178 C   0  0  0  0  0  0  0  0  0  0  0  0
   27.7812  -20.0567  -13.4537 C   0  0  2  0  0  0  0  0  0  0  0  0
   28.0801  -20.9613  -14.5312 N   0  0  0  0  0  0  0  0  0  0  0  0
   26.8290  -20.6368  -12.4741 C   0  0  0  0  0  0  0  0  0  0  0  0
   26.0624  -21.5538  -12.8658 O   0  0  0  0  0  0  0  0  0  0  0  0
   26.7375  -20.2166  -11.1318 N   0  0  0  0  0  0  0  0  0  0  0  0
   25.6931  -20.6955  -10.2803 C   0  0  1  0  0  0  0  0  0  0  0  0
   25.8988  -20.5069   -8.8198 C   0  0  0  0  0  0  0  0  0  0  0  0
   27.2648  -20.7544   -8.3446 C   0  0  0  0  0  0  0  0  0  0  0  0
   28.2392  -21.4777   -9.0014 C   0  0  0  0  0  0  0  0  0  0  0  0
   29.3581  -21.5123   -8.2686 N   0  0  0  0  0  0  0  0  0  0  0  0
   29.1728  -20.8225   -7.1134 C   0  0  0  0  0  0  0  0  0  0  0  0
   30.0079  -20.5650   -6.0517 C   0  0  0  0  0  0  0  0  0  0  0  0
   29.5359  -19.8163   -5.0066 C   0  0  0  0  0  0  0  0  0  0  0  0
   28.2429  -19.3440   -5.0485 C   0  0  0  0  0  0  0  0  0  0  0  0
   27.4133  -19.6041   -6.1106 C   0  0  0  0  0  0  0  0  0  0  0  0
   27.8567  -20.3500   -7.1694 C   0  0  0  0  0  0  0  0  0  0  0  0
   24.3965  -20.1810  -10.7961 C   0  0  0  0  0  0  0  0  0  0  0  0
   24.3526  -19.1453  -11.5347 O   0  0  0  0  0  0  0  0  0  0  0  0
   21.4556  -20.6240  -14.9456 N   0  0  0  0  0  0  0  0  0  0  0  0
   21.3781  -21.3691  -13.7451 C   0  0  0  0  0  0  0  0  0  0  0  0
   20.3525  -22.0617  -13.5433 O   0  0  0  0  0  0  0  0  0  0  0  0
   22.4435  -21.3690  -12.7238 C   0  0  0  0  0  0  0  0  0  0  0  0
   22.0078  -20.6581  -11.4338 C   0  0  2  0  0  0  0  0  0  0  0  0
   23.1372  -20.7818  -10.5199 N   0  0  0  0  0  0  0  0  0  0  0  0
   20.7804  -21.2462  -10.8680 C   0  0  0  0  0  0  0  0  0  0  0  0
   19.5325  -20.6592  -10.9766 O   0  0  0  0  0  0  0  0  0  0  0  0
   20.8570  -22.3341  -10.2536 O   0  0  0  0  0  0  0  0  0  0  0  0
  2  1  1  1
  2  3  1  0
  4  5  1  0
  4  2  1  0
  5  6  1  6
  7  5  1  0
  7  8  2  0
  9  7  1  0
 10  9  1  0
 10 11  1  1
 12 11  1  0
 13 12  2  0
 14 13  1  0
 15 14  1  0
 15 20  2  0
 16 15  1  0
 17 16  2  0
 17 18  1  0
 18 19  2  0
 19 20  1  0
 20 12  1  0
 21 10  1  0
 22 21  2  0
 23 24  1  0
 24 26  1  0
 24 25  2  0
 27 26  1  6
 27 28  1  0
 27 29  1  0
 28 21  1  0
 29 30  1  0
 31 29  2  0
M  END
$$$$
