LWN.pdb
     RDKit          3D

 31 32  0  0  1  0  0  0  0  0999 V2000
   29.2758  -18.0062  -16.0127 C   0  0  0  0  0  0  0  0  0  0  0  0
   27.8520  -18.2962  -16.3903 C   0  0  2  0  0  0  0  0  0  0  0  0
   27.1834  -16.9543  -16.6684 C   0  0  0  0  0  0  0  0  0  0  0  0
   27.0948  -18.9410  -15.2340 C   0  0  0  0  0  0  0  0  0  0  0  0
   27.7463  -20.2152  -14.8079 C   0  0  2  0  0  0  0  0  0  0  0  0
   27.7134  -21.2372  -15.8193 N   0  0  0  0  0  0  0  0  0  0  0  0
   27.1433  -20.6644  -13.5283 C   0  0  0  0  0  0  0  0  0  0  0  0
   26.0799  -21.3343  -13.5782 O   0  0  0  0  0  0  0  0  0  0  0  0
   27.6965  -20.3816  -12.2632 N   0  0  0  0  0  0  0  0  0  0  0  0
   27.0611  -20.8338  -11.0644 C   0  0  1  0  0  0  0  0  0  0  0  0
   27.8779  -20.7673   -9.8236 C   0  0  0  0  0  0  0  0  0  0  0  0
   27.1123  -20.7559   -8.5719 C   0  0  0  0  0  0  0  0  0  0  0  0
   25.8212  -21.2119   -8.4005 C   0  0  0  0  0  0  0  0  0  0  0  0
   25.4349  -21.0314   -7.1322 N   0  0  0  0  0  0  0  0  0  0  0  0
   26.4404  -20.4574   -6.4224 C   0  0  0  0  0  0  0  0  0  0  0  0
   26.5377  -20.0831   -5.1028 C   0  0  0  0  0  0  0  0  0  0  0  0
   27.7062  -19.5231   -4.6594 C   0  0  0  0  0  0  0  0  0  0  0  0
   28.7471  -19.3514   -5.5447 C   0  0  0  0  0  0  0  0  0  0  0  0
   28.6448  -19.7264   -6.8610 C   0  0  0  0  0  0  0  0  0  0  0  0
   27.4893  -20.2883   -7.3334 C   0  0  0  0  0  0  0  0  0  0  0  0
   25.7288  -20.1801  -10.9662 C   0  0  0  0  0  0  0  0  0  0  0  0
   25.6200  -18.9123  -10.9971 O   0  0  0  0  0  0  0  0  0  0  0  0
   20.8687  -19.0273  -12.1084 N   0  0  0  0  0  0  0  0  0  0  0  0
   21.8719  -19.4283  -13.0223 C   0  0  0  0  0  0  0  0  0  0  0  0
   21.6693  -19.2380  -14.2449 O   0  0  0  0  0  0  0  0  0  0  0  0
   23.1403  -20.0573  -12.6052 C   0  0  0  0  0  0  0  0  0  0  0  0
   23.2147  -20.2548  -11.0837 C   0  0  2  0  0  0  0  0  0  0  0  0
   24.5035  -20.8903  -10.8358 N   0  0  0  0  0  0  0  0  0  0  0  0
   22.0967  -21.0719  -10.5787 C   0  0  0  0  0  0  0  0  0  0  0  0
   21.0755  -20.5665   -9.7943 O   0  0  0  0  0  0  0  0  0  0  0  0
   22.0570  -22.2893  -10.8669 O   0  0  0  0  0  0  0  0  0  0  0  0
  2  1  1  1
  2  3  1  0
  4  5  1  0
  4  2  1  0
  5  6  1  6
  7  5  1  0
  7  8  2  0
  9  7  1  0
 10  9  1  0
 10 11  1  1
 12 11  1  0
 13 12  2  0
 14 13  1  0
 15 14  1  0
 15 20  2  0
 16 15  1  0
 17 16  2  0
 17 18  1  0
 18 19  2  0
 19 20  1  0
 20 12  1  0
 21 10  1  0
 22 21  2  0
 23 24  1  0
 24 26  1  0
 24 25  2  0
 27 26  1  6
 27 28  1  0
 27 29  1  0
 28 21  1  0
 29 30  1  0
 31 29  2  0
M  END
$$$$
