LWN.pdb
     RDKit          3D

 31 32  0  0  1  0  0  0  0  0999 V2000
   28.1044  -21.3833  -16.9689 C   0  0  0  0  0  0  0  0  0  0  0  0
   28.8822  -21.7358  -15.7341 C   0  0  2  0  0  0  0  0  0  0  0  0
   29.6428  -23.0216  -16.0396 C   0  0  0  0  0  0  0  0  0  0  0  0
   27.9522  -22.0349  -14.5627 C   0  0  0  0  0  0  0  0  0  0  0  0
   27.1428  -20.8344  -14.1980 C   0  0  2  0  0  0  0  0  0  0  0  0
   27.9360  -19.6503  -14.0047 N   0  0  0  0  0  0  0  0  0  0  0  0
   26.3051  -21.1548  -13.0155 C   0  0  0  0  0  0  0  0  0  0  0  0
   25.6816  -22.2472  -13.0104 O   0  0  0  0  0  0  0  0  0  0  0  0
   26.1708  -20.3032  -11.9004 N   0  0  0  0  0  0  0  0  0  0  0  0
   25.2615  -20.6150  -10.8415 C   0  0  1  0  0  0  0  0  0  0  0  0
   25.6179  -20.0932   -9.4956 C   0  0  0  0  0  0  0  0  0  0  0  0
   26.9618  -20.4469   -9.0245 C   0  0  0  0  0  0  0  0  0  0  0  0
   27.8887  -21.2130   -9.7012 C   0  0  0  0  0  0  0  0  0  0  0  0
   28.9991  -21.3459   -8.9666 N   0  0  0  0  0  0  0  0  0  0  0  0
   28.8547  -20.6822   -7.7906 C   0  0  0  0  0  0  0  0  0  0  0  0
   29.6997  -20.5152   -6.7187 C   0  0  0  0  0  0  0  0  0  0  0  0
   29.2738  -19.7700   -5.6516 C   0  0  0  0  0  0  0  0  0  0  0  0
   28.0156  -19.2108   -5.6822 C   0  0  0  0  0  0  0  0  0  0  0  0
   27.1759  -19.3806   -6.7544 C   0  0  0  0  0  0  0  0  0  0  0  0
   27.5735  -20.1208   -7.8353 C   0  0  0  0  0  0  0  0  0  0  0  0
   23.8850  -20.2787  -11.2932 C   0  0  0  0  0  0  0  0  0  0  0  0
   23.6784  -19.3080  -12.0902 O   0  0  0  0  0  0  0  0  0  0  0  0
   20.2297  -20.3192  -14.8274 N   0  0  0  0  0  0  0  0  0  0  0  0
   20.4199  -21.2725  -13.7991 C   0  0  0  0  0  0  0  0  0  0  0  0
   19.4954  -22.0877  -13.5691 O   0  0  0  0  0  0  0  0  0  0  0  0
   21.6505  -21.3517  -12.9881 C   0  0  0  0  0  0  0  0  0  0  0  0
   21.4399  -20.8158  -11.5641 C   0  0  2  0  0  0  0  0  0  0  0  0
   22.7208  -20.9889  -10.8891 N   0  0  0  0  0  0  0  0  0  0  0  0
   20.3534  -21.5242  -10.8638 C   0  0  0  0  0  0  0  0  0  0  0  0
   20.3753  -22.8811  -10.5960 O   0  0  0  0  0  0  0  0  0  0  0  0
   19.3515  -20.8757  -10.4864 O   0  0  0  0  0  0  0  0  0  0  0  0
  2  1  1  6
  2  3  1  0
  4  5  1  0
  4  2  1  0
  5  6  1  1
  7  5  1  0
  7  8  2  0
  9  7  1  0
 10  9  1  0
 10 11  1  1
 12 11  1  0
 13 12  2  0
 14 13  1  0
 15 14  1  0
 15 20  2  0
 16 15  1  0
 17 16  2  0
 17 18  1  0
 18 19  2  0
 19 20  1  0
 20 12  1  0
 21 10  1  0
 22 21  2  0
 23 24  1  0
 24 26  1  0
 24 25  2  0
 27 26  1  6
 27 28  1  0
 27 29  1  0
 28 21  1  0
 29 30  1  0
 31 29  2  0
M  END
$$$$
