LWN.pdb
     RDKit          3D

 31 32  0  0  1  0  0  0  0  0999 V2000
   29.1856  -23.0294  -19.3419 C   0  0  0  0  0  0  0  0  0  0  0  0
   29.7299  -22.8099  -17.9600 C   0  0  2  0  0  0  0  0  0  0  0  0
   30.8749  -23.7990  -17.7707 C   0  0  0  0  0  0  0  0  0  0  0  0
   28.6835  -23.1298  -16.8975 C   0  0  0  0  0  0  0  0  0  0  0  0
   27.5164  -22.2036  -16.9953 C   0  0  2  0  0  0  0  0  0  0  0  0
   27.8642  -20.9006  -17.4951 N   0  0  0  0  0  0  0  0  0  0  0  0
   26.8337  -22.1423  -15.6789 C   0  0  0  0  0  0  0  0  0  0  0  0
   26.6288  -23.2223  -15.0677 O   0  0  0  0  0  0  0  0  0  0  0  0
   26.4036  -20.9420  -15.0781 N   0  0  0  0  0  0  0  0  0  0  0  0
   25.7353  -20.9502  -13.8138 C   0  0  1  0  0  0  0  0  0  0  0  0
   26.0722  -19.8379  -12.8863 C   0  0  0  0  0  0  0  0  0  0  0  0
   26.2514  -20.2276  -11.4830 C   0  0  0  0  0  0  0  0  0  0  0  0
   25.2899  -20.1833  -10.4943 C   0  0  0  0  0  0  0  0  0  0  0  0
   25.8074  -20.5962   -9.3315 N   0  0  0  0  0  0  0  0  0  0  0  0
   27.1137  -20.9265   -9.5009 C   0  0  0  0  0  0  0  0  0  0  0  0
   28.0633  -21.4017   -8.6271 C   0  0  0  0  0  0  0  0  0  0  0  0
   29.3239  -21.6577   -9.0968 C   0  0  0  0  0  0  0  0  0  0  0  0
   29.6041  -21.4329  -10.4263 C   0  0  0  0  0  0  0  0  0  0  0  0
   28.6528  -20.9582  -11.2944 C   0  0  0  0  0  0  0  0  0  0  0  0
   27.3841  -20.6925  -10.8540 C   0  0  0  0  0  0  0  0  0  0  0  0
   24.2798  -21.1376  -14.0556 C   0  0  0  0  0  0  0  0  0  0  0  0
   23.7134  -20.6127  -15.0673 O   0  0  0  0  0  0  0  0  0  0  0  0
   19.3363  -24.2366  -11.7965 N   0  0  0  0  0  0  0  0  0  0  0  0
   20.0720  -23.3899  -12.6592 C   0  0  0  0  0  0  0  0  0  0  0  0
   19.5108  -22.9739  -13.7004 O   0  0  0  0  0  0  0  0  0  0  0  0
   21.4630  -22.9754  -12.3917 C   0  0  0  0  0  0  0  0  0  0  0  0
   21.9930  -22.0066  -13.4593 C   0  0  2  0  0  0  0  0  0  0  0  0
   23.4249  -21.8946  -13.2076 N   0  0  0  0  0  0  0  0  0  0  0  0
   21.3229  -20.6953  -13.3949 C   0  0  0  0  0  0  0  0  0  0  0  0
   21.4603  -19.8194  -12.3331 O   0  0  0  0  0  0  0  0  0  0  0  0
   20.5871  -20.3433  -14.3443 O   0  0  0  0  0  0  0  0  0  0  0  0
  2  1  1  6
  2  3  1  0
  4  5  1  0
  4  2  1  0
  5  6  1  1
  7  5  1  0
  7  8  2  0
  9  7  1  0
 10  9  1  0
 10 11  1  6
 12 11  1  0
 13 12  2  0
 14 13  1  0
 15 14  1  0
 15 20  2  0
 16 15  1  0
 17 16  2  0
 17 18  1  0
 18 19  2  0
 19 20  1  0
 20 12  1  0
 21 10  1  0
 22 21  2  0
 23 24  1  0
 24 26  1  0
 24 25  2  0
 27 26  1  1
 27 28  1  0
 27 29  1  0
 28 21  1  0
 29 30  1  0
 31 29  2  0
M  END
$$$$
