LWN.pdb
     RDKit          3D

 31 32  0  0  1  0  0  0  0  0999 V2000
   17.7340  -33.4418   -9.8238 C   0  0  0  0  0  0  0  0  0  0  0  0
   18.8811  -33.4925   -8.8565 C   0  0  2  0  0  0  0  0  0  0  0  0
   18.3645  -34.1641   -7.5888 C   0  0  0  0  0  0  0  0  0  0  0  0
   19.3355  -32.0901   -8.4652 C   0  0  0  0  0  0  0  0  0  0  0  0
   19.7644  -31.3094   -9.6635 C   0  0  2  0  0  0  0  0  0  0  0  0
   21.0460  -31.7129  -10.1769 N   0  0  0  0  0  0  0  0  0  0  0  0
   19.7126  -29.8611   -9.3432 C   0  0  0  0  0  0  0  0  0  0  0  0
   20.6321  -29.3787   -8.6333 O   0  0  0  0  0  0  0  0  0  0  0  0
   18.6911  -28.9990   -9.7905 N   0  0  0  0  0  0  0  0  0  0  0  0
   18.7570  -27.5913   -9.5468 C   0  0  1  0  0  0  0  0  0  0  0  0
   18.7962  -26.7182  -10.7497 C   0  0  0  0  0  0  0  0  0  0  0  0
   18.6748  -25.2806  -10.4821 C   0  0  0  0  0  0  0  0  0  0  0  0
   19.2323  -24.5980   -9.4203 C   0  0  0  0  0  0  0  0  0  0  0  0
   18.9025  -23.3028   -9.4829 N   0  0  0  0  0  0  0  0  0  0  0  0
   18.1247  -23.0784  -10.5733 C   0  0  0  0  0  0  0  0  0  0  0  0
   17.5457  -21.9346  -11.0707 C   0  0  0  0  0  0  0  0  0  0  0  0
   16.8052  -22.0150  -12.2199 C   0  0  0  0  0  0  0  0  0  0  0  0
   16.6619  -23.2349  -12.8428 C   0  0  0  0  0  0  0  0  0  0  0  0
   17.2417  -24.3737  -12.3421 C   0  0  0  0  0  0  0  0  0  0  0  0
   17.9871  -24.3247  -11.1948 C   0  0  0  0  0  0  0  0  0  0  0  0
   17.7038  -27.2384   -8.5577 C   0  0  0  0  0  0  0  0  0  0  0  0
   16.5333  -27.7304   -8.6470 O   0  0  0  0  0  0  0  0  0  0  0  0
   17.9629  -26.9755   -3.0032 N   0  0  0  0  0  0  0  0  0  0  0  0
   17.2262  -26.8071   -4.1996 C   0  0  0  0  0  0  0  0  0  0  0  0
   16.2772  -27.5947   -4.4262 O   0  0  0  0  0  0  0  0  0  0  0  0
   17.5214  -25.7524   -5.1888 C   0  0  0  0  0  0  0  0  0  0  0  0
   16.8330  -26.0149   -6.5366 C   0  0  2  0  0  0  0  0  0  0  0  0
   17.9068  -26.3528   -7.4634 N   0  0  0  0  0  0  0  0  0  0  0  0
   16.0608  -24.8471   -6.9977 C   0  0  0  0  0  0  0  0  0  0  0  0
   14.6841  -24.7550   -6.8985 O   0  0  0  0  0  0  0  0  0  0  0  0
   16.6704  -23.8806   -7.5087 O   0  0  0  0  0  0  0  0  0  0  0  0
  2  1  1  6
  2  3  1  0
  4  5  1  0
  4  2  1  0
  5  6  1  1
  7  5  1  0
  7  8  2  0
  9  7  1  0
 10  9  1  0
 10 11  1  6
 12 11  1  0
 13 12  2  0
 14 13  1  0
 15 14  1  0
 15 20  2  0
 16 15  1  0
 17 16  2  0
 17 18  1  0
 18 19  2  0
 19 20  1  0
 20 12  1  0
 21 10  1  0
 22 21  2  0
 23 24  1  0
 24 26  1  0
 24 25  2  0
 27 26  1  1
 27 28  1  0
 27 29  1  0
 28 21  1  0
 29 30  1  0
 31 29  2  0
M  END
$$$$
