LWN.pdb
     RDKit          3D

 31 32  0  0  1  0  0  0  0  0999 V2000
   25.9272  -17.3041  -21.0311 C   0  0  0  0  0  0  0  0  0  0  0  0
   26.4630  -18.6694  -20.7100 C   0  0  2  0  0  0  0  0  0  0  0  0
   26.1915  -19.5505  -21.9244 C   0  0  0  0  0  0  0  0  0  0  0  0
   25.7193  -19.2910  -19.5323 C   0  0  0  0  0  0  0  0  0  0  0  0
   25.9325  -18.5008  -18.2835 C   0  0  2  0  0  0  0  0  0  0  0  0
   27.2498  -17.9312  -18.1882 N   0  0  0  0  0  0  0  0  0  0  0  0
   25.5939  -19.3453  -17.1110 C   0  0  0  0  0  0  0  0  0  0  0  0
   24.6771  -20.1967  -17.2399 O   0  0  0  0  0  0  0  0  0  0  0  0
   26.2426  -19.2452  -15.8637 N   0  0  0  0  0  0  0  0  0  0  0  0
   25.8210  -20.0360  -14.7492 C   0  0  1  0  0  0  0  0  0  0  0  0
   26.7671  -20.1145  -13.6048 C   0  0  0  0  0  0  0  0  0  0  0  0
   26.3194  -20.9439  -12.4802 C   0  0  0  0  0  0  0  0  0  0  0  0
   26.0223  -22.2906  -12.5265 C   0  0  0  0  0  0  0  0  0  0  0  0
   25.6302  -22.7163  -11.3202 N   0  0  0  0  0  0  0  0  0  0  0  0
   25.6519  -21.6835  -10.4386 C   0  0  0  0  0  0  0  0  0  0  0  0
   25.3482  -21.6105   -9.0994 C   0  0  0  0  0  0  0  0  0  0  0  0
   25.4750  -20.4073   -8.4579 C   0  0  0  0  0  0  0  0  0  0  0  0
   25.9019  -19.3082   -9.1696 C   0  0  0  0  0  0  0  0  0  0  0  0
   26.2035  -19.3862  -10.5063 C   0  0  0  0  0  0  0  0  0  0  0  0
   26.0858  -20.5752  -11.1747 C   0  0  0  0  0  0  0  0  0  0  0  0
   24.4377  -19.6296  -14.3843 C   0  0  0  0  0  0  0  0  0  0  0  0
   24.1159  -18.4002  -14.3134 O   0  0  0  0  0  0  0  0  0  0  0  0
   19.4243  -19.2058  -13.2163 N   0  0  0  0  0  0  0  0  0  0  0  0
   19.8549  -19.4765  -14.5368 C   0  0  0  0  0  0  0  0  0  0  0  0
   19.0309  -19.3284  -15.4702 O   0  0  0  0  0  0  0  0  0  0  0  0
   21.2227  -19.9230  -14.8652 C   0  0  0  0  0  0  0  0  0  0  0  0
   22.0891  -20.1033  -13.6097 C   0  0  2  0  0  0  0  0  0  0  0  0
   23.3905  -20.5475  -14.0946 N   0  0  0  0  0  0  0  0  0  0  0  0
   21.4985  -21.0700  -12.6667 C   0  0  0  0  0  0  0  0  0  0  0  0
   22.1026  -22.2655  -12.3210 O   0  0  0  0  0  0  0  0  0  0  0  0
   20.3917  -20.8083  -12.1440 O   0  0  0  0  0  0  0  0  0  0  0  0
  2  1  1  6
  2  3  1  0
  4  5  1  0
  4  2  1  0
  5  6  1  1
  7  5  1  0
  7  8  2  0
  9  7  1  0
 10  9  1  0
 10 11  1  1
 12 11  1  0
 13 12  2  0
 14 13  1  0
 15 14  1  0
 15 20  2  0
 16 15  1  0
 17 16  2  0
 17 18  1  0
 18 19  2  0
 19 20  1  0
 20 12  1  0
 21 10  1  0
 22 21  2  0
 23 24  1  0
 24 26  1  0
 24 25  2  0
 27 26  1  6
 27 28  1  0
 27 29  1  0
 28 21  1  0
 29 30  1  0
 31 29  2  0
M  END
$$$$
