LWN.pdb
     RDKit          3D

 31 32  0  0  1  0  0  0  0  0999 V2000
   28.7388  -18.0087  -16.9454 C   0  0  0  0  0  0  0  0  0  0  0  0
   27.4405  -17.7617  -17.6578 C   0  0  2  0  0  0  0  0  0  0  0  0
   27.7429  -16.8232  -18.8209 C   0  0  0  0  0  0  0  0  0  0  0  0
   26.4427  -17.0452  -16.7538 C   0  0  0  0  0  0  0  0  0  0  0  0
   25.1199  -16.8899  -17.4287 C   0  0  2  0  0  0  0  0  0  0  0  0
   24.9083  -15.5746  -17.9707 N   0  0  0  0  0  0  0  0  0  0  0  0
   24.0450  -17.2955  -16.4891 C   0  0  0  0  0  0  0  0  0  0  0  0
   23.9583  -16.6878  -15.3912 O   0  0  0  0  0  0  0  0  0  0  0  0
   23.1182  -18.3223  -16.7598 N   0  0  0  0  0  0  0  0  0  0  0  0
   22.0593  -18.6179  -15.8451 C   0  0  1  0  0  0  0  0  0  0  0  0
   20.6863  -18.2669  -16.2951 C   0  0  0  0  0  0  0  0  0  0  0  0
   20.3099  -16.8604  -16.1126 C   0  0  0  0  0  0  0  0  0  0  0  0
   20.3617  -15.8703  -17.0723 C   0  0  0  0  0  0  0  0  0  0  0  0
   19.9605  -14.7047  -16.5520 N   0  0  0  0  0  0  0  0  0  0  0  0
   19.6309  -14.8735  -15.2454 C   0  0  0  0  0  0  0  0  0  0  0  0
   19.1654  -13.9971  -14.2934 C   0  0  0  0  0  0  0  0  0  0  0  0
   18.9072  -14.4667  -13.0332 C   0  0  0  0  0  0  0  0  0  0  0  0
   19.1202  -15.7988  -12.7559 C   0  0  0  0  0  0  0  0  0  0  0  0
   19.5852  -16.6695  -13.7096 C   0  0  0  0  0  0  0  0  0  0  0  0
   19.8528  -16.2292  -14.9780 C   0  0  0  0  0  0  0  0  0  0  0  0
   22.2206  -20.0218  -15.3812 C   0  0  0  0  0  0  0  0  0  0  0  0
   23.0524  -20.8037  -15.9440 O   0  0  0  0  0  0  0  0  0  0  0  0
   23.5782  -24.4756  -13.7577 N   0  0  0  0  0  0  0  0  0  0  0  0
   23.6343  -23.3125  -12.9536 C   0  0  0  0  0  0  0  0  0  0  0  0
   24.0611  -23.4243  -11.7799 O   0  0  0  0  0  0  0  0  0  0  0  0
   23.2156  -21.9798  -13.4298 C   0  0  0  0  0  0  0  0  0  0  0  0
   21.7348  -21.9503  -13.8369 C   0  0  2  0  0  0  0  0  0  0  0  0
   21.4861  -20.5918  -14.3048 N   0  0  0  0  0  0  0  0  0  0  0  0
   20.8479  -22.3130  -12.7168 C   0  0  0  0  0  0  0  0  0  0  0  0
   19.9863  -21.4201  -12.1055 O   0  0  0  0  0  0  0  0  0  0  0  0
   20.8657  -23.4880  -12.2855 O   0  0  0  0  0  0  0  0  0  0  0  0
  2  1  1  1
  2  3  1  0
  4  5  1  0
  4  2  1  0
  5  6  1  1
  7  5  1  0
  7  8  2  0
  9  7  1  0
 10  9  1  0
 10 11  1  6
 12 11  1  0
 13 12  2  0
 14 13  1  0
 15 14  1  0
 15 20  2  0
 16 15  1  0
 17 16  2  0
 17 18  1  0
 18 19  2  0
 19 20  1  0
 20 12  1  0
 21 10  1  0
 22 21  2  0
 23 24  1  0
 24 26  1  0
 24 25  2  0
 27 26  1  1
 27 28  1  0
 27 29  1  0
 28 21  1  0
 29 30  1  0
 31 29  2  0
M  END
$$$$
