LWN.pdb
     RDKit          3D

 31 32  0  0  1  0  0  0  0  0999 V2000
   27.3495  -17.6208  -17.2556 C   0  0  0  0  0  0  0  0  0  0  0  0
   28.1828  -18.7340  -16.6894 C   0  0  2  0  0  0  0  0  0  0  0  0
   28.6589  -19.5767  -17.8676 C   0  0  0  0  0  0  0  0  0  0  0  0
   27.3500  -19.6468  -15.7952 C   0  0  0  0  0  0  0  0  0  0  0  0
   26.7318  -18.8818  -14.6718 C   0  0  2  0  0  0  0  0  0  0  0  0
   27.6844  -18.1192  -13.9104 N   0  0  0  0  0  0  0  0  0  0  0  0
   25.9450  -19.8131  -13.8254 C   0  0  0  0  0  0  0  0  0  0  0  0
   25.4603  -20.8394  -14.3676 O   0  0  0  0  0  0  0  0  0  0  0  0
   25.7120  -19.6102  -12.4503 N   0  0  0  0  0  0  0  0  0  0  0  0
   24.9646  -20.5576  -11.6828 C   0  0  1  0  0  0  0  0  0  0  0  0
   25.2151  -20.5585  -10.2171 C   0  0  0  0  0  0  0  0  0  0  0  0
   26.6145  -20.7572   -9.8230 C   0  0  0  0  0  0  0  0  0  0  0  0
   27.5885  -21.3954  -10.5635 C   0  0  0  0  0  0  0  0  0  0  0  0
   28.7441  -21.4072   -9.8893 N   0  0  0  0  0  0  0  0  0  0  0  0
   28.5847  -20.7858   -8.6923 C   0  0  0  0  0  0  0  0  0  0  0  0
   29.4596  -20.5374   -7.6609 C   0  0  0  0  0  0  0  0  0  0  0  0
   29.0056  -19.8667   -6.5566 C   0  0  0  0  0  0  0  0  0  0  0  0
   27.6903  -19.4613   -6.5104 C   0  0  0  0  0  0  0  0  0  0  0  0
   26.8209  -19.7119   -7.5425 C   0  0  0  0  0  0  0  0  0  0  0  0
   27.2455  -20.3807   -8.6590 C   0  0  0  0  0  0  0  0  0  0  0  0
   23.5324  -20.4452  -12.0676 C   0  0  0  0  0  0  0  0  0  0  0  0
   22.9546  -19.3118  -12.1088 O   0  0  0  0  0  0  0  0  0  0  0  0
   21.3237  -20.4669  -15.4379 N   0  0  0  0  0  0  0  0  0  0  0  0
   21.1677  -21.8532  -15.2003 C   0  0  0  0  0  0  0  0  0  0  0  0
   21.1511  -22.6250  -16.1883 O   0  0  0  0  0  0  0  0  0  0  0  0
   21.0241  -22.4303  -13.8496 C   0  0  0  0  0  0  0  0  0  0  0  0
   21.3027  -21.3978  -12.7470 C   0  0  2  0  0  0  0  0  0  0  0  0
   22.7133  -21.5556  -12.4127 N   0  0  0  0  0  0  0  0  0  0  0  0
   20.4369  -21.5996  -11.5714 C   0  0  0  0  0  0  0  0  0  0  0  0
   19.1743  -21.0477  -11.4497 O   0  0  0  0  0  0  0  0  0  0  0  0
   20.8540  -22.3050  -10.6252 O   0  0  0  0  0  0  0  0  0  0  0  0
  2  1  1  6
  2  3  1  0
  4  5  1  0
  4  2  1  0
  5  6  1  1
  7  5  1  0
  7  8  2  0
  9  7  1  0
 10  9  1  0
 10 11  1  1
 12 11  1  0
 13 12  2  0
 14 13  1  0
 15 14  1  0
 15 20  2  0
 16 15  1  0
 17 16  2  0
 17 18  1  0
 18 19  2  0
 19 20  1  0
 20 12  1  0
 21 10  1  0
 22 21  2  0
 23 24  1  0
 24 26  1  0
 24 25  2  0
 27 26  1  6
 27 28  1  0
 27 29  1  0
 28 21  1  0
 29 30  1  0
 31 29  2  0
M  END
$$$$
