LWN.pdb
     RDKit          3D

 31 32  0  0  1  0  0  0  0  0999 V2000
   27.7184  -23.6556  -19.3712 C   0  0  0  0  0  0  0  0  0  0  0  0
   28.7735  -23.5119  -18.3128 C   0  0  2  0  0  0  0  0  0  0  0  0
   29.6199  -24.7796  -18.3537 C   0  0  0  0  0  0  0  0  0  0  0  0
   28.1528  -23.4344  -16.9217 C   0  0  0  0  0  0  0  0  0  0  0  0
   27.3111  -22.2098  -16.7754 C   0  0  2  0  0  0  0  0  0  0  0  0
   27.9343  -21.0246  -17.3005 N   0  0  0  0  0  0  0  0  0  0  0  0
   26.9158  -22.0596  -15.3528 C   0  0  0  0  0  0  0  0  0  0  0  0
   26.4674  -23.0704  -14.7533 O   0  0  0  0  0  0  0  0  0  0  0  0
   27.0155  -20.8485  -14.6388 N   0  0  0  0  0  0  0  0  0  0  0  0
   26.5502  -20.7487  -13.2902 C   0  0  1  0  0  0  0  0  0  0  0  0
   27.3104  -19.8320  -12.3998 C   0  0  0  0  0  0  0  0  0  0  0  0
   27.9422  -20.4701  -11.2394 C   0  0  0  0  0  0  0  0  0  0  0  0
   29.0396  -21.3064  -11.2645 C   0  0  0  0  0  0  0  0  0  0  0  0
   29.3324  -21.7172  -10.0253 N   0  0  0  0  0  0  0  0  0  0  0  0
   28.4537  -21.1770   -9.1419 C   0  0  0  0  0  0  0  0  0  0  0  0
   28.3380  -21.2860   -7.7760 C   0  0  0  0  0  0  0  0  0  0  0  0
   27.3344  -20.6037   -7.1415 C   0  0  0  0  0  0  0  0  0  0  0  0
   26.4725  -19.8301   -7.8868 C   0  0  0  0  0  0  0  0  0  0  0  0
   26.5922  -19.7247   -9.2500 C   0  0  0  0  0  0  0  0  0  0  0  0
   27.5850  -20.3956   -9.9121 C   0  0  0  0  0  0  0  0  0  0  0  0
   25.0824  -20.5110  -13.3185 C   0  0  0  0  0  0  0  0  0  0  0  0
   24.5750  -19.6549  -14.1121 O   0  0  0  0  0  0  0  0  0  0  0  0
   19.6718  -22.9138  -12.7588 N   0  0  0  0  0  0  0  0  0  0  0  0
   20.5992  -21.9793  -13.2773 C   0  0  0  0  0  0  0  0  0  0  0  0
   20.1527  -20.9701  -13.8726 O   0  0  0  0  0  0  0  0  0  0  0  0
   22.0612  -22.1363  -13.1507 C   0  0  0  0  0  0  0  0  0  0  0  0
   22.7237  -20.8988  -12.5269 C   0  0  2  0  0  0  0  0  0  0  0  0
   24.1506  -21.1969  -12.4912 N   0  0  0  0  0  0  0  0  0  0  0  0
   22.1927  -20.6079  -11.1830 C   0  0  0  0  0  0  0  0  0  0  0  0
   20.9771  -19.9862  -10.9609 O   0  0  0  0  0  0  0  0  0  0  0  0
   22.8675  -20.9349  -10.1808 O   0  0  0  0  0  0  0  0  0  0  0  0
  2  1  1  6
  2  3  1  0
  4  5  1  0
  4  2  1  0
  5  6  1  1
  7  5  1  0
  7  8  2  0
  9  7  1  0
 10  9  1  0
 10 11  1  6
 12 11  1  0
 13 12  2  0
 14 13  1  0
 15 14  1  0
 15 20  2  0
 16 15  1  0
 17 16  2  0
 17 18  1  0
 18 19  2  0
 19 20  1  0
 20 12  1  0
 21 10  1  0
 22 21  2  0
 23 24  1  0
 24 26  1  0
 24 25  2  0
 27 26  1  1
 27 28  1  0
 27 29  1  0
 28 21  1  0
 29 30  1  0
 31 29  2  0
M  END
$$$$
