LWN.pdb
     RDKit          3D

 31 32  0  0  1  0  0  0  0  0999 V2000
   25.9862  -18.6741  -21.5299 C   0  0  0  0  0  0  0  0  0  0  0  0
   26.1185  -20.1161  -21.1334 C   0  0  2  0  0  0  0  0  0  0  0  0
   25.1746  -20.9119  -22.0283 C   0  0  0  0  0  0  0  0  0  0  0  0
   25.6621  -20.3371  -19.6949 C   0  0  0  0  0  0  0  0  0  0  0  0
   26.3805  -19.4250  -18.7561 C   0  0  2  0  0  0  0  0  0  0  0  0
   27.7936  -19.6828  -18.6817 N   0  0  0  0  0  0  0  0  0  0  0  0
   25.7233  -19.4812  -17.4266 C   0  0  0  0  0  0  0  0  0  0  0  0
   24.7224  -20.2310  -17.2925 O   0  0  0  0  0  0  0  0  0  0  0  0
   26.1591  -18.7416  -16.3087 N   0  0  0  0  0  0  0  0  0  0  0  0
   25.4633  -18.8143  -15.0614 C   0  0  1  0  0  0  0  0  0  0  0  0
   26.2728  -18.5513  -13.8422 C   0  0  0  0  0  0  0  0  0  0  0  0
   26.5725  -19.7325  -13.0248 C   0  0  0  0  0  0  0  0  0  0  0  0
   27.4415  -20.7530  -13.3526 C   0  0  0  0  0  0  0  0  0  0  0  0
   27.4557  -21.6738  -12.3820 N   0  0  0  0  0  0  0  0  0  0  0  0
   26.6092  -21.3054  -11.3860 C   0  0  0  0  0  0  0  0  0  0  0  0
   26.2812  -21.9001  -10.1904 C   0  0  0  0  0  0  0  0  0  0  0  0
   25.3818  -21.2765   -9.3672 C   0  0  0  0  0  0  0  0  0  0  0  0
   24.8333  -20.0754   -9.7587 C   0  0  0  0  0  0  0  0  0  0  0  0
   25.1639  -19.4860  -10.9533 C   0  0  0  0  0  0  0  0  0  0  0  0
   26.0594  -20.0859  -11.7973 C   0  0  0  0  0  0  0  0  0  0  0  0
   24.2226  -18.0015  -15.1701 C   0  0  0  0  0  0  0  0  0  0  0  0
   24.2434  -16.8472  -15.7060 O   0  0  0  0  0  0  0  0  0  0  0  0
   19.6534  -15.8616  -15.6322 N   0  0  0  0  0  0  0  0  0  0  0  0
   20.4320  -16.4871  -16.6347 C   0  0  0  0  0  0  0  0  0  0  0  0
   20.1080  -16.3092  -17.8329 O   0  0  0  0  0  0  0  0  0  0  0  0
   21.6025  -17.3353  -16.3371 C   0  0  0  0  0  0  0  0  0  0  0  0
   21.7609  -17.5943  -14.8314 C   0  0  2  0  0  0  0  0  0  0  0  0
   22.9493  -18.4294  -14.7024 N   0  0  0  0  0  0  0  0  0  0  0  0
   20.5705  -18.2458  -14.2560 C   0  0  0  0  0  0  0  0  0  0  0  0
   20.6077  -19.4664  -13.6061 O   0  0  0  0  0  0  0  0  0  0  0  0
   19.4605  -17.6756  -14.3540 O   0  0  0  0  0  0  0  0  0  0  0  0
  2  1  1  6
  2  3  1  0
  4  5  1  0
  4  2  1  0
  5  6  1  1
  7  5  1  0
  7  8  2  0
  9  7  1  0
 10  9  1  0
 10 11  1  1
 12 11  1  0
 13 12  2  0
 14 13  1  0
 15 14  1  0
 15 20  2  0
 16 15  1  0
 17 16  2  0
 17 18  1  0
 18 19  2  0
 19 20  1  0
 20 12  1  0
 21 10  1  0
 22 21  2  0
 23 24  1  0
 24 26  1  0
 24 25  2  0
 27 26  1  6
 27 28  1  0
 27 29  1  0
 28 21  1  0
 29 30  1  0
 31 29  2  0
M  END
$$$$
