LWN.pdb
     RDKit          3D

 31 32  0  0  1  0  0  0  0  0999 V2000
   27.1607  -18.8514  -19.8754 C   0  0  0  0  0  0  0  0  0  0  0  0
   27.0159  -20.3249  -19.6261 C   0  0  2  0  0  0  0  0  0  0  0  0
   26.1255  -20.8780  -20.7334 C   0  0  0  0  0  0  0  0  0  0  0  0
   26.3036  -20.5935  -18.3044 C   0  0  0  0  0  0  0  0  0  0  0  0
   27.0390  -19.9755  -17.1613 C   0  0  2  0  0  0  0  0  0  0  0  0
   28.4477  -20.2659  -17.1670 N   0  0  0  0  0  0  0  0  0  0  0  0
   26.3834  -20.3731  -15.8905 C   0  0  0  0  0  0  0  0  0  0  0  0
   25.2872  -20.9864  -15.9568 O   0  0  0  0  0  0  0  0  0  0  0  0
   26.9214  -20.1014  -14.6164 N   0  0  0  0  0  0  0  0  0  0  0  0
   26.2570  -20.5398  -13.4283 C   0  0  1  0  0  0  0  0  0  0  0  0
   27.0042  -20.3619  -12.1551 C   0  0  0  0  0  0  0  0  0  0  0  0
   26.2757  -20.7549  -10.9435 C   0  0  0  0  0  0  0  0  0  0  0  0
   25.3239  -21.7496  -10.8497 C   0  0  0  0  0  0  0  0  0  0  0  0
   24.8572  -21.8222   -9.5978 N   0  0  0  0  0  0  0  0  0  0  0  0
   25.4726  -20.8922   -8.8228 C   0  0  0  0  0  0  0  0  0  0  0  0
   25.3483  -20.5771   -7.4901 C   0  0  0  0  0  0  0  0  0  0  0  0
   26.1240  -19.5738   -6.9733 C   0  0  0  0  0  0  0  0  0  0  0  0
   27.0037  -18.9111   -7.8002 C   0  0  0  0  0  0  0  0  0  0  0  0
   27.1239  -19.2293   -9.1299 C   0  0  0  0  0  0  0  0  0  0  0  0
   26.3614  -20.2271   -9.6750 C   0  0  0  0  0  0  0  0  0  0  0  0
   24.8819  -19.9732  -13.4254 C   0  0  0  0  0  0  0  0  0  0  0  0
   24.6870  -18.7319  -13.6282 O   0  0  0  0  0  0  0  0  0  0  0  0
   19.3127  -20.3364  -15.0918 N   0  0  0  0  0  0  0  0  0  0  0  0
   20.4446  -19.6358  -14.6118 C   0  0  0  0  0  0  0  0  0  0  0  0
   20.2914  -18.4487  -14.2383 O   0  0  0  0  0  0  0  0  0  0  0  0
   21.7911  -20.2346  -14.5306 C   0  0  0  0  0  0  0  0  0  0  0  0
   22.3873  -20.1272  -13.1191 C   0  0  2  0  0  0  0  0  0  0  0  0
   23.7063  -20.7430  -13.2053 N   0  0  0  0  0  0  0  0  0  0  0  0
   21.5401  -20.7895  -12.1111 C   0  0  0  0  0  0  0  0  0  0  0  0
   21.2354  -22.1386  -12.1376 O   0  0  0  0  0  0  0  0  0  0  0  0
   21.0641  -20.1067  -11.1762 O   0  0  0  0  0  0  0  0  0  0  0  0
  2  1  1  6
  2  3  1  0
  4  5  1  0
  4  2  1  0
  5  6  1  1
  7  5  1  0
  7  8  2  0
  9  7  1  0
 10  9  1  0
 10 11  1  1
 12 11  1  0
 13 12  2  0
 14 13  1  0
 15 14  1  0
 15 20  2  0
 16 15  1  0
 17 16  2  0
 17 18  1  0
 18 19  2  0
 19 20  1  0
 20 12  1  0
 21 10  1  0
 22 21  2  0
 23 24  1  0
 24 26  1  0
 24 25  2  0
 27 26  1  6
 27 28  1  0
 27 29  1  0
 28 21  1  0
 29 30  1  0
 31 29  2  0
M  END
$$$$
