CDS.pdb
     RDKit          3D

 21 20  0  0  1  0  0  0  0  0999 V2000
    8.2016  -15.1606   17.6219 N   0  0  0  0  0  0  0  0  0  0  0  0
    9.3410  -14.4226   18.1291 C   0  0  1  0  0  0  0  0  0  0  0  0
    8.7818  -13.2982   19.0045 C   0  0  0  0  0  0  0  0  0  0  0  0
    7.8296  -12.1548   17.9590 S   0  0  0  0  0  0  0  0  0  0  0  0
   10.1954  -15.3034   18.9579 C   0  0  0  0  0  0  0  0  0  0  0  0
    9.6671  -16.2616   19.5770 O   0  0  0  0  0  0  0  0  0  0  0  0
   11.5766  -15.0974   19.0703 N   0  0  0  0  0  0  0  0  0  0  0  0
   12.3797  -16.0633   19.8181 C   0  0  1  0  0  0  0  0  0  0  0  0
   13.7971  -16.0500   19.2929 C   0  0  0  0  0  0  0  0  0  0  0  0
   13.9639  -16.6827   17.9936 C   0  0  0  0  0  0  0  0  0  0  0  0
   14.4739  -16.0161   17.0390 O   0  0  0  0  0  0  0  0  0  0  0  0
   12.2718  -15.6799   21.2350 C   0  0  0  0  0  0  0  0  0  0  0  0
   12.6411  -14.5387   21.6395 O   0  0  0  0  0  0  0  0  0  0  0  0
   13.6074  -17.9887   17.6873 O   0  0  0  0  0  0  0  0  0  0  0  0
    9.5178  -16.9991   23.2957 O   0  0  0  0  0  0  0  0  0  0  0  0
   10.1741  -15.9162   23.8967 C   0  0  0  0  0  0  0  0  0  0  0  0
   11.6714  -16.1396   23.5927 C   0  0  2  0  0  0  0  0  0  0  0  0
   11.7472  -16.5557   22.2222 N   0  0  0  0  0  0  0  0  0  0  0  0
   12.1272  -17.1832   24.5266 C   0  0  0  0  0  0  0  0  0  0  0  0
   12.1375  -16.9561   25.8722 O   0  0  0  0  0  0  0  0  0  0  0  0
   12.5130  -18.3063   24.0451 O   0  0  0  0  0  0  0  0  0  0  0  0
  2  5  1  0
  2  1  1  1
  3  2  1  0
  4  3  1  0
  5  6  2  0
  7  8  1  0
  7  5  1  0
  8 12  1  0
  9 10  1  0
  8  9  1  6
 10 14  1  0
 11 10  2  0
 12 13  2  0
 15 16  1  0
 17 16  1  1
 17 19  1  0
 18 17  1  0
 18 12  1  0
 19 21  2  0
 19 20  1  0
M  END
$$$$
