CDS.pdb
     RDKit          3D

 21 20  0  0  1  0  0  0  0  0999 V2000
    7.3913  -15.1030   18.1824 N   0  0  0  0  0  0  0  0  0  0  0  0
    8.4539  -14.6511   19.0581 C   0  0  1  0  0  0  0  0  0  0  0  0
    7.9484  -13.3783   19.7419 C   0  0  0  0  0  0  0  0  0  0  0  0
    7.8127  -12.0560   18.5008 S   0  0  0  0  0  0  0  0  0  0  0  0
    8.7398  -15.6749   20.0890 C   0  0  0  0  0  0  0  0  0  0  0  0
    7.8479  -16.5097   20.3858 O   0  0  0  0  0  0  0  0  0  0  0  0
    9.9776  -15.7380   20.7423 N   0  0  0  0  0  0  0  0  0  0  0  0
   10.2118  -16.8010   21.7181 C   0  0  1  0  0  0  0  0  0  0  0  0
   11.4666  -17.5566   21.3447 C   0  0  0  0  0  0  0  0  0  0  0  0
   11.8711  -18.5667   22.3103 C   0  0  0  0  0  0  0  0  0  0  0  0
   11.0464  -19.4759   22.6406 O   0  0  0  0  0  0  0  0  0  0  0  0
   10.2877  -16.1441   23.0330 C   0  0  0  0  0  0  0  0  0  0  0  0
   11.1069  -15.2050   23.2548 O   0  0  0  0  0  0  0  0  0  0  0  0
   13.1136  -18.6344   22.9254 O   0  0  0  0  0  0  0  0  0  0  0  0
    7.9450  -14.3406   24.6184 O   0  0  0  0  0  0  0  0  0  0  0  0
    8.1748  -15.2348   25.6728 C   0  0  0  0  0  0  0  0  0  0  0  0
    9.5628  -15.8456   25.3816 C   0  0  2  0  0  0  0  0  0  0  0  0
    9.4515  -16.5164   24.1187 N   0  0  0  0  0  0  0  0  0  0  0  0
    9.8430  -16.7722   26.4914 C   0  0  0  0  0  0  0  0  0  0  0  0
    9.9635  -16.3101   27.7698 O   0  0  0  0  0  0  0  0  0  0  0  0
    9.9709  -18.0195   26.2270 O   0  0  0  0  0  0  0  0  0  0  0  0
  2  5  1  0
  2  1  1  6
  3  2  1  0
  4  3  1  0
  5  6  2  0
  7  8  1  0
  7  5  1  0
  8 12  1  0
  9 10  1  0
  8  9  1  6
 10 14  1  0
 11 10  2  0
 12 13  2  0
 15 16  1  0
 17 16  1  1
 17 19  1  0
 18 17  1  0
 18 12  1  0
 19 21  2  0
 19 20  1  0
M  END
$$$$
