CDS.pdb
     RDKit          3D

 21 20  0  0  1  0  0  0  0  0999 V2000
    7.6046  -14.7126   17.8723 N   0  0  0  0  0  0  0  0  0  0  0  0
    8.7492  -14.3553   18.6863 C   0  0  1  0  0  0  0  0  0  0  0  0
    8.2631  -13.3097   19.6932 C   0  0  0  0  0  0  0  0  0  0  0  0
    8.1107  -11.7054   18.8505 S   0  0  0  0  0  0  0  0  0  0  0  0
    9.2472  -15.5409   19.4203 C   0  0  0  0  0  0  0  0  0  0  0  0
    8.4401  -16.4553   19.7248 O   0  0  0  0  0  0  0  0  0  0  0  0
   10.5939  -15.6707   19.7843 N   0  0  0  0  0  0  0  0  0  0  0  0
   10.9942  -16.7891   20.6364 C   0  0  1  0  0  0  0  0  0  0  0  0
   12.2498  -17.4197   20.0788 C   0  0  0  0  0  0  0  0  0  0  0  0
   12.7927  -18.4988   20.8894 C   0  0  0  0  0  0  0  0  0  0  0  0
   11.9998  -19.2305   21.5614 O   0  0  0  0  0  0  0  0  0  0  0  0
   11.1625  -16.2363   21.9901 C   0  0  0  0  0  0  0  0  0  0  0  0
   12.0666  -15.3891   22.2488 O   0  0  0  0  0  0  0  0  0  0  0  0
   14.1393  -18.8160   21.0021 O   0  0  0  0  0  0  0  0  0  0  0  0
    8.2530  -16.3227   24.5033 O   0  0  0  0  0  0  0  0  0  0  0  0
    9.2706  -15.4248   24.8534 C   0  0  0  0  0  0  0  0  0  0  0  0
   10.5779  -16.1052   24.3925 C   0  0  2  0  0  0  0  0  0  0  0  0
   10.3260  -16.6119   23.0745 N   0  0  0  0  0  0  0  0  0  0  0  0
   10.8480  -17.1753   25.3676 C   0  0  0  0  0  0  0  0  0  0  0  0
   11.2309  -16.8742   26.6424 O   0  0  0  0  0  0  0  0  0  0  0  0
   10.7152  -18.3925   24.9898 O   0  0  0  0  0  0  0  0  0  0  0  0
  2  5  1  0
  2  1  1  6
  3  2  1  0
  4  3  1  0
  5  6  2  0
  7  8  1  0
  7  5  1  0
  8 12  1  0
  9 10  1  0
  8  9  1  6
 10 14  1  0
 11 10  2  0
 12 13  2  0
 15 16  1  0
 17 16  1  1
 17 19  1  0
 18 17  1  0
 18 12  1  0
 19 21  2  0
 19 20  1  0
M  END
$$$$
