CDS.pdb
     RDKit          3D

 21 20  0  0  1  0  0  0  0  0999 V2000
    7.7006  -14.6049   16.0318 N   0  0  0  0  0  0  0  0  0  0  0  0
    8.8656  -14.2139   16.8000 C   0  0  1  0  0  0  0  0  0  0  0  0
    8.5112  -12.8978   17.4967 C   0  0  0  0  0  0  0  0  0  0  0  0
    7.1841  -13.2068   18.7012 S   0  0  0  0  0  0  0  0  0  0  0  0
    9.1722  -15.2380   17.8246 C   0  0  0  0  0  0  0  0  0  0  0  0
    8.3185  -16.1256   18.0768 O   0  0  0  0  0  0  0  0  0  0  0  0
   10.3883  -15.2441   18.5202 N   0  0  0  0  0  0  0  0  0  0  0  0
   10.6436  -16.3040   19.4942 C   0  0  1  0  0  0  0  0  0  0  0  0
   12.0060  -16.9054   19.2352 C   0  0  0  0  0  0  0  0  0  0  0  0
   12.3558  -18.0070   20.1186 C   0  0  0  0  0  0  0  0  0  0  0  0
   13.0991  -17.7840   21.1253 O   0  0  0  0  0  0  0  0  0  0  0  0
   10.5157  -15.6827   20.8224 C   0  0  0  0  0  0  0  0  0  0  0  0
   11.1375  -14.6200   21.1161 O   0  0  0  0  0  0  0  0  0  0  0  0
   11.9409  -19.3222   19.9614 O   0  0  0  0  0  0  0  0  0  0  0  0
    7.5671  -14.5803   22.4102 O   0  0  0  0  0  0  0  0  0  0  0  0
    8.0560  -15.4512   23.3935 C   0  0  0  0  0  0  0  0  0  0  0  0
    9.5691  -15.5656   23.1073 C   0  0  2  0  0  0  0  0  0  0  0  0
    9.6913  -16.2290   21.8415 N   0  0  0  0  0  0  0  0  0  0  0  0
   10.1367  -16.3525   24.2153 C   0  0  0  0  0  0  0  0  0  0  0  0
   10.1534  -15.8538   25.4854 O   0  0  0  0  0  0  0  0  0  0  0  0
   10.6133  -17.5137   23.9571 O   0  0  0  0  0  0  0  0  0  0  0  0
  2  5  1  0
  2  1  1  1
  3  2  1  0
  4  3  1  0
  5  6  2  0
  7  8  1  0
  7  5  1  0
  8 12  1  0
  9 10  1  0
  8  9  1  6
 10 14  1  0
 11 10  2  0
 12 13  2  0
 15 16  1  0
 17 16  1  1
 17 19  1  0
 18 17  1  0
 18 12  1  0
 19 21  2  0
 19 20  1  0
M  END
$$$$
