CDS.pdb
     RDKit          3D

 21 20  0  0  1  0  0  0  0  0999 V2000
    7.6451  -15.3813   19.6850 N   0  0  0  0  0  0  0  0  0  0  0  0
    8.5934  -14.7342   20.5693 C   0  0  1  0  0  0  0  0  0  0  0  0
    8.0613  -13.3221   20.8268 C   0  0  0  0  0  0  0  0  0  0  0  0
    8.2370  -12.3393   19.3068 S   0  0  0  0  0  0  0  0  0  0  0  0
    8.6762  -15.4634   21.8553 C   0  0  0  0  0  0  0  0  0  0  0  0
    7.7029  -16.1696   22.2218 O   0  0  0  0  0  0  0  0  0  0  0  0
    9.8103  -15.3874   22.6745 N   0  0  0  0  0  0  0  0  0  0  0  0
    9.8786  -16.2238   23.8715 C   0  0  1  0  0  0  0  0  0  0  0  0
   10.9336  -17.2891   23.6790 C   0  0  0  0  0  0  0  0  0  0  0  0
   11.2027  -18.0909   24.8627 C   0  0  0  0  0  0  0  0  0  0  0  0
   10.2284  -18.5789   25.5172 O   0  0  0  0  0  0  0  0  0  0  0  0
   10.1567  -15.3141   24.9946 C   0  0  0  0  0  0  0  0  0  0  0  0
   11.1987  -14.5960   25.0193 O   0  0  0  0  0  0  0  0  0  0  0  0
   12.4645  -18.3836   25.3616 O   0  0  0  0  0  0  0  0  0  0  0  0
    7.8486  -12.8836   26.4691 O   0  0  0  0  0  0  0  0  0  0  0  0
    8.2540  -13.6242   27.5878 C   0  0  0  0  0  0  0  0  0  0  0  0
    9.5895  -14.2772   27.1704 C   0  0  2  0  0  0  0  0  0  0  0  0
    9.2791  -15.1843   26.1036 N   0  0  0  0  0  0  0  0  0  0  0  0
   10.1000  -14.9660   28.3678 C   0  0  0  0  0  0  0  0  0  0  0  0
   10.4115  -14.2627   29.4950 O   0  0  0  0  0  0  0  0  0  0  0  0
   10.2443  -16.2386   28.3244 O   0  0  0  0  0  0  0  0  0  0  0  0
  2  5  1  0
  2  1  1  6
  3  2  1  0
  4  3  1  0
  5  6  2  0
  7  8  1  0
  7  5  1  0
  8 12  1  0
  9 10  1  0
  8  9  1  6
 10 14  1  0
 11 10  2  0
 12 13  2  0
 15 16  1  0
 17 16  1  1
 17 19  1  0
 18 17  1  0
 18 12  1  0
 19 21  2  0
 19 20  1  0
M  END
$$$$
