CDS.pdb
     RDKit          3D

 21 20  0  0  1  0  0  0  0  0999 V2000
    7.7810  -14.6531   16.7563 N   0  0  0  0  0  0  0  0  0  0  0  0
    8.5110  -14.1281   17.8929 C   0  0  1  0  0  0  0  0  0  0  0  0
    7.6060  -13.0842   18.5522 C   0  0  0  0  0  0  0  0  0  0  0  0
    8.4258  -12.4532   20.0478 S   0  0  0  0  0  0  0  0  0  0  0  0
    8.7935  -15.2086   18.8651 C   0  0  0  0  0  0  0  0  0  0  0  0
    7.9923  -16.1730   18.9576 O   0  0  0  0  0  0  0  0  0  0  0  0
    9.9297  -15.1849   19.6843 N   0  0  0  0  0  0  0  0  0  0  0  0
   10.1626  -16.2944   20.6073 C   0  0  1  0  0  0  0  0  0  0  0  0
   11.4302  -17.0171   20.2126 C   0  0  0  0  0  0  0  0  0  0  0  0
   11.8048  -18.1055   21.1023 C   0  0  0  0  0  0  0  0  0  0  0  0
   10.8997  -18.8680   21.5663 O   0  0  0  0  0  0  0  0  0  0  0  0
   10.2145  -15.7053   21.9552 C   0  0  0  0  0  0  0  0  0  0  0  0
   11.1592  -14.9385   22.3039 O   0  0  0  0  0  0  0  0  0  0  0  0
   13.0997  -18.4003   21.5058 O   0  0  0  0  0  0  0  0  0  0  0  0
    7.1756  -15.0132   23.5864 O   0  0  0  0  0  0  0  0  0  0  0  0
    7.9533  -15.0661   24.7513 C   0  0  0  0  0  0  0  0  0  0  0  0
    9.3679  -15.4530   24.2682 C   0  0  2  0  0  0  0  0  0  0  0  0
    9.2154  -15.9545   22.9332 N   0  0  0  0  0  0  0  0  0  0  0  0
    9.8539  -16.4796   25.2058 C   0  0  0  0  0  0  0  0  0  0  0  0
   10.0067  -16.1942   26.5315 O   0  0  0  0  0  0  0  0  0  0  0  0
   10.1290  -17.6438   24.7465 O   0  0  0  0  0  0  0  0  0  0  0  0
  2  5  1  0
  2  1  1  6
  3  2  1  0
  4  3  1  0
  5  6  2  0
  7  8  1  0
  7  5  1  0
  8 12  1  0
  9 10  1  0
  8  9  1  6
 10 14  1  0
 11 10  2  0
 12 13  2  0
 15 16  1  0
 17 16  1  1
 17 19  1  0
 18 17  1  0
 18 12  1  0
 19 21  2  0
 19 20  1  0
M  END
$$$$
