CDS.pdb
     RDKit          3D

 21 20  0  0  1  0  0  0  0  0999 V2000
    7.6177  -15.2343   17.9916 N   0  0  0  0  0  0  0  0  0  0  0  0
    8.8053  -14.7172   18.6416 C   0  0  1  0  0  0  0  0  0  0  0  0
    8.3831  -13.4447   19.3804 C   0  0  0  0  0  0  0  0  0  0  0  0
    8.0186  -12.1472   18.1594 S   0  0  0  0  0  0  0  0  0  0  0  0
    9.3222  -15.6987   19.6223 C   0  0  0  0  0  0  0  0  0  0  0  0
    8.5067  -16.3637   20.3101 O   0  0  0  0  0  0  0  0  0  0  0  0
   10.6958  -15.9061   19.8041 N   0  0  0  0  0  0  0  0  0  0  0  0
   11.1405  -16.9104   20.7688 C   0  0  1  0  0  0  0  0  0  0  0  0
   12.5207  -17.3950   20.3877 C   0  0  0  0  0  0  0  0  0  0  0  0
   12.5685  -18.1700   19.1575 C   0  0  0  0  0  0  0  0  0  0  0  0
   13.3948  -17.8425   18.2487 O   0  0  0  0  0  0  0  0  0  0  0  0
   11.0858  -16.2650   22.0905 C   0  0  0  0  0  0  0  0  0  0  0  0
   11.8230  -15.2755   22.3723 O   0  0  0  0  0  0  0  0  0  0  0  0
   11.7712  -19.2698   18.8725 O   0  0  0  0  0  0  0  0  0  0  0  0
    8.1483  -15.1120   23.8068 O   0  0  0  0  0  0  0  0  0  0  0  0
    8.7230  -15.9107   24.8049 C   0  0  0  0  0  0  0  0  0  0  0  0
   10.2046  -16.0556   24.3949 C   0  0  2  0  0  0  0  0  0  0  0  0
   10.2078  -16.7052   23.1162 N   0  0  0  0  0  0  0  0  0  0  0  0
   10.8418  -16.8691   25.4441 C   0  0  0  0  0  0  0  0  0  0  0  0
   11.0330  -16.3628   26.6969 O   0  0  0  0  0  0  0  0  0  0  0  0
   11.2115  -18.0607   25.1518 O   0  0  0  0  0  0  0  0  0  0  0  0
  2  5  1  0
  2  1  1  1
  3  2  1  0
  4  3  1  0
  5  6  2  0
  7  8  1  0
  7  5  1  0
  8 12  1  0
  9 10  1  0
  8  9  1  6
 10 14  1  0
 11 10  2  0
 12 13  2  0
 15 16  1  0
 17 16  1  1
 17 19  1  0
 18 17  1  0
 18 12  1  0
 19 21  2  0
 19 20  1  0
M  END
$$$$
