CDS.pdb
     RDKit          3D

 21 20  0  0  1  0  0  0  0  0999 V2000
    7.5241  -15.6540   19.1822 N   0  0  0  0  0  0  0  0  0  0  0  0
    8.4758  -14.9781   20.0411 C   0  0  1  0  0  0  0  0  0  0  0  0
    7.7212  -13.8288   20.7142 C   0  0  0  0  0  0  0  0  0  0  0  0
    7.6787  -12.4073   19.5807 S   0  0  0  0  0  0  0  0  0  0  0  0
    8.9766  -15.9048   21.0816 C   0  0  0  0  0  0  0  0  0  0  0  0
    8.1939  -16.7608   21.5664 O   0  0  0  0  0  0  0  0  0  0  0  0
   10.2994  -15.8532   21.5402 N   0  0  0  0  0  0  0  0  0  0  0  0
   10.7315  -16.7978   22.5689 C   0  0  1  0  0  0  0  0  0  0  0  0
   12.2392  -16.9049   22.5497 C   0  0  0  0  0  0  0  0  0  0  0  0
   12.7831  -17.5344   21.3563 C   0  0  0  0  0  0  0  0  0  0  0  0
   12.2990  -18.6420   20.9627 O   0  0  0  0  0  0  0  0  0  0  0  0
   10.1918  -16.2953   23.8427 C   0  0  0  0  0  0  0  0  0  0  0  0
   10.6080  -15.2154   24.3551 O   0  0  0  0  0  0  0  0  0  0  0  0
   13.8145  -17.0234   20.5807 O   0  0  0  0  0  0  0  0  0  0  0  0
    6.8176  -17.5362   25.2621 O   0  0  0  0  0  0  0  0  0  0  0  0
    7.3248  -16.4308   25.9589 C   0  0  0  0  0  0  0  0  0  0  0  0
    8.8590  -16.5975   25.9074 C   0  0  2  0  0  0  0  0  0  0  0  0
    9.1783  -16.9816   24.5629 N   0  0  0  0  0  0  0  0  0  0  0  0
    9.1899  -17.6449   26.8884 C   0  0  0  0  0  0  0  0  0  0  0  0
    8.9966  -17.4342   28.2228 O   0  0  0  0  0  0  0  0  0  0  0  0
    9.6629  -18.7556   26.4586 O   0  0  0  0  0  0  0  0  0  0  0  0
  2  5  1  0
  2  1  1  6
  3  2  1  0
  4  3  1  0
  5  6  2  0
  7  8  1  0
  7  5  1  0
  8 12  1  0
  9 10  1  0
  8  9  1  1
 10 14  1  0
 11 10  2  0
 12 13  2  0
 15 16  1  0
 17 16  1  6
 17 19  1  0
 18 17  1  0
 18 12  1  0
 19 21  2  0
 19 20  1  0
M  END
$$$$
