CDS.pdb
     RDKit          3D

 21 20  0  0  1  0  0  0  0  0999 V2000
   13.2504  -16.3295   24.4740 N   0  0  0  0  0  0  0  0  0  0  0  0
   12.0998  -17.1282   24.1019 C   0  0  1  0  0  0  0  0  0  0  0  0
   10.8778  -16.2116   24.2017 C   0  0  0  0  0  0  0  0  0  0  0  0
   10.4197  -16.0279   25.9520 S   0  0  0  0  0  0  0  0  0  0  0  0
   12.2357  -17.6054   22.7068 C   0  0  0  0  0  0  0  0  0  0  0  0
   12.5806  -16.7915   21.8128 O   0  0  0  0  0  0  0  0  0  0  0  0
   11.9903  -18.9395   22.3566 N   0  0  0  0  0  0  0  0  0  0  0  0
   12.2173  -19.3643   20.9763 C   0  0  1  0  0  0  0  0  0  0  0  0
   13.1015  -20.5903   20.9681 C   0  0  0  0  0  0  0  0  0  0  0  0
   14.5140  -20.3155   21.1819 C   0  0  0  0  0  0  0  0  0  0  0  0
   15.1661  -19.6855   20.2910 O   0  0  0  0  0  0  0  0  0  0  0  0
   10.8861  -19.5930   20.3913 C   0  0  0  0  0  0  0  0  0  0  0  0
    9.9362  -20.0686   21.0793 O   0  0  0  0  0  0  0  0  0  0  0  0
   15.2413  -20.6879   22.3039 O   0  0  0  0  0  0  0  0  0  0  0  0
   10.2608  -18.6285   16.5889 O   0  0  0  0  0  0  0  0  0  0  0  0
    9.1232  -18.4050   17.3765 C   0  0  0  0  0  0  0  0  0  0  0  0
    9.2458  -19.4057   18.5461 C   0  0  2  0  0  0  0  0  0  0  0  0
   10.5891  -19.2916   19.0357 N   0  0  0  0  0  0  0  0  0  0  0  0
    8.9616  -20.7347   17.9788 C   0  0  0  0  0  0  0  0  0  0  0  0
    7.7214  -21.0334   17.4940 O   0  0  0  0  0  0  0  0  0  0  0  0
    9.9054  -21.6011   17.9525 O   0  0  0  0  0  0  0  0  0  0  0  0
  2  5  1  0
  2  1  1  6
  3  2  1  0
  4  3  1  0
  5  6  2  0
  7  8  1  0
  7  5  1  0
  8 12  1  0
  9 10  1  0
  8  9  1  1
 10 14  1  0
 11 10  2  0
 12 13  2  0
 15 16  1  0
 17 16  1  6
 17 19  1  0
 18 17  1  0
 18 12  1  0
 19 21  2  0
 19 20  1  0
M  END
$$$$
