CDS.pdb
     RDKit          3D

 21 20  0  0  1  0  0  0  0  0999 V2000
    7.3727  -15.0411   19.4678 N   0  0  0  0  0  0  0  0  0  0  0  0
    7.9984  -14.5722   20.6880 C   0  0  1  0  0  0  0  0  0  0  0  0
    6.8992  -13.9015   21.5158 C   0  0  0  0  0  0  0  0  0  0  0  0
    7.6014  -13.3666   23.1057 S   0  0  0  0  0  0  0  0  0  0  0  0
    8.5530  -15.7131   21.4517 C   0  0  0  0  0  0  0  0  0  0  0  0
    7.9228  -16.8008   21.4703 O   0  0  0  0  0  0  0  0  0  0  0  0
    9.7611  -15.6128   22.1540 N   0  0  0  0  0  0  0  0  0  0  0  0
   10.2262  -16.7586   22.9337 C   0  0  1  0  0  0  0  0  0  0  0  0
   11.7283  -16.8731   22.8093 C   0  0  0  0  0  0  0  0  0  0  0  0
   12.1958  -17.2507   21.4845 C   0  0  0  0  0  0  0  0  0  0  0  0
   11.6151  -18.1983   20.8675 O   0  0  0  0  0  0  0  0  0  0  0  0
    9.7637  -16.5337   24.3128 C   0  0  0  0  0  0  0  0  0  0  0  0
    9.9271  -15.4191   24.8897 O   0  0  0  0  0  0  0  0  0  0  0  0
   13.2508  -16.6546   20.8076 O   0  0  0  0  0  0  0  0  0  0  0  0
    6.9272  -18.5405   25.8117 O   0  0  0  0  0  0  0  0  0  0  0  0
    7.2879  -17.4441   26.6069 C   0  0  0  0  0  0  0  0  0  0  0  0
    8.8208  -17.3320   26.4585 C   0  0  2  0  0  0  0  0  0  0  0  0
    9.1081  -17.5413   25.0690 N   0  0  0  0  0  0  0  0  0  0  0  0
    9.3929  -18.3816   27.3187 C   0  0  0  0  0  0  0  0  0  0  0  0
    9.2825  -18.3048   28.6767 O   0  0  0  0  0  0  0  0  0  0  0  0
    9.9956  -19.3656   26.7614 O   0  0  0  0  0  0  0  0  0  0  0  0
  2  5  1  0
  2  1  1  6
  3  2  1  0
  4  3  1  0
  5  6  2  0
  7  8  1  0
  7  5  1  0
  8 12  1  0
  9 10  1  0
  8  9  1  1
 10 14  1  0
 11 10  2  0
 12 13  2  0
 15 16  1  0
 17 16  1  6
 17 19  1  0
 18 17  1  0
 18 12  1  0
 19 21  2  0
 19 20  1  0
M  END
$$$$
