CDS.pdb
     RDKit          3D

 21 20  0  0  1  0  0  0  0  0999 V2000
    7.9328  -14.8710   16.3736 N   0  0  0  0  0  0  0  0  0  0  0  0
    9.1260  -14.4854   17.1000 C   0  0  1  0  0  0  0  0  0  0  0  0
    8.9321  -13.0263   17.5205 C   0  0  0  0  0  0  0  0  0  0  0  0
    7.5379  -12.9281   18.6840 S   0  0  0  0  0  0  0  0  0  0  0  0
    9.2827  -15.3226   18.3111 C   0  0  0  0  0  0  0  0  0  0  0  0
    8.3052  -16.0017   18.7159 O   0  0  0  0  0  0  0  0  0  0  0  0
   10.4911  -15.3783   19.0179 N   0  0  0  0  0  0  0  0  0  0  0  0
   10.6282  -16.3344   20.1152 C   0  0  1  0  0  0  0  0  0  0  0  0
   11.9947  -16.9776   20.0518 C   0  0  0  0  0  0  0  0  0  0  0  0
   12.2654  -17.9235   21.1234 C   0  0  0  0  0  0  0  0  0  0  0  0
   11.3281  -18.6737   21.5411 O   0  0  0  0  0  0  0  0  0  0  0  0
   10.3896  -15.5767   21.3543 C   0  0  0  0  0  0  0  0  0  0  0  0
   11.1776  -14.6597   21.7288 O   0  0  0  0  0  0  0  0  0  0  0  0
   13.4907  -18.0903   21.7537 O   0  0  0  0  0  0  0  0  0  0  0  0
    6.9129  -15.8407   23.0340 O   0  0  0  0  0  0  0  0  0  0  0  0
    7.5930  -14.6895   23.4546 C   0  0  0  0  0  0  0  0  0  0  0  0
    9.0889  -15.0683   23.3989 C   0  0  2  0  0  0  0  0  0  0  0  0
    9.2696  -15.8223   22.1923 N   0  0  0  0  0  0  0  0  0  0  0  0
    9.3546  -15.8649   24.6087 C   0  0  0  0  0  0  0  0  0  0  0  0
    9.2433  -15.3052   25.8484 O   0  0  0  0  0  0  0  0  0  0  0  0
    9.6922  -17.0931   24.4683 O   0  0  0  0  0  0  0  0  0  0  0  0
  2  5  1  0
  2  1  1  1
  3  2  1  0
  4  3  1  0
  5  6  2  0
  7  8  1  0
  7  5  1  0
  8 12  1  0
  9 10  1  0
  8  9  1  1
 10 14  1  0
 11 10  2  0
 12 13  2  0
 15 16  1  0
 17 16  1  1
 17 19  1  0
 18 17  1  0
 18 12  1  0
 19 21  2  0
 19 20  1  0
M  END
$$$$
