CDS.pdb
     RDKit          3D

 21 20  0  0  1  0  0  0  0  0999 V2000
   -4.2589  -20.7403   21.9132 N   0  0  0  0  0  0  0  0  0  0  0  0
   -4.1149  -20.6874   23.3543 C   0  0  1  0  0  0  0  0  0  0  0  0
   -4.4350  -19.2509   23.7754 C   0  0  0  0  0  0  0  0  0  0  0  0
   -3.0596  -18.1701   23.2779 S   0  0  0  0  0  0  0  0  0  0  0  0
   -5.0777  -21.6083   24.0004 C   0  0  0  0  0  0  0  0  0  0  0  0
   -6.1971  -21.7997   23.4613 O   0  0  0  0  0  0  0  0  0  0  0  0
   -4.7744  -22.2719   25.1964 N   0  0  0  0  0  0  0  0  0  0  0  0
   -5.7204  -23.2544   25.7227 C   0  0  1  0  0  0  0  0  0  0  0  0
   -5.0326  -24.5945   25.8497 C   0  0  0  0  0  0  0  0  0  0  0  0
   -5.8679  -25.6502   26.4010 C   0  0  0  0  0  0  0  0  0  0  0  0
   -7.1301  -25.5759   26.2700 O   0  0  0  0  0  0  0  0  0  0  0  0
   -6.2040  -22.7155   27.0042 C   0  0  0  0  0  0  0  0  0  0  0  0
   -5.4730  -21.9774   27.7272 O   0  0  0  0  0  0  0  0  0  0  0  0
   -5.4020  -26.7682   27.0789 O   0  0  0  0  0  0  0  0  0  0  0  0
   -9.8780  -21.9515   29.9645 O   0  0  0  0  0  0  0  0  0  0  0  0
   -9.4668  -22.6390   28.8145 C   0  0  0  0  0  0  0  0  0  0  0  0
   -7.9397  -22.4214   28.7453 C   0  0  2  0  0  0  0  0  0  0  0  0
   -7.5080  -22.9838   27.4985 N   0  0  0  0  0  0  0  0  0  0  0  0
   -7.3731  -23.1241   29.9090 C   0  0  0  0  0  0  0  0  0  0  0  0
   -6.9985  -22.4327   31.0243 O   0  0  0  0  0  0  0  0  0  0  0  0
   -7.2407  -24.3971   29.8476 O   0  0  0  0  0  0  0  0  0  0  0  0
  2  5  1  0
  2  1  1  6
  3  2  1  0
  4  3  1  0
  5  6  2  0
  7  8  1  0
  7  5  1  0
  8 12  1  0
  9 10  1  0
  8  9  1  1
 10 14  1  0
 11 10  2  0
 12 13  2  0
 15 16  1  0
 17 16  1  1
 17 19  1  0
 18 17  1  0
 18 12  1  0
 19 21  2  0
 19 20  1  0
M  END
$$$$
