CDS.pdb
     RDKit          3D

 21 20  0  0  1  0  0  0  0  0999 V2000
    7.4806  -14.3786   16.7235 N   0  0  0  0  0  0  0  0  0  0  0  0
    8.4192  -13.8658   17.7014 C   0  0  1  0  0  0  0  0  0  0  0  0
    7.6368  -12.9037   18.5989 C   0  0  0  0  0  0  0  0  0  0  0  0
    8.7272  -12.3240   19.9339 S   0  0  0  0  0  0  0  0  0  0  0  0
    8.9556  -14.9718   18.5270 C   0  0  0  0  0  0  0  0  0  0  0  0
    8.1713  -15.8640   18.9384 O   0  0  0  0  0  0  0  0  0  0  0  0
   10.3137  -15.0503   18.8619 N   0  0  0  0  0  0  0  0  0  0  0  0
   10.7694  -16.1356   19.7288 C   0  0  1  0  0  0  0  0  0  0  0  0
   12.1098  -16.6369   19.2420 C   0  0  0  0  0  0  0  0  0  0  0  0
   12.0440  -17.4773   18.0563 C   0  0  0  0  0  0  0  0  0  0  0  0
   11.2386  -18.4605   18.0357 O   0  0  0  0  0  0  0  0  0  0  0  0
   10.8054  -15.5855   21.0935 C   0  0  0  0  0  0  0  0  0  0  0  0
   11.5766  -14.6295   21.3992 O   0  0  0  0  0  0  0  0  0  0  0  0
   12.8022  -17.3014   16.9071 O   0  0  0  0  0  0  0  0  0  0  0  0
    7.8714  -16.2389   23.5015 O   0  0  0  0  0  0  0  0  0  0  0  0
    8.6895  -15.1835   23.9273 C   0  0  0  0  0  0  0  0  0  0  0  0
   10.1121  -15.5732   23.4705 C   0  0  2  0  0  0  0  0  0  0  0  0
    9.9817  -16.0850   22.1370 N   0  0  0  0  0  0  0  0  0  0  0  0
   10.5831  -16.5922   24.4238 C   0  0  0  0  0  0  0  0  0  0  0  0
   10.9513  -16.2423   25.6904 O   0  0  0  0  0  0  0  0  0  0  0  0
   10.6386  -17.8119   24.0348 O   0  0  0  0  0  0  0  0  0  0  0  0
  2  5  1  0
  2  1  1  6
  3  2  1  0
  4  3  1  0
  5  6  2  0
  7  8  1  0
  7  5  1  0
  8 12  1  0
  9 10  1  0
  8  9  1  6
 10 14  1  0
 11 10  2  0
 12 13  2  0
 15 16  1  0
 17 16  1  1
 17 19  1  0
 18 17  1  0
 18 12  1  0
 19 21  2  0
 19 20  1  0
M  END
$$$$
