CDS.pdb
     RDKit          3D

 21 20  0  0  1  0  0  0  0  0999 V2000
    8.0033  -14.9054   18.0076 N   0  0  0  0  0  0  0  0  0  0  0  0
    9.2148  -14.3962   18.6186 C   0  0  1  0  0  0  0  0  0  0  0  0
    8.7913  -13.2620   19.5554 C   0  0  0  0  0  0  0  0  0  0  0  0
    8.1726  -11.8730   18.5578 S   0  0  0  0  0  0  0  0  0  0  0  0
    9.8758  -15.4584   19.4106 C   0  0  0  0  0  0  0  0  0  0  0  0
    9.1682  -16.3321   19.9730 O   0  0  0  0  0  0  0  0  0  0  0  0
   11.2687  -15.5156   19.5499 N   0  0  0  0  0  0  0  0  0  0  0  0
   11.8597  -16.5982   20.3346 C   0  0  1  0  0  0  0  0  0  0  0  0
   13.2481  -16.8937   19.8152 C   0  0  0  0  0  0  0  0  0  0  0  0
   13.2778  -17.6267   18.5590 C   0  0  0  0  0  0  0  0  0  0  0  0
   12.5070  -18.6257   18.4043 O   0  0  0  0  0  0  0  0  0  0  0  0
   11.8371  -16.1508   21.7367 C   0  0  0  0  0  0  0  0  0  0  0  0
   12.5768  -15.2059   22.1395 O   0  0  0  0  0  0  0  0  0  0  0  0
   14.0947  -17.3288   17.4771 O   0  0  0  0  0  0  0  0  0  0  0  0
    8.8294  -17.0648   23.9309 O   0  0  0  0  0  0  0  0  0  0  0  0
    9.5733  -16.0150   24.4865 C   0  0  0  0  0  0  0  0  0  0  0  0
   11.0337  -16.3001   24.0740 C   0  0  2  0  0  0  0  0  0  0  0  0
   10.9889  -16.7420   22.7102 N   0  0  0  0  0  0  0  0  0  0  0  0
   11.5216  -17.3441   24.9910 C   0  0  0  0  0  0  0  0  0  0  0  0
   11.6753  -17.0844   26.3219 O   0  0  0  0  0  0  0  0  0  0  0  0
   11.7975  -18.4989   24.5089 O   0  0  0  0  0  0  0  0  0  0  0  0
  2  5  1  0
  2  1  1  1
  3  2  1  0
  4  3  1  0
  5  6  2  0
  7  8  1  0
  7  5  1  0
  8 12  1  0
  9 10  1  0
  8  9  1  6
 10 14  1  0
 11 10  2  0
 12 13  2  0
 15 16  1  0
 17 16  1  1
 17 19  1  0
 18 17  1  0
 18 12  1  0
 19 21  2  0
 19 20  1  0
M  END
$$$$
