CDS.pdb
     RDKit          3D

 21 20  0  0  1  0  0  0  0  0999 V2000
    7.8537  -14.6129   16.8696 N   0  0  0  0  0  0  0  0  0  0  0  0
    8.5717  -14.1532   18.0416 C   0  0  1  0  0  0  0  0  0  0  0  0
    7.6975  -13.0836   18.7011 C   0  0  0  0  0  0  0  0  0  0  0  0
    8.4643  -12.5811   20.2716 S   0  0  0  0  0  0  0  0  0  0  0  0
    8.7712  -15.2707   18.9923 C   0  0  0  0  0  0  0  0  0  0  0  0
    7.8524  -16.1150   19.1454 O   0  0  0  0  0  0  0  0  0  0  0  0
    9.9565  -15.4122   19.7257 N   0  0  0  0  0  0  0  0  0  0  0  0
   10.0471  -16.4692   20.7315 C   0  0  1  0  0  0  0  0  0  0  0  0
   11.2949  -17.2870   20.4884 C   0  0  0  0  0  0  0  0  0  0  0  0
   11.1467  -18.3272   19.4823 C   0  0  0  0  0  0  0  0  0  0  0  0
   10.0906  -19.0344   19.4708 O   0  0  0  0  0  0  0  0  0  0  0  0
   10.0286  -15.7957   22.0401 C   0  0  0  0  0  0  0  0  0  0  0  0
   10.8362  -14.8597   22.3116 O   0  0  0  0  0  0  0  0  0  0  0  0
   12.0801  -18.6307   18.5008 O   0  0  0  0  0  0  0  0  0  0  0  0
    7.3093  -14.2462   23.6315 O   0  0  0  0  0  0  0  0  0  0  0  0
    7.7052  -15.0921   24.6766 C   0  0  0  0  0  0  0  0  0  0  0  0
    9.1580  -15.4906   24.3378 C   0  0  2  0  0  0  0  0  0  0  0  0
    9.1095  -16.1477   23.0638 N   0  0  0  0  0  0  0  0  0  0  0  0
    9.5994  -16.3867   25.4199 C   0  0  0  0  0  0  0  0  0  0  0  0
    9.7252  -15.9247   26.6978 O   0  0  0  0  0  0  0  0  0  0  0  0
    9.8620  -17.6074   25.1319 O   0  0  0  0  0  0  0  0  0  0  0  0
  2  5  1  0
  2  1  1  6
  3  2  1  0
  4  3  1  0
  5  6  2  0
  7  8  1  0
  7  5  1  0
  8 12  1  0
  9 10  1  0
  8  9  1  6
 10 14  1  0
 11 10  2  0
 12 13  2  0
 15 16  1  0
 17 16  1  1
 17 19  1  0
 18 17  1  0
 18 12  1  0
 19 21  2  0
 19 20  1  0
M  END
$$$$
