CDS.pdb
     RDKit          3D

 21 20  0  0  1  0  0  0  0  0999 V2000
    7.8972  -14.7431   17.5285 N   0  0  0  0  0  0  0  0  0  0  0  0
    8.9387  -14.3328   18.4489 C   0  0  1  0  0  0  0  0  0  0  0  0
    8.4372  -13.0636   19.1424 C   0  0  0  0  0  0  0  0  0  0  0  0
    8.4334  -11.6977   17.9418 S   0  0  0  0  0  0  0  0  0  0  0  0
    9.1675  -15.3836   19.4667 C   0  0  0  0  0  0  0  0  0  0  0  0
    8.1851  -16.0323   19.9076 O   0  0  0  0  0  0  0  0  0  0  0  0
   10.4496  -15.6742   19.9512 N   0  0  0  0  0  0  0  0  0  0  0  0
   10.6065  -16.7188   20.9618 C   0  0  1  0  0  0  0  0  0  0  0  0
   11.8593  -17.5132   20.6713 C   0  0  0  0  0  0  0  0  0  0  0  0
   13.0750  -16.7171   20.6036 C   0  0  0  0  0  0  0  0  0  0  0  0
   13.3416  -16.0799   19.5365 O   0  0  0  0  0  0  0  0  0  0  0  0
   10.6317  -16.0323   22.2636 C   0  0  0  0  0  0  0  0  0  0  0  0
   11.4366  -15.0829   22.4931 O   0  0  0  0  0  0  0  0  0  0  0  0
   14.0022  -16.5827   21.6277 O   0  0  0  0  0  0  0  0  0  0  0  0
    7.5385  -16.0553   24.3947 O   0  0  0  0  0  0  0  0  0  0  0  0
    8.4499  -15.0877   24.8391 C   0  0  0  0  0  0  0  0  0  0  0  0
    9.8420  -15.7068   24.5876 C   0  0  2  0  0  0  0  0  0  0  0  0
    9.7597  -16.3862   23.3271 N   0  0  0  0  0  0  0  0  0  0  0  0
   10.0896  -16.6267   25.7107 C   0  0  0  0  0  0  0  0  0  0  0  0
   10.2426  -17.9651   25.4928 O   0  0  0  0  0  0  0  0  0  0  0  0
   10.1571  -16.1399   26.8942 O   0  0  0  0  0  0  0  0  0  0  0  0
  2  5  1  0
  2  1  1  6
  3  2  1  0
  4  3  1  0
  5  6  2  0
  7  8  1  0
  7  5  1  0
  8 12  1  0
  9 10  1  0
  8  9  1  6
 10 14  1  0
 11 10  2  0
 12 13  2  0
 15 16  1  0
 17 16  1  1
 17 19  1  0
 18 17  1  0
 18 12  1  0
 19 21  2  0
 19 20  1  0
M  END
$$$$
