QML.pdb
     RDKit          3D

 26 25  0  0  1  0  0  0  0  0999 V2000
   21.0193  -15.7114  -20.4526 N   0  0  0  0  0  0  0  0  0  0  0  0
   20.5123  -16.6806  -19.5007 C   0  0  0  0  0  0  0  0  0  0  0  0
   20.8048  -17.8653  -19.7182 O   0  0  0  0  0  0  0  0  0  0  0  0
   19.7134  -16.1936  -18.3922 C   0  0  0  0  0  0  0  0  0  0  0  0
   19.4617  -14.7189  -18.3934 C   0  0  0  0  0  0  0  0  0  0  0  0
   20.0407  -14.0461  -17.2128 C   0  0  2  0  0  0  0  0  0  0  0  0
   19.6888  -14.6023  -15.9502 N   0  0  0  0  0  0  0  0  0  0  0  0
   19.7389  -12.5708  -17.3105 C   0  0  0  0  0  0  0  0  0  0  0  0
   20.0090  -11.9636  -18.3939 O   0  0  0  0  0  0  0  0  0  0  0  0
   13.4966  -11.5431  -16.6072 C   0  0  0  0  0  0  0  0  0  0  0  0
   14.7444  -10.7173  -15.5785 S   0  0  0  0  0  0  0  0  0  0  0  0
   16.3575  -10.9758  -16.3753 C   0  0  0  0  0  0  0  0  0  0  0  0
   17.4184  -10.2598  -15.5903 C   0  0  0  0  0  0  0  0  0  0  0  0
   18.8037  -10.4755  -16.1926 C   0  0  2  0  0  0  0  0  0  0  0  0
   19.1740  -11.8346  -16.2606 N   0  0  0  0  0  0  0  0  0  0  0  0
   19.8054   -9.5223  -15.7394 C   0  0  0  0  0  0  0  0  0  0  0  0
   20.4569   -9.7287  -14.6856 O   0  0  0  0  0  0  0  0  0  0  0  0
   23.4108   -8.0775  -17.7541 C   0  0  0  0  0  0  0  0  0  0  0  0
   22.1531   -7.4141  -18.3421 C   0  0  2  0  0  0  0  0  0  0  0  0
   22.6120   -6.6019  -19.5129 C   0  0  0  0  0  0  0  0  0  0  0  0
   21.5582   -6.6096  -17.2349 C   0  0  0  0  0  0  0  0  0  0  0  0
   21.1173   -7.3792  -16.0435 C   0  0  2  0  0  0  0  0  0  0  0  0
   20.0947   -8.3152  -16.4647 N   0  0  0  0  0  0  0  0  0  0  0  0
   20.7017   -6.5832  -14.8954 C   0  0  0  0  0  0  0  0  0  0  0  0
   21.5329   -6.0132  -13.9671 O   0  0  0  0  0  0  0  0  0  0  0  0
   19.4562   -6.3969  -14.7347 O   0  0  0  0  0  0  0  0  0  0  0  0
  2  1  1  0
  3  2  2  0
  4  2  1  0
  5  4  1  0
  6  5  1  0
  6  7  1  1
  8  6  1  0
  8  9  2  0
 11 12  1  0
 11 10  1  0
 12 13  1  0
 14 13  1  1
 14 15  1  0
 15  8  1  0
 16 14  1  0
 17 16  2  0
 19 18  1  1
 20 19  1  0
 21 19  1  0
 22 21  1  6
 22 23  1  0
 23 16  1  0
 24 22  1  0
 25 24  1  0
 26 24  2  0
M  END
$$$$
