QML.pdb
     RDKit          3D

 26 25  0  0  1  0  0  0  0  0999 V2000
   27.6813  -17.1671  -14.9146 N   0  0  0  0  0  0  0  0  0  0  0  0
   28.1277  -17.7105  -16.1826 C   0  0  0  0  0  0  0  0  0  0  0  0
   28.8918  -16.9944  -16.8459 O   0  0  0  0  0  0  0  0  0  0  0  0
   27.6482  -19.0242  -16.5679 C   0  0  0  0  0  0  0  0  0  0  0  0
   26.7967  -19.7112  -15.5476 C   0  0  0  0  0  0  0  0  0  0  0  0
   27.5702  -20.6414  -14.7002 C   0  0  2  0  0  0  0  0  0  0  0  0
   28.2196  -21.7072  -15.3856 N   0  0  0  0  0  0  0  0  0  0  0  0
   26.6779  -21.1190  -13.5809 C   0  0  0  0  0  0  0  0  0  0  0  0
   25.5944  -21.7139  -13.8764 O   0  0  0  0  0  0  0  0  0  0  0  0
   25.8705  -20.4726   -5.6903 C   0  0  0  0  0  0  0  0  0  0  0  0
   26.8943  -20.0741   -7.1361 S   0  0  0  0  0  0  0  0  0  0  0  0
   25.9914  -20.6394   -8.6089 C   0  0  0  0  0  0  0  0  0  0  0  0
   26.8868  -20.5349   -9.8096 C   0  0  0  0  0  0  0  0  0  0  0  0
   26.1452  -20.8893  -11.0952 C   0  0  2  0  0  0  0  0  0  0  0  0
   26.9864  -20.9370  -12.2263 N   0  0  0  0  0  0  0  0  0  0  0  0
   24.8541  -20.2337  -11.2384 C   0  0  0  0  0  0  0  0  0  0  0  0
   24.7829  -19.0052  -11.4898 O   0  0  0  0  0  0  0  0  0  0  0  0
   20.5111  -21.0152  -14.0151 C   0  0  0  0  0  0  0  0  0  0  0  0
   21.5604  -19.8904  -14.0575 C   0  0  2  0  0  0  0  0  0  0  0  0
   21.9094  -19.6925  -15.4998 C   0  0  0  0  0  0  0  0  0  0  0  0
   22.6973  -20.3582  -13.2116 C   0  0  0  0  0  0  0  0  0  0  0  0
   22.3972  -20.5331  -11.7675 C   0  0  2  0  0  0  0  0  0  0  0  0
   23.6147  -20.9491  -11.1013 N   0  0  0  0  0  0  0  0  0  0  0  0
   21.2699  -21.4036  -11.4574 C   0  0  0  0  0  0  0  0  0  0  0  0
   21.3489  -22.7096  -11.0505 O   0  0  0  0  0  0  0  0  0  0  0  0
   20.1048  -20.9128  -11.5729 O   0  0  0  0  0  0  0  0  0  0  0  0
  2  1  1  0
  3  2  2  0
  4  2  1  0
  5  4  1  0
  6  5  1  0
  6  7  1  6
  8  6  1  0
  8  9  2  0
 11 12  1  0
 11 10  1  0
 12 13  1  0
 14 13  1  1
 14 15  1  0
 15  8  1  0
 16 14  1  0
 17 16  2  0
 19 18  1  6
 20 19  1  0
 21 19  1  0
 22 21  1  6
 22 23  1  0
 23 16  1  0
 24 22  1  0
 25 24  1  0
 26 24  2  0
M  END
$$$$
