QML.pdb
     RDKit          3D

 26 25  0  0  1  0  0  0  0  0999 V2000
   28.8200  -21.6493  -17.8365 N   0  0  0  0  0  0  0  0  0  0  0  0
   29.3389  -20.3102  -17.6366 C   0  0  0  0  0  0  0  0  0  0  0  0
   29.9796  -19.8254  -18.5805 O   0  0  0  0  0  0  0  0  0  0  0  0
   29.0747  -19.6593  -16.3675 C   0  0  0  0  0  0  0  0  0  0  0  0
   28.2474  -20.4553  -15.4083 C   0  0  0  0  0  0  0  0  0  0  0  0
   27.0622  -19.7127  -14.9332 C   0  0  2  0  0  0  0  0  0  0  0  0
   27.3212  -18.4320  -14.3675 N   0  0  0  0  0  0  0  0  0  0  0  0
   26.2736  -20.6132  -14.0144 C   0  0  0  0  0  0  0  0  0  0  0  0
   25.8823  -21.7400  -14.4531 O   0  0  0  0  0  0  0  0  0  0  0  0
   26.4080  -19.7864   -7.7769 C   0  0  0  0  0  0  0  0  0  0  0  0
   27.3849  -21.1294   -8.5113 S   0  0  0  0  0  0  0  0  0  0  0  0
   26.8455  -21.3070  -10.2380 C   0  0  0  0  0  0  0  0  0  0  0  0
   25.4289  -20.8261  -10.3666 C   0  0  0  0  0  0  0  0  0  0  0  0
   24.9766  -20.7960  -11.8236 C   0  0  2  0  0  0  0  0  0  0  0  0
   25.9497  -20.2659  -12.6961 N   0  0  0  0  0  0  0  0  0  0  0  0
   23.5969  -20.3733  -12.0106 C   0  0  0  0  0  0  0  0  0  0  0  0
   23.2872  -19.1569  -11.9676 O   0  0  0  0  0  0  0  0  0  0  0  0
   21.3746  -20.4792  -16.7592 C   0  0  0  0  0  0  0  0  0  0  0  0
   20.8740  -20.0526  -15.3680 C   0  0  2  0  0  0  0  0  0  0  0  0
   20.7033  -18.5662  -15.4181 C   0  0  0  0  0  0  0  0  0  0  0  0
   21.9099  -20.5171  -14.3994 C   0  0  0  0  0  0  0  0  0  0  0  0
   21.3983  -21.0057  -13.0933 C   0  0  2  0  0  0  0  0  0  0  0  0
   22.5358  -21.3132  -12.2503 N   0  0  0  0  0  0  0  0  0  0  0  0
   20.4440  -22.1055  -13.1602 C   0  0  0  0  0  0  0  0  0  0  0  0
   19.0886  -22.0075  -12.9848 O   0  0  0  0  0  0  0  0  0  0  0  0
   20.9044  -23.2635  -13.4028 O   0  0  0  0  0  0  0  0  0  0  0  0
  2  1  1  0
  3  2  2  0
  4  2  1  0
  5  4  1  0
  6  5  1  0
  6  7  1  1
  8  6  1  0
  8  9  2  0
 11 12  1  0
 11 10  1  0
 12 13  1  0
 14 13  1  1
 14 15  1  0
 15  8  1  0
 16 14  1  0
 17 16  2  0
 19 18  1  6
 20 19  1  0
 21 19  1  0
 22 21  1  6
 22 23  1  0
 23 16  1  0
 24 22  1  0
 25 24  1  0
 26 24  2  0
M  END
$$$$
