QML.pdb
     RDKit          3D

 26 25  0  0  1  0  0  0  0  0999 V2000
   26.2502  -18.9457  -17.9418 N   0  0  0  0  0  0  0  0  0  0  0  0
   27.5762  -18.4515  -17.6255 C   0  0  0  0  0  0  0  0  0  0  0  0
   28.1727  -17.8627  -18.5387 O   0  0  0  0  0  0  0  0  0  0  0  0
   28.0903  -18.6866  -16.2896 C   0  0  0  0  0  0  0  0  0  0  0  0
   27.1447  -19.3799  -15.3605 C   0  0  0  0  0  0  0  0  0  0  0  0
   27.6584  -20.6872  -14.9036 C   0  0  2  0  0  0  0  0  0  0  0  0
   27.8891  -21.6518  -15.9252 N   0  0  0  0  0  0  0  0  0  0  0  0
   26.7554  -21.1961  -13.8070 C   0  0  0  0  0  0  0  0  0  0  0  0
   25.7692  -21.9332  -14.1220 O   0  0  0  0  0  0  0  0  0  0  0  0
   25.3779  -20.6726   -5.9905 C   0  0  0  0  0  0  0  0  0  0  0  0
   26.5913  -20.4492   -7.3228 S   0  0  0  0  0  0  0  0  0  0  0  0
   25.7474  -20.8213   -8.8891 C   0  0  0  0  0  0  0  0  0  0  0  0
   26.7094  -20.6348  -10.0268 C   0  0  0  0  0  0  0  0  0  0  0  0
   26.0433  -20.8989  -11.3740 C   0  0  2  0  0  0  0  0  0  0  0  0
   26.9515  -20.8937  -12.4529 N   0  0  0  0  0  0  0  0  0  0  0  0
   24.7725  -20.2136  -11.5548 C   0  0  0  0  0  0  0  0  0  0  0  0
   24.7332  -18.9704  -11.7283 O   0  0  0  0  0  0  0  0  0  0  0  0
   22.1040  -20.5847  -16.0539 C   0  0  0  0  0  0  0  0  0  0  0  0
   21.7586  -19.9248  -14.7073 C   0  0  2  0  0  0  0  0  0  0  0  0
   21.7503  -18.4477  -14.9506 C   0  0  0  0  0  0  0  0  0  0  0  0
   22.8058  -20.3807  -13.7468 C   0  0  0  0  0  0  0  0  0  0  0  0
   22.3779  -20.4853  -12.3283 C   0  0  2  0  0  0  0  0  0  0  0  0
   23.5178  -20.9154  -11.5442 N   0  0  0  0  0  0  0  0  0  0  0  0
   21.1961  -21.3027  -12.0835 C   0  0  0  0  0  0  0  0  0  0  0  0
   21.1206  -22.6656  -12.2028 O   0  0  0  0  0  0  0  0  0  0  0  0
   20.1356  -20.7029  -11.7267 O   0  0  0  0  0  0  0  0  0  0  0  0
  2  1  1  0
  3  2  2  0
  4  2  1  0
  5  4  1  0
  6  5  1  0
  6  7  1  6
  8  6  1  0
  8  9  2  0
 11 12  1  0
 11 10  1  0
 12 13  1  0
 14 13  1  1
 14 15  1  0
 15  8  1  0
 16 14  1  0
 17 16  2  0
 19 18  1  6
 20 19  1  0
 21 19  1  0
 22 21  1  6
 22 23  1  0
 23 16  1  0
 24 22  1  0
 25 24  1  0
 26 24  2  0
M  END
$$$$
