QML.pdb
     RDKit          3D

 26 25  0  0  1  0  0  0  0  0999 V2000
   34.3907  -28.3546    9.1493 N   0  0  0  0  0  0  0  0  0  0  0  0
   33.4003  -28.7106    8.1519 C   0  0  0  0  0  0  0  0  0  0  0  0
   32.2788  -29.0188    8.5804 O   0  0  0  0  0  0  0  0  0  0  0  0
   33.7972  -28.6823    6.7569 C   0  0  0  0  0  0  0  0  0  0  0  0
   35.2173  -28.2815    6.5111 C   0  0  0  0  0  0  0  0  0  0  0  0
   35.3395  -27.2495    5.4615 C   0  0  2  0  0  0  0  0  0  0  0  0
   36.2811  -27.5258    4.4298 N   0  0  0  0  0  0  0  0  0  0  0  0
   35.5731  -25.9168    6.1298 C   0  0  0  0  0  0  0  0  0  0  0  0
   36.6145  -25.7662    6.8425 O   0  0  0  0  0  0  0  0  0  0  0  0
   31.7359  -21.0859    4.2785 C   0  0  0  0  0  0  0  0  0  0  0  0
   33.4680  -20.9164    3.7604 S   0  0  0  0  0  0  0  0  0  0  0  0
   34.3952  -22.2812    4.5232 C   0  0  0  0  0  0  0  0  0  0  0  0
   33.8664  -22.5272    5.9068 C   0  0  0  0  0  0  0  0  0  0  0  0
   34.6920  -23.5772    6.6445 C   0  0  2  0  0  0  0  0  0  0  0  0
   34.6938  -24.8333    6.0031 N   0  0  0  0  0  0  0  0  0  0  0  0
   34.5294  -23.5551    8.0903 C   0  0  0  0  0  0  0  0  0  0  0  0
   33.6260  -24.2289    8.6446 O   0  0  0  0  0  0  0  0  0  0  0  0
   34.4743  -24.1210   12.9654 C   0  0  0  0  0  0  0  0  0  0  0  0
   34.3185  -24.8292   11.6082 C   0  0  2  0  0  0  0  0  0  0  0  0
   34.3892  -26.2982   11.8878 C   0  0  0  0  0  0  0  0  0  0  0  0
   35.4252  -24.3162   10.7485 C   0  0  0  0  0  0  0  0  0  0  0  0
   35.3473  -22.8774   10.3877 C   0  0  2  0  0  0  0  0  0  0  0  0
   35.3822  -22.7726    8.9431 N   0  0  0  0  0  0  0  0  0  0  0  0
   36.3272  -22.0109   11.0307 C   0  0  0  0  0  0  0  0  0  0  0  0
   37.4954  -21.5626   10.4721 O   0  0  0  0  0  0  0  0  0  0  0  0
   36.0820  -21.6329   12.2176 O   0  0  0  0  0  0  0  0  0  0  0  0
  2  1  1  0
  3  2  2  0
  4  2  1  0
  5  4  1  0
  6  5  1  0
  6  7  1  6
  8  6  1  0
  8  9  2  0
 11 12  1  0
 11 10  1  0
 12 13  1  0
 14 13  1  6
 14 15  1  0
 15  8  1  0
 16 14  1  0
 17 16  2  0
 19 18  1  1
 20 19  1  0
 21 19  1  0
 22 21  1  6
 22 23  1  0
 23 16  1  0
 24 22  1  0
 25 24  1  0
 26 24  2  0
M  END
$$$$
