QML.pdb
     RDKit          3D

 26 25  0  0  1  0  0  0  0  0999 V2000
   24.2465  -20.2541  -16.0050 N   0  0  0  0  0  0  0  0  0  0  0  0
   24.0060  -21.3930  -15.1405 C   0  0  0  0  0  0  0  0  0  0  0  0
   24.6449  -22.4226  -15.4017 O   0  0  0  0  0  0  0  0  0  0  0  0
   23.0495  -21.2391  -14.0608 C   0  0  0  0  0  0  0  0  0  0  0  0
   23.5901  -21.5119  -12.6928 C   0  0  0  0  0  0  0  0  0  0  0  0
   24.3658  -20.3757  -12.1551 C   0  0  2  0  0  0  0  0  0  0  0  0
   25.1650  -19.6709  -13.0995 N   0  0  0  0  0  0  0  0  0  0  0  0
   25.1538  -20.8599  -10.9627 C   0  0  0  0  0  0  0  0  0  0  0  0
   24.5519  -21.5275  -10.0642 O   0  0  0  0  0  0  0  0  0  0  0  0
   31.7646  -22.1800  -10.0074 C   0  0  0  0  0  0  0  0  0  0  0  0
   30.8725  -21.9933  -11.5779 S   0  0  0  0  0  0  0  0  0  0  0  0
   29.0975  -21.9513  -11.1883 C   0  0  0  0  0  0  0  0  0  0  0  0
   28.8514  -20.9393  -10.1067 C   0  0  0  0  0  0  0  0  0  0  0  0
   27.3785  -20.8873   -9.7115 C   0  0  2  0  0  0  0  0  0  0  0  0
   26.5221  -20.6075  -10.7966 N   0  0  0  0  0  0  0  0  0  0  0  0
   27.1230  -20.2032   -8.4530 C   0  0  0  0  0  0  0  0  0  0  0  0
   26.5099  -19.1073   -8.4316 O   0  0  0  0  0  0  0  0  0  0  0  0
   29.8676  -20.9477   -3.0537 C   0  0  0  0  0  0  0  0  0  0  0  0
   28.8217  -20.0435   -3.7293 C   0  0  2  0  0  0  0  0  0  0  0  0
   27.7199  -19.8551   -2.7335 C   0  0  0  0  0  0  0  0  0  0  0  0
   28.4067  -20.7554   -4.9735 C   0  0  0  0  0  0  0  0  0  0  0  0
   27.8156  -19.9035   -6.0370 C   0  0  2  0  0  0  0  0  0  0  0  0
   27.5532  -20.7400   -7.1906 N   0  0  0  0  0  0  0  0  0  0  0  0
   28.5722  -18.7060   -6.3808 C   0  0  0  0  0  0  0  0  0  0  0  0
   28.3211  -17.4372   -5.9285 O   0  0  0  0  0  0  0  0  0  0  0  0
   29.5557  -18.8443   -7.1715 O   0  0  0  0  0  0  0  0  0  0  0  0
  2  1  1  0
  3  2  2  0
  4  2  1  0
  5  4  1  0
  6  5  1  0
  6  7  1  6
  8  6  1  0
  8  9  2  0
 11 12  1  0
 11 10  1  0
 12 13  1  0
 14 13  1  6
 14 15  1  0
 15  8  1  0
 16 14  1  0
 17 16  2  0
 19 18  1  1
 20 19  1  0
 21 19  1  0
 22 21  1  1
 22 23  1  0
 23 16  1  0
 24 22  1  0
 25 24  1  0
 26 24  2  0
M  END
$$$$
