QML.pdb
     RDKit          3D

 26 25  0  0  1  0  0  0  0  0999 V2000
   19.0199   -9.6205  -21.2991 N   0  0  0  0  0  0  0  0  0  0  0  0
   18.3419  -10.8907  -21.1279 C   0  0  0  0  0  0  0  0  0  0  0  0
   17.7635  -11.3411  -22.1274 O   0  0  0  0  0  0  0  0  0  0  0  0
   18.3907  -11.5185  -19.8211 C   0  0  0  0  0  0  0  0  0  0  0  0
   19.1402  -10.7514  -18.7781 C   0  0  0  0  0  0  0  0  0  0  0  0
   20.4044  -11.4103  -18.3917 C   0  0  2  0  0  0  0  0  0  0  0  0
   20.3102  -12.7982  -18.0881 N   0  0  0  0  0  0  0  0  0  0  0  0
   21.0397  -10.6073  -17.2832 C   0  0  0  0  0  0  0  0  0  0  0  0
   20.3349  -10.3010  -16.2709 O   0  0  0  0  0  0  0  0  0  0  0  0
   27.2956  -10.8169  -14.6849 C   0  0  0  0  0  0  0  0  0  0  0  0
   26.5194  -11.6785  -16.0822 S   0  0  0  0  0  0  0  0  0  0  0  0
   24.7499  -11.2634  -16.0562 C   0  0  0  0  0  0  0  0  0  0  0  0
   24.5815   -9.7951  -16.3211 C   0  0  0  0  0  0  0  0  0  0  0  0
   23.1085   -9.4038  -16.3961 C   0  0  2  0  0  0  0  0  0  0  0  0
   22.3739  -10.1805  -17.3161 N   0  0  0  0  0  0  0  0  0  0  0  0
   22.8718   -7.9682  -16.3805 C   0  0  0  0  0  0  0  0  0  0  0  0
   22.8376   -7.3121  -17.4509 O   0  0  0  0  0  0  0  0  0  0  0  0
   20.0442   -3.8470  -14.8896 C   0  0  0  0  0  0  0  0  0  0  0  0
   20.7441   -4.1977  -16.2144 C   0  0  2  0  0  0  0  0  0  0  0  0
   19.7311   -3.9860  -17.2962 C   0  0  0  0  0  0  0  0  0  0  0  0
   21.2031   -5.6107  -16.0742 C   0  0  0  0  0  0  0  0  0  0  0  0
   22.3330   -5.8314  -15.1355 C   0  0  2  0  0  0  0  0  0  0  0  0
   22.6682   -7.2408  -15.1573 N   0  0  0  0  0  0  0  0  0  0  0  0
   22.1368   -5.3287  -13.7815 C   0  0  0  0  0  0  0  0  0  0  0  0
   22.3397   -4.0396  -13.3637 O   0  0  0  0  0  0  0  0  0  0  0  0
   21.7418   -6.1562  -12.9035 O   0  0  0  0  0  0  0  0  0  0  0  0
  2  1  1  0
  3  2  2  0
  4  2  1  0
  5  4  1  0
  6  5  1  0
  6  7  1  1
  8  6  1  0
  8  9  2  0
 11 12  1  0
 11 10  1  0
 12 13  1  0
 14 13  1  6
 14 15  1  0
 15  8  1  0
 16 14  1  0
 17 16  2  0
 19 18  1  1
 20 19  1  0
 21 19  1  0
 22 21  1  6
 22 23  1  0
 23 16  1  0
 24 22  1  0
 25 24  1  0
 26 24  2  0
M  END
$$$$
