QML.pdb
     RDKit          3D

 26 25  0  0  1  0  0  0  0  0999 V2000
   28.0737  -17.1766  -15.8787 N   0  0  0  0  0  0  0  0  0  0  0  0
   28.4644  -17.5215  -17.2318 C   0  0  0  0  0  0  0  0  0  0  0  0
   29.3086  -16.7848  -17.7619 O   0  0  0  0  0  0  0  0  0  0  0  0
   27.8424  -18.6788  -17.8467 C   0  0  0  0  0  0  0  0  0  0  0  0
   26.9048  -19.4380  -16.9621 C   0  0  0  0  0  0  0  0  0  0  0  0
   27.6071  -20.3973  -16.0857 C   0  0  2  0  0  0  0  0  0  0  0  0
   28.3251  -21.4312  -16.7512 N   0  0  0  0  0  0  0  0  0  0  0  0
   26.6219  -20.9241  -15.0713 C   0  0  0  0  0  0  0  0  0  0  0  0
   25.9658  -21.9768  -15.3482 O   0  0  0  0  0  0  0  0  0  0  0  0
   26.9739  -21.6024   -9.4327 C   0  0  0  0  0  0  0  0  0  0  0  0
   25.1736  -21.7392   -9.6263 S   0  0  0  0  0  0  0  0  0  0  0  0
   24.6135  -20.2603  -10.5225 C   0  0  0  0  0  0  0  0  0  0  0  0
   25.6496  -19.8745  -11.5385 C   0  0  0  0  0  0  0  0  0  0  0  0
   25.3448  -20.4765  -12.9071 C   0  0  2  0  0  0  0  0  0  0  0  0
   26.3937  -20.3064  -13.8345 N   0  0  0  0  0  0  0  0  0  0  0  0
   23.9856  -20.2432  -13.3714 C   0  0  0  0  0  0  0  0  0  0  0  0
   23.6259  -19.1028  -13.7555 O   0  0  0  0  0  0  0  0  0  0  0  0
   19.1227  -22.3803  -14.8391 C   0  0  0  0  0  0  0  0  0  0  0  0
   20.1209  -21.6881  -15.7838 C   0  0  2  0  0  0  0  0  0  0  0  0
   20.0023  -22.3815  -17.1052 C   0  0  0  0  0  0  0  0  0  0  0  0
   21.4594  -21.8261  -15.1384 C   0  0  0  0  0  0  0  0  0  0  0  0
   21.6466  -21.0693  -13.8741 C   0  0  2  0  0  0  0  0  0  0  0  0
   23.0021  -21.2909  -13.4128 N   0  0  0  0  0  0  0  0  0  0  0  0
   20.6580  -21.3231  -12.8335 C   0  0  0  0  0  0  0  0  0  0  0  0
   19.5039  -20.6135  -12.6287 O   0  0  0  0  0  0  0  0  0  0  0  0
   20.8806  -22.2892  -12.0404 O   0  0  0  0  0  0  0  0  0  0  0  0
  2  1  1  0
  3  2  2  0
  4  2  1  0
  5  4  1  0
  6  5  1  0
  6  7  1  6
  8  6  1  0
  8  9  2  0
 11 12  1  0
 11 10  1  0
 12 13  1  0
 14 13  1  1
 14 15  1  0
 15  8  1  0
 16 14  1  0
 17 16  2  0
 19 18  1  1
 20 19  1  0
 21 19  1  0
 22 21  1  6
 22 23  1  0
 23 16  1  0
 24 22  1  0
 25 24  1  0
 26 24  2  0
M  END
$$$$
