QML.pdb
     RDKit          3D

 26 25  0  0  1  0  0  0  0  0999 V2000
   30.1414  -20.0292  -16.9127 N   0  0  0  0  0  0  0  0  0  0  0  0
   29.6783  -18.6560  -16.8680 C   0  0  0  0  0  0  0  0  0  0  0  0
   29.9223  -17.9636  -17.8667 O   0  0  0  0  0  0  0  0  0  0  0  0
   28.9826  -18.2099  -15.6758 C   0  0  0  0  0  0  0  0  0  0  0  0
   28.7774  -19.2617  -14.6320 C   0  0  0  0  0  0  0  0  0  0  0  0
   27.5953  -20.1045  -14.9041 C   0  0  2  0  0  0  0  0  0  0  0  0
   26.5615  -19.4911  -15.6672 N   0  0  0  0  0  0  0  0  0  0  0  0
   27.1032  -20.6704  -13.5946 C   0  0  0  0  0  0  0  0  0  0  0  0
   27.9074  -21.3508  -12.8836 O   0  0  0  0  0  0  0  0  0  0  0  0
   28.3217  -21.0536   -8.3920 C   0  0  0  0  0  0  0  0  0  0  0  0
   26.7063  -20.3010   -8.0435 S   0  0  0  0  0  0  0  0  0  0  0  0
   25.5786  -20.8020   -9.3781 C   0  0  0  0  0  0  0  0  0  0  0  0
   26.1661  -20.4005  -10.7003 C   0  0  0  0  0  0  0  0  0  0  0  0
   25.2347  -20.7496  -11.8574 C   0  0  2  0  0  0  0  0  0  0  0  0
   25.7972  -20.4824  -13.1229 N   0  0  0  0  0  0  0  0  0  0  0  0
   23.8465  -20.3718  -11.6397 C   0  0  0  0  0  0  0  0  0  0  0  0
   23.5200  -19.1640  -11.5304 O   0  0  0  0  0  0  0  0  0  0  0  0
   20.7550  -20.4425  -15.0461 C   0  0  0  0  0  0  0  0  0  0  0  0
   22.1494  -21.0714  -14.8787 C   0  0  2  0  0  0  0  0  0  0  0  0
   22.4586  -21.7631  -16.1698 C   0  0  0  0  0  0  0  0  0  0  0  0
   22.0485  -21.9858  -13.7036 C   0  0  0  0  0  0  0  0  0  0  0  0
   21.6470  -21.3485  -12.4234 C   0  0  2  0  0  0  0  0  0  0  0  0
   22.7957  -21.3479  -11.5405 N   0  0  0  0  0  0  0  0  0  0  0  0
   20.4586  -21.9031  -11.7872 C   0  0  0  0  0  0  0  0  0  0  0  0
   19.2329  -21.2964  -11.7025 O   0  0  0  0  0  0  0  0  0  0  0  0
   20.5617  -23.0538  -11.2610 O   0  0  0  0  0  0  0  0  0  0  0  0
  2  1  1  0
  3  2  2  0
  4  2  1  0
  5  4  1  0
  6  5  1  0
  6  7  1  1
  8  6  1  0
  8  9  2  0
 11 12  1  0
 11 10  1  0
 12 13  1  0
 14 13  1  1
 14 15  1  0
 15  8  1  0
 16 14  1  0
 17 16  2  0
 19 18  1  6
 20 19  1  0
 21 19  1  0
 22 21  1  6
 22 23  1  0
 23 16  1  0
 24 22  1  0
 25 24  1  0
 26 24  2  0
M  END
$$$$
