QML.pdb
     RDKit          3D

 26 25  0  0  1  0  0  0  0  0999 V2000
   21.8870  -19.9796  -15.4133 N   0  0  0  0  0  0  0  0  0  0  0  0
   20.4545  -19.7846  -15.5249 C   0  0  0  0  0  0  0  0  0  0  0  0
   19.7944  -20.7709  -15.8824 O   0  0  0  0  0  0  0  0  0  0  0  0
   19.9196  -18.4714  -15.2187 C   0  0  0  0  0  0  0  0  0  0  0  0
   20.9452  -17.4249  -14.9174 C   0  0  0  0  0  0  0  0  0  0  0  0
   20.9384  -16.3265  -15.9049 C   0  0  2  0  0  0  0  0  0  0  0  0
   21.2841  -16.6911  -17.2371 N   0  0  0  0  0  0  0  0  0  0  0  0
   21.7823  -15.1974  -15.3662 C   0  0  0  0  0  0  0  0  0  0  0  0
   21.5143  -14.7316  -14.2144 O   0  0  0  0  0  0  0  0  0  0  0  0
   28.7704  -11.6435  -15.5276 C   0  0  0  0  0  0  0  0  0  0  0  0
   27.7548  -13.0215  -16.1335 S   0  0  0  0  0  0  0  0  0  0  0  0
   26.0492  -12.7169  -15.5840 C   0  0  0  0  0  0  0  0  0  0  0  0
   25.1572  -13.8037  -16.1111 C   0  0  0  0  0  0  0  0  0  0  0  0
   23.6952  -13.5525  -15.7534 C   0  0  2  0  0  0  0  0  0  0  0  0
   22.8507  -14.6347  -16.0770 N   0  0  0  0  0  0  0  0  0  0  0  0
   23.2272  -12.2108  -16.0666 C   0  0  0  0  0  0  0  0  0  0  0  0
   22.7802  -11.9375  -17.2080 O   0  0  0  0  0  0  0  0  0  0  0  0
   19.8400   -9.5888  -14.6384 C   0  0  0  0  0  0  0  0  0  0  0  0
   20.9429   -9.9204  -13.6179 C   0  0  2  0  0  0  0  0  0  0  0  0
   20.4680   -9.3977  -12.2979 C   0  0  0  0  0  0  0  0  0  0  0  0
   22.1826   -9.2631  -14.1260 C   0  0  0  0  0  0  0  0  0  0  0  0
   22.7400   -9.8227  -15.3839 C   0  0  2  0  0  0  0  0  0  0  0  0
   23.2530  -11.1475  -15.0993 N   0  0  0  0  0  0  0  0  0  0  0  0
   23.7161   -8.9854  -16.0700 C   0  0  0  0  0  0  0  0  0  0  0  0
   25.0130   -9.3261  -16.3520 O   0  0  0  0  0  0  0  0  0  0  0  0
   23.3362   -7.8329  -16.4433 O   0  0  0  0  0  0  0  0  0  0  0  0
  2  1  1  0
  3  2  2  0
  4  2  1  0
  5  4  1  0
  6  5  1  0
  6  7  1  6
  8  6  1  0
  8  9  2  0
 11 12  1  0
 11 10  1  0
 12 13  1  0
 14 13  1  6
 14 15  1  0
 15  8  1  0
 16 14  1  0
 17 16  2  0
 19 18  1  6
 20 19  1  0
 21 19  1  0
 22 21  1  1
 22 23  1  0
 23 16  1  0
 24 22  1  0
 25 24  1  0
 26 24  2  0
M  END
$$$$
