QML.pdb
     RDKit          3D

 26 25  0  0  1  0  0  0  0  0999 V2000
   14.3461   -8.7557  -17.3442 N   0  0  0  0  0  0  0  0  0  0  0  0
   14.2851  -10.2042  -17.3166 C   0  0  0  0  0  0  0  0  0  0  0  0
   13.3206  -10.7221  -17.8978 O   0  0  0  0  0  0  0  0  0  0  0  0
   15.3378  -10.9174  -16.6184 C   0  0  0  0  0  0  0  0  0  0  0  0
   16.3652  -10.0484  -15.9648 C   0  0  0  0  0  0  0  0  0  0  0  0
   17.4894   -9.7264  -16.8672 C   0  0  2  0  0  0  0  0  0  0  0  0
   17.9799  -10.8074  -17.6534 N   0  0  0  0  0  0  0  0  0  0  0  0
   18.5690   -9.0494  -16.0590 C   0  0  0  0  0  0  0  0  0  0  0  0
   18.2280   -8.2085  -15.1692 O   0  0  0  0  0  0  0  0  0  0  0  0
   24.6155  -11.5082  -14.5460 C   0  0  0  0  0  0  0  0  0  0  0  0
   24.9756   -9.9161  -15.3415 S   0  0  0  0  0  0  0  0  0  0  0  0
   23.5059   -8.8663  -15.1373 C   0  0  0  0  0  0  0  0  0  0  0  0
   22.3537   -9.4764  -15.8821 C   0  0  0  0  0  0  0  0  0  0  0  0
   21.0650   -8.6888  -15.6649 C   0  0  2  0  0  0  0  0  0  0  0  0
   19.9347   -9.3031  -16.2430 N   0  0  0  0  0  0  0  0  0  0  0  0
   21.2114   -7.2502  -15.8271 C   0  0  0  0  0  0  0  0  0  0  0  0
   21.3954   -6.7483  -16.9636 O   0  0  0  0  0  0  0  0  0  0  0  0
   18.5198   -2.3708  -14.3838 C   0  0  0  0  0  0  0  0  0  0  0  0
   19.9452   -2.7937  -14.7807 C   0  0  2  0  0  0  0  0  0  0  0  0
   20.1659   -2.2825  -16.1704 C   0  0  0  0  0  0  0  0  0  0  0  0
   19.9792   -4.2810  -14.6634 C   0  0  0  0  0  0  0  0  0  0  0  0
   21.3088   -4.9130  -14.8606 C   0  0  2  0  0  0  0  0  0  0  0  0
   21.1534   -6.3457  -14.7111 N   0  0  0  0  0  0  0  0  0  0  0  0
   22.3885   -4.3833  -14.0370 C   0  0  0  0  0  0  0  0  0  0  0  0
   23.1048   -3.2417  -14.2847 O   0  0  0  0  0  0  0  0  0  0  0  0
   22.6989   -5.0346  -12.9924 O   0  0  0  0  0  0  0  0  0  0  0  0
  2  1  1  0
  3  2  2  0
  4  2  1  0
  5  4  1  0
  6  5  1  0
  6  7  1  1
  8  6  1  0
  8  9  2  0
 11 12  1  0
 11 10  1  0
 12 13  1  0
 14 13  1  6
 14 15  1  0
 15  8  1  0
 16 14  1  0
 17 16  2  0
 19 18  1  6
 20 19  1  0
 21 19  1  0
 22 21  1  1
 22 23  1  0
 23 16  1  0
 24 22  1  0
 25 24  1  0
 26 24  2  0
M  END
$$$$
