YNR.pdb
     RDKit          3D

 32 32  0  0  1  0  0  0  0  0999 V2000
    6.2277  -12.2101   16.2524 O   0  0  0  0  0  0  0  0  0  0  0  0
    6.7415  -13.0872   17.1992 C   0  0  0  0  0  0  0  0  0  0  0  0
    6.8917  -14.4395   16.9569 C   0  0  0  0  0  0  0  0  0  0  0  0
    7.4020  -15.3007   17.9027 C   0  0  0  0  0  0  0  0  0  0  0  0
    7.7759  -14.7900   19.1359 C   0  0  0  0  0  0  0  0  0  0  0  0
    8.3211  -15.7403   20.1336 C   0  0  0  0  0  0  0  0  0  0  0  0
    9.8271  -15.4615   20.2069 C   0  0  2  0  0  0  0  0  0  0  0  0
   10.3961  -15.4539   18.8729 N   0  0  0  0  0  0  0  0  0  0  0  0
   10.4571  -16.4898   21.0581 C   0  0  0  0  0  0  0  0  0  0  0  0
   10.0149  -16.6874   22.2115 O   0  0  0  0  0  0  0  0  0  0  0  0
    7.6313  -13.4491   19.3875 C   0  0  0  0  0  0  0  0  0  0  0  0
    7.1124  -12.5747   18.4255 C   0  0  0  0  0  0  0  0  0  0  0  0
   11.6926  -21.1935   19.6688 N   0  0  0  0  0  0  0  0  0  0  0  0
   12.2949  -19.9237   19.5230 C   0  0  0  0  0  0  0  0  0  0  0  0
   12.1413  -19.3679   18.3842 O   0  0  0  0  0  0  0  0  0  0  0  0
   13.0563  -19.2235   20.5489 C   0  0  0  0  0  0  0  0  0  0  0  0
   12.2086  -18.2850   21.3676 C   0  0  2  0  0  0  0  0  0  0  0  0
   11.5589  -17.2731   20.6047 N   0  0  0  0  0  0  0  0  0  0  0  0
   12.9218  -17.6944   22.5019 C   0  0  0  0  0  0  0  0  0  0  0  0
   13.7440  -16.7635   22.2654 O   0  0  0  0  0  0  0  0  0  0  0  0
   10.5241  -15.4853   30.3312 N   0  0  0  0  0  0  0  0  0  0  0  0
   10.1379  -14.7457   29.1610 C   0  0  0  0  0  0  0  0  0  0  0  0
    9.8181  -13.5078   29.3042 N   0  0  0  0  0  0  0  0  0  0  0  0
   10.1226  -15.3968   27.9019 N   0  0  0  0  0  0  0  0  0  0  0  0
   10.8387  -16.6583   27.7021 C   0  0  0  0  0  0  0  0  0  0  0  0
   11.7608  -16.4685   26.5403 C   0  0  0  0  0  0  0  0  0  0  0  0
   12.6077  -17.6447   26.2087 C   0  0  0  0  0  0  0  0  0  0  0  0
   13.4148  -17.5535   24.9785 C   0  0  2  0  0  0  0  0  0  0  0  0
   12.7286  -18.1221   23.8477 N   0  0  0  0  0  0  0  0  0  0  0  0
   14.8303  -17.9816   25.1017 C   0  0  0  0  0  0  0  0  0  0  0  0
   15.7448  -17.2679   25.5277 O   0  0  0  0  0  0  0  0  0  0  0  0
   15.1660  -19.2654   24.7138 O   0  0  0  0  0  0  0  0  0  0  0  0
  2  3  2  0
  2  1  1  0
  4  3  1  0
  5  4  2  0
  6  7  1  0
  6  5  1  0
  7  8  1  6
  9  7  1  0
  9 10  2  0
 11 12  2  0
 11  5  1  0
 12  2  1  0
 13 14  1  0
 14 15  2  0
 17 16  1  6
 16 14  1  0
 17 18  1  0
 18  9  1  0
 19 17  1  0
 20 19  2  0
 22 23  2  0
 22 21  1  0
 24 22  1  0
 25 24  1  0
 26 25  1  0
 26 27  1  0
 28 27  1  1
 28 29  1  0
 29 19  1  0
 30 28  1  0
 31 30  2  0
 32 30  1  0
M  END
$$$$
