YNR.pdb
     RDKit          3D

 32 32  0  0  1  0  0  0  0  0999 V2000
    5.9446  -10.7928   28.4201 O   0  0  0  0  0  0  0  0  0  0  0  0
    6.5097  -11.6777   27.5106 C   0  0  0  0  0  0  0  0  0  0  0  0
    6.1875  -11.6708   26.1668 C   0  0  0  0  0  0  0  0  0  0  0  0
    6.7534  -12.5528   25.2733 C   0  0  0  0  0  0  0  0  0  0  0  0
    7.6758  -13.4754   25.7417 C   0  0  0  0  0  0  0  0  0  0  0  0
    8.2676  -14.4118   24.7576 C   0  0  0  0  0  0  0  0  0  0  0  0
    7.0868  -15.1140   24.0763 C   0  0  2  0  0  0  0  0  0  0  0  0
    6.7415  -16.3213   24.8019 N   0  0  0  0  0  0  0  0  0  0  0  0
    7.4557  -15.4097   22.6781 C   0  0  0  0  0  0  0  0  0  0  0  0
    7.4993  -16.5993   22.2930 O   0  0  0  0  0  0  0  0  0  0  0  0
    8.0034  -13.4914   27.0738 C   0  0  0  0  0  0  0  0  0  0  0  0
    7.4274  -12.5946   27.9811 C   0  0  0  0  0  0  0  0  0  0  0  0
    7.1459  -13.4087   17.1723 N   0  0  0  0  0  0  0  0  0  0  0  0
    8.1850  -13.5271   18.1224 C   0  0  0  0  0  0  0  0  0  0  0  0
    9.3231  -13.8676   17.6553 O   0  0  0  0  0  0  0  0  0  0  0  0
    8.0549  -13.2952   19.5548 C   0  0  0  0  0  0  0  0  0  0  0  0
    7.9595  -14.5728   20.3474 C   0  0  2  0  0  0  0  0  0  0  0  0
    7.7633  -14.3771   21.7443 N   0  0  0  0  0  0  0  0  0  0  0  0
    9.0749  -15.4912   20.1094 C   0  0  0  0  0  0  0  0  0  0  0  0
    9.1758  -16.0168   18.9639 O   0  0  0  0  0  0  0  0  0  0  0  0
   16.0496  -13.7922   17.0098 N   0  0  0  0  0  0  0  0  0  0  0  0
   16.3530  -14.0114   18.3974 C   0  0  0  0  0  0  0  0  0  0  0  0
   17.5610  -13.8129   18.7928 N   0  0  0  0  0  0  0  0  0  0  0  0
   15.3229  -14.4340   19.2749 N   0  0  0  0  0  0  0  0  0  0  0  0
   13.9563  -14.6296   18.7868 C   0  0  0  0  0  0  0  0  0  0  0  0
   13.1086  -14.9874   19.9655 C   0  0  0  0  0  0  0  0  0  0  0  0
   11.9786  -15.9083   19.6732 C   0  0  0  0  0  0  0  0  0  0  0  0
   11.2820  -16.4909   20.8344 C   0  0  2  0  0  0  0  0  0  0  0  0
   10.0411  -15.8134   21.1064 N   0  0  0  0  0  0  0  0  0  0  0  0
   12.1175  -16.7240   22.0384 C   0  0  0  0  0  0  0  0  0  0  0  0
   11.9049  -16.2229   23.1478 O   0  0  0  0  0  0  0  0  0  0  0  0
   13.2164  -17.5554   21.9263 O   0  0  0  0  0  0  0  0  0  0  0  0
  2  3  2  0
  2  1  1  0
  4  3  1  0
  5  4  2  0
  6  7  1  0
  6  5  1  0
  7  8  1  1
  9  7  1  0
  9 10  2  0
 11 12  2  0
 11  5  1  0
 12  2  1  0
 13 14  1  0
 14 15  2  0
 17 16  1  6
 16 14  1  0
 17 18  1  0
 18  9  1  0
 19 17  1  0
 20 19  2  0
 22 23  2  0
 22 21  1  0
 24 22  1  0
 25 24  1  0
 26 25  1  0
 26 27  1  0
 28 27  1  6
 28 29  1  0
 29 19  1  0
 30 28  1  0
 31 30  2  0
 32 30  1  0
M  END
$$$$
