YNR.pdb
     RDKit          3D

 32 32  0  0  1  0  0  0  0  0999 V2000
    6.8138  -12.1679   17.6082 O   0  0  0  0  0  0  0  0  0  0  0  0
    7.2924  -12.9010   18.6867 C   0  0  0  0  0  0  0  0  0  0  0  0
    6.5407  -13.8739   19.3177 C   0  0  0  0  0  0  0  0  0  0  0  0
    7.0247  -14.5949   20.3866 C   0  0  0  0  0  0  0  0  0  0  0  0
    8.3079  -14.3328   20.8404 C   0  0  0  0  0  0  0  0  0  0  0  0
    8.8014  -15.1236   21.9923 C   0  0  0  0  0  0  0  0  0  0  0  0
    9.8494  -16.0895   21.4264 C   0  0  2  0  0  0  0  0  0  0  0  0
    9.2304  -16.9913   20.4741 N   0  0  0  0  0  0  0  0  0  0  0  0
   10.4668  -16.8262   22.5467 C   0  0  0  0  0  0  0  0  0  0  0  0
    9.9421  -17.8895   22.9456 O   0  0  0  0  0  0  0  0  0  0  0  0
    9.0633  -13.3692   20.2217 C   0  0  0  0  0  0  0  0  0  0  0  0
    8.5703  -12.6368   19.1354 C   0  0  0  0  0  0  0  0  0  0  0  0
   14.8615  -17.4083   22.5130 N   0  0  0  0  0  0  0  0  0  0  0  0
   14.4729  -16.3611   23.3784 C   0  0  0  0  0  0  0  0  0  0  0  0
   14.8726  -15.1950   23.0472 O   0  0  0  0  0  0  0  0  0  0  0  0
   13.6722  -16.5121   24.5861 C   0  0  0  0  0  0  0  0  0  0  0  0
   12.2748  -16.9990   24.3038 C   0  0  2  0  0  0  0  0  0  0  0  0
   11.6515  -16.3644   23.1917 N   0  0  0  0  0  0  0  0  0  0  0  0
   11.3965  -16.9612   25.4749 C   0  0  0  0  0  0  0  0  0  0  0  0
   11.2667  -15.8604   26.0832 O   0  0  0  0  0  0  0  0  0  0  0  0
    5.0138  -20.7063   24.1855 N   0  0  0  0  0  0  0  0  0  0  0  0
    6.4448  -20.8283   24.1320 C   0  0  0  0  0  0  0  0  0  0  0  0
    6.9449  -21.8235   23.4880 N   0  0  0  0  0  0  0  0  0  0  0  0
    7.2489  -19.8591   24.7828 N   0  0  0  0  0  0  0  0  0  0  0  0
    6.6756  -18.5884   25.2306 C   0  0  0  0  0  0  0  0  0  0  0  0
    7.7709  -17.8126   25.8898 C   0  0  0  0  0  0  0  0  0  0  0  0
    8.5316  -18.5548   26.9296 C   0  0  0  0  0  0  0  0  0  0  0  0
    9.9205  -18.1224   27.1688 C   0  0  2  0  0  0  0  0  0  0  0  0
   10.6896  -18.1031   25.9518 N   0  0  0  0  0  0  0  0  0  0  0  0
   10.6125  -18.7740   28.3084 C   0  0  0  0  0  0  0  0  0  0  0  0
   10.1576  -18.8501   29.4549 O   0  0  0  0  0  0  0  0  0  0  0  0
   11.8556  -19.3374   28.0886 O   0  0  0  0  0  0  0  0  0  0  0  0
  2  3  2  0
  2  1  1  0
  4  3  1  0
  5  4  2  0
  6  7  1  0
  6  5  1  0
  7  8  1  6
  9  7  1  0
  9 10  2  0
 11 12  2  0
 11  5  1  0
 12  2  1  0
 13 14  1  0
 14 15  2  0
 17 16  1  1
 16 14  1  0
 17 18  1  0
 18  9  1  0
 19 17  1  0
 20 19  2  0
 22 23  2  0
 22 21  1  0
 24 22  1  0
 25 24  1  0
 26 25  1  0
 26 27  1  0
 28 27  1  6
 28 29  1  0
 29 19  1  0
 30 28  1  0
 31 30  2  0
 32 30  1  0
M  END
$$$$
