YNR.pdb
     RDKit          3D

 32 32  0  0  1  0  0  0  0  0999 V2000
    7.4874  -13.2980   16.1480 O   0  0  0  0  0  0  0  0  0  0  0  0
    7.5472  -13.5161   17.5186 C   0  0  0  0  0  0  0  0  0  0  0  0
    8.3220  -14.5130   18.0805 C   0  0  0  0  0  0  0  0  0  0  0  0
    8.3740  -14.7211   19.4409 C   0  0  0  0  0  0  0  0  0  0  0  0
    7.6234  -13.9014   20.2692 C   0  0  0  0  0  0  0  0  0  0  0  0
    7.6987  -14.1493   21.7282 C   0  0  0  0  0  0  0  0  0  0  0  0
    8.6578  -15.3320   21.9090 C   0  0  2  0  0  0  0  0  0  0  0  0
    8.1641  -16.4868   21.1837 N   0  0  0  0  0  0  0  0  0  0  0  0
    8.7917  -15.6156   23.3514 C   0  0  0  0  0  0  0  0  0  0  0  0
    8.9246  -14.6653   24.1542 O   0  0  0  0  0  0  0  0  0  0  0  0
    6.8506  -12.9086   19.7225 C   0  0  0  0  0  0  0  0  0  0  0  0
    6.7983  -12.6980   18.3396 C   0  0  0  0  0  0  0  0  0  0  0  0
    6.5224  -19.5388   27.3454 N   0  0  0  0  0  0  0  0  0  0  0  0
    7.0294  -18.3015   26.8888 C   0  0  0  0  0  0  0  0  0  0  0  0
    7.3487  -17.4664   27.7999 O   0  0  0  0  0  0  0  0  0  0  0  0
    7.2089  -17.9214   25.4939 C   0  0  0  0  0  0  0  0  0  0  0  0
    8.5510  -17.2909   25.2279 C   0  0  2  0  0  0  0  0  0  0  0  0
    8.7712  -16.9459   23.8640 N   0  0  0  0  0  0  0  0  0  0  0  0
    9.6753  -18.0718   25.7479 C   0  0  0  0  0  0  0  0  0  0  0  0
    9.8375  -18.1153   27.0011 O   0  0  0  0  0  0  0  0  0  0  0  0
   12.5800  -13.7496   20.5782 N   0  0  0  0  0  0  0  0  0  0  0  0
   13.4221  -14.8798   20.2970 C   0  0  0  0  0  0  0  0  0  0  0  0
   14.6230  -14.6557   19.8935 N   0  0  0  0  0  0  0  0  0  0  0  0
   12.9080  -16.1892   20.4716 N   0  0  0  0  0  0  0  0  0  0  0  0
   13.3859  -17.0425   21.5615 C   0  0  0  0  0  0  0  0  0  0  0  0
   12.7860  -16.5243   22.8294 C   0  0  0  0  0  0  0  0  0  0  0  0
   11.5977  -17.2732   23.3170 C   0  0  0  0  0  0  0  0  0  0  0  0
   11.8221  -18.2255   24.4197 C   0  0  2  0  0  0  0  0  0  0  0  0
   10.5848  -18.7771   24.9073 N   0  0  0  0  0  0  0  0  0  0  0  0
   12.7413  -17.7680   25.4910 C   0  0  0  0  0  0  0  0  0  0  0  0
   13.9642  -17.6461   25.3617 O   0  0  0  0  0  0  0  0  0  0  0  0
   12.2074  -17.4554   26.7274 O   0  0  0  0  0  0  0  0  0  0  0  0
  2  3  2  0
  2  1  1  0
  4  3  1  0
  5  4  2  0
  6  7  1  0
  6  5  1  0
  7  8  1  6
  9  7  1  0
  9 10  2  0
 11 12  2  0
 11  5  1  0
 12  2  1  0
 13 14  1  0
 14 15  2  0
 17 16  1  6
 16 14  1  0
 17 18  1  0
 18  9  1  0
 19 17  1  0
 20 19  2  0
 22 23  2  0
 22 21  1  0
 24 22  1  0
 25 24  1  0
 26 25  1  0
 26 27  1  0
 28 27  1  6
 28 29  1  0
 29 19  1  0
 30 28  1  0
 31 30  2  0
 32 30  1  0
M  END
$$$$
