YNR.pdb
     RDKit          3D

 32 32  0  0  1  0  0  0  0  0999 V2000
    5.9050  -10.3440   27.9959 O   0  0  0  0  0  0  0  0  0  0  0  0
    6.4111  -11.4352   27.3012 C   0  0  0  0  0  0  0  0  0  0  0  0
    5.5984  -12.3601   26.6736 C   0  0  0  0  0  0  0  0  0  0  0  0
    6.1104  -13.4389   25.9875 C   0  0  0  0  0  0  0  0  0  0  0  0
    7.4862  -13.5978   25.9271 C   0  0  0  0  0  0  0  0  0  0  0  0
    8.0080  -14.7678   25.1826 C   0  0  0  0  0  0  0  0  0  0  0  0
    7.6959  -15.9951   26.0473 C   0  0  2  0  0  0  0  0  0  0  0  0
    8.5198  -15.9839   27.2408 N   0  0  0  0  0  0  0  0  0  0  0  0
    7.9256  -17.2110   25.2426 C   0  0  0  0  0  0  0  0  0  0  0  0
    8.9859  -17.8571   25.3954 O   0  0  0  0  0  0  0  0  0  0  0  0
    8.3027  -12.6857   26.5464 C   0  0  0  0  0  0  0  0  0  0  0  0
    7.7812  -11.5897   27.2436 C   0  0  0  0  0  0  0  0  0  0  0  0
    7.3164  -21.1277   21.7550 N   0  0  0  0  0  0  0  0  0  0  0  0
    6.1594  -20.8796   22.5270 C   0  0  0  0  0  0  0  0  0  0  0  0
    5.2235  -21.7397   22.4102 O   0  0  0  0  0  0  0  0  0  0  0  0
    5.9633  -19.7458   23.4207 C   0  0  0  0  0  0  0  0  0  0  0  0
    7.1466  -18.8139   23.4510 C   0  0  2  0  0  0  0  0  0  0  0  0
    6.9710  -17.6784   24.2923 N   0  0  0  0  0  0  0  0  0  0  0  0
    7.5985  -18.4020   22.1205 C   0  0  0  0  0  0  0  0  0  0  0  0
    8.0169  -19.2982   21.3329 O   0  0  0  0  0  0  0  0  0  0  0  0
    7.7536  -13.1345   15.6286 N   0  0  0  0  0  0  0  0  0  0  0  0
    7.9979  -14.5098   15.9670 C   0  0  0  0  0  0  0  0  0  0  0  0
    7.7633  -15.4051   15.0733 N   0  0  0  0  0  0  0  0  0  0  0  0
    8.4839  -14.8310   17.2593 N   0  0  0  0  0  0  0  0  0  0  0  0
    8.7147  -13.7823   18.2549 C   0  0  0  0  0  0  0  0  0  0  0  0
    9.2307  -14.4468   19.4911 C   0  0  0  0  0  0  0  0  0  0  0  0
    8.2107  -15.1824   20.2842 C   0  0  0  0  0  0  0  0  0  0  0  0
    8.6481  -16.4357   20.9255 C   0  0  2  0  0  0  0  0  0  0  0  0
    7.5861  -17.0459   21.6821 N   0  0  0  0  0  0  0  0  0  0  0  0
    9.9433  -16.3739   21.6472 C   0  0  0  0  0  0  0  0  0  0  0  0
   10.0608  -16.3454   22.8770 O   0  0  0  0  0  0  0  0  0  0  0  0
   11.1095  -16.3422   20.9053 O   0  0  0  0  0  0  0  0  0  0  0  0
  2  3  2  0
  2  1  1  0
  4  3  1  0
  5  4  2  0
  6  7  1  0
  6  5  1  0
  7  8  1  1
  9  7  1  0
  9 10  2  0
 11 12  2  0
 11  5  1  0
 12  2  1  0
 13 14  1  0
 14 15  2  0
 17 16  1  6
 16 14  1  0
 17 18  1  0
 18  9  1  0
 19 17  1  0
 20 19  2  0
 22 23  2  0
 22 21  1  0
 24 22  1  0
 25 24  1  0
 26 25  1  0
 26 27  1  0
 28 27  1  1
 28 29  1  0
 29 19  1  0
 30 28  1  0
 31 30  2  0
 32 30  1  0
M  END
$$$$
