YNR.pdb
     RDKit          3D

 32 32  0  0  1  0  0  0  0  0999 V2000
    7.4905  -13.0257   15.5912 O   0  0  0  0  0  0  0  0  0  0  0  0
    7.6745  -13.2783   16.9447 C   0  0  0  0  0  0  0  0  0  0  0  0
    7.2843  -12.3887   17.9276 C   0  0  0  0  0  0  0  0  0  0  0  0
    7.4715  -12.6486   19.2670 C   0  0  0  0  0  0  0  0  0  0  0  0
    8.0710  -13.8426   19.6363 C   0  0  0  0  0  0  0  0  0  0  0  0
    8.2599  -14.0946   21.0842 C   0  0  0  0  0  0  0  0  0  0  0  0
    8.9715  -15.4488   21.1903 C   0  0  2  0  0  0  0  0  0  0  0  0
    8.2498  -16.4498   20.4283 N   0  0  0  0  0  0  0  0  0  0  0  0
    9.0699  -15.8206   22.6154 C   0  0  0  0  0  0  0  0  0  0  0  0
    9.6272  -15.0382   23.4169 O   0  0  0  0  0  0  0  0  0  0  0  0
    8.4624  -14.7333   18.6691 C   0  0  0  0  0  0  0  0  0  0  0  0
    8.2718  -14.4680   17.3080 C   0  0  0  0  0  0  0  0  0  0  0  0
    7.0478  -18.3904   27.5634 N   0  0  0  0  0  0  0  0  0  0  0  0
    7.7402  -18.7043   26.3724 C   0  0  0  0  0  0  0  0  0  0  0  0
    8.6561  -19.5865   26.4830 O   0  0  0  0  0  0  0  0  0  0  0  0
    7.4912  -18.1110   25.0653 C   0  0  0  0  0  0  0  0  0  0  0  0
    8.7356  -17.5419   24.4351 C   0  0  2  0  0  0  0  0  0  0  0  0
    8.5444  -17.0491   23.1127 N   0  0  0  0  0  0  0  0  0  0  0  0
    9.8819  -18.4518   24.4831 C   0  0  0  0  0  0  0  0  0  0  0  0
    9.9282  -19.3919   23.6389 O   0  0  0  0  0  0  0  0  0  0  0  0
   15.5054  -15.9228   21.3472 N   0  0  0  0  0  0  0  0  0  0  0  0
   14.2907  -15.3794   20.8043 C   0  0  0  0  0  0  0  0  0  0  0  0
   14.3620  -14.2799   20.1401 N   0  0  0  0  0  0  0  0  0  0  0  0
   13.0681  -16.0650   21.0156 N   0  0  0  0  0  0  0  0  0  0  0  0
   13.0568  -17.4322   21.5399 C   0  0  0  0  0  0  0  0  0  0  0  0
   12.8073  -17.3434   23.0116 C   0  0  0  0  0  0  0  0  0  0  0  0
   12.5726  -18.6449   23.6910 C   0  0  0  0  0  0  0  0  0  0  0  0
   12.3192  -18.5978   25.1424 C   0  0  2  0  0  0  0  0  0  0  0  0
   10.9363  -18.3220   25.4332 N   0  0  0  0  0  0  0  0  0  0  0  0
   13.2751  -17.7892   25.9389 C   0  0  0  0  0  0  0  0  0  0  0  0
   14.5051  -17.8758   25.8580 O   0  0  0  0  0  0  0  0  0  0  0  0
   12.7693  -16.8724   26.8416 O   0  0  0  0  0  0  0  0  0  0  0  0
  2  3  2  0
  2  1  1  0
  4  3  1  0
  5  4  2  0
  6  7  1  0
  6  5  1  0
  7  8  1  6
  9  7  1  0
  9 10  2  0
 11 12  2  0
 11  5  1  0
 12  2  1  0
 13 14  1  0
 14 15  2  0
 17 16  1  6
 16 14  1  0
 17 18  1  0
 18  9  1  0
 19 17  1  0
 20 19  2  0
 22 23  2  0
 22 21  1  0
 24 22  1  0
 25 24  1  0
 26 25  1  0
 26 27  1  0
 28 27  1  6
 28 29  1  0
 29 19  1  0
 30 28  1  0
 31 30  2  0
 32 30  1  0
M  END
$$$$
