YNR.pdb
     RDKit          3D

 32 32  0  0  1  0  0  0  0  0999 V2000
    6.7097  -12.1285   16.7455 O   0  0  0  0  0  0  0  0  0  0  0  0
    7.0633  -13.0997   17.6736 C   0  0  0  0  0  0  0  0  0  0  0  0
    7.0961  -14.4466   17.3658 C   0  0  0  0  0  0  0  0  0  0  0  0
    7.4478  -15.4016   18.2936 C   0  0  0  0  0  0  0  0  0  0  0  0
    7.7789  -14.9938   19.5764 C   0  0  0  0  0  0  0  0  0  0  0  0
    8.1525  -16.0435   20.5532 C   0  0  0  0  0  0  0  0  0  0  0  0
    9.6786  -15.9753   20.6870 C   0  0  2  0  0  0  0  0  0  0  0  0
   10.2952  -16.0406   19.3760 N   0  0  0  0  0  0  0  0  0  0  0  0
   10.1271  -17.0841   21.5519 C   0  0  0  0  0  0  0  0  0  0  0  0
    9.5681  -17.2663   22.6562 O   0  0  0  0  0  0  0  0  0  0  0  0
    7.7498  -13.6594   19.8932 C   0  0  0  0  0  0  0  0  0  0  0  0
    7.3921  -12.6895   18.9495 C   0  0  0  0  0  0  0  0  0  0  0  0
   10.7521  -21.2520   20.1030 N   0  0  0  0  0  0  0  0  0  0  0  0
   11.9956  -20.5811   20.0919 C   0  0  0  0  0  0  0  0  0  0  0  0
   12.5906  -20.5412   18.9633 O   0  0  0  0  0  0  0  0  0  0  0  0
   12.6289  -19.9500   21.2421 C   0  0  0  0  0  0  0  0  0  0  0  0
   11.7067  -19.0108   21.9749 C   0  0  2  0  0  0  0  0  0  0  0  0
   11.1818  -17.9627   21.1663 N   0  0  0  0  0  0  0  0  0  0  0  0
   12.2848  -18.4688   23.2063 C   0  0  0  0  0  0  0  0  0  0  0  0
   12.8568  -17.3428   23.1470 O   0  0  0  0  0  0  0  0  0  0  0  0
   10.0833  -13.3883   28.3434 N   0  0  0  0  0  0  0  0  0  0  0  0
   10.2245  -14.4797   29.2677 C   0  0  0  0  0  0  0  0  0  0  0  0
   10.5712  -14.2094   30.4768 N   0  0  0  0  0  0  0  0  0  0  0  0
    9.9795  -15.8030   28.8221 N   0  0  0  0  0  0  0  0  0  0  0  0
    9.8264  -16.0969   27.3958 C   0  0  0  0  0  0  0  0  0  0  0  0
   11.1784  -16.4544   26.8665 C   0  0  0  0  0  0  0  0  0  0  0  0
   11.1752  -17.3736   25.6978 C   0  0  0  0  0  0  0  0  0  0  0  0
   12.1372  -18.4901   25.7310 C   0  0  2  0  0  0  0  0  0  0  0  0
   12.2293  -19.1521   24.4558 N   0  0  0  0  0  0  0  0  0  0  0  0
   12.0115  -19.4168   26.8832 C   0  0  0  0  0  0  0  0  0  0  0  0
   11.3525  -20.4621   26.8743 O   0  0  0  0  0  0  0  0  0  0  0  0
   12.6695  -19.1006   28.0572 O   0  0  0  0  0  0  0  0  0  0  0  0
  2  3  2  0
  2  1  1  0
  4  3  1  0
  5  4  2  0
  6  7  1  0
  6  5  1  0
  7  8  1  6
  9  7  1  0
  9 10  2  0
 11 12  2  0
 11  5  1  0
 12  2  1  0
 13 14  1  0
 14 15  2  0
 17 16  1  6
 16 14  1  0
 17 18  1  0
 18  9  1  0
 19 17  1  0
 20 19  2  0
 22 23  2  0
 22 21  1  0
 24 22  1  0
 25 24  1  0
 26 25  1  0
 26 27  1  0
 28 27  1  6
 28 29  1  0
 29 19  1  0
 30 28  1  0
 31 30  2  0
 32 30  1  0
M  END
$$$$
