YNR.pdb
     RDKit          3D

 32 32  0  0  1  0  0  0  0  0999 V2000
    8.1458  -12.0196   16.5655 O   0  0  0  0  0  0  0  0  0  0  0  0
    8.1360  -12.6929   17.7805 C   0  0  0  0  0  0  0  0  0  0  0  0
    9.2552  -12.7930   18.5850 C   0  0  0  0  0  0  0  0  0  0  0  0
    9.2350  -13.4632   19.7879 C   0  0  0  0  0  0  0  0  0  0  0  0
    8.0514  -14.0547   20.2009 C   0  0  0  0  0  0  0  0  0  0  0  0
    8.0599  -14.7693   21.4990 C   0  0  0  0  0  0  0  0  0  0  0  0
    9.4541  -15.3939   21.6308 C   0  0  2  0  0  0  0  0  0  0  0  0
    9.7538  -16.1913   20.4571 N   0  0  0  0  0  0  0  0  0  0  0  0
    9.4931  -16.2072   22.8620 C   0  0  0  0  0  0  0  0  0  0  0  0
    9.0964  -15.7099   23.9392 O   0  0  0  0  0  0  0  0  0  0  0  0
    6.9340  -13.9617   19.4104 C   0  0  0  0  0  0  0  0  0  0  0  0
    6.9558  -13.2805   18.1879 C   0  0  0  0  0  0  0  0  0  0  0  0
    8.0954  -18.8844   22.1346 N   0  0  0  0  0  0  0  0  0  0  0  0
    8.6571  -19.9222   22.9117 C   0  0  0  0  0  0  0  0  0  0  0  0
    8.1854  -21.0888   22.6975 O   0  0  0  0  0  0  0  0  0  0  0  0
    9.7053  -19.7613   23.9107 C   0  0  0  0  0  0  0  0  0  0  0  0
   10.1851  -18.3384   24.0305 C   0  0  2  0  0  0  0  0  0  0  0  0
    9.9683  -17.5515   22.8635 N   0  0  0  0  0  0  0  0  0  0  0  0
   11.5766  -18.2276   24.4731 C   0  0  0  0  0  0  0  0  0  0  0  0
   12.4118  -19.0599   24.0167 O   0  0  0  0  0  0  0  0  0  0  0  0
   11.3755  -20.2319   30.7519 N   0  0  0  0  0  0  0  0  0  0  0  0
   11.7393  -19.2886   31.7734 C   0  0  0  0  0  0  0  0  0  0  0  0
   12.0575  -19.7440   32.9338 N   0  0  0  0  0  0  0  0  0  0  0  0
   11.7359  -17.9034   31.4722 N   0  0  0  0  0  0  0  0  0  0  0  0
   11.1461  -17.4090   30.2264 C   0  0  0  0  0  0  0  0  0  0  0  0
   12.1194  -17.6950   29.1279 C   0  0  0  0  0  0  0  0  0  0  0  0
   11.7016  -17.2311   27.7785 C   0  0  0  0  0  0  0  0  0  0  0  0
   12.6226  -17.5202   26.6644 C   0  0  2  0  0  0  0  0  0  0  0  0
   12.0227  -17.2301   25.3882 N   0  0  0  0  0  0  0  0  0  0  0  0
   13.3128  -18.8326   26.7212 C   0  0  0  0  0  0  0  0  0  0  0  0
   12.7440  -19.9279   26.6598 O   0  0  0  0  0  0  0  0  0  0  0  0
   14.6887  -18.8476   26.8552 O   0  0  0  0  0  0  0  0  0  0  0  0
  2  3  2  0
  2  1  1  0
  4  3  1  0
  5  4  2  0
  6  7  1  0
  6  5  1  0
  7  8  1  6
  9  7  1  0
  9 10  2  0
 11 12  2  0
 11  5  1  0
 12  2  1  0
 13 14  1  0
 14 15  2  0
 17 16  1  6
 16 14  1  0
 17 18  1  0
 18  9  1  0
 19 17  1  0
 20 19  2  0
 22 23  2  0
 22 21  1  0
 24 22  1  0
 25 24  1  0
 26 25  1  0
 26 27  1  0
 28 27  1  1
 28 29  1  0
 29 19  1  0
 30 28  1  0
 31 30  2  0
 32 30  1  0
M  END
$$$$
