YNR.pdb
     RDKit          3D

 32 32  0  0  1  0  0  0  0  0999 V2000
    8.7353  -11.2134   20.3479 O   0  0  0  0  0  0  0  0  0  0  0  0
    7.9152  -12.3338   20.3893 C   0  0  0  0  0  0  0  0  0  0  0  0
    7.8040  -13.2143   19.3300 C   0  0  0  0  0  0  0  0  0  0  0  0
    6.9876  -14.3222   19.3811 C   0  0  0  0  0  0  0  0  0  0  0  0
    6.2559  -14.5577   20.5346 C   0  0  0  0  0  0  0  0  0  0  0  0
    5.3859  -15.7569   20.5604 C   0  0  0  0  0  0  0  0  0  0  0  0
    6.3023  -16.9393   20.8974 C   0  0  2  0  0  0  0  0  0  0  0  0
    5.5881  -18.1884   20.7158 N   0  0  0  0  0  0  0  0  0  0  0  0
    6.7802  -16.7861   22.2855 C   0  0  0  0  0  0  0  0  0  0  0  0
    6.1522  -16.0436   23.0726 O   0  0  0  0  0  0  0  0  0  0  0  0
    6.3584  -13.6903   21.5925 C   0  0  0  0  0  0  0  0  0  0  0  0
    7.1884  -12.5645   21.5394 C   0  0  0  0  0  0  0  0  0  0  0  0
    9.1008  -17.6693   26.8963 N   0  0  0  0  0  0  0  0  0  0  0  0
    7.7470  -17.7159   26.4945 C   0  0  0  0  0  0  0  0  0  0  0  0
    6.8927  -17.7799   27.4408 O   0  0  0  0  0  0  0  0  0  0  0  0
    7.2698  -17.6964   25.1181 C   0  0  0  0  0  0  0  0  0  0  0  0
    8.3759  -17.4776   24.1190 C   0  0  2  0  0  0  0  0  0  0  0  0
    7.9403  -17.4634   22.7633 N   0  0  0  0  0  0  0  0  0  0  0  0
    9.5030  -18.3972   24.2864 C   0  0  0  0  0  0  0  0  0  0  0  0
    9.4147  -19.5447   23.7629 O   0  0  0  0  0  0  0  0  0  0  0  0
   12.8626  -14.6770   18.5056 N   0  0  0  0  0  0  0  0  0  0  0  0
   14.0504  -15.1310   19.1752 C   0  0  0  0  0  0  0  0  0  0  0  0
   15.1888  -14.8632   18.6389 N   0  0  0  0  0  0  0  0  0  0  0  0
   13.9302  -15.8504   20.3907 N   0  0  0  0  0  0  0  0  0  0  0  0
   12.8059  -15.6076   21.2969 C   0  0  0  0  0  0  0  0  0  0  0  0
   13.0192  -16.4561   22.5096 C   0  0  0  0  0  0  0  0  0  0  0  0
   11.7767  -16.9001   23.1949 C   0  0  0  0  0  0  0  0  0  0  0  0
   11.9460  -17.7505   24.3871 C   0  0  2  0  0  0  0  0  0  0  0  0
   10.6833  -18.0547   25.0083 N   0  0  0  0  0  0  0  0  0  0  0  0
   12.9991  -17.3228   25.3411 C   0  0  0  0  0  0  0  0  0  0  0  0
   12.8416  -16.4753   26.2266 O   0  0  0  0  0  0  0  0  0  0  0  0
   14.2507  -17.9017   25.2431 O   0  0  0  0  0  0  0  0  0  0  0  0
  2  3  2  0
  2  1  1  0
  4  3  1  0
  5  4  2  0
  6  7  1  0
  6  5  1  0
  7  8  1  1
  9  7  1  0
  9 10  2  0
 11 12  2  0
 11  5  1  0
 12  2  1  0
 13 14  1  0
 14 15  2  0
 17 16  1  1
 16 14  1  0
 17 18  1  0
 18  9  1  0
 19 17  1  0
 20 19  2  0
 22 23  2  0
 22 21  1  0
 24 22  1  0
 25 24  1  0
 26 25  1  0
 26 27  1  0
 28 27  1  6
 28 29  1  0
 29 19  1  0
 30 28  1  0
 31 30  2  0
 32 30  1  0
M  END
$$$$
