YNR.pdb
     RDKit          3D

 32 32  0  0  1  0  0  0  0  0999 V2000
    7.9335  -12.3668   16.3015 O   0  0  0  0  0  0  0  0  0  0  0  0
    8.0148  -13.3641   17.2650 C   0  0  0  0  0  0  0  0  0  0  0  0
    7.1948  -13.3933   18.3770 C   0  0  0  0  0  0  0  0  0  0  0  0
    7.2838  -14.3866   19.3267 C   0  0  0  0  0  0  0  0  0  0  0  0
    8.2279  -15.3874   19.1574 C   0  0  0  0  0  0  0  0  0  0  0  0
    8.3009  -16.4423   20.1954 C   0  0  0  0  0  0  0  0  0  0  0  0
    8.3852  -17.7749   19.4415 C   0  0  2  0  0  0  0  0  0  0  0  0
    7.1335  -18.0385   18.7580 N   0  0  0  0  0  0  0  0  0  0  0  0
    8.7105  -18.8438   20.4061 C   0  0  0  0  0  0  0  0  0  0  0  0
    7.8837  -19.1391   21.2973 O   0  0  0  0  0  0  0  0  0  0  0  0
    9.0472  -15.3685   18.0573 C   0  0  0  0  0  0  0  0  0  0  0  0
    8.9560  -14.3584   17.0926 C   0  0  0  0  0  0  0  0  0  0  0  0
    8.5436  -23.3593   20.4336 N   0  0  0  0  0  0  0  0  0  0  0  0
    9.4907  -22.4656   19.8853 C   0  0  0  0  0  0  0  0  0  0  0  0
    9.2997  -22.1392   18.6662 O   0  0  0  0  0  0  0  0  0  0  0  0
   10.6361  -21.9060   20.5907 C   0  0  0  0  0  0  0  0  0  0  0  0
   10.3269  -20.5904   21.2563 C   0  0  2  0  0  0  0  0  0  0  0  0
    9.9434  -19.5580   20.3535 N   0  0  0  0  0  0  0  0  0  0  0  0
   11.3907  -20.1238   22.1478 C   0  0  0  0  0  0  0  0  0  0  0  0
   11.3717  -20.5162   23.3495 O   0  0  0  0  0  0  0  0  0  0  0  0
   10.6431  -13.2821   19.0570 N   0  0  0  0  0  0  0  0  0  0  0  0
    9.9047  -13.4879   20.2727 C   0  0  0  0  0  0  0  0  0  0  0  0
    8.6529  -13.1910   20.2796 N   0  0  0  0  0  0  0  0  0  0  0  0
   10.5722  -14.0055   21.4112 N   0  0  0  0  0  0  0  0  0  0  0  0
   11.9845  -14.3861   21.3429 C   0  0  0  0  0  0  0  0  0  0  0  0
   12.1843  -15.5295   22.2857 C   0  0  0  0  0  0  0  0  0  0  0  0
   12.0172  -16.8790   21.6845 C   0  0  0  0  0  0  0  0  0  0  0  0
   12.7330  -17.9888   22.3396 C   0  0  2  0  0  0  0  0  0  0  0  0
   12.4357  -19.2540   21.7200 N   0  0  0  0  0  0  0  0  0  0  0  0
   12.6677  -18.0138   23.8218 C   0  0  0  0  0  0  0  0  0  0  0  0
   11.6677  -18.3309   24.4750 O   0  0  0  0  0  0  0  0  0  0  0  0
   13.7959  -17.6568   24.5367 O   0  0  0  0  0  0  0  0  0  0  0  0
  2  3  2  0
  2  1  1  0
  4  3  1  0
  5  4  2  0
  6  7  1  0
  6  5  1  0
  7  8  1  1
  9  7  1  0
  9 10  2  0
 11 12  2  0
 11  5  1  0
 12  2  1  0
 13 14  1  0
 14 15  2  0
 17 16  1  6
 16 14  1  0
 17 18  1  0
 18  9  1  0
 19 17  1  0
 20 19  2  0
 22 23  2  0
 22 21  1  0
 24 22  1  0
 25 24  1  0
 26 25  1  0
 26 27  1  0
 28 27  1  6
 28 29  1  0
 29 19  1  0
 30 28  1  0
 31 30  2  0
 32 30  1  0
M  END
$$$$
