YNR.pdb
     RDKit          3D

 32 32  0  0  1  0  0  0  0  0999 V2000
    8.4313  -11.9148   17.1726 O   0  0  0  0  0  0  0  0  0  0  0  0
    8.1899  -12.7880   18.2256 C   0  0  0  0  0  0  0  0  0  0  0  0
    9.1851  -13.2069   19.0881 C   0  0  0  0  0  0  0  0  0  0  0  0
    8.9353  -14.0733   20.1291 C   0  0  0  0  0  0  0  0  0  0  0  0
    7.6422  -14.5372   20.3138 C   0  0  0  0  0  0  0  0  0  0  0  0
    7.4036  -15.4684   21.4415 C   0  0  0  0  0  0  0  0  0  0  0  0
    7.8865  -16.8439   20.9658 C   0  0  2  0  0  0  0  0  0  0  0  0
    7.0220  -17.3358   19.9104 N   0  0  0  0  0  0  0  0  0  0  0  0
    7.9073  -17.7628   22.1207 C   0  0  0  0  0  0  0  0  0  0  0  0
    6.8590  -18.3628   22.4469 O   0  0  0  0  0  0  0  0  0  0  0  0
    6.6462  -14.1280   19.4637 C   0  0  0  0  0  0  0  0  0  0  0  0
    6.9013  -13.2475   18.4059 C   0  0  0  0  0  0  0  0  0  0  0  0
   10.3204  -22.3100   24.9623 N   0  0  0  0  0  0  0  0  0  0  0  0
    9.5220  -21.1498   24.8488 C   0  0  0  0  0  0  0  0  0  0  0  0
    8.8381  -20.8476   25.8835 O   0  0  0  0  0  0  0  0  0  0  0  0
    9.4258  -20.2984   23.6705 C   0  0  0  0  0  0  0  0  0  0  0  0
    9.1797  -18.8522   24.0130 C   0  0  2  0  0  0  0  0  0  0  0  0
    9.0916  -17.9934   22.8804 N   0  0  0  0  0  0  0  0  0  0  0  0
   10.1272  -18.3153   24.9918 C   0  0  0  0  0  0  0  0  0  0  0  0
   11.3565  -18.3300   24.6966 O   0  0  0  0  0  0  0  0  0  0  0  0
    7.3040  -11.0831   27.1078 N   0  0  0  0  0  0  0  0  0  0  0  0
    6.7213  -12.3833   26.9194 C   0  0  0  0  0  0  0  0  0  0  0  0
    5.5855  -12.4577   26.3197 N   0  0  0  0  0  0  0  0  0  0  0  0
    7.4093  -13.5279   27.3947 N   0  0  0  0  0  0  0  0  0  0  0  0
    8.7397  -13.8674   26.8857 C   0  0  0  0  0  0  0  0  0  0  0  0
    9.1870  -15.1043   27.5969 C   0  0  0  0  0  0  0  0  0  0  0  0
   10.4809  -15.6677   27.1289 C   0  0  0  0  0  0  0  0  0  0  0  0
   10.6191  -17.1347   27.1737 C   0  0  2  0  0  0  0  0  0  0  0  0
    9.7239  -17.7826   26.2508 N   0  0  0  0  0  0  0  0  0  0  0  0
   10.6305  -17.7412   28.5280 C   0  0  0  0  0  0  0  0  0  0  0  0
    9.8275  -18.5939   28.9219 O   0  0  0  0  0  0  0  0  0  0  0  0
   11.5998  -17.3314   29.4247 O   0  0  0  0  0  0  0  0  0  0  0  0
  2  3  2  0
  2  1  1  0
  4  3  1  0
  5  4  2  0
  6  7  1  0
  6  5  1  0
  7  8  1  6
  9  7  1  0
  9 10  2  0
 11 12  2  0
 11  5  1  0
 12  2  1  0
 13 14  1  0
 14 15  2  0
 17 16  1  6
 16 14  1  0
 17 18  1  0
 18  9  1  0
 19 17  1  0
 20 19  2  0
 22 23  2  0
 22 21  1  0
 24 22  1  0
 25 24  1  0
 26 25  1  0
 26 27  1  0
 28 27  1  1
 28 29  1  0
 29 19  1  0
 30 28  1  0
 31 30  2  0
 32 30  1  0
M  END
$$$$
