YNR.pdb
     RDKit          3D

 32 32  0  0  1  0  0  0  0  0999 V2000
   13.4411  -24.0427    9.3268 O   0  0  0  0  0  0  0  0  0  0  0  0
   13.0618  -23.0626   10.2352 C   0  0  0  0  0  0  0  0  0  0  0  0
   12.1153  -22.1000    9.9396 C   0  0  0  0  0  0  0  0  0  0  0  0
   11.7466  -21.1323   10.8474 C   0  0  0  0  0  0  0  0  0  0  0  0
   12.3469  -21.1279   12.0969 C   0  0  0  0  0  0  0  0  0  0  0  0
   11.9307  -20.0747   13.0525 C   0  0  0  0  0  0  0  0  0  0  0  0
   12.8741  -18.8893   12.8155 C   0  0  2  0  0  0  0  0  0  0  0  0
   12.9089  -18.5571   11.4042 N   0  0  0  0  0  0  0  0  0  0  0  0
   14.2148  -19.2439   13.3211 C   0  0  0  0  0  0  0  0  0  0  0  0
   15.1882  -19.2403   12.5352 O   0  0  0  0  0  0  0  0  0  0  0  0
   13.2878  -22.0787   12.4013 C   0  0  0  0  0  0  0  0  0  0  0  0
   13.6619  -23.0617   11.4778 C   0  0  0  0  0  0  0  0  0  0  0  0
   18.8004  -18.3656   16.4092 N   0  0  0  0  0  0  0  0  0  0  0  0
   18.0697  -19.1530   15.4914 C   0  0  0  0  0  0  0  0  0  0  0  0
   18.6295  -20.2422   15.1311 O   0  0  0  0  0  0  0  0  0  0  0  0
   16.7614  -18.8213   14.9428 C   0  0  0  0  0  0  0  0  0  0  0  0
   15.7147  -19.8571   15.2603 C   0  0  2  0  0  0  0  0  0  0  0  0
   14.4393  -19.5899   14.6860 N   0  0  0  0  0  0  0  0  0  0  0  0
   15.5849  -20.1351   16.6921 C   0  0  0  0  0  0  0  0  0  0  0  0
   15.0150  -19.2683   17.4149 O   0  0  0  0  0  0  0  0  0  0  0  0
   15.1899  -28.1770   17.0501 N   0  0  0  0  0  0  0  0  0  0  0  0
   14.2641  -27.1129   16.7744 C   0  0  0  0  0  0  0  0  0  0  0  0
   13.4763  -27.2407   15.7654 N   0  0  0  0  0  0  0  0  0  0  0  0
   14.2492  -25.9707   17.6139 N   0  0  0  0  0  0  0  0  0  0  0  0
   15.4299  -25.1128   17.7326 C   0  0  0  0  0  0  0  0  0  0  0  0
   15.0869  -24.0111   18.6838 C   0  0  0  0  0  0  0  0  0  0  0  0
   16.1931  -23.0608   18.9733 C   0  0  0  0  0  0  0  0  0  0  0  0
   15.9315  -21.6365   18.6976 C   0  0  2  0  0  0  0  0  0  0  0  0
   16.0701  -21.3307   17.2975 N   0  0  0  0  0  0  0  0  0  0  0  0
   16.6104  -20.6696   19.5955 C   0  0  0  0  0  0  0  0  0  0  0  0
   17.6924  -20.1251   19.3507 O   0  0  0  0  0  0  0  0  0  0  0  0
   16.0039  -20.3476   20.7954 O   0  0  0  0  0  0  0  0  0  0  0  0
  2  3  2  0
  2  1  1  0
  4  3  1  0
  5  4  2  0
  6  7  1  0
  6  5  1  0
  7  8  1  6
  9  7  1  0
  9 10  2  0
 11 12  2  0
 11  5  1  0
 12  2  1  0
 13 14  1  0
 14 15  2  0
 17 16  1  1
 16 14  1  0
 17 18  1  0
 18  9  1  0
 19 17  1  0
 20 19  2  0
 22 23  2  0
 22 21  1  0
 24 22  1  0
 25 24  1  0
 26 25  1  0
 26 27  1  0
 28 27  1  6
 28 29  1  0
 29 19  1  0
 30 28  1  0
 31 30  2  0
 32 30  1  0
M  END
$$$$
