ICM.pdb
     RDKit          3D

 23 22  0  0  1  0  0  0  0  0999 V2000
   25.7719  -21.3466  -18.4034 C   0  0  0  0  0  0  0  0  0  0  0  0
   25.7220  -22.1014  -17.1009 C   0  0  0  0  0  0  0  0  0  0  0  0
   25.8681  -21.1299  -15.9211 C   0  0  2  0  0  0  0  0  0  0  0  0
   27.1692  -20.4280  -16.0968 C   0  0  0  0  0  0  0  0  0  0  0  0
   25.7208  -21.8966  -14.6357 C   0  0  2  0  0  0  0  0  0  0  0  0
   24.4650  -22.6755  -14.7611 N   0  0  0  0  0  0  0  0  0  0  0  0
   25.6438  -21.0352  -13.4289 C   0  0  0  0  0  0  0  0  0  0  0  0
   26.6158  -20.2454  -13.1494 O   0  0  0  0  0  0  0  0  0  0  0  0
   24.5624  -20.9950  -12.5206 N   0  0  0  0  0  0  0  0  0  0  0  0
   24.5569  -20.1164  -11.3511 C   0  0  1  0  0  0  0  0  0  0  0  0
   23.1426  -19.7060  -10.9939 C   0  0  0  0  0  0  0  0  0  0  0  0
   22.0568  -21.1492  -10.8461 S   0  0  0  0  0  0  0  0  0  0  0  0
   25.2622  -20.7318  -10.2111 C   0  0  0  0  0  0  0  0  0  0  0  0
   25.4316  -21.9991  -10.1965 O   0  0  0  0  0  0  0  0  0  0  0  0
   29.3211  -18.0312   -5.8359 C   0  0  0  0  0  0  0  0  0  0  0  0
   28.7460  -19.4432   -4.8913 S   0  0  0  0  0  0  0  0  0  0  0  0
   27.5209  -20.4390   -5.7916 C   0  0  0  0  0  0  0  0  0  0  0  0
   27.1387  -19.8059   -7.0979 C   0  0  0  0  0  0  0  0  0  0  0  0
   26.1805  -20.6540   -7.8515 C   0  0  2  0  0  0  0  0  0  0  0  0
   25.7731  -20.0004   -9.1121 N   0  0  0  0  0  0  0  0  0  0  0  0
   24.9980  -21.1158   -7.1097 C   0  0  0  0  0  0  0  0  0  0  0  0
   23.8471  -21.4305   -7.8166 O   0  0  0  0  0  0  0  0  0  0  0  0
   24.9695  -21.2418   -5.8729 O   0  0  0  0  0  0  0  0  0  0  0  0
  2  1  1  0
  2  3  1  0
  3  4  1  1
  5  3  1  0
  5  7  1  0
  5  6  1  6
  7  8  2  0
  7  9  1  0
  9 10  1  0
 10 13  1  0
 10 11  1  1
 11 12  1  0
 13 14  2  0
 16 15  1  0
 17 16  1  0
 17 18  1  0
 19 18  1  1
 20 19  1  0
 20 13  1  0
 21 19  1  0
 22 21  1  0
 23 21  2  0
M  END
$$$$
