ICM.pdb
     RDKit          3D

 23 22  0  0  1  0  0  0  0  0999 V2000
   28.1132  -17.1220  -16.6865 C   0  0  0  0  0  0  0  0  0  0  0  0
   28.5785  -18.2957  -15.8650 C   0  0  0  0  0  0  0  0  0  0  0  0
   27.3981  -18.9007  -15.0918 C   0  0  2  0  0  0  0  0  0  0  0  0
   26.9275  -17.8605  -14.1364 C   0  0  0  0  0  0  0  0  0  0  0  0
   27.8366  -20.1959  -14.4658 C   0  0  2  0  0  0  0  0  0  0  0  0
   28.2939  -21.0598  -15.5813 N   0  0  0  0  0  0  0  0  0  0  0  0
   26.7621  -20.8936  -13.7156 C   0  0  0  0  0  0  0  0  0  0  0  0
   25.8915  -21.5888  -14.3525 O   0  0  0  0  0  0  0  0  0  0  0  0
   26.5956  -20.8691  -12.3129 N   0  0  0  0  0  0  0  0  0  0  0  0
   25.3920  -21.3839  -11.6600 C   0  0  1  0  0  0  0  0  0  0  0  0
   25.6128  -21.5358  -10.1686 C   0  0  0  0  0  0  0  0  0  0  0  0
   26.5038  -20.1124   -9.4875 S   0  0  0  0  0  0  0  0  0  0  0  0
   24.2144  -20.5500  -11.9658 C   0  0  0  0  0  0  0  0  0  0  0  0
   24.3861  -19.3192  -12.2667 O   0  0  0  0  0  0  0  0  0  0  0  0
   22.2790  -20.9036  -17.9903 C   0  0  0  0  0  0  0  0  0  0  0  0
   21.1049  -21.1630  -16.6595 S   0  0  0  0  0  0  0  0  0  0  0  0
   21.3664  -20.0317  -15.2613 C   0  0  0  0  0  0  0  0  0  0  0  0
   22.3793  -20.5679  -14.2918 C   0  0  0  0  0  0  0  0  0  0  0  0
   21.8599  -20.5511  -12.9007 C   0  0  2  0  0  0  0  0  0  0  0  0
   22.8826  -21.0295  -11.9480 N   0  0  0  0  0  0  0  0  0  0  0  0
   20.5848  -21.2472  -12.6741 C   0  0  0  0  0  0  0  0  0  0  0  0
   20.6025  -22.6142  -12.4413 O   0  0  0  0  0  0  0  0  0  0  0  0
   19.4804  -20.6757  -12.6791 O   0  0  0  0  0  0  0  0  0  0  0  0
  2  1  1  0
  2  3  1  0
  3  4  1  1
  5  3  1  0
  5  7  1  0
  5  6  1  6
  7  8  2  0
  7  9  1  0
  9 10  1  0
 10 13  1  0
 10 11  1  1
 11 12  1  0
 13 14  2  0
 16 15  1  0
 17 16  1  0
 17 18  1  0
 19 18  1  6
 20 19  1  0
 20 13  1  0
 21 19  1  0
 22 21  1  0
 23 21  2  0
M  END
$$$$
