ICM.pdb
     RDKit          3D

 23 22  0  0  1  0  0  0  0  0999 V2000
   28.4361  -16.1609  -17.4679 C   0  0  0  0  0  0  0  0  0  0  0  0
   27.4394  -17.2888  -17.4110 C   0  0  0  0  0  0  0  0  0  0  0  0
   26.8165  -17.3735  -16.0104 C   0  0  2  0  0  0  0  0  0  0  0  0
   27.9415  -17.4918  -15.0425 C   0  0  0  0  0  0  0  0  0  0  0  0
   25.8255  -18.5045  -15.9840 C   0  0  2  0  0  0  0  0  0  0  0  0
   24.8119  -18.1896  -17.0199 N   0  0  0  0  0  0  0  0  0  0  0  0
   25.1486  -18.6784  -14.6742 C   0  0  0  0  0  0  0  0  0  0  0  0
   24.5362  -17.6857  -14.1391 O   0  0  0  0  0  0  0  0  0  0  0  0
   25.1079  -19.8771  -13.9275 N   0  0  0  0  0  0  0  0  0  0  0  0
   24.4359  -19.9675  -12.6313 C   0  0  1  0  0  0  0  0  0  0  0  0
   23.1695  -20.7925  -12.7388 C   0  0  0  0  0  0  0  0  0  0  0  0
   21.9167  -20.2310  -11.5559 S   0  0  0  0  0  0  0  0  0  0  0  0
   25.3449  -20.4773  -11.5873 C   0  0  0  0  0  0  0  0  0  0  0  0
   25.8505  -21.6442  -11.7198 O   0  0  0  0  0  0  0  0  0  0  0  0
   29.7305  -19.0685   -6.0367 C   0  0  0  0  0  0  0  0  0  0  0  0
   27.9529  -18.9939   -5.8102 S   0  0  0  0  0  0  0  0  0  0  0  0
   27.0554  -20.1193   -6.9198 C   0  0  0  0  0  0  0  0  0  0  0  0
   26.7094  -19.4593   -8.2230 C   0  0  0  0  0  0  0  0  0  0  0  0
   26.0604  -20.4131   -9.1581 C   0  0  2  0  0  0  0  0  0  0  0  0
   25.7012  -19.7483  -10.4275 N   0  0  0  0  0  0  0  0  0  0  0  0
   24.9103  -21.1612   -8.6296 C   0  0  0  0  0  0  0  0  0  0  0  0
   25.1037  -22.4640   -8.1953 O   0  0  0  0  0  0  0  0  0  0  0  0
   23.7629  -20.6890   -8.5484 O   0  0  0  0  0  0  0  0  0  0  0  0
  2  1  1  0
  2  3  1  0
  3  4  1  1
  5  3  1  0
  5  7  1  0
  5  6  1  6
  7  8  2  0
  7  9  1  0
  9 10  1  0
 10 13  1  0
 10 11  1  6
 11 12  1  0
 13 14  2  0
 16 15  1  0
 17 16  1  0
 17 18  1  0
 19 18  1  1
 20 19  1  0
 20 13  1  0
 21 19  1  0
 22 21  1  0
 23 21  2  0
M  END
$$$$
