ICM.pdb
     RDKit          3D

 23 22  0  0  1  0  0  0  0  0999 V2000
   22.2352  -20.5782  -18.2475 C   0  0  0  0  0  0  0  0  0  0  0  0
   22.5884  -19.6836  -17.0883 C   0  0  0  0  0  0  0  0  0  0  0  0
   23.9069  -20.1422  -16.4493 C   0  0  2  0  0  0  0  0  0  0  0  0
   24.5834  -21.0254  -17.4386 C   0  0  0  0  0  0  0  0  0  0  0  0
   23.6101  -20.7776  -15.1190 C   0  0  2  0  0  0  0  0  0  0  0  0
   22.8490  -19.7703  -14.3408 N   0  0  0  0  0  0  0  0  0  0  0  0
   24.8228  -21.1697  -14.3576 C   0  0  0  0  0  0  0  0  0  0  0  0
   25.7261  -21.8828  -14.9254 O   0  0  0  0  0  0  0  0  0  0  0  0
   25.0941  -20.8211  -13.0156 N   0  0  0  0  0  0  0  0  0  0  0  0
   26.4098  -21.0193  -12.4078 C   0  0  1  0  0  0  0  0  0  0  0  0
   27.4801  -20.2886  -13.1930 C   0  0  0  0  0  0  0  0  0  0  0  0
   29.0794  -20.3552  -12.3435 S   0  0  0  0  0  0  0  0  0  0  0  0
   26.4080  -20.6386  -10.9827 C   0  0  0  0  0  0  0  0  0  0  0  0
   26.3207  -19.4019  -10.6703 O   0  0  0  0  0  0  0  0  0  0  0  0
   29.4483  -20.2256   -4.9926 C   0  0  0  0  0  0  0  0  0  0  0  0
   28.2833  -19.0805   -5.7330 S   0  0  0  0  0  0  0  0  0  0  0  0
   26.8885  -19.9209   -6.5402 C   0  0  0  0  0  0  0  0  0  0  0  0
   27.2104  -20.3017   -7.9561 C   0  0  0  0  0  0  0  0  0  0  0  0
   26.1751  -21.2023   -8.5239 C   0  0  2  0  0  0  0  0  0  0  0  0
   26.4984  -21.5675   -9.9183 N   0  0  0  0  0  0  0  0  0  0  0  0
   24.7839  -20.7366   -8.4268 C   0  0  0  0  0  0  0  0  0  0  0  0
   24.0878  -20.9538   -7.2472 O   0  0  0  0  0  0  0  0  0  0  0  0
   24.1892  -20.1534   -9.3502 O   0  0  0  0  0  0  0  0  0  0  0  0
  2  1  1  0
  2  3  1  0
  3  4  1  6
  5  3  1  0
  5  7  1  0
  5  6  1  1
  7  8  2  0
  7  9  1  0
  9 10  1  0
 10 13  1  0
 10 11  1  6
 11 12  1  0
 13 14  2  0
 16 15  1  0
 17 16  1  0
 17 18  1  0
 19 18  1  6
 20 19  1  0
 20 13  1  0
 21 19  1  0
 22 21  1  0
 23 21  2  0
M  END
$$$$
