ICM.pdb
     RDKit          3D

 23 22  0  0  1  0  0  0  0  0999 V2000
   12.9777  -11.0951  -16.2705 C   0  0  0  0  0  0  0  0  0  0  0  0
   14.4714  -11.2119  -16.1156 C   0  0  0  0  0  0  0  0  0  0  0  0
   14.9178  -10.5676  -14.7955 C   0  0  2  0  0  0  0  0  0  0  0  0
   14.4187   -9.1650  -14.8076 C   0  0  0  0  0  0  0  0  0  0  0  0
   16.4079  -10.7175  -14.6581 C   0  0  2  0  0  0  0  0  0  0  0  0
   16.6712  -12.1751  -14.5843 N   0  0  0  0  0  0  0  0  0  0  0  0
   16.9685  -10.0575  -13.4522 C   0  0  0  0  0  0  0  0  0  0  0  0
   16.7319  -10.5499  -12.2910 O   0  0  0  0  0  0  0  0  0  0  0  0
   17.7706   -8.8944  -13.4547 N   0  0  0  0  0  0  0  0  0  0  0  0
   18.3126   -8.3166  -12.2250 C   0  0  1  0  0  0  0  0  0  0  0  0
   19.6491   -7.6524  -12.4869 C   0  0  0  0  0  0  0  0  0  0  0  0
   20.2701   -6.8173  -11.0034 S   0  0  0  0  0  0  0  0  0  0  0  0
   17.3491   -7.3968  -11.5914 C   0  0  0  0  0  0  0  0  0  0  0  0
   16.7497   -6.5299  -12.3153 O   0  0  0  0  0  0  0  0  0  0  0  0
   12.5959   -8.1974   -6.8223 C   0  0  0  0  0  0  0  0  0  0  0  0
   12.3716   -6.8631   -7.9996 S   0  0  0  0  0  0  0  0  0  0  0  0
   13.9409   -6.0914   -8.4944 C   0  0  0  0  0  0  0  0  0  0  0  0
   14.8676   -7.0782   -9.1431 C   0  0  0  0  0  0  0  0  0  0  0  0
   16.1207   -6.4254   -9.6002 C   0  0  2  0  0  0  0  0  0  0  0  0
   17.0380   -7.4095  -10.2105 N   0  0  0  0  0  0  0  0  0  0  0  0
   16.8325   -5.6135   -8.6022 C   0  0  0  0  0  0  0  0  0  0  0  0
   16.2315   -4.4554   -8.1320 O   0  0  0  0  0  0  0  0  0  0  0  0
   17.9531   -5.9077   -8.1507 O   0  0  0  0  0  0  0  0  0  0  0  0
  2  1  1  0
  2  3  1  0
  3  4  1  6
  5  3  1  0
  5  7  1  0
  5  6  1  1
  7  8  2  0
  7  9  1  0
  9 10  1  0
 10 13  1  0
 10 11  1  6
 11 12  1  0
 13 14  2  0
 16 15  1  0
 17 16  1  0
 17 18  1  0
 19 18  1  1
 20 19  1  0
 20 13  1  0
 21 19  1  0
 22 21  1  0
 23 21  2  0
M  END
$$$$
