ICM.pdb
     RDKit          3D

 23 22  0  0  1  0  0  0  0  0999 V2000
   19.0227  -15.0847  -18.0005 C   0  0  0  0  0  0  0  0  0  0  0  0
   18.0874  -14.3090  -17.1106 C   0  0  0  0  0  0  0  0  0  0  0  0
   18.4553  -12.8185  -17.1286 C   0  0  2  0  0  0  0  0  0  0  0  0
   19.8787  -12.7187  -16.7039 C   0  0  0  0  0  0  0  0  0  0  0  0
   17.4758  -12.0631  -16.2732 C   0  0  2  0  0  0  0  0  0  0  0  0
   16.1308  -12.3662  -16.8198 N   0  0  0  0  0  0  0  0  0  0  0  0
   17.6854  -10.5934  -16.2766 C   0  0  0  0  0  0  0  0  0  0  0  0
   17.8967   -9.9846  -17.3863 O   0  0  0  0  0  0  0  0  0  0  0  0
   17.6737   -9.7630  -15.1336 N   0  0  0  0  0  0  0  0  0  0  0  0
   17.9710   -8.3325  -15.2042 C   0  0  1  0  0  0  0  0  0  0  0  0
   16.8161   -7.5161  -14.6604 C   0  0  0  0  0  0  0  0  0  0  0  0
   17.1972   -5.7446  -14.6789 S   0  0  0  0  0  0  0  0  0  0  0  0
   19.2439   -8.0126  -14.5309 C   0  0  0  0  0  0  0  0  0  0  0  0
   19.7368   -8.8529  -13.7029 O   0  0  0  0  0  0  0  0  0  0  0  0
   24.0923  -10.5747  -14.1255 C   0  0  0  0  0  0  0  0  0  0  0  0
   24.6584   -9.0418  -14.8647 S   0  0  0  0  0  0  0  0  0  0  0  0
   23.6449   -7.6126  -14.3817 C   0  0  0  0  0  0  0  0  0  0  0  0
   22.2123   -7.7782  -14.7985 C   0  0  0  0  0  0  0  0  0  0  0  0
   21.3719   -6.6564  -14.3080 C   0  0  2  0  0  0  0  0  0  0  0  0
   19.9694   -6.8159  -14.7437 N   0  0  0  0  0  0  0  0  0  0  0  0
   21.8520   -5.3013  -14.6159 C   0  0  0  0  0  0  0  0  0  0  0  0
   21.2908   -4.6212  -15.6864 O   0  0  0  0  0  0  0  0  0  0  0  0
   22.7407   -4.7237  -13.9656 O   0  0  0  0  0  0  0  0  0  0  0  0
  2  1  1  0
  2  3  1  0
  3  4  1  1
  5  3  1  0
  5  7  1  0
  5  6  1  6
  7  8  2  0
  7  9  1  0
  9 10  1  0
 10 13  1  0
 10 11  1  1
 11 12  1  0
 13 14  2  0
 16 15  1  0
 17 16  1  0
 17 18  1  0
 19 18  1  6
 20 19  1  0
 20 13  1  0
 21 19  1  0
 22 21  1  0
 23 21  2  0
M  END
$$$$
