ICM.pdb
     RDKit          3D

 23 22  0  0  1  0  0  0  0  0999 V2000
   17.7028  -12.4582  -18.9362 C   0  0  0  0  0  0  0  0  0  0  0  0
   17.3339  -12.5535  -17.4790 C   0  0  0  0  0  0  0  0  0  0  0  0
   17.5917  -11.2113  -16.7797 C   0  0  2  0  0  0  0  0  0  0  0  0
   19.0271  -10.8796  -16.9945 C   0  0  0  0  0  0  0  0  0  0  0  0
   17.1665  -11.3203  -15.3412 C   0  0  2  0  0  0  0  0  0  0  0  0
   15.7188  -11.6420  -15.3618 N   0  0  0  0  0  0  0  0  0  0  0  0
   17.3804  -10.0781  -14.5568 C   0  0  0  0  0  0  0  0  0  0  0  0
   16.9183   -8.9635  -14.9939 O   0  0  0  0  0  0  0  0  0  0  0  0
   18.0688   -9.9966  -13.3257 N   0  0  0  0  0  0  0  0  0  0  0  0
   18.3082   -8.7229  -12.6474 C   0  0  1  0  0  0  0  0  0  0  0  0
   18.1207   -8.8675  -11.1507 C   0  0  0  0  0  0  0  0  0  0  0  0
   16.4147   -9.3224  -10.7428 S   0  0  0  0  0  0  0  0  0  0  0  0
   19.6316   -8.1695  -12.9912 C   0  0  0  0  0  0  0  0  0  0  0  0
   20.5819   -8.9715  -13.2890 O   0  0  0  0  0  0  0  0  0  0  0  0
   24.9094   -6.5403  -17.5406 C   0  0  0  0  0  0  0  0  0  0  0  0
   23.3092   -7.0850  -16.9412 S   0  0  0  0  0  0  0  0  0  0  0  0
   22.8668   -6.3404  -15.3434 C   0  0  0  0  0  0  0  0  0  0  0  0
   21.5679   -6.8787  -14.8176 C   0  0  0  0  0  0  0  0  0  0  0  0
   21.2126   -6.2607  -13.5149 C   0  0  2  0  0  0  0  0  0  0  0  0
   19.9256   -6.7850  -13.0138 N   0  0  0  0  0  0  0  0  0  0  0  0
   21.2185   -4.7911  -13.4692 C   0  0  0  0  0  0  0  0  0  0  0  0
   22.4281   -4.1330  -13.3046 O   0  0  0  0  0  0  0  0  0  0  0  0
   20.1917   -4.0971  -13.5705 O   0  0  0  0  0  0  0  0  0  0  0  0
  2  1  1  0
  2  3  1  0
  3  4  1  1
  5  3  1  0
  5  7  1  0
  5  6  1  6
  7  8  2  0
  7  9  1  0
  9 10  1  0
 10 13  1  0
 10 11  1  1
 11 12  1  0
 13 14  2  0
 16 15  1  0
 17 16  1  0
 17 18  1  0
 19 18  1  6
 20 19  1  0
 20 13  1  0
 21 19  1  0
 22 21  1  0
 23 21  2  0
M  END
$$$$
