ICM.pdb
     RDKit          3D

 23 22  0  0  1  0  0  0  0  0999 V2000
   17.8892  -13.4276  -18.7169 C   0  0  0  0  0  0  0  0  0  0  0  0
   17.6253  -13.2329  -17.2468 C   0  0  0  0  0  0  0  0  0  0  0  0
   17.6519  -11.7379  -16.8985 C   0  0  2  0  0  0  0  0  0  0  0  0
   18.9729  -11.2135  -17.3418 C   0  0  0  0  0  0  0  0  0  0  0  0
   17.3543  -11.5721  -15.4337 C   0  0  2  0  0  0  0  0  0  0  0  0
   15.9961  -12.1292  -15.2227 N   0  0  0  0  0  0  0  0  0  0  0  0
   17.3815  -10.1614  -14.9720 C   0  0  0  0  0  0  0  0  0  0  0  0
   16.6207   -9.2943  -15.5343 O   0  0  0  0  0  0  0  0  0  0  0  0
   18.1936   -9.6569  -13.9317 N   0  0  0  0  0  0  0  0  0  0  0  0
   18.2122   -8.2389  -13.5729 C   0  0  1  0  0  0  0  0  0  0  0  0
   17.5359   -8.0139  -12.2358 C   0  0  0  0  0  0  0  0  0  0  0  0
   18.1225   -9.1972  -10.9950 S   0  0  0  0  0  0  0  0  0  0  0  0
   19.5824   -7.6935  -13.6020 C   0  0  0  0  0  0  0  0  0  0  0  0
   20.5724   -8.5023  -13.6249 O   0  0  0  0  0  0  0  0  0  0  0  0
   25.6689   -6.2094  -17.0518 C   0  0  0  0  0  0  0  0  0  0  0  0
   23.9900   -6.7623  -16.7474 S   0  0  0  0  0  0  0  0  0  0  0  0
   23.2225   -5.9286  -15.3266 C   0  0  0  0  0  0  0  0  0  0  0  0
   21.8437   -6.4538  -15.0496 C   0  0  0  0  0  0  0  0  0  0  0  0
   21.2422   -5.7974  -13.8611 C   0  0  2  0  0  0  0  0  0  0  0  0
   19.8803   -6.3096  -13.6061 N   0  0  0  0  0  0  0  0  0  0  0  0
   21.2440   -4.3271  -13.8597 C   0  0  0  0  0  0  0  0  0  0  0  0
   22.3372   -3.6611  -13.3261 O   0  0  0  0  0  0  0  0  0  0  0  0
   20.3130   -3.6391  -14.3138 O   0  0  0  0  0  0  0  0  0  0  0  0
  2  1  1  0
  2  3  1  0
  3  4  1  1
  5  3  1  0
  5  7  1  0
  5  6  1  6
  7  8  2  0
  7  9  1  0
  9 10  1  0
 10 13  1  0
 10 11  1  1
 11 12  1  0
 13 14  2  0
 16 15  1  0
 17 16  1  0
 17 18  1  0
 19 18  1  6
 20 19  1  0
 20 13  1  0
 21 19  1  0
 22 21  1  0
 23 21  2  0
M  END
$$$$
