ICM.pdb
     RDKit          3D

 23 22  0  0  1  0  0  0  0  0999 V2000
   19.2051  -16.6170  -17.0128 C   0  0  0  0  0  0  0  0  0  0  0  0
   20.6373  -16.5672  -17.4767 C   0  0  0  0  0  0  0  0  0  0  0  0
   21.5027  -17.5038  -16.6217 C   0  0  2  0  0  0  0  0  0  0  0  0
   21.8950  -16.7405  -15.4052 C   0  0  0  0  0  0  0  0  0  0  0  0
   22.6454  -18.0115  -17.4572 C   0  0  2  0  0  0  0  0  0  0  0  0
   22.0415  -18.8707  -18.5044 N   0  0  0  0  0  0  0  0  0  0  0  0
   23.6434  -18.8009  -16.6923 C   0  0  0  0  0  0  0  0  0  0  0  0
   23.3181  -19.9490  -16.2204 O   0  0  0  0  0  0  0  0  0  0  0  0
   24.9705  -18.3989  -16.4217 N   0  0  0  0  0  0  0  0  0  0  0  0
   25.8879  -19.2166  -15.6283 C   0  0  1  0  0  0  0  0  0  0  0  0
   27.3254  -18.8070  -15.8774 C   0  0  0  0  0  0  0  0  0  0  0  0
   28.4184  -19.4124  -14.5648 S   0  0  0  0  0  0  0  0  0  0  0  0
   25.5399  -19.1810  -14.1953 C   0  0  0  0  0  0  0  0  0  0  0  0
   25.3420  -18.0503  -13.6321 O   0  0  0  0  0  0  0  0  0  0  0  0
   20.9548  -20.3423  -10.6248 C   0  0  0  0  0  0  0  0  0  0  0  0
   22.1792  -20.5218   -9.3265 S   0  0  0  0  0  0  0  0  0  0  0  0
   23.8803  -20.3141   -9.9316 C   0  0  0  0  0  0  0  0  0  0  0  0
   23.9477  -20.3514  -11.4307 C   0  0  0  0  0  0  0  0  0  0  0  0
   25.3496  -20.2631  -11.9127 C   0  0  2  0  0  0  0  0  0  0  0  0
   25.4080  -20.3356  -13.3870 N   0  0  0  0  0  0  0  0  0  0  0  0
   26.3032  -21.2098  -11.3161 C   0  0  0  0  0  0  0  0  0  0  0  0
   26.7644  -20.9719  -10.0300 O   0  0  0  0  0  0  0  0  0  0  0  0
   26.7246  -22.2216  -11.9035 O   0  0  0  0  0  0  0  0  0  0  0  0
  2  1  1  0
  2  3  1  0
  3  4  1  1
  5  3  1  0
  5  7  1  0
  5  6  1  6
  7  8  2  0
  7  9  1  0
  9 10  1  0
 10 13  1  0
 10 11  1  1
 11 12  1  0
 13 14  2  0
 16 15  1  0
 17 16  1  0
 17 18  1  0
 19 18  1  1
 20 19  1  0
 20 13  1  0
 21 19  1  0
 22 21  1  0
 23 21  2  0
M  END
$$$$
