ICM.pdb
     RDKit          3D

 23 22  0  0  1  0  0  0  0  0999 V2000
   20.5125  -18.9780  -16.3142 C   0  0  0  0  0  0  0  0  0  0  0  0
   20.8134  -20.3191  -16.9303 C   0  0  0  0  0  0  0  0  0  0  0  0
   22.0342  -20.9523  -16.2479 C   0  0  2  0  0  0  0  0  0  0  0  0
   21.6564  -21.2025  -14.8298 C   0  0  0  0  0  0  0  0  0  0  0  0
   23.2248  -20.0552  -16.4462 C   0  0  2  0  0  0  0  0  0  0  0  0
   23.5814  -20.1538  -17.8825 N   0  0  0  0  0  0  0  0  0  0  0  0
   24.4021  -20.4301  -15.6231 C   0  0  0  0  0  0  0  0  0  0  0  0
   24.7992  -21.6502  -15.6014 O   0  0  0  0  0  0  0  0  0  0  0  0
   25.1614  -19.5414  -14.8295 N   0  0  0  0  0  0  0  0  0  0  0  0
   26.2852  -19.9926  -14.0089 C   0  0  1  0  0  0  0  0  0  0  0  0
   27.4663  -19.0544  -14.1524 C   0  0  0  0  0  0  0  0  0  0  0  0
   27.7157  -18.0764  -12.6473 S   0  0  0  0  0  0  0  0  0  0  0  0
   25.8860  -20.1728  -12.6003 C   0  0  0  0  0  0  0  0  0  0  0  0
   24.9147  -19.4824  -12.1369 O   0  0  0  0  0  0  0  0  0  0  0  0
   29.6229  -20.1744   -7.2899 C   0  0  0  0  0  0  0  0  0  0  0  0
   28.0055  -19.4512   -7.0108 S   0  0  0  0  0  0  0  0  0  0  0  0
   26.7120  -20.2036   -8.0421 C   0  0  0  0  0  0  0  0  0  0  0  0
   27.1175  -20.2694   -9.4860 C   0  0  0  0  0  0  0  0  0  0  0  0
   26.1895  -21.1221  -10.2714 C   0  0  2  0  0  0  0  0  0  0  0  0
   26.5176  -21.0750  -11.7110 N   0  0  0  0  0  0  0  0  0  0  0  0
   24.7537  -20.8811  -10.0661 C   0  0  0  0  0  0  0  0  0  0  0  0
   24.0173  -21.8091   -9.3450 O   0  0  0  0  0  0  0  0  0  0  0  0
   24.1553  -19.8837  -10.5058 O   0  0  0  0  0  0  0  0  0  0  0  0
  2  1  1  0
  2  3  1  0
  3  4  1  1
  5  3  1  0
  5  7  1  0
  5  6  1  6
  7  8  2  0
  7  9  1  0
  9 10  1  0
 10 13  1  0
 10 11  1  1
 11 12  1  0
 13 14  2  0
 16 15  1  0
 17 16  1  0
 17 18  1  0
 19 18  1  1
 20 19  1  0
 20 13  1  0
 21 19  1  0
 22 21  1  0
 23 21  2  0
M  END
$$$$
