ICM.pdb
     RDKit          3D

 23 22  0  0  1  0  0  0  0  0999 V2000
   27.5319  -17.6186  -15.6134 C   0  0  0  0  0  0  0  0  0  0  0  0
   26.0528  -17.3822  -15.4548 C   0  0  0  0  0  0  0  0  0  0  0  0
   25.6975  -15.9510  -15.8820 C   0  0  2  0  0  0  0  0  0  0  0  0
   26.4105  -15.0321  -14.9527 C   0  0  0  0  0  0  0  0  0  0  0  0
   24.2009  -15.8056  -15.9059 C   0  0  2  0  0  0  0  0  0  0  0  0
   23.6998  -16.8444  -16.8382 N   0  0  0  0  0  0  0  0  0  0  0  0
   23.7350  -14.4722  -16.3632 C   0  0  0  0  0  0  0  0  0  0  0  0
   23.8958  -14.1294  -17.5893 O   0  0  0  0  0  0  0  0  0  0  0  0
   23.1050  -13.5031  -15.5507 N   0  0  0  0  0  0  0  0  0  0  0  0
   22.7206  -12.1869  -16.0603 C   0  0  1  0  0  0  0  0  0  0  0  0
   21.4423  -11.7081  -15.4024 C   0  0  0  0  0  0  0  0  0  0  0  0
   20.1719  -13.0003  -15.4164 S   0  0  0  0  0  0  0  0  0  0  0  0
   23.8184  -11.2120  -15.9177 C   0  0  0  0  0  0  0  0  0  0  0  0
   24.3557  -11.0453  -14.7695 O   0  0  0  0  0  0  0  0  0  0  0  0
   30.7886   -8.6308  -17.5813 C   0  0  0  0  0  0  0  0  0  0  0  0
   29.4421   -9.8148  -17.6230 S   0  0  0  0  0  0  0  0  0  0  0  0
   27.8567   -9.0944  -17.1029 C   0  0  0  0  0  0  0  0  0  0  0  0
   26.7251  -10.0694  -17.2523 C   0  0  0  0  0  0  0  0  0  0  0  0
   25.4379   -9.4785  -16.8061 C   0  0  2  0  0  0  0  0  0  0  0  0
   24.3261  -10.4344  -16.9860 N   0  0  0  0  0  0  0  0  0  0  0  0
   25.0874   -8.1722  -17.3828 C   0  0  0  0  0  0  0  0  0  0  0  0
   25.7128   -7.0360  -16.8917 O   0  0  0  0  0  0  0  0  0  0  0  0
   24.2546   -8.0255  -18.2944 O   0  0  0  0  0  0  0  0  0  0  0  0
  2  1  1  0
  2  3  1  0
  3  4  1  1
  5  3  1  0
  5  7  1  0
  5  6  1  6
  7  8  2  0
  7  9  1  0
  9 10  1  0
 10 13  1  0
 10 11  1  1
 11 12  1  0
 13 14  2  0
 16 15  1  0
 17 16  1  0
 17 18  1  0
 19 18  1  6
 20 19  1  0
 20 13  1  0
 21 19  1  0
 22 21  1  0
 23 21  2  0
M  END
$$$$
