CCF.pdb
     RDKit          3D

 24 24  0  0  1  0  0  0  0  0999 V2000
   32.3712  -32.5442  -16.0108 N   0  0  0  0  0  0  0  0  0  0  0  0
   31.3361  -33.5611  -16.0529 C   0  0  1  0  0  0  0  0  0  0  0  0
   31.7291  -34.7484  -15.2240 C   0  0  0  0  0  0  0  0  0  0  0  0
   33.0873  -35.6144  -16.0596 S   0  0  0  0  0  0  0  0  0  0  0  0
   30.0154  -33.0086  -15.7187 C   0  0  0  0  0  0  0  0  0  0  0  0
   29.9709  -32.0107  -14.9531 O   0  0  0  0  0  0  0  0  0  0  0  0
   28.7822  -33.5345  -16.2092 N   0  0  0  0  0  0  0  0  0  0  0  0
   27.5004  -33.0132  -15.8645 C   0  0  1  0  0  0  0  0  0  0  0  0
   26.4738  -33.1944  -16.9630 C   0  0  0  0  0  0  0  0  0  0  0  0
   24.8641  -32.5236  -16.5316 S   0  0  0  0  0  0  0  0  0  0  0  0
   26.9861  -33.5889  -14.5743 C   0  0  0  0  0  0  0  0  0  0  0  0
   27.1472  -34.8047  -14.2960 O   0  0  0  0  0  0  0  0  0  0  0  0
   26.3110  -32.7321  -13.6686 N   0  0  0  0  0  0  0  0  0  0  0  0
   25.8914  -33.2795  -12.3781 C   0  0  1  0  0  0  0  0  0  0  0  0
   26.1078  -32.2692  -11.2983 C   0  0  0  0  0  0  0  0  0  0  0  0
   25.7490  -32.8251   -9.9861 C   0  0  0  0  0  0  0  0  0  0  0  0
   25.7139  -31.9885   -8.8903 C   0  0  0  0  0  0  0  0  0  0  0  0
   25.3538  -32.4490   -7.6288 C   0  0  0  0  0  0  0  0  0  0  0  0
   25.0197  -33.7666   -7.4422 C   0  0  0  0  0  0  0  0  0  0  0  0
   25.0518  -34.6098   -8.5315 C   0  0  0  0  0  0  0  0  0  0  0  0
   25.4095  -34.1467   -9.7781 C   0  0  0  0  0  0  0  0  0  0  0  0
   24.4754  -33.6763  -12.4290 C   0  0  0  0  0  0  0  0  0  0  0  0
   23.6655  -32.9567  -13.0720 O   0  0  0  0  0  0  0  0  0  0  0  0
   24.0294  -34.7975  -11.8027 O   0  0  0  0  0  0  0  0  0  0  0  0
  2  1  1  1
  2  5  1  0
  3  2  1  0
  4  3  1  0
  5  6  2  0
  7  8  1  0
  7  5  1  0
  8 11  1  0
  9 10  1  0
  8  9  1  6
 11 12  2  0
 11 13  1  0
 13 14  1  0
 14 22  1  0
 14 15  1  1
 16 15  1  0
 16 17  2  0
 18 17  1  0
 19 18  2  0
 20 21  2  0
 20 19  1  0
 21 16  1  0
 22 23  2  0
 22 24  1  0
M  END
$$$$
