CCF.pdb
     RDKit          3D

 24 24  0  0  1  0  0  0  0  0999 V2000
   27.3822  -13.4078  -15.8806 N   0  0  0  0  0  0  0  0  0  0  0  0
   27.3641  -12.0096  -16.2705 C   0  0  1  0  0  0  0  0  0  0  0  0
   28.1296  -11.8073  -17.5449 C   0  0  0  0  0  0  0  0  0  0  0  0
   28.1164  -10.0395  -17.9543 S   0  0  0  0  0  0  0  0  0  0  0  0
   25.9969  -11.4701  -16.3014 C   0  0  0  0  0  0  0  0  0  0  0  0
   25.0711  -12.2332  -16.6818 O   0  0  0  0  0  0  0  0  0  0  0  0
   25.6561  -10.1355  -15.9268 N   0  0  0  0  0  0  0  0  0  0  0  0
   24.3206   -9.6380  -15.8775 C   0  0  1  0  0  0  0  0  0  0  0  0
   23.4397  -10.4043  -14.9131 C   0  0  0  0  0  0  0  0  0  0  0  0
   23.7894  -10.0211  -13.1931 S   0  0  0  0  0  0  0  0  0  0  0  0
   24.2776   -8.1684  -15.5631 C   0  0  0  0  0  0  0  0  0  0  0  0
   25.2538   -7.5923  -15.0182 O   0  0  0  0  0  0  0  0  0  0  0  0
   23.1093   -7.4361  -15.8933 N   0  0  0  0  0  0  0  0  0  0  0  0
   23.0833   -6.0028  -15.5996 C   0  0  1  0  0  0  0  0  0  0  0  0
   22.7398   -5.2332  -16.8337 C   0  0  0  0  0  0  0  0  0  0  0  0
   23.8222   -5.3267  -17.8234 C   0  0  0  0  0  0  0  0  0  0  0  0
   23.7400   -6.2769  -18.8194 C   0  0  0  0  0  0  0  0  0  0  0  0
   24.7176   -6.3952  -19.8009 C   0  0  0  0  0  0  0  0  0  0  0  0
   25.8033   -5.5563  -19.8012 C   0  0  0  0  0  0  0  0  0  0  0  0
   25.8938   -4.6037  -18.8098 C   0  0  0  0  0  0  0  0  0  0  0  0
   24.9216   -4.4923  -17.8408 C   0  0  0  0  0  0  0  0  0  0  0  0
   22.1095   -5.7187  -14.5337 C   0  0  0  0  0  0  0  0  0  0  0  0
   21.2786   -6.6110  -14.2162 O   0  0  0  0  0  0  0  0  0  0  0  0
   22.0921   -4.5222  -13.8886 O   0  0  0  0  0  0  0  0  0  0  0  0
  2  1  1  6
  2  5  1  0
  3  2  1  0
  4  3  1  0
  5  6  2  0
  7  8  1  0
  7  5  1  0
  8 11  1  0
  9 10  1  0
  8  9  1  1
 11 12  2  0
 11 13  1  0
 13 14  1  0
 14 22  1  0
 14 15  1  6
 16 15  1  0
 16 17  2  0
 18 17  1  0
 19 18  2  0
 20 21  2  0
 20 19  1  0
 21 16  1  0
 22 23  2  0
 22 24  1  0
M  END
$$$$
