CCF.pdb
     RDKit          3D

 24 24  0  0  1  0  0  0  0  0999 V2000
   13.7074   -9.6897  -17.1092 N   0  0  0  0  0  0  0  0  0  0  0  0
   14.9527  -10.1770  -16.5443 C   0  0  1  0  0  0  0  0  0  0  0  0
   15.2258  -11.5799  -17.0008 C   0  0  0  0  0  0  0  0  0  0  0  0
   14.1173  -12.7058  -16.1082 S   0  0  0  0  0  0  0  0  0  0  0  0
   16.0623   -9.2429  -16.7840 C   0  0  0  0  0  0  0  0  0  0  0  0
   16.1907   -8.7655  -17.9414 O   0  0  0  0  0  0  0  0  0  0  0  0
   17.0014   -8.8450  -15.7852 N   0  0  0  0  0  0  0  0  0  0  0  0
   18.0053   -7.8522  -15.9857 C   0  0  1  0  0  0  0  0  0  0  0  0
   17.6133   -6.4962  -15.4372 C   0  0  0  0  0  0  0  0  0  0  0  0
   18.9676   -5.3161  -15.4597 S   0  0  0  0  0  0  0  0  0  0  0  0
   19.3349   -8.2737  -15.4247 C   0  0  0  0  0  0  0  0  0  0  0  0
   19.4347   -8.7110  -14.2498 O   0  0  0  0  0  0  0  0  0  0  0  0
   20.4844   -8.1695  -16.2482 N   0  0  0  0  0  0  0  0  0  0  0  0
   21.7821   -8.5306  -15.6764 C   0  0  1  0  0  0  0  0  0  0  0  0
   22.5796   -9.3127  -16.6692 C   0  0  0  0  0  0  0  0  0  0  0  0
   23.9031   -9.6479  -16.1252 C   0  0  0  0  0  0  0  0  0  0  0  0
   24.9861   -8.8652  -16.4662 C   0  0  0  0  0  0  0  0  0  0  0  0
   26.2573   -9.1142  -15.9612 C   0  0  0  0  0  0  0  0  0  0  0  0
   26.4668  -10.1605  -15.0987 C   0  0  0  0  0  0  0  0  0  0  0  0
   25.3904  -10.9479  -14.7523 C   0  0  0  0  0  0  0  0  0  0  0  0
   24.1340  -10.6952  -15.2564 C   0  0  0  0  0  0  0  0  0  0  0  0
   22.5154   -7.3205  -15.2725 C   0  0  0  0  0  0  0  0  0  0  0  0
   22.4862   -6.3122  -16.0273 O   0  0  0  0  0  0  0  0  0  0  0  0
   23.2154   -7.2701  -14.1083 O   0  0  0  0  0  0  0  0  0  0  0  0
  2  1  1  6
  2  5  1  0
  3  2  1  0
  4  3  1  0
  5  6  2  0
  7  8  1  0
  7  5  1  0
  8 11  1  0
  9 10  1  0
  8  9  1  1
 11 12  2  0
 11 13  1  0
 13 14  1  0
 14 22  1  0
 14 15  1  6
 16 15  1  0
 16 17  2  0
 18 17  1  0
 19 18  2  0
 20 21  2  0
 20 19  1  0
 21 16  1  0
 22 23  2  0
 22 24  1  0
M  END
$$$$
