CCF.pdb
     RDKit          3D

 24 24  0  0  1  0  0  0  0  0999 V2000
   20.9219  -15.2873  -19.7027 N   0  0  0  0  0  0  0  0  0  0  0  0
   20.7154  -14.4564  -18.5303 C   0  0  1  0  0  0  0  0  0  0  0  0
   21.1957  -15.1589  -17.2946 C   0  0  0  0  0  0  0  0  0  0  0  0
   20.1035  -16.5711  -16.9694 S   0  0  0  0  0  0  0  0  0  0  0  0
   21.2780  -13.1102  -18.7105 C   0  0  0  0  0  0  0  0  0  0  0  0
   21.9371  -12.8826  -19.7582 O   0  0  0  0  0  0  0  0  0  0  0  0
   21.1224  -12.0472  -17.7705 N   0  0  0  0  0  0  0  0  0  0  0  0
   21.4440  -10.6857  -18.0470 C   0  0  1  0  0  0  0  0  0  0  0  0
   20.7996  -10.1725  -19.3177 C   0  0  0  0  0  0  0  0  0  0  0  0
   21.0625   -8.4137  -19.5727 S   0  0  0  0  0  0  0  0  0  0  0  0
   21.1079   -9.7816  -16.8937 C   0  0  0  0  0  0  0  0  0  0  0  0
   19.9746   -9.8172  -16.3497 O   0  0  0  0  0  0  0  0  0  0  0  0
   22.0973   -8.8807  -16.4249 N   0  0  0  0  0  0  0  0  0  0  0  0
   21.7582   -7.9982  -15.3081 C   0  0  1  0  0  0  0  0  0  0  0  0
   22.7901   -8.1126  -14.2332 C   0  0  0  0  0  0  0  0  0  0  0  0
   23.8807   -9.0043  -14.6516 C   0  0  0  0  0  0  0  0  0  0  0  0
   23.8880  -10.3095  -14.2063 C   0  0  0  0  0  0  0  0  0  0  0  0
   24.8764  -11.2086  -14.5905 C   0  0  0  0  0  0  0  0  0  0  0  0
   25.8829  -10.8120  -15.4345 C   0  0  0  0  0  0  0  0  0  0  0  0
   25.8837   -9.5096  -15.8844 C   0  0  0  0  0  0  0  0  0  0  0  0
   24.9013   -8.6245  -15.4997 C   0  0  0  0  0  0  0  0  0  0  0  0
   21.6569   -6.6054  -15.7719 C   0  0  0  0  0  0  0  0  0  0  0  0
   22.0508   -6.3220  -16.9346 O   0  0  0  0  0  0  0  0  0  0  0  0
   21.1475   -5.6276  -14.9765 O   0  0  0  0  0  0  0  0  0  0  0  0
  2  1  1  6
  2  5  1  0
  3  2  1  0
  4  3  1  0
  5  6  2  0
  7  8  1  0
  7  5  1  0
  8 11  1  0
  9 10  1  0
  8  9  1  6
 11 12  2  0
 11 13  1  0
 13 14  1  0
 14 22  1  0
 14 15  1  1
 16 15  1  0
 16 17  2  0
 18 17  1  0
 19 18  2  0
 20 21  2  0
 20 19  1  0
 21 16  1  0
 22 23  2  0
 22 24  1  0
M  END
$$$$
