CCF.pdb
     RDKit          3D

 24 24  0  0  1  0  0  0  0  0999 V2000
   19.8954  -13.9995  -20.0587 N   0  0  0  0  0  0  0  0  0  0  0  0
   20.4044  -13.5930  -18.7614 C   0  0  1  0  0  0  0  0  0  0  0  0
   21.6034  -14.4126  -18.3847 C   0  0  0  0  0  0  0  0  0  0  0  0
   22.0546  -14.0251  -16.6703 S   0  0  0  0  0  0  0  0  0  0  0  0
   20.6263  -12.1413  -18.6935 C   0  0  0  0  0  0  0  0  0  0  0  0
   21.0098  -11.5545  -19.7387 O   0  0  0  0  0  0  0  0  0  0  0  0
   20.4335  -11.3581  -17.5157 N   0  0  0  0  0  0  0  0  0  0  0  0
   20.4899   -9.9334  -17.4881 C   0  0  1  0  0  0  0  0  0  0  0  0
   19.5502   -9.2854  -18.4833 C   0  0  0  0  0  0  0  0  0  0  0  0
   17.8190   -9.5557  -18.0867 S   0  0  0  0  0  0  0  0  0  0  0  0
   20.2431   -9.3860  -16.1097 C   0  0  0  0  0  0  0  0  0  0  0  0
   19.4733   -9.9724  -15.3066 O   0  0  0  0  0  0  0  0  0  0  0  0
   20.8976   -8.1881  -15.7264 N   0  0  0  0  0  0  0  0  0  0  0  0
   20.6595   -7.6684  -14.3795 C   0  0  1  0  0  0  0  0  0  0  0  0
   21.9483   -7.5842  -13.6276 C   0  0  0  0  0  0  0  0  0  0  0  0
   22.9768   -6.9096  -14.4318 C   0  0  0  0  0  0  0  0  0  0  0  0
   23.0303   -5.5316  -14.4328 C   0  0  0  0  0  0  0  0  0  0  0  0
   23.9979   -4.8370  -15.1502 C   0  0  0  0  0  0  0  0  0  0  0  0
   24.9361   -5.5170  -15.8848 C   0  0  0  0  0  0  0  0  0  0  0  0
   24.8904   -6.8941  -15.8896 C   0  0  0  0  0  0  0  0  0  0  0  0
   23.9292   -7.5755  -15.1766 C   0  0  0  0  0  0  0  0  0  0  0  0
   20.0224   -6.3438  -14.4496 C   0  0  0  0  0  0  0  0  0  0  0  0
   19.8712   -5.8013  -15.5767 O   0  0  0  0  0  0  0  0  0  0  0  0
   19.5948   -5.7016  -13.3304 O   0  0  0  0  0  0  0  0  0  0  0  0
  2  1  1  6
  2  5  1  0
  3  2  1  0
  4  3  1  0
  5  6  2  0
  7  8  1  0
  7  5  1  0
  8 11  1  0
  9 10  1  0
  8  9  1  6
 11 12  2  0
 11 13  1  0
 13 14  1  0
 14 22  1  0
 14 15  1  6
 16 15  1  0
 16 17  2  0
 18 17  1  0
 19 18  2  0
 20 21  2  0
 20 19  1  0
 21 16  1  0
 22 23  2  0
 22 24  1  0
M  END
$$$$
