CCF.pdb
     RDKit          3D

 24 24  0  0  1  0  0  0  0  0999 V2000
   29.5847  -23.4979  -17.9606 N   0  0  0  0  0  0  0  0  0  0  0  0
   28.4598  -22.6828  -17.5391 C   0  0  1  0  0  0  0  0  0  0  0  0
   27.1859  -23.4735  -17.5926 C   0  0  0  0  0  0  0  0  0  0  0  0
   26.9216  -24.0317  -19.2989 S   0  0  0  0  0  0  0  0  0  0  0  0
   28.7100  -22.0379  -16.2418 C   0  0  0  0  0  0  0  0  0  0  0  0
   29.8811  -21.6496  -15.9932 O   0  0  0  0  0  0  0  0  0  0  0  0
   27.7069  -21.8258  -15.2486 N   0  0  0  0  0  0  0  0  0  0  0  0
   27.6914  -20.7132  -14.3567 C   0  0  1  0  0  0  0  0  0  0  0  0
   27.8735  -19.3864  -15.0637 C   0  0  0  0  0  0  0  0  0  0  0  0
   27.4921  -17.9785  -14.0150 S   0  0  0  0  0  0  0  0  0  0  0  0
   26.4474  -20.6845  -13.5128 C   0  0  0  0  0  0  0  0  0  0  0  0
   25.3099  -20.5692  -14.0367 O   0  0  0  0  0  0  0  0  0  0  0  0
   26.5781  -20.7904  -12.1050 N   0  0  0  0  0  0  0  0  0  0  0  0
   25.4505  -21.3274  -11.3424 C   0  0  1  0  0  0  0  0  0  0  0  0
   25.9471  -22.0358  -10.1239 C   0  0  0  0  0  0  0  0  0  0  0  0
   26.6387  -21.1016   -9.2245 C   0  0  0  0  0  0  0  0  0  0  0  0
   28.0176  -21.0885   -9.2026 C   0  0  0  0  0  0  0  0  0  0  0  0
   28.7286  -20.2081   -8.3949 C   0  0  0  0  0  0  0  0  0  0  0  0
   28.0647  -19.3184   -7.5885 C   0  0  0  0  0  0  0  0  0  0  0  0
   26.6869  -19.3244   -7.6039 C   0  0  0  0  0  0  0  0  0  0  0  0
   25.9892  -20.1993   -8.4066 C   0  0  0  0  0  0  0  0  0  0  0  0
   24.5299  -20.2440  -10.9630 C   0  0  0  0  0  0  0  0  0  0  0  0
   24.9120  -19.0500  -11.0887 O   0  0  0  0  0  0  0  0  0  0  0  0
   23.2840  -20.5055  -10.4862 O   0  0  0  0  0  0  0  0  0  0  0  0
  2  1  1  1
  2  5  1  0
  3  2  1  0
  4  3  1  0
  5  6  2  0
  7  8  1  0
  7  5  1  0
  8 11  1  0
  9 10  1  0
  8  9  1  6
 11 12  2  0
 11 13  1  0
 13 14  1  0
 14 22  1  0
 14 15  1  1
 16 15  1  0
 16 17  2  0
 18 17  1  0
 19 18  2  0
 20 21  2  0
 20 19  1  0
 21 16  1  0
 22 23  2  0
 22 24  1  0
M  END
$$$$
