CCF.pdb
     RDKit          3D

 24 24  0  0  1  0  0  0  0  0999 V2000
   20.3044  -12.8708  -17.8064 N   0  0  0  0  0  0  0  0  0  0  0  0
   20.0547  -12.0537  -16.6327 C   0  0  1  0  0  0  0  0  0  0  0  0
   20.9498  -12.4674  -15.5018 C   0  0  0  0  0  0  0  0  0  0  0  0
   20.3388  -14.0355  -14.8231 S   0  0  0  0  0  0  0  0  0  0  0  0
   20.1105  -10.6185  -16.9459 C   0  0  0  0  0  0  0  0  0  0  0  0
   20.8958  -10.2441  -17.8554 O   0  0  0  0  0  0  0  0  0  0  0  0
   19.3291   -9.6252  -16.2822 N   0  0  0  0  0  0  0  0  0  0  0  0
   19.2858   -8.2539  -16.6715 C   0  0  1  0  0  0  0  0  0  0  0  0
   17.9023   -7.8019  -17.0898 C   0  0  0  0  0  0  0  0  0  0  0  0
   17.2647   -8.7178  -18.4976 S   0  0  0  0  0  0  0  0  0  0  0  0
   19.8261   -7.3467  -15.6012 C   0  0  0  0  0  0  0  0  0  0  0  0
   19.2926   -7.2952  -14.4635 O   0  0  0  0  0  0  0  0  0  0  0  0
   20.9562   -6.5434  -15.8973 N   0  0  0  0  0  0  0  0  0  0  0  0
   21.5342   -5.7364  -14.8222 C   0  0  1  0  0  0  0  0  0  0  0  0
   23.0023   -5.9961  -14.7193 C   0  0  0  0  0  0  0  0  0  0  0  0
   23.2641   -7.4261  -14.5047 C   0  0  0  0  0  0  0  0  0  0  0  0
   24.1059   -8.0912  -15.3712 C   0  0  0  0  0  0  0  0  0  0  0  0
   24.4150   -9.4363  -15.2036 C   0  0  0  0  0  0  0  0  0  0  0  0
   23.8815  -10.1440  -14.1562 C   0  0  0  0  0  0  0  0  0  0  0  0
   23.0394   -9.4876  -13.2853 C   0  0  0  0  0  0  0  0  0  0  0  0
   22.7377   -8.1550  -13.4574 C   0  0  0  0  0  0  0  0  0  0  0  0
   21.2849   -4.3071  -15.0674 C   0  0  0  0  0  0  0  0  0  0  0  0
   21.6210   -3.4718  -14.1861 O   0  0  0  0  0  0  0  0  0  0  0  0
   20.7062   -3.8748  -16.2190 O   0  0  0  0  0  0  0  0  0  0  0  0
  2  1  1  6
  2  5  1  0
  3  2  1  0
  4  3  1  0
  5  6  2  0
  7  8  1  0
  7  5  1  0
  8 11  1  0
  9 10  1  0
  8  9  1  1
 11 12  2  0
 11 13  1  0
 13 14  1  0
 14 22  1  0
 14 15  1  6
 16 15  1  0
 16 17  2  0
 18 17  1  0
 19 18  2  0
 20 21  2  0
 20 19  1  0
 21 16  1  0
 22 23  2  0
 22 24  1  0
M  END
$$$$
