CCF.pdb
     RDKit          3D

 24 24  0  0  1  0  0  0  0  0999 V2000
   25.5701  -17.7526  -15.6725 N   0  0  0  0  0  0  0  0  0  0  0  0
   26.3631  -17.8675  -14.4620 C   0  0  1  0  0  0  0  0  0  0  0  0
   26.2409  -16.6241  -13.6313 C   0  0  0  0  0  0  0  0  0  0  0  0
   27.1579  -15.2887  -14.4490 S   0  0  0  0  0  0  0  0  0  0  0  0
   26.0647  -19.1076  -13.7308 C   0  0  0  0  0  0  0  0  0  0  0  0
   24.8776  -19.5254  -13.7395 O   0  0  0  0  0  0  0  0  0  0  0  0
   27.0383  -19.8653  -13.0127 N   0  0  0  0  0  0  0  0  0  0  0  0
   26.7604  -21.0991  -12.3537 C   0  0  1  0  0  0  0  0  0  0  0  0
   27.3631  -22.2953  -13.0602 C   0  0  0  0  0  0  0  0  0  0  0  0
   29.0657  -22.0231  -13.5648 S   0  0  0  0  0  0  0  0  0  0  0  0
   27.1892  -21.0776  -10.9129 C   0  0  0  0  0  0  0  0  0  0  0  0
   28.3969  -21.2215  -10.5927 O   0  0  0  0  0  0  0  0  0  0  0  0
   26.2022  -20.8911   -9.9122 N   0  0  0  0  0  0  0  0  0  0  0  0
   26.6226  -20.9142   -8.5108 C   0  0  1  0  0  0  0  0  0  0  0  0
   27.6000  -19.8140   -8.2510 C   0  0  0  0  0  0  0  0  0  0  0  0
   27.9645  -19.7670   -6.8280 C   0  0  0  0  0  0  0  0  0  0  0  0
   29.0891  -20.4414   -6.4012 C   0  0  0  0  0  0  0  0  0  0  0  0
   29.5013  -20.4109   -5.0737 C   0  0  0  0  0  0  0  0  0  0  0  0
   28.7878  -19.6980   -4.1435 C   0  0  0  0  0  0  0  0  0  0  0  0
   27.6627  -19.0210   -4.5610 C   0  0  0  0  0  0  0  0  0  0  0  0
   27.2603  -19.0557   -5.8776 C   0  0  0  0  0  0  0  0  0  0  0  0
   25.4546  -20.7783   -7.6262 C   0  0  0  0  0  0  0  0  0  0  0  0
   24.4843  -20.0697   -8.0055 O   0  0  0  0  0  0  0  0  0  0  0  0
   25.4024  -21.4005   -6.4187 O   0  0  0  0  0  0  0  0  0  0  0  0
  2  1  1  6
  2  5  1  0
  3  2  1  0
  4  3  1  0
  5  6  2  0
  7  8  1  0
  7  5  1  0
  8 11  1  0
  9 10  1  0
  8  9  1  6
 11 12  2  0
 11 13  1  0
 13 14  1  0
 14 22  1  0
 14 15  1  6
 16 15  1  0
 16 17  2  0
 18 17  1  0
 19 18  2  0
 20 21  2  0
 20 19  1  0
 21 16  1  0
 22 23  2  0
 22 24  1  0
M  END
$$$$
