CCF.pdb
     RDKit          3D

 24 24  0  0  1  0  0  0  0  0999 V2000
   16.3453  -12.4754  -17.0491 N   0  0  0  0  0  0  0  0  0  0  0  0
   17.2120  -11.8542  -16.0640 C   0  0  1  0  0  0  0  0  0  0  0  0
   18.1020  -12.8784  -15.4237 C   0  0  0  0  0  0  0  0  0  0  0  0
   17.1465  -13.7707  -14.1653 S   0  0  0  0  0  0  0  0  0  0  0  0
   17.9322  -10.7004  -16.6222 C   0  0  0  0  0  0  0  0  0  0  0  0
   18.1340  -10.6767  -17.8642 O   0  0  0  0  0  0  0  0  0  0  0  0
   18.4157   -9.6071  -15.8421 N   0  0  0  0  0  0  0  0  0  0  0  0
   18.9924   -8.4264  -16.3962 C   0  0  1  0  0  0  0  0  0  0  0  0
   18.1282   -7.7927  -17.4662 C   0  0  0  0  0  0  0  0  0  0  0  0
   18.6917   -6.1536  -17.9385 S   0  0  0  0  0  0  0  0  0  0  0  0
   19.3319   -7.4145  -15.3374 C   0  0  0  0  0  0  0  0  0  0  0  0
   18.4547   -6.9838  -14.5458 O   0  0  0  0  0  0  0  0  0  0  0  0
   20.6681   -6.9494  -15.2446 N   0  0  0  0  0  0  0  0  0  0  0  0
   21.0052   -6.0191  -14.1666 C   0  0  1  0  0  0  0  0  0  0  0  0
   22.0333   -6.6269  -13.2682 C   0  0  0  0  0  0  0  0  0  0  0  0
   23.0868   -7.2850  -14.0535 C   0  0  0  0  0  0  0  0  0  0  0  0
   23.1933   -8.6594  -14.0138 C   0  0  0  0  0  0  0  0  0  0  0  0
   24.1503   -9.3413  -14.7568 C   0  0  0  0  0  0  0  0  0  0  0  0
   25.0243   -8.6520  -15.5590 C   0  0  0  0  0  0  0  0  0  0  0  0
   24.9253   -7.2785  -15.6050 C   0  0  0  0  0  0  0  0  0  0  0  0
   23.9747   -6.6097  -14.8663 C   0  0  0  0  0  0  0  0  0  0  0  0
   21.5008   -4.7508  -14.7243 C   0  0  0  0  0  0  0  0  0  0  0  0
   21.6476   -4.6519  -15.9717 O   0  0  0  0  0  0  0  0  0  0  0  0
   21.7977   -3.6918  -13.9253 O   0  0  0  0  0  0  0  0  0  0  0  0
  2  1  1  6
  2  5  1  0
  3  2  1  0
  4  3  1  0
  5  6  2  0
  7  8  1  0
  7  5  1  0
  8 11  1  0
  9 10  1  0
  8  9  1  6
 11 12  2  0
 11 13  1  0
 13 14  1  0
 14 22  1  0
 14 15  1  1
 16 15  1  0
 16 17  2  0
 18 17  1  0
 19 18  2  0
 20 21  2  0
 20 19  1  0
 21 16  1  0
 22 23  2  0
 22 24  1  0
M  END
$$$$
