CCF.pdb
     RDKit          3D

 24 24  0  0  1  0  0  0  0  0999 V2000
   21.2472   -5.9508  -24.1732 N   0  0  0  0  0  0  0  0  0  0  0  0
   21.8400   -6.4136  -22.9315 C   0  0  1  0  0  0  0  0  0  0  0  0
   23.3268   -6.2132  -22.9498 C   0  0  0  0  0  0  0  0  0  0  0  0
   24.0909   -7.6221  -23.8007 S   0  0  0  0  0  0  0  0  0  0  0  0
   21.1720   -5.8315  -21.7584 C   0  0  0  0  0  0  0  0  0  0  0  0
   21.0621   -4.5789  -21.7044 O   0  0  0  0  0  0  0  0  0  0  0  0
   20.6412   -6.5995  -20.6785 N   0  0  0  0  0  0  0  0  0  0  0  0
   19.8866   -6.0461  -19.6024 C   0  0  1  0  0  0  0  0  0  0  0  0
   18.3939   -6.0639  -19.8570 C   0  0  0  0  0  0  0  0  0  0  0  0
   17.8864   -4.8878  -21.1166 S   0  0  0  0  0  0  0  0  0  0  0  0
   20.1973   -6.7161  -18.2929 C   0  0  0  0  0  0  0  0  0  0  0  0
   20.7145   -7.8618  -18.2564 O   0  0  0  0  0  0  0  0  0  0  0  0
   19.8954   -6.0299  -17.0894 N   0  0  0  0  0  0  0  0  0  0  0  0
   20.2652   -6.6590  -15.8211 C   0  0  1  0  0  0  0  0  0  0  0  0
   21.7530   -6.7197  -15.6940 C   0  0  0  0  0  0  0  0  0  0  0  0
   22.1417   -7.3979  -14.4495 C   0  0  0  0  0  0  0  0  0  0  0  0
   22.5924   -8.6999  -14.5079 C   0  0  0  0  0  0  0  0  0  0  0  0
   23.0018   -9.3847  -13.3692 C   0  0  0  0  0  0  0  0  0  0  0  0
   22.9662   -8.7714  -12.1423 C   0  0  0  0  0  0  0  0  0  0  0  0
   22.5173   -7.4705  -12.0744 C   0  0  0  0  0  0  0  0  0  0  0  0
   22.1134   -6.7983  -13.2066 C   0  0  0  0  0  0  0  0  0  0  0  0
   19.6870   -5.9109  -14.6936 C   0  0  0  0  0  0  0  0  0  0  0  0
   19.5171   -4.6682  -14.8124 O   0  0  0  0  0  0  0  0  0  0  0  0
   19.3330   -6.5314  -13.5370 O   0  0  0  0  0  0  0  0  0  0  0  0
  2  1  1  6
  2  5  1  0
  3  2  1  0
  4  3  1  0
  5  6  2  0
  7  8  1  0
  7  5  1  0
  8 11  1  0
  9 10  1  0
  8  9  1  6
 11 12  2  0
 11 13  1  0
 13 14  1  0
 14 22  1  0
 14 15  1  1
 16 15  1  0
 16 17  2  0
 18 17  1  0
 19 18  2  0
 20 21  2  0
 20 19  1  0
 21 16  1  0
 22 23  2  0
 22 24  1  0
M  END
$$$$
