CCF.pdb
     RDKit          3D

 24 24  0  0  1  0  0  0  0  0999 V2000
   27.0648  -19.4942  -16.5588 N   0  0  0  0  0  0  0  0  0  0  0  0
   27.7121  -19.7793  -15.2911 C   0  0  1  0  0  0  0  0  0  0  0  0
   28.9441  -18.9388  -15.1271 C   0  0  0  0  0  0  0  0  0  0  0  0
   28.4418  -17.2055  -14.9367 S   0  0  0  0  0  0  0  0  0  0  0  0
   26.7707  -19.6875  -14.1657 C   0  0  0  0  0  0  0  0  0  0  0  0
   25.7376  -18.9848  -14.3177 O   0  0  0  0  0  0  0  0  0  0  0  0
   26.9569  -20.3459  -12.9129 N   0  0  0  0  0  0  0  0  0  0  0  0
   26.0049  -20.3229  -11.8514 C   0  0  1  0  0  0  0  0  0  0  0  0
   24.6828  -20.9575  -12.2294 C   0  0  0  0  0  0  0  0  0  0  0  0
   24.8570  -22.2503  -13.4647 S   0  0  0  0  0  0  0  0  0  0  0  0
   26.5432  -20.9541  -10.5975 C   0  0  0  0  0  0  0  0  0  0  0  0
   27.6863  -21.4780  -10.5736 O   0  0  0  0  0  0  0  0  0  0  0  0
   25.7349  -20.9495   -9.4327 N   0  0  0  0  0  0  0  0  0  0  0  0
   26.3966  -21.0182   -8.1293 C   0  0  1  0  0  0  0  0  0  0  0  0
   27.3101  -19.8482   -7.9562 C   0  0  0  0  0  0  0  0  0  0  0  0
   27.9038  -19.8459   -6.6119 C   0  0  0  0  0  0  0  0  0  0  0  0
   28.9070  -20.7461   -6.3204 C   0  0  0  0  0  0  0  0  0  0  0  0
   29.5275  -20.7734   -5.0765 C   0  0  0  0  0  0  0  0  0  0  0  0
   29.1502  -19.8918   -4.0952 C   0  0  0  0  0  0  0  0  0  0  0  0
   28.1487  -18.9886   -4.3776 C   0  0  0  0  0  0  0  0  0  0  0  0
   27.5385  -18.9673   -5.6120 C   0  0  0  0  0  0  0  0  0  0  0  0
   25.3960  -21.0481   -7.0508 C   0  0  0  0  0  0  0  0  0  0  0  0
   24.3073  -20.4357   -7.2150 O   0  0  0  0  0  0  0  0  0  0  0  0
   25.6217  -21.7213   -5.8916 O   0  0  0  0  0  0  0  0  0  0  0  0
  2  1  1  6
  2  5  1  0
  3  2  1  0
  4  3  1  0
  5  6  2  0
  7  8  1  0
  7  5  1  0
  8 11  1  0
  9 10  1  0
  8  9  1  6
 11 12  2  0
 11 13  1  0
 13 14  1  0
 14 22  1  0
 14 15  1  1
 16 15  1  0
 16 17  2  0
 18 17  1  0
 19 18  2  0
 20 21  2  0
 20 19  1  0
 21 16  1  0
 22 23  2  0
 22 24  1  0
M  END
$$$$
