CCF.pdb
     RDKit          3D

 24 24  0  0  1  0  0  0  0  0999 V2000
   26.7453  -20.9312  -16.7345 N   0  0  0  0  0  0  0  0  0  0  0  0
   26.9694  -21.5280  -15.4303 C   0  0  1  0  0  0  0  0  0  0  0  0
   28.4375  -21.7055  -15.1766 C   0  0  0  0  0  0  0  0  0  0  0  0
   29.0568  -23.0249  -16.2576 S   0  0  0  0  0  0  0  0  0  0  0  0
   26.2625  -20.7977  -14.3681 C   0  0  0  0  0  0  0  0  0  0  0  0
   25.4695  -19.8821  -14.7101 O   0  0  0  0  0  0  0  0  0  0  0  0
   26.4206  -21.0636  -12.9745 N   0  0  0  0  0  0  0  0  0  0  0  0
   25.5332  -20.5846  -11.9662 C   0  0  1  0  0  0  0  0  0  0  0  0
   24.0964  -21.0045  -12.1955 C   0  0  0  0  0  0  0  0  0  0  0  0
   23.0196  -20.5892  -10.8187 S   0  0  0  0  0  0  0  0  0  0  0  0
   25.9771  -20.9868  -10.5872 C   0  0  0  0  0  0  0  0  0  0  0  0
   26.0130  -22.1961  -10.2436 O   0  0  0  0  0  0  0  0  0  0  0  0
   26.3579  -19.9726   -9.6725 N   0  0  0  0  0  0  0  0  0  0  0  0
   26.9030  -20.3771   -8.3762 C   0  0  1  0  0  0  0  0  0  0  0  0
   27.8591  -19.3427   -7.8772 C   0  0  0  0  0  0  0  0  0  0  0  0
   28.2290  -19.6069   -6.4796 C   0  0  0  0  0  0  0  0  0  0  0  0
   27.5595  -18.9446   -5.4721 C   0  0  0  0  0  0  0  0  0  0  0  0
   27.8440  -19.1734   -4.1306 C   0  0  0  0  0  0  0  0  0  0  0  0
   28.8123  -20.0773   -3.7726 C   0  0  0  0  0  0  0  0  0  0  0  0
   29.4863  -20.7437   -4.7726 C   0  0  0  0  0  0  0  0  0  0  0  0
   29.1991  -20.5121   -6.0995 C   0  0  0  0  0  0  0  0  0  0  0  0
   25.8150  -20.5766   -7.4057 C   0  0  0  0  0  0  0  0  0  0  0  0
   24.8157  -19.8105   -7.4474 O   0  0  0  0  0  0  0  0  0  0  0  0
   25.8666  -21.5660   -6.4749 O   0  0  0  0  0  0  0  0  0  0  0  0
  2  1  1  6
  2  5  1  0
  3  2  1  0
  4  3  1  0
  5  6  2  0
  7  8  1  0
  7  5  1  0
  8 11  1  0
  9 10  1  0
  8  9  1  6
 11 12  2  0
 11 13  1  0
 13 14  1  0
 14 22  1  0
 14 15  1  1
 16 15  1  0
 16 17  2  0
 18 17  1  0
 19 18  2  0
 20 21  2  0
 20 19  1  0
 21 16  1  0
 22 23  2  0
 22 24  1  0
M  END
$$$$
