DQN.pdb
     RDKit          3D

 26 25  0  0  1  0  0  0  0  0999 V2000
   10.9828  -18.0595   18.5449 N   0  0  0  0  0  0  0  0  0  0  0  0
   12.0359  -17.0793   18.5816 C   0  0  1  0  0  0  0  0  0  0  0  0
   12.1657  -16.5044   17.1874 C   0  0  0  0  0  0  0  0  0  0  0  0
   12.5205  -17.5968   16.2467 C   0  0  0  0  0  0  0  0  0  0  0  0
   12.9366  -18.6998   16.6768 O   0  0  0  0  0  0  0  0  0  0  0  0
   11.6953  -16.0303   19.5749 C   0  0  0  0  0  0  0  0  0  0  0  0
   12.4955  -15.0861   19.7459 O   0  0  0  0  0  0  0  0  0  0  0  0
   12.4069  -17.4413   14.8748 O   0  0  0  0  0  0  0  0  0  0  0  0
    6.8613  -12.1273   19.2727 N   0  0  0  0  0  0  0  0  0  0  0  0
    7.1900  -13.4068   19.7914 C   0  0  0  0  0  0  0  0  0  0  0  0
    6.2862  -14.2553   19.9257 O   0  0  0  0  0  0  0  0  0  0  0  0
    8.5715  -13.6931   20.1530 C   0  0  0  0  0  0  0  0  0  0  0  0
    8.7866  -14.6995   21.2263 C   0  0  0  0  0  0  0  0  0  0  0  0
   10.1952  -15.1996   21.3759 C   0  0  2  0  0  0  0  0  0  0  0  0
   10.4807  -16.1197   20.3024 N   0  0  0  0  0  0  0  0  0  0  0  0
   10.5277  -15.7953   22.6595 C   0  0  0  0  0  0  0  0  0  0  0  0
   10.3171  -15.2422   23.7803 O   0  0  0  0  0  0  0  0  0  0  0  0
   10.4197  -20.0632   26.3345 N   0  0  0  0  0  0  0  0  0  0  0  0
   11.3728  -19.7672   25.2935 C   0  0  0  0  0  0  0  0  0  0  0  0
   12.5787  -20.1053   25.4856 O   0  0  0  0  0  0  0  0  0  0  0  0
   10.9458  -19.1013   24.0690 C   0  0  0  0  0  0  0  0  0  0  0  0
   11.4675  -17.7098   23.9959 C   0  0  2  0  0  0  0  0  0  0  0  0
   11.1292  -17.0771   22.7117 N   0  0  0  0  0  0  0  0  0  0  0  0
   12.9299  -17.6741   24.2149 C   0  0  0  0  0  0  0  0  0  0  0  0
   13.7751  -17.5618   23.0941 O   0  0  0  0  0  0  0  0  0  0  0  0
   13.4548  -17.7387   25.3484 O   0  0  0  0  0  0  0  0  0  0  0  0
  2  1  1  6
  2  3  1  0
  4  3  1  0
  4  8  1  0
  5  4  2  0
  6  7  2  0
  6  2  1  0
  9 10  1  0
 10 12  1  0
 11 10  2  0
 12 13  1  0
 14 13  1  1
 14 15  1  0
 15  6  1  0
 16 14  1  0
 17 16  2  0
 19 20  2  0
 19 18  1  0
 21 19  1  0
 22 21  1  6
 22 23  1  0
 23 16  1  0
 24 22  1  0
 25 24  1  0
 26 24  2  0
M  END
$$$$
