DQN.pdb
     RDKit          3D

 26 25  0  0  1  0  0  0  0  0999 V2000
    7.9048  -19.3215   19.3193 N   0  0  0  0  0  0  0  0  0  0  0  0
    7.2513  -18.2271   18.6512 C   0  0  1  0  0  0  0  0  0  0  0  0
    6.7318  -18.7508   17.3296 C   0  0  0  0  0  0  0  0  0  0  0  0
    7.8847  -19.1359   16.4771 C   0  0  0  0  0  0  0  0  0  0  0  0
    8.3479  -20.3015   16.5180 O   0  0  0  0  0  0  0  0  0  0  0  0
    6.1507  -17.7171   19.5067 C   0  0  0  0  0  0  0  0  0  0  0  0
    5.1755  -17.1611   18.9581 O   0  0  0  0  0  0  0  0  0  0  0  0
    8.4854  -18.2336   15.6144 O   0  0  0  0  0  0  0  0  0  0  0  0
    1.3082  -18.8600   20.8297 N   0  0  0  0  0  0  0  0  0  0  0  0
    2.4292  -19.7075   20.6313 C   0  0  0  0  0  0  0  0  0  0  0  0
    2.2404  -20.8835   20.2625 O   0  0  0  0  0  0  0  0  0  0  0  0
    3.7673  -19.1816   20.8645 C   0  0  0  0  0  0  0  0  0  0  0  0
    3.8622  -17.7576   21.2820 C   0  0  0  0  0  0  0  0  0  0  0  0
    5.2104  -17.3125   21.7729 C   0  0  2  0  0  0  0  0  0  0  0  0
    6.2273  -17.8696   20.9150 N   0  0  0  0  0  0  0  0  0  0  0  0
    5.5077  -17.5977   23.1670 C   0  0  0  0  0  0  0  0  0  0  0  0
    4.6487  -17.5820   24.0988 O   0  0  0  0  0  0  0  0  0  0  0  0
    7.7259  -20.5290   23.6670 N   0  0  0  0  0  0  0  0  0  0  0  0
    6.8175  -20.5859   24.7856 C   0  0  0  0  0  0  0  0  0  0  0  0
    6.3761  -21.7230   25.1286 O   0  0  0  0  0  0  0  0  0  0  0  0
    6.4311  -19.3671   25.4859 C   0  0  0  0  0  0  0  0  0  0  0  0
    7.1679  -18.1838   24.9656 C   0  0  2  0  0  0  0  0  0  0  0  0
    6.8311  -17.9186   23.5584 N   0  0  0  0  0  0  0  0  0  0  0  0
    8.6293  -18.3528   25.1193 C   0  0  0  0  0  0  0  0  0  0  0  0
    9.4327  -18.3421   23.9629 O   0  0  0  0  0  0  0  0  0  0  0  0
    9.1885  -18.5053   26.2277 O   0  0  0  0  0  0  0  0  0  0  0  0
  2  1  1  1
  2  3  1  0
  4  3  1  0
  4  8  1  0
  5  4  2  0
  6  7  2  0
  6  2  1  0
  9 10  1  0
 10 12  1  0
 11 10  2  0
 12 13  1  0
 14 13  1  6
 14 15  1  0
 15  6  1  0
 16 14  1  0
 17 16  2  0
 19 20  2  0
 19 18  1  0
 21 19  1  0
 22 21  1  6
 22 23  1  0
 23 16  1  0
 24 22  1  0
 25 24  1  0
 26 24  2  0
M  END
$$$$
