DQN.pdb
     RDKit          3D

 26 25  0  0  1  0  0  0  0  0999 V2000
   11.4057  -19.2540   15.0644 N   0  0  0  0  0  0  0  0  0  0  0  0
   12.4340  -18.4644   15.6892 C   0  0  1  0  0  0  0  0  0  0  0  0
   12.7180  -17.2903   14.7771 C   0  0  0  0  0  0  0  0  0  0  0  0
   13.4774  -17.7708   13.5953 C   0  0  0  0  0  0  0  0  0  0  0  0
   13.7124  -17.0022   12.6317 O   0  0  0  0  0  0  0  0  0  0  0  0
   11.9654  -18.0170   17.0247 C   0  0  0  0  0  0  0  0  0  0  0  0
   11.4496  -16.8838   17.1288 O   0  0  0  0  0  0  0  0  0  0  0  0
   13.9497  -19.0706   13.5131 O   0  0  0  0  0  0  0  0  0  0  0  0
    7.3403  -18.2645   17.0596 N   0  0  0  0  0  0  0  0  0  0  0  0
    7.9126  -18.8424   18.2227 C   0  0  0  0  0  0  0  0  0  0  0  0
    7.1649  -19.1725   19.1644 O   0  0  0  0  0  0  0  0  0  0  0  0
    9.3552  -19.0330   18.2848 C   0  0  0  0  0  0  0  0  0  0  0  0
   10.1012  -18.1792   19.2468 C   0  0  0  0  0  0  0  0  0  0  0  0
   11.5539  -18.5175   19.4255 C   0  0  2  0  0  0  0  0  0  0  0  0
   12.1111  -18.8759   18.1443 N   0  0  0  0  0  0  0  0  0  0  0  0
   11.8539  -19.5390   20.4153 C   0  0  0  0  0  0  0  0  0  0  0  0
   11.3414  -19.5845   21.5736 O   0  0  0  0  0  0  0  0  0  0  0  0
   14.4936  -22.8681   19.2316 N   0  0  0  0  0  0  0  0  0  0  0  0
   15.3829  -21.7429   19.0813 C   0  0  0  0  0  0  0  0  0  0  0  0
   16.3073  -21.8337   18.2196 O   0  0  0  0  0  0  0  0  0  0  0  0
   15.2095  -20.5501   19.9013 C   0  0  0  0  0  0  0  0  0  0  0  0
   14.0538  -20.6900   20.8279 C   0  0  2  0  0  0  0  0  0  0  0  0
   12.7746  -20.5721   20.1112 N   0  0  0  0  0  0  0  0  0  0  0  0
   14.1213  -19.6967   21.9218 C   0  0  0  0  0  0  0  0  0  0  0  0
   13.9391  -18.3363   21.6070 O   0  0  0  0  0  0  0  0  0  0  0  0
   14.3327  -20.0053   23.1154 O   0  0  0  0  0  0  0  0  0  0  0  0
  2  1  1  6
  2  3  1  0
  4  3  1  0
  4  8  1  0
  5  4  2  0
  6  7  2  0
  6  2  1  0
  9 10  1  0
 10 12  1  0
 11 10  2  0
 12 13  1  0
 14 13  1  6
 14 15  1  0
 15  6  1  0
 16 14  1  0
 17 16  2  0
 19 20  2  0
 19 18  1  0
 21 19  1  0
 22 21  1  6
 22 23  1  0
 23 16  1  0
 24 22  1  0
 25 24  1  0
 26 24  2  0
M  END
$$$$
