DQN.pdb
     RDKit          3D

 26 25  0  0  1  0  0  0  0  0999 V2000
   12.8077  -16.5322   19.5935 N   0  0  0  0  0  0  0  0  0  0  0  0
   13.2879  -16.8627   20.9094 C   0  0  1  0  0  0  0  0  0  0  0  0
   14.4026  -15.8933   21.2394 C   0  0  0  0  0  0  0  0  0  0  0  0
   15.5438  -16.1410   20.3226 C   0  0  0  0  0  0  0  0  0  0  0  0
   15.9211  -15.2545   19.5187 O   0  0  0  0  0  0  0  0  0  0  0  0
   12.1697  -16.7592   21.8800 C   0  0  0  0  0  0  0  0  0  0  0  0
   11.3529  -15.8222   21.7536 O   0  0  0  0  0  0  0  0  0  0  0  0
   16.2271  -17.3462   20.3204 O   0  0  0  0  0  0  0  0  0  0  0  0
    9.5461  -21.8757   22.0719 N   0  0  0  0  0  0  0  0  0  0  0  0
    8.8832  -20.7438   22.6137 C   0  0  0  0  0  0  0  0  0  0  0  0
    7.7397  -20.8836   23.0908 O   0  0  0  0  0  0  0  0  0  0  0  0
    9.5552  -19.4517   22.5968 C   0  0  0  0  0  0  0  0  0  0  0  0
   10.2930  -19.0661   23.8289 C   0  0  0  0  0  0  0  0  0  0  0  0
   10.9179  -17.7000   23.8118 C   0  0  2  0  0  0  0  0  0  0  0  0
   12.0519  -17.7163   22.9205 N   0  0  0  0  0  0  0  0  0  0  0  0
   11.2945  -17.1546   25.1055 C   0  0  0  0  0  0  0  0  0  0  0  0
   12.4303  -17.3135   25.6451 O   0  0  0  0  0  0  0  0  0  0  0  0
   10.6976  -13.2031   29.2246 N   0  0  0  0  0  0  0  0  0  0  0  0
    9.9619  -14.4234   29.0027 C   0  0  0  0  0  0  0  0  0  0  0  0
    9.5766  -15.0722   30.0205 O   0  0  0  0  0  0  0  0  0  0  0  0
    9.6803  -14.8796   27.6470 C   0  0  0  0  0  0  0  0  0  0  0  0
   10.7061  -15.8483   27.1748 C   0  0  2  0  0  0  0  0  0  0  0  0
   10.3637  -16.3887   25.8501 N   0  0  0  0  0  0  0  0  0  0  0  0
   10.8896  -16.9495   28.1452 C   0  0  0  0  0  0  0  0  0  0  0  0
   10.0246  -18.0585   28.0753 O   0  0  0  0  0  0  0  0  0  0  0  0
   11.7768  -16.9449   29.0270 O   0  0  0  0  0  0  0  0  0  0  0  0
  2  1  1  6
  2  3  1  0
  4  3  1  0
  4  8  1  0
  5  4  2  0
  6  7  2  0
  6  2  1  0
  9 10  1  0
 10 12  1  0
 11 10  2  0
 12 13  1  0
 14 13  1  1
 14 15  1  0
 15  6  1  0
 16 14  1  0
 17 16  2  0
 19 20  2  0
 19 18  1  0
 21 19  1  0
 22 21  1  1
 22 23  1  0
 23 16  1  0
 24 22  1  0
 25 24  1  0
 26 24  2  0
M  END
$$$$
