DQN.pdb
     RDKit          3D

 26 25  0  0  1  0  0  0  0  0999 V2000
    7.9086  -16.2321   18.3357 N   0  0  0  0  0  0  0  0  0  0  0  0
    8.2718  -15.0929   19.1367 C   0  0  1  0  0  0  0  0  0  0  0  0
    7.4149  -13.9307   18.6828 C   0  0  0  0  0  0  0  0  0  0  0  0
    7.6861  -13.6635   17.2478 C   0  0  0  0  0  0  0  0  0  0  0  0
    8.5318  -14.3456   16.6200 O   0  0  0  0  0  0  0  0  0  0  0  0
    8.0477  -15.4092   20.5695 C   0  0  0  0  0  0  0  0  0  0  0  0
    7.8935  -14.4652   21.3733 O   0  0  0  0  0  0  0  0  0  0  0  0
    7.0234  -12.6627   16.5560 O   0  0  0  0  0  0  0  0  0  0  0  0
    4.5286  -19.7255   22.8644 N   0  0  0  0  0  0  0  0  0  0  0  0
    5.1217  -19.6124   21.5800 C   0  0  0  0  0  0  0  0  0  0  0  0
    4.6340  -20.2561   20.6300 O   0  0  0  0  0  0  0  0  0  0  0  0
    6.2824  -18.7497   21.4072 C   0  0  0  0  0  0  0  0  0  0  0  0
    6.7377  -17.9943   22.6043 C   0  0  0  0  0  0  0  0  0  0  0  0
    7.9222  -17.0946   22.3937 C   0  0  2  0  0  0  0  0  0  0  0  0
    8.0134  -16.7627   20.9929 N   0  0  0  0  0  0  0  0  0  0  0  0
    9.1969  -17.5930   22.8833 C   0  0  0  0  0  0  0  0  0  0  0  0
   10.0507  -18.1973   22.1676 O   0  0  0  0  0  0  0  0  0  0  0  0
   14.1073  -16.2674   25.0035 N   0  0  0  0  0  0  0  0  0  0  0  0
   13.2808  -17.2016   24.2796 C   0  0  0  0  0  0  0  0  0  0  0  0
   13.7893  -18.3197   23.9686 O   0  0  0  0  0  0  0  0  0  0  0  0
   11.9097  -16.8545   23.9261 C   0  0  0  0  0  0  0  0  0  0  0  0
   10.9274  -17.6510   24.7100 C   0  0  2  0  0  0  0  0  0  0  0  0
    9.5522  -17.4158   24.2434 N   0  0  0  0  0  0  0  0  0  0  0  0
   11.0343  -17.3597   26.1562 C   0  0  0  0  0  0  0  0  0  0  0  0
   12.0472  -17.9980   26.8975 O   0  0  0  0  0  0  0  0  0  0  0  0
   10.2682  -16.5730   26.7552 O   0  0  0  0  0  0  0  0  0  0  0  0
  2  1  1  6
  2  3  1  0
  4  3  1  0
  4  8  1  0
  5  4  2  0
  6  7  2  0
  6  2  1  0
  9 10  1  0
 10 12  1  0
 11 10  2  0
 12 13  1  0
 14 13  1  6
 14 15  1  0
 15  6  1  0
 16 14  1  0
 17 16  2  0
 19 20  2  0
 19 18  1  0
 21 19  1  0
 22 21  1  6
 22 23  1  0
 23 16  1  0
 24 22  1  0
 25 24  1  0
 26 24  2  0
M  END
$$$$
