DQN.pdb
     RDKit          3D

 26 25  0  0  1  0  0  0  0  0999 V2000
    8.9627  -16.8078   20.4529 N   0  0  0  0  0  0  0  0  0  0  0  0
    9.9043  -17.0421   21.5159 C   0  0  1  0  0  0  0  0  0  0  0  0
   11.0364  -16.0527   21.3418 C   0  0  0  0  0  0  0  0  0  0  0  0
   11.8403  -16.4439   20.1565 C   0  0  0  0  0  0  0  0  0  0  0  0
   11.8778  -15.7093   19.1397 O   0  0  0  0  0  0  0  0  0  0  0  0
    9.2224  -16.8667   22.8226 C   0  0  0  0  0  0  0  0  0  0  0  0
    8.4603  -15.8880   22.9729 O   0  0  0  0  0  0  0  0  0  0  0  0
   12.5707  -17.6207   20.1287 O   0  0  0  0  0  0  0  0  0  0  0  0
    7.2751  -21.5401   26.4004 N   0  0  0  0  0  0  0  0  0  0  0  0
    7.0178  -20.4127   27.2231 C   0  0  0  0  0  0  0  0  0  0  0  0
    6.3657  -20.5676   28.2746 O   0  0  0  0  0  0  0  0  0  0  0  0
    7.5207  -19.1075   26.8171 C   0  0  0  0  0  0  0  0  0  0  0  0
    8.1860  -19.0312   25.4895 C   0  0  0  0  0  0  0  0  0  0  0  0
    8.7513  -17.6887   25.1217 C   0  0  2  0  0  0  0  0  0  0  0  0
    9.4473  -17.8038   23.8636 N   0  0  0  0  0  0  0  0  0  0  0  0
    9.6019  -17.0599   26.1188 C   0  0  0  0  0  0  0  0  0  0  0  0
   10.8600  -17.2017   26.1772 O   0  0  0  0  0  0  0  0  0  0  0  0
    7.9704  -12.6348   27.3971 N   0  0  0  0  0  0  0  0  0  0  0  0
    9.1955  -13.3571   27.6361 C   0  0  0  0  0  0  0  0  0  0  0  0
   10.1945  -13.0798   26.9076 O   0  0  0  0  0  0  0  0  0  0  0  0
    9.2641  -14.3683   28.6840 C   0  0  0  0  0  0  0  0  0  0  0  0
    9.8562  -15.6363   28.1787 C   0  0  2  0  0  0  0  0  0  0  0  0
    9.0322  -16.2252   27.1119 N   0  0  0  0  0  0  0  0  0  0  0  0
   10.0488  -16.6112   29.2743 C   0  0  0  0  0  0  0  0  0  0  0  0
    9.5235  -17.9086   29.1200 O   0  0  0  0  0  0  0  0  0  0  0  0
   10.6564  -16.3403   30.3336 O   0  0  0  0  0  0  0  0  0  0  0  0
  2  1  1  6
  2  3  1  0
  4  3  1  0
  4  8  1  0
  5  4  2  0
  6  7  2  0
  6  2  1  0
  9 10  1  0
 10 12  1  0
 11 10  2  0
 12 13  1  0
 14 13  1  1
 14 15  1  0
 15  6  1  0
 16 14  1  0
 17 16  2  0
 19 20  2  0
 19 18  1  0
 21 19  1  0
 22 21  1  1
 22 23  1  0
 23 16  1  0
 24 22  1  0
 25 24  1  0
 26 24  2  0
M  END
$$$$
