DQN.pdb
     RDKit          3D

 26 25  0  0  1  0  0  0  0  0999 V2000
   15.0598  -13.4693   17.2978 N   0  0  0  0  0  0  0  0  0  0  0  0
   14.3958  -14.7368   17.4511 C   0  0  1  0  0  0  0  0  0  0  0  0
   15.4662  -15.8066   17.4774 C   0  0  0  0  0  0  0  0  0  0  0  0
   14.8164  -17.1402   17.4181 C   0  0  0  0  0  0  0  0  0  0  0  0
   14.5252  -17.7560   18.4719 O   0  0  0  0  0  0  0  0  0  0  0  0
   13.6034  -14.7268   18.7062 C   0  0  0  0  0  0  0  0  0  0  0  0
   14.1821  -14.4430   19.7765 O   0  0  0  0  0  0  0  0  0  0  0  0
   14.5108  -17.7477   16.2111 O   0  0  0  0  0  0  0  0  0  0  0  0
    7.6435  -12.2607   18.3127 N   0  0  0  0  0  0  0  0  0  0  0  0
    7.9996  -13.3382   19.1649 C   0  0  0  0  0  0  0  0  0  0  0  0
    7.1125  -14.1287   19.5431 O   0  0  0  0  0  0  0  0  0  0  0  0
    9.3889  -13.4905   19.5747 C   0  0  0  0  0  0  0  0  0  0  0  0
    9.9704  -14.8551   19.4715 C   0  0  0  0  0  0  0  0  0  0  0  0
   11.4159  -14.9772   19.8620 C   0  0  2  0  0  0  0  0  0  0  0  0
   12.2196  -15.0363   18.6657 N   0  0  0  0  0  0  0  0  0  0  0  0
   11.7454  -16.0782   20.7521 C   0  0  0  0  0  0  0  0  0  0  0  0
   12.4669  -17.0684   20.4275 O   0  0  0  0  0  0  0  0  0  0  0  0
   15.4118  -17.3754   22.5803 N   0  0  0  0  0  0  0  0  0  0  0  0
   14.4416  -16.9552   23.5610 C   0  0  0  0  0  0  0  0  0  0  0  0
   14.5204  -17.4591   24.7209 O   0  0  0  0  0  0  0  0  0  0  0  0
   13.4125  -15.9833   23.2123 C   0  0  0  0  0  0  0  0  0  0  0  0
   12.0609  -16.6051   23.1928 C   0  0  2  0  0  0  0  0  0  0  0  0
   11.2496  -16.0897   22.0793 N   0  0  0  0  0  0  0  0  0  0  0  0
   11.3577  -16.3981   24.4776 C   0  0  0  0  0  0  0  0  0  0  0  0
   11.0394  -15.0823   24.8654 O   0  0  0  0  0  0  0  0  0  0  0  0
   11.0309  -17.3354   25.2386 O   0  0  0  0  0  0  0  0  0  0  0  0
  2  1  1  1
  2  3  1  0
  4  3  1  0
  4  8  1  0
  5  4  2  0
  6  7  2  0
  6  2  1  0
  9 10  1  0
 10 12  1  0
 11 10  2  0
 12 13  1  0
 14 13  1  6
 14 15  1  0
 15  6  1  0
 16 14  1  0
 17 16  2  0
 19 20  2  0
 19 18  1  0
 21 19  1  0
 22 21  1  1
 22 23  1  0
 23 16  1  0
 24 22  1  0
 25 24  1  0
 26 24  2  0
M  END
$$$$
