DQN.pdb
     RDKit          3D

 26 25  0  0  1  0  0  0  0  0999 V2000
   13.4536  -16.6354   16.8442 N   0  0  0  0  0  0  0  0  0  0  0  0
   14.1961  -15.4542   17.1972 C   0  0  1  0  0  0  0  0  0  0  0  0
   14.4636  -14.6905   15.9181 C   0  0  0  0  0  0  0  0  0  0  0  0
   15.0935  -15.6057   14.9332 C   0  0  0  0  0  0  0  0  0  0  0  0
   14.4653  -15.9740   13.9112 O   0  0  0  0  0  0  0  0  0  0  0  0
   13.4050  -14.6469   18.1594 C   0  0  0  0  0  0  0  0  0  0  0  0
   13.8871  -13.5725   18.5769 O   0  0  0  0  0  0  0  0  0  0  0  0
   16.3833  -16.0817   15.1034 O   0  0  0  0  0  0  0  0  0  0  0  0
    6.7502  -12.2057   19.5080 N   0  0  0  0  0  0  0  0  0  0  0  0
    7.6723  -13.0959   18.8986 C   0  0  0  0  0  0  0  0  0  0  0  0
    7.3655  -13.6386   17.8188 O   0  0  0  0  0  0  0  0  0  0  0  0
    8.9494  -13.3515   19.5505 C   0  0  0  0  0  0  0  0  0  0  0  0
    9.9539  -14.1242   18.7728 C   0  0  0  0  0  0  0  0  0  0  0  0
   11.2959  -14.2899   19.4275 C   0  0  2  0  0  0  0  0  0  0  0  0
   12.1309  -15.1066   18.5811 N   0  0  0  0  0  0  0  0  0  0  0  0
   11.2836  -14.8096   20.7850 C   0  0  0  0  0  0  0  0  0  0  0  0
   10.6920  -14.2532   21.7581 O   0  0  0  0  0  0  0  0  0  0  0  0
   15.4842  -15.7535   23.1314 N   0  0  0  0  0  0  0  0  0  0  0  0
   14.2175  -16.1264   23.7112 C   0  0  0  0  0  0  0  0  0  0  0  0
   14.2233  -17.0060   24.6232 O   0  0  0  0  0  0  0  0  0  0  0  0
   12.9827  -15.5027   23.2513 C   0  0  0  0  0  0  0  0  0  0  0  0
   12.1443  -16.4594   22.4796 C   0  0  2  0  0  0  0  0  0  0  0  0
   11.9646  -16.0142   21.0891 N   0  0  0  0  0  0  0  0  0  0  0  0
   10.8296  -16.6617   23.1265 C   0  0  0  0  0  0  0  0  0  0  0  0
   10.7982  -17.1387   24.4511 O   0  0  0  0  0  0  0  0  0  0  0  0
    9.7416  -16.4298   22.5546 O   0  0  0  0  0  0  0  0  0  0  0  0
  2  1  1  6
  2  3  1  0
  4  3  1  0
  4  8  1  0
  5  4  2  0
  6  7  2  0
  6  2  1  0
  9 10  1  0
 10 12  1  0
 11 10  2  0
 12 13  1  0
 14 13  1  6
 14 15  1  0
 15  6  1  0
 16 14  1  0
 17 16  2  0
 19 20  2  0
 19 18  1  0
 21 19  1  0
 22 21  1  1
 22 23  1  0
 23 16  1  0
 24 22  1  0
 25 24  1  0
 26 24  2  0
M  END
$$$$
