DQN.pdb
     RDKit          3D

 26 25  0  0  1  0  0  0  0  0999 V2000
    8.7277  -17.0970   20.6282 N   0  0  0  0  0  0  0  0  0  0  0  0
    9.0090  -15.7365   20.2525 C   0  0  1  0  0  0  0  0  0  0  0  0
    7.9469  -15.3137   19.2605 C   0  0  0  0  0  0  0  0  0  0  0  0
    8.1491  -16.0576   17.9916 C   0  0  0  0  0  0  0  0  0  0  0  0
    7.1669  -16.4939   17.3437 O   0  0  0  0  0  0  0  0  0  0  0  0
    8.9953  -14.8801   21.4647 C   0  0  0  0  0  0  0  0  0  0  0  0
    8.9301  -13.6407   21.3206 O   0  0  0  0  0  0  0  0  0  0  0  0
    9.4149  -16.2952   17.4812 O   0  0  0  0  0  0  0  0  0  0  0  0
    6.7773  -12.2364   26.0290 N   0  0  0  0  0  0  0  0  0  0  0  0
    6.1484  -13.4992   25.8736 C   0  0  0  0  0  0  0  0  0  0  0  0
    5.1748  -13.7832   26.5990 O   0  0  0  0  0  0  0  0  0  0  0  0
    6.6572  -14.4277   24.8735 C   0  0  0  0  0  0  0  0  0  0  0  0
    7.7026  -13.9100   23.9514 C   0  0  0  0  0  0  0  0  0  0  0  0
    8.9972  -14.6720   23.9427 C   0  0  2  0  0  0  0  0  0  0  0  0
    9.0558  -15.4796   22.7490 N   0  0  0  0  0  0  0  0  0  0  0  0
    9.2689  -15.4814   25.1193 C   0  0  0  0  0  0  0  0  0  0  0  0
    8.9778  -15.1399   26.3046 O   0  0  0  0  0  0  0  0  0  0  0  0
   10.1008  -18.6319   28.8947 N   0  0  0  0  0  0  0  0  0  0  0  0
    9.0387  -18.8521   27.9444 C   0  0  0  0  0  0  0  0  0  0  0  0
    8.3005  -19.8683   28.1112 O   0  0  0  0  0  0  0  0  0  0  0  0
    8.8360  -17.9271   26.8360 C   0  0  0  0  0  0  0  0  0  0  0  0
   10.1164  -17.6184   26.1438 C   0  0  2  0  0  0  0  0  0  0  0  0
    9.9001  -16.7424   24.9819 N   0  0  0  0  0  0  0  0  0  0  0  0
   10.8130  -18.8557   25.7296 C   0  0  0  0  0  0  0  0  0  0  0  0
   11.1735  -19.0036   24.3764 O   0  0  0  0  0  0  0  0  0  0  0  0
   11.0988  -19.7794   26.5231 O   0  0  0  0  0  0  0  0  0  0  0  0
  2  1  1  1
  2  3  1  0
  4  3  1  0
  4  8  1  0
  5  4  2  0
  6  7  2  0
  6  2  1  0
  9 10  1  0
 10 12  1  0
 11 10  2  0
 12 13  1  0
 14 13  1  1
 14 15  1  0
 15  6  1  0
 16 14  1  0
 17 16  2  0
 19 20  2  0
 19 18  1  0
 21 19  1  0
 22 21  1  6
 22 23  1  0
 23 16  1  0
 24 22  1  0
 25 24  1  0
 26 24  2  0
M  END
$$$$
