DQN.pdb
     RDKit          3D

 26 25  0  0  1  0  0  0  0  0999 V2000
   10.6072  -18.2845   20.7586 N   0  0  0  0  0  0  0  0  0  0  0  0
   11.6945  -17.3421   20.7264 C   0  0  1  0  0  0  0  0  0  0  0  0
   12.0653  -17.1308   19.2742 C   0  0  0  0  0  0  0  0  0  0  0  0
   13.1376  -18.0894   18.9062 C   0  0  0  0  0  0  0  0  0  0  0  0
   12.8993  -19.3197   18.8407 O   0  0  0  0  0  0  0  0  0  0  0  0
   11.2648  -16.0753   21.3697 C   0  0  0  0  0  0  0  0  0  0  0  0
   12.1079  -15.1658   21.5216 O   0  0  0  0  0  0  0  0  0  0  0  0
   14.4265  -17.6667   18.6246 O   0  0  0  0  0  0  0  0  0  0  0  0
    7.0156  -12.4780   19.7051 N   0  0  0  0  0  0  0  0  0  0  0  0
    7.0374  -13.8928   19.5949 C   0  0  0  0  0  0  0  0  0  0  0  0
    6.2996  -14.4454   18.7553 O   0  0  0  0  0  0  0  0  0  0  0  0
    7.9188  -14.6594   20.4649 C   0  0  0  0  0  0  0  0  0  0  0  0
    8.6918  -13.8917   21.4769 C   0  0  0  0  0  0  0  0  0  0  0  0
    9.4856  -14.7154   22.4508 C   0  0  2  0  0  0  0  0  0  0  0  0
    9.9198  -15.9244   21.7948 N   0  0  0  0  0  0  0  0  0  0  0  0
    8.8267  -15.0267   23.7086 C   0  0  0  0  0  0  0  0  0  0  0  0
    7.6950  -14.5727   24.0542 O   0  0  0  0  0  0  0  0  0  0  0  0
    7.2353  -18.3121   27.2709 N   0  0  0  0  0  0  0  0  0  0  0  0
    6.8816  -18.3080   25.8728 C   0  0  0  0  0  0  0  0  0  0  0  0
    5.8944  -19.0161   25.5129 O   0  0  0  0  0  0  0  0  0  0  0  0
    7.6448  -17.5105   24.9205 C   0  0  0  0  0  0  0  0  0  0  0  0
    8.6637  -16.6712   25.6068 C   0  0  2  0  0  0  0  0  0  0  0  0
    9.4525  -15.8894   24.6422 N   0  0  0  0  0  0  0  0  0  0  0  0
    9.5568  -17.4956   26.4499 C   0  0  0  0  0  0  0  0  0  0  0  0
    9.0388  -18.0503   27.6359 O   0  0  0  0  0  0  0  0  0  0  0  0
   10.7520  -17.7252   26.1613 O   0  0  0  0  0  0  0  0  0  0  0  0
  2  1  1  6
  2  3  1  0
  4  3  1  0
  4  8  1  0
  5  4  2  0
  6  7  2  0
  6  2  1  0
  9 10  1  0
 10 12  1  0
 11 10  2  0
 12 13  1  0
 14 13  1  6
 14 15  1  0
 15  6  1  0
 16 14  1  0
 17 16  2  0
 19 20  2  0
 19 18  1  0
 21 19  1  0
 22 21  1  6
 22 23  1  0
 23 16  1  0
 24 22  1  0
 25 24  1  0
 26 24  2  0
M  END
$$$$
