DQN.pdb
     RDKit          3D

 26 25  0  0  1  0  0  0  0  0999 V2000
   10.5169  -17.5053   16.4732 N   0  0  0  0  0  0  0  0  0  0  0  0
   11.6265  -16.8385   15.8444 C   0  0  1  0  0  0  0  0  0  0  0  0
   11.1667  -16.3929   14.4730 C   0  0  0  0  0  0  0  0  0  0  0  0
   11.2376  -17.5474   13.5422 C   0  0  0  0  0  0  0  0  0  0  0  0
   11.0589  -18.7169   13.9607 O   0  0  0  0  0  0  0  0  0  0  0  0
   12.0442  -15.6858   16.6811 C   0  0  0  0  0  0  0  0  0  0  0  0
   13.1145  -15.1033   16.4052 O   0  0  0  0  0  0  0  0  0  0  0  0
   11.5006  -17.3790   12.1925 O   0  0  0  0  0  0  0  0  0  0  0  0
    7.9704  -11.7983   19.2678 N   0  0  0  0  0  0  0  0  0  0  0  0
    7.9883  -13.1644   19.6522 C   0  0  0  0  0  0  0  0  0  0  0  0
    6.9822  -13.6500   20.2060 O   0  0  0  0  0  0  0  0  0  0  0  0
    9.1798  -13.9602   19.3906 C   0  0  0  0  0  0  0  0  0  0  0  0
   10.3063  -13.2717   18.7066 C   0  0  0  0  0  0  0  0  0  0  0  0
   11.5532  -14.0895   18.5235 C   0  0  2  0  0  0  0  0  0  0  0  0
   11.2284  -15.2731   17.7658 N   0  0  0  0  0  0  0  0  0  0  0  0
   12.2685  -14.4428   19.7387 C   0  0  0  0  0  0  0  0  0  0  0  0
   12.8179  -13.6043   20.5142 O   0  0  0  0  0  0  0  0  0  0  0  0
   12.6649  -15.6434   24.0331 N   0  0  0  0  0  0  0  0  0  0  0  0
   12.1125  -16.8720   23.5184 C   0  0  0  0  0  0  0  0  0  0  0  0
   11.4977  -17.6267   24.3295 O   0  0  0  0  0  0  0  0  0  0  0  0
   12.2659  -17.2179   22.1105 C   0  0  0  0  0  0  0  0  0  0  0  0
   13.0484  -16.1854   21.3786 C   0  0  2  0  0  0  0  0  0  0  0  0
   12.3864  -15.8016   20.1223 N   0  0  0  0  0  0  0  0  0  0  0  0
   14.4271  -16.6490   21.1103 C   0  0  0  0  0  0  0  0  0  0  0  0
   15.2821  -16.8849   22.2040 O   0  0  0  0  0  0  0  0  0  0  0  0
   14.8728  -16.8424   19.9576 O   0  0  0  0  0  0  0  0  0  0  0  0
  2  1  1  1
  2  3  1  0
  4  3  1  0
  4  8  1  0
  5  4  2  0
  6  7  2  0
  6  2  1  0
  9 10  1  0
 10 12  1  0
 11 10  2  0
 12 13  1  0
 14 13  1  1
 14 15  1  0
 15  6  1  0
 16 14  1  0
 17 16  2  0
 19 20  2  0
 19 18  1  0
 21 19  1  0
 22 21  1  6
 22 23  1  0
 23 16  1  0
 24 22  1  0
 25 24  1  0
 26 24  2  0
M  END
$$$$
