DQN.pdb
     RDKit          3D

 26 25  0  0  1  0  0  0  0  0999 V2000
    7.3006  -18.5081   18.1392 N   0  0  0  0  0  0  0  0  0  0  0  0
    8.0764  -17.3907   18.6090 C   0  0  1  0  0  0  0  0  0  0  0  0
    7.8341  -16.2405   17.6555 C   0  0  0  0  0  0  0  0  0  0  0  0
    8.4494  -16.5642   16.3437 C   0  0  0  0  0  0  0  0  0  0  0  0
    9.0056  -17.6732   16.1556 O   0  0  0  0  0  0  0  0  0  0  0  0
    7.6584  -17.0502   19.9920 C   0  0  0  0  0  0  0  0  0  0  0  0
    8.2426  -16.1156   20.5804 O   0  0  0  0  0  0  0  0  0  0  0  0
    8.4329  -15.6645   15.2903 O   0  0  0  0  0  0  0  0  0  0  0  0
    2.4522  -18.9012   20.7983 N   0  0  0  0  0  0  0  0  0  0  0  0
    3.0589  -19.5794   21.8874 C   0  0  0  0  0  0  0  0  0  0  0  0
    2.5474  -20.6389   22.3006 O   0  0  0  0  0  0  0  0  0  0  0  0
    4.2599  -19.0199   22.4922 C   0  0  0  0  0  0  0  0  0  0  0  0
    4.6806  -17.6738   22.0209 C   0  0  0  0  0  0  0  0  0  0  0  0
    6.1635  -17.4477   21.9391 C   0  0  2  0  0  0  0  0  0  0  0  0
    6.6149  -17.7851   20.6114 N   0  0  0  0  0  0  0  0  0  0  0  0
    6.9688  -18.1287   22.9395 C   0  0  0  0  0  0  0  0  0  0  0  0
    7.5932  -19.2130   22.7374 O   0  0  0  0  0  0  0  0  0  0  0  0
   10.6638  -18.1192   27.2829 N   0  0  0  0  0  0  0  0  0  0  0  0
    9.2507  -17.8317   27.2716 C   0  0  0  0  0  0  0  0  0  0  0  0
    8.5802  -18.1324   28.3038 O   0  0  0  0  0  0  0  0  0  0  0  0
    8.6318  -17.2159   26.1041 C   0  0  0  0  0  0  0  0  0  0  0  0
    7.9364  -18.2255   25.2609 C   0  0  2  0  0  0  0  0  0  0  0  0
    7.0930  -17.5830   24.2411 N   0  0  0  0  0  0  0  0  0  0  0  0
    7.1278  -19.1479   26.0873 C   0  0  0  0  0  0  0  0  0  0  0  0
    7.7829  -20.1961   26.7619 O   0  0  0  0  0  0  0  0  0  0  0  0
    5.8881  -19.0434   26.2173 O   0  0  0  0  0  0  0  0  0  0  0  0
  2  1  1  6
  2  3  1  0
  4  3  1  0
  4  8  1  0
  5  4  2  0
  6  7  2  0
  6  2  1  0
  9 10  1  0
 10 12  1  0
 11 10  2  0
 12 13  1  0
 14 13  1  6
 14 15  1  0
 15  6  1  0
 16 14  1  0
 17 16  2  0
 19 20  2  0
 19 18  1  0
 21 19  1  0
 22 21  1  1
 22 23  1  0
 23 16  1  0
 24 22  1  0
 25 24  1  0
 26 24  2  0
M  END
$$$$
