DQN.pdb
     RDKit          3D

 26 25  0  0  1  0  0  0  0  0999 V2000
   12.1800  -18.3879   16.6302 N   0  0  0  0  0  0  0  0  0  0  0  0
   10.9961  -18.2016   17.4272 C   0  0  1  0  0  0  0  0  0  0  0  0
   10.6996  -19.5198   18.1093 C   0  0  0  0  0  0  0  0  0  0  0  0
   10.7079  -20.6013   17.0923 C   0  0  0  0  0  0  0  0  0  0  0  0
   10.1076  -20.4553   16.0000 O   0  0  0  0  0  0  0  0  0  0  0  0
   11.2343  -17.1182   18.4135 C   0  0  0  0  0  0  0  0  0  0  0  0
   12.4079  -16.7397   18.6143 O   0  0  0  0  0  0  0  0  0  0  0  0
   11.3709  -21.7984   17.3084 O   0  0  0  0  0  0  0  0  0  0  0  0
    6.7067  -13.1926   19.9467 N   0  0  0  0  0  0  0  0  0  0  0  0
    7.3840  -13.4543   18.7272 C   0  0  0  0  0  0  0  0  0  0  0  0
    6.8687  -13.0768   17.6563 O   0  0  0  0  0  0  0  0  0  0  0  0
    8.6597  -14.1562   18.7597 C   0  0  0  0  0  0  0  0  0  0  0  0
    9.1457  -14.5977   20.0939 C   0  0  0  0  0  0  0  0  0  0  0  0
   10.3440  -15.5038   20.0822 C   0  0  2  0  0  0  0  0  0  0  0  0
   10.1362  -16.5404   19.1010 N   0  0  0  0  0  0  0  0  0  0  0  0
   10.7193  -16.0816   21.3622 C   0  0  0  0  0  0  0  0  0  0  0  0
   10.4414  -17.2649   21.7213 O   0  0  0  0  0  0  0  0  0  0  0  0
   12.4506  -16.9161   26.0581 N   0  0  0  0  0  0  0  0  0  0  0  0
   11.2022  -17.3091   25.4526 C   0  0  0  0  0  0  0  0  0  0  0  0
   10.4792  -18.1396   26.0796 O   0  0  0  0  0  0  0  0  0  0  0  0
   10.8017  -16.7598   24.1630 C   0  0  0  0  0  0  0  0  0  0  0  0
   11.8547  -15.8730   23.5986 C   0  0  2  0  0  0  0  0  0  0  0  0
   11.4434  -15.3092   22.3037 N   0  0  0  0  0  0  0  0  0  0  0  0
   13.1408  -16.5902   23.4596 C   0  0  0  0  0  0  0  0  0  0  0  0
   13.1499  -17.8320   22.7958 O   0  0  0  0  0  0  0  0  0  0  0  0
   14.2234  -16.1479   23.9033 O   0  0  0  0  0  0  0  0  0  0  0  0
  2  1  1  1
  2  3  1  0
  4  3  1  0
  4  8  1  0
  5  4  2  0
  6  7  2  0
  6  2  1  0
  9 10  1  0
 10 12  1  0
 11 10  2  0
 12 13  1  0
 14 13  1  1
 14 15  1  0
 15  6  1  0
 16 14  1  0
 17 16  2  0
 19 20  2  0
 19 18  1  0
 21 19  1  0
 22 21  1  6
 22 23  1  0
 23 16  1  0
 24 22  1  0
 25 24  1  0
 26 24  2  0
M  END
$$$$
