DQN.pdb
     RDKit          3D

 26 25  0  0  1  0  0  0  0  0999 V2000
   12.3132  -16.0547   15.0193 N   0  0  0  0  0  0  0  0  0  0  0  0
   12.1595  -16.5865   16.3478 C   0  0  1  0  0  0  0  0  0  0  0  0
   13.3208  -17.5252   16.5951 C   0  0  0  0  0  0  0  0  0  0  0  0
   13.2094  -18.6831   15.6727 C   0  0  0  0  0  0  0  0  0  0  0  0
   14.2224  -19.1271   15.0799 O   0  0  0  0  0  0  0  0  0  0  0  0
   12.1435  -15.4690   17.3246 C   0  0  0  0  0  0  0  0  0  0  0  0
   13.1157  -14.6847   17.3520 O   0  0  0  0  0  0  0  0  0  0  0  0
   11.9970  -19.3098   15.4345 O   0  0  0  0  0  0  0  0  0  0  0  0
    6.7643  -12.9828   19.0719 N   0  0  0  0  0  0  0  0  0  0  0  0
    7.3547  -13.3465   17.8336 C   0  0  0  0  0  0  0  0  0  0  0  0
    6.6553  -13.3273   16.8015 O   0  0  0  0  0  0  0  0  0  0  0  0
    8.7587  -13.7326   17.8024 C   0  0  0  0  0  0  0  0  0  0  0  0
    9.4806  -13.7335   19.1024 C   0  0  0  0  0  0  0  0  0  0  0  0
   10.9218  -14.1538   19.0455 C   0  0  2  0  0  0  0  0  0  0  0  0
   11.0364  -15.3156   18.1983 N   0  0  0  0  0  0  0  0  0  0  0  0
   11.5680  -14.3912   20.3258 C   0  0  0  0  0  0  0  0  0  0  0  0
   11.1161  -13.9901   21.4399 O   0  0  0  0  0  0  0  0  0  0  0  0
   12.9787  -16.0425   24.9074 N   0  0  0  0  0  0  0  0  0  0  0  0
   13.0879  -16.8157   23.6950 C   0  0  0  0  0  0  0  0  0  0  0  0
   13.7429  -17.8992   23.7443 O   0  0  0  0  0  0  0  0  0  0  0  0
   12.4599  -16.3513   22.4640 C   0  0  0  0  0  0  0  0  0  0  0  0
   13.3852  -15.4997   21.6688 C   0  0  2  0  0  0  0  0  0  0  0  0
   12.7858  -15.1131   20.3822 N   0  0  0  0  0  0  0  0  0  0  0  0
   14.6804  -16.1786   21.4470 C   0  0  0  0  0  0  0  0  0  0  0  0
   15.0073  -16.5934   20.1416 O   0  0  0  0  0  0  0  0  0  0  0  0
   15.5020  -16.4033   22.3630 O   0  0  0  0  0  0  0  0  0  0  0  0
  2  1  1  6
  2  3  1  0
  4  3  1  0
  4  8  1  0
  5  4  2  0
  6  7  2  0
  6  2  1  0
  9 10  1  0
 10 12  1  0
 11 10  2  0
 12 13  1  0
 14 13  1  1
 14 15  1  0
 15  6  1  0
 16 14  1  0
 17 16  2  0
 19 20  2  0
 19 18  1  0
 21 19  1  0
 22 21  1  6
 22 23  1  0
 23 16  1  0
 24 22  1  0
 25 24  1  0
 26 24  2  0
M  END
$$$$
