NWH.pdb
     RDKit          3D

 33 35  0  0  1  0  0  0  0  0999 V2000
    6.4638  -15.3490   19.0877 N   0  0  0  0  0  0  0  0  0  0  0  0
    7.8317  -15.3573   19.4374 C   0  0  0  0  0  0  0  0  0  0  0  0
    8.6944  -15.6770   18.5928 O   0  0  0  0  0  0  0  0  0  0  0  0
    8.2574  -14.9897   20.8008 C   0  0  0  0  0  0  0  0  0  0  0  0
    8.9080  -16.2049   21.4278 C   0  0  2  0  0  0  0  0  0  0  0  0
    8.0826  -17.3716   21.4241 N   0  0  0  0  0  0  0  0  0  0  0  0
    9.4363  -15.9546   22.7733 C   0  0  0  0  0  0  0  0  0  0  0  0
   10.2860  -15.0456   22.9481 O   0  0  0  0  0  0  0  0  0  0  0  0
    9.0230  -16.7057   23.9016 N   0  0  0  0  0  0  0  0  0  0  0  0
    9.5529  -16.3757   25.2018 C   0  0  1  0  0  0  0  0  0  0  0  0
    8.5226  -16.2906   26.2818 C   0  0  0  0  0  0  0  0  0  0  0  0
    7.3840  -15.4149   25.9967 C   0  0  0  0  0  0  0  0  0  0  0  0
    6.1142  -15.6698   25.5350 C   0  0  0  0  0  0  0  0  0  0  0  0
    5.4346  -14.4995   25.4310 N   0  0  0  0  0  0  0  0  0  0  0  0
    6.2221  -13.4924   25.8100 C   0  0  0  0  0  0  0  0  0  0  0  0
    6.0218  -12.1109   25.8921 C   0  0  0  0  0  0  0  0  0  0  0  0
    7.0207  -11.2791   26.3234 C   0  0  0  0  0  0  0  0  0  0  0  0
    8.2236  -11.8314   26.6737 C   0  0  0  0  0  0  0  0  0  0  0  0
    8.4236  -13.1830   26.5948 C   0  0  0  0  0  0  0  0  0  0  0  0
    7.4338  -14.0422   26.1636 C   0  0  0  0  0  0  0  0  0  0  0  0
   10.4872  -17.4771   25.5961 C   0  0  0  0  0  0  0  0  0  0  0  0
   10.3136  -18.6207   25.1183 O   0  0  0  0  0  0  0  0  0  0  0  0
   11.5618  -17.2544   26.4972 N   0  0  0  0  0  0  0  0  0  0  0  0
   12.3969  -18.3599   26.8801 C   0  0  1  0  0  0  0  0  0  0  0  0
   13.8428  -17.9474   27.0550 C   0  0  0  0  0  0  0  0  0  0  0  0
   14.5196  -17.6703   25.7930 C   0  0  0  0  0  0  0  0  0  0  0  0
   13.9976  -17.9368   24.5493 C   0  0  0  0  0  0  0  0  0  0  0  0
   14.9209  -17.5406   23.6431 N   0  0  0  0  0  0  0  0  0  0  0  0
   15.9864  -17.0428   24.2700 C   0  0  0  0  0  0  0  0  0  0  0  0
   15.7259  -17.1290   25.5911 N   0  0  0  0  0  0  0  0  0  0  0  0
   11.8476  -19.0016   28.0834 C   0  0  0  0  0  0  0  0  0  0  0  0
   12.4841  -20.0981   28.6289 O   0  0  0  0  0  0  0  0  0  0  0  0
   10.8070  -18.5858   28.6432 O   0  0  0  0  0  0  0  0  0  0  0  0
  2  4  1  0
  2  1  1  0
  3  2  2  0
  4  5  1  0
  5  6  1  1
  7  5  1  0
  7  8  2  0
  9  7  1  0
 10  9  1  0
 10 11  1  1
 12 11  1  0
 12 20  1  0
 13 14  1  0
 13 12  2  0
 14 15  1  0
 15 20  2  0
 15 16  1  0
 16 17  2  0
 17 18  1  0
 19 18  2  0
 20 19  1  0
 21 10  1  0
 22 21  2  0
 23 21  1  0
 24 25  1  1
 24 23  1  0
 25 26  1  0
 26 30  1  0
 26 27  2  0
 27 28  1  0
 29 28  1  0
 30 29  2  0
 31 32  1  0
 31 24  1  0
 33 31  2  0
M  END
$$$$
