NWH.pdb
     RDKit          3D

 33 35  0  0  1  0  0  0  0  0999 V2000
   10.8911  -19.9418   19.5734 N   0  0  0  0  0  0  0  0  0  0  0  0
   11.1377  -18.5517   19.5560 C   0  0  0  0  0  0  0  0  0  0  0  0
   11.1537  -17.9297   18.4731 O   0  0  0  0  0  0  0  0  0  0  0  0
   11.3788  -17.8190   20.8132 C   0  0  0  0  0  0  0  0  0  0  0  0
   10.0335  -17.4298   21.3893 C   0  0  2  0  0  0  0  0  0  0  0  0
    9.2665  -16.5708   20.5428 N   0  0  0  0  0  0  0  0  0  0  0  0
   10.1182  -16.8729   22.7438 C   0  0  0  0  0  0  0  0  0  0  0  0
   10.7663  -15.8147   22.9411 O   0  0  0  0  0  0  0  0  0  0  0  0
    9.4908  -17.4867   23.8562 N   0  0  0  0  0  0  0  0  0  0  0  0
    9.6333  -16.8933   25.1631 C   0  0  1  0  0  0  0  0  0  0  0  0
    8.3444  -16.7080   25.8977 C   0  0  0  0  0  0  0  0  0  0  0  0
    7.4688  -15.6568   25.3755 C   0  0  0  0  0  0  0  0  0  0  0  0
    6.4235  -15.6828   24.4825 C   0  0  0  0  0  0  0  0  0  0  0  0
    5.9404  -14.4242   24.3254 N   0  0  0  0  0  0  0  0  0  0  0  0
    6.6382  -13.5813   25.0873 C   0  0  0  0  0  0  0  0  0  0  0  0
    6.5564  -12.2008   25.2948 C   0  0  0  0  0  0  0  0  0  0  0  0
    7.4159  -11.5656   26.1512 C   0  0  0  0  0  0  0  0  0  0  0  0
    8.3598  -12.3139   26.8021 C   0  0  0  0  0  0  0  0  0  0  0  0
    8.4430  -13.6652   26.6018 C   0  0  0  0  0  0  0  0  0  0  0  0
    7.5893  -14.3288   25.7446 C   0  0  0  0  0  0  0  0  0  0  0  0
   10.4596  -17.8282   25.9905 C   0  0  0  0  0  0  0  0  0  0  0  0
   10.4754  -19.0451   25.6984 O   0  0  0  0  0  0  0  0  0  0  0  0
   11.2230  -17.3671   27.0954 N   0  0  0  0  0  0  0  0  0  0  0  0
   12.0041  -18.3085   27.8503 C   0  0  1  0  0  0  0  0  0  0  0  0
   13.0577  -17.6255   28.6960 C   0  0  0  0  0  0  0  0  0  0  0  0
   13.7779  -18.5433   29.5714 C   0  0  0  0  0  0  0  0  0  0  0  0
   13.5530  -19.8979   29.6412 C   0  0  0  0  0  0  0  0  0  0  0  0
   14.4127  -20.3915   30.5619 N   0  0  0  0  0  0  0  0  0  0  0  0
   15.1562  -19.4049   31.0622 C   0  0  0  0  0  0  0  0  0  0  0  0
   14.7549  -18.2746   30.4443 N   0  0  0  0  0  0  0  0  0  0  0  0
   11.1134  -19.1642   28.6476 C   0  0  0  0  0  0  0  0  0  0  0  0
   11.4839  -20.4622   28.9356 O   0  0  0  0  0  0  0  0  0  0  0  0
   10.0125  -18.7554   29.0835 O   0  0  0  0  0  0  0  0  0  0  0  0
  2  4  1  0
  2  1  1  0
  3  2  2  0
  4  5  1  0
  5  6  1  6
  7  5  1  0
  7  8  2  0
  9  7  1  0
 10  9  1  0
 10 11  1  1
 12 11  1  0
 12 20  1  0
 13 14  1  0
 13 12  2  0
 14 15  1  0
 15 20  2  0
 15 16  1  0
 16 17  2  0
 17 18  1  0
 19 18  2  0
 20 19  1  0
 21 10  1  0
 22 21  2  0
 23 21  1  0
 24 25  1  1
 24 23  1  0
 25 26  1  0
 26 30  1  0
 26 27  2  0
 27 28  1  0
 29 28  1  0
 30 29  2  0
 31 32  1  0
 31 24  1  0
 33 31  2  0
M  END
$$$$
