NWH.pdb
     RDKit          3D

 33 35  0  0  1  0  0  0  0  0999 V2000
   12.2805  -14.2705   18.4997 N   0  0  0  0  0  0  0  0  0  0  0  0
   12.8282  -14.8116   19.6832 C   0  0  0  0  0  0  0  0  0  0  0  0
   13.8690  -15.5002   19.6365 O   0  0  0  0  0  0  0  0  0  0  0  0
   12.1795  -14.5708   20.9857 C   0  0  0  0  0  0  0  0  0  0  0  0
   11.7423  -15.9099   21.5415 C   0  0  2  0  0  0  0  0  0  0  0  0
   10.7510  -16.5702   20.7514 N   0  0  0  0  0  0  0  0  0  0  0  0
   11.3225  -15.8497   22.9457 C   0  0  0  0  0  0  0  0  0  0  0  0
   12.1052  -15.3786   23.8086 O   0  0  0  0  0  0  0  0  0  0  0  0
   10.0527  -16.3070   23.3774 N   0  0  0  0  0  0  0  0  0  0  0  0
    9.6782  -16.1479   24.7612 C   0  0  1  0  0  0  0  0  0  0  0  0
    8.2032  -16.1660   25.0046 C   0  0  0  0  0  0  0  0  0  0  0  0
    7.4802  -14.9679   24.5730 C   0  0  0  0  0  0  0  0  0  0  0  0
    6.9319  -14.6033   23.3660 C   0  0  0  0  0  0  0  0  0  0  0  0
    6.3711  -13.3730   23.4847 N   0  0  0  0  0  0  0  0  0  0  0  0
    6.5377  -12.9264   24.7301 C   0  0  0  0  0  0  0  0  0  0  0  0
    6.1608  -11.7422   25.3713 C   0  0  0  0  0  0  0  0  0  0  0  0
    6.4637  -11.5285   26.6897 C   0  0  0  0  0  0  0  0  0  0  0  0
    7.1456  -12.5026   27.3686 C   0  0  0  0  0  0  0  0  0  0  0  0
    7.5161  -13.6629   26.7445 C   0  0  0  0  0  0  0  0  0  0  0  0
    7.2231  -13.9025   25.4176 C   0  0  0  0  0  0  0  0  0  0  0  0
   10.2441  -17.3118   25.5138 C   0  0  0  0  0  0  0  0  0  0  0  0
   10.6204  -18.3215   24.8773 O   0  0  0  0  0  0  0  0  0  0  0  0
   10.3630  -17.2962   26.9287 N   0  0  0  0  0  0  0  0  0  0  0  0
   11.0886  -18.3501   27.5836 C   0  0  1  0  0  0  0  0  0  0  0  0
   12.4975  -18.4896   27.0476 C   0  0  0  0  0  0  0  0  0  0  0  0
   12.5843  -19.3485   25.8719 C   0  0  0  0  0  0  0  0  0  0  0  0
   11.5098  -19.9492   25.2597 C   0  0  0  0  0  0  0  0  0  0  0  0
   11.9984  -20.6572   24.2154 N   0  0  0  0  0  0  0  0  0  0  0  0
   13.3229  -20.5207   24.1558 C   0  0  0  0  0  0  0  0  0  0  0  0
   13.6692  -19.7138   25.1802 N   0  0  0  0  0  0  0  0  0  0  0  0
   11.0605  -18.1407   29.0385 C   0  0  0  0  0  0  0  0  0  0  0  0
   10.4106  -17.0414   29.5621 O   0  0  0  0  0  0  0  0  0  0  0  0
   11.6123  -18.9337   29.8357 O   0  0  0  0  0  0  0  0  0  0  0  0
  2  4  1  0
  2  1  1  0
  3  2  2  0
  4  5  1  0
  5  6  1  6
  7  5  1  0
  7  8  2  0
  9  7  1  0
 10  9  1  0
 10 11  1  6
 12 11  1  0
 12 20  1  0
 13 14  1  0
 13 12  2  0
 14 15  1  0
 15 20  2  0
 15 16  1  0
 16 17  2  0
 17 18  1  0
 19 18  2  0
 20 19  1  0
 21 10  1  0
 22 21  2  0
 23 21  1  0
 24 25  1  6
 24 23  1  0
 25 26  1  0
 26 30  1  0
 26 27  2  0
 27 28  1  0
 29 28  1  0
 30 29  2  0
 31 32  1  0
 31 24  1  0
 33 31  2  0
M  END
$$$$
