NWH.pdb
     RDKit          3D

 33 35  0  0  1  0  0  0  0  0999 V2000
    6.7868  -18.3122   18.4960 N   0  0  0  0  0  0  0  0  0  0  0  0
    7.9216  -17.4785   18.5991 C   0  0  0  0  0  0  0  0  0  0  0  0
    8.3329  -16.8506   17.6009 O   0  0  0  0  0  0  0  0  0  0  0  0
    8.6334  -17.3394   19.8834 C   0  0  0  0  0  0  0  0  0  0  0  0
    7.9161  -16.2852   20.7002 C   0  0  2  0  0  0  0  0  0  0  0  0
    7.6062  -15.0965   19.9694 N   0  0  0  0  0  0  0  0  0  0  0  0
    8.6012  -15.9525   21.9539 C   0  0  0  0  0  0  0  0  0  0  0  0
    9.3791  -14.9666   21.9943 O   0  0  0  0  0  0  0  0  0  0  0  0
    8.4205  -16.7071   23.1396 N   0  0  0  0  0  0  0  0  0  0  0  0
    9.1272  -16.3213   24.3363 C   0  0  1  0  0  0  0  0  0  0  0  0
    8.2722  -16.2575   25.5612 C   0  0  0  0  0  0  0  0  0  0  0  0
    7.2111  -15.2487   25.5352 C   0  0  0  0  0  0  0  0  0  0  0  0
    5.8852  -15.3102   25.1760 C   0  0  0  0  0  0  0  0  0  0  0  0
    5.3259  -14.0825   25.3248 N   0  0  0  0  0  0  0  0  0  0  0  0
    6.2457  -13.2252   25.7688 C   0  0  0  0  0  0  0  0  0  0  0  0
    6.1998  -11.8632   26.0824 C   0  0  0  0  0  0  0  0  0  0  0  0
    7.3153  -11.2057   26.5285 C   0  0  0  0  0  0  0  0  0  0  0  0
    8.4800  -11.9131   26.6615 C   0  0  0  0  0  0  0  0  0  0  0  0
    8.5289  -13.2462   26.3556 C   0  0  0  0  0  0  0  0  0  0  0  0
    7.4196  -13.9316   25.9044 C   0  0  0  0  0  0  0  0  0  0  0  0
   10.1642  -17.3685   24.6000 C   0  0  0  0  0  0  0  0  0  0  0  0
    9.9251  -18.5542   24.2788 O   0  0  0  0  0  0  0  0  0  0  0  0
   11.4084  -17.0478   25.2045 N   0  0  0  0  0  0  0  0  0  0  0  0
   12.3938  -18.0808   25.3724 C   0  0  1  0  0  0  0  0  0  0  0  0
   13.7960  -17.5799   25.0997 C   0  0  0  0  0  0  0  0  0  0  0  0
   13.9303  -16.9183   23.8067 C   0  0  0  0  0  0  0  0  0  0  0  0
   13.4030  -17.3892   22.6274 C   0  0  0  0  0  0  0  0  0  0  0  0
   13.7427  -16.5022   21.6639 N   0  0  0  0  0  0  0  0  0  0  0  0
   14.4541  -15.5077   22.1942 C   0  0  0  0  0  0  0  0  0  0  0  0
   14.5617  -15.7767   23.5120 N   0  0  0  0  0  0  0  0  0  0  0  0
   12.2619  -18.6781   26.7093 C   0  0  0  0  0  0  0  0  0  0  0  0
   11.2551  -18.2565   27.5541 O   0  0  0  0  0  0  0  0  0  0  0  0
   13.0403  -19.5697   27.1195 O   0  0  0  0  0  0  0  0  0  0  0  0
  2  4  1  0
  2  1  1  0
  3  2  2  0
  4  5  1  0
  5  6  1  6
  7  5  1  0
  7  8  2  0
  9  7  1  0
 10  9  1  0
 10 11  1  1
 12 11  1  0
 12 20  1  0
 13 14  1  0
 13 12  2  0
 14 15  1  0
 15 20  2  0
 15 16  1  0
 16 17  2  0
 17 18  1  0
 19 18  2  0
 20 19  1  0
 21 10  1  0
 22 21  2  0
 23 21  1  0
 24 25  1  1
 24 23  1  0
 25 26  1  0
 26 30  1  0
 26 27  2  0
 27 28  1  0
 29 28  1  0
 30 29  2  0
 31 32  1  0
 31 24  1  0
 33 31  2  0
M  END
$$$$
