NWH.pdb
     RDKit          3D

 33 35  0  0  1  0  0  0  0  0999 V2000
    8.3638  -17.6811   19.4119 N   0  0  0  0  0  0  0  0  0  0  0  0
    8.1340  -16.3013   19.6033 C   0  0  0  0  0  0  0  0  0  0  0  0
    7.6744  -15.6058   18.6733 O   0  0  0  0  0  0  0  0  0  0  0  0
    8.4330  -15.6659   20.9003 C   0  0  0  0  0  0  0  0  0  0  0  0
    9.1291  -16.6914   21.7703 C   0  0  2  0  0  0  0  0  0  0  0  0
    8.3765  -17.8901   21.9694 N   0  0  0  0  0  0  0  0  0  0  0  0
    9.5847  -16.1523   23.0563 C   0  0  0  0  0  0  0  0  0  0  0  0
   10.2485  -15.0857   23.0829 O   0  0  0  0  0  0  0  0  0  0  0  0
    9.3040  -16.7928   24.2888 N   0  0  0  0  0  0  0  0  0  0  0  0
    9.7856  -16.2057   25.5150 C   0  0  1  0  0  0  0  0  0  0  0  0
    8.7345  -16.0208   26.5621 C   0  0  0  0  0  0  0  0  0  0  0  0
    7.5387  -15.2936   26.1308 C   0  0  0  0  0  0  0  0  0  0  0  0
    6.3309  -15.7159   25.6274 C   0  0  0  0  0  0  0  0  0  0  0  0
    5.5518  -14.6342   25.3724 N   0  0  0  0  0  0  0  0  0  0  0  0
    6.2145  -13.5227   25.6939 C   0  0  0  0  0  0  0  0  0  0  0  0
    5.8795  -12.1665   25.6296 C   0  0  0  0  0  0  0  0  0  0  0  0
    6.7655  -11.2028   26.0316 C   0  0  0  0  0  0  0  0  0  0  0  0
    7.9904  -11.5971   26.4996 C   0  0  0  0  0  0  0  0  0  0  0  0
    8.3220  -12.9233   26.5641 C   0  0  0  0  0  0  0  0  0  0  0  0
    7.4476  -13.9134   26.1654 C   0  0  0  0  0  0  0  0  0  0  0  0
   10.7965  -17.1461   26.0938 C   0  0  0  0  0  0  0  0  0  0  0  0
   11.3582  -16.8460   27.1712 O   0  0  0  0  0  0  0  0  0  0  0  0
   11.1314  -18.3667   25.4501 N   0  0  0  0  0  0  0  0  0  0  0  0
   11.9846  -19.3054   26.1261 C   0  0  1  0  0  0  0  0  0  0  0  0
   13.3867  -18.7668   26.3151 C   0  0  0  0  0  0  0  0  0  0  0  0
   14.0610  -18.4616   25.0583 C   0  0  0  0  0  0  0  0  0  0  0  0
   13.4769  -18.5428   23.8163 C   0  0  0  0  0  0  0  0  0  0  0  0
   14.4202  -18.1844   22.9149 N   0  0  0  0  0  0  0  0  0  0  0  0
   15.5571  -17.8864   23.5433 C   0  0  0  0  0  0  0  0  0  0  0  0
   15.3217  -18.0614   24.8603 N   0  0  0  0  0  0  0  0  0  0  0  0
   11.3647  -19.7126   27.3955 C   0  0  0  0  0  0  0  0  0  0  0  0
   11.1805  -21.0523   27.6717 O   0  0  0  0  0  0  0  0  0  0  0  0
   10.9906  -18.8780   28.2513 O   0  0  0  0  0  0  0  0  0  0  0  0
  2  4  1  0
  2  1  1  0
  3  2  2  0
  4  5  1  0
  5  6  1  1
  7  5  1  0
  7  8  2  0
  9  7  1  0
 10  9  1  0
 10 11  1  1
 12 11  1  0
 12 20  1  0
 13 14  1  0
 13 12  2  0
 14 15  1  0
 15 20  2  0
 15 16  1  0
 16 17  2  0
 17 18  1  0
 19 18  2  0
 20 19  1  0
 21 10  1  0
 22 21  2  0
 23 21  1  0
 24 25  1  1
 24 23  1  0
 25 26  1  0
 26 30  1  0
 26 27  2  0
 27 28  1  0
 29 28  1  0
 30 29  2  0
 31 32  1  0
 31 24  1  0
 33 31  2  0
M  END
$$$$
