NWH.pdb
     RDKit          3D

 33 35  0  0  1  0  0  0  0  0999 V2000
   11.2633  -17.7141   17.6428 N   0  0  0  0  0  0  0  0  0  0  0  0
   11.7759  -18.2688   18.8356 C   0  0  0  0  0  0  0  0  0  0  0  0
   12.4720  -19.3051   18.7984 O   0  0  0  0  0  0  0  0  0  0  0  0
   11.4963  -17.6331   20.1368 C   0  0  0  0  0  0  0  0  0  0  0  0
   10.5546  -16.4724   19.8939 C   0  0  2  0  0  0  0  0  0  0  0  0
   11.0363  -15.5249   18.9383 N   0  0  0  0  0  0  0  0  0  0  0  0
   10.1373  -15.7924   21.1249 C   0  0  0  0  0  0  0  0  0  0  0  0
   10.6588  -14.6918   21.4342 O   0  0  0  0  0  0  0  0  0  0  0  0
    9.1562  -16.3319   21.9934 N   0  0  0  0  0  0  0  0  0  0  0  0
    8.7866  -15.6016   23.1810 C   0  0  1  0  0  0  0  0  0  0  0  0
    7.3262  -15.6433   23.4984 C   0  0  0  0  0  0  0  0  0  0  0  0
    6.9562  -15.1399   24.8229 C   0  0  0  0  0  0  0  0  0  0  0  0
    6.4288  -15.7571   25.9326 C   0  0  0  0  0  0  0  0  0  0  0  0
    6.2589  -14.8369   26.9157 N   0  0  0  0  0  0  0  0  0  0  0  0
    6.6587  -13.6416   26.4804 C   0  0  0  0  0  0  0  0  0  0  0  0
    6.6970  -12.3784   27.0790 C   0  0  0  0  0  0  0  0  0  0  0  0
    7.1651  -11.2888   26.3940 C   0  0  0  0  0  0  0  0  0  0  0  0
    7.5963  -11.4637   25.1062 C   0  0  0  0  0  0  0  0  0  0  0  0
    7.5604  -12.6984   24.5170 C   0  0  0  0  0  0  0  0  0  0  0  0
    7.0936  -13.8116   25.1853 C   0  0  0  0  0  0  0  0  0  0  0  0
    9.4878  -16.2444   24.3370 C   0  0  0  0  0  0  0  0  0  0  0  0
    9.0626  -16.0384   25.4959 O   0  0  0  0  0  0  0  0  0  0  0  0
   10.6208  -17.0795   24.1490 N   0  0  0  0  0  0  0  0  0  0  0  0
   11.2796  -17.6375   25.2983 C   0  0  1  0  0  0  0  0  0  0  0  0
   10.6088  -18.9067   25.7787 C   0  0  0  0  0  0  0  0  0  0  0  0
    9.8488  -18.7261   27.0105 C   0  0  0  0  0  0  0  0  0  0  0  0
    9.8063  -17.5621   27.7410 C   0  0  0  0  0  0  0  0  0  0  0  0
    9.0020  -17.7949   28.8037 N   0  0  0  0  0  0  0  0  0  0  0  0
    8.5474  -19.0470   28.7619 C   0  0  0  0  0  0  0  0  0  0  0  0
    9.0762  -19.6076   27.6544 N   0  0  0  0  0  0  0  0  0  0  0  0
   12.7064  -17.8345   25.0038 C   0  0  0  0  0  0  0  0  0  0  0  0
   13.1960  -17.5397   23.7475 O   0  0  0  0  0  0  0  0  0  0  0  0
   13.5096  -18.2666   25.8625 O   0  0  0  0  0  0  0  0  0  0  0  0
  2  4  1  0
  2  1  1  0
  3  2  2  0
  4  5  1  0
  5  6  1  6
  7  5  1  0
  7  8  2  0
  9  7  1  0
 10  9  1  0
 10 11  1  1
 12 11  1  0
 12 20  1  0
 13 14  1  0
 13 12  2  0
 14 15  1  0
 15 20  2  0
 15 16  1  0
 16 17  2  0
 17 18  1  0
 19 18  2  0
 20 19  1  0
 21 10  1  0
 22 21  2  0
 23 21  1  0
 24 25  1  6
 24 23  1  0
 25 26  1  0
 26 30  1  0
 26 27  2  0
 27 28  1  0
 29 28  1  0
 30 29  2  0
 31 32  1  0
 31 24  1  0
 33 31  2  0
M  END
$$$$
