NWH.pdb
     RDKit          3D

 33 35  0  0  1  0  0  0  0  0999 V2000
   11.0036  -19.5351   16.6611 N   0  0  0  0  0  0  0  0  0  0  0  0
   10.1561  -18.4360   16.9202 C   0  0  0  0  0  0  0  0  0  0  0  0
    9.1403  -18.2467   16.2188 O   0  0  0  0  0  0  0  0  0  0  0  0
   10.4592  -17.5003   18.0193 C   0  0  0  0  0  0  0  0  0  0  0  0
    9.5077  -17.7986   19.1589 C   0  0  2  0  0  0  0  0  0  0  0  0
    8.1369  -17.8826   18.7632 N   0  0  0  0  0  0  0  0  0  0  0  0
    9.6578  -16.8865   20.2980 C   0  0  0  0  0  0  0  0  0  0  0  0
   10.7903  -16.7212   20.8166 O   0  0  0  0  0  0  0  0  0  0  0  0
    8.5634  -16.1731   20.8469 N   0  0  0  0  0  0  0  0  0  0  0  0
    8.7772  -15.3268   21.9952 C   0  0  1  0  0  0  0  0  0  0  0  0
    7.6617  -14.3700   22.2696 C   0  0  0  0  0  0  0  0  0  0  0  0
    7.9418  -13.3524   23.2847 C   0  0  0  0  0  0  0  0  0  0  0  0
    8.7130  -12.2142   23.2650 C   0  0  0  0  0  0  0  0  0  0  0  0
    8.6479  -11.6107   24.4790 N   0  0  0  0  0  0  0  0  0  0  0  0
    7.8594  -12.3203   25.2869 C   0  0  0  0  0  0  0  0  0  0  0  0
    7.4618  -12.1471   26.6164 C   0  0  0  0  0  0  0  0  0  0  0  0
    6.6253  -13.0454   27.2237 C   0  0  0  0  0  0  0  0  0  0  0  0
    6.1852  -14.1203   26.4986 C   0  0  0  0  0  0  0  0  0  0  0  0
    6.5720  -14.2933   25.1973 C   0  0  0  0  0  0  0  0  0  0  0  0
    7.4137  -13.4030   24.5626 C   0  0  0  0  0  0  0  0  0  0  0  0
    8.8734  -16.2175   23.1947 C   0  0  0  0  0  0  0  0  0  0  0  0
    7.9669  -17.0546   23.4037 O   0  0  0  0  0  0  0  0  0  0  0  0
    9.9661  -16.1340   24.0978 N   0  0  0  0  0  0  0  0  0  0  0  0
   10.1374  -17.1610   25.0887 C   0  0  1  0  0  0  0  0  0  0  0  0
   11.2976  -18.0775   24.7641 C   0  0  0  0  0  0  0  0  0  0  0  0
   11.5316  -19.0942   25.7833 C   0  0  0  0  0  0  0  0  0  0  0  0
   10.8960  -19.1428   27.0016 C   0  0  0  0  0  0  0  0  0  0  0  0
   11.3830  -20.2225   27.6555 N   0  0  0  0  0  0  0  0  0  0  0  0
   12.2882  -20.8409   26.8976 C   0  0  0  0  0  0  0  0  0  0  0  0
   12.3694  -20.1362   25.7498 N   0  0  0  0  0  0  0  0  0  0  0  0
   10.2619  -16.5490   26.4196 C   0  0  0  0  0  0  0  0  0  0  0  0
   10.2590  -17.3468   27.5459 O   0  0  0  0  0  0  0  0  0  0  0  0
   10.3724  -15.3110   26.5750 O   0  0  0  0  0  0  0  0  0  0  0  0
  2  4  1  0
  2  1  1  0
  3  2  2  0
  4  5  1  0
  5  6  1  6
  7  5  1  0
  7  8  2  0
  9  7  1  0
 10  9  1  0
 10 11  1  1
 12 11  1  0
 12 20  1  0
 13 14  1  0
 13 12  2  0
 14 15  1  0
 15 20  2  0
 15 16  1  0
 16 17  2  0
 17 18  1  0
 19 18  2  0
 20 19  1  0
 21 10  1  0
 22 21  2  0
 23 21  1  0
 24 25  1  6
 24 23  1  0
 25 26  1  0
 26 30  1  0
 26 27  2  0
 27 28  1  0
 29 28  1  0
 30 29  2  0
 31 32  1  0
 31 24  1  0
 33 31  2  0
M  END
$$$$
