NWH.pdb
     RDKit          3D

 33 35  0  0  1  0  0  0  0  0999 V2000
    9.7128  -18.0101   18.7824 N   0  0  0  0  0  0  0  0  0  0  0  0
   11.0289  -18.0552   19.2914 C   0  0  0  0  0  0  0  0  0  0  0  0
   11.9475  -18.5630   18.6146 O   0  0  0  0  0  0  0  0  0  0  0  0
   11.3343  -17.5046   20.6252 C   0  0  0  0  0  0  0  0  0  0  0  0
   10.0268  -17.0915   21.2678 C   0  0  2  0  0  0  0  0  0  0  0  0
    9.3032  -16.1053   20.5284 N   0  0  0  0  0  0  0  0  0  0  0  0
   10.1697  -16.6799   22.6685 C   0  0  0  0  0  0  0  0  0  0  0  0
   11.0209  -15.8083   22.9762 O   0  0  0  0  0  0  0  0  0  0  0  0
    9.3768  -17.2315   23.7052 N   0  0  0  0  0  0  0  0  0  0  0  0
    9.5053  -16.7121   25.0446 C   0  0  1  0  0  0  0  0  0  0  0  0
    8.2161  -16.2679   25.6578 C   0  0  0  0  0  0  0  0  0  0  0  0
    7.5404  -15.1651   24.9709 C   0  0  0  0  0  0  0  0  0  0  0  0
    6.8125  -15.1088   23.8057 C   0  0  0  0  0  0  0  0  0  0  0  0
    6.4016  -13.8320   23.5983 N   0  0  0  0  0  0  0  0  0  0  0  0
    6.8393  -13.0568   24.5911 C   0  0  0  0  0  0  0  0  0  0  0  0
    6.7016  -11.6913   24.8594 C   0  0  0  0  0  0  0  0  0  0  0  0
    7.2646  -11.1332   25.9762 C   0  0  0  0  0  0  0  0  0  0  0  0
    7.9673  -11.9438   26.8271 C   0  0  0  0  0  0  0  0  0  0  0  0
    8.1042  -13.2806   26.5679 C   0  0  0  0  0  0  0  0  0  0  0  0
    7.5469  -13.8671   25.4502 C   0  0  0  0  0  0  0  0  0  0  0  0
   10.0218  -17.8219   25.9065 C   0  0  0  0  0  0  0  0  0  0  0  0
    9.4734  -18.9451   25.8436 O   0  0  0  0  0  0  0  0  0  0  0  0
   11.1160  -17.6295   26.7909 N   0  0  0  0  0  0  0  0  0  0  0  0
   11.5582  -18.7258   27.6087 C   0  0  1  0  0  0  0  0  0  0  0  0
   13.0573  -18.7107   27.8190 C   0  0  0  0  0  0  0  0  0  0  0  0
   13.8145  -18.7742   26.5740 C   0  0  0  0  0  0  0  0  0  0  0  0
   13.3384  -19.2936   25.3934 C   0  0  0  0  0  0  0  0  0  0  0  0
   14.3315  -19.1724   24.4826 N   0  0  0  0  0  0  0  0  0  0  0  0
   15.3964  -18.6030   25.0466 C   0  0  0  0  0  0  0  0  0  0  0  0
   15.0643  -18.3638   26.3323 N   0  0  0  0  0  0  0  0  0  0  0  0
   10.8143  -18.7290   28.8768 C   0  0  0  0  0  0  0  0  0  0  0  0
   11.0742  -19.6991   29.8236 O   0  0  0  0  0  0  0  0  0  0  0  0
    9.9389  -17.8717   29.1369 O   0  0  0  0  0  0  0  0  0  0  0  0
  2  4  1  0
  2  1  1  0
  3  2  2  0
  4  5  1  0
  5  6  1  6
  7  5  1  0
  7  8  2  0
  9  7  1  0
 10  9  1  0
 10 11  1  1
 12 11  1  0
 12 20  1  0
 13 14  1  0
 13 12  2  0
 14 15  1  0
 15 20  2  0
 15 16  1  0
 16 17  2  0
 17 18  1  0
 19 18  2  0
 20 19  1  0
 21 10  1  0
 22 21  2  0
 23 21  1  0
 24 25  1  1
 24 23  1  0
 25 26  1  0
 26 30  1  0
 26 27  2  0
 27 28  1  0
 29 28  1  0
 30 29  2  0
 31 32  1  0
 31 24  1  0
 33 31  2  0
M  END
$$$$
