NWH.pdb
     RDKit          3D

 33 35  0  0  1  0  0  0  0  0999 V2000
    7.4507  -16.1958   17.2536 N   0  0  0  0  0  0  0  0  0  0  0  0
    7.5638  -16.9395   18.4483 C   0  0  0  0  0  0  0  0  0  0  0  0
    6.8702  -17.9640   18.6190 O   0  0  0  0  0  0  0  0  0  0  0  0
    8.5000  -16.5169   19.5068 C   0  0  0  0  0  0  0  0  0  0  0  0
    7.7069  -15.7657   20.5555 C   0  0  2  0  0  0  0  0  0  0  0  0
    7.0018  -14.6311   20.0473 N   0  0  0  0  0  0  0  0  0  0  0  0
    8.5014  -15.3917   21.7306 C   0  0  0  0  0  0  0  0  0  0  0  0
    9.1072  -14.2910   21.7464 O   0  0  0  0  0  0  0  0  0  0  0  0
    8.6168  -16.2316   22.8660 N   0  0  0  0  0  0  0  0  0  0  0  0
    9.4345  -15.8089   23.9765 C   0  0  1  0  0  0  0  0  0  0  0  0
    8.8063  -16.0184   25.3169 C   0  0  0  0  0  0  0  0  0  0  0  0
    7.5378  -15.3193   25.5328 C   0  0  0  0  0  0  0  0  0  0  0  0
    6.2296  -15.7394   25.4795 C   0  0  0  0  0  0  0  0  0  0  0  0
    5.4132  -14.6905   25.7541 N   0  0  0  0  0  0  0  0  0  0  0  0
    6.1488  -13.6023   25.9840 C   0  0  0  0  0  0  0  0  0  0  0  0
    5.8156  -12.2827   26.3048 C   0  0  0  0  0  0  0  0  0  0  0  0
    6.7881  -11.3368   26.4923 C   0  0  0  0  0  0  0  0  0  0  0  0
    8.0980  -11.7125   26.3585 C   0  0  0  0  0  0  0  0  0  0  0  0
    8.4281  -13.0031   26.0446 C   0  0  0  0  0  0  0  0  0  0  0  0
    7.4676  -13.9745   25.8508 C   0  0  0  0  0  0  0  0  0  0  0  0
   10.6778  -16.6426   23.9585 C   0  0  0  0  0  0  0  0  0  0  0  0
   10.5725  -17.8893   23.9267 O   0  0  0  0  0  0  0  0  0  0  0  0
   11.9694  -16.0529   23.9769 N   0  0  0  0  0  0  0  0  0  0  0  0
   13.1261  -16.9000   24.0806 C   0  0  1  0  0  0  0  0  0  0  0  0
   14.3661  -16.2425   23.5136 C   0  0  0  0  0  0  0  0  0  0  0  0
   14.2783  -15.9861   22.0804 C   0  0  0  0  0  0  0  0  0  0  0  0
   13.3994  -16.6088   21.2258 C   0  0  0  0  0  0  0  0  0  0  0  0
   13.6282  -16.1041   19.9915 N   0  0  0  0  0  0  0  0  0  0  0  0
   14.6061  -15.2002   20.0458 C   0  0  0  0  0  0  0  0  0  0  0  0
   14.9963  -15.1382   21.3360 N   0  0  0  0  0  0  0  0  0  0  0  0
   13.3053  -17.3245   25.4767 C   0  0  0  0  0  0  0  0  0  0  0  0
   14.3765  -18.1244   25.8197 O   0  0  0  0  0  0  0  0  0  0  0  0
   12.5109  -16.9833   26.3831 O   0  0  0  0  0  0  0  0  0  0  0  0
  2  4  1  0
  2  1  1  0
  3  2  2  0
  4  5  1  0
  5  6  1  6
  7  5  1  0
  7  8  2  0
  9  7  1  0
 10  9  1  0
 10 11  1  1
 12 11  1  0
 12 20  1  0
 13 14  1  0
 13 12  2  0
 14 15  1  0
 15 20  2  0
 15 16  1  0
 16 17  2  0
 17 18  1  0
 19 18  2  0
 20 19  1  0
 21 10  1  0
 22 21  2  0
 23 21  1  0
 24 25  1  1
 24 23  1  0
 25 26  1  0
 26 30  1  0
 26 27  2  0
 27 28  1  0
 29 28  1  0
 30 29  2  0
 31 32  1  0
 31 24  1  0
 33 31  2  0
M  END
$$$$
