NWH.pdb
     RDKit          3D

 33 35  0  0  1  0  0  0  0  0999 V2000
    7.0639  -13.1439   16.5994 N   0  0  0  0  0  0  0  0  0  0  0  0
    8.1460  -13.9114   17.0826 C   0  0  0  0  0  0  0  0  0  0  0  0
    8.6883  -14.7645   16.3493 O   0  0  0  0  0  0  0  0  0  0  0  0
    8.6478  -13.7155   18.4556 C   0  0  0  0  0  0  0  0  0  0  0  0
    8.6907  -15.0697   19.1321 C   0  0  2  0  0  0  0  0  0  0  0  0
    7.5765  -15.9091   18.8211 N   0  0  0  0  0  0  0  0  0  0  0  0
    8.8836  -14.9904   20.5841 C   0  0  0  0  0  0  0  0  0  0  0  0
    9.9447  -14.4990   21.0440 O   0  0  0  0  0  0  0  0  0  0  0  0
    7.9097  -15.4515   21.5043 N   0  0  0  0  0  0  0  0  0  0  0  0
    8.1281  -15.2616   22.9173 C   0  0  1  0  0  0  0  0  0  0  0  0
    6.9016  -15.4266   23.7563 C   0  0  0  0  0  0  0  0  0  0  0  0
    7.0230  -14.9728   25.1433 C   0  0  0  0  0  0  0  0  0  0  0  0
    7.1118  -15.6535   26.3346 C   0  0  0  0  0  0  0  0  0  0  0  0
    7.2002  -14.7603   27.3527 N   0  0  0  0  0  0  0  0  0  0  0  0
    7.1714  -13.5210   26.8612 C   0  0  0  0  0  0  0  0  0  0  0  0
    7.2292  -12.2603   27.4634 C   0  0  0  0  0  0  0  0  0  0  0  0
    7.1781  -11.1175   26.7104 C   0  0  0  0  0  0  0  0  0  0  0  0
    7.0690  -11.2365   25.3508 C   0  0  0  0  0  0  0  0  0  0  0  0
    7.0122  -12.4686   24.7576 C   0  0  0  0  0  0  0  0  0  0  0  0
    7.0618  -13.6348   25.4935 C   0  0  0  0  0  0  0  0  0  0  0  0
    9.0910  -16.3164   23.3663 C   0  0  0  0  0  0  0  0  0  0  0  0
    8.9516  -17.4858   22.9428 O   0  0  0  0  0  0  0  0  0  0  0  0
   10.1552  -16.0211   24.2589 N   0  0  0  0  0  0  0  0  0  0  0  0
   11.1451  -17.0279   24.5280 C   0  0  1  0  0  0  0  0  0  0  0  0
   12.5494  -16.4629   24.5173 C   0  0  0  0  0  0  0  0  0  0  0  0
   12.9627  -15.9709   23.2079 C   0  0  0  0  0  0  0  0  0  0  0  0
   12.3686  -16.3180   22.0176 C   0  0  0  0  0  0  0  0  0  0  0  0
   13.0339  -15.6600   21.0404 N   0  0  0  0  0  0  0  0  0  0  0  0
   14.0093  -14.9242   21.5728 C   0  0  0  0  0  0  0  0  0  0  0  0
   13.9538  -15.1252   22.9059 N   0  0  0  0  0  0  0  0  0  0  0  0
   10.8255  -17.7116   25.7896 C   0  0  0  0  0  0  0  0  0  0  0  0
   10.7294  -16.9856   26.9596 O   0  0  0  0  0  0  0  0  0  0  0  0
   10.6335  -18.9481   25.8464 O   0  0  0  0  0  0  0  0  0  0  0  0
  2  4  1  0
  2  1  1  0
  3  2  2  0
  4  5  1  0
  5  6  1  1
  7  5  1  0
  7  8  2  0
  9  7  1  0
 10  9  1  0
 10 11  1  1
 12 11  1  0
 12 20  1  0
 13 14  1  0
 13 12  2  0
 14 15  1  0
 15 20  2  0
 15 16  1  0
 16 17  2  0
 17 18  1  0
 19 18  2  0
 20 19  1  0
 21 10  1  0
 22 21  2  0
 23 21  1  0
 24 25  1  1
 24 23  1  0
 25 26  1  0
 26 30  1  0
 26 27  2  0
 27 28  1  0
 29 28  1  0
 30 29  2  0
 31 32  1  0
 31 24  1  0
 33 31  2  0
M  END
$$$$
