NWH.pdb
     RDKit          3D

 33 35  0  0  1  0  0  0  0  0999 V2000
   11.1002  -15.9422   18.2227 N   0  0  0  0  0  0  0  0  0  0  0  0
    9.9853  -16.0814   19.0777 C   0  0  0  0  0  0  0  0  0  0  0  0
    8.9443  -16.6363   18.6677 O   0  0  0  0  0  0  0  0  0  0  0  0
   10.0361  -15.5743   20.4618 C   0  0  0  0  0  0  0  0  0  0  0  0
   10.0395  -16.7679   21.3938 C   0  0  2  0  0  0  0  0  0  0  0  0
    8.8879  -17.6050   21.2685 N   0  0  0  0  0  0  0  0  0  0  0  0
   10.2631  -16.4101   22.7988 C   0  0  0  0  0  0  0  0  0  0  0  0
   11.2534  -15.7017   23.1095 O   0  0  0  0  0  0  0  0  0  0  0  0
    9.3970  -16.8357   23.8363 N   0  0  0  0  0  0  0  0  0  0  0  0
    9.6949  -16.4693   25.1992 C   0  0  1  0  0  0  0  0  0  0  0  0
    8.5047  -16.4475   26.1038 C   0  0  0  0  0  0  0  0  0  0  0  0
    7.4274  -15.5400   25.7034 C   0  0  0  0  0  0  0  0  0  0  0  0
    6.2391  -15.7493   25.0441 C   0  0  0  0  0  0  0  0  0  0  0  0
    5.5906  -14.5648   24.9076 N   0  0  0  0  0  0  0  0  0  0  0  0
    6.3194  -13.5926   25.4568 C   0  0  0  0  0  0  0  0  0  0  0  0
    6.1183  -12.2150   25.5875 C   0  0  0  0  0  0  0  0  0  0  0  0
    7.0472  -11.4239   26.2097 C   0  0  0  0  0  0  0  0  0  0  0  0
    8.1806  -12.0132   26.7026 C   0  0  0  0  0  0  0  0  0  0  0  0
    8.3810  -13.3611   26.5767 C   0  0  0  0  0  0  0  0  0  0  0  0
    7.4609  -14.1797   25.9545 C   0  0  0  0  0  0  0  0  0  0  0  0
   10.6229  -17.5079   25.7483 C   0  0  0  0  0  0  0  0  0  0  0  0
   11.3807  -18.1211   24.9634 O   0  0  0  0  0  0  0  0  0  0  0  0
   10.6625  -17.8119   27.1348 N   0  0  0  0  0  0  0  0  0  0  0  0
   11.6811  -18.6969   27.6302 C   0  0  1  0  0  0  0  0  0  0  0  0
   13.0712  -18.2368   27.2459 C   0  0  0  0  0  0  0  0  0  0  0  0
   13.5014  -18.7293   25.9422 C   0  0  0  0  0  0  0  0  0  0  0  0
   13.6676  -17.9457   24.8248 C   0  0  0  0  0  0  0  0  0  0  0  0
   14.0701  -18.7657   23.8268 N   0  0  0  0  0  0  0  0  0  0  0  0
   14.1596  -20.0170   24.2769 C   0  0  0  0  0  0  0  0  0  0  0  0
   13.8069  -19.9797   25.5787 N   0  0  0  0  0  0  0  0  0  0  0  0
   11.5277  -18.8645   29.0827 C   0  0  0  0  0  0  0  0  0  0  0  0
   12.4228  -19.6483   29.7824 O   0  0  0  0  0  0  0  0  0  0  0  0
   10.6011  -18.3150   29.7218 O   0  0  0  0  0  0  0  0  0  0  0  0
  2  4  1  0
  2  1  1  0
  3  2  2  0
  4  5  1  0
  5  6  1  1
  7  5  1  0
  7  8  2  0
  9  7  1  0
 10  9  1  0
 10 11  1  1
 12 11  1  0
 12 20  1  0
 13 14  1  0
 13 12  2  0
 14 15  1  0
 15 20  2  0
 15 16  1  0
 16 17  2  0
 17 18  1  0
 19 18  2  0
 20 19  1  0
 21 10  1  0
 22 21  2  0
 23 21  1  0
 24 25  1  1
 24 23  1  0
 25 26  1  0
 26 30  1  0
 26 27  2  0
 27 28  1  0
 29 28  1  0
 30 29  2  0
 31 32  1  0
 31 24  1  0
 33 31  2  0
M  END
$$$$
