NWH.pdb
     RDKit          3D

 33 35  0  0  1  0  0  0  0  0999 V2000
   12.9322  -16.3986   18.2454 N   0  0  0  0  0  0  0  0  0  0  0  0
   11.5417  -16.1697   18.3306 C   0  0  0  0  0  0  0  0  0  0  0  0
   10.7939  -16.4820   17.3803 O   0  0  0  0  0  0  0  0  0  0  0  0
   10.9566  -15.5606   19.5398 C   0  0  0  0  0  0  0  0  0  0  0  0
   10.8677  -16.6341   20.6041 C   0  0  2  0  0  0  0  0  0  0  0  0
   10.1134  -17.7820   20.2088 N   0  0  0  0  0  0  0  0  0  0  0  0
   10.3977  -16.1330   21.9002 C   0  0  0  0  0  0  0  0  0  0  0  0
   10.9719  -15.1496   22.4314 O   0  0  0  0  0  0  0  0  0  0  0  0
    9.3073  -16.7194   22.5893 N   0  0  0  0  0  0  0  0  0  0  0  0
    8.9793  -16.2566   23.9155 C   0  0  1  0  0  0  0  0  0  0  0  0
    7.6196  -16.6602   24.3884 C   0  0  0  0  0  0  0  0  0  0  0  0
    6.8164  -15.5886   24.9806 C   0  0  0  0  0  0  0  0  0  0  0  0
    5.4863  -15.5094   25.3201 C   0  0  0  0  0  0  0  0  0  0  0  0
    5.2302  -14.2800   25.8349 N   0  0  0  0  0  0  0  0  0  0  0  0
    6.3510  -13.5577   25.8407 C   0  0  0  0  0  0  0  0  0  0  0  0
    6.6366  -12.2533   26.2562 C   0  0  0  0  0  0  0  0  0  0  0  0
    7.9025  -11.7418   26.1493 C   0  0  0  0  0  0  0  0  0  0  0  0
    8.8857  -12.5378   25.6252 C   0  0  0  0  0  0  0  0  0  0  0  0
    8.6101  -13.8148   25.2175 C   0  0  0  0  0  0  0  0  0  0  0  0
    7.3435  -14.3536   25.3145 C   0  0  0  0  0  0  0  0  0  0  0  0
    9.9573  -16.8814   24.8613 C   0  0  0  0  0  0  0  0  0  0  0  0
   10.6226  -17.8709   24.4809 O   0  0  0  0  0  0  0  0  0  0  0  0
   10.1464  -16.3785   26.1757 N   0  0  0  0  0  0  0  0  0  0  0  0
   11.0167  -17.0822   27.0777 C   0  0  1  0  0  0  0  0  0  0  0  0
   11.2635  -16.3051   28.3531 C   0  0  0  0  0  0  0  0  0  0  0  0
   12.0257  -17.0541   29.3459 C   0  0  0  0  0  0  0  0  0  0  0  0
   12.8632  -18.1063   29.0598 C   0  0  0  0  0  0  0  0  0  0  0  0
   13.3779  -18.5294   30.2373 N   0  0  0  0  0  0  0  0  0  0  0  0
   12.8969  -17.7876   31.2347 C   0  0  0  0  0  0  0  0  0  0  0  0
   12.0669  -16.8848   30.6719 N   0  0  0  0  0  0  0  0  0  0  0  0
   10.4804  -18.4266   27.3352 C   0  0  0  0  0  0  0  0  0  0  0  0
    9.1256  -18.6608   27.2144 O   0  0  0  0  0  0  0  0  0  0  0  0
   11.2166  -19.3847   27.6655 O   0  0  0  0  0  0  0  0  0  0  0  0
  2  4  1  0
  2  1  1  0
  3  2  2  0
  4  5  1  0
  5  6  1  6
  7  5  1  0
  7  8  2  0
  9  7  1  0
 10  9  1  0
 10 11  1  1
 12 11  1  0
 12 20  1  0
 13 14  1  0
 13 12  2  0
 14 15  1  0
 15 20  2  0
 15 16  1  0
 16 17  2  0
 17 18  1  0
 19 18  2  0
 20 19  1  0
 21 10  1  0
 22 21  2  0
 23 21  1  0
 24 25  1  1
 24 23  1  0
 25 26  1  0
 26 30  1  0
 26 27  2  0
 27 28  1  0
 29 28  1  0
 30 29  2  0
 31 32  1  0
 31 24  1  0
 33 31  2  0
M  END
$$$$
