FDN.pdb
     RDKit          3D

 28 28  0  0  1  0  0  0  0  0999 V2000
   24.6213  -21.1876   -9.8455 N   0  0  0  0  0  0  0  0  0  0  0  0
   25.1950  -20.2972  -10.8187 C   0  0  1  0  0  0  0  0  0  0  0  0
   26.6649  -20.6467  -10.9206 C   0  0  0  0  0  0  0  0  0  0  0  0
   27.2392  -20.4016   -9.5570 C   0  0  0  0  0  0  0  0  0  0  0  0
   28.2424  -21.2162   -9.0763 C   0  0  0  0  0  0  0  0  0  0  0  0
   28.8150  -21.0268   -7.8167 C   0  0  0  0  0  0  0  0  0  0  0  0
   28.3642  -19.9949   -7.0308 C   0  0  0  0  0  0  0  0  0  0  0  0
   27.3607  -19.1811   -7.5129 C   0  0  0  0  0  0  0  0  0  0  0  0
   26.7978  -19.3740   -8.7613 C   0  0  0  0  0  0  0  0  0  0  0  0
   24.5370  -20.4739  -12.1742 C   0  0  0  0  0  0  0  0  0  0  0  0
   23.4564  -21.0817  -12.1876 O   0  0  0  0  0  0  0  0  0  0  0  0
   25.1170  -19.9787  -13.3376 N   0  0  0  0  0  0  0  0  0  0  0  0
   24.4906  -19.6258  -14.5506 C   0  0  1  0  0  0  0  0  0  0  0  0
   25.3749  -19.1196  -15.6707 C   0  0  0  0  0  0  0  0  0  0  0  0
   26.1104  -17.8788  -15.3331 C   0  0  0  0  0  0  0  0  0  0  0  0
   25.6734  -16.9399  -14.6563 O   0  0  0  0  0  0  0  0  0  0  0  0
   23.4253  -20.4845  -15.0292 C   0  0  0  0  0  0  0  0  0  0  0  0
   23.6977  -21.7107  -15.3134 O   0  0  0  0  0  0  0  0  0  0  0  0
   27.4123  -17.7942  -15.8405 O   0  0  0  0  0  0  0  0  0  0  0  0
   18.9103  -22.8582  -14.5787 N   0  0  0  0  0  0  0  0  0  0  0  0
   19.9638  -22.7395  -13.5893 C   0  0  0  0  0  0  0  0  0  0  0  0
   19.8255  -23.5198  -12.6169 O   0  0  0  0  0  0  0  0  0  0  0  0
   21.0574  -21.7753  -13.7732 C   0  0  0  0  0  0  0  0  0  0  0  0
   20.9754  -21.1201  -15.1269 C   0  0  2  0  0  0  0  0  0  0  0  0
   22.0748  -20.1209  -15.2279 N   0  0  0  0  0  0  0  0  0  0  0  0
   19.6858  -20.4128  -15.3652 C   0  0  0  0  0  0  0  0  0  0  0  0
   18.6930  -20.8595  -15.9518 O   0  0  0  0  0  0  0  0  0  0  0  0
   19.5630  -19.0967  -14.8809 O   0  0  0  0  0  0  0  0  0  0  0  0
  2  1  1  1
  2  3  1  0
  2 10  1  0
  4  9  2  0
  4  3  1  0
  5  4  1  0
  6  7  1  0
  6  5  2  0
  7  8  2  0
  8  9  1  0
 10 11  2  0
 12 10  1  0
 12 13  1  0
 13 14  1  6
 14 15  1  0
 15 19  1  0
 15 16  2  0
 17 13  1  0
 17 18  2  0
 20 21  1  0
 21 23  1  0
 21 22  2  0
 24 23  1  1
 24 25  1  0
 25 17  1  0
 26 24  1  0
 26 28  1  0
 27 26  2  0
M  END
$$$$
