FDN.pdb
     RDKit          3D

 28 28  0  0  1  0  0  0  0  0999 V2000
   28.1530  -21.6185   -8.9994 N   0  0  0  0  0  0  0  0  0  0  0  0
   27.1219  -20.6176   -9.0628 C   0  0  1  0  0  0  0  0  0  0  0  0
   27.7202  -19.3363   -8.5212 C   0  0  0  0  0  0  0  0  0  0  0  0
   28.0025  -19.5973   -7.0716 C   0  0  0  0  0  0  0  0  0  0  0  0
   27.0054  -19.4266   -6.1348 C   0  0  0  0  0  0  0  0  0  0  0  0
   27.2148  -19.6621   -4.7743 C   0  0  0  0  0  0  0  0  0  0  0  0
   28.4548  -20.0776   -4.3555 C   0  0  0  0  0  0  0  0  0  0  0  0
   29.4511  -20.2477   -5.2936 C   0  0  0  0  0  0  0  0  0  0  0  0
   29.2373  -20.0128   -6.6396 C   0  0  0  0  0  0  0  0  0  0  0  0
   26.6623  -20.3979  -10.4918 C   0  0  0  0  0  0  0  0  0  0  0  0
   27.5486  -20.1593  -11.3255 O   0  0  0  0  0  0  0  0  0  0  0  0
   25.3184  -20.4622  -10.8448 N   0  0  0  0  0  0  0  0  0  0  0  0
   24.7518  -20.8160  -12.0866 C   0  0  1  0  0  0  0  0  0  0  0  0
   25.3554  -21.9967  -12.8177 C   0  0  0  0  0  0  0  0  0  0  0  0
   26.4853  -21.6328  -13.7040 C   0  0  0  0  0  0  0  0  0  0  0  0
   27.6850  -21.6890  -13.4071 O   0  0  0  0  0  0  0  0  0  0  0  0
   23.3074  -20.7716  -12.2010 C   0  0  0  0  0  0  0  0  0  0  0  0
   22.5948  -21.2902  -11.2618 O   0  0  0  0  0  0  0  0  0  0  0  0
   26.1284  -21.1909  -14.9833 O   0  0  0  0  0  0  0  0  0  0  0  0
   21.4703  -17.0833  -15.0689 N   0  0  0  0  0  0  0  0  0  0  0  0
   20.7955  -17.9431  -14.1158 C   0  0  0  0  0  0  0  0  0  0  0  0
   20.4297  -17.3447  -13.0758 O   0  0  0  0  0  0  0  0  0  0  0  0
   20.5949  -19.3695  -14.4066 C   0  0  0  0  0  0  0  0  0  0  0  0
   21.0740  -20.2245  -13.2630 C   0  0  2  0  0  0  0  0  0  0  0  0
   22.5629  -20.2063  -13.2600 N   0  0  0  0  0  0  0  0  0  0  0  0
   20.6301  -21.6437  -13.3583 C   0  0  0  0  0  0  0  0  0  0  0  0
   21.2166  -22.5664  -13.9363 O   0  0  0  0  0  0  0  0  0  0  0  0
   19.4185  -21.9929  -12.7323 O   0  0  0  0  0  0  0  0  0  0  0  0
  2  1  1  6
  2  3  1  0
  2 10  1  0
  4  9  2  0
  4  3  1  0
  5  4  1  0
  6  7  1  0
  6  5  2  0
  7  8  2  0
  8  9  1  0
 10 11  2  0
 12 10  1  0
 12 13  1  0
 13 14  1  1
 14 15  1  0
 15 19  1  0
 15 16  2  0
 17 13  1  0
 17 18  2  0
 20 21  1  0
 21 23  1  0
 21 22  2  0
 24 23  1  6
 24 25  1  0
 25 17  1  0
 26 24  1  0
 26 28  1  0
 27 26  2  0
M  END
$$$$
