FDN.pdb
     RDKit          3D

 28 28  0  0  1  0  0  0  0  0999 V2000
   25.1407  -10.7839  -17.9019 N   0  0  0  0  0  0  0  0  0  0  0  0
   24.6244  -10.8477  -16.5608 C   0  0  1  0  0  0  0  0  0  0  0  0
   25.7256  -10.3597  -15.6430 C   0  0  0  0  0  0  0  0  0  0  0  0
   26.8541  -11.3345  -15.8034 C   0  0  0  0  0  0  0  0  0  0  0  0
   26.7423  -12.6075  -15.2859 C   0  0  0  0  0  0  0  0  0  0  0  0
   27.7610  -13.5543  -15.4133 C   0  0  0  0  0  0  0  0  0  0  0  0
   28.9120  -13.2061  -16.0763 C   0  0  0  0  0  0  0  0  0  0  0  0
   29.0223  -11.9324  -16.5932 C   0  0  0  0  0  0  0  0  0  0  0  0
   28.0098  -10.9993  -16.4635 C   0  0  0  0  0  0  0  0  0  0  0  0
   23.4036   -9.9610  -16.4036 C   0  0  0  0  0  0  0  0  0  0  0  0
   23.3957   -8.9114  -17.0637 O   0  0  0  0  0  0  0  0  0  0  0  0
   22.3508  -10.3100  -15.5640 N   0  0  0  0  0  0  0  0  0  0  0  0
   21.1460   -9.6158  -15.3299 C   0  0  1  0  0  0  0  0  0  0  0  0
   19.9514  -10.4264  -14.8733 C   0  0  0  0  0  0  0  0  0  0  0  0
   19.7768  -11.6973  -15.6142 C   0  0  0  0  0  0  0  0  0  0  0  0
   19.6930  -11.8128  -16.8432 O   0  0  0  0  0  0  0  0  0  0  0  0
   21.2316   -8.3305  -14.6652 C   0  0  0  0  0  0  0  0  0  0  0  0
   22.1562   -8.1465  -13.7878 O   0  0  0  0  0  0  0  0  0  0  0  0
   19.7047  -12.8499  -14.8232 O   0  0  0  0  0  0  0  0  0  0  0  0
   22.9770   -3.1701  -15.5759 N   0  0  0  0  0  0  0  0  0  0  0  0
   22.4336   -4.0951  -14.6002 C   0  0  0  0  0  0  0  0  0  0  0  0
   22.3301   -3.6041  -13.4505 O   0  0  0  0  0  0  0  0  0  0  0  0
   22.0621   -5.4620  -14.9914 C   0  0  0  0  0  0  0  0  0  0  0  0
   20.7491   -5.8614  -14.3711 C   0  0  2  0  0  0  0  0  0  0  0  0
   20.3893   -7.2159  -14.8743 N   0  0  0  0  0  0  0  0  0  0  0  0
   19.6311   -4.9340  -14.7027 C   0  0  0  0  0  0  0  0  0  0  0  0
   19.3084   -3.9119  -14.0859 O   0  0  0  0  0  0  0  0  0  0  0  0
   18.8465   -5.2339  -15.8324 O   0  0  0  0  0  0  0  0  0  0  0  0
  2  1  1  6
  2  3  1  0
  2 10  1  0
  4  9  2  0
  4  3  1  0
  5  4  1  0
  6  7  1  0
  6  5  2  0
  7  8  2  0
  8  9  1  0
 10 11  2  0
 12 10  1  0
 12 13  1  0
 13 14  1  1
 14 15  1  0
 15 19  1  0
 15 16  2  0
 17 13  1  0
 17 18  2  0
 20 21  1  0
 21 23  1  0
 21 22  2  0
 24 23  1  6
 24 25  1  0
 25 17  1  0
 26 24  1  0
 26 28  1  0
 27 26  2  0
M  END
$$$$
