FDN.pdb
     RDKit          3D

 28 28  0  0  1  0  0  0  0  0999 V2000
   24.0829  -13.9863  -18.2187 N   0  0  0  0  0  0  0  0  0  0  0  0
   23.7625  -13.3314  -16.9787 C   0  0  1  0  0  0  0  0  0  0  0  0
   25.0482  -12.7231  -16.4589 C   0  0  0  0  0  0  0  0  0  0  0  0
   25.9216  -13.8797  -16.0735 C   0  0  0  0  0  0  0  0  0  0  0  0
   26.9053  -14.3163  -16.9354 C   0  0  0  0  0  0  0  0  0  0  0  0
   27.7487  -15.3842  -16.6218 C   0  0  0  0  0  0  0  0  0  0  0  0
   27.5936  -16.0205  -15.4148 C   0  0  0  0  0  0  0  0  0  0  0  0
   26.6093  -15.5828  -14.5539 C   0  0  0  0  0  0  0  0  0  0  0  0
   25.7772  -14.5245  -14.8705 C   0  0  0  0  0  0  0  0  0  0  0  0
   22.7333  -12.2370  -17.1900 C   0  0  0  0  0  0  0  0  0  0  0  0
   22.8006  -11.6162  -18.2612 O   0  0  0  0  0  0  0  0  0  0  0  0
   21.7668  -11.9487  -16.2321 N   0  0  0  0  0  0  0  0  0  0  0  0
   20.7574  -10.9649  -16.2703 C   0  0  1  0  0  0  0  0  0  0  0  0
   19.4108  -11.3240  -15.6783 C   0  0  0  0  0  0  0  0  0  0  0  0
   18.3807  -10.2756  -15.8644 C   0  0  0  0  0  0  0  0  0  0  0  0
   17.8827   -9.9340  -16.9442 O   0  0  0  0  0  0  0  0  0  0  0  0
   21.1431   -9.5975  -15.9832 C   0  0  0  0  0  0  0  0  0  0  0  0
   22.2010   -9.3864  -15.2795 O   0  0  0  0  0  0  0  0  0  0  0  0
   17.9556   -9.6355  -14.6944 O   0  0  0  0  0  0  0  0  0  0  0  0
   23.6428   -5.4320  -14.9688 N   0  0  0  0  0  0  0  0  0  0  0  0
   22.3947   -5.9114  -14.4074 C   0  0  0  0  0  0  0  0  0  0  0  0
   21.8801   -5.1171  -13.5841 O   0  0  0  0  0  0  0  0  0  0  0  0
   21.8447   -7.2134  -14.8098 C   0  0  0  0  0  0  0  0  0  0  0  0
   20.9542   -7.0719  -16.0162 C   0  0  2  0  0  0  0  0  0  0  0  0
   20.4706   -8.4270  -16.3994 N   0  0  0  0  0  0  0  0  0  0  0  0
   21.6447   -6.4778  -17.1954 C   0  0  0  0  0  0  0  0  0  0  0  0
   22.0790   -5.3244  -17.2964 O   0  0  0  0  0  0  0  0  0  0  0  0
   21.8325   -7.2977  -18.3243 O   0  0  0  0  0  0  0  0  0  0  0  0
  2  1  1  6
  2  3  1  0
  2 10  1  0
  4  9  2  0
  4  3  1  0
  5  4  1  0
  6  7  1  0
  6  5  2  0
  7  8  2  0
  8  9  1  0
 10 11  2  0
 12 10  1  0
 12 13  1  0
 13 14  1  1
 14 15  1  0
 15 19  1  0
 15 16  2  0
 17 13  1  0
 17 18  2  0
 20 21  1  0
 21 23  1  0
 21 22  2  0
 24 23  1  1
 24 25  1  0
 25 17  1  0
 26 24  1  0
 26 28  1  0
 27 26  2  0
M  END
$$$$
