FDN.pdb
     RDKit          3D

 28 28  0  0  1  0  0  0  0  0999 V2000
   22.6623  -33.1550   -1.9696 N   0  0  0  0  0  0  0  0  0  0  0  0
   22.4160  -31.7418   -2.0762 C   0  0  1  0  0  0  0  0  0  0  0  0
   23.1312  -31.2644   -3.3226 C   0  0  0  0  0  0  0  0  0  0  0  0
   24.5571  -31.7035   -3.1697 C   0  0  0  0  0  0  0  0  0  0  0  0
   25.1749  -32.4013   -4.1859 C   0  0  0  0  0  0  0  0  0  0  0  0
   26.5019  -32.8272   -4.0959 C   0  0  0  0  0  0  0  0  0  0  0  0
   27.2152  -32.5414   -2.9579 C   0  0  0  0  0  0  0  0  0  0  0  0
   26.5959  -31.8435   -1.9424 C   0  0  0  0  0  0  0  0  0  0  0  0
   25.2814  -31.4246   -2.0377 C   0  0  0  0  0  0  0  0  0  0  0  0
   20.9316  -31.4549   -2.2025 C   0  0  0  0  0  0  0  0  0  0  0  0
   20.1764  -32.4381   -2.1828 O   0  0  0  0  0  0  0  0  0  0  0  0
   20.4470  -30.1575   -2.3323 N   0  0  0  0  0  0  0  0  0  0  0  0
   19.1109  -29.7277   -2.4671 C   0  0  1  0  0  0  0  0  0  0  0  0
   18.8693  -28.2418   -2.6301 C   0  0  0  0  0  0  0  0  0  0  0  0
   19.8025  -27.3983   -1.8477 C   0  0  0  0  0  0  0  0  0  0  0  0
   19.9583  -27.4376   -0.6209 O   0  0  0  0  0  0  0  0  0  0  0  0
   18.2300  -30.5275   -3.2952 C   0  0  0  0  0  0  0  0  0  0  0  0
   18.6077  -30.8319   -4.4882 O   0  0  0  0  0  0  0  0  0  0  0  0
   20.5598  -26.4876   -2.5936 O   0  0  0  0  0  0  0  0  0  0  0  0
   16.0463  -35.6259   -3.2394 N   0  0  0  0  0  0  0  0  0  0  0  0
   16.6338  -34.5831   -4.0583 C   0  0  0  0  0  0  0  0  0  0  0  0
   16.5748  -34.8218   -5.2884 O   0  0  0  0  0  0  0  0  0  0  0  0
   17.2243  -33.3888   -3.4384 C   0  0  0  0  0  0  0  0  0  0  0  0
   16.3462  -32.1833   -3.6484 C   0  0  2  0  0  0  0  0  0  0  0  0
   16.9602  -31.0300   -2.9342 N   0  0  0  0  0  0  0  0  0  0  0  0
   14.9607  -32.3624   -3.1303 C   0  0  0  0  0  0  0  0  0  0  0  0
   14.0338  -32.9638   -3.6856 O   0  0  0  0  0  0  0  0  0  0  0  0
   14.6524  -31.7950   -1.8793 O   0  0  0  0  0  0  0  0  0  0  0  0
  2  1  1  6
  2  3  1  0
  2 10  1  0
  4  9  2  0
  4  3  1  0
  5  4  1  0
  6  7  1  0
  6  5  2  0
  7  8  2  0
  8  9  1  0
 10 11  2  0
 12 10  1  0
 12 13  1  0
 13 14  1  6
 14 15  1  0
 15 19  1  0
 15 16  2  0
 17 13  1  0
 17 18  2  0
 20 21  1  0
 21 23  1  0
 21 22  2  0
 24 23  1  1
 24 25  1  0
 25 17  1  0
 26 24  1  0
 26 28  1  0
 27 26  2  0
M  END
$$$$
