FDN.pdb
     RDKit          3D

 28 28  0  0  1  0  0  0  0  0999 V2000
   26.9037   -9.7863  -18.9660 N   0  0  0  0  0  0  0  0  0  0  0  0
   26.3155  -10.1407  -17.7021 C   0  0  1  0  0  0  0  0  0  0  0  0
   27.3078   -9.7431  -16.6294 C   0  0  0  0  0  0  0  0  0  0  0  0
   28.4117  -10.7560  -16.6974 C   0  0  0  0  0  0  0  0  0  0  0  0
   29.6463  -10.3959  -17.1946 C   0  0  0  0  0  0  0  0  0  0  0  0
   30.7086  -11.2989  -17.2735 C   0  0  0  0  0  0  0  0  0  0  0  0
   30.5175  -12.5882  -16.8414 C   0  0  0  0  0  0  0  0  0  0  0  0
   29.2822  -12.9469  -16.3445 C   0  0  0  0  0  0  0  0  0  0  0  0
   28.2341  -12.0478  -16.2691 C   0  0  0  0  0  0  0  0  0  0  0  0
   25.0088   -9.4020  -17.4824 C   0  0  0  0  0  0  0  0  0  0  0  0
   24.9483   -8.2451  -17.9246 O   0  0  0  0  0  0  0  0  0  0  0  0
   23.9376   -9.9937  -16.8210 N   0  0  0  0  0  0  0  0  0  0  0  0
   22.6571   -9.4599  -16.5688 C   0  0  1  0  0  0  0  0  0  0  0  0
   21.5500  -10.4349  -16.2274 C   0  0  0  0  0  0  0  0  0  0  0  0
   20.2221   -9.7964  -16.0727 C   0  0  0  0  0  0  0  0  0  0  0  0
   19.7579   -8.9072  -16.7969 O   0  0  0  0  0  0  0  0  0  0  0  0
   22.5813   -8.2393  -15.7906 C   0  0  0  0  0  0  0  0  0  0  0  0
   23.2376   -8.1672  -14.6849 O   0  0  0  0  0  0  0  0  0  0  0  0
   19.4504  -10.2646  -15.0028 O   0  0  0  0  0  0  0  0  0  0  0  0
   21.7451   -3.3508  -14.1341 N   0  0  0  0  0  0  0  0  0  0  0  0
   22.7013   -3.5562  -15.2047 C   0  0  0  0  0  0  0  0  0  0  0  0
   23.4135   -2.5501  -15.4376 O   0  0  0  0  0  0  0  0  0  0  0  0
   22.7732   -4.8454  -15.9064 C   0  0  0  0  0  0  0  0  0  0  0  0
   21.8811   -5.8660  -15.2500 C   0  0  2  0  0  0  0  0  0  0  0  0
   21.8454   -7.0778  -16.1144 N   0  0  0  0  0  0  0  0  0  0  0  0
   20.4809   -5.3935  -15.0597 C   0  0  0  0  0  0  0  0  0  0  0  0
   19.5198   -5.6028  -15.8092 O   0  0  0  0  0  0  0  0  0  0  0  0
   20.2002   -4.6260  -13.9133 O   0  0  0  0  0  0  0  0  0  0  0  0
  2  1  1  6
  2  3  1  0
  2 10  1  0
  4  9  2  0
  4  3  1  0
  5  4  1  0
  6  7  1  0
  6  5  2  0
  7  8  2  0
  8  9  1  0
 10 11  2  0
 12 10  1  0
 12 13  1  0
 13 14  1  1
 14 15  1  0
 15 19  1  0
 15 16  2  0
 17 13  1  0
 17 18  2  0
 20 21  1  0
 21 23  1  0
 21 22  2  0
 24 23  1  6
 24 25  1  0
 25 17  1  0
 26 24  1  0
 26 28  1  0
 27 26  2  0
M  END
$$$$
