FDN.pdb
     RDKit          3D

 28 28  0  0  1  0  0  0  0  0999 V2000
   29.0935  -22.7736  -11.3110 N   0  0  0  0  0  0  0  0  0  0  0  0
   28.6542  -21.4463  -10.9727 C   0  0  1  0  0  0  0  0  0  0  0  0
   29.8993  -20.5991  -10.8141 C   0  0  0  0  0  0  0  0  0  0  0  0
   30.6927  -21.2395   -9.7142 C   0  0  0  0  0  0  0  0  0  0  0  0
   30.2796  -21.1139   -8.4048 C   0  0  0  0  0  0  0  0  0  0  0  0
   30.9788  -21.6957   -7.3452 C   0  0  0  0  0  0  0  0  0  0  0  0
   32.1153  -22.4171   -7.6162 C   0  0  0  0  0  0  0  0  0  0  0  0
   32.5273  -22.5417   -8.9263 C   0  0  0  0  0  0  0  0  0  0  0  0
   31.8304  -21.9630   -9.9712 C   0  0  0  0  0  0  0  0  0  0  0  0
   27.7817  -20.8646  -12.0690 C   0  0  0  0  0  0  0  0  0  0  0  0
   27.3887  -19.7006  -11.9015 O   0  0  0  0  0  0  0  0  0  0  0  0
   27.4434  -21.5997  -13.2004 N   0  0  0  0  0  0  0  0  0  0  0  0
   26.5876  -21.2371  -14.2607 C   0  0  1  0  0  0  0  0  0  0  0  0
   27.0232  -21.6016  -15.6644 C   0  0  0  0  0  0  0  0  0  0  0  0
   26.1561  -21.0330  -16.7226 C   0  0  0  0  0  0  0  0  0  0  0  0
   25.4460  -21.6806  -17.5017 O   0  0  0  0  0  0  0  0  0  0  0  0
   25.1622  -21.4080  -14.0598 C   0  0  0  0  0  0  0  0  0  0  0  0
   24.7039  -22.5924  -13.8456 O   0  0  0  0  0  0  0  0  0  0  0  0
   26.1646  -19.6368  -16.8217 O   0  0  0  0  0  0  0  0  0  0  0  0
   20.3212  -20.3211  -11.7426 N   0  0  0  0  0  0  0  0  0  0  0  0
   20.6785  -19.6584  -12.9820 C   0  0  0  0  0  0  0  0  0  0  0  0
   19.6869  -19.3367  -13.6797 O   0  0  0  0  0  0  0  0  0  0  0  0
   22.0877  -19.4202  -13.3236 C   0  0  0  0  0  0  0  0  0  0  0  0
   22.7481  -20.6875  -13.7990 C   0  0  2  0  0  0  0  0  0  0  0  0
   24.1816  -20.3914  -14.0721 N   0  0  0  0  0  0  0  0  0  0  0  0
   22.1450  -21.2379  -15.0453 C   0  0  0  0  0  0  0  0  0  0  0  0
   22.2579  -20.7796  -16.1884 O   0  0  0  0  0  0  0  0  0  0  0  0
   21.3599  -22.4011  -14.9331 O   0  0  0  0  0  0  0  0  0  0  0  0
  2  1  1  6
  2  3  1  0
  2 10  1  0
  4  9  2  0
  4  3  1  0
  5  4  1  0
  6  7  1  0
  6  5  2  0
  7  8  2  0
  8  9  1  0
 10 11  2  0
 12 10  1  0
 12 13  1  0
 13 14  1  6
 14 15  1  0
 15 19  1  0
 15 16  2  0
 17 13  1  0
 17 18  2  0
 20 21  1  0
 21 23  1  0
 21 22  2  0
 24 23  1  6
 24 25  1  0
 25 17  1  0
 26 24  1  0
 26 28  1  0
 27 26  2  0
M  END
$$$$
