FDN.pdb
     RDKit          3D

 28 28  0  0  1  0  0  0  0  0999 V2000
   26.1686  -15.3148  -19.1598 N   0  0  0  0  0  0  0  0  0  0  0  0
   25.4937  -15.5158  -17.9056 C   0  0  1  0  0  0  0  0  0  0  0  0
   25.1912  -14.1420  -17.3449 C   0  0  0  0  0  0  0  0  0  0  0  0
   26.4805  -13.6449  -16.7620 C   0  0  0  0  0  0  0  0  0  0  0  0
   27.2095  -12.6811  -17.4259 C   0  0  0  0  0  0  0  0  0  0  0  0
   28.4123  -12.1805  -16.9231 C   0  0  0  0  0  0  0  0  0  0  0  0
   28.8846  -12.6637  -15.7277 C   0  0  0  0  0  0  0  0  0  0  0  0
   28.1545  -13.6277  -15.0649 C   0  0  0  0  0  0  0  0  0  0  0  0
   26.9639  -14.1194  -15.5683 C   0  0  0  0  0  0  0  0  0  0  0  0
   24.1978  -16.2803  -18.0999 C   0  0  0  0  0  0  0  0  0  0  0  0
   23.6547  -16.1718  -19.2093 O   0  0  0  0  0  0  0  0  0  0  0  0
   23.6514  -17.0609  -17.0865 N   0  0  0  0  0  0  0  0  0  0  0  0
   22.4890  -17.8584  -17.1210 C   0  0  1  0  0  0  0  0  0  0  0  0
   22.5098  -19.1556  -16.3404 C   0  0  0  0  0  0  0  0  0  0  0  0
   21.3039  -19.9918  -16.5443 C   0  0  0  0  0  0  0  0  0  0  0  0
   20.7879  -20.2634  -17.6354 O   0  0  0  0  0  0  0  0  0  0  0  0
   21.2097  -17.1818  -17.0394 C   0  0  0  0  0  0  0  0  0  0  0  0
   21.0307  -16.3034  -16.1147 O   0  0  0  0  0  0  0  0  0  0  0  0
   20.7227  -20.5039  -15.3785 O   0  0  0  0  0  0  0  0  0  0  0  0
   16.3948  -15.4487  -17.1896 N   0  0  0  0  0  0  0  0  0  0  0  0
   16.9912  -16.2448  -16.1343 C   0  0  0  0  0  0  0  0  0  0  0  0
   16.3059  -16.2751  -15.0841 O   0  0  0  0  0  0  0  0  0  0  0  0
   18.2779  -16.9226  -16.3450 C   0  0  0  0  0  0  0  0  0  0  0  0
   18.8351  -16.6083  -17.7085 C   0  0  2  0  0  0  0  0  0  0  0  0
   20.0960  -17.3801  -17.8855 N   0  0  0  0  0  0  0  0  0  0  0  0
   19.1470  -15.1642  -17.9021 C   0  0  0  0  0  0  0  0  0  0  0  0
   18.8960  -14.4792  -18.9007 O   0  0  0  0  0  0  0  0  0  0  0  0
   19.7959  -14.4891  -16.8509 O   0  0  0  0  0  0  0  0  0  0  0  0
  2  1  1  6
  2  3  1  0
  2 10  1  0
  4  9  2  0
  4  3  1  0
  5  4  1  0
  6  7  1  0
  6  5  2  0
  7  8  2  0
  8  9  1  0
 10 11  2  0
 12 10  1  0
 12 13  1  0
 13 14  1  1
 14 15  1  0
 15 19  1  0
 15 16  2  0
 17 13  1  0
 17 18  2  0
 20 21  1  0
 21 23  1  0
 21 22  2  0
 24 23  1  1
 24 25  1  0
 25 17  1  0
 26 24  1  0
 26 28  1  0
 27 26  2  0
M  END
$$$$
