FDN.pdb
     RDKit          3D

 28 28  0  0  1  0  0  0  0  0999 V2000
   25.2053  -11.1561  -17.7681 N   0  0  0  0  0  0  0  0  0  0  0  0
   24.7381  -11.0410  -16.4126 C   0  0  1  0  0  0  0  0  0  0  0  0
   25.8891  -10.4901  -15.5971 C   0  0  0  0  0  0  0  0  0  0  0  0
   26.9883  -11.5049  -15.7031 C   0  0  0  0  0  0  0  0  0  0  0  0
   26.8295  -12.7528  -15.1386 C   0  0  0  0  0  0  0  0  0  0  0  0
   27.8194  -13.7349  -15.2144 C   0  0  0  0  0  0  0  0  0  0  0  0
   28.9896  -13.4486  -15.8732 C   0  0  0  0  0  0  0  0  0  0  0  0
   29.1470  -12.2001  -16.4373 C   0  0  0  0  0  0  0  0  0  0  0  0
   28.1629  -11.2318  -16.3586 C   0  0  0  0  0  0  0  0  0  0  0  0
   23.5549  -10.0959  -16.3219 C   0  0  0  0  0  0  0  0  0  0  0  0
   23.5437   -9.1481  -17.1214 O   0  0  0  0  0  0  0  0  0  0  0  0
   22.5384  -10.2855  -15.3916 N   0  0  0  0  0  0  0  0  0  0  0  0
   21.3648   -9.5265  -15.2049 C   0  0  1  0  0  0  0  0  0  0  0  0
   20.1346  -10.2554  -14.7070 C   0  0  0  0  0  0  0  0  0  0  0  0
   19.7960  -11.4605  -15.4994 C   0  0  0  0  0  0  0  0  0  0  0  0
   19.5705  -11.4870  -16.7155 O   0  0  0  0  0  0  0  0  0  0  0  0
   21.5054   -8.2090  -14.6169 C   0  0  0  0  0  0  0  0  0  0  0  0
   22.4313   -8.0157  -13.7428 O   0  0  0  0  0  0  0  0  0  0  0  0
   19.7347  -12.6579  -14.7770 O   0  0  0  0  0  0  0  0  0  0  0  0
   22.0217   -3.1367  -14.0509 N   0  0  0  0  0  0  0  0  0  0  0  0
   22.8921   -4.0297  -14.7911 C   0  0  0  0  0  0  0  0  0  0  0  0
   23.9870   -3.5077  -15.1111 O   0  0  0  0  0  0  0  0  0  0  0  0
   22.4667   -5.4015  -15.1018 C   0  0  0  0  0  0  0  0  0  0  0  0
   21.1340   -5.7078  -14.4705 C   0  0  2  0  0  0  0  0  0  0  0  0
   20.7176   -7.0713  -14.9003 N   0  0  0  0  0  0  0  0  0  0  0  0
   20.0597   -4.7524  -14.8619 C   0  0  0  0  0  0  0  0  0  0  0  0
   19.9364   -3.5810  -14.4853 O   0  0  0  0  0  0  0  0  0  0  0  0
   19.0706   -5.2104  -15.7529 O   0  0  0  0  0  0  0  0  0  0  0  0
  2  1  1  6
  2  3  1  0
  2 10  1  0
  4  9  2  0
  4  3  1  0
  5  4  1  0
  6  7  1  0
  6  5  2  0
  7  8  2  0
  8  9  1  0
 10 11  2  0
 12 10  1  0
 12 13  1  0
 13 14  1  1
 14 15  1  0
 15 19  1  0
 15 16  2  0
 17 13  1  0
 17 18  2  0
 20 21  1  0
 21 23  1  0
 21 22  2  0
 24 23  1  6
 24 25  1  0
 25 17  1  0
 26 24  1  0
 26 28  1  0
 27 26  2  0
M  END
$$$$
