FDN.pdb
     RDKit          3D

 28 28  0  0  1  0  0  0  0  0999 V2000
   28.0033  -21.1453   -8.3616 N   0  0  0  0  0  0  0  0  0  0  0  0
   26.7397  -20.4607   -8.3005 C   0  0  1  0  0  0  0  0  0  0  0  0
   26.9943  -19.1290   -7.6260 C   0  0  0  0  0  0  0  0  0  0  0  0
   27.7290  -19.4465   -6.3576 C   0  0  0  0  0  0  0  0  0  0  0  0
   28.9482  -18.8554   -6.1023 C   0  0  0  0  0  0  0  0  0  0  0  0
   29.6693  -19.1123   -4.9343 C   0  0  0  0  0  0  0  0  0  0  0  0
   29.1467  -19.9823   -4.0092 C   0  0  0  0  0  0  0  0  0  0  0  0
   27.9273  -20.5727   -4.2661 C   0  0  0  0  0  0  0  0  0  0  0  0
   27.2182  -20.3141   -5.4248 C   0  0  0  0  0  0  0  0  0  0  0  0
   26.1790  -20.2258   -9.6904 C   0  0  0  0  0  0  0  0  0  0  0  0
   25.5820  -19.1540   -9.8702 O   0  0  0  0  0  0  0  0  0  0  0  0
   26.3290  -21.1637  -10.7066 N   0  0  0  0  0  0  0  0  0  0  0  0
   25.9276  -21.0705  -12.0551 C   0  0  1  0  0  0  0  0  0  0  0  0
   26.9005  -21.5584  -13.1077 C   0  0  0  0  0  0  0  0  0  0  0  0
   26.4529  -21.3008  -14.4963 C   0  0  0  0  0  0  0  0  0  0  0  0
   25.9624  -20.2447  -14.9142 O   0  0  0  0  0  0  0  0  0  0  0  0
   24.5536  -21.4082  -12.3700 C   0  0  0  0  0  0  0  0  0  0  0  0
   23.9743  -22.3408  -11.6966 O   0  0  0  0  0  0  0  0  0  0  0  0
   26.6141  -22.3676  -15.3881 O   0  0  0  0  0  0  0  0  0  0  0  0
   19.6273  -21.8607  -12.5092 N   0  0  0  0  0  0  0  0  0  0  0  0
   20.2747  -20.6779  -11.9755 C   0  0  0  0  0  0  0  0  0  0  0  0
   19.4719  -19.8468  -11.4875 O   0  0  0  0  0  0  0  0  0  0  0  0
   21.7359  -20.5338  -12.0352 C   0  0  0  0  0  0  0  0  0  0  0  0
   22.2668  -20.9810  -13.3718 C   0  0  2  0  0  0  0  0  0  0  0  0
   23.7463  -20.8132  -13.3649 N   0  0  0  0  0  0  0  0  0  0  0  0
   21.7194  -20.2012  -14.5174 C   0  0  0  0  0  0  0  0  0  0  0  0
   22.1172  -19.1031  -14.9240 O   0  0  0  0  0  0  0  0  0  0  0  0
   20.6349  -20.7534  -15.2251 O   0  0  0  0  0  0  0  0  0  0  0  0
  2  1  1  6
  2  3  1  0
  2 10  1  0
  4  9  2  0
  4  3  1  0
  5  4  1  0
  6  7  1  0
  6  5  2  0
  7  8  2  0
  8  9  1  0
 10 11  2  0
 12 10  1  0
 12 13  1  0
 13 14  1  6
 14 15  1  0
 15 19  1  0
 15 16  2  0
 17 13  1  0
 17 18  2  0
 20 21  1  0
 21 23  1  0
 21 22  2  0
 24 23  1  1
 24 25  1  0
 25 17  1  0
 26 24  1  0
 26 28  1  0
 27 26  2  0
M  END
$$$$
