FDN.pdb
     RDKit          3D

 28 28  0  0  1  0  0  0  0  0999 V2000
   22.9753  -20.1515  -17.3675 N   0  0  0  0  0  0  0  0  0  0  0  0
   22.9435  -19.5415  -16.0653 C   0  0  1  0  0  0  0  0  0  0  0  0
   24.1659  -18.6531  -15.9668 C   0  0  0  0  0  0  0  0  0  0  0  0
   24.2130  -17.8783  -17.2501 C   0  0  0  0  0  0  0  0  0  0  0  0
   23.7552  -16.5782  -17.2861 C   0  0  0  0  0  0  0  0  0  0  0  0
   23.7828  -15.8120  -18.4533 C   0  0  0  0  0  0  0  0  0  0  0  0
   24.2827  -16.3716  -19.6033 C   0  0  0  0  0  0  0  0  0  0  0  0
   24.7402  -17.6720  -19.5657 C   0  0  0  0  0  0  0  0  0  0  0  0
   24.7101  -18.4256  -18.4065 C   0  0  0  0  0  0  0  0  0  0  0  0
   21.6919  -18.7030  -15.8863 C   0  0  0  0  0  0  0  0  0  0  0  0
   21.0772  -18.4023  -16.9203 O   0  0  0  0  0  0  0  0  0  0  0  0
   21.2594  -18.2958  -14.6285 N   0  0  0  0  0  0  0  0  0  0  0  0
   20.1265  -17.5252  -14.2955 C   0  0  1  0  0  0  0  0  0  0  0  0
   19.5749  -17.6662  -12.8924 C   0  0  0  0  0  0  0  0  0  0  0  0
   19.4854  -19.0698  -12.4270 C   0  0  0  0  0  0  0  0  0  0  0  0
   20.0288  -19.5331  -11.4166 O   0  0  0  0  0  0  0  0  0  0  0  0
   20.0818  -16.1578  -14.7747 C   0  0  0  0  0  0  0  0  0  0  0  0
   21.1550  -15.4476  -14.7240 O   0  0  0  0  0  0  0  0  0  0  0  0
   18.7094  -19.9197  -13.2238 O   0  0  0  0  0  0  0  0  0  0  0  0
   19.4666  -11.8980  -17.4947 N   0  0  0  0  0  0  0  0  0  0  0  0
   20.3027  -13.0424  -17.8016 C   0  0  0  0  0  0  0  0  0  0  0  0
   21.1204  -12.8288  -18.7286 O   0  0  0  0  0  0  0  0  0  0  0  0
   20.1511  -14.3006  -17.0576 C   0  0  0  0  0  0  0  0  0  0  0  0
   19.0887  -14.1744  -15.9975 C   0  0  2  0  0  0  0  0  0  0  0  0
   18.9587  -15.4887  -15.3099 N   0  0  0  0  0  0  0  0  0  0  0  0
   17.7516  -13.8034  -16.5404 C   0  0  0  0  0  0  0  0  0  0  0  0
   17.4907  -12.8445  -17.2765 O   0  0  0  0  0  0  0  0  0  0  0  0
   16.6561  -14.6157  -16.1910 O   0  0  0  0  0  0  0  0  0  0  0  0
  2  1  1  6
  2  3  1  0
  2 10  1  0
  4  9  2  0
  4  3  1  0
  5  4  1  0
  6  7  1  0
  6  5  2  0
  7  8  2  0
  8  9  1  0
 10 11  2  0
 12 10  1  0
 12 13  1  0
 13 14  1  1
 14 15  1  0
 15 19  1  0
 15 16  2  0
 17 13  1  0
 17 18  2  0
 20 21  1  0
 21 23  1  0
 21 22  2  0
 24 23  1  6
 24 25  1  0
 25 17  1  0
 26 24  1  0
 26 28  1  0
 27 26  2  0
M  END
$$$$
