FDN.pdb
     RDKit          3D

 28 28  0  0  1  0  0  0  0  0999 V2000
   27.9649  -21.2556   -8.5972 N   0  0  0  0  0  0  0  0  0  0  0  0
   26.6246  -20.7572   -8.4414 C   0  0  1  0  0  0  0  0  0  0  0  0
   26.7281  -19.4490   -7.6856 C   0  0  0  0  0  0  0  0  0  0  0  0
   27.5534  -19.7437   -6.4685 C   0  0  0  0  0  0  0  0  0  0  0  0
   28.8146  -19.2005   -6.3444 C   0  0  0  0  0  0  0  0  0  0  0  0
   29.6205  -19.4386   -5.2290 C   0  0  0  0  0  0  0  0  0  0  0  0
   29.1410  -20.2400   -4.2223 C   0  0  0  0  0  0  0  0  0  0  0  0
   27.8795  -20.7827   -4.3480 C   0  0  0  0  0  0  0  0  0  0  0  0
   27.0863  -20.5430   -5.4553 C   0  0  0  0  0  0  0  0  0  0  0  0
   25.9732  -20.5133   -9.7896 C   0  0  0  0  0  0  0  0  0  0  0  0
   25.0017  -19.7429   -9.8013 O   0  0  0  0  0  0  0  0  0  0  0  0
   26.4434  -21.1220  -10.9486 N   0  0  0  0  0  0  0  0  0  0  0  0
   26.0062  -20.9396  -12.2767 C   0  0  1  0  0  0  0  0  0  0  0  0
   27.0216  -21.1491  -13.3803 C   0  0  0  0  0  0  0  0  0  0  0  0
   28.2357  -20.3122  -13.2379 C   0  0  0  0  0  0  0  0  0  0  0  0
   29.3557  -20.7138  -12.8988 O   0  0  0  0  0  0  0  0  0  0  0  0
   24.6941  -21.4473  -12.6259 C   0  0  0  0  0  0  0  0  0  0  0  0
   24.3277  -22.5909  -12.1603 O   0  0  0  0  0  0  0  0  0  0  0  0
   28.0652  -18.9519  -13.5201 O   0  0  0  0  0  0  0  0  0  0  0  0
   19.8614  -22.4568  -11.5874 N   0  0  0  0  0  0  0  0  0  0  0  0
   20.4142  -21.1268  -11.7565 C   0  0  0  0  0  0  0  0  0  0  0  0
   19.5457  -20.2217  -11.7562 O   0  0  0  0  0  0  0  0  0  0  0  0
   21.8628  -20.9326  -11.9086 C   0  0  0  0  0  0  0  0  0  0  0  0
   22.2850  -21.1304  -13.3407 C   0  0  2  0  0  0  0  0  0  0  0  0
   23.7358  -20.8122  -13.4466 N   0  0  0  0  0  0  0  0  0  0  0  0
   21.5503  -20.2589  -14.3004 C   0  0  0  0  0  0  0  0  0  0  0  0
   21.8921  -19.1378  -14.6947 O   0  0  0  0  0  0  0  0  0  0  0  0
   20.3369  -20.7427  -14.8254 O   0  0  0  0  0  0  0  0  0  0  0  0
  2  1  1  6
  2  3  1  0
  2 10  1  0
  4  9  2  0
  4  3  1  0
  5  4  1  0
  6  7  1  0
  6  5  2  0
  7  8  2  0
  8  9  1  0
 10 11  2  0
 12 10  1  0
 12 13  1  0
 13 14  1  6
 14 15  1  0
 15 19  1  0
 15 16  2  0
 17 13  1  0
 17 18  2  0
 20 21  1  0
 21 23  1  0
 21 22  2  0
 24 23  1  1
 24 25  1  0
 25 17  1  0
 26 24  1  0
 26 28  1  0
 27 26  2  0
M  END
$$$$
