WFL.pdb
     RDKit          3D

 34 36  0  0  1  0  0  0  0  0999 V2000
    8.9058  -18.0837   20.9422 N   0  0  0  0  0  0  0  0  0  0  0  0
   10.1667  -17.3950   21.1940 C   0  0  1  0  0  0  0  0  0  0  0  0
   10.6355  -16.7001   19.9364 C   0  0  0  0  0  0  0  0  0  0  0  0
    9.5471  -15.9144   19.3641 C   0  0  0  0  0  0  0  0  0  0  0  0
    8.7504  -16.3904   18.3181 C   0  0  0  0  0  0  0  0  0  0  0  0
    7.8266  -15.4696   18.0547 N   0  0  0  0  0  0  0  0  0  0  0  0
    7.9868  -14.4042   18.8891 C   0  0  0  0  0  0  0  0  0  0  0  0
    7.2796  -13.2135   18.9866 C   0  0  0  0  0  0  0  0  0  0  0  0
    7.6616  -12.2797   19.9247 C   0  0  0  0  0  0  0  0  0  0  0  0
    8.7357  -12.5582   20.7367 C   0  0  0  0  0  0  0  0  0  0  0  0
    9.4331  -13.7375   20.6378 C   0  0  0  0  0  0  0  0  0  0  0  0
    9.0635  -14.6964   19.6981 C   0  0  0  0  0  0  0  0  0  0  0  0
   10.0338  -16.4690   22.3145 C   0  0  0  0  0  0  0  0  0  0  0  0
   10.9430  -15.6412   22.6445 O   0  0  0  0  0  0  0  0  0  0  0  0
    8.7996  -16.5201   23.0544 N   0  0  0  0  0  0  0  0  0  0  0  0
    8.5812  -15.5631   24.1038 C   0  0  1  0  0  0  0  0  0  0  0  0
    7.1084  -15.1548   24.0707 C   0  0  0  0  0  0  0  0  0  0  0  0
    6.8116  -14.1264   25.0953 C   0  0  0  0  0  0  0  0  0  0  0  0
    6.0809  -14.4458   26.2207 C   0  0  0  0  0  0  0  0  0  0  0  0
    5.7875  -13.5090   27.1951 C   0  0  0  0  0  0  0  0  0  0  0  0
    6.2200  -12.2049   27.0762 C   0  0  0  0  0  0  0  0  0  0  0  0
    6.9508  -11.8716   25.9574 C   0  0  0  0  0  0  0  0  0  0  0  0
    7.2402  -12.8271   24.9807 C   0  0  0  0  0  0  0  0  0  0  0  0
    8.9700  -16.0655   25.4227 C   0  0  0  0  0  0  0  0  0  0  0  0
    8.3591  -15.7555   26.4879 O   0  0  0  0  0  0  0  0  0  0  0  0
   11.9393  -14.2591   27.7051 C   0  0  0  0  0  0  0  0  0  0  0  0
   10.4465  -14.5174   27.4654 C   0  0  2  0  0  0  0  0  0  0  0  0
    9.6884  -13.6265   28.4179 C   0  0  0  0  0  0  0  0  0  0  0  0
   10.2070  -15.9657   27.7337 C   0  0  0  0  0  0  0  0  0  0  0  0
   10.8881  -16.9103   26.7885 C   0  0  2  0  0  0  0  0  0  0  0  0
   10.0638  -16.9350   25.5654 N   0  0  0  0  0  0  0  0  0  0  0  0
   11.1029  -18.2627   27.3077 C   0  0  0  0  0  0  0  0  0  0  0  0
   10.4511  -19.3639   26.7704 O   0  0  0  0  0  0  0  0  0  0  0  0
   11.8878  -18.5413   28.2757 O   0  0  0  0  0  0  0  0  0  0  0  0
  2  3  1  0
  2  1  1  6
  3  4  1  0
  4  5  2  0
  5  6  1  0
  7  6  1  0
  8  7  2  0
  9  8  1  0
 10 11  1  0
 10  9  2  0
 11 12  2  0
 12  4  1  0
 12  7  1  0
 13 14  2  0
 13  2  1  0
 15 13  1  0
 16 15  1  0
 16 17  1  1
 17 18  1  0
 18 23  1  0
 18 19  2  0
 19 20  1  0
 20 21  2  0
 22 21  1  0
 23 22  2  0
 24 31  1  0
 24 16  1  0
 25 24  2  0
 27 26  1  1
 27 28  1  0
 27 29  1  0
 30 29  1  1
 30 32  1  0
 30 31  1  0
 32 33  1  0
 34 32  2  0
M  END
$$$$
