WFL.pdb
     RDKit          3D

 34 36  0  0  1  0  0  0  0  0999 V2000
    6.5829  -19.0892   20.7872 N   0  0  0  0  0  0  0  0  0  0  0  0
    6.6755  -19.0809   22.2429 C   0  0  1  0  0  0  0  0  0  0  0  0
    7.3710  -20.3339   22.7231 C   0  0  0  0  0  0  0  0  0  0  0  0
    6.5437  -21.5032   22.4436 C   0  0  0  0  0  0  0  0  0  0  0  0
    6.8409  -22.4011   21.4137 C   0  0  0  0  0  0  0  0  0  0  0  0
    5.9349  -23.3752   21.4449 N   0  0  0  0  0  0  0  0  0  0  0  0
    5.0515  -23.1505   22.4579 C   0  0  0  0  0  0  0  0  0  0  0  0
    3.9425  -23.8757   22.8724 C   0  0  0  0  0  0  0  0  0  0  0  0
    3.1971  -23.4150   23.9355 C   0  0  0  0  0  0  0  0  0  0  0  0
    3.5770  -22.2470   24.5536 C   0  0  0  0  0  0  0  0  0  0  0  0
    4.6750  -21.5321   24.1410 C   0  0  0  0  0  0  0  0  0  0  0  0
    5.4440  -21.9798   23.0700 C   0  0  0  0  0  0  0  0  0  0  0  0
    7.3436  -17.8702   22.7104 C   0  0  0  0  0  0  0  0  0  0  0  0
    8.2687  -17.2895   22.0566 O   0  0  0  0  0  0  0  0  0  0  0  0
    6.9043  -17.3341   23.9726 N   0  0  0  0  0  0  0  0  0  0  0  0
    7.5337  -16.1446   24.4764 C   0  0  1  0  0  0  0  0  0  0  0  0
    6.5816  -15.4969   25.4817 C   0  0  0  0  0  0  0  0  0  0  0  0
    7.1783  -14.2807   26.0819 C   0  0  0  0  0  0  0  0  0  0  0  0
    6.9294  -13.0359   25.5424 C   0  0  0  0  0  0  0  0  0  0  0  0
    7.4710  -11.8821   26.0795 C   0  0  0  0  0  0  0  0  0  0  0  0
    8.2899  -11.9339   27.1879 C   0  0  0  0  0  0  0  0  0  0  0  0
    8.5473  -13.1704   27.7373 C   0  0  0  0  0  0  0  0  0  0  0  0
    7.9942  -14.3280   27.1852 C   0  0  0  0  0  0  0  0  0  0  0  0
    8.8471  -16.4026   25.0694 C   0  0  0  0  0  0  0  0  0  0  0  0
    9.0557  -17.3247   25.9119 O   0  0  0  0  0  0  0  0  0  0  0  0
   14.1420  -14.9551   22.4650 C   0  0  0  0  0  0  0  0  0  0  0  0
   13.4752  -15.9424   23.4309 C   0  0  2  0  0  0  0  0  0  0  0  0
   13.4802  -17.2904   22.7537 C   0  0  0  0  0  0  0  0  0  0  0  0
   12.0924  -15.4400   23.6807 C   0  0  0  0  0  0  0  0  0  0  0  0
   11.3150  -16.1997   24.7140 C   0  0  2  0  0  0  0  0  0  0  0  0
    9.9590  -15.6192   24.7189 N   0  0  0  0  0  0  0  0  0  0  0  0
   11.8963  -16.1944   26.0581 C   0  0  0  0  0  0  0  0  0  0  0  0
   11.5014  -15.2768   27.0216 O   0  0  0  0  0  0  0  0  0  0  0  0
   12.7950  -17.0116   26.4524 O   0  0  0  0  0  0  0  0  0  0  0  0
  2  3  1  0
  2  1  1  6
  3  4  1  0
  4  5  2  0
  5  6  1  0
  7  6  1  0
  8  7  2  0
  9  8  1  0
 10 11  1  0
 10  9  2  0
 11 12  2  0
 12  4  1  0
 12  7  1  0
 13 14  2  0
 13  2  1  0
 15 13  1  0
 16 15  1  0
 16 17  1  1
 17 18  1  0
 18 23  1  0
 18 19  2  0
 19 20  1  0
 20 21  2  0
 22 21  1  0
 23 22  2  0
 24 31  1  0
 24 16  1  0
 25 24  2  0
 27 26  1  6
 27 28  1  0
 27 29  1  0
 30 29  1  6
 30 32  1  0
 30 31  1  0
 32 33  1  0
 34 32  2  0
M  END
$$$$
