WFL.pdb
     RDKit          3D

 34 36  0  0  1  0  0  0  0  0999 V2000
    9.0493  -18.9574   20.8656 N   0  0  0  0  0  0  0  0  0  0  0  0
    9.3012  -17.5993   20.3967 C   0  0  1  0  0  0  0  0  0  0  0  0
    8.2489  -17.1977   19.3889 C   0  0  0  0  0  0  0  0  0  0  0  0
    8.5428  -15.8690   18.8618 C   0  0  0  0  0  0  0  0  0  0  0  0
    9.2187  -15.6762   17.6530 C   0  0  0  0  0  0  0  0  0  0  0  0
    9.2900  -14.3668   17.4275 N   0  0  0  0  0  0  0  0  0  0  0  0
    8.6861  -13.6904   18.4447 C   0  0  0  0  0  0  0  0  0  0  0  0
    8.5189  -12.3283   18.6556 C   0  0  0  0  0  0  0  0  0  0  0  0
    7.8709  -11.8988   19.7929 C   0  0  0  0  0  0  0  0  0  0  0  0
    7.4094  -12.8367   20.6860 C   0  0  0  0  0  0  0  0  0  0  0  0
    7.5762  -14.1837   20.4742 C   0  0  0  0  0  0  0  0  0  0  0  0
    8.2265  -14.6405   19.3308 C   0  0  0  0  0  0  0  0  0  0  0  0
    9.3670  -16.6695   21.5200 C   0  0  0  0  0  0  0  0  0  0  0  0
   10.0703  -15.6085   21.5047 O   0  0  0  0  0  0  0  0  0  0  0  0
    8.5812  -16.9992   22.6807 N   0  0  0  0  0  0  0  0  0  0  0  0
    8.6235  -16.1215   23.8176 C   0  0  1  0  0  0  0  0  0  0  0  0
    7.2179  -16.0553   24.4149 C   0  0  0  0  0  0  0  0  0  0  0  0
    7.0344  -14.8285   25.2253 C   0  0  0  0  0  0  0  0  0  0  0  0
    7.4785  -13.6074   24.7625 C   0  0  0  0  0  0  0  0  0  0  0  0
    7.3221  -12.4445   25.4948 C   0  0  0  0  0  0  0  0  0  0  0  0
    6.7087  -12.4628   26.7299 C   0  0  0  0  0  0  0  0  0  0  0  0
    6.2602  -13.6754   27.2047 C   0  0  0  0  0  0  0  0  0  0  0  0
    6.4245  -14.8425   26.4553 C   0  0  0  0  0  0  0  0  0  0  0  0
    9.6129  -16.5302   24.8162 C   0  0  0  0  0  0  0  0  0  0  0  0
   10.6362  -17.2205   24.5329 O   0  0  0  0  0  0  0  0  0  0  0  0
   11.4303  -13.8007   27.7134 C   0  0  0  0  0  0  0  0  0  0  0  0
   10.0580  -14.2955   28.1871 C   0  0  2  0  0  0  0  0  0  0  0  0
    9.7417  -13.5567   29.4638 C   0  0  0  0  0  0  0  0  0  0  0  0
   10.1762  -15.7678   28.4001 C   0  0  0  0  0  0  0  0  0  0  0  0
   10.4690  -16.5689   27.1664 C   0  0  2  0  0  0  0  0  0  0  0  0
    9.4655  -16.1637   26.1641 N   0  0  0  0  0  0  0  0  0  0  0  0
   10.4713  -18.0213   27.3538 C   0  0  0  0  0  0  0  0  0  0  0  0
    9.4182  -18.8156   26.9223 O   0  0  0  0  0  0  0  0  0  0  0  0
   11.4173  -18.6687   27.9167 O   0  0  0  0  0  0  0  0  0  0  0  0
  2  3  1  0
  2  1  1  1
  3  4  1  0
  4  5  2  0
  5  6  1  0
  7  6  1  0
  8  7  2  0
  9  8  1  0
 10 11  1  0
 10  9  2  0
 11 12  2  0
 12  4  1  0
 12  7  1  0
 13 14  2  0
 13  2  1  0
 15 13  1  0
 16 15  1  0
 16 17  1  1
 17 18  1  0
 18 23  1  0
 18 19  2  0
 19 20  1  0
 20 21  2  0
 22 21  1  0
 23 22  2  0
 24 31  1  0
 24 16  1  0
 25 24  2  0
 27 26  1  1
 27 28  1  0
 27 29  1  0
 30 29  1  1
 30 32  1  0
 30 31  1  0
 32 33  1  0
 34 32  2  0
M  END
$$$$
