WFL.pdb
     RDKit          3D

 34 36  0  0  1  0  0  0  0  0999 V2000
    7.8049  -18.2657   21.9917 N   0  0  0  0  0  0  0  0  0  0  0  0
    7.7520  -16.8080   22.0045 C   0  0  1  0  0  0  0  0  0  0  0  0
    6.5218  -16.3297   21.2683 C   0  0  0  0  0  0  0  0  0  0  0  0
    6.9057  -15.4323   20.1835 C   0  0  0  0  0  0  0  0  0  0  0  0
    6.6864  -15.7472   18.8388 C   0  0  0  0  0  0  0  0  0  0  0  0
    7.0995  -14.7176   18.1040 N   0  0  0  0  0  0  0  0  0  0  0  0
    7.5836  -13.7364   18.9164 C   0  0  0  0  0  0  0  0  0  0  0  0
    8.1266  -12.4946   18.6154 C   0  0  0  0  0  0  0  0  0  0  0  0
    8.5603  -11.6840   19.6414 C   0  0  0  0  0  0  0  0  0  0  0  0
    8.4412  -12.1332   20.9355 C   0  0  0  0  0  0  0  0  0  0  0  0
    7.9031  -13.3624   21.2299 C   0  0  0  0  0  0  0  0  0  0  0  0
    7.4567  -14.1975   20.2089 C   0  0  0  0  0  0  0  0  0  0  0  0
    7.8030  -16.3019   23.3726 C   0  0  0  0  0  0  0  0  0  0  0  0
    7.3381  -15.1664   23.7122 O   0  0  0  0  0  0  0  0  0  0  0  0
    8.4106  -17.1583   24.3579 N   0  0  0  0  0  0  0  0  0  0  0  0
    9.5011  -16.6471   25.1418 C   0  0  1  0  0  0  0  0  0  0  0  0
    9.1249  -16.7813   26.6173 C   0  0  0  0  0  0  0  0  0  0  0  0
    9.3888  -15.5247   27.3567 C   0  0  0  0  0  0  0  0  0  0  0  0
    8.6506  -14.3886   27.0981 C   0  0  0  0  0  0  0  0  0  0  0  0
    8.8723  -13.2008   27.7711 C   0  0  0  0  0  0  0  0  0  0  0  0
    9.8515  -13.1071   28.7377 C   0  0  0  0  0  0  0  0  0  0  0  0
   10.5966  -14.2337   29.0065 C   0  0  0  0  0  0  0  0  0  0  0  0
   10.3627  -15.4271   28.3196 C   0  0  0  0  0  0  0  0  0  0  0  0
   10.7730  -17.3102   24.8489 C   0  0  0  0  0  0  0  0  0  0  0  0
   10.8867  -18.5661   24.7324 O   0  0  0  0  0  0  0  0  0  0  0  0
   16.2191  -15.4814   23.0236 C   0  0  0  0  0  0  0  0  0  0  0  0
   15.2195  -16.6275   22.8238 C   0  0  2  0  0  0  0  0  0  0  0  0
   15.1288  -16.8768   21.3387 C   0  0  0  0  0  0  0  0  0  0  0  0
   13.9197  -16.1770   23.4021 C   0  0  0  0  0  0  0  0  0  0  0  0
   13.1891  -17.2089   24.2088 C   0  0  2  0  0  0  0  0  0  0  0  0
   11.9497  -16.5623   24.6796 N   0  0  0  0  0  0  0  0  0  0  0  0
   13.9466  -17.7754   25.3268 C   0  0  0  0  0  0  0  0  0  0  0  0
   13.9087  -17.2127   26.5949 O   0  0  0  0  0  0  0  0  0  0  0  0
   14.6901  -18.8097   25.2362 O   0  0  0  0  0  0  0  0  0  0  0  0
  2  3  1  0
  2  1  1  1
  3  4  1  0
  4  5  2  0
  5  6  1  0
  7  6  1  0
  8  7  2  0
  9  8  1  0
 10 11  1  0
 10  9  2  0
 11 12  2  0
 12  4  1  0
 12  7  1  0
 13 14  2  0
 13  2  1  0
 15 13  1  0
 16 15  1  0
 16 17  1  1
 17 18  1  0
 18 23  1  0
 18 19  2  0
 19 20  1  0
 20 21  2  0
 22 21  1  0
 23 22  2  0
 24 31  1  0
 24 16  1  0
 25 24  2  0
 27 26  1  6
 27 28  1  0
 27 29  1  0
 30 29  1  1
 30 32  1  0
 30 31  1  0
 32 33  1  0
 34 32  2  0
M  END
$$$$
