WFL.pdb
     RDKit          3D

 34 36  0  0  1  0  0  0  0  0999 V2000
    7.6435  -20.7238   22.6666 N   0  0  0  0  0  0  0  0  0  0  0  0
    7.6644  -19.9656   23.9126 C   0  0  1  0  0  0  0  0  0  0  0  0
    8.7377  -20.5072   24.8284 C   0  0  0  0  0  0  0  0  0  0  0  0
    8.2798  -20.4676   26.2135 C   0  0  0  0  0  0  0  0  0  0  0  0
    7.0541  -21.0099   26.6121 C   0  0  0  0  0  0  0  0  0  0  0  0
    6.9481  -20.8588   27.9299 N   0  0  0  0  0  0  0  0  0  0  0  0
    8.0596  -20.2358   28.4132 C   0  0  0  0  0  0  0  0  0  0  0  0
    8.3990  -19.8587   29.7055 C   0  0  0  0  0  0  0  0  0  0  0  0
    9.5993  -19.2195   29.9259 C   0  0  0  0  0  0  0  0  0  0  0  0
   10.4253  -18.9744   28.8543 C   0  0  0  0  0  0  0  0  0  0  0  0
   10.0865  -19.3491   27.5769 C   0  0  0  0  0  0  0  0  0  0  0  0
    8.8792  -19.9979   27.3311 C   0  0  0  0  0  0  0  0  0  0  0  0
    7.8389  -18.5410   23.6466 C   0  0  0  0  0  0  0  0  0  0  0  0
    8.6536  -18.0900   22.7785 O   0  0  0  0  0  0  0  0  0  0  0  0
    7.0300  -17.6340   24.4189 N   0  0  0  0  0  0  0  0  0  0  0  0
    7.1755  -16.2208   24.2027 C   0  0  1  0  0  0  0  0  0  0  0  0
    5.9723  -15.5207   24.8341 C   0  0  0  0  0  0  0  0  0  0  0  0
    6.1820  -14.0561   24.9133 C   0  0  0  0  0  0  0  0  0  0  0  0
    6.7125  -13.3631   23.8452 C   0  0  0  0  0  0  0  0  0  0  0  0
    6.9202  -11.9963   23.8879 C   0  0  0  0  0  0  0  0  0  0  0  0
    6.6005  -11.2666   25.0136 C   0  0  0  0  0  0  0  0  0  0  0  0
    6.0698  -11.9455   26.0880 C   0  0  0  0  0  0  0  0  0  0  0  0
    5.8652  -13.3260   26.0322 C   0  0  0  0  0  0  0  0  0  0  0  0
    8.4382  -15.6923   24.7218 C   0  0  0  0  0  0  0  0  0  0  0  0
    8.7270  -14.4592   24.7125 O   0  0  0  0  0  0  0  0  0  0  0  0
   10.1122  -14.6674   29.6071 C   0  0  0  0  0  0  0  0  0  0  0  0
   10.8998  -14.9529   28.3224 C   0  0  2  0  0  0  0  0  0  0  0  0
   11.5373  -13.6525   27.9001 C   0  0  0  0  0  0  0  0  0  0  0  0
    9.9209  -15.4564   27.3148 C   0  0  0  0  0  0  0  0  0  0  0  0
   10.5263  -16.0142   26.0611 C   0  0  2  0  0  0  0  0  0  0  0  0
    9.4061  -16.5521   25.2665 N   0  0  0  0  0  0  0  0  0  0  0  0
   11.5616  -17.0290   26.2685 C   0  0  0  0  0  0  0  0  0  0  0  0
   12.8983  -16.7761   25.9939 O   0  0  0  0  0  0  0  0  0  0  0  0
   11.3322  -18.2058   26.7081 O   0  0  0  0  0  0  0  0  0  0  0  0
  2  3  1  0
  2  1  1  6
  3  4  1  0
  4  5  2  0
  5  6  1  0
  7  6  1  0
  8  7  2  0
  9  8  1  0
 10 11  1  0
 10  9  2  0
 11 12  2  0
 12  4  1  0
 12  7  1  0
 13 14  2  0
 13  2  1  0
 15 13  1  0
 16 15  1  0
 16 17  1  1
 17 18  1  0
 18 23  1  0
 18 19  2  0
 19 20  1  0
 20 21  2  0
 22 21  1  0
 23 22  2  0
 24 31  1  0
 24 16  1  0
 25 24  2  0
 27 26  1  1
 27 28  1  0
 27 29  1  0
 30 29  1  1
 30 32  1  0
 30 31  1  0
 32 33  1  0
 34 32  2  0
M  END
$$$$
