WFL.pdb
     RDKit          3D

 34 36  0  0  1  0  0  0  0  0999 V2000
    6.2528  -19.0768   25.1612 N   0  0  0  0  0  0  0  0  0  0  0  0
    6.8305  -17.7791   24.8295 C   0  0  1  0  0  0  0  0  0  0  0  0
    7.0467  -16.9730   26.0896 C   0  0  0  0  0  0  0  0  0  0  0  0
    6.2906  -15.7267   26.0217 C   0  0  0  0  0  0  0  0  0  0  0  0
    4.8937  -15.7012   25.9646 C   0  0  0  0  0  0  0  0  0  0  0  0
    4.5068  -14.4281   25.9579 N   0  0  0  0  0  0  0  0  0  0  0  0
    5.5988  -13.6144   26.0077 C   0  0  0  0  0  0  0  0  0  0  0  0
    5.6993  -12.2297   26.0125 C   0  0  0  0  0  0  0  0  0  0  0  0
    6.9466  -11.6464   26.0555 C   0  0  0  0  0  0  0  0  0  0  0  0
    8.0560  -12.4579   26.0920 C   0  0  0  0  0  0  0  0  0  0  0  0
    7.9530  -13.8277   26.0875 C   0  0  0  0  0  0  0  0  0  0  0  0
    6.7025  -14.4388   26.0461 C   0  0  0  0  0  0  0  0  0  0  0  0
    8.0637  -17.9434   24.0660 C   0  0  0  0  0  0  0  0  0  0  0  0
    8.7627  -19.0069   24.0938 O   0  0  0  0  0  0  0  0  0  0  0  0
    8.4736  -16.8300   23.2502 N   0  0  0  0  0  0  0  0  0  0  0  0
    9.6790  -16.9453   22.4764 C   0  0  1  0  0  0  0  0  0  0  0  0
    9.4220  -16.3175   21.1065 C   0  0  0  0  0  0  0  0  0  0  0  0
    8.9955  -14.9042   21.2334 C   0  0  0  0  0  0  0  0  0  0  0  0
    8.7310  -14.1463   20.1117 C   0  0  0  0  0  0  0  0  0  0  0  0
    8.3310  -12.8251   20.1967 C   0  0  0  0  0  0  0  0  0  0  0  0
    8.1798  -12.2087   21.4211 C   0  0  0  0  0  0  0  0  0  0  0  0
    8.4405  -12.9533   22.5500 C   0  0  0  0  0  0  0  0  0  0  0  0
    8.8439  -14.2868   22.4504 C   0  0  0  0  0  0  0  0  0  0  0  0
   10.8387  -16.3416   23.1352 C   0  0  0  0  0  0  0  0  0  0  0  0
   11.9221  -16.0876   22.5307 O   0  0  0  0  0  0  0  0  0  0  0  0
   11.3404  -13.1786   26.4070 C   0  0  0  0  0  0  0  0  0  0  0  0
   10.6419  -14.4685   26.8548 C   0  0  2  0  0  0  0  0  0  0  0  0
   10.2412  -14.2731   28.2960 C   0  0  0  0  0  0  0  0  0  0  0  0
   11.6265  -15.5773   26.6869 C   0  0  0  0  0  0  0  0  0  0  0  0
   12.0428  -15.8514   25.2724 C   0  0  2  0  0  0  0  0  0  0  0  0
   10.7965  -16.0094   24.4992 N   0  0  0  0  0  0  0  0  0  0  0  0
   12.9236  -17.0080   25.0961 C   0  0  0  0  0  0  0  0  0  0  0  0
   12.4211  -18.2801   24.8607 O   0  0  0  0  0  0  0  0  0  0  0  0
   14.1984  -16.9503   25.1429 O   0  0  0  0  0  0  0  0  0  0  0  0
  2  3  1  0
  2  1  1  1
  3  4  1  0
  4  5  2  0
  5  6  1  0
  7  6  1  0
  8  7  2  0
  9  8  1  0
 10 11  1  0
 10  9  2  0
 11 12  2  0
 12  4  1  0
 12  7  1  0
 13 14  2  0
 13  2  1  0
 15 13  1  0
 16 15  1  0
 16 17  1  6
 17 18  1  0
 18 23  1  0
 18 19  2  0
 19 20  1  0
 20 21  2  0
 22 21  1  0
 23 22  2  0
 24 31  1  0
 24 16  1  0
 25 24  2  0
 27 26  1  1
 27 28  1  0
 27 29  1  0
 30 29  1  1
 30 32  1  0
 30 31  1  0
 32 33  1  0
 34 32  2  0
M  END
$$$$
