WFL.pdb
     RDKit          3D

 34 36  0  0  1  0  0  0  0  0999 V2000
    8.7811  -18.2767   21.0539 N   0  0  0  0  0  0  0  0  0  0  0  0
    8.7264  -16.8605   20.7087 C   0  0  1  0  0  0  0  0  0  0  0  0
    7.4324  -16.5539   19.9907 C   0  0  0  0  0  0  0  0  0  0  0  0
    7.7120  -15.9389   18.6971 C   0  0  0  0  0  0  0  0  0  0  0  0
    7.6709  -16.6614   17.5006 C   0  0  0  0  0  0  0  0  0  0  0  0
    7.9238  -15.8176   16.5033 N   0  0  0  0  0  0  0  0  0  0  0  0
    8.1305  -14.5657   17.0001 C   0  0  0  0  0  0  0  0  0  0  0  0
    8.4319  -13.3725   16.3574 C   0  0  0  0  0  0  0  0  0  0  0  0
    8.6069  -12.2304   17.1075 C   0  0  0  0  0  0  0  0  0  0  0  0
    8.4775  -12.3097   18.4741 C   0  0  0  0  0  0  0  0  0  0  0  0
    8.1790  -13.4918   19.1070 C   0  0  0  0  0  0  0  0  0  0  0  0
    7.9961  -14.6581   18.3686 C   0  0  0  0  0  0  0  0  0  0  0  0
    8.9025  -16.0325   21.8979 C   0  0  0  0  0  0  0  0  0  0  0  0
    9.4375  -14.8777   21.8686 O   0  0  0  0  0  0  0  0  0  0  0  0
    8.4316  -16.5796   23.1438 N   0  0  0  0  0  0  0  0  0  0  0  0
    8.5307  -15.7792   24.3330 C   0  0  1  0  0  0  0  0  0  0  0  0
    7.1426  -15.7054   24.9690 C   0  0  0  0  0  0  0  0  0  0  0  0
    6.8802  -14.3613   25.5346 C   0  0  0  0  0  0  0  0  0  0  0  0
    6.4365  -14.2194   26.8329 C   0  0  0  0  0  0  0  0  0  0  0  0
    6.1828  -12.9790   27.3899 C   0  0  0  0  0  0  0  0  0  0  0  0
    6.3664  -11.8240   26.6590 C   0  0  0  0  0  0  0  0  0  0  0  0
    6.8092  -11.9505   25.3610 C   0  0  0  0  0  0  0  0  0  0  0  0
    7.0616  -13.2091   24.8104 C   0  0  0  0  0  0  0  0  0  0  0  0
    9.5285  -16.2841   25.2779 C   0  0  0  0  0  0  0  0  0  0  0  0
   10.7327  -16.5091   24.9566 O   0  0  0  0  0  0  0  0  0  0  0  0
   10.8435  -13.9199   27.9375 C   0  0  0  0  0  0  0  0  0  0  0  0
    9.5747  -14.5660   28.5076 C   0  0  2  0  0  0  0  0  0  0  0  0
    9.2052  -13.7892   29.7469 C   0  0  0  0  0  0  0  0  0  0  0  0
    9.9092  -15.9885   28.8106 C   0  0  0  0  0  0  0  0  0  0  0  0
   10.2267  -16.8372   27.6155 C   0  0  2  0  0  0  0  0  0  0  0  0
    9.1836  -16.5455   26.6141 N   0  0  0  0  0  0  0  0  0  0  0  0
   10.3176  -18.2747   27.8798 C   0  0  0  0  0  0  0  0  0  0  0  0
    9.3664  -19.1667   27.4048 O   0  0  0  0  0  0  0  0  0  0  0  0
   11.2551  -18.8205   28.5536 O   0  0  0  0  0  0  0  0  0  0  0  0
  2  3  1  0
  2  1  1  1
  3  4  1  0
  4  5  2  0
  5  6  1  0
  7  6  1  0
  8  7  2  0
  9  8  1  0
 10 11  1  0
 10  9  2  0
 11 12  2  0
 12  4  1  0
 12  7  1  0
 13 14  2  0
 13  2  1  0
 15 13  1  0
 16 15  1  0
 16 17  1  1
 17 18  1  0
 18 23  1  0
 18 19  2  0
 19 20  1  0
 20 21  2  0
 22 21  1  0
 23 22  2  0
 24 31  1  0
 24 16  1  0
 25 24  2  0
 27 26  1  1
 27 28  1  0
 27 29  1  0
 30 29  1  1
 30 32  1  0
 30 31  1  0
 32 33  1  0
 34 32  2  0
M  END
$$$$
