WFL.pdb
     RDKit          3D

 34 36  0  0  1  0  0  0  0  0999 V2000
   11.6598  -17.0009   20.7356 N   0  0  0  0  0  0  0  0  0  0  0  0
   10.3726  -16.4527   21.1485 C   0  0  1  0  0  0  0  0  0  0  0  0
    9.2498  -17.3038   20.6015 C   0  0  0  0  0  0  0  0  0  0  0  0
    8.3131  -16.4735   19.8512 C   0  0  0  0  0  0  0  0  0  0  0  0
    7.2017  -17.0080   19.1920 C   0  0  0  0  0  0  0  0  0  0  0  0
    6.5256  -16.0006   18.6455 N   0  0  0  0  0  0  0  0  0  0  0  0
    7.1523  -14.8222   18.9204 C   0  0  0  0  0  0  0  0  0  0  0  0
    6.8337  -13.5195   18.5613 C   0  0  0  0  0  0  0  0  0  0  0  0
    7.6560  -12.4906   18.9652 C   0  0  0  0  0  0  0  0  0  0  0  0
    8.7703  -12.7886   19.7135 C   0  0  0  0  0  0  0  0  0  0  0  0
    9.0826  -14.0787   20.0674 C   0  0  0  0  0  0  0  0  0  0  0  0
    8.2648  -15.1340   19.6717 C   0  0  0  0  0  0  0  0  0  0  0  0
   10.3073  -16.3276   22.6013 C   0  0  0  0  0  0  0  0  0  0  0  0
   11.3304  -16.4155   23.3539 O   0  0  0  0  0  0  0  0  0  0  0  0
    9.0077  -16.0884   23.1732 N   0  0  0  0  0  0  0  0  0  0  0  0
    8.8698  -15.0702   24.1777 C   0  0  1  0  0  0  0  0  0  0  0  0
    7.4239  -14.5749   24.1521 C   0  0  0  0  0  0  0  0  0  0  0  0
    7.1856  -13.5546   25.1997 C   0  0  0  0  0  0  0  0  0  0  0  0
    6.3138  -13.8046   26.2390 C   0  0  0  0  0  0  0  0  0  0  0  0
    6.0702  -12.8733   27.2321 C   0  0  0  0  0  0  0  0  0  0  0  0
    6.6975  -11.6451   27.2201 C   0  0  0  0  0  0  0  0  0  0  0  0
    7.5707  -11.3816   26.1881 C   0  0  0  0  0  0  0  0  0  0  0  0
    7.8079  -12.3308   25.1913 C   0  0  0  0  0  0  0  0  0  0  0  0
    9.2565  -15.5309   25.5125 C   0  0  0  0  0  0  0  0  0  0  0  0
    8.9245  -14.9269   26.5749 O   0  0  0  0  0  0  0  0  0  0  0  0
   11.9353  -15.5796   28.7360 C   0  0  0  0  0  0  0  0  0  0  0  0
   10.5974  -15.0724   28.1834 C   0  0  2  0  0  0  0  0  0  0  0  0
   10.0387  -14.1096   29.2015 C   0  0  0  0  0  0  0  0  0  0  0  0
    9.7232  -16.2672   27.9955 C   0  0  0  0  0  0  0  0  0  0  0  0
   10.2304  -17.2800   27.0124 C   0  0  2  0  0  0  0  0  0  0  0  0
   10.0303  -16.6918   25.6746 N   0  0  0  0  0  0  0  0  0  0  0  0
    9.6093  -18.6029   27.1058 C   0  0  0  0  0  0  0  0  0  0  0  0
   10.1734  -19.6237   27.8580 O   0  0  0  0  0  0  0  0  0  0  0  0
    8.5225  -18.9262   26.5183 O   0  0  0  0  0  0  0  0  0  0  0  0
  2  3  1  0
  2  1  1  1
  3  4  1  0
  4  5  2  0
  5  6  1  0
  7  6  1  0
  8  7  2  0
  9  8  1  0
 10 11  1  0
 10  9  2  0
 11 12  2  0
 12  4  1  0
 12  7  1  0
 13 14  2  0
 13  2  1  0
 15 13  1  0
 16 15  1  0
 16 17  1  1
 17 18  1  0
 18 23  1  0
 18 19  2  0
 19 20  1  0
 20 21  2  0
 22 21  1  0
 23 22  2  0
 24 31  1  0
 24 16  1  0
 25 24  2  0
 27 26  1  1
 27 28  1  0
 27 29  1  0
 30 29  1  1
 30 32  1  0
 30 31  1  0
 32 33  1  0
 34 32  2  0
M  END
$$$$
