WFL.pdb
     RDKit          3D

 34 36  0  0  1  0  0  0  0  0999 V2000
    6.3824  -20.9632   24.8128 N   0  0  0  0  0  0  0  0  0  0  0  0
    7.0241  -19.7344   25.2666 C   0  0  1  0  0  0  0  0  0  0  0  0
    8.2808  -20.0633   26.0392 C   0  0  0  0  0  0  0  0  0  0  0  0
    8.1322  -19.6555   27.4325 C   0  0  0  0  0  0  0  0  0  0  0  0
    7.5306  -20.4756   28.3921 C   0  0  0  0  0  0  0  0  0  0  0  0
    7.5884  -19.8466   29.5632 N   0  0  0  0  0  0  0  0  0  0  0  0
    8.2057  -18.6415   29.4092 C   0  0  0  0  0  0  0  0  0  0  0  0
    8.4863  -17.6412   30.3301 C   0  0  0  0  0  0  0  0  0  0  0  0
    9.1197  -16.4943   29.9047 C   0  0  0  0  0  0  0  0  0  0  0  0
    9.4544  -16.3767   28.5763 C   0  0  0  0  0  0  0  0  0  0  0  0
    9.1756  -17.3685   27.6676 C   0  0  0  0  0  0  0  0  0  0  0  0
    8.5376  -18.5370   28.0757 C   0  0  0  0  0  0  0  0  0  0  0  0
    7.2905  -18.8451   24.1402 C   0  0  0  0  0  0  0  0  0  0  0  0
    7.7682  -19.2502   23.0319 O   0  0  0  0  0  0  0  0  0  0  0  0
    6.9804  -17.4516   24.3276 N   0  0  0  0  0  0  0  0  0  0  0  0
    7.3885  -16.5100   23.3217 C   0  0  1  0  0  0  0  0  0  0  0  0
    6.3481  -15.3911   23.2731 C   0  0  0  0  0  0  0  0  0  0  0  0
    6.7086  -14.3639   22.2681 C   0  0  0  0  0  0  0  0  0  0  0  0
    7.1248  -13.1096   22.6631 C   0  0  0  0  0  0  0  0  0  0  0  0
    7.4684  -12.1293   21.7498 C   0  0  0  0  0  0  0  0  0  0  0  0
    7.4071  -12.3726   20.3937 C   0  0  0  0  0  0  0  0  0  0  0  0
    6.9932  -13.6209   19.9846 C   0  0  0  0  0  0  0  0  0  0  0  0
    6.6489  -14.6020   20.9172 C   0  0  0  0  0  0  0  0  0  0  0  0
    8.7351  -15.9822   23.5484 C   0  0  0  0  0  0  0  0  0  0  0  0
    9.4972  -15.6066   22.6093 O   0  0  0  0  0  0  0  0  0  0  0  0
    9.4087  -12.5889   25.0987 C   0  0  0  0  0  0  0  0  0  0  0  0
    9.2949  -13.5447   26.2929 C   0  0  2  0  0  0  0  0  0  0  0  0
    9.2363  -12.6904   27.5349 C   0  0  0  0  0  0  0  0  0  0  0  0
   10.5026  -14.4208   26.2655 C   0  0  0  0  0  0  0  0  0  0  0  0
   10.6052  -15.3280   25.0757 C   0  0  2  0  0  0  0  0  0  0  0  0
    9.2506  -15.8663   24.8498 N   0  0  0  0  0  0  0  0  0  0  0  0
   11.5881  -16.4066   25.1987 C   0  0  0  0  0  0  0  0  0  0  0  0
   12.9520  -16.1520   25.2344 O   0  0  0  0  0  0  0  0  0  0  0  0
   11.2855  -17.6445   25.2812 O   0  0  0  0  0  0  0  0  0  0  0  0
  2  3  1  0
  2  1  1  6
  3  4  1  0
  4  5  2  0
  5  6  1  0
  7  6  1  0
  8  7  2  0
  9  8  1  0
 10 11  1  0
 10  9  2  0
 11 12  2  0
 12  4  1  0
 12  7  1  0
 13 14  2  0
 13  2  1  0
 15 13  1  0
 16 15  1  0
 16 17  1  1
 17 18  1  0
 18 23  1  0
 18 19  2  0
 19 20  1  0
 20 21  2  0
 22 21  1  0
 23 22  2  0
 24 31  1  0
 24 16  1  0
 25 24  2  0
 27 26  1  6
 27 28  1  0
 27 29  1  0
 30 29  1  1
 30 32  1  0
 30 31  1  0
 32 33  1  0
 34 32  2  0
M  END
$$$$
