WFL.pdb
     RDKit          3D

 34 36  0  0  1  0  0  0  0  0999 V2000
    8.2011  -19.0436   20.7136 N   0  0  0  0  0  0  0  0  0  0  0  0
    8.2681  -17.5897   20.6169 C   0  0  1  0  0  0  0  0  0  0  0  0
    7.5002  -17.1171   19.4040 C   0  0  0  0  0  0  0  0  0  0  0  0
    8.0203  -15.8303   18.9531 C   0  0  0  0  0  0  0  0  0  0  0  0
    8.6724  -15.6754   17.7258 C   0  0  0  0  0  0  0  0  0  0  0  0
    8.9825  -14.3890   17.5858 N   0  0  0  0  0  0  0  0  0  0  0  0
    8.5586  -13.6915   18.6770 C   0  0  0  0  0  0  0  0  0  0  0  0
    8.6618  -12.3423   18.9880 C   0  0  0  0  0  0  0  0  0  0  0  0
    8.1525  -11.8874   20.1845 C   0  0  0  0  0  0  0  0  0  0  0  0
    7.5565  -12.7881   21.0355 C   0  0  0  0  0  0  0  0  0  0  0  0
    7.4558  -14.1223   20.7246 C   0  0  0  0  0  0  0  0  0  0  0  0
    7.9620  -14.6039   19.5201 C   0  0  0  0  0  0  0  0  0  0  0  0
    7.7865  -16.9681   21.8466 C   0  0  0  0  0  0  0  0  0  0  0  0
    6.8017  -16.1620   21.8793 O   0  0  0  0  0  0  0  0  0  0  0  0
    8.4800  -17.3116   23.0608 N   0  0  0  0  0  0  0  0  0  0  0  0
    8.4358  -16.3950   24.1666 C   0  0  1  0  0  0  0  0  0  0  0  0
    6.9681  -16.1403   24.5098 C   0  0  0  0  0  0  0  0  0  0  0  0
    6.7770  -14.7901   25.0891 C   0  0  0  0  0  0  0  0  0  0  0  0
    6.9962  -13.6610   24.3278 C   0  0  0  0  0  0  0  0  0  0  0  0
    6.8263  -12.3871   24.8391 C   0  0  0  0  0  0  0  0  0  0  0  0
    6.4265  -12.1962   26.1451 C   0  0  0  0  0  0  0  0  0  0  0  0
    6.2039  -13.3147   26.9173 C   0  0  0  0  0  0  0  0  0  0  0  0
    6.3792  -14.5956   26.3888 C   0  0  0  0  0  0  0  0  0  0  0  0
    9.1852  -16.8704   25.3309 C   0  0  0  0  0  0  0  0  0  0  0  0
    9.5670  -18.0706   25.4639 O   0  0  0  0  0  0  0  0  0  0  0  0
   11.3236  -13.6064   27.0410 C   0  0  0  0  0  0  0  0  0  0  0  0
   10.1247  -13.9686   27.9263 C   0  0  2  0  0  0  0  0  0  0  0  0
   10.0378  -12.9135   29.0009 C   0  0  0  0  0  0  0  0  0  0  0  0
   10.3918  -15.3258   28.4864 C   0  0  0  0  0  0  0  0  0  0  0  0
   10.3833  -16.4419   27.4847 C   0  0  2  0  0  0  0  0  0  0  0  0
    9.5216  -15.9930   26.3748 N   0  0  0  0  0  0  0  0  0  0  0  0
    9.9440  -17.7393   28.0026 C   0  0  0  0  0  0  0  0  0  0  0  0
   10.8128  -18.5928   28.6681 O   0  0  0  0  0  0  0  0  0  0  0  0
    8.7540  -18.1889   27.8904 O   0  0  0  0  0  0  0  0  0  0  0  0
  2  3  1  0
  2  1  1  1
  3  4  1  0
  4  5  2  0
  5  6  1  0
  7  6  1  0
  8  7  2  0
  9  8  1  0
 10 11  1  0
 10  9  2  0
 11 12  2  0
 12  4  1  0
 12  7  1  0
 13 14  2  0
 13  2  1  0
 15 13  1  0
 16 15  1  0
 16 17  1  1
 17 18  1  0
 18 23  1  0
 18 19  2  0
 19 20  1  0
 20 21  2  0
 22 21  1  0
 23 22  2  0
 24 31  1  0
 24 16  1  0
 25 24  2  0
 27 26  1  6
 27 28  1  0
 27 29  1  0
 30 29  1  1
 30 32  1  0
 30 31  1  0
 32 33  1  0
 34 32  2  0
M  END
$$$$
