WFL.pdb
     RDKit          3D

 34 36  0  0  1  0  0  0  0  0999 V2000
   10.9897  -17.9251   19.6707 N   0  0  0  0  0  0  0  0  0  0  0  0
   10.3658  -18.1911   20.9621 C   0  0  1  0  0  0  0  0  0  0  0  0
   11.1594  -19.2349   21.7135 C   0  0  0  0  0  0  0  0  0  0  0  0
   11.1301  -20.5019   20.9900 C   0  0  0  0  0  0  0  0  0  0  0  0
    9.9522  -21.2336   20.8097 C   0  0  0  0  0  0  0  0  0  0  0  0
   10.2435  -22.3057   20.0775 N   0  0  0  0  0  0  0  0  0  0  0  0
   11.5710  -22.3068   19.7698 C   0  0  0  0  0  0  0  0  0  0  0  0
   12.3335  -23.2114   19.0433 C   0  0  0  0  0  0  0  0  0  0  0  0
   13.6828  -22.9808   18.8877 C   0  0  0  0  0  0  0  0  0  0  0  0
   14.2327  -21.8580   19.4599 C   0  0  0  0  0  0  0  0  0  0  0  0
   13.4754  -20.9648   20.1779 C   0  0  0  0  0  0  0  0  0  0  0  0
   12.1095  -21.1768   20.3463 C   0  0  0  0  0  0  0  0  0  0  0  0
   10.2198  -16.9573   21.7283 C   0  0  0  0  0  0  0  0  0  0  0  0
   11.1306  -16.0707   21.7994 O   0  0  0  0  0  0  0  0  0  0  0  0
    8.9705  -16.7673   22.4184 N   0  0  0  0  0  0  0  0  0  0  0  0
    8.7968  -15.5907   23.2248 C   0  0  1  0  0  0  0  0  0  0  0  0
    7.3730  -15.6059   23.7810 C   0  0  0  0  0  0  0  0  0  0  0  0
    7.0319  -14.3149   24.4230 C   0  0  0  0  0  0  0  0  0  0  0  0
    7.3745  -13.1201   23.8250 C   0  0  0  0  0  0  0  0  0  0  0  0
    7.0701  -11.8989   24.3986 C   0  0  0  0  0  0  0  0  0  0  0  0
    6.4045  -11.8295   25.6045 C   0  0  0  0  0  0  0  0  0  0  0  0
    6.0561  -13.0148   26.2133 C   0  0  0  0  0  0  0  0  0  0  0  0
    6.3695  -14.2415   25.6235 C   0  0  0  0  0  0  0  0  0  0  0  0
    9.7904  -15.4815   24.2945 C   0  0  0  0  0  0  0  0  0  0  0  0
   10.7622  -14.6705   24.2548 O   0  0  0  0  0  0  0  0  0  0  0  0
   11.6600  -14.4235   28.4790 C   0  0  0  0  0  0  0  0  0  0  0  0
   10.2588  -13.8470   28.2406 C   0  0  2  0  0  0  0  0  0  0  0  0
    9.4431  -14.1519   29.4724 C   0  0  0  0  0  0  0  0  0  0  0  0
    9.7149  -14.5154   27.0222 C   0  0  0  0  0  0  0  0  0  0  0  0
   10.3085  -15.8575   26.7128 C   0  0  2  0  0  0  0  0  0  0  0  0
    9.7045  -16.2914   25.4388 N   0  0  0  0  0  0  0  0  0  0  0  0
   10.1300  -16.8717   27.7540 C   0  0  0  0  0  0  0  0  0  0  0  0
    8.9841  -17.6512   27.8263 O   0  0  0  0  0  0  0  0  0  0  0  0
   10.9901  -17.1217   28.6643 O   0  0  0  0  0  0  0  0  0  0  0  0
  2  3  1  0
  2  1  1  6
  3  4  1  0
  4  5  2  0
  5  6  1  0
  7  6  1  0
  8  7  2  0
  9  8  1  0
 10 11  1  0
 10  9  2  0
 11 12  2  0
 12  4  1  0
 12  7  1  0
 13 14  2  0
 13  2  1  0
 15 13  1  0
 16 15  1  0
 16 17  1  1
 17 18  1  0
 18 23  1  0
 18 19  2  0
 19 20  1  0
 20 21  2  0
 22 21  1  0
 23 22  2  0
 24 31  1  0
 24 16  1  0
 25 24  2  0
 27 26  1  1
 27 28  1  0
 27 29  1  0
 30 29  1  1
 30 32  1  0
 30 31  1  0
 32 33  1  0
 34 32  2  0
M  END
$$$$
