WFL.pdb
     RDKit          3D

 34 36  0  0  1  0  0  0  0  0999 V2000
    6.5428  -19.1885   25.6200 N   0  0  0  0  0  0  0  0  0  0  0  0
    6.8651  -17.8244   25.2161 C   0  0  1  0  0  0  0  0  0  0  0  0
    8.1365  -17.3714   25.8963 C   0  0  0  0  0  0  0  0  0  0  0  0
    7.8210  -16.7225   27.1647 C   0  0  0  0  0  0  0  0  0  0  0  0
    7.8608  -17.4049   28.3846 C   0  0  0  0  0  0  0  0  0  0  0  0
    7.5712  -16.5362   29.3500 N   0  0  0  0  0  0  0  0  0  0  0  0
    7.3414  -15.3065   28.8096 C   0  0  0  0  0  0  0  0  0  0  0  0
    7.0002  -14.1014   29.4086 C   0  0  0  0  0  0  0  0  0  0  0  0
    6.8089  -12.9887   28.6191 C   0  0  0  0  0  0  0  0  0  0  0  0
    6.9621  -13.1086   27.2580 C   0  0  0  0  0  0  0  0  0  0  0  0
    7.3000  -14.3025   26.6685 C   0  0  0  0  0  0  0  0  0  0  0  0
    7.5000  -15.4395   27.4471 C   0  0  0  0  0  0  0  0  0  0  0  0
    6.9558  -17.7246   23.7627 C   0  0  0  0  0  0  0  0  0  0  0  0
    7.3626  -18.6782   23.0239 O   0  0  0  0  0  0  0  0  0  0  0  0
    6.5523  -16.4746   23.1727 N   0  0  0  0  0  0  0  0  0  0  0  0
    7.3420  -15.9261   22.1048 C   0  0  1  0  0  0  0  0  0  0  0  0
    6.8042  -14.5303   21.7894 C   0  0  0  0  0  0  0  0  0  0  0  0
    7.4347  -13.9733   20.5697 C   0  0  0  0  0  0  0  0  0  0  0  0
    7.9967  -12.7137   20.5816 C   0  0  0  0  0  0  0  0  0  0  0  0
    8.5927  -12.1659   19.4601 C   0  0  0  0  0  0  0  0  0  0  0  0
    8.6480  -12.8672   18.2739 C   0  0  0  0  0  0  0  0  0  0  0  0
    8.0907  -14.1264   18.2474 C   0  0  0  0  0  0  0  0  0  0  0  0
    7.4916  -14.6681   19.3869 C   0  0  0  0  0  0  0  0  0  0  0  0
    8.7728  -15.8937   22.4130 C   0  0  0  0  0  0  0  0  0  0  0  0
    9.6720  -15.8995   21.5212 O   0  0  0  0  0  0  0  0  0  0  0  0
    9.6259  -13.3995   25.7945 C   0  0  0  0  0  0  0  0  0  0  0  0
    9.5921  -14.8737   26.2166 C   0  0  2  0  0  0  0  0  0  0  0  0
    9.7112  -14.9025   27.7202 C   0  0  0  0  0  0  0  0  0  0  0  0
   10.7434  -15.5450   25.5451 C   0  0  0  0  0  0  0  0  0  0  0  0
   10.6455  -15.6355   24.0512 C   0  0  2  0  0  0  0  0  0  0  0  0
    9.2192  -15.8526   23.7441 N   0  0  0  0  0  0  0  0  0  0  0  0
   11.4815  -16.6677   23.4345 C   0  0  0  0  0  0  0  0  0  0  0  0
   10.9316  -17.7250   22.7233 O   0  0  0  0  0  0  0  0  0  0  0  0
   12.7569  -16.6864   23.4953 O   0  0  0  0  0  0  0  0  0  0  0  0
  2  3  1  0
  2  1  1  6
  3  4  1  0
  4  5  2  0
  5  6  1  0
  7  6  1  0
  8  7  2  0
  9  8  1  0
 10 11  1  0
 10  9  2  0
 11 12  2  0
 12  4  1  0
 12  7  1  0
 13 14  2  0
 13  2  1  0
 15 13  1  0
 16 15  1  0
 16 17  1  1
 17 18  1  0
 18 23  1  0
 18 19  2  0
 19 20  1  0
 20 21  2  0
 22 21  1  0
 23 22  2  0
 24 31  1  0
 24 16  1  0
 25 24  2  0
 27 26  1  6
 27 28  1  0
 27 29  1  0
 30 29  1  1
 30 32  1  0
 30 31  1  0
 32 33  1  0
 34 32  2  0
M  END
$$$$
