LRI.pdb
     RDKit          3D

 28 27  0  0  1  0  0  0  0  0999 V2000
    6.4918  -12.8638   17.8122 C   0  0  0  0  0  0  0  0  0  0  0  0
    7.7499  -13.4421   18.4658 C   0  0  1  0  0  0  0  0  0  0  0  0
    8.8484  -12.4356   18.5654 C   0  0  0  0  0  0  0  0  0  0  0  0
    7.3844  -14.0363   19.8105 C   0  0  0  0  0  0  0  0  0  0  0  0
    8.6713  -14.4102   20.5114 C   0  0  2  0  0  0  0  0  0  0  0  0
    9.3631  -15.3937   19.6980 N   0  0  0  0  0  0  0  0  0  0  0  0
    8.4329  -15.0027   21.8414 C   0  0  0  0  0  0  0  0  0  0  0  0
    7.7267  -14.4198   22.7031 O   0  0  0  0  0  0  0  0  0  0  0  0
   11.5349  -22.3853   22.0485 N   0  0  0  0  0  0  0  0  0  0  0  0
   11.9117  -21.0290   21.7821 C   0  0  0  0  0  0  0  0  0  0  0  0
   13.0992  -20.7723   21.3408 N   0  0  0  0  0  0  0  0  0  0  0  0
   10.9491  -20.0138   22.0185 N   0  0  0  0  0  0  0  0  0  0  0  0
    9.6618  -20.4469   22.5859 C   0  0  0  0  0  0  0  0  0  0  0  0
    8.7574  -19.2626   22.6775 C   0  0  0  0  0  0  0  0  0  0  0  0
    9.1298  -18.2650   23.7236 C   0  0  0  0  0  0  0  0  0  0  0  0
    8.7158  -16.8605   23.5145 C   0  0  2  0  0  0  0  0  0  0  0  0
    8.9796  -16.2700   22.2490 N   0  0  0  0  0  0  0  0  0  0  0  0
    9.2969  -15.9863   24.6079 C   0  0  0  0  0  0  0  0  0  0  0  0
   10.5064  -15.6819   24.5276 O   0  0  0  0  0  0  0  0  0  0  0  0
   13.3848  -19.7984   21.1552 C   0  0  0  0  0  0  0  0  0  0  0  0
    6.7610  -11.7671   26.1536 C   0  0  0  0  0  0  0  0  0  0  0  0
    7.8085  -12.7879   25.9312 C   0  0  2  0  0  0  0  0  0  0  0  0
    8.2421  -13.6471   27.0399 C   0  0  0  0  0  0  0  0  0  0  0  0
    8.8494  -12.8383   28.1904 C   0  0  2  0  0  0  0  0  0  0  0  0
    9.1548  -14.7739   26.7636 N   0  0  0  0  0  0  0  0  0  0  0  0
    8.5171  -15.5422   25.6550 C   0  0  0  0  0  0  0  0  0  0  0  0
    9.4182  -15.7083   27.8623 O   0  0  0  0  0  0  0  0  0  0  0  0
    8.6379  -16.7199   28.0660 O   0  0  0  0  0  0  0  0  0  0  0  0
  2  4  1  0
  2  1  1  1
  3  2  1  0
  5  4  1  0
  5  6  1  6
  7  5  1  0
  7  8  2  0
  9 10  1  0
 10 12  1  0
 10 11  2  0
 12 13  1  0
 13 14  1  0
 16 15  1  6
 15 14  1  0
 17 16  1  0
 17  7  1  0
 18 16  1  0
 19 18  2  0
 20 21  1  0
 21 22  1  0
 22 24  1  0
 22 23  1  1
 24 26  1  0
 24 25  1  6
 25 18  1  0
 26 28  1  0
 27 26  2  0
M  END
$$$$
