LRI.pdb
     RDKit          3D

 28 27  0  0  1  0  0  0  0  0999 V2000
    6.6071  -12.5985   17.5515 C   0  0  0  0  0  0  0  0  0  0  0  0
    7.7590  -13.3580   18.2153 C   0  0  1  0  0  0  0  0  0  0  0  0
    8.9726  -12.5054   18.3880 C   0  0  0  0  0  0  0  0  0  0  0  0
    7.2764  -13.9513   19.5230 C   0  0  0  0  0  0  0  0  0  0  0  0
    8.4964  -14.3032   20.3444 C   0  0  2  0  0  0  0  0  0  0  0  0
    9.2651  -15.2957   19.6152 N   0  0  0  0  0  0  0  0  0  0  0  0
    8.1416  -14.8742   21.6579 C   0  0  0  0  0  0  0  0  0  0  0  0
    7.3828  -14.2660   22.4550 O   0  0  0  0  0  0  0  0  0  0  0  0
   10.7976  -22.2961   22.3787 N   0  0  0  0  0  0  0  0  0  0  0  0
   11.8395  -21.3484   22.6404 C   0  0  0  0  0  0  0  0  0  0  0  0
   12.9879  -21.7643   23.0637 N   0  0  0  0  0  0  0  0  0  0  0  0
   11.5589  -19.9752   22.4197 N   0  0  0  0  0  0  0  0  0  0  0  0
   10.1380  -19.5960   22.3560 C   0  0  0  0  0  0  0  0  0  0  0  0
    9.8284  -18.7071   23.5148 C   0  0  0  0  0  0  0  0  0  0  0  0
    8.4342  -18.1747   23.5455 C   0  0  0  0  0  0  0  0  0  0  0  0
    8.2490  -16.7183   23.3662 C   0  0  2  0  0  0  0  0  0  0  0  0
    8.6269  -16.1474   22.1208 N   0  0  0  0  0  0  0  0  0  0  0  0
    8.9376  -15.9713   24.4910 C   0  0  0  0  0  0  0  0  0  0  0  0
   10.1223  -15.6154   24.3127 O   0  0  0  0  0  0  0  0  0  0  0  0
   13.7306  -21.0878   23.2987 C   0  0  0  0  0  0  0  0  0  0  0  0
    6.1965  -12.0472   26.2758 C   0  0  0  0  0  0  0  0  0  0  0  0
    7.3005  -12.9799   25.9592 C   0  0  2  0  0  0  0  0  0  0  0  0
    7.9007  -13.7938   27.0236 C   0  0  0  0  0  0  0  0  0  0  0  0
    8.4734  -12.9316   28.1528 C   0  0  2  0  0  0  0  0  0  0  0  0
    8.9249  -14.7971   26.6724 N   0  0  0  0  0  0  0  0  0  0  0  0
    8.2788  -15.6940   25.6704 C   0  0  0  0  0  0  0  0  0  0  0  0
    9.4409  -15.6367   27.7580 O   0  0  0  0  0  0  0  0  0  0  0  0
    8.8991  -16.7826   28.0169 O   0  0  0  0  0  0  0  0  0  0  0  0
  2  4  1  0
  2  1  1  1
  3  2  1  0
  5  4  1  0
  5  6  1  6
  7  5  1  0
  7  8  2  0
  9 10  1  0
 10 12  1  0
 10 11  2  0
 12 13  1  0
 13 14  1  0
 16 15  1  6
 15 14  1  0
 17 16  1  0
 17  7  1  0
 18 16  1  0
 19 18  2  0
 20 21  1  0
 21 22  1  0
 22 24  1  0
 22 23  1  1
 24 26  1  0
 24 25  1  6
 25 18  1  0
 26 28  1  0
 27 26  2  0
M  END
$$$$
