LRI.pdb
     RDKit          3D

 28 27  0  0  1  0  0  0  0  0999 V2000
    6.4927  -12.9760   18.0932 C   0  0  0  0  0  0  0  0  0  0  0  0
    7.8302  -13.2961   18.7662 C   0  0  1  0  0  0  0  0  0  0  0  0
    8.6258  -12.0662   19.0556 C   0  0  0  0  0  0  0  0  0  0  0  0
    7.5771  -14.1281   20.0067 C   0  0  0  0  0  0  0  0  0  0  0  0
    8.8865  -14.2467   20.7540 C   0  0  2  0  0  0  0  0  0  0  0  0
    9.8544  -14.8815   19.8778 N   0  0  0  0  0  0  0  0  0  0  0  0
    8.7634  -15.0700   21.9722 C   0  0  0  0  0  0  0  0  0  0  0  0
    7.8039  -14.9215   22.7710 O   0  0  0  0  0  0  0  0  0  0  0  0
   10.2520  -22.8152   22.5580 N   0  0  0  0  0  0  0  0  0  0  0  0
   10.6744  -22.1969   23.7793 C   0  0  0  0  0  0  0  0  0  0  0  0
   10.5950  -22.8563   24.8882 N   0  0  0  0  0  0  0  0  0  0  0  0
   11.1681  -20.8683   23.7148 N   0  0  0  0  0  0  0  0  0  0  0  0
   11.1341  -20.2171   22.3951 C   0  0  0  0  0  0  0  0  0  0  0  0
   10.1538  -19.0920   22.4428 C   0  0  0  0  0  0  0  0  0  0  0  0
   10.3361  -18.1454   23.5824 C   0  0  0  0  0  0  0  0  0  0  0  0
    9.6163  -16.8545   23.5275 C   0  0  2  0  0  0  0  0  0  0  0  0
    9.7139  -16.0880   22.3347 N   0  0  0  0  0  0  0  0  0  0  0  0
   10.0136  -15.9950   24.7111 C   0  0  0  0  0  0  0  0  0  0  0  0
   11.1256  -15.4263   24.6694 O   0  0  0  0  0  0  0  0  0  0  0  0
   10.8483  -22.4041   25.7804 C   0  0  0  0  0  0  0  0  0  0  0  0
    6.8091  -12.3762   26.2211 C   0  0  0  0  0  0  0  0  0  0  0  0
    7.9709  -13.2720   26.0298 C   0  0  2  0  0  0  0  0  0  0  0  0
    8.4980  -14.0415   27.1636 C   0  0  0  0  0  0  0  0  0  0  0  0
    8.8978  -13.1387   28.3349 C   0  0  2  0  0  0  0  0  0  0  0  0
    9.6081  -14.9880   26.9379 N   0  0  0  0  0  0  0  0  0  0  0  0
    9.1759  -15.8460   25.7965 C   0  0  0  0  0  0  0  0  0  0  0  0
    9.9722  -15.8717   28.0498 O   0  0  0  0  0  0  0  0  0  0  0  0
    9.4025  -17.0251   28.1862 O   0  0  0  0  0  0  0  0  0  0  0  0
  2  4  1  0
  2  1  1  1
  3  2  1  0
  5  4  1  0
  5  6  1  6
  7  5  1  0
  7  8  2  0
  9 10  1  0
 10 12  1  0
 10 11  2  0
 12 13  1  0
 13 14  1  0
 16 15  1  6
 15 14  1  0
 17 16  1  0
 17  7  1  0
 18 16  1  0
 19 18  2  0
 20 21  1  0
 21 22  1  0
 22 24  1  0
 22 23  1  1
 24 26  1  0
 24 25  1  6
 25 18  1  0
 26 28  1  0
 27 26  2  0
M  END
$$$$
