LRI.pdb
     RDKit          3D

 28 27  0  0  1  0  0  0  0  0999 V2000
    6.8566  -12.4544   18.1404 C   0  0  0  0  0  0  0  0  0  0  0  0
    8.0535  -13.2496   18.6691 C   0  0  1  0  0  0  0  0  0  0  0  0
    9.2046  -12.3678   19.0256 C   0  0  0  0  0  0  0  0  0  0  0  0
    7.6041  -14.1138   19.8293 C   0  0  0  0  0  0  0  0  0  0  0  0
    8.8438  -14.6664   20.4962 C   0  0  2  0  0  0  0  0  0  0  0  0
    9.4006  -15.6971   19.6388 N   0  0  0  0  0  0  0  0  0  0  0  0
    8.5504  -15.2728   21.8089 C   0  0  0  0  0  0  0  0  0  0  0  0
    7.5553  -14.9159   22.4895 O   0  0  0  0  0  0  0  0  0  0  0  0
    9.5634  -20.8959   20.7008 N   0  0  0  0  0  0  0  0  0  0  0  0
   10.9848  -21.0718   20.7330 C   0  0  0  0  0  0  0  0  0  0  0  0
   11.6003  -21.4826   19.6731 N   0  0  0  0  0  0  0  0  0  0  0  0
   11.6624  -20.7826   21.9455 N   0  0  0  0  0  0  0  0  0  0  0  0
   10.8316  -20.3212   23.0696 C   0  0  0  0  0  0  0  0  0  0  0  0
   10.3626  -18.9339   22.7791 C   0  0  0  0  0  0  0  0  0  0  0  0
    9.5267  -18.3143   23.8493 C   0  0  0  0  0  0  0  0  0  0  0  0
    9.0451  -16.9325   23.6340 C   0  0  2  0  0  0  0  0  0  0  0  0
    9.3648  -16.3005   22.4020 N   0  0  0  0  0  0  0  0  0  0  0  0
    9.4908  -16.0494   24.7825 C   0  0  0  0  0  0  0  0  0  0  0  0
   10.6480  -15.5793   24.7392 O   0  0  0  0  0  0  0  0  0  0  0  0
   12.6201  -21.6378   19.6924 C   0  0  0  0  0  0  0  0  0  0  0  0
    6.5040  -12.1585   26.3879 C   0  0  0  0  0  0  0  0  0  0  0  0
    7.6044  -13.1183   26.1496 C   0  0  2  0  0  0  0  0  0  0  0  0
    8.0937  -13.9603   27.2484 C   0  0  0  0  0  0  0  0  0  0  0  0
    8.5445  -13.1285   28.4532 C   0  0  2  0  0  0  0  0  0  0  0  0
    9.1513  -14.9540   26.9784 N   0  0  0  0  0  0  0  0  0  0  0  0
    8.6476  -15.7742   25.8385 C   0  0  0  0  0  0  0  0  0  0  0  0
    9.5045  -15.8699   28.0675 O   0  0  0  0  0  0  0  0  0  0  0  0
    8.8701  -16.9873   28.2182 O   0  0  0  0  0  0  0  0  0  0  0  0
  2  4  1  0
  2  1  1  1
  3  2  1  0
  5  4  1  0
  5  6  1  6
  7  5  1  0
  7  8  2  0
  9 10  1  0
 10 12  1  0
 10 11  2  0
 12 13  1  0
 13 14  1  0
 16 15  1  1
 15 14  1  0
 17 16  1  0
 17  7  1  0
 18 16  1  0
 19 18  2  0
 20 21  1  0
 21 22  1  0
 22 24  1  0
 22 23  1  1
 24 26  1  0
 24 25  1  6
 25 18  1  0
 26 28  1  0
 27 26  2  0
M  END
$$$$
