LRI.pdb
     RDKit          3D

 28 27  0  0  1  0  0  0  0  0999 V2000
    6.7224  -12.7786   17.4355 C   0  0  0  0  0  0  0  0  0  0  0  0
    7.7976  -13.5021   18.2509 C   0  0  1  0  0  0  0  0  0  0  0  0
    8.9590  -12.6179   18.5651 C   0  0  0  0  0  0  0  0  0  0  0  0
    7.1659  -14.0934   19.4945 C   0  0  0  0  0  0  0  0  0  0  0  0
    8.2794  -14.6470   20.3551 C   0  0  2  0  0  0  0  0  0  0  0  0
    8.9371  -15.7114   19.6188 N   0  0  0  0  0  0  0  0  0  0  0  0
    7.7793  -15.2100   21.6240 C   0  0  0  0  0  0  0  0  0  0  0  0
    7.0602  -14.5349   22.4038 O   0  0  0  0  0  0  0  0  0  0  0  0
    6.5023  -22.9606   24.0504 N   0  0  0  0  0  0  0  0  0  0  0  0
    5.7264  -22.3144   25.0667 C   0  0  0  0  0  0  0  0  0  0  0  0
    4.6393  -22.8714   25.4894 N   0  0  0  0  0  0  0  0  0  0  0  0
    6.1940  -21.0731   25.5704 N   0  0  0  0  0  0  0  0  0  0  0  0
    7.4416  -20.5542   24.9866 C   0  0  0  0  0  0  0  0  0  0  0  0
    7.3243  -19.0722   24.8487 C   0  0  0  0  0  0  0  0  0  0  0  0
    7.6602  -18.5367   23.4965 C   0  0  0  0  0  0  0  0  0  0  0  0
    7.6486  -17.0690   23.3144 C   0  0  2  0  0  0  0  0  0  0  0  0
    8.0699  -16.5503   22.0602 N   0  0  0  0  0  0  0  0  0  0  0  0
    8.4426  -16.4083   24.4238 C   0  0  0  0  0  0  0  0  0  0  0  0
    9.6889  -16.4155   24.3304 O   0  0  0  0  0  0  0  0  0  0  0  0
    4.0542  -22.3984   26.1954 C   0  0  0  0  0  0  0  0  0  0  0  0
    5.8443  -12.3095   26.6732 C   0  0  0  0  0  0  0  0  0  0  0  0
    6.9166  -13.1762   26.1367 C   0  0  2  0  0  0  0  0  0  0  0  0
    7.6877  -14.0354   27.0438 C   0  0  0  0  0  0  0  0  0  0  0  0
    8.4671  -13.2222   28.0819 C   0  0  2  0  0  0  0  0  0  0  0  0
    8.6173  -15.0315   26.4759 N   0  0  0  0  0  0  0  0  0  0  0  0
    7.8107  -15.8195   25.4989 C   0  0  0  0  0  0  0  0  0  0  0  0
    9.2390  -15.9766   27.4087 O   0  0  0  0  0  0  0  0  0  0  0  0
    8.6481  -17.0872   27.7103 O   0  0  0  0  0  0  0  0  0  0  0  0
  2  4  1  0
  2  1  1  1
  3  2  1  0
  5  4  1  0
  5  6  1  6
  7  5  1  0
  7  8  2  0
  9 10  1  0
 10 12  1  0
 10 11  2  0
 12 13  1  0
 13 14  1  0
 16 15  1  6
 15 14  1  0
 17 16  1  0
 17  7  1  0
 18 16  1  0
 19 18  2  0
 20 21  1  0
 21 22  1  0
 22 24  1  0
 22 23  1  1
 24 26  1  0
 24 25  1  6
 25 18  1  0
 26 28  1  0
 27 26  2  0
M  END
$$$$
