LRI.pdb
     RDKit          3D

 28 27  0  0  1  0  0  0  0  0999 V2000
    6.7058  -12.4257   17.8326 C   0  0  0  0  0  0  0  0  0  0  0  0
    7.8353  -13.2587   18.4448 C   0  0  1  0  0  0  0  0  0  0  0  0
    9.0707  -12.4525   18.6757 C   0  0  0  0  0  0  0  0  0  0  0  0
    7.3334  -13.9256   19.7091 C   0  0  0  0  0  0  0  0  0  0  0  0
    8.5355  -14.4682   20.4492 C   0  0  2  0  0  0  0  0  0  0  0  0
    9.1016  -15.5511   19.6653 N   0  0  0  0  0  0  0  0  0  0  0  0
    8.1808  -15.0024   21.7780 C   0  0  0  0  0  0  0  0  0  0  0  0
    7.5671  -14.3037   22.6243 O   0  0  0  0  0  0  0  0  0  0  0  0
   11.7678  -19.4088   25.4287 N   0  0  0  0  0  0  0  0  0  0  0  0
   12.1808  -20.2474   24.3430 C   0  0  0  0  0  0  0  0  0  0  0  0
   13.4387  -20.4846   24.1637 N   0  0  0  0  0  0  0  0  0  0  0  0
   11.1744  -20.7875   23.5012 N   0  0  0  0  0  0  0  0  0  0  0  0
    9.7927  -20.3551   23.7667 C   0  0  0  0  0  0  0  0  0  0  0  0
    9.6889  -18.8914   23.4912 C   0  0  0  0  0  0  0  0  0  0  0  0
    8.3361  -18.3022   23.7169 C   0  0  0  0  0  0  0  0  0  0  0  0
    8.1694  -16.8511   23.4847 C   0  0  2  0  0  0  0  0  0  0  0  0
    8.5033  -16.3394   22.2016 N   0  0  0  0  0  0  0  0  0  0  0  0
    8.9192  -16.0722   24.5470 C   0  0  0  0  0  0  0  0  0  0  0  0
   10.0836  -15.7024   24.2836 O   0  0  0  0  0  0  0  0  0  0  0  0
   13.7487  -21.0736   23.3753 C   0  0  0  0  0  0  0  0  0  0  0  0
    6.2920  -12.2382   26.6335 C   0  0  0  0  0  0  0  0  0  0  0  0
    7.4338  -13.0836   26.2210 C   0  0  2  0  0  0  0  0  0  0  0  0
    8.1169  -13.9267   27.2101 C   0  0  0  0  0  0  0  0  0  0  0  0
    8.8142  -13.0947   28.2910 C   0  0  2  0  0  0  0  0  0  0  0  0
    9.0811  -14.9438   26.7465 N   0  0  0  0  0  0  0  0  0  0  0  0
    8.3359  -15.7817   25.7625 C   0  0  0  0  0  0  0  0  0  0  0  0
    9.6488  -15.8399   27.7586 O   0  0  0  0  0  0  0  0  0  0  0  0
   10.5865  -15.4283   28.5491 O   0  0  0  0  0  0  0  0  0  0  0  0
  2  4  1  0
  2  1  1  1
  3  2  1  0
  5  4  1  0
  5  6  1  6
  7  5  1  0
  7  8  2  0
  9 10  1  0
 10 12  1  0
 10 11  2  0
 12 13  1  0
 13 14  1  0
 16 15  1  6
 15 14  1  0
 17 16  1  0
 17  7  1  0
 18 16  1  0
 19 18  2  0
 20 21  1  0
 21 22  1  0
 22 24  1  0
 22 23  1  1
 24 26  1  0
 24 25  1  6
 25 18  1  0
 26 28  1  0
 27 26  2  0
M  END
$$$$
