LRI.pdb
     RDKit          3D

 28 27  0  0  1  0  0  0  0  0999 V2000
    6.4736  -12.8019   16.9169 C   0  0  0  0  0  0  0  0  0  0  0  0
    7.7275  -13.2421   17.6774 C   0  0  1  0  0  0  0  0  0  0  0  0
    8.6716  -12.1097   17.9138 C   0  0  0  0  0  0  0  0  0  0  0  0
    7.3148  -13.9308   18.9620 C   0  0  0  0  0  0  0  0  0  0  0  0
    8.5630  -14.1450   19.7886 C   0  0  2  0  0  0  0  0  0  0  0  0
    9.4623  -15.0044   19.0401 N   0  0  0  0  0  0  0  0  0  0  0  0
    8.2745  -14.7987   21.0795 C   0  0  0  0  0  0  0  0  0  0  0  0
    7.4015  -14.3472   21.8636 O   0  0  0  0  0  0  0  0  0  0  0  0
    9.4447  -22.2324   20.6230 N   0  0  0  0  0  0  0  0  0  0  0  0
   10.4612  -21.7454   21.5073 C   0  0  0  0  0  0  0  0  0  0  0  0
   11.1649  -22.5850   22.1934 N   0  0  0  0  0  0  0  0  0  0  0  0
   10.6520  -20.3419   21.5908 N   0  0  0  0  0  0  0  0  0  0  0  0
    9.6237  -19.4994   20.9586 C   0  0  0  0  0  0  0  0  0  0  0  0
    8.6452  -19.0752   22.0034 C   0  0  0  0  0  0  0  0  0  0  0  0
    9.1396  -18.0229   22.9395 C   0  0  0  0  0  0  0  0  0  0  0  0
    8.6405  -16.6435   22.7508 C   0  0  2  0  0  0  0  0  0  0  0  0
    8.9568  -15.9816   21.5336 N   0  0  0  0  0  0  0  0  0  0  0  0
    9.0694  -15.7786   23.9194 C   0  0  0  0  0  0  0  0  0  0  0  0
   10.2040  -15.2567   23.8708 O   0  0  0  0  0  0  0  0  0  0  0  0
   11.9278  -22.2483   22.8010 C   0  0  0  0  0  0  0  0  0  0  0  0
    6.7757  -11.3977   27.1184 C   0  0  0  0  0  0  0  0  0  0  0  0
    7.7901  -12.4736   27.0710 C   0  0  2  0  0  0  0  0  0  0  0  0
    7.6349  -13.5865   26.1260 C   0  0  0  0  0  0  0  0  0  0  0  0
    6.2745  -14.2761   26.2685 C   0  0  2  0  0  0  0  0  0  0  0  0
    8.6632  -14.6447   26.0842 N   0  0  0  0  0  0  0  0  0  0  0  0
    8.2357  -15.5748   24.9988 C   0  0  0  0  0  0  0  0  0  0  0  0
    8.8591  -15.4375   27.3019 O   0  0  0  0  0  0  0  0  0  0  0  0
    8.2844  -16.5887   27.4362 O   0  0  0  0  0  0  0  0  0  0  0  0
  2  4  1  0
  2  1  1  1
  3  2  1  0
  5  4  1  0
  5  6  1  6
  7  5  1  0
  7  8  2  0
  9 10  1  0
 10 12  1  0
 10 11  2  0
 12 13  1  0
 13 14  1  0
 16 15  1  6
 15 14  1  0
 17 16  1  0
 17  7  1  0
 18 16  1  0
 19 18  2  0
 20 21  1  0
 21 22  1  0
 22 24  1  0
 22 23  1  6
 24 26  1  0
 24 25  1  1
 25 18  1  0
 26 28  1  0
 27 26  2  0
M  END
$$$$
