LRI.pdb
     RDKit          3D

 28 27  0  0  1  0  0  0  0  0999 V2000
    6.3351  -12.5563   18.2082 C   0  0  0  0  0  0  0  0  0  0  0  0
    7.5808  -13.2456   18.7717 C   0  0  1  0  0  0  0  0  0  0  0  0
    8.7767  -12.3517   18.7566 C   0  0  0  0  0  0  0  0  0  0  0  0
    7.2723  -13.7778   20.1561 C   0  0  0  0  0  0  0  0  0  0  0  0
    8.5606  -14.3148   20.7382 C   0  0  2  0  0  0  0  0  0  0  0  0
    9.1596  -15.2120   19.7668 N   0  0  0  0  0  0  0  0  0  0  0  0
    8.3390  -15.0724   21.9847 C   0  0  0  0  0  0  0  0  0  0  0  0
    7.6828  -14.5864   22.9408 O   0  0  0  0  0  0  0  0  0  0  0  0
   12.1843  -20.2480   26.1001 N   0  0  0  0  0  0  0  0  0  0  0  0
   11.1255  -20.8496   26.8546 C   0  0  0  0  0  0  0  0  0  0  0  0
   11.3408  -21.2147   28.0758 N   0  0  0  0  0  0  0  0  0  0  0  0
    9.8695  -21.0200   26.2170 N   0  0  0  0  0  0  0  0  0  0  0  0
    9.7685  -20.5491   24.8260 C   0  0  0  0  0  0  0  0  0  0  0  0
    9.2169  -19.1617   24.8302 C   0  0  0  0  0  0  0  0  0  0  0  0
    9.1671  -18.4995   23.4934 C   0  0  0  0  0  0  0  0  0  0  0  0
    8.7360  -17.0857   23.4407 C   0  0  2  0  0  0  0  0  0  0  0  0
    8.8469  -16.4016   22.1999 N   0  0  0  0  0  0  0  0  0  0  0  0
    9.4484  -16.2918   24.5176 C   0  0  0  0  0  0  0  0  0  0  0  0
   10.6602  -16.0380   24.3472 O   0  0  0  0  0  0  0  0  0  0  0  0
   10.5901  -21.6628   28.6237 C   0  0  0  0  0  0  0  0  0  0  0  0
    6.8645  -12.1765   26.3433 C   0  0  0  0  0  0  0  0  0  0  0  0
    7.9083  -13.1612   25.9836 C   0  0  2  0  0  0  0  0  0  0  0  0
    8.5519  -13.9633   27.0315 C   0  0  0  0  0  0  0  0  0  0  0  0
    9.2435  -13.0886   28.0818 C   0  0  2  0  0  0  0  0  0  0  0  0
    9.5039  -15.0232   26.6448 N   0  0  0  0  0  0  0  0  0  0  0  0
    8.7815  -15.8644   25.6465 C   0  0  0  0  0  0  0  0  0  0  0  0
    9.9901  -15.9081   27.7079 O   0  0  0  0  0  0  0  0  0  0  0  0
    9.2857  -16.9230   28.0917 O   0  0  0  0  0  0  0  0  0  0  0  0
  2  4  1  0
  2  1  1  1
  3  2  1  0
  5  4  1  0
  5  6  1  6
  7  5  1  0
  7  8  2  0
  9 10  1  0
 10 12  1  0
 10 11  2  0
 12 13  1  0
 13 14  1  0
 16 15  1  6
 15 14  1  0
 17 16  1  0
 17  7  1  0
 18 16  1  0
 19 18  2  0
 20 21  1  0
 21 22  1  0
 22 24  1  0
 22 23  1  1
 24 26  1  0
 24 25  1  6
 25 18  1  0
 26 28  1  0
 27 26  2  0
M  END
$$$$
