LRI.pdb
     RDKit          3D

 28 27  0  0  1  0  0  0  0  0999 V2000
    6.7305  -12.1559   18.0681 C   0  0  0  0  0  0  0  0  0  0  0  0
    7.6091  -13.3226   18.5278 C   0  0  1  0  0  0  0  0  0  0  0  0
    9.0497  -12.9416   18.6237 C   0  0  0  0  0  0  0  0  0  0  0  0
    7.0665  -13.8712   19.8316 C   0  0  0  0  0  0  0  0  0  0  0  0
    8.1928  -14.6055   20.5238 C   0  0  2  0  0  0  0  0  0  0  0  0
    8.6093  -15.7056   19.6731 N   0  0  0  0  0  0  0  0  0  0  0  0
    7.7802  -15.1648   21.8253 C   0  0  0  0  0  0  0  0  0  0  0  0
    7.2620  -14.4436   22.7155 O   0  0  0  0  0  0  0  0  0  0  0  0
    5.5685  -20.4468   26.7070 N   0  0  0  0  0  0  0  0  0  0  0  0
    6.7956  -20.8121   27.3500 C   0  0  0  0  0  0  0  0  0  0  0  0
    6.8092  -21.0210   28.6255 N   0  0  0  0  0  0  0  0  0  0  0  0
    7.9578  -20.9295   26.5447 N   0  0  0  0  0  0  0  0  0  0  0  0
    7.8154  -20.5621   25.1264 C   0  0  0  0  0  0  0  0  0  0  0  0
    7.7511  -19.0741   25.0225 C   0  0  0  0  0  0  0  0  0  0  0  0
    7.6469  -18.5436   23.6311 C   0  0  0  0  0  0  0  0  0  0  0  0
    7.6172  -17.0755   23.4541 C   0  0  2  0  0  0  0  0  0  0  0  0
    7.9356  -16.5530   22.1715 N   0  0  0  0  0  0  0  0  0  0  0  0
    8.4957  -16.4152   24.4980 C   0  0  0  0  0  0  0  0  0  0  0  0
    9.7245  -16.3640   24.2756 O   0  0  0  0  0  0  0  0  0  0  0  0
    7.7034  -21.1732   29.1171 C   0  0  0  0  0  0  0  0  0  0  0  0
    5.9901  -12.3307   26.7234 C   0  0  0  0  0  0  0  0  0  0  0  0
    7.0066  -13.2537   26.1723 C   0  0  2  0  0  0  0  0  0  0  0  0
    7.8825  -14.0059   27.0792 C   0  0  0  0  0  0  0  0  0  0  0  0
    8.7109  -13.0812   27.9767 C   0  0  2  0  0  0  0  0  0  0  0  0
    8.8018  -15.0161   26.5194 N   0  0  0  0  0  0  0  0  0  0  0  0
    7.9569  -15.8890   25.6533 C   0  0  0  0  0  0  0  0  0  0  0  0
    9.5090  -15.8792   27.4706 O   0  0  0  0  0  0  0  0  0  0  0  0
    8.9768  -16.9871   27.8741 O   0  0  0  0  0  0  0  0  0  0  0  0
  2  4  1  0
  2  1  1  1
  3  2  1  0
  5  4  1  0
  5  6  1  6
  7  5  1  0
  7  8  2  0
  9 10  1  0
 10 12  1  0
 10 11  2  0
 12 13  1  0
 13 14  1  0
 16 15  1  6
 15 14  1  0
 17 16  1  0
 17  7  1  0
 18 16  1  0
 19 18  2  0
 20 21  1  0
 21 22  1  0
 22 24  1  0
 22 23  1  1
 24 26  1  0
 24 25  1  6
 25 18  1  0
 26 28  1  0
 27 26  2  0
M  END
$$$$
