CDP.pdb
     RDKit          3D

 22 22  0  0  1  0  0  0  0  0999 V2000
   11.3601  -16.4531   20.4639 N   0  0  0  0  0  0  0  0  0  0  0  0
   11.4874  -17.1203   21.7168 C   0  0  1  0  0  0  0  0  0  0  0  0
   12.9357  -16.9733   22.1748 C   0  0  0  0  0  0  0  0  0  0  0  0
   13.1776  -17.8309   23.7445 S   0  0  0  0  0  0  0  0  0  0  0  0
   10.6710  -16.3906   22.7641 C   0  0  0  0  0  0  0  0  0  0  0  0
   10.6305  -15.1508   22.6065 O   0  0  0  0  0  0  0  0  0  0  0  0
   10.0517  -17.1090   23.7799 N   0  0  0  0  0  0  0  0  0  0  0  0
    9.1557  -16.5187   24.7532 C   0  0  1  0  0  0  0  0  0  0  0  0
    8.0416  -17.5538   24.9110 C   0  0  0  0  0  0  0  0  0  0  0  0
    7.0825  -17.6594   23.8267 C   0  0  0  0  0  0  0  0  0  0  0  0
    7.0332  -17.0272   22.7808 O   0  0  0  0  0  0  0  0  0  0  0  0
    9.9463  -16.2991   25.9705 C   0  0  0  0  0  0  0  0  0  0  0  0
   10.8723  -17.1523   26.2893 O   0  0  0  0  0  0  0  0  0  0  0  0
    6.0616  -18.6272   24.0009 O   0  0  0  0  0  0  0  0  0  0  0  0
    9.8436  -15.2288   26.8933 N   0  0  0  0  0  0  0  0  0  0  0  0
    8.9379  -14.0869   26.6559 C   0  0  0  0  0  0  0  0  0  0  0  0
    9.4718  -13.0337   27.6448 C   0  0  0  0  0  0  0  0  0  0  0  0
    9.7121  -13.9368   28.8276 C   0  0  0  0  0  0  0  0  0  0  0  0
   10.4687  -15.1123   28.1658 C   0  0  1  0  0  0  0  0  0  0  0  0
   10.1968  -16.2900   29.0451 C   0  0  0  0  0  0  0  0  0  0  0  0
    9.3155  -17.1016   28.7213 O   0  0  0  0  0  0  0  0  0  0  0  0
   10.9136  -16.4759   30.2021 O   0  0  0  0  0  0  0  0  0  0  0  0
  2  1  1  6
  2  5  1  0
  2  3  1  0
  4  3  1  0
  5  6  2  0
  7  5  1  0
  7  8  1  0
  8 12  1  0
  8  9  1  1
 10  9  1  0
 10 11  2  0
 12 13  2  0
 12 15  1  0
 14 10  1  0
 15 16  1  0
 15 19  1  0
 16 17  1  0
 17 18  1  0
 19 18  1  0
 19 20  1  1
 20 22  1  0
 21 20  2  0
M  END
$$$$
