CDP.pdb
     RDKit          3D

 22 22  0  0  1  0  0  0  0  0999 V2000
    7.5493  -14.9441   18.8655 N   0  0  0  0  0  0  0  0  0  0  0  0
    8.4222  -14.9686   19.9918 C   0  0  1  0  0  0  0  0  0  0  0  0
    9.1749  -13.6414   20.0234 C   0  0  0  0  0  0  0  0  0  0  0  0
    8.0095  -12.2671   19.9183 S   0  0  0  0  0  0  0  0  0  0  0  0
    7.6034  -14.9831   21.2666 C   0  0  0  0  0  0  0  0  0  0  0  0
    6.4236  -14.5958   21.1194 O   0  0  0  0  0  0  0  0  0  0  0  0
    8.1861  -15.4041   22.4560 N   0  0  0  0  0  0  0  0  0  0  0  0
    7.4533  -15.5836   23.6927 C   0  0  1  0  0  0  0  0  0  0  0  0
    7.4880  -17.0934   23.9314 C   0  0  0  0  0  0  0  0  0  0  0  0
    6.9355  -17.5748   25.1843 C   0  0  0  0  0  0  0  0  0  0  0  0
    5.8239  -17.3832   25.6573 O   0  0  0  0  0  0  0  0  0  0  0  0
    8.1581  -14.7993   24.7141 C   0  0  0  0  0  0  0  0  0  0  0  0
    9.4346  -14.9728   24.8800 O   0  0  0  0  0  0  0  0  0  0  0  0
    7.8004  -18.3774   25.9697 O   0  0  0  0  0  0  0  0  0  0  0  0
    7.6181  -13.8223   25.5869 N   0  0  0  0  0  0  0  0  0  0  0  0
    6.2093  -13.3910   25.4883 C   0  0  0  0  0  0  0  0  0  0  0  0
    6.2108  -12.0789   26.2949 C   0  0  0  0  0  0  0  0  0  0  0  0
    7.0806  -12.5218   27.4437 C   0  0  0  0  0  0  0  0  0  0  0  0
    8.2536  -13.1979   26.6959 C   0  0  1  0  0  0  0  0  0  0  0  0
    8.8101  -14.1888   27.6668 C   0  0  0  0  0  0  0  0  0  0  0  0
    8.4366  -15.3710   27.6124 O   0  0  0  0  0  0  0  0  0  0  0  0
    9.7269  -13.7983   28.6123 O   0  0  0  0  0  0  0  0  0  0  0  0
  2  1  1  6
  2  5  1  0
  2  3  1  0
  4  3  1  0
  5  6  2  0
  7  5  1  0
  7  8  1  0
  8 12  1  0
  8  9  1  1
 10  9  1  0
 10 11  2  0
 12 13  2  0
 12 15  1  0
 14 10  1  0
 15 16  1  0
 15 19  1  0
 16 17  1  0
 17 18  1  0
 19 18  1  0
 19 20  1  1
 20 22  1  0
 21 20  2  0
M  END
$$$$
