CDP.pdb
     RDKit          3D

 22 22  0  0  1  0  0  0  0  0999 V2000
    7.9724  -15.2790   18.8354 N   0  0  0  0  0  0  0  0  0  0  0  0
    8.3916  -14.5534   19.9882 C   0  0  1  0  0  0  0  0  0  0  0  0
    8.0900  -13.0778   19.7418 C   0  0  0  0  0  0  0  0  0  0  0  0
    9.3998  -12.3373   18.7449 S   0  0  0  0  0  0  0  0  0  0  0  0
    7.5248  -14.9367   21.1704 C   0  0  0  0  0  0  0  0  0  0  0  0
    6.4530  -15.4986   20.8559 O   0  0  0  0  0  0  0  0  0  0  0  0
    7.9546  -14.6536   22.4614 N   0  0  0  0  0  0  0  0  0  0  0  0
    7.2859  -15.1291   23.6554 C   0  0  1  0  0  0  0  0  0  0  0  0
    7.3951  -16.6513   23.5631 C   0  0  0  0  0  0  0  0  0  0  0  0
    6.9379  -17.4149   24.7097 C   0  0  0  0  0  0  0  0  0  0  0  0
    7.5957  -17.9112   25.6136 O   0  0  0  0  0  0  0  0  0  0  0  0
    8.0018  -14.5452   24.7963 C   0  0  0  0  0  0  0  0  0  0  0  0
    9.2474  -14.8570   24.9920 O   0  0  0  0  0  0  0  0  0  0  0  0
    5.5372  -17.6145   24.7966 O   0  0  0  0  0  0  0  0  0  0  0  0
    7.5043  -13.6358   25.7623 N   0  0  0  0  0  0  0  0  0  0  0  0
    6.1135  -13.1418   25.7158 C   0  0  0  0  0  0  0  0  0  0  0  0
    6.1703  -11.9140   26.6440 C   0  0  0  0  0  0  0  0  0  0  0  0
    7.0259  -12.4988   27.7388 C   0  0  0  0  0  0  0  0  0  0  0  0
    8.1682  -13.1459   26.9212 C   0  0  1  0  0  0  0  0  0  0  0  0
    8.6883  -14.2463   27.7889 C   0  0  0  0  0  0  0  0  0  0  0  0
    8.2614  -15.4007   27.6302 O   0  0  0  0  0  0  0  0  0  0  0  0
    9.6301  -13.9862   28.7543 O   0  0  0  0  0  0  0  0  0  0  0  0
  2  1  1  6
  2  5  1  0
  2  3  1  0
  4  3  1  0
  5  6  2  0
  7  5  1  0
  7  8  1  0
  8 12  1  0
  8  9  1  1
 10  9  1  0
 10 11  2  0
 12 13  2  0
 12 15  1  0
 14 10  1  0
 15 16  1  0
 15 19  1  0
 16 17  1  0
 17 18  1  0
 19 18  1  0
 19 20  1  1
 20 22  1  0
 21 20  2  0
M  END
$$$$
