CDP.pdb
     RDKit          3D

 22 22  0  0  1  0  0  0  0  0999 V2000
    7.4253  -15.7064   19.2113 N   0  0  0  0  0  0  0  0  0  0  0  0
    8.2941  -15.6359   20.3388 C   0  0  1  0  0  0  0  0  0  0  0  0
    9.1702  -14.3976   20.1718 C   0  0  0  0  0  0  0  0  0  0  0  0
    8.1369  -12.9369   19.9340 S   0  0  0  0  0  0  0  0  0  0  0  0
    7.4802  -15.3724   21.5893 C   0  0  0  0  0  0  0  0  0  0  0  0
    6.3032  -15.0143   21.3656 O   0  0  0  0  0  0  0  0  0  0  0  0
    8.0640  -15.5370   22.8397 N   0  0  0  0  0  0  0  0  0  0  0  0
    7.3173  -15.5568   24.0810 C   0  0  1  0  0  0  0  0  0  0  0  0
    7.3063  -17.0309   24.4865 C   0  0  0  0  0  0  0  0  0  0  0  0
    6.4347  -17.9143   23.7338 C   0  0  0  0  0  0  0  0  0  0  0  0
    5.2177  -17.8762   23.6174 O   0  0  0  0  0  0  0  0  0  0  0  0
    8.0371  -14.6836   25.0161 C   0  0  0  0  0  0  0  0  0  0  0  0
    9.3322  -14.7554   25.0839 O   0  0  0  0  0  0  0  0  0  0  0  0
    7.0794  -18.9668   23.0367 O   0  0  0  0  0  0  0  0  0  0  0  0
    7.4932  -13.7166   25.8976 N   0  0  0  0  0  0  0  0  0  0  0  0
    6.0509  -13.3998   25.9035 C   0  0  0  0  0  0  0  0  0  0  0  0
    6.0127  -12.0598   26.6621 C   0  0  0  0  0  0  0  0  0  0  0  0
    7.0059  -12.3872   27.7478 C   0  0  0  0  0  0  0  0  0  0  0  0
    8.1646  -13.0005   26.9271 C   0  0  1  0  0  0  0  0  0  0  0  0
    8.8762  -13.9051   27.8808 C   0  0  0  0  0  0  0  0  0  0  0  0
    9.6801  -13.4224   28.6938 O   0  0  0  0  0  0  0  0  0  0  0  0
    8.6452  -15.2591   27.8607 O   0  0  0  0  0  0  0  0  0  0  0  0
  2  1  1  6
  2  5  1  0
  2  3  1  0
  4  3  1  0
  5  6  2  0
  7  5  1  0
  7  8  1  0
  8 12  1  0
  8  9  1  1
 10  9  1  0
 10 11  2  0
 12 13  2  0
 12 15  1  0
 14 10  1  0
 15 16  1  0
 15 19  1  0
 16 17  1  0
 17 18  1  0
 19 18  1  0
 19 20  1  1
 20 22  1  0
 21 20  2  0
M  END
$$$$
