CDP.pdb
     RDKit          3D

 22 22  0  0  1  0  0  0  0  0999 V2000
    7.5392  -15.2145   18.8340 N   0  0  0  0  0  0  0  0  0  0  0  0
    8.0534  -14.5291   19.9729 C   0  0  1  0  0  0  0  0  0  0  0  0
    7.7500  -13.0440   19.7956 C   0  0  0  0  0  0  0  0  0  0  0  0
    8.9693  -12.2906   18.6986 S   0  0  0  0  0  0  0  0  0  0  0  0
    7.2756  -14.9418   21.2059 C   0  0  0  0  0  0  0  0  0  0  0  0
    6.1817  -15.4944   20.9576 O   0  0  0  0  0  0  0  0  0  0  0  0
    7.8007  -14.6925   22.4683 N   0  0  0  0  0  0  0  0  0  0  0  0
    7.1888  -15.1485   23.6997 C   0  0  1  0  0  0  0  0  0  0  0  0
    7.2871  -16.6723   23.6234 C   0  0  0  0  0  0  0  0  0  0  0  0
    6.9100  -17.4167   24.8110 C   0  0  0  0  0  0  0  0  0  0  0  0
    6.0616  -17.1463   25.6496 O   0  0  0  0  0  0  0  0  0  0  0  0
    7.9615  -14.5524   24.7964 C   0  0  0  0  0  0  0  0  0  0  0  0
    9.1933  -14.9214   24.9798 O   0  0  0  0  0  0  0  0  0  0  0  0
    7.6207  -18.6231   25.0321 O   0  0  0  0  0  0  0  0  0  0  0  0
    7.5358  -13.5744   25.7293 N   0  0  0  0  0  0  0  0  0  0  0  0
    6.1956  -12.9598   25.6483 C   0  0  0  0  0  0  0  0  0  0  0  0
    6.3509  -11.7155   26.5427 C   0  0  0  0  0  0  0  0  0  0  0  0
    7.1370  -12.3423   27.6659 C   0  0  0  0  0  0  0  0  0  0  0  0
    8.2267  -13.1123   26.8837 C   0  0  1  0  0  0  0  0  0  0  0  0
    8.6352  -14.2291   27.7894 C   0  0  0  0  0  0  0  0  0  0  0  0
    8.1137  -15.3468   27.6519 O   0  0  0  0  0  0  0  0  0  0  0  0
    9.5790  -14.0241   28.7662 O   0  0  0  0  0  0  0  0  0  0  0  0
  2  1  1  6
  2  5  1  0
  2  3  1  0
  4  3  1  0
  5  6  2  0
  7  5  1  0
  7  8  1  0
  8 12  1  0
  8  9  1  1
 10  9  1  0
 10 11  2  0
 12 13  2  0
 12 15  1  0
 14 10  1  0
 15 16  1  0
 15 19  1  0
 16 17  1  0
 17 18  1  0
 19 18  1  0
 19 20  1  1
 20 22  1  0
 21 20  2  0
M  END
$$$$
