CDP.pdb
     RDKit          3D

 22 22  0  0  1  0  0  0  0  0999 V2000
    8.3153  -15.1064   18.6925 N   0  0  0  0  0  0  0  0  0  0  0  0
    8.9012  -14.7560   19.9435 C   0  0  1  0  0  0  0  0  0  0  0  0
    9.1665  -13.2533   19.9260 C   0  0  0  0  0  0  0  0  0  0  0  0
    7.6228  -12.3560   19.6620 S   0  0  0  0  0  0  0  0  0  0  0  0
    7.8884  -14.9605   21.0518 C   0  0  0  0  0  0  0  0  0  0  0  0
    6.7525  -15.2943   20.6494 O   0  0  0  0  0  0  0  0  0  0  0  0
    8.2674  -14.7735   22.3757 N   0  0  0  0  0  0  0  0  0  0  0  0
    7.4485  -15.1521   23.5092 C   0  0  1  0  0  0  0  0  0  0  0  0
    7.4973  -16.6802   23.5110 C   0  0  0  0  0  0  0  0  0  0  0  0
    6.8652  -17.3578   24.6282 C   0  0  0  0  0  0  0  0  0  0  0  0
    5.7323  -17.2204   25.0683 O   0  0  0  0  0  0  0  0  0  0  0  0
    8.0585  -14.5318   24.6917 C   0  0  0  0  0  0  0  0  0  0  0  0
    9.2940  -14.8037   24.9860 O   0  0  0  0  0  0  0  0  0  0  0  0
    7.6687  -18.3102   25.3041 O   0  0  0  0  0  0  0  0  0  0  0  0
    7.4631  -13.6246   25.6029 N   0  0  0  0  0  0  0  0  0  0  0  0
    6.0842  -13.1314   25.4138 C   0  0  0  0  0  0  0  0  0  0  0  0
    6.0437  -11.9055   26.3454 C   0  0  0  0  0  0  0  0  0  0  0  0
    6.7820  -12.4920   27.5216 C   0  0  0  0  0  0  0  0  0  0  0  0
    8.0033  -13.1368   26.8252 C   0  0  1  0  0  0  0  0  0  0  0  0
    8.4316  -14.2387   27.7398 C   0  0  0  0  0  0  0  0  0  0  0  0
    8.0194  -15.3919   27.5392 O   0  0  0  0  0  0  0  0  0  0  0  0
    9.2739  -13.9813   28.7939 O   0  0  0  0  0  0  0  0  0  0  0  0
  2  1  1  6
  2  5  1  0
  2  3  1  0
  4  3  1  0
  5  6  2  0
  7  5  1  0
  7  8  1  0
  8 12  1  0
  8  9  1  1
 10  9  1  0
 10 11  2  0
 12 13  2  0
 12 15  1  0
 14 10  1  0
 15 16  1  0
 15 19  1  0
 16 17  1  0
 17 18  1  0
 19 18  1  0
 19 20  1  1
 20 22  1  0
 21 20  2  0
M  END
$$$$
