CDP.pdb
     RDKit          3D

 22 22  0  0  1  0  0  0  0  0999 V2000
    8.0526  -15.4279   18.7361 N   0  0  0  0  0  0  0  0  0  0  0  0
    8.4400  -14.5614   19.7991 C   0  0  1  0  0  0  0  0  0  0  0  0
    8.0935  -13.1345   19.3832 C   0  0  0  0  0  0  0  0  0  0  0  0
    8.9934  -11.9551   20.4113 S   0  0  0  0  0  0  0  0  0  0  0  0
    7.5772  -14.8339   21.0144 C   0  0  0  0  0  0  0  0  0  0  0  0
    6.3675  -15.0104   20.7517 O   0  0  0  0  0  0  0  0  0  0  0  0
    8.1558  -14.8685   22.2775 N   0  0  0  0  0  0  0  0  0  0  0  0
    7.4268  -15.1834   23.4891 C   0  0  1  0  0  0  0  0  0  0  0  0
    7.5792  -16.6978   23.6335 C   0  0  0  0  0  0  0  0  0  0  0  0
    6.7288  -17.5276   22.7998 C   0  0  0  0  0  0  0  0  0  0  0  0
    5.5226  -17.7143   22.8790 O   0  0  0  0  0  0  0  0  0  0  0  0
    8.0562  -14.4124   24.5683 C   0  0  0  0  0  0  0  0  0  0  0  0
    9.3382  -14.5083   24.7537 O   0  0  0  0  0  0  0  0  0  0  0  0
    7.3832  -18.2175   21.7485 O   0  0  0  0  0  0  0  0  0  0  0  0
    7.4335  -13.5253   25.4811 N   0  0  0  0  0  0  0  0  0  0  0  0
    6.0200  -13.1261   25.3298 C   0  0  0  0  0  0  0  0  0  0  0  0
    5.9307  -11.8850   26.2374 C   0  0  0  0  0  0  0  0  0  0  0  0
    6.7441  -12.3965   27.3990 C   0  0  0  0  0  0  0  0  0  0  0  0
    7.9810  -12.9767   26.6740 C   0  0  1  0  0  0  0  0  0  0  0  0
    8.5102  -14.0281   27.5952 C   0  0  0  0  0  0  0  0  0  0  0  0
    9.2648  -13.7003   28.5244 O   0  0  0  0  0  0  0  0  0  0  0  0
    8.1667  -15.3463   27.4185 O   0  0  0  0  0  0  0  0  0  0  0  0
  2  1  1  6
  2  5  1  0
  2  3  1  0
  4  3  1  0
  5  6  2  0
  7  5  1  0
  7  8  1  0
  8 12  1  0
  8  9  1  1
 10  9  1  0
 10 11  2  0
 12 13  2  0
 12 15  1  0
 14 10  1  0
 15 16  1  0
 15 19  1  0
 16 17  1  0
 17 18  1  0
 19 18  1  0
 19 20  1  1
 20 22  1  0
 21 20  2  0
M  END
$$$$
