CDP.pdb
     RDKit          3D

 22 22  0  0  1  0  0  0  0  0999 V2000
    7.7888  -15.7375   18.7485 N   0  0  0  0  0  0  0  0  0  0  0  0
    8.2052  -14.8643   19.7950 C   0  0  1  0  0  0  0  0  0  0  0  0
    7.8936  -13.4358   19.3577 C   0  0  0  0  0  0  0  0  0  0  0  0
    8.2117  -12.2903   20.7158 S   0  0  0  0  0  0  0  0  0  0  0  0
    7.3429  -15.0943   21.0194 C   0  0  0  0  0  0  0  0  0  0  0  0
    6.2261  -15.5981   20.7693 O   0  0  0  0  0  0  0  0  0  0  0  0
    7.8238  -14.7487   22.2766 N   0  0  0  0  0  0  0  0  0  0  0  0
    7.2161  -15.1813   23.5185 C   0  0  1  0  0  0  0  0  0  0  0  0
    7.3385  -16.7048   23.4831 C   0  0  0  0  0  0  0  0  0  0  0  0
    6.9343  -17.4258   24.6762 C   0  0  0  0  0  0  0  0  0  0  0  0
    7.5876  -18.1958   25.3664 O   0  0  0  0  0  0  0  0  0  0  0  0
    7.9766  -14.5442   24.6005 C   0  0  0  0  0  0  0  0  0  0  0  0
    9.2200  -14.8730   24.7824 O   0  0  0  0  0  0  0  0  0  0  0  0
    5.5998  -17.2099   25.1026 O   0  0  0  0  0  0  0  0  0  0  0  0
    7.5269  -13.5641   25.5198 N   0  0  0  0  0  0  0  0  0  0  0  0
    6.1713  -12.9854   25.4320 C   0  0  0  0  0  0  0  0  0  0  0  0
    6.2955  -11.7246   26.3081 C   0  0  0  0  0  0  0  0  0  0  0  0
    7.0988  -12.3146   27.4390 C   0  0  0  0  0  0  0  0  0  0  0  0
    8.2070  -13.0676   26.6664 C   0  0  1  0  0  0  0  0  0  0  0  0
    8.6452  -14.1602   27.5875 C   0  0  0  0  0  0  0  0  0  0  0  0
    8.1433  -15.2897   27.4752 O   0  0  0  0  0  0  0  0  0  0  0  0
    9.5946  -13.9204   28.5509 O   0  0  0  0  0  0  0  0  0  0  0  0
  2  1  1  6
  2  5  1  0
  2  3  1  0
  4  3  1  0
  5  6  2  0
  7  5  1  0
  7  8  1  0
  8 12  1  0
  8  9  1  1
 10  9  1  0
 10 11  2  0
 12 13  2  0
 12 15  1  0
 14 10  1  0
 15 16  1  0
 15 19  1  0
 16 17  1  0
 17 18  1  0
 19 18  1  0
 19 20  1  1
 20 22  1  0
 21 20  2  0
M  END
$$$$
