CDP.pdb
     RDKit          3D

 22 22  0  0  1  0  0  0  0  0999 V2000
    8.0946  -14.8214   15.0544 N   0  0  0  0  0  0  0  0  0  0  0  0
    8.7458  -14.4672   16.2716 C   0  0  1  0  0  0  0  0  0  0  0  0
    8.1892  -13.1186   16.7192 C   0  0  0  0  0  0  0  0  0  0  0  0
    8.8060  -12.7109   18.3658 S   0  0  0  0  0  0  0  0  0  0  0  0
    8.3418  -15.4376   17.3629 C   0  0  0  0  0  0  0  0  0  0  0  0
    7.2153  -15.9537   17.1949 O   0  0  0  0  0  0  0  0  0  0  0  0
    9.2045  -15.6791   18.4253 N   0  0  0  0  0  0  0  0  0  0  0  0
    8.9310  -16.6278   19.4854 C   0  0  1  0  0  0  0  0  0  0  0  0
    9.5888  -17.9223   19.0068 C   0  0  0  0  0  0  0  0  0  0  0  0
    9.4284  -19.0931   19.8495 C   0  0  0  0  0  0  0  0  0  0  0  0
   10.2751  -19.8938   20.2210 O   0  0  0  0  0  0  0  0  0  0  0  0
    9.5233  -16.0712   20.7079 C   0  0  0  0  0  0  0  0  0  0  0  0
   10.8117  -15.9228   20.7792 O   0  0  0  0  0  0  0  0  0  0  0  0
    8.1105  -19.3459   20.3064 O   0  0  0  0  0  0  0  0  0  0  0  0
    8.8547  -15.6429   21.8815 N   0  0  0  0  0  0  0  0  0  0  0  0
    7.3809  -15.6292   21.9708 C   0  0  0  0  0  0  0  0  0  0  0  0
    7.1347  -14.7219   23.1909 C   0  0  0  0  0  0  0  0  0  0  0  0
    8.2221  -15.2532   24.0896 C   0  0  0  0  0  0  0  0  0  0  0  0
    9.4326  -15.2709   23.1271 C   0  0  1  0  0  0  0  0  0  0  0  0
   10.3427  -16.3245   23.6711 C   0  0  0  0  0  0  0  0  0  0  0  0
   10.2024  -17.5009   23.3017 O   0  0  0  0  0  0  0  0  0  0  0  0
   11.3267  -15.9976   24.5721 O   0  0  0  0  0  0  0  0  0  0  0  0
  2  1  1  6
  2  5  1  0
  2  3  1  0
  4  3  1  0
  5  6  2  0
  7  5  1  0
  7  8  1  0
  8 12  1  0
  8  9  1  6
 10  9  1  0
 10 11  2  0
 12 13  2  0
 12 15  1  0
 14 10  1  0
 15 16  1  0
 15 19  1  0
 16 17  1  0
 17 18  1  0
 19 18  1  0
 19 20  1  1
 20 22  1  0
 21 20  2  0
M  END
$$$$
