CDP.pdb
     RDKit          3D

 22 22  0  0  1  0  0  0  0  0999 V2000
    7.7992  -15.8751   18.9059 N   0  0  0  0  0  0  0  0  0  0  0  0
    8.2251  -14.9538   19.9063 C   0  0  1  0  0  0  0  0  0  0  0  0
    7.9398  -13.5459   19.3910 C   0  0  0  0  0  0  0  0  0  0  0  0
    8.4101  -12.3254   20.6347 S   0  0  0  0  0  0  0  0  0  0  0  0
    7.3529  -15.1032   21.1363 C   0  0  0  0  0  0  0  0  0  0  0  0
    6.2039  -15.5347   20.8973 O   0  0  0  0  0  0  0  0  0  0  0  0
    7.8599  -14.7685   22.3862 N   0  0  0  0  0  0  0  0  0  0  0  0
    7.2804  -15.2153   23.6365 C   0  0  1  0  0  0  0  0  0  0  0  0
    7.4765  -16.7315   23.6180 C   0  0  0  0  0  0  0  0  0  0  0  0
    7.1516  -17.4523   24.8352 C   0  0  0  0  0  0  0  0  0  0  0  0
    7.9038  -18.0155   25.6182 O   0  0  0  0  0  0  0  0  0  0  0  0
    8.0148  -14.5293   24.7067 C   0  0  0  0  0  0  0  0  0  0  0  0
    9.2856  -14.7553   24.8513 O   0  0  0  0  0  0  0  0  0  0  0  0
    5.7742  -17.5138   25.1644 O   0  0  0  0  0  0  0  0  0  0  0  0
    7.5106  -13.6005   25.6506 N   0  0  0  0  0  0  0  0  0  0  0  0
    6.1121  -13.1291   25.6011 C   0  0  0  0  0  0  0  0  0  0  0  0
    6.1569  -11.8749   26.4940 C   0  0  0  0  0  0  0  0  0  0  0  0
    7.0295  -12.4155   27.5980 C   0  0  0  0  0  0  0  0  0  0  0  0
    8.1755  -13.0681   26.7900 C   0  0  1  0  0  0  0  0  0  0  0  0
    8.7187  -14.1355   27.6842 C   0  0  0  0  0  0  0  0  0  0  0  0
    8.3287  -15.3053   27.5433 O   0  0  0  0  0  0  0  0  0  0  0  0
    9.6414  -13.8288   28.6545 O   0  0  0  0  0  0  0  0  0  0  0  0
  2  1  1  6
  2  5  1  0
  2  3  1  0
  4  3  1  0
  5  6  2  0
  7  5  1  0
  7  8  1  0
  8 12  1  0
  8  9  1  1
 10  9  1  0
 10 11  2  0
 12 13  2  0
 12 15  1  0
 14 10  1  0
 15 16  1  0
 15 19  1  0
 16 17  1  0
 17 18  1  0
 19 18  1  0
 19 20  1  1
 20 22  1  0
 21 20  2  0
M  END
$$$$
