CDP.pdb
     RDKit          3D

 22 22  0  0  1  0  0  0  0  0999 V2000
    8.1750  -15.2974   18.6897 N   0  0  0  0  0  0  0  0  0  0  0  0
    8.7746  -14.9441   19.9334 C   0  0  1  0  0  0  0  0  0  0  0  0
    9.1362  -13.4628   19.8690 C   0  0  0  0  0  0  0  0  0  0  0  0
    7.6398  -12.4681   19.6984 S   0  0  0  0  0  0  0  0  0  0  0  0
    7.7441  -15.0464   21.0394 C   0  0  0  0  0  0  0  0  0  0  0  0
    6.6311  -15.4730   20.6615 O   0  0  0  0  0  0  0  0  0  0  0  0
    8.0845  -14.6786   22.3357 N   0  0  0  0  0  0  0  0  0  0  0  0
    7.4811  -15.2532   23.5208 C   0  0  1  0  0  0  0  0  0  0  0  0
    7.7931  -16.7460   23.4121 C   0  0  0  0  0  0  0  0  0  0  0  0
    7.3806  -17.5873   24.5206 C   0  0  0  0  0  0  0  0  0  0  0  0
    8.0329  -18.4165   25.1395 O   0  0  0  0  0  0  0  0  0  0  0  0
    8.1084  -14.5924   24.6718 C   0  0  0  0  0  0  0  0  0  0  0  0
    9.3535  -14.8403   24.9462 O   0  0  0  0  0  0  0  0  0  0  0  0
    6.0380  -17.4284   24.9467 O   0  0  0  0  0  0  0  0  0  0  0  0
    7.5210  -13.6676   25.5705 N   0  0  0  0  0  0  0  0  0  0  0  0
    6.1387  -13.1817   25.3867 C   0  0  0  0  0  0  0  0  0  0  0  0
    6.1056  -11.9366   26.2927 C   0  0  0  0  0  0  0  0  0  0  0  0
    6.8586  -12.4965   27.4725 C   0  0  0  0  0  0  0  0  0  0  0  0
    8.0736  -13.1529   26.7761 C   0  0  1  0  0  0  0  0  0  0  0  0
    8.5152  -14.2342   27.7087 C   0  0  0  0  0  0  0  0  0  0  0  0
    8.1069  -15.3932   27.5346 O   0  0  0  0  0  0  0  0  0  0  0  0
    9.3650  -13.9519   28.7503 O   0  0  0  0  0  0  0  0  0  0  0  0
  2  1  1  6
  2  5  1  0
  2  3  1  0
  4  3  1  0
  5  6  2  0
  7  5  1  0
  7  8  1  0
  8 12  1  0
  8  9  1  1
 10  9  1  0
 10 11  2  0
 12 13  2  0
 12 15  1  0
 14 10  1  0
 15 16  1  0
 15 19  1  0
 16 17  1  0
 17 18  1  0
 19 18  1  0
 19 20  1  1
 20 22  1  0
 21 20  2  0
M  END
$$$$
