CDP.pdb
     RDKit          3D

 22 22  0  0  1  0  0  0  0  0999 V2000
    7.4520  -15.1191   18.9754 N   0  0  0  0  0  0  0  0  0  0  0  0
    8.0596  -14.4508   20.0777 C   0  0  1  0  0  0  0  0  0  0  0  0
    7.8558  -12.9514   19.8798 C   0  0  0  0  0  0  0  0  0  0  0  0
    9.0379  -12.3213   18.6700 S   0  0  0  0  0  0  0  0  0  0  0  0
    7.3053  -14.7825   21.3492 C   0  0  0  0  0  0  0  0  0  0  0  0
    6.0639  -14.8325   21.2074 O   0  0  0  0  0  0  0  0  0  0  0  0
    8.0053  -14.9988   22.5302 N   0  0  0  0  0  0  0  0  0  0  0  0
    7.3774  -15.3654   23.7832 C   0  0  1  0  0  0  0  0  0  0  0  0
    7.5372  -16.8845   23.8503 C   0  0  0  0  0  0  0  0  0  0  0  0
    7.0724  -17.5427   25.0575 C   0  0  0  0  0  0  0  0  0  0  0  0
    6.0165  -17.3921   25.6564 O   0  0  0  0  0  0  0  0  0  0  0  0
    8.0952  -14.6402   24.8386 C   0  0  0  0  0  0  0  0  0  0  0  0
    9.3720  -14.8290   24.9839 O   0  0  0  0  0  0  0  0  0  0  0  0
    7.9620  -18.4908   25.6224 O   0  0  0  0  0  0  0  0  0  0  0  0
    7.5680  -13.7084   25.7669 N   0  0  0  0  0  0  0  0  0  0  0  0
    6.1558  -13.2800   25.7157 C   0  0  0  0  0  0  0  0  0  0  0  0
    6.1674  -12.0076   26.5835 C   0  0  0  0  0  0  0  0  0  0  0  0
    7.0610  -12.5000   27.6932 C   0  0  0  0  0  0  0  0  0  0  0  0
    8.2222  -13.1340   26.8920 C   0  0  1  0  0  0  0  0  0  0  0  0
    8.8014  -14.1669   27.8040 C   0  0  0  0  0  0  0  0  0  0  0  0
    8.4414  -15.3493   27.6920 O   0  0  0  0  0  0  0  0  0  0  0  0
    9.7240  -13.8146   28.7588 O   0  0  0  0  0  0  0  0  0  0  0  0
  2  1  1  6
  2  5  1  0
  2  3  1  0
  4  3  1  0
  5  6  2  0
  7  5  1  0
  7  8  1  0
  8 12  1  0
  8  9  1  1
 10  9  1  0
 10 11  2  0
 12 13  2  0
 12 15  1  0
 14 10  1  0
 15 16  1  0
 15 19  1  0
 16 17  1  0
 17 18  1  0
 19 18  1  0
 19 20  1  1
 20 22  1  0
 21 20  2  0
M  END
$$$$
