CDP.pdb
     RDKit          3D

 22 22  0  0  1  0  0  0  0  0999 V2000
    7.7262  -15.7377   18.7830 N   0  0  0  0  0  0  0  0  0  0  0  0
    8.1932  -14.8933   19.8318 C   0  0  1  0  0  0  0  0  0  0  0  0
    7.9320  -13.4488   19.4144 C   0  0  0  0  0  0  0  0  0  0  0  0
    8.3904  -12.3265   20.7515 S   0  0  0  0  0  0  0  0  0  0  0  0
    7.3416  -15.1024   21.0674 C   0  0  0  0  0  0  0  0  0  0  0  0
    6.2058  -15.5690   20.8309 O   0  0  0  0  0  0  0  0  0  0  0  0
    7.8511  -14.7791   22.3193 N   0  0  0  0  0  0  0  0  0  0  0  0
    7.2451  -15.1951   23.5676 C   0  0  1  0  0  0  0  0  0  0  0  0
    7.3628  -16.7193   23.5500 C   0  0  0  0  0  0  0  0  0  0  0  0
    6.9732  -17.4238   24.7577 C   0  0  0  0  0  0  0  0  0  0  0  0
    7.6722  -18.0567   25.5369 O   0  0  0  0  0  0  0  0  0  0  0  0
    8.0102  -14.5475   24.6402 C   0  0  0  0  0  0  0  0  0  0  0  0
    9.2740  -14.8168   24.7711 O   0  0  0  0  0  0  0  0  0  0  0  0
    5.5941  -17.3732   25.0814 O   0  0  0  0  0  0  0  0  0  0  0  0
    7.5444  -13.6151   25.6002 N   0  0  0  0  0  0  0  0  0  0  0  0
    6.1478  -13.1356   25.5987 C   0  0  0  0  0  0  0  0  0  0  0  0
    6.2308  -11.8810   26.4883 C   0  0  0  0  0  0  0  0  0  0  0  0
    7.1379  -12.4260   27.5620 C   0  0  0  0  0  0  0  0  0  0  0  0
    8.2514  -13.0858   26.7154 C   0  0  1  0  0  0  0  0  0  0  0  0
    8.8191  -14.1557   27.5912 C   0  0  0  0  0  0  0  0  0  0  0  0
    8.4164  -15.3230   27.4661 O   0  0  0  0  0  0  0  0  0  0  0  0
    9.7781  -13.8540   28.5272 O   0  0  0  0  0  0  0  0  0  0  0  0
  2  1  1  6
  2  5  1  0
  2  3  1  0
  4  3  1  0
  5  6  2  0
  7  5  1  0
  7  8  1  0
  8 12  1  0
  8  9  1  1
 10  9  1  0
 10 11  2  0
 12 13  2  0
 12 15  1  0
 14 10  1  0
 15 16  1  0
 15 19  1  0
 16 17  1  0
 17 18  1  0
 19 18  1  0
 19 20  1  1
 20 22  1  0
 21 20  2  0
M  END
$$$$
