CDP.pdb
     RDKit          3D

 22 22  0  0  1  0  0  0  0  0999 V2000
    7.0991  -15.0249   19.6370 N   0  0  0  0  0  0  0  0  0  0  0  0
    8.0883  -14.6573   20.5947 C   0  0  1  0  0  0  0  0  0  0  0  0
    8.1020  -13.1339   20.6850 C   0  0  0  0  0  0  0  0  0  0  0  0
    8.8883  -12.4348   19.2185 S   0  0  0  0  0  0  0  0  0  0  0  0
    7.6598  -15.1258   21.9704 C   0  0  0  0  0  0  0  0  0  0  0  0
    6.4220  -15.2363   22.1089 O   0  0  0  0  0  0  0  0  0  0  0  0
    8.6203  -15.3891   22.9397 N   0  0  0  0  0  0  0  0  0  0  0  0
    8.3271  -16.0041   24.2182 C   0  0  1  0  0  0  0  0  0  0  0  0
    8.4250  -17.5046   23.9418 C   0  0  0  0  0  0  0  0  0  0  0  0
    8.2370  -18.3959   25.0717 C   0  0  0  0  0  0  0  0  0  0  0  0
    8.9102  -19.3595   25.4101 O   0  0  0  0  0  0  0  0  0  0  0  0
    9.3317  -15.5024   25.1639 C   0  0  0  0  0  0  0  0  0  0  0  0
   10.5477  -15.9541   25.0983 O   0  0  0  0  0  0  0  0  0  0  0  0
    7.1208  -18.1135   25.8987 O   0  0  0  0  0  0  0  0  0  0  0  0
    9.1574  -14.5391   26.1883 N   0  0  0  0  0  0  0  0  0  0  0  0
    7.9074  -13.7636   26.3165 C   0  0  0  0  0  0  0  0  0  0  0  0
    8.3336  -12.6040   27.2363 C   0  0  0  0  0  0  0  0  0  0  0  0
    9.1710  -13.3884   28.2140 C   0  0  0  0  0  0  0  0  0  0  0  0
   10.0441  -14.2349   27.2584 C   0  0  1  0  0  0  0  0  0  0  0  0
   10.4197  -15.4459   28.0499 C   0  0  0  0  0  0  0  0  0  0  0  0
   11.3554  -15.3767   28.8623 O   0  0  0  0  0  0  0  0  0  0  0  0
    9.7380  -16.6266   27.8826 O   0  0  0  0  0  0  0  0  0  0  0  0
  2  1  1  6
  2  5  1  0
  2  3  1  0
  4  3  1  0
  5  6  2  0
  7  5  1  0
  7  8  1  0
  8 12  1  0
  8  9  1  6
 10  9  1  0
 10 11  2  0
 12 13  2  0
 12 15  1  0
 14 10  1  0
 15 16  1  0
 15 19  1  0
 16 17  1  0
 17 18  1  0
 19 18  1  0
 19 20  1  1
 20 22  1  0
 21 20  2  0
M  END
$$$$
