ERN.pdb
     RDKit          3D

 29 28  0  0  1  0  0  0  0  0999 V2000
   12.7480  -18.9808   15.6252 N   0  0  0  0  0  0  0  0  0  0  0  0
   12.1664  -19.8018   16.7372 C   0  0  1  0  0  0  0  0  0  0  0  0
   13.1112  -20.9317   16.9000 C   0  0  0  0  0  0  0  0  0  0  0  0
   14.5534  -20.5943   17.0975 C   0  0  0  0  0  0  0  0  0  0  0  0
   15.4505  -21.7554   17.2312 C   0  0  0  0  0  0  0  0  0  0  0  0
   15.8837  -22.0707   18.3625 O   0  0  0  0  0  0  0  0  0  0  0  0
   12.0489  -18.8631   17.8465 C   0  0  0  0  0  0  0  0  0  0  0  0
   12.9387  -18.0642   18.2317 O   0  0  0  0  0  0  0  0  0  0  0  0
   15.8224  -22.4998   16.1439 O   0  0  0  0  0  0  0  0  0  0  0  0
    6.7968  -12.8199   19.5998 N   0  0  0  0  0  0  0  0  0  0  0  0
    7.4538  -12.9805   20.8526 C   0  0  0  0  0  0  0  0  0  0  0  0
    7.6023  -11.9612   21.6008 N   0  0  0  0  0  0  0  0  0  0  0  0
    7.9095  -14.2709   21.2014 N   0  0  0  0  0  0  0  0  0  0  0  0
    8.3554  -15.1941   20.1563 C   0  0  0  0  0  0  0  0  0  0  0  0
    8.6764  -16.5117   20.7487 C   0  0  0  0  0  0  0  0  0  0  0  0
    9.1024  -17.6186   19.8658 C   0  0  0  0  0  0  0  0  0  0  0  0
   10.5508  -17.7971   19.5443 C   0  0  2  0  0  0  0  0  0  0  0  0
   10.8184  -18.8189   18.5857 N   0  0  0  0  0  0  0  0  0  0  0  0
   11.3517  -18.0388   20.7729 C   0  0  0  0  0  0  0  0  0  0  0  0
   11.5309  -19.2042   21.2097 O   0  0  0  0  0  0  0  0  0  0  0  0
    8.1606  -11.9836   22.4688 N   0  0  0  0  0  0  0  0  0  0  0  0
   16.1121  -16.7732   23.6216 C   0  0  0  0  0  0  0  0  0  0  0  0
   14.7541  -16.3441   23.8573 O   0  0  0  0  0  0  0  0  0  0  0  0
   14.4175  -16.1109   25.0347 C   0  0  0  0  0  0  0  0  0  0  0  0
   13.8223  -16.1957   22.7294 C   0  0  1  0  0  0  0  0  0  0  0  0
   12.7238  -17.2177   22.7342 N   0  0  0  0  0  0  0  0  0  0  0  0
   11.9454  -16.9778   21.5030 C   0  0  0  0  0  0  0  0  0  0  0  0
   11.8681  -17.2308   23.9089 O   0  0  0  0  0  0  0  0  0  0  0  0
   12.0757  -17.9567   25.0536 O   0  0  0  0  0  0  0  0  0  0  0  0
  2  1  1  6
  2  3  1  0
  3  4  1  0
  5  4  1  0
  5  9  1  0
  6  5  2  0
  7 18  1  0
  7  2  1  0
  8  7  2  0
 11 10  1  0
 11 13  1  0
 12 11  2  0
 13 14  1  0
 15 14  1  0
 17 16  1  1
 16 15  1  0
 17 18  1  0
 19 26  1  0
 19 17  1  0
 20 19  2  0
 22 21  1  0
 22 23  2  0
 25 24  1  6
 24 22  1  0
 25 27  1  0
 25 26  1  0
 27 28  1  0
 29 27  2  0
M  END
$$$$
