ERN.pdb
     RDKit          3D

 29 28  0  0  1  0  0  0  0  0999 V2000
   10.5294  -20.4092   18.2820 N   0  0  0  0  0  0  0  0  0  0  0  0
   10.2944  -19.9689   19.6961 C   0  0  1  0  0  0  0  0  0  0  0  0
   11.1355  -20.8745   20.5135 C   0  0  0  0  0  0  0  0  0  0  0  0
   11.9967  -21.8529   19.7831 C   0  0  0  0  0  0  0  0  0  0  0  0
   13.2978  -22.1296   20.4167 C   0  0  0  0  0  0  0  0  0  0  0  0
   13.6514  -21.4593   21.4131 O   0  0  0  0  0  0  0  0  0  0  0  0
   10.6460  -18.5539   19.6896 C   0  0  0  0  0  0  0  0  0  0  0  0
   11.2783  -17.9571   18.7827 O   0  0  0  0  0  0  0  0  0  0  0  0
   14.1316  -23.1054   19.9400 O   0  0  0  0  0  0  0  0  0  0  0  0
    6.5807  -12.0302   18.5235 N   0  0  0  0  0  0  0  0  0  0  0  0
    7.3861  -13.1103   18.0635 C   0  0  0  0  0  0  0  0  0  0  0  0
    7.3538  -13.4147   16.8277 N   0  0  0  0  0  0  0  0  0  0  0  0
    8.1835  -13.7919   19.0090 N   0  0  0  0  0  0  0  0  0  0  0  0
    8.3662  -13.2309   20.3488 C   0  0  0  0  0  0  0  0  0  0  0  0
    9.3523  -14.0355   21.1039 C   0  0  0  0  0  0  0  0  0  0  0  0
    9.2554  -15.5106   21.0786 C   0  0  0  0  0  0  0  0  0  0  0  0
   10.4787  -16.3314   20.8276 C   0  0  2  0  0  0  0  0  0  0  0  0
   10.2473  -17.7386   20.8025 N   0  0  0  0  0  0  0  0  0  0  0  0
   11.5516  -16.0162   21.8068 C   0  0  0  0  0  0  0  0  0  0  0  0
   11.9401  -14.8334   21.9828 O   0  0  0  0  0  0  0  0  0  0  0  0
    7.8892  -14.2046   16.4342 N   0  0  0  0  0  0  0  0  0  0  0  0
   10.8438  -16.4288   24.8069 C   0  0  0  0  0  0  0  0  0  0  0  0
   11.7580  -17.4191   25.3239 O   0  0  0  0  0  0  0  0  0  0  0  0
   11.3824  -18.0997   26.2984 C   0  0  0  0  0  0  0  0  0  0  0  0
   13.0790  -17.5972   24.7032 C   0  0  2  0  0  0  0  0  0  0  0  0
   13.2908  -16.7185   23.5056 N   0  0  0  0  0  0  0  0  0  0  0  0
   12.1812  -17.0240   22.5809 C   0  0  0  0  0  0  0  0  0  0  0  0
   14.5800  -16.8377   22.8454 O   0  0  0  0  0  0  0  0  0  0  0  0
   15.7980  -16.5089   23.3825 O   0  0  0  0  0  0  0  0  0  0  0  0
  2  1  1  6
  2  3  1  0
  3  4  1  0
  5  4  1  0
  5  9  1  0
  6  5  2  0
  7 18  1  0
  7  2  1  0
  8  7  2  0
 11 10  1  0
 11 13  1  0
 12 11  2  0
 13 14  1  0
 15 14  1  0
 17 16  1  1
 16 15  1  0
 17 18  1  0
 19 26  1  0
 19 17  1  0
 20 19  2  0
 22 21  1  0
 22 23  2  0
 25 24  1  1
 24 22  1  0
 25 27  1  0
 25 26  1  0
 27 28  1  0
 29 27  2  0
M  END
$$$$
