ERN.pdb
     RDKit          3D

 29 28  0  0  1  0  0  0  0  0999 V2000
   11.4268  -19.5187   17.8013 N   0  0  0  0  0  0  0  0  0  0  0  0
   10.5900  -19.8385   19.0039 C   0  0  1  0  0  0  0  0  0  0  0  0
   10.8713  -21.2660   19.2851 C   0  0  0  0  0  0  0  0  0  0  0  0
   12.2581  -21.6180   19.7157 C   0  0  0  0  0  0  0  0  0  0  0  0
   12.4851  -23.0516   19.9688 C   0  0  0  0  0  0  0  0  0  0  0  0
   11.5266  -23.8515   19.8768 O   0  0  0  0  0  0  0  0  0  0  0  0
   11.0160  -18.8639   20.0011 C   0  0  0  0  0  0  0  0  0  0  0  0
   12.1406  -18.3061   20.0512 O   0  0  0  0  0  0  0  0  0  0  0  0
   13.7234  -23.5307   20.3030 O   0  0  0  0  0  0  0  0  0  0  0  0
    6.9398  -12.0289   20.3473 N   0  0  0  0  0  0  0  0  0  0  0  0
    7.7397  -12.5129   19.2735 C   0  0  0  0  0  0  0  0  0  0  0  0
    7.6797  -11.9180   18.1495 N   0  0  0  0  0  0  0  0  0  0  0  0
    8.5627  -13.6351   19.5136 N   0  0  0  0  0  0  0  0  0  0  0  0
    8.5254  -14.3014   20.8166 C   0  0  0  0  0  0  0  0  0  0  0  0
    9.4005  -15.4948   20.7996 C   0  0  0  0  0  0  0  0  0  0  0  0
    9.5420  -16.3070   22.0270 C   0  0  0  0  0  0  0  0  0  0  0  0
   10.4257  -17.5120   22.0227 C   0  0  2  0  0  0  0  0  0  0  0  0
   10.0917  -18.4822   21.0318 N   0  0  0  0  0  0  0  0  0  0  0  0
   10.4686  -18.1560   23.3617 C   0  0  0  0  0  0  0  0  0  0  0  0
    9.4336  -18.6533   23.8740 O   0  0  0  0  0  0  0  0  0  0  0  0
    8.2182  -12.2285   17.3253 N   0  0  0  0  0  0  0  0  0  0  0  0
   12.2404  -21.6938   26.5243 C   0  0  0  0  0  0  0  0  0  0  0  0
   11.8914  -21.8116   25.1285 O   0  0  0  0  0  0  0  0  0  0  0  0
   11.8160  -22.9585   24.6462 C   0  0  0  0  0  0  0  0  0  0  0  0
   11.6389  -20.6042   24.3281 C   0  0  1  0  0  0  0  0  0  0  0  0
   11.9080  -19.3329   25.0783 N   0  0  0  0  0  0  0  0  0  0  0  0
   11.6661  -18.2391   24.1168 C   0  0  0  0  0  0  0  0  0  0  0  0
   13.2201  -19.2189   25.6928 O   0  0  0  0  0  0  0  0  0  0  0  0
   13.5339  -19.5197   26.9933 O   0  0  0  0  0  0  0  0  0  0  0  0
  2  1  1  6
  2  3  1  0
  3  4  1  0
  5  4  1  0
  5  9  1  0
  6  5  2  0
  7 18  1  0
  7  2  1  0
  8  7  2  0
 11 10  1  0
 11 13  1  0
 12 11  2  0
 13 14  1  0
 15 14  1  0
 17 16  1  1
 16 15  1  0
 17 18  1  0
 19 26  1  0
 19 17  1  0
 20 19  2  0
 22 21  1  0
 22 23  2  0
 25 24  1  1
 24 22  1  0
 25 27  1  0
 25 26  1  0
 27 28  1  0
 29 27  2  0
M  END
$$$$
