ERN.pdb
     RDKit          3D

 29 28  0  0  1  0  0  0  0  0999 V2000
   10.3880  -18.1188   18.6011 N   0  0  0  0  0  0  0  0  0  0  0  0
   11.6890  -17.3757   18.6631 C   0  0  1  0  0  0  0  0  0  0  0  0
   11.7641  -16.6470   17.3750 C   0  0  0  0  0  0  0  0  0  0  0  0
   11.0280  -17.2325   16.2140 C   0  0  0  0  0  0  0  0  0  0  0  0
   11.1672  -16.4878   14.9504 C   0  0  0  0  0  0  0  0  0  0  0  0
   10.3256  -16.6592   14.0397 O   0  0  0  0  0  0  0  0  0  0  0  0
   11.5831  -16.5769   19.8782 C   0  0  0  0  0  0  0  0  0  0  0  0
   12.5016  -15.8877   20.3879 O   0  0  0  0  0  0  0  0  0  0  0  0
   12.1984  -15.6100   14.7483 O   0  0  0  0  0  0  0  0  0  0  0  0
    8.5076  -12.1827   18.5382 N   0  0  0  0  0  0  0  0  0  0  0  0
    7.9304  -13.3936   18.0612 C   0  0  0  0  0  0  0  0  0  0  0  0
    8.0603  -13.6899   16.8298 N   0  0  0  0  0  0  0  0  0  0  0  0
    7.2392  -14.2075   18.9855 N   0  0  0  0  0  0  0  0  0  0  0  0
    7.2158  -13.8431   20.4032 C   0  0  0  0  0  0  0  0  0  0  0  0
    8.5718  -13.9734   20.9813 C   0  0  0  0  0  0  0  0  0  0  0  0
    8.8626  -15.0936   21.9015 C   0  0  0  0  0  0  0  0  0  0  0  0
   10.1620  -15.8239   21.7956 C   0  0  2  0  0  0  0  0  0  0  0  0
   10.3303  -16.5505   20.5797 N   0  0  0  0  0  0  0  0  0  0  0  0
   10.3689  -16.7305   22.9551 C   0  0  0  0  0  0  0  0  0  0  0  0
    9.4305  -16.9865   23.7520 O   0  0  0  0  0  0  0  0  0  0  0  0
    7.6829  -14.5605   16.4234 N   0  0  0  0  0  0  0  0  0  0  0  0
   14.9231  -15.8362   22.1945 C   0  0  0  0  0  0  0  0  0  0  0  0
   14.5662  -16.1436   23.5591 O   0  0  0  0  0  0  0  0  0  0  0  0
   15.4290  -16.6913   24.2729 C   0  0  0  0  0  0  0  0  0  0  0  0
   13.2253  -15.8110   24.0625 C   0  0  2  0  0  0  0  0  0  0  0  0
   12.4128  -17.0210   24.4188 N   0  0  0  0  0  0  0  0  0  0  0  0
   11.6212  -17.3433   23.2150 C   0  0  0  0  0  0  0  0  0  0  0  0
   11.5660  -16.8990   25.5937 O   0  0  0  0  0  0  0  0  0  0  0  0
   10.7288  -15.8522   25.8829 O   0  0  0  0  0  0  0  0  0  0  0  0
  2  1  1  6
  2  3  1  0
  3  4  1  0
  5  4  1  0
  5  9  1  0
  6  5  2  0
  7 18  1  0
  7  2  1  0
  8  7  2  0
 11 10  1  0
 11 13  1  0
 12 11  2  0
 13 14  1  0
 15 14  1  0
 17 16  1  6
 16 15  1  0
 17 18  1  0
 19 26  1  0
 19 17  1  0
 20 19  2  0
 22 21  1  0
 22 23  2  0
 25 24  1  6
 24 22  1  0
 25 27  1  0
 25 26  1  0
 27 28  1  0
 29 27  2  0
M  END
$$$$
