ERN.pdb
     RDKit          3D

 29 28  0  0  1  0  0  0  0  0999 V2000
   12.1314  -19.4069   20.5143 N   0  0  0  0  0  0  0  0  0  0  0  0
   13.2150  -18.8412   21.3829 C   0  0  1  0  0  0  0  0  0  0  0  0
   14.0879  -18.0911   20.4494 C   0  0  0  0  0  0  0  0  0  0  0  0
   13.6553  -18.0138   19.0213 C   0  0  0  0  0  0  0  0  0  0  0  0
   14.6602  -17.4604   18.0968 C   0  0  0  0  0  0  0  0  0  0  0  0
   15.8178  -17.2292   18.5135 O   0  0  0  0  0  0  0  0  0  0  0  0
   12.4956  -18.0713   22.3906 C   0  0  0  0  0  0  0  0  0  0  0  0
   13.0164  -17.4313   23.3379 O   0  0  0  0  0  0  0  0  0  0  0  0
   14.3569  -17.1926   16.7888 O   0  0  0  0  0  0  0  0  0  0  0  0
    8.1505  -12.5588   20.7663 N   0  0  0  0  0  0  0  0  0  0  0  0
    8.5241  -13.1651   19.5336 C   0  0  0  0  0  0  0  0  0  0  0  0
    8.9675  -12.4251   18.5972 N   0  0  0  0  0  0  0  0  0  0  0  0
    8.3818  -14.5650   19.4136 N   0  0  0  0  0  0  0  0  0  0  0  0
    8.0062  -15.3627   20.5823 C   0  0  0  0  0  0  0  0  0  0  0  0
    9.2131  -15.7172   21.3619 C   0  0  0  0  0  0  0  0  0  0  0  0
    9.0787  -16.5879   22.5493 C   0  0  0  0  0  0  0  0  0  0  0  0
   10.2988  -17.1725   23.1839 C   0  0  2  0  0  0  0  0  0  0  0  0
   11.0621  -18.0157   22.3232 N   0  0  0  0  0  0  0  0  0  0  0  0
    9.9612  -17.9037   24.4331 C   0  0  0  0  0  0  0  0  0  0  0  0
    8.8299  -18.4299   24.5893 O   0  0  0  0  0  0  0  0  0  0  0  0
    9.2213  -12.7949   17.6675 N   0  0  0  0  0  0  0  0  0  0  0  0
   11.3550  -22.6208   26.6541 C   0  0  0  0  0  0  0  0  0  0  0  0
   10.4630  -21.4958   26.8044 O   0  0  0  0  0  0  0  0  0  0  0  0
    9.6386  -21.5325   27.7387 C   0  0  0  0  0  0  0  0  0  0  0  0
   10.5464  -20.3603   25.8739 C   0  0  2  0  0  0  0  0  0  0  0  0
   10.7054  -19.0399   26.5683 N   0  0  0  0  0  0  0  0  0  0  0  0
   10.8890  -18.0410   25.4968 C   0  0  0  0  0  0  0  0  0  0  0  0
   11.7693  -18.9609   27.5554 O   0  0  0  0  0  0  0  0  0  0  0  0
   12.9878  -18.3552   27.3856 O   0  0  0  0  0  0  0  0  0  0  0  0
  2  1  1  6
  2  3  1  0
  3  4  1  0
  5  4  1  0
  5  9  1  0
  6  5  2  0
  7 18  1  0
  7  2  1  0
  8  7  2  0
 11 10  1  0
 11 13  1  0
 12 11  2  0
 13 14  1  0
 15 14  1  0
 17 16  1  6
 16 15  1  0
 17 18  1  0
 19 26  1  0
 19 17  1  0
 20 19  2  0
 22 21  1  0
 22 23  2  0
 25 24  1  6
 24 22  1  0
 25 27  1  0
 25 26  1  0
 27 28  1  0
 29 27  2  0
M  END
$$$$
