ERN.pdb
     RDKit          3D

 29 28  0  0  1  0  0  0  0  0999 V2000
    8.7835  -19.3719   20.6340 N   0  0  0  0  0  0  0  0  0  0  0  0
    9.5248  -19.4023   19.3308 C   0  0  1  0  0  0  0  0  0  0  0  0
    8.4800  -19.1870   18.3023 C   0  0  0  0  0  0  0  0  0  0  0  0
    8.9012  -19.2724   16.8712 C   0  0  0  0  0  0  0  0  0  0  0  0
    8.3147  -20.3938   16.1167 C   0  0  0  0  0  0  0  0  0  0  0  0
    8.8057  -21.5390   16.2364 O   0  0  0  0  0  0  0  0  0  0  0  0
   10.5419  -18.3681   19.4777 C   0  0  0  0  0  0  0  0  0  0  0  0
   11.5789  -18.2514   18.7781 O   0  0  0  0  0  0  0  0  0  0  0  0
    7.2420  -20.2121   15.2854 O   0  0  0  0  0  0  0  0  0  0  0  0
    6.7799  -13.7341   18.4001 N   0  0  0  0  0  0  0  0  0  0  0  0
    7.6768  -12.6960   18.7809 C   0  0  0  0  0  0  0  0  0  0  0  0
    7.3089  -11.8664   19.6738 N   0  0  0  0  0  0  0  0  0  0  0  0
    8.9357  -12.6409   18.1434 N   0  0  0  0  0  0  0  0  0  0  0  0
   10.0796  -13.3448   18.7257 C   0  0  0  0  0  0  0  0  0  0  0  0
    9.6077  -14.4634   19.5720 C   0  0  0  0  0  0  0  0  0  0  0  0
   10.4516  -14.9301   20.6928 C   0  0  0  0  0  0  0  0  0  0  0  0
   11.2023  -16.2165   20.5720 C   0  0  2  0  0  0  0  0  0  0  0  0
   10.3743  -17.3758   20.5022 N   0  0  0  0  0  0  0  0  0  0  0  0
   12.1910  -16.3709   21.6711 C   0  0  0  0  0  0  0  0  0  0  0  0
   13.1012  -15.5215   21.8469 O   0  0  0  0  0  0  0  0  0  0  0  0
    7.8879  -11.0606   19.9583 N   0  0  0  0  0  0  0  0  0  0  0  0
   14.8145  -18.3428   25.7596 C   0  0  0  0  0  0  0  0  0  0  0  0
   13.5462  -19.0228   25.6464 O   0  0  0  0  0  0  0  0  0  0  0  0
   13.2684  -19.8760   26.5117 C   0  0  0  0  0  0  0  0  0  0  0  0
   12.6339  -18.7004   24.5392 C   0  0  1  0  0  0  0  0  0  0  0  0
   13.1894  -17.6722   23.5983 N   0  0  0  0  0  0  0  0  0  0  0  0
   12.1549  -17.4720   22.5642 C   0  0  0  0  0  0  0  0  0  0  0  0
   14.4801  -17.9797   23.0052 O   0  0  0  0  0  0  0  0  0  0  0  0
   15.7056  -17.6091   23.4963 O   0  0  0  0  0  0  0  0  0  0  0  0
  2  1  1  1
  2  3  1  0
  3  4  1  0
  5  4  1  0
  5  9  1  0
  6  5  2  0
  7 18  1  0
  7  2  1  0
  8  7  2  0
 11 10  1  0
 11 13  1  0
 12 11  2  0
 13 14  1  0
 15 14  1  0
 17 16  1  1
 16 15  1  0
 17 18  1  0
 19 26  1  0
 19 17  1  0
 20 19  2  0
 22 21  1  0
 22 23  2  0
 25 24  1  1
 24 22  1  0
 25 27  1  0
 25 26  1  0
 27 28  1  0
 29 27  2  0
M  END
$$$$
