ERN.pdb
     RDKit          3D

 29 28  0  0  1  0  0  0  0  0999 V2000
   16.7098  -17.5168   16.1049 N   0  0  0  0  0  0  0  0  0  0  0  0
   17.2748  -18.3355   17.2271 C   0  0  1  0  0  0  0  0  0  0  0  0
   18.7348  -18.0887   17.1705 C   0  0  0  0  0  0  0  0  0  0  0  0
   19.4822  -18.6688   16.0140 C   0  0  0  0  0  0  0  0  0  0  0  0
   20.9378  -18.4416   16.0378 C   0  0  0  0  0  0  0  0  0  0  0  0
   21.3788  -17.3129   16.3520 O   0  0  0  0  0  0  0  0  0  0  0  0
   16.5614  -17.8603   18.4064 C   0  0  0  0  0  0  0  0  0  0  0  0
   16.0077  -16.7393   18.5292 O   0  0  0  0  0  0  0  0  0  0  0  0
   21.8218  -19.4387   15.7236 O   0  0  0  0  0  0  0  0  0  0  0  0
   11.0902  -21.8484   20.3543 N   0  0  0  0  0  0  0  0  0  0  0  0
   11.4042  -20.8384   21.3073 C   0  0  0  0  0  0  0  0  0  0  0  0
   10.5315  -19.9481   21.5655 N   0  0  0  0  0  0  0  0  0  0  0  0
   12.6760  -20.8777   21.9199 N   0  0  0  0  0  0  0  0  0  0  0  0
   13.0083  -19.9166   22.9731 C   0  0  0  0  0  0  0  0  0  0  0  0
   14.0220  -18.9573   22.4810 C   0  0  0  0  0  0  0  0  0  0  0  0
   14.7749  -19.2682   21.2471 C   0  0  0  0  0  0  0  0  0  0  0  0
   15.8141  -18.3158   20.7510 C   0  0  2  0  0  0  0  0  0  0  0  0
   16.4608  -18.7261   19.5477 N   0  0  0  0  0  0  0  0  0  0  0  0
   16.8318  -18.0330   21.7968 C   0  0  0  0  0  0  0  0  0  0  0  0
   17.4726  -18.9655   22.3452 O   0  0  0  0  0  0  0  0  0  0  0  0
   10.6918  -19.1927   22.2506 N   0  0  0  0  0  0  0  0  0  0  0  0
   20.7544  -15.6607   22.9103 C   0  0  0  0  0  0  0  0  0  0  0  0
   19.7638  -14.6151   23.0065 O   0  0  0  0  0  0  0  0  0  0  0  0
   20.1522  -13.4373   22.8807 C   0  0  0  0  0  0  0  0  0  0  0  0
   18.3535  -14.9564   23.2449 C   0  0  2  0  0  0  0  0  0  0  0  0
   18.1046  -16.4353   23.2905 N   0  0  0  0  0  0  0  0  0  0  0  0
   17.1251  -16.7119   22.2211 C   0  0  0  0  0  0  0  0  0  0  0  0
   17.6615  -16.9698   24.5673 O   0  0  0  0  0  0  0  0  0  0  0  0
   18.4513  -17.5807   25.5071 O   0  0  0  0  0  0  0  0  0  0  0  0
  2  1  1  6
  2  3  1  0
  3  4  1  0
  5  4  1  0
  5  9  1  0
  6  5  2  0
  7 18  1  0
  7  2  1  0
  8  7  2  0
 11 10  1  0
 11 13  1  0
 12 11  2  0
 13 14  1  0
 15 14  1  0
 17 16  1  1
 16 15  1  0
 17 18  1  0
 19 26  1  0
 19 17  1  0
 20 19  2  0
 22 21  1  0
 22 23  2  0
 25 24  1  6
 24 22  1  0
 25 27  1  0
 25 26  1  0
 27 28  1  0
 29 27  2  0
M  END
$$$$
