ERN.pdb
     RDKit          3D

 29 28  0  0  1  0  0  0  0  0999 V2000
   10.1357  -18.9883   17.6677 N   0  0  0  0  0  0  0  0  0  0  0  0
    9.1568  -19.1662   18.7897 C   0  0  1  0  0  0  0  0  0  0  0  0
    9.0830  -20.6324   18.9913 C   0  0  0  0  0  0  0  0  0  0  0  0
    7.9944  -21.3669   18.2784 C   0  0  0  0  0  0  0  0  0  0  0  0
    7.7016  -22.7105   18.8075 C   0  0  0  0  0  0  0  0  0  0  0  0
    8.3527  -23.1413   19.7860 O   0  0  0  0  0  0  0  0  0  0  0  0
    9.7140  -18.3689   19.8757 C   0  0  0  0  0  0  0  0  0  0  0  0
   10.9351  -18.1555   20.0802 O   0  0  0  0  0  0  0  0  0  0  0  0
    6.7311  -23.5009   18.2527 O   0  0  0  0  0  0  0  0  0  0  0  0
    6.6323  -11.4286   19.3004 N   0  0  0  0  0  0  0  0  0  0  0  0
    7.7985  -12.1994   19.5705 C   0  0  0  0  0  0  0  0  0  0  0  0
    8.8288  -11.6096   20.0305 N   0  0  0  0  0  0  0  0  0  0  0  0
    7.7505  -13.5868   19.3118 N   0  0  0  0  0  0  0  0  0  0  0  0
    8.5184  -14.5116   20.1476 C   0  0  0  0  0  0  0  0  0  0  0  0
    7.7061  -14.9369   21.3092 C   0  0  0  0  0  0  0  0  0  0  0  0
    8.2870  -15.8725   22.2958 C   0  0  0  0  0  0  0  0  0  0  0  0
    9.2805  -16.8971   21.8527 C   0  0  2  0  0  0  0  0  0  0  0  0
    8.8153  -17.7556   20.8130 N   0  0  0  0  0  0  0  0  0  0  0  0
    9.7645  -17.7117   22.9979 C   0  0  0  0  0  0  0  0  0  0  0  0
    9.0995  -18.6907   23.4225 O   0  0  0  0  0  0  0  0  0  0  0  0
    9.7140  -12.1041   20.2241 N   0  0  0  0  0  0  0  0  0  0  0  0
   12.9026  -19.7493   26.6545 C   0  0  0  0  0  0  0  0  0  0  0  0
   13.6396  -19.2591   25.5142 O   0  0  0  0  0  0  0  0  0  0  0  0
   14.8487  -19.5525   25.4377 C   0  0  0  0  0  0  0  0  0  0  0  0
   12.9623  -18.4449   24.4942 C   0  0  2  0  0  0  0  0  0  0  0  0
   11.4953  -18.2716   24.7571 N   0  0  0  0  0  0  0  0  0  0  0  0
   10.9864  -17.4264   23.6588 C   0  0  0  0  0  0  0  0  0  0  0  0
   11.1389  -17.7252   26.0559 O   0  0  0  0  0  0  0  0  0  0  0  0
   10.4328  -16.5719   26.2829 O   0  0  0  0  0  0  0  0  0  0  0  0
  2  1  1  6
  2  3  1  0
  3  4  1  0
  5  4  1  0
  5  9  1  0
  6  5  2  0
  7 18  1  0
  7  2  1  0
  8  7  2  0
 11 10  1  0
 11 13  1  0
 12 11  2  0
 13 14  1  0
 15 14  1  0
 17 16  1  1
 16 15  1  0
 17 18  1  0
 19 26  1  0
 19 17  1  0
 20 19  2  0
 22 21  1  0
 22 23  2  0
 25 24  1  6
 24 22  1  0
 25 27  1  0
 25 26  1  0
 27 28  1  0
 29 27  2  0
M  END
$$$$
