ERN.pdb
     RDKit          3D

 29 28  0  0  1  0  0  0  0  0999 V2000
   10.8486  -17.5663   20.9258 N   0  0  0  0  0  0  0  0  0  0  0  0
   11.9027  -17.1413   21.9041 C   0  0  1  0  0  0  0  0  0  0  0  0
   12.9406  -16.4869   21.0732 C   0  0  0  0  0  0  0  0  0  0  0  0
   12.5200  -15.3092   20.2555 C   0  0  0  0  0  0  0  0  0  0  0  0
   13.5921  -14.6954   19.4525 C   0  0  0  0  0  0  0  0  0  0  0  0
   14.2062  -15.3913   18.6124 O   0  0  0  0  0  0  0  0  0  0  0  0
   11.1841  -16.3049   22.8579 C   0  0  0  0  0  0  0  0  0  0  0  0
   11.7072  -15.5727   23.7346 O   0  0  0  0  0  0  0  0  0  0  0  0
   13.9333  -13.3781   19.6040 O   0  0  0  0  0  0  0  0  0  0  0  0
    8.1062  -14.7462   18.4581 N   0  0  0  0  0  0  0  0  0  0  0  0
    8.0986  -13.3273   18.5754 C   0  0  0  0  0  0  0  0  0  0  0  0
    8.6832  -12.6362   17.6801 N   0  0  0  0  0  0  0  0  0  0  0  0
    7.4387  -12.7577   19.6865 N   0  0  0  0  0  0  0  0  0  0  0  0
    6.9527  -13.6186   20.7662 C   0  0  0  0  0  0  0  0  0  0  0  0
    8.0212  -13.8237   21.7694 C   0  0  0  0  0  0  0  0  0  0  0  0
    7.8075  -14.7894   22.8684 C   0  0  0  0  0  0  0  0  0  0  0  0
    8.9824  -15.3666   23.5892 C   0  0  2  0  0  0  0  0  0  0  0  0
    9.7486  -16.2905   22.8187 N   0  0  0  0  0  0  0  0  0  0  0  0
    8.5733  -15.9992   24.8706 C   0  0  0  0  0  0  0  0  0  0  0  0
    7.8252  -15.3950   25.6807 O   0  0  0  0  0  0  0  0  0  0  0  0
    8.7268  -11.6053   17.7120 N   0  0  0  0  0  0  0  0  0  0  0  0
    6.1024  -17.6583   25.4993 C   0  0  0  0  0  0  0  0  0  0  0  0
    6.6211  -18.9911   25.6954 O   0  0  0  0  0  0  0  0  0  0  0  0
    5.8886  -19.9488   25.3791 C   0  0  0  0  0  0  0  0  0  0  0  0
    7.9692  -19.1824   26.2504 C   0  0  2  0  0  0  0  0  0  0  0  0
    8.6726  -17.8910   26.5484 N   0  0  0  0  0  0  0  0  0  0  0  0
    9.0028  -17.3003   25.2363 C   0  0  0  0  0  0  0  0  0  0  0  0
    9.8473  -17.9845   27.3990 O   0  0  0  0  0  0  0  0  0  0  0  0
    9.8611  -18.3363   28.7243 O   0  0  0  0  0  0  0  0  0  0  0  0
  2  1  1  6
  2  3  1  0
  3  4  1  0
  5  4  1  0
  5  9  1  0
  6  5  2  0
  7 18  1  0
  7  2  1  0
  8  7  2  0
 11 10  1  0
 11 13  1  0
 12 11  2  0
 13 14  1  0
 15 14  1  0
 17 16  1  6
 16 15  1  0
 17 18  1  0
 19 26  1  0
 19 17  1  0
 20 19  2  0
 22 21  1  0
 22 23  2  0
 25 24  1  6
 24 22  1  0
 25 27  1  0
 25 26  1  0
 27 28  1  0
 29 27  2  0
M  END
$$$$
