ERN.pdb
     RDKit          3D

 29 28  0  0  1  0  0  0  0  0999 V2000
   12.4010  -17.1112   15.7346 N   0  0  0  0  0  0  0  0  0  0  0  0
   11.8332  -17.5694   17.0447 C   0  0  1  0  0  0  0  0  0  0  0  0
   12.3110  -18.9645   17.1908 C   0  0  0  0  0  0  0  0  0  0  0  0
   12.0328  -19.6503   18.4888 C   0  0  0  0  0  0  0  0  0  0  0  0
   12.6440  -20.9834   18.6308 C   0  0  0  0  0  0  0  0  0  0  0  0
   13.3134  -21.4567   17.6848 O   0  0  0  0  0  0  0  0  0  0  0  0
   12.3253  -16.5898   18.0059 C   0  0  0  0  0  0  0  0  0  0  0  0
   13.4956  -16.1365   18.0608 O   0  0  0  0  0  0  0  0  0  0  0  0
   12.4966  -21.7186   19.7763 O   0  0  0  0  0  0  0  0  0  0  0  0
    7.3525  -13.4228   18.0554 N   0  0  0  0  0  0  0  0  0  0  0  0
    7.1642  -13.4572   19.4662 C   0  0  0  0  0  0  0  0  0  0  0  0
    6.1150  -14.0094   19.9302 N   0  0  0  0  0  0  0  0  0  0  0  0
    8.1578  -12.8728   20.2819 N   0  0  0  0  0  0  0  0  0  0  0  0
    9.3000  -12.1941   19.6670 C   0  0  0  0  0  0  0  0  0  0  0  0
   10.3480  -13.1802   19.3211 C   0  0  0  0  0  0  0  0  0  0  0  0
   10.8280  -14.1205   20.3562 C   0  0  0  0  0  0  0  0  0  0  0  0
   11.8406  -15.1610   20.0026 C   0  0  2  0  0  0  0  0  0  0  0  0
   11.4171  -16.0734   18.9913 N   0  0  0  0  0  0  0  0  0  0  0  0
   12.2844  -15.9143   21.2046 C   0  0  0  0  0  0  0  0  0  0  0  0
   11.4527  -16.4924   21.9497 O   0  0  0  0  0  0  0  0  0  0  0  0
    5.9035  -14.0437   20.9400 N   0  0  0  0  0  0  0  0  0  0  0  0
   13.4325  -18.8098   21.1544 C   0  0  0  0  0  0  0  0  0  0  0  0
   14.8087  -18.6894   21.5732 O   0  0  0  0  0  0  0  0  0  0  0  0
   15.6111  -19.5580   21.1788 C   0  0  0  0  0  0  0  0  0  0  0  0
   15.2213  -17.5715   22.4347 C   0  0  2  0  0  0  0  0  0  0  0  0
   14.0839  -16.6700   22.8154 N   0  0  0  0  0  0  0  0  0  0  0  0
   13.6524  -16.0157   21.5643 C   0  0  0  0  0  0  0  0  0  0  0  0
   14.3624  -15.6943   23.8559 O   0  0  0  0  0  0  0  0  0  0  0  0
   14.4985  -15.9554   25.1951 O   0  0  0  0  0  0  0  0  0  0  0  0
  2  1  1  6
  2  3  1  0
  3  4  1  0
  5  4  1  0
  5  9  1  0
  6  5  2  0
  7 18  1  0
  7  2  1  0
  8  7  2  0
 11 10  1  0
 11 13  1  0
 12 11  2  0
 13 14  1  0
 15 14  1  0
 17 16  1  1
 16 15  1  0
 17 18  1  0
 19 26  1  0
 19 17  1  0
 20 19  2  0
 22 21  1  0
 22 23  2  0
 25 24  1  6
 24 22  1  0
 25 27  1  0
 25 26  1  0
 27 28  1  0
 29 27  2  0
M  END
$$$$
