ASF.pdb
     RDKit          3D

 23 23  0  0  1  0  0  0  0  0999 V2000
   20.2728  -12.5361  -15.7550 C   0  0  0  0  0  0  0  0  0  0  0  0
   19.8775  -12.0955  -17.1328 C   0  0  2  0  0  0  0  0  0  0  0  0
   20.4362  -12.9770  -18.1605 N   0  0  0  0  0  0  0  0  0  0  0  0
   20.2287  -10.6891  -17.4121 C   0  0  0  0  0  0  0  0  0  0  0  0
   21.4260  -10.3143  -17.3400 O   0  0  0  0  0  0  0  0  0  0  0  0
   18.7261   -6.3548  -19.0799 O   0  0  0  0  0  0  0  0  0  0  0  0
   18.4825   -7.6898  -18.8000 C   0  0  0  0  0  0  0  0  0  0  0  0
   19.5815   -8.3076  -17.9689 C   0  0  2  0  0  0  0  0  0  0  0  0
   19.2690   -9.7038  -17.7678 N   0  0  0  0  0  0  0  0  0  0  0  0
   19.7292   -7.5739  -16.6931 C   0  0  0  0  0  0  0  0  0  0  0  0
   18.9942   -7.9014  -15.7270 O   0  0  0  0  0  0  0  0  0  0  0  0
   20.6524   -6.5150  -16.4805 N   0  0  0  0  0  0  0  0  0  0  0  0
   20.7819   -5.8368  -15.2016 C   0  0  1  0  0  0  0  0  0  0  0  0
   22.1747   -5.9576  -14.6806 C   0  0  0  0  0  0  0  0  0  0  0  0
   22.6217   -7.3330  -14.5015 C   0  0  0  0  0  0  0  0  0  0  0  0
   23.5730   -7.9386  -15.3237 C   0  0  0  0  0  0  0  0  0  0  0  0
   24.0068   -9.2255  -15.1561 C   0  0  0  0  0  0  0  0  0  0  0  0
   23.4989   -9.9895  -14.1333 C   0  0  0  0  0  0  0  0  0  0  0  0
   22.5642   -9.4381  -13.3019 C   0  0  0  0  0  0  0  0  0  0  0  0
   22.1310   -8.1280  -13.4827 C   0  0  0  0  0  0  0  0  0  0  0  0
   20.3321   -4.4423  -15.3756 C   0  0  0  0  0  0  0  0  0  0  0  0
   19.9801   -3.9575  -16.6411 O   0  0  0  0  0  0  0  0  0  0  0  0
   20.2720   -3.6963  -14.3637 O   0  0  0  0  0  0  0  0  0  0  0  0
  2  4  1  0
  2  3  1  0
  2  1  1  1
  4  5  2  0
  6  7  1  0
  8  7  1  6
  8 10  1  0
  9  8  1  0
  9  4  1  0
 10 12  1  0
 10 11  2  0
 12 13  1  0
 13 14  1  6
 14 15  1  0
 15 16  2  0
 15 20  1  0
 16 17  1  0
 17 18  2  0
 19 18  1  0
 20 19  2  0
 21 22  1  0
 21 13  1  0
 23 21  2  0
M  END
$$$$
