ASF.pdb
     RDKit          3D

 23 23  0  0  1  0  0  0  0  0999 V2000
   20.4144  -11.9659  -17.5259 C   0  0  0  0  0  0  0  0  0  0  0  0
   19.5130  -11.0264  -16.7820 C   0  0  2  0  0  0  0  0  0  0  0  0
   18.1021  -11.2913  -17.0726 N   0  0  0  0  0  0  0  0  0  0  0  0
   19.8326   -9.6058  -17.0255 C   0  0  0  0  0  0  0  0  0  0  0  0
   20.9797   -9.2787  -17.4207 O   0  0  0  0  0  0  0  0  0  0  0  0
   16.8339   -6.7376  -16.8341 O   0  0  0  0  0  0  0  0  0  0  0  0
   17.9466   -6.5017  -17.6255 C   0  0  0  0  0  0  0  0  0  0  0  0
   19.1885   -7.1598  -17.0735 C   0  0  2  0  0  0  0  0  0  0  0  0
   18.8962   -8.5545  -16.8352 N   0  0  0  0  0  0  0  0  0  0  0  0
   19.6343   -6.4604  -15.8487 C   0  0  0  0  0  0  0  0  0  0  0  0
   19.0928   -6.7655  -14.7558 O   0  0  0  0  0  0  0  0  0  0  0  0
   20.6413   -5.4584  -15.8202 N   0  0  0  0  0  0  0  0  0  0  0  0
   21.0981   -4.8453  -14.5842 C   0  0  1  0  0  0  0  0  0  0  0  0
   22.4887   -5.2807  -14.2635 C   0  0  0  0  0  0  0  0  0  0  0  0
   22.6248   -6.7161  -14.0527 C   0  0  0  0  0  0  0  0  0  0  0  0
   23.3423   -7.5483  -14.9133 C   0  0  0  0  0  0  0  0  0  0  0  0
   23.4849   -8.8951  -14.7171 C   0  0  0  0  0  0  0  0  0  0  0  0
   22.9033   -9.4913  -13.6244 C   0  0  0  0  0  0  0  0  0  0  0  0
   22.1904   -8.7154  -12.7533 C   0  0  0  0  0  0  0  0  0  0  0  0
   22.0526   -7.3466  -12.9637 C   0  0  0  0  0  0  0  0  0  0  0  0
   20.9496   -3.3832  -14.7164 C   0  0  0  0  0  0  0  0  0  0  0  0
   21.2618   -2.5336  -13.6481 O   0  0  0  0  0  0  0  0  0  0  0  0
   20.5354   -2.9145  -15.8086 O   0  0  0  0  0  0  0  0  0  0  0  0
  2  4  1  0
  2  3  1  0
  2  1  1  6
  4  5  2  0
  6  7  1  0
  8  7  1  1
  8 10  1  0
  9  8  1  0
  9  4  1  0
 10 12  1  0
 10 11  2  0
 12 13  1  0
 13 14  1  6
 14 15  1  0
 15 16  2  0
 15 20  1  0
 16 17  1  0
 17 18  2  0
 19 18  1  0
 20 19  2  0
 21 22  1  0
 21 13  1  0
 23 21  2  0
M  END
$$$$
