ASF.pdb
     RDKit          3D

 23 23  0  0  1  0  0  0  0  0999 V2000
   19.3675  -14.7525  -16.6878 C   0  0  0  0  0  0  0  0  0  0  0  0
   20.4357  -14.7262  -17.7399 C   0  0  2  0  0  0  0  0  0  0  0  0
   21.2864  -15.9167  -17.6728 N   0  0  0  0  0  0  0  0  0  0  0  0
   21.2580  -13.5009  -17.6970 C   0  0  0  0  0  0  0  0  0  0  0  0
   22.2717  -13.4501  -16.9560 O   0  0  0  0  0  0  0  0  0  0  0  0
   22.1769   -9.1548  -19.7316 O   0  0  0  0  0  0  0  0  0  0  0  0
   21.4017  -10.2997  -19.6397 C   0  0  0  0  0  0  0  0  0  0  0  0
   21.7532  -11.1303  -18.4287 C   0  0  2  0  0  0  0  0  0  0  0  0
   20.9659  -12.3412  -18.4640 N   0  0  0  0  0  0  0  0  0  0  0  0
   21.5300  -10.3490  -17.1926 C   0  0  0  0  0  0  0  0  0  0  0  0
   20.3885  -10.3766  -16.6664 O   0  0  0  0  0  0  0  0  0  0  0  0
   22.5245   -9.5621  -16.5520 N   0  0  0  0  0  0  0  0  0  0  0  0
   22.2653   -8.8191  -15.3301 C   0  0  1  0  0  0  0  0  0  0  0  0
   23.3149   -9.1035  -14.3087 C   0  0  0  0  0  0  0  0  0  0  0  0
   24.5912   -9.5225  -14.8734 C   0  0  0  0  0  0  0  0  0  0  0  0
   25.3834   -8.6914  -15.6668 C   0  0  0  0  0  0  0  0  0  0  0  0
   26.5883   -9.0725  -16.1918 C   0  0  0  0  0  0  0  0  0  0  0  0
   27.0728  -10.3340  -15.9439 C   0  0  0  0  0  0  0  0  0  0  0  0
   26.3309  -11.1836  -15.1713 C   0  0  0  0  0  0  0  0  0  0  0  0
   25.1069  -10.7842  -14.6429 C   0  0  0  0  0  0  0  0  0  0  0  0
   22.1485   -7.3903  -15.6794 C   0  0  0  0  0  0  0  0  0  0  0  0
   22.5155   -6.9331  -16.9510 O   0  0  0  0  0  0  0  0  0  0  0  0
   21.7134   -6.5898  -14.8111 O   0  0  0  0  0  0  0  0  0  0  0  0
  2  4  1  0
  2  3  1  0
  2  1  1  1
  4  5  2  0
  6  7  1  0
  8  7  1  6
  8 10  1  0
  9  8  1  0
  9  4  1  0
 10 12  1  0
 10 11  2  0
 12 13  1  0
 13 14  1  1
 14 15  1  0
 15 16  2  0
 15 20  1  0
 16 17  1  0
 17 18  2  0
 19 18  1  0
 20 19  2  0
 21 22  1  0
 21 13  1  0
 23 21  2  0
M  END
$$$$
