ASF.pdb
     RDKit          3D

 23 23  0  0  1  0  0  0  0  0999 V2000
   14.8680  -13.1201  -13.6542 C   0  0  0  0  0  0  0  0  0  0  0  0
   13.6041  -12.5983  -13.0386 C   0  0  2  0  0  0  0  0  0  0  0  0
   12.4790  -12.6750  -13.9732 N   0  0  0  0  0  0  0  0  0  0  0  0
   13.7432  -11.2273  -12.5091 C   0  0  0  0  0  0  0  0  0  0  0  0
   13.9368  -10.2666  -13.2957 O   0  0  0  0  0  0  0  0  0  0  0  0
   13.2605   -8.2851   -8.6469 O   0  0  0  0  0  0  0  0  0  0  0  0
   13.1527   -9.5336   -9.2382 C   0  0  0  0  0  0  0  0  0  0  0  0
   13.8330   -9.5869  -10.5852 C   0  0  2  0  0  0  0  0  0  0  0  0
   13.6697  -10.9172  -11.1246 N   0  0  0  0  0  0  0  0  0  0  0  0
   15.2554   -9.2032  -10.4533 C   0  0  0  0  0  0  0  0  0  0  0  0
   16.0588  -10.0431   -9.9740 O   0  0  0  0  0  0  0  0  0  0  0  0
   15.7827   -7.9399  -10.8339 N   0  0  0  0  0  0  0  0  0  0  0  0
   17.1923   -7.6106  -10.7036 C   0  0  1  0  0  0  0  0  0  0  0  0
   17.8661   -7.6459  -12.0342 C   0  0  0  0  0  0  0  0  0  0  0  0
   19.2547   -7.2049  -12.0056 C   0  0  0  0  0  0  0  0  0  0  0  0
   20.3002   -8.0075  -11.5467 C   0  0  0  0  0  0  0  0  0  0  0  0
   21.6082   -7.6059  -11.5267 C   0  0  0  0  0  0  0  0  0  0  0  0
   21.9442   -6.3515  -11.9753 C   0  0  0  0  0  0  0  0  0  0  0  0
   20.9529   -5.5296  -12.4344 C   0  0  0  0  0  0  0  0  0  0  0  0
   19.6262   -5.9496  -12.4498 C   0  0  0  0  0  0  0  0  0  0  0  0
   17.2964   -6.3072  -10.0198 C   0  0  0  0  0  0  0  0  0  0  0  0
   18.3611   -6.0391   -9.1508 O   0  0  0  0  0  0  0  0  0  0  0  0
   16.4084   -5.4411  -10.2323 O   0  0  0  0  0  0  0  0  0  0  0  0
  2  4  1  0
  2  3  1  0
  2  1  1  6
  4  5  2  0
  6  7  1  0
  8  7  1  1
  8 10  1  0
  9  8  1  0
  9  4  1  0
 10 12  1  0
 10 11  2  0
 12 13  1  0
 13 14  1  6
 14 15  1  0
 15 16  2  0
 15 20  1  0
 16 17  1  0
 17 18  2  0
 19 18  1  0
 20 19  2  0
 21 22  1  0
 21 13  1  0
 23 21  2  0
M  END
$$$$
