ASF.pdb
     RDKit          3D

 23 23  0  0  1  0  0  0  0  0999 V2000
   24.6113  -20.7767   -8.4982 C   0  0  0  0  0  0  0  0  0  0  0  0
   25.8774  -20.7855   -9.3017 C   0  0  2  0  0  0  0  0  0  0  0  0
   26.9016  -19.9279   -8.7012 N   0  0  0  0  0  0  0  0  0  0  0  0
   25.6653  -20.4232  -10.7170 C   0  0  0  0  0  0  0  0  0  0  0  0
   25.6551  -19.2148  -11.0615 O   0  0  0  0  0  0  0  0  0  0  0  0
   26.0427  -21.6475  -15.3247 O   0  0  0  0  0  0  0  0  0  0  0  0
   26.1028  -21.9697  -13.9784 C   0  0  0  0  0  0  0  0  0  0  0  0
   25.2550  -21.0491  -13.1337 C   0  0  2  0  0  0  0  0  0  0  0  0
   25.4660  -21.3842  -11.7442 N   0  0  0  0  0  0  0  0  0  0  0  0
   23.8340  -21.1581  -13.5300 C   0  0  0  0  0  0  0  0  0  0  0  0
   23.1726  -22.1443  -13.1169 O   0  0  0  0  0  0  0  0  0  0  0  0
   23.1576  -20.2176  -14.3525 N   0  0  0  0  0  0  0  0  0  0  0  0
   21.7725  -20.3887  -14.7582 C   0  0  1  0  0  0  0  0  0  0  0  0
   20.8940  -19.4069  -14.0581 C   0  0  0  0  0  0  0  0  0  0  0  0
   20.5872  -19.7660  -12.6795 C   0  0  0  0  0  0  0  0  0  0  0  0
   20.9958  -19.0036  -11.5842 C   0  0  0  0  0  0  0  0  0  0  0  0
   20.7027  -19.3270  -10.2873 C   0  0  0  0  0  0  0  0  0  0  0  0
   19.9688  -20.4560  -10.0142 C   0  0  0  0  0  0  0  0  0  0  0  0
   19.5466  -21.2341  -11.0560 C   0  0  0  0  0  0  0  0  0  0  0  0
   19.8510  -20.8945  -12.3708 C   0  0  0  0  0  0  0  0  0  0  0  0
   21.7118  -20.2959  -16.2295 C   0  0  0  0  0  0  0  0  0  0  0  0
   20.5421  -20.6369  -16.9195 O   0  0  0  0  0  0  0  0  0  0  0  0
   22.7330  -19.9051  -16.8527 O   0  0  0  0  0  0  0  0  0  0  0  0
  2  4  1  0
  2  3  1  0
  2  1  1  1
  4  5  2  0
  6  7  1  0
  8  7  1  6
  8 10  1  0
  9  8  1  0
  9  4  1  0
 10 12  1  0
 10 11  2  0
 12 13  1  0
 13 14  1  1
 14 15  1  0
 15 16  2  0
 15 20  1  0
 16 17  1  0
 17 18  2  0
 19 18  1  0
 20 19  2  0
 21 22  1  0
 21 13  1  0
 23 21  2  0
M  END
$$$$
