ASF.pdb
     RDKit          3D

 23 23  0  0  1  0  0  0  0  0999 V2000
   22.7335  -10.7995  -20.0622 C   0  0  0  0  0  0  0  0  0  0  0  0
   22.5316  -11.3057  -18.6652 C   0  0  2  0  0  0  0  0  0  0  0  0
   21.9637  -12.6558  -18.6590 N   0  0  0  0  0  0  0  0  0  0  0  0
   21.7152  -10.3982  -17.8349 C   0  0  0  0  0  0  0  0  0  0  0  0
   20.5135  -10.1839  -18.1336 O   0  0  0  0  0  0  0  0  0  0  0  0
   21.4636   -7.6369  -13.8088 O   0  0  0  0  0  0  0  0  0  0  0  0
   22.1076   -8.5888  -14.5828 C   0  0  0  0  0  0  0  0  0  0  0  0
   21.4906   -8.7206  -15.9546 C   0  0  2  0  0  0  0  0  0  0  0  0
   22.2184   -9.7325  -16.6852 N   0  0  0  0  0  0  0  0  0  0  0  0
   21.4984   -7.4123  -16.6447 C   0  0  0  0  0  0  0  0  0  0  0  0
   22.5753   -7.0132  -17.1563 O   0  0  0  0  0  0  0  0  0  0  0  0
   20.3635   -6.5670  -16.7715 N   0  0  0  0  0  0  0  0  0  0  0  0
   20.4315   -5.2570  -17.3975 C   0  0  1  0  0  0  0  0  0  0  0  0
   19.4476   -5.1560  -18.5145 C   0  0  0  0  0  0  0  0  0  0  0  0
   19.4104   -3.8466  -19.1529 C   0  0  0  0  0  0  0  0  0  0  0  0
   20.3816   -3.4107  -20.0555 C   0  0  0  0  0  0  0  0  0  0  0  0
   20.3486   -2.1875  -20.6681 C   0  0  0  0  0  0  0  0  0  0  0  0
   19.3183   -1.3183  -20.4026 C   0  0  0  0  0  0  0  0  0  0  0  0
   18.3435   -1.7023  -19.5244 C   0  0  0  0  0  0  0  0  0  0  0  0
   18.3880   -2.9491  -18.9076 C   0  0  0  0  0  0  0  0  0  0  0  0
   20.2438   -4.2377  -16.3472 C   0  0  0  0  0  0  0  0  0  0  0  0
   20.7679   -2.9484  -16.5008 O   0  0  0  0  0  0  0  0  0  0  0  0
   19.6040   -4.5503  -15.3095 O   0  0  0  0  0  0  0  0  0  0  0  0
  2  4  1  0
  2  3  1  0
  2  1  1  6
  4  5  2  0
  6  7  1  0
  8  7  1  1
  8 10  1  0
  9  8  1  0
  9  4  1  0
 10 12  1  0
 10 11  2  0
 12 13  1  0
 13 14  1  6
 14 15  1  0
 15 16  2  0
 15 20  1  0
 16 17  1  0
 17 18  2  0
 19 18  1  0
 20 19  2  0
 21 22  1  0
 21 13  1  0
 23 21  2  0
M  END
$$$$
