ASF.pdb
     RDKit          3D

 23 23  0  0  1  0  0  0  0  0999 V2000
   15.2876  -10.5972  -14.9878 C   0  0  0  0  0  0  0  0  0  0  0  0
   16.1725  -11.5430  -15.7434 C   0  0  2  0  0  0  0  0  0  0  0  0
   16.1223  -12.8937  -15.1792 N   0  0  0  0  0  0  0  0  0  0  0  0
   17.5693  -11.0749  -15.8389 C   0  0  0  0  0  0  0  0  0  0  0  0
   18.2738  -10.9838  -14.8023 O   0  0  0  0  0  0  0  0  0  0  0  0
   19.0472   -9.5583  -19.4182 O   0  0  0  0  0  0  0  0  0  0  0  0
   19.9358  -10.2903  -18.6470 C   0  0  0  0  0  0  0  0  0  0  0  0
   19.5604  -10.2839  -17.1844 C   0  0  2  0  0  0  0  0  0  0  0  0
   18.1850  -10.7101  -17.0662 N   0  0  0  0  0  0  0  0  0  0  0  0
   19.7858   -8.9411  -16.6063 C   0  0  0  0  0  0  0  0  0  0  0  0
   18.8452   -8.1078  -16.6466 O   0  0  0  0  0  0  0  0  0  0  0  0
   21.0022   -8.5229  -16.0029 N   0  0  0  0  0  0  0  0  0  0  0  0
   21.2791   -7.1316  -15.6865 C   0  0  1  0  0  0  0  0  0  0  0  0
   22.5685   -7.0069  -14.9463 C   0  0  0  0  0  0  0  0  0  0  0  0
   23.0241   -5.6327  -14.7801 C   0  0  0  0  0  0  0  0  0  0  0  0
   22.4337   -4.7365  -13.8879 C   0  0  0  0  0  0  0  0  0  0  0  0
   22.8621   -3.4481  -13.7171 C   0  0  0  0  0  0  0  0  0  0  0  0
   23.9277   -2.9803  -14.4473 C   0  0  0  0  0  0  0  0  0  0  0  0
   24.5380   -3.8229  -15.3341 C   0  0  0  0  0  0  0  0  0  0  0  0
   24.0932   -5.1313  -15.4989 C   0  0  0  0  0  0  0  0  0  0  0  0
   21.2392   -6.3599  -16.9435 C   0  0  0  0  0  0  0  0  0  0  0  0
   21.7277   -6.9092  -18.1352 O   0  0  0  0  0  0  0  0  0  0  0  0
   20.7582   -5.1971  -16.9234 O   0  0  0  0  0  0  0  0  0  0  0  0
  2  4  1  0
  2  3  1  0
  2  1  1  1
  4  5  2  0
  6  7  1  0
  8  7  1  6
  8 10  1  0
  9  8  1  0
  9  4  1  0
 10 12  1  0
 10 11  2  0
 12 13  1  0
 13 14  1  6
 14 15  1  0
 15 16  2  0
 15 20  1  0
 16 17  1  0
 17 18  2  0
 19 18  1  0
 20 19  2  0
 21 22  1  0
 21 13  1  0
 23 21  2  0
M  END
$$$$
