ASF.pdb
     RDKit          3D

 23 23  0  0  1  0  0  0  0  0999 V2000
   33.1406   -8.2943  -16.8840 C   0  0  0  0  0  0  0  0  0  0  0  0
   32.9948   -9.7475  -17.2240 C   0  0  2  0  0  0  0  0  0  0  0  0
   34.2415  -10.3035  -17.7551 N   0  0  0  0  0  0  0  0  0  0  0  0
   31.8752  -10.0145  -18.1484 C   0  0  0  0  0  0  0  0  0  0  0  0
   32.0585   -9.9577  -19.3902 O   0  0  0  0  0  0  0  0  0  0  0  0
   28.0313  -10.4917  -16.6868 O   0  0  0  0  0  0  0  0  0  0  0  0
   28.3659  -11.2916  -17.7676 C   0  0  0  0  0  0  0  0  0  0  0  0
   29.4798  -10.6954  -18.5946 C   0  0  2  0  0  0  0  0  0  0  0  0
   30.5645  -10.3413  -17.7083 N   0  0  0  0  0  0  0  0  0  0  0  0
   28.9789   -9.5353  -19.3635 C   0  0  0  0  0  0  0  0  0  0  0  0
   29.0024   -8.4024  -18.8187 O   0  0  0  0  0  0  0  0  0  0  0  0
   28.4683   -9.6120  -20.6871 N   0  0  0  0  0  0  0  0  0  0  0  0
   27.9789   -8.4463  -21.4041 C   0  0  1  0  0  0  0  0  0  0  0  0
   27.8729   -8.7330  -22.8644 C   0  0  0  0  0  0  0  0  0  0  0  0
   27.4218   -7.5975  -23.6586 C   0  0  0  0  0  0  0  0  0  0  0  0
   28.1827   -6.4411  -23.8361 C   0  0  0  0  0  0  0  0  0  0  0  0
   27.7720   -5.3749  -24.5892 C   0  0  0  0  0  0  0  0  0  0  0  0
   26.5508   -5.4126  -25.2174 C   0  0  0  0  0  0  0  0  0  0  0  0
   25.7704   -6.5257  -25.0721 C   0  0  0  0  0  0  0  0  0  0  0  0
   26.1991   -7.6038  -24.3036 C   0  0  0  0  0  0  0  0  0  0  0  0
   26.7047   -8.0310  -20.7868 C   0  0  0  0  0  0  0  0  0  0  0  0
   25.7478   -8.9826  -20.4135 O   0  0  0  0  0  0  0  0  0  0  0  0
   26.4943   -6.8038  -20.6031 O   0  0  0  0  0  0  0  0  0  0  0  0
  2  4  1  0
  2  3  1  0
  2  1  1  6
  4  5  2  0
  6  7  1  0
  8  7  1  1
  8 10  1  0
  9  8  1  0
  9  4  1  0
 10 12  1  0
 10 11  2  0
 12 13  1  0
 13 14  1  6
 14 15  1  0
 15 16  2  0
 15 20  1  0
 16 17  1  0
 17 18  2  0
 19 18  1  0
 20 19  2  0
 21 22  1  0
 21 13  1  0
 23 21  2  0
M  END
$$$$
