ASF.pdb
     RDKit          3D

 23 23  0  0  1  0  0  0  0  0999 V2000
   19.1528  -15.8726  -16.2183 C   0  0  0  0  0  0  0  0  0  0  0  0
   17.8560  -15.2837  -16.6877 C   0  0  2  0  0  0  0  0  0  0  0  0
   17.2893  -16.0489  -17.8006 N   0  0  0  0  0  0  0  0  0  0  0  0
   17.9667  -13.8559  -17.0461 C   0  0  0  0  0  0  0  0  0  0  0  0
   18.9994  -13.4310  -17.6223 O   0  0  0  0  0  0  0  0  0  0  0  0
   15.6181   -9.6579  -17.7343 O   0  0  0  0  0  0  0  0  0  0  0  0
   15.6296  -10.9895  -17.3516 C   0  0  0  0  0  0  0  0  0  0  0  0
   17.0308  -11.5070  -17.1306 C   0  0  2  0  0  0  0  0  0  0  0  0
   16.9481  -12.9042  -16.7721 N   0  0  0  0  0  0  0  0  0  0  0  0
   17.7150  -10.6998  -16.0970 C   0  0  0  0  0  0  0  0  0  0  0  0
   17.5707  -11.0262  -14.8915 O   0  0  0  0  0  0  0  0  0  0  0  0
   18.5319   -9.5706  -16.3736 N   0  0  0  0  0  0  0  0  0  0  0  0
   19.1140   -8.7517  -15.3234 C   0  0  1  0  0  0  0  0  0  0  0  0
   20.5605   -8.5029  -15.5909 C   0  0  0  0  0  0  0  0  0  0  0  0
   21.1797   -7.5630  -14.6653 C   0  0  0  0  0  0  0  0  0  0  0  0
   21.6521   -7.9332  -13.4053 C   0  0  0  0  0  0  0  0  0  0  0  0
   22.2450   -7.0599  -12.5344 C   0  0  0  0  0  0  0  0  0  0  0  0
   22.3988   -5.7413  -12.8883 C   0  0  0  0  0  0  0  0  0  0  0  0
   21.9510   -5.3326  -14.1136 C   0  0  0  0  0  0  0  0  0  0  0  0
   21.3497   -6.2303  -14.9907 C   0  0  0  0  0  0  0  0  0  0  0  0
   18.3113   -7.5191  -15.2064 C   0  0  0  0  0  0  0  0  0  0  0  0
   18.1670   -6.8748  -13.9717 O   0  0  0  0  0  0  0  0  0  0  0  0
   17.7578   -7.0586  -16.2386 O   0  0  0  0  0  0  0  0  0  0  0  0
  2  4  1  0
  2  3  1  0
  2  1  1  6
  4  5  2  0
  6  7  1  0
  8  7  1  1
  8 10  1  0
  9  8  1  0
  9  4  1  0
 10 12  1  0
 10 11  2  0
 12 13  1  0
 13 14  1  6
 14 15  1  0
 15 16  2  0
 15 20  1  0
 16 17  1  0
 17 18  2  0
 19 18  1  0
 20 19  2  0
 21 22  1  0
 21 13  1  0
 23 21  2  0
M  END
$$$$
