ASF.pdb
     RDKit          3D

 23 23  0  0  1  0  0  0  0  0999 V2000
   27.6496  -17.3426  -15.2531 C   0  0  0  0  0  0  0  0  0  0  0  0
   28.0431  -18.5955  -14.5293 C   0  0  2  0  0  0  0  0  0  0  0  0
   28.0277  -19.7585  -15.4196 N   0  0  0  0  0  0  0  0  0  0  0  0
   27.2208  -18.8519  -13.3304 C   0  0  0  0  0  0  0  0  0  0  0  0
   26.9644  -17.9157  -12.5324 O   0  0  0  0  0  0  0  0  0  0  0  0
   25.7234  -22.6710  -12.6249 O   0  0  0  0  0  0  0  0  0  0  0  0
   24.9469  -21.5880  -12.2454 C   0  0  0  0  0  0  0  0  0  0  0  0
   25.7834  -20.3759  -11.9120 C   0  0  2  0  0  0  0  0  0  0  0  0
   26.6853  -20.1291  -13.0134 N   0  0  0  0  0  0  0  0  0  0  0  0
   26.4987  -20.5861  -10.6344 C   0  0  0  0  0  0  0  0  0  0  0  0
   27.5973  -21.1970  -10.6582 O   0  0  0  0  0  0  0  0  0  0  0  0
   26.0269  -20.1418   -9.3700 N   0  0  0  0  0  0  0  0  0  0  0  0
   26.6888  -20.4890   -8.1235 C   0  0  1  0  0  0  0  0  0  0  0  0
   27.4590  -19.3256   -7.5949 C   0  0  0  0  0  0  0  0  0  0  0  0
   28.0423  -19.5517   -6.2788 C   0  0  0  0  0  0  0  0  0  0  0  0
   29.1276  -20.4020   -6.0618 C   0  0  0  0  0  0  0  0  0  0  0  0
   29.6889  -20.6115   -4.8315 C   0  0  0  0  0  0  0  0  0  0  0  0
   29.1809  -19.9658   -3.7303 C   0  0  0  0  0  0  0  0  0  0  0  0
   28.1174  -19.1225   -3.8946 C   0  0  0  0  0  0  0  0  0  0  0  0
   27.5553  -18.9176   -5.1511 C   0  0  0  0  0  0  0  0  0  0  0  0
   25.6666  -20.9980   -7.1890 C   0  0  0  0  0  0  0  0  0  0  0  0
   26.0262  -21.8245   -6.1175 O   0  0  0  0  0  0  0  0  0  0  0  0
   24.4643  -20.6755   -7.3746 O   0  0  0  0  0  0  0  0  0  0  0  0
  2  4  1  0
  2  3  1  0
  2  1  1  6
  4  5  2  0
  6  7  1  0
  8  7  1  6
  8 10  1  0
  9  8  1  0
  9  4  1  0
 10 12  1  0
 10 11  2  0
 12 13  1  0
 13 14  1  1
 14 15  1  0
 15 16  2  0
 15 20  1  0
 16 17  1  0
 17 18  2  0
 19 18  1  0
 20 19  2  0
 21 22  1  0
 21 13  1  0
 23 21  2  0
M  END
$$$$
