ASF.pdb
     RDKit          3D

 23 23  0  0  1  0  0  0  0  0999 V2000
   20.7505  -21.9508  -12.4485 C   0  0  0  0  0  0  0  0  0  0  0  0
   21.8259  -21.6952  -13.4618 C   0  0  2  0  0  0  0  0  0  0  0  0
   21.6111  -22.4754  -14.6827 N   0  0  0  0  0  0  0  0  0  0  0  0
   23.1844  -21.9274  -12.9328 C   0  0  0  0  0  0  0  0  0  0  0  0
   23.5370  -23.0847  -12.5931 O   0  0  0  0  0  0  0  0  0  0  0  0
   25.9788  -18.8305  -12.8749 O   0  0  0  0  0  0  0  0  0  0  0  0
   26.4147  -20.1431  -12.9594 C   0  0  0  0  0  0  0  0  0  0  0  0
   25.4790  -21.1004  -12.2609 C   0  0  2  0  0  0  0  0  0  0  0  0
   24.1464  -20.8933  -12.7794 N   0  0  0  0  0  0  0  0  0  0  0  0
   25.5502  -20.9053  -10.7964 C   0  0  0  0  0  0  0  0  0  0  0  0
   24.5328  -20.4668  -10.2019 O   0  0  0  0  0  0  0  0  0  0  0  0
   26.6986  -21.1812  -10.0066 N   0  0  0  0  0  0  0  0  0  0  0  0
   26.7783  -20.8364   -8.5969 C   0  0  1  0  0  0  0  0  0  0  0  0
   28.1792  -20.9687   -8.1013 C   0  0  0  0  0  0  0  0  0  0  0  0
   28.3615  -20.5365   -6.7216 C   0  0  0  0  0  0  0  0  0  0  0  0
   28.4677  -21.4265   -5.6517 C   0  0  0  0  0  0  0  0  0  0  0  0
   28.6502  -21.0300   -4.3547 C   0  0  0  0  0  0  0  0  0  0  0  0
   28.7377  -19.6919   -4.0556 C   0  0  0  0  0  0  0  0  0  0  0  0
   28.6391  -18.7829   -5.0718 C   0  0  0  0  0  0  0  0  0  0  0  0
   28.4536  -19.1984   -6.3870 C   0  0  0  0  0  0  0  0  0  0  0  0
   26.2125  -19.4847   -8.4238 C   0  0  0  0  0  0  0  0  0  0  0  0
   25.2791  -19.2247   -7.4130 O   0  0  0  0  0  0  0  0  0  0  0  0
   26.5848  -18.5697   -9.2036 O   0  0  0  0  0  0  0  0  0  0  0  0
  2  4  1  0
  2  3  1  0
  2  1  1  1
  4  5  2  0
  6  7  1  0
  8  7  1  6
  8 10  1  0
  9  8  1  0
  9  4  1  0
 10 12  1  0
 10 11  2  0
 12 13  1  0
 13 14  1  6
 14 15  1  0
 15 16  2  0
 15 20  1  0
 16 17  1  0
 17 18  2  0
 19 18  1  0
 20 19  2  0
 21 22  1  0
 21 13  1  0
 23 21  2  0
M  END
$$$$
