ASF.pdb
     RDKit          3D

 23 23  0  0  1  0  0  0  0  0999 V2000
   33.2076  -31.7830  -21.8606 C   0  0  0  0  0  0  0  0  0  0  0  0
   33.9678  -30.5611  -21.4391 C   0  0  2  0  0  0  0  0  0  0  0  0
   35.1776  -30.9115  -20.6914 N   0  0  0  0  0  0  0  0  0  0  0  0
   33.1449  -29.6056  -20.6715 C   0  0  0  0  0  0  0  0  0  0  0  0
   33.1160  -29.6677  -19.4167 O   0  0  0  0  0  0  0  0  0  0  0  0
   30.6198  -26.9701  -22.6589 O   0  0  0  0  0  0  0  0  0  0  0  0
   31.1788  -26.5149  -21.4755 C   0  0  0  0  0  0  0  0  0  0  0  0
   31.5483  -27.6470  -20.5472 C   0  0  2  0  0  0  0  0  0  0  0  0
   32.3604  -28.5901  -21.2811 N   0  0  0  0  0  0  0  0  0  0  0  0
   30.3271  -28.2688  -19.9904 C   0  0  0  0  0  0  0  0  0  0  0  0
   29.8532  -29.2786  -20.5704 O   0  0  0  0  0  0  0  0  0  0  0  0
   29.6455  -27.8006  -18.8350 N   0  0  0  0  0  0  0  0  0  0  0  0
   28.4016  -28.3907  -18.3694 C   0  0  1  0  0  0  0  0  0  0  0  0
   28.4961  -28.7448  -16.9232 C   0  0  0  0  0  0  0  0  0  0  0  0
   29.2536  -29.9617  -16.6608 C   0  0  0  0  0  0  0  0  0  0  0  0
   30.6354  -30.0519  -16.8347 C   0  0  0  0  0  0  0  0  0  0  0  0
   31.3563  -31.1869  -16.5801 C   0  0  0  0  0  0  0  0  0  0  0  0
   30.7161  -32.3154  -16.1280 C   0  0  0  0  0  0  0  0  0  0  0  0
   29.3623  -32.2740  -15.9427 C   0  0  0  0  0  0  0  0  0  0  0  0
   28.6401  -31.1136  -16.2051 C   0  0  0  0  0  0  0  0  0  0  0  0
   27.3056  -27.4529  -18.6805 C   0  0  0  0  0  0  0  0  0  0  0  0
   25.9720  -27.8087  -18.4445 O   0  0  0  0  0  0  0  0  0  0  0  0
   27.5930  -26.3268  -19.1633 O   0  0  0  0  0  0  0  0  0  0  0  0
  2  4  1  0
  2  3  1  0
  2  1  1  1
  4  5  2  0
  6  7  1  0
  8  7  1  6
  8 10  1  0
  9  8  1  0
  9  4  1  0
 10 12  1  0
 10 11  2  0
 12 13  1  0
 13 14  1  1
 14 15  1  0
 15 16  2  0
 15 20  1  0
 16 17  1  0
 17 18  2  0
 19 18  1  0
 20 19  2  0
 21 22  1  0
 21 13  1  0
 23 21  2  0
M  END
$$$$
