ASF.pdb
     RDKit          3D

 23 23  0  0  1  0  0  0  0  0999 V2000
   31.7185  -23.4977  -18.7772 C   0  0  0  0  0  0  0  0  0  0  0  0
   30.7766  -23.6495  -19.9341 C   0  0  2  0  0  0  0  0  0  0  0  0
   29.9236  -22.4694  -20.0917 N   0  0  0  0  0  0  0  0  0  0  0  0
   29.9551  -24.8734  -19.8528 C   0  0  0  0  0  0  0  0  0  0  0  0
   28.8704  -24.8611  -19.2184 O   0  0  0  0  0  0  0  0  0  0  0  0
   29.7231  -27.9994  -22.6901 O   0  0  0  0  0  0  0  0  0  0  0  0
   30.0940  -28.2991  -21.3891 C   0  0  0  0  0  0  0  0  0  0  0  0
   29.5363  -27.3088  -20.3949 C   0  0  2  0  0  0  0  0  0  0  0  0
   30.3255  -26.1007  -20.4652 N   0  0  0  0  0  0  0  0  0  0  0  0
   29.5282  -27.8983  -19.0383 C   0  0  0  0  0  0  0  0  0  0  0  0
   30.6310  -28.1516  -18.4903 O   0  0  0  0  0  0  0  0  0  0  0  0
   28.3503  -28.2012  -18.3038 N   0  0  0  0  0  0  0  0  0  0  0  0
   28.3881  -28.7341  -16.9522 C   0  0  1  0  0  0  0  0  0  0  0  0
   27.7923  -27.7645  -15.9874 C   0  0  0  0  0  0  0  0  0  0  0  0
   28.4647  -26.4720  -15.9570 C   0  0  0  0  0  0  0  0  0  0  0  0
   29.7813  -26.3076  -15.5242 C   0  0  0  0  0  0  0  0  0  0  0  0
   30.4242  -25.0998  -15.5030 C   0  0  0  0  0  0  0  0  0  0  0  0
   29.7670  -23.9689  -15.9234 C   0  0  0  0  0  0  0  0  0  0  0  0
   28.4751  -24.0815  -16.3564 C   0  0  0  0  0  0  0  0  0  0  0  0
   27.8320  -25.3155  -16.3734 C   0  0  0  0  0  0  0  0  0  0  0  0
   27.7203  -30.0499  -16.9602 C   0  0  0  0  0  0  0  0  0  0  0  0
   27.0579  -30.5082  -18.1055 O   0  0  0  0  0  0  0  0  0  0  0  0
   27.7568  -30.7521  -15.9164 O   0  0  0  0  0  0  0  0  0  0  0  0
  2  4  1  0
  2  3  1  0
  2  1  1  1
  4  5  2  0
  6  7  1  0
  8  7  1  6
  8 10  1  0
  9  8  1  0
  9  4  1  0
 10 12  1  0
 10 11  2  0
 12 13  1  0
 13 14  1  1
 14 15  1  0
 15 16  2  0
 15 20  1  0
 16 17  1  0
 17 18  2  0
 19 18  1  0
 20 19  2  0
 21 22  1  0
 21 13  1  0
 23 21  2  0
M  END
$$$$
