ASF.pdb
     RDKit          3D

 23 23  0  0  1  0  0  0  0  0999 V2000
   26.5377  -15.7782  -16.5330 C   0  0  0  0  0  0  0  0  0  0  0  0
   27.0281  -17.1931  -16.6111 C   0  0  2  0  0  0  0  0  0  0  0  0
   26.9451  -17.7167  -17.9765 N   0  0  0  0  0  0  0  0  0  0  0  0
   26.3378  -18.0960  -15.6689 C   0  0  0  0  0  0  0  0  0  0  0  0
   25.2759  -17.7261  -15.1079 O   0  0  0  0  0  0  0  0  0  0  0  0
   27.6800  -22.0655  -15.0336 O   0  0  0  0  0  0  0  0  0  0  0  0
   26.3374  -21.7230  -15.0359 C   0  0  0  0  0  0  0  0  0  0  0  0
   26.1039  -20.3293  -14.5036 C   0  0  2  0  0  0  0  0  0  0  0  0
   26.8134  -19.3956  -15.3475 N   0  0  0  0  0  0  0  0  0  0  0  0
   26.5292  -20.2461  -13.0893 C   0  0  0  0  0  0  0  0  0  0  0  0
   27.7002  -19.8628  -12.8392 O   0  0  0  0  0  0  0  0  0  0  0  0
   25.6994  -20.5719  -11.9830 N   0  0  0  0  0  0  0  0  0  0  0  0
   26.2136  -20.6884  -10.6286 C   0  0  1  0  0  0  0  0  0  0  0  0
   26.5174  -19.3414  -10.0636 C   0  0  0  0  0  0  0  0  0  0  0  0
   26.9346  -19.3663   -8.6675 C   0  0  0  0  0  0  0  0  0  0  0  0
   28.2722  -19.3301   -8.2709 C   0  0  0  0  0  0  0  0  0  0  0  0
   28.6727  -19.3418   -6.9625 C   0  0  0  0  0  0  0  0  0  0  0  0
   27.7332  -19.3913   -5.9612 C   0  0  0  0  0  0  0  0  0  0  0  0
   26.4098  -19.4280   -6.3022 C   0  0  0  0  0  0  0  0  0  0  0  0
   26.0150  -19.4157   -7.6366 C   0  0  0  0  0  0  0  0  0  0  0  0
   25.2386  -21.4594   -9.8337 C   0  0  0  0  0  0  0  0  0  0  0  0
   25.6684  -22.3329   -8.8273 O   0  0  0  0  0  0  0  0  0  0  0  0
   24.0124  -21.3174  -10.0788 O   0  0  0  0  0  0  0  0  0  0  0  0
  2  4  1  0
  2  3  1  0
  2  1  1  6
  4  5  2  0
  6  7  1  0
  8  7  1  6
  8 10  1  0
  9  8  1  0
  9  4  1  0
 10 12  1  0
 10 11  2  0
 12 13  1  0
 13 14  1  1
 14 15  1  0
 15 16  2  0
 15 20  1  0
 16 17  1  0
 17 18  2  0
 19 18  1  0
 20 19  2  0
 21 22  1  0
 21 13  1  0
 23 21  2  0
M  END
$$$$
