YSW.pdb
     RDKit          3D

 33 35  0  0  1  0  0  0  0  0999 V2000
    7.6662  -12.0418   16.6860 O   0  0  0  0  0  0  0  0  0  0  0  0
    7.9034  -12.7927   17.8333 C   0  0  0  0  0  0  0  0  0  0  0  0
    9.1615  -12.9555   18.3588 C   0  0  0  0  0  0  0  0  0  0  0  0
    9.3192  -13.7102   19.4935 C   0  0  0  0  0  0  0  0  0  0  0  0
    8.2607  -14.3265   20.1478 C   0  0  0  0  0  0  0  0  0  0  0  0
    8.4414  -15.1341   21.3654 C   0  0  0  0  0  0  0  0  0  0  0  0
    8.9263  -16.5353   21.0506 C   0  0  2  0  0  0  0  0  0  0  0  0
    7.7625  -17.2329   20.4795 N   0  0  0  0  0  0  0  0  0  0  0  0
    9.3153  -17.2792   22.2496 C   0  0  0  0  0  0  0  0  0  0  0  0
    8.3976  -17.6389   23.0642 O   0  0  0  0  0  0  0  0  0  0  0  0
    7.0141  -14.1536   19.6103 C   0  0  0  0  0  0  0  0  0  0  0  0
    6.8447  -13.3929   18.4640 C   0  0  0  0  0  0  0  0  0  0  0  0
   12.3709  -19.4959   25.2109 O   0  0  0  0  0  0  0  0  0  0  0  0
   12.2590  -18.9390   23.9303 C   0  0  0  0  0  0  0  0  0  0  0  0
   11.0196  -18.0823   23.9303 C   0  0  2  0  0  0  0  0  0  0  0  0
   10.6294  -17.6507   22.6110 N   0  0  0  0  0  0  0  0  0  0  0  0
   11.0995  -16.9529   24.8860 C   0  0  0  0  0  0  0  0  0  0  0  0
   11.5827  -15.8518   24.5354 O   0  0  0  0  0  0  0  0  0  0  0  0
   10.6274  -17.1254   26.1946 N   0  0  0  0  0  0  0  0  0  0  0  0
   10.8075  -16.1605   27.2583 C   0  0  1  0  0  0  0  0  0  0  0  0
   10.2041  -14.8476   26.8299 C   0  0  0  0  0  0  0  0  0  0  0  0
    8.7429  -14.8217   26.8238 C   0  0  0  0  0  0  0  0  0  0  0  0
    7.9262  -15.9303   26.7750 C   0  0  0  0  0  0  0  0  0  0  0  0
    6.6524  -15.5209   26.7832 N   0  0  0  0  0  0  0  0  0  0  0  0
    6.6365  -14.1697   26.8365 C   0  0  0  0  0  0  0  0  0  0  0  0
    5.6087  -13.2546   26.8655 C   0  0  0  0  0  0  0  0  0  0  0  0
    5.8610  -11.8796   26.9208 C   0  0  0  0  0  0  0  0  0  0  0  0
    7.1716  -11.4675   26.9455 C   0  0  0  0  0  0  0  0  0  0  0  0
    8.2225  -12.3546   26.9177 C   0  0  0  0  0  0  0  0  0  0  0  0
    7.9361  -13.7006   26.8632 C   0  0  0  0  0  0  0  0  0  0  0  0
   10.2799  -16.6350   28.5479 C   0  0  0  0  0  0  0  0  0  0  0  0
    9.7322  -17.9096   28.5904 O   0  0  0  0  0  0  0  0  0  0  0  0
   10.2880  -15.9730   29.6127 O   0  0  0  0  0  0  0  0  0  0  0  0
  2 12  2  0
  2  1  1  0
  3  2  1  0
  4  3  2  0
  5  4  1  0
  5 11  2  0
  6  5  1  0
  7  6  1  0
  7  9  1  0
  7  8  1  1
  9 10  2  0
 11 12  1  0
 13 14  1  0
 15 14  1  6
 16  9  1  0
 16 15  1  0
 17 15  1  0
 17 18  2  0
 19 17  1  0
 20 19  1  0
 20 21  1  6
 22 21  1  0
 22 30  1  0
 23 22  2  0
 24 23  1  0
 24 25  1  0
 25 26  1  0
 25 30  2  0
 26 27  2  0
 27 28  1  0
 29 28  2  0
 30 29  1  0
 31 32  1  0
 31 20  1  0
 33 31  2  0
M  END
$$$$
