YSW.pdb
     RDKit          3D

 33 35  0  0  1  0  0  0  0  0999 V2000
    7.3465  -11.9399   16.9434 O   0  0  0  0  0  0  0  0  0  0  0  0
    7.5648  -12.6567   18.1160 C   0  0  0  0  0  0  0  0  0  0  0  0
    8.8253  -12.9380   18.5822 C   0  0  0  0  0  0  0  0  0  0  0  0
    8.9635  -13.6500   19.7467 C   0  0  0  0  0  0  0  0  0  0  0  0
    7.8827  -14.1075   20.4889 C   0  0  0  0  0  0  0  0  0  0  0  0
    8.0428  -14.8707   21.7377 C   0  0  0  0  0  0  0  0  0  0  0  0
    8.4401  -16.3100   21.4767 C   0  0  2  0  0  0  0  0  0  0  0  0
    7.2064  -16.9830   21.0385 N   0  0  0  0  0  0  0  0  0  0  0  0
    8.8872  -16.9992   22.6880 C   0  0  0  0  0  0  0  0  0  0  0  0
    8.0068  -17.3466   23.5478 O   0  0  0  0  0  0  0  0  0  0  0  0
    6.6340  -13.8181   20.0095 C   0  0  0  0  0  0  0  0  0  0  0  0
    6.4842  -13.0993   18.8338 C   0  0  0  0  0  0  0  0  0  0  0  0
   12.8400  -17.9877   23.5146 O   0  0  0  0  0  0  0  0  0  0  0  0
   11.8661  -18.7196   24.2060 C   0  0  0  0  0  0  0  0  0  0  0  0
   10.6408  -17.8473   24.2942 C   0  0  2  0  0  0  0  0  0  0  0  0
   10.2210  -17.3293   23.0158 N   0  0  0  0  0  0  0  0  0  0  0  0
   10.7650  -16.7806   25.3151 C   0  0  0  0  0  0  0  0  0  0  0  0
   11.3844  -15.7219   25.0612 O   0  0  0  0  0  0  0  0  0  0  0  0
   10.1807  -16.9647   26.5759 N   0  0  0  0  0  0  0  0  0  0  0  0
   10.7161  -16.4248   27.8074 C   0  0  1  0  0  0  0  0  0  0  0  0
    9.9395  -15.1858   28.1722 C   0  0  0  0  0  0  0  0  0  0  0  0
    8.6441  -15.0608   27.5072 C   0  0  0  0  0  0  0  0  0  0  0  0
    7.8082  -16.1082   27.1867 C   0  0  0  0  0  0  0  0  0  0  0  0
    6.7184  -15.6147   26.5874 N   0  0  0  0  0  0  0  0  0  0  0  0
    6.8395  -14.2695   26.5175 C   0  0  0  0  0  0  0  0  0  0  0  0
    6.0190  -13.2898   26.0062 C   0  0  0  0  0  0  0  0  0  0  0  0
    6.3806  -11.9392   26.0568 C   0  0  0  0  0  0  0  0  0  0  0  0
    7.5851  -11.6181   26.6349 C   0  0  0  0  0  0  0  0  0  0  0  0
    8.4289  -12.5715   27.1553 C   0  0  0  0  0  0  0  0  0  0  0  0
    8.0400  -13.8909   27.0877 C   0  0  0  0  0  0  0  0  0  0  0  0
   10.7470  -17.4171   28.8941 C   0  0  0  0  0  0  0  0  0  0  0  0
   11.4166  -17.0746   30.0606 O   0  0  0  0  0  0  0  0  0  0  0  0
   10.2131  -18.5504   28.8450 O   0  0  0  0  0  0  0  0  0  0  0  0
  2 12  2  0
  2  1  1  0
  3  2  1  0
  4  3  2  0
  5  4  1  0
  5 11  2  0
  6  5  1  0
  7  6  1  0
  7  9  1  0
  7  8  1  1
  9 10  2  0
 11 12  1  0
 13 14  1  0
 15 14  1  6
 16  9  1  0
 16 15  1  0
 17 15  1  0
 17 18  2  0
 19 17  1  0
 20 19  1  0
 20 21  1  1
 22 21  1  0
 22 30  1  0
 23 22  2  0
 24 23  1  0
 24 25  1  0
 25 26  1  0
 25 30  2  0
 26 27  2  0
 27 28  1  0
 29 28  2  0
 30 29  1  0
 31 32  1  0
 31 20  1  0
 33 31  2  0
M  END
$$$$
