YSW.pdb
     RDKit          3D

 33 35  0  0  1  0  0  0  0  0999 V2000
    8.3562  -13.4716   16.1200 O   0  0  0  0  0  0  0  0  0  0  0  0
    8.0158  -13.8069   17.4269 C   0  0  0  0  0  0  0  0  0  0  0  0
    7.7648  -12.8587   18.3879 C   0  0  0  0  0  0  0  0  0  0  0  0
    7.4343  -13.2639   19.6562 C   0  0  0  0  0  0  0  0  0  0  0  0
    7.3389  -14.5992   20.0252 C   0  0  0  0  0  0  0  0  0  0  0  0
    6.9831  -15.0229   21.3895 C   0  0  0  0  0  0  0  0  0  0  0  0
    6.8095  -16.5253   21.4905 C   0  0  2  0  0  0  0  0  0  0  0  0
    5.4880  -16.8065   20.9060 N   0  0  0  0  0  0  0  0  0  0  0  0
    6.7649  -16.9951   22.8759 C   0  0  0  0  0  0  0  0  0  0  0  0
    5.8847  -16.4954   23.6574 O   0  0  0  0  0  0  0  0  0  0  0  0
    7.5923  -15.5305   19.0549 C   0  0  0  0  0  0  0  0  0  0  0  0
    7.9269  -15.1308   17.7705 C   0  0  0  0  0  0  0  0  0  0  0  0
    8.4834  -20.3049   24.6919 O   0  0  0  0  0  0  0  0  0  0  0  0
    7.7010  -19.4166   25.4411 C   0  0  0  0  0  0  0  0  0  0  0  0
    7.9192  -18.0429   24.8620 C   0  0  2  0  0  0  0  0  0  0  0  0
    7.6119  -17.9658   23.4553 N   0  0  0  0  0  0  0  0  0  0  0  0
    9.2598  -17.4931   25.1713 C   0  0  0  0  0  0  0  0  0  0  0  0
   10.1702  -17.5065   24.3111 O   0  0  0  0  0  0  0  0  0  0  0  0
    9.5050  -16.9538   26.4418 N   0  0  0  0  0  0  0  0  0  0  0  0
   10.8208  -16.6206   26.9441 C   0  0  1  0  0  0  0  0  0  0  0  0
   11.0176  -15.1301   26.8384 C   0  0  0  0  0  0  0  0  0  0  0  0
    9.9378  -14.3306   27.4135 C   0  0  0  0  0  0  0  0  0  0  0  0
    9.8247  -13.9815   28.7415 C   0  0  0  0  0  0  0  0  0  0  0  0
    8.7134  -13.2527   28.8967 N   0  0  0  0  0  0  0  0  0  0  0  0
    8.1110  -13.1275   27.6923 C   0  0  0  0  0  0  0  0  0  0  0  0
    6.9583  -12.4896   27.2936 C   0  0  0  0  0  0  0  0  0  0  0  0
    6.5416  -12.5088   25.9582 C   0  0  0  0  0  0  0  0  0  0  0  0
    7.3208  -13.1867   25.0518 C   0  0  0  0  0  0  0  0  0  0  0  0
    8.4781  -13.8348   25.4160 C   0  0  0  0  0  0  0  0  0  0  0  0
    8.8571  -13.7946   26.7394 C   0  0  0  0  0  0  0  0  0  0  0  0
   11.0522  -17.1296   28.3057 C   0  0  0  0  0  0  0  0  0  0  0  0
    9.9713  -17.6801   28.9802 O   0  0  0  0  0  0  0  0  0  0  0  0
   12.1542  -17.1030   28.9030 O   0  0  0  0  0  0  0  0  0  0  0  0
  2 12  2  0
  2  1  1  0
  3  2  1  0
  4  3  2  0
  5  4  1  0
  5 11  2  0
  6  5  1  0
  7  6  1  0
  7  9  1  0
  7  8  1  1
  9 10  2  0
 11 12  1  0
 13 14  1  0
 15 14  1  6
 16  9  1  0
 16 15  1  0
 17 15  1  0
 17 18  2  0
 19 17  1  0
 20 19  1  0
 20 21  1  1
 22 21  1  0
 22 30  1  0
 23 22  2  0
 24 23  1  0
 24 25  1  0
 25 26  1  0
 25 30  2  0
 26 27  2  0
 27 28  1  0
 29 28  2  0
 30 29  1  0
 31 32  1  0
 31 20  1  0
 33 31  2  0
M  END
$$$$
