YSW.pdb
     RDKit          3D

 33 35  0  0  1  0  0  0  0  0999 V2000
    9.5215  -11.4309   20.1371 O   0  0  0  0  0  0  0  0  0  0  0  0
    8.9767  -12.5613   19.5354 C   0  0  0  0  0  0  0  0  0  0  0  0
    7.6239  -12.7922   19.4931 C   0  0  0  0  0  0  0  0  0  0  0  0
    7.1589  -13.9293   18.8823 C   0  0  0  0  0  0  0  0  0  0  0  0
    7.9942  -14.8716   18.2969 C   0  0  0  0  0  0  0  0  0  0  0  0
    7.4842  -16.0885   17.6437 C   0  0  0  0  0  0  0  0  0  0  0  0
    8.0829  -17.3467   18.2404 C   0  0  2  0  0  0  0  0  0  0  0  0
    7.4174  -18.4627   17.5486 N   0  0  0  0  0  0  0  0  0  0  0  0
    7.7791  -17.4941   19.6646 C   0  0  0  0  0  0  0  0  0  0  0  0
    6.5927  -17.8339   19.9993 O   0  0  0  0  0  0  0  0  0  0  0  0
    9.3393  -14.6253   18.3484 C   0  0  0  0  0  0  0  0  0  0  0  0
    9.8187  -13.4792   18.9632 C   0  0  0  0  0  0  0  0  0  0  0  0
    8.8446  -19.7619   22.4399 O   0  0  0  0  0  0  0  0  0  0  0  0
    7.7718  -18.8618   22.4016 C   0  0  0  0  0  0  0  0  0  0  0  0
    8.3511  -17.4990   22.1237 C   0  0  2  0  0  0  0  0  0  0  0  0
    8.6798  -17.2959   20.7345 N   0  0  0  0  0  0  0  0  0  0  0  0
    9.4809  -17.1592   23.0200 C   0  0  0  0  0  0  0  0  0  0  0  0
   10.6324  -17.5952   22.7905 O   0  0  0  0  0  0  0  0  0  0  0  0
    9.2516  -16.3405   24.1345 N   0  0  0  0  0  0  0  0  0  0  0  0
   10.2283  -16.0861   25.1719 C   0  0  1  0  0  0  0  0  0  0  0  0
    9.7916  -14.8811   25.9647 C   0  0  0  0  0  0  0  0  0  0  0  0
    8.3445  -14.6884   26.0329 C   0  0  0  0  0  0  0  0  0  0  0  0
    7.4007  -15.6838   25.9022 C   0  0  0  0  0  0  0  0  0  0  0  0
    6.1856  -15.1357   26.0177 N   0  0  0  0  0  0  0  0  0  0  0  0
    6.3321  -13.8065   26.2203 C   0  0  0  0  0  0  0  0  0  0  0  0
    5.4219  -12.7898   26.4002 C   0  0  0  0  0  0  0  0  0  0  0  0
    5.8374  -11.4681   26.5943 C   0  0  0  0  0  0  0  0  0  0  0  0
    7.1877  -11.2136   26.6002 C   0  0  0  0  0  0  0  0  0  0  0  0
    8.1242  -12.2054   26.4235 C   0  0  0  0  0  0  0  0  0  0  0  0
    7.6783  -13.4947   26.2350 C   0  0  0  0  0  0  0  0  0  0  0  0
   10.4749  -17.2648   26.0183 C   0  0  0  0  0  0  0  0  0  0  0  0
   11.5865  -17.2403   26.8490 O   0  0  0  0  0  0  0  0  0  0  0  0
    9.7552  -18.2910   26.0451 O   0  0  0  0  0  0  0  0  0  0  0  0
  2 12  2  0
  2  1  1  0
  3  2  1  0
  4  3  2  0
  5  4  1  0
  5 11  2  0
  6  5  1  0
  7  6  1  0
  7  9  1  0
  7  8  1  6
  9 10  2  0
 11 12  1  0
 13 14  1  0
 15 14  1  6
 16  9  1  0
 16 15  1  0
 17 15  1  0
 17 18  2  0
 19 17  1  0
 20 19  1  0
 20 21  1  1
 22 21  1  0
 22 30  1  0
 23 22  2  0
 24 23  1  0
 24 25  1  0
 25 26  1  0
 25 30  2  0
 26 27  2  0
 27 28  1  0
 29 28  2  0
 30 29  1  0
 31 32  1  0
 31 20  1  0
 33 31  2  0
M  END
$$$$
