YSW.pdb
     RDKit          3D

 33 35  0  0  1  0  0  0  0  0999 V2000
    6.2755  -25.4702   26.3413 O   0  0  0  0  0  0  0  0  0  0  0  0
    6.3330  -24.4708   25.3747 C   0  0  0  0  0  0  0  0  0  0  0  0
    5.2122  -23.8175   24.9248 C   0  0  0  0  0  0  0  0  0  0  0  0
    5.3457  -22.8421   23.9693 C   0  0  0  0  0  0  0  0  0  0  0  0
    6.5697  -22.4753   23.4256 C   0  0  0  0  0  0  0  0  0  0  0  0
    6.7014  -21.4266   22.4007 C   0  0  0  0  0  0  0  0  0  0  0  0
    7.3749  -20.1824   22.9446 C   0  0  2  0  0  0  0  0  0  0  0  0
    6.4471  -19.6445   23.9530 N   0  0  0  0  0  0  0  0  0  0  0  0
    7.5407  -19.1420   21.9286 C   0  0  0  0  0  0  0  0  0  0  0  0
    8.1243  -19.4515   20.8337 O   0  0  0  0  0  0  0  0  0  0  0  0
    7.6759  -23.1368   23.8856 C   0  0  0  0  0  0  0  0  0  0  0  0
    7.5511  -24.1237   24.8508 C   0  0  0  0  0  0  0  0  0  0  0  0
    5.7588  -15.5373   21.7606 O   0  0  0  0  0  0  0  0  0  0  0  0
    6.7811  -15.6868   20.8146 C   0  0  0  0  0  0  0  0  0  0  0  0
    7.7569  -16.6879   21.3764 C   0  0  2  0  0  0  0  0  0  0  0  0
    7.1137  -17.7995   22.0319 N   0  0  0  0  0  0  0  0  0  0  0  0
    8.7970  -16.0640   22.2275 C   0  0  0  0  0  0  0  0  0  0  0  0
    9.5020  -15.1254   21.7906 O   0  0  0  0  0  0  0  0  0  0  0  0
    8.9886  -16.5340   23.5342 N   0  0  0  0  0  0  0  0  0  0  0  0
   10.0479  -16.0859   24.4128 C   0  0  1  0  0  0  0  0  0  0  0  0
    9.7900  -14.6500   24.7910 C   0  0  0  0  0  0  0  0  0  0  0  0
    8.4064  -14.3557   25.1582 C   0  0  0  0  0  0  0  0  0  0  0  0
    7.3892  -15.2815   25.2399 C   0  0  0  0  0  0  0  0  0  0  0  0
    6.2665  -14.6492   25.6006 N   0  0  0  0  0  0  0  0  0  0  0  0
    6.5446  -13.3344   25.7521 C   0  0  0  0  0  0  0  0  0  0  0  0
    5.7655  -12.2564   26.1064 C   0  0  0  0  0  0  0  0  0  0  0  0
    6.3035  -10.9679   26.1935 C   0  0  0  0  0  0  0  0  0  0  0  0
    7.6395  -10.8095   25.9135 C   0  0  0  0  0  0  0  0  0  0  0  0
    8.4466  -11.8645   25.5566 C   0  0  0  0  0  0  0  0  0  0  0  0
    7.8823  -13.1185   25.4810 C   0  0  0  0  0  0  0  0  0  0  0  0
   10.2194  -16.9605   25.5842 C   0  0  0  0  0  0  0  0  0  0  0  0
   11.3181  -16.7346   26.4017 O   0  0  0  0  0  0  0  0  0  0  0  0
    9.4463  -17.8958   25.8995 O   0  0  0  0  0  0  0  0  0  0  0  0
  2 12  2  0
  2  1  1  0
  3  2  1  0
  4  3  2  0
  5  4  1  0
  5 11  2  0
  6  5  1  0
  7  6  1  0
  7  9  1  0
  7  8  1  1
  9 10  2  0
 11 12  1  0
 13 14  1  0
 15 14  1  1
 16  9  1  0
 16 15  1  0
 17 15  1  0
 17 18  2  0
 19 17  1  0
 20 19  1  0
 20 21  1  1
 22 21  1  0
 22 30  1  0
 23 22  2  0
 24 23  1  0
 24 25  1  0
 25 26  1  0
 25 30  2  0
 26 27  2  0
 27 28  1  0
 29 28  2  0
 30 29  1  0
 31 32  1  0
 31 20  1  0
 33 31  2  0
M  END
$$$$
