YSW.pdb
     RDKit          3D

 33 35  0  0  1  0  0  0  0  0999 V2000
    8.2269  -12.4149   16.0061 O   0  0  0  0  0  0  0  0  0  0  0  0
    8.0809  -13.0487   17.2363 C   0  0  0  0  0  0  0  0  0  0  0  0
    8.0581  -14.4159   17.3612 C   0  0  0  0  0  0  0  0  0  0  0  0
    7.9109  -14.9708   18.6072 C   0  0  0  0  0  0  0  0  0  0  0  0
    7.7819  -14.2137   19.7642 C   0  0  0  0  0  0  0  0  0  0  0  0
    7.6247  -14.8198   21.0967 C   0  0  0  0  0  0  0  0  0  0  0  0
    7.5393  -16.3316   21.0263 C   0  0  2  0  0  0  0  0  0  0  0  0
    6.1005  -16.6413   20.9998 N   0  0  0  0  0  0  0  0  0  0  0  0
    8.0875  -16.9824   22.2172 C   0  0  0  0  0  0  0  0  0  0  0  0
    7.3102  -17.1767   23.2139 O   0  0  0  0  0  0  0  0  0  0  0  0
    7.8068  -12.8529   19.6210 C   0  0  0  0  0  0  0  0  0  0  0  0
    7.9551  -12.2831   18.3662 C   0  0  0  0  0  0  0  0  0  0  0  0
   11.9251  -18.5678   22.4854 O   0  0  0  0  0  0  0  0  0  0  0  0
   10.9252  -19.1643   23.2643 C   0  0  0  0  0  0  0  0  0  0  0  0
    9.9077  -18.0953   23.5673 C   0  0  2  0  0  0  0  0  0  0  0  0
    9.4167  -17.4296   22.3863 N   0  0  0  0  0  0  0  0  0  0  0  0
   10.3690  -17.1357   24.5977 C   0  0  0  0  0  0  0  0  0  0  0  0
   11.2541  -16.2899   24.3329 O   0  0  0  0  0  0  0  0  0  0  0  0
    9.8048  -17.1805   25.8801 N   0  0  0  0  0  0  0  0  0  0  0  0
   10.4512  -16.6732   27.0716 C   0  0  1  0  0  0  0  0  0  0  0  0
    9.9197  -15.2932   27.3620 C   0  0  0  0  0  0  0  0  0  0  0  0
    8.5958  -15.0207   26.8061 C   0  0  0  0  0  0  0  0  0  0  0  0
    7.6848  -15.9762   26.4116 C   0  0  0  0  0  0  0  0  0  0  0  0
    6.5904  -15.3572   25.9539 N   0  0  0  0  0  0  0  0  0  0  0  0
    6.7823  -14.0217   26.0476 C   0  0  0  0  0  0  0  0  0  0  0  0
    5.9888  -12.9456   25.7208 C   0  0  0  0  0  0  0  0  0  0  0  0
    6.4279  -11.6320   25.9184 C   0  0  0  0  0  0  0  0  0  0  0  0
    7.6811  -11.4470   26.4509 C   0  0  0  0  0  0  0  0  0  0  0  0
    8.4998  -12.4994   26.7886 C   0  0  0  0  0  0  0  0  0  0  0  0
    8.0341  -13.7786   26.5800 C   0  0  0  0  0  0  0  0  0  0  0  0
   10.3201  -17.5861   28.2187 C   0  0  0  0  0  0  0  0  0  0  0  0
   11.0457  -17.2898   29.3642 O   0  0  0  0  0  0  0  0  0  0  0  0
    9.6012  -18.6130   28.2388 O   0  0  0  0  0  0  0  0  0  0  0  0
  2 12  2  0
  2  1  1  0
  3  2  1  0
  4  3  2  0
  5  4  1  0
  5 11  2  0
  6  5  1  0
  7  6  1  0
  7  9  1  0
  7  8  1  1
  9 10  2  0
 11 12  1  0
 13 14  1  0
 15 14  1  6
 16  9  1  0
 16 15  1  0
 17 15  1  0
 17 18  2  0
 19 17  1  0
 20 19  1  0
 20 21  1  1
 22 21  1  0
 22 30  1  0
 23 22  2  0
 24 23  1  0
 24 25  1  0
 25 26  1  0
 25 30  2  0
 26 27  2  0
 27 28  1  0
 29 28  2  0
 30 29  1  0
 31 32  1  0
 31 20  1  0
 33 31  2  0
M  END
$$$$
