YSW.pdb
     RDKit          3D

 33 35  0  0  1  0  0  0  0  0999 V2000
   -0.1375  -20.9470   22.0238 O   0  0  0  0  0  0  0  0  0  0  0  0
    1.1163  -20.3654   22.1860 C   0  0  0  0  0  0  0  0  0  0  0  0
    2.0592  -20.8773   23.0429 C   0  0  0  0  0  0  0  0  0  0  0  0
    3.2745  -20.2501   23.1510 C   0  0  0  0  0  0  0  0  0  0  0  0
    3.6066  -19.1102   22.4307 C   0  0  0  0  0  0  0  0  0  0  0  0
    4.9143  -18.4454   22.5542 C   0  0  0  0  0  0  0  0  0  0  0  0
    5.6609  -18.4115   21.2355 C   0  0  2  0  0  0  0  0  0  0  0  0
    5.9707  -19.8168   20.9252 N   0  0  0  0  0  0  0  0  0  0  0  0
    6.9420  -17.7102   21.3316 C   0  0  0  0  0  0  0  0  0  0  0  0
    7.8807  -18.2526   22.0098 O   0  0  0  0  0  0  0  0  0  0  0  0
    2.6550  -18.6139   21.5816 C   0  0  0  0  0  0  0  0  0  0  0  0
    1.4241  -19.2406   21.4656 C   0  0  0  0  0  0  0  0  0  0  0  0
    7.5011  -13.7499   20.2283 O   0  0  0  0  0  0  0  0  0  0  0  0
    8.6454  -14.5443   20.0798 C   0  0  0  0  0  0  0  0  0  0  0  0
    8.4755  -15.7341   20.9884 C   0  0  2  0  0  0  0  0  0  0  0  0
    7.2590  -16.4672   20.7401 N   0  0  0  0  0  0  0  0  0  0  0  0
    8.6394  -15.3935   22.4210 C   0  0  0  0  0  0  0  0  0  0  0  0
    7.7909  -14.6857   23.0108 O   0  0  0  0  0  0  0  0  0  0  0  0
    9.7580  -15.8718   23.1174 N   0  0  0  0  0  0  0  0  0  0  0  0
   10.1288  -15.4478   24.4507 C   0  0  1  0  0  0  0  0  0  0  0  0
    9.2225  -16.1264   25.4454 C   0  0  0  0  0  0  0  0  0  0  0  0
    7.9047  -15.5108   25.5879 C   0  0  0  0  0  0  0  0  0  0  0  0
    6.7025  -16.1316   25.3275 C   0  0  0  0  0  0  0  0  0  0  0  0
    5.7141  -15.2621   25.5668 N   0  0  0  0  0  0  0  0  0  0  0  0
    6.2599  -14.0943   25.9761 C   0  0  0  0  0  0  0  0  0  0  0  0
    5.7049  -12.8900   26.3450 C   0  0  0  0  0  0  0  0  0  0  0  0
    6.5044  -11.8107   26.7366 C   0  0  0  0  0  0  0  0  0  0  0  0
    7.8668  -11.9893   26.7422 C   0  0  0  0  0  0  0  0  0  0  0  0
    8.4544  -13.1790   26.3796 C   0  0  0  0  0  0  0  0  0  0  0  0
    7.6359  -14.2194   25.9997 C   0  0  0  0  0  0  0  0  0  0  0  0
   11.5553  -15.6684   24.7384 C   0  0  0  0  0  0  0  0  0  0  0  0
   12.3393  -16.2127   23.7306 O   0  0  0  0  0  0  0  0  0  0  0  0
   12.1164  -15.4013   25.8273 O   0  0  0  0  0  0  0  0  0  0  0  0
  2 12  2  0
  2  1  1  0
  3  2  1  0
  4  3  2  0
  5  4  1  0
  5 11  2  0
  6  5  1  0
  7  6  1  0
  7  9  1  0
  7  8  1  1
  9 10  2  0
 11 12  1  0
 13 14  1  0
 15 14  1  6
 16  9  1  0
 16 15  1  0
 17 15  1  0
 17 18  2  0
 19 17  1  0
 20 19  1  0
 20 21  1  1
 22 21  1  0
 22 30  1  0
 23 22  2  0
 24 23  1  0
 24 25  1  0
 25 26  1  0
 25 30  2  0
 26 27  2  0
 27 28  1  0
 29 28  2  0
 30 29  1  0
 31 32  1  0
 31 20  1  0
 33 31  2  0
M  END
$$$$
