YSW.pdb
     RDKit          3D

 33 35  0  0  1  0  0  0  0  0999 V2000
    9.9427  -11.5404   20.4565 O   0  0  0  0  0  0  0  0  0  0  0  0
    9.2455  -12.6090   19.9010 C   0  0  0  0  0  0  0  0  0  0  0  0
    7.9216  -12.5193   19.5478 C   0  0  0  0  0  0  0  0  0  0  0  0
    7.2993  -13.6148   19.0048 C   0  0  0  0  0  0  0  0  0  0  0  0
    7.9450  -14.8254   18.7906 C   0  0  0  0  0  0  0  0  0  0  0  0
    7.2672  -15.9948   18.2069 C   0  0  0  0  0  0  0  0  0  0  0  0
    7.8575  -17.2996   18.7033 C   0  0  2  0  0  0  0  0  0  0  0  0
    7.0649  -18.3584   18.0570 N   0  0  0  0  0  0  0  0  0  0  0  0
    7.6973  -17.4768   20.1473 C   0  0  0  0  0  0  0  0  0  0  0  0
    6.5311  -17.7423   20.5998 O   0  0  0  0  0  0  0  0  0  0  0  0
    9.2639  -14.8967   19.1485 C   0  0  0  0  0  0  0  0  0  0  0  0
    9.9014  -13.7952   19.6978 C   0  0  0  0  0  0  0  0  0  0  0  0
    9.4655  -19.7723   22.4867 O   0  0  0  0  0  0  0  0  0  0  0  0
    8.2992  -19.0843   22.8456 C   0  0  0  0  0  0  0  0  0  0  0  0
    8.5305  -17.6303   22.5257 C   0  0  2  0  0  0  0  0  0  0  0  0
    8.7195  -17.3832   21.1178 N   0  0  0  0  0  0  0  0  0  0  0  0
    9.6029  -17.0227   23.3478 C   0  0  0  0  0  0  0  0  0  0  0  0
   10.7874  -17.0040   22.9409 O   0  0  0  0  0  0  0  0  0  0  0  0
    9.2816  -16.4645   24.5929 N   0  0  0  0  0  0  0  0  0  0  0  0
   10.2549  -16.1335   25.6117 C   0  0  1  0  0  0  0  0  0  0  0  0
    9.5957  -15.2582   26.6464 C   0  0  0  0  0  0  0  0  0  0  0  0
    8.1910  -14.9542   26.3819 C   0  0  0  0  0  0  0  0  0  0  0  0
    7.2093  -15.8852   26.1210 C   0  0  0  0  0  0  0  0  0  0  0  0
    6.0527  -15.2409   25.9272 N   0  0  0  0  0  0  0  0  0  0  0  0
    6.2740  -13.9133   26.0589 C   0  0  0  0  0  0  0  0  0  0  0  0
    5.4434  -12.8202   25.9602 C   0  0  0  0  0  0  0  0  0  0  0  0
    5.9275  -11.5204   26.1432 C   0  0  0  0  0  0  0  0  0  0  0  0
    7.2634  -11.3664   26.4259 C   0  0  0  0  0  0  0  0  0  0  0  0
    8.1212  -12.4364   26.5317 C   0  0  0  0  0  0  0  0  0  0  0  0
    7.6093  -13.7013   26.3451 C   0  0  0  0  0  0  0  0  0  0  0  0
   10.8897  -17.3259   26.1965 C   0  0  0  0  0  0  0  0  0  0  0  0
   12.0107  -17.1342   26.9921 O   0  0  0  0  0  0  0  0  0  0  0  0
   10.4933  -18.5035   26.0294 O   0  0  0  0  0  0  0  0  0  0  0  0
  2 12  2  0
  2  1  1  0
  3  2  1  0
  4  3  2  0
  5  4  1  0
  5 11  2  0
  6  5  1  0
  7  6  1  0
  7  9  1  0
  7  8  1  6
  9 10  2  0
 11 12  1  0
 13 14  1  0
 15 14  1  6
 16  9  1  0
 16 15  1  0
 17 15  1  0
 17 18  2  0
 19 17  1  0
 20 19  1  0
 20 21  1  1
 22 21  1  0
 22 30  1  0
 23 22  2  0
 24 23  1  0
 24 25  1  0
 25 26  1  0
 25 30  2  0
 26 27  2  0
 27 28  1  0
 29 28  2  0
 30 29  1  0
 31 32  1  0
 31 20  1  0
 33 31  2  0
M  END
$$$$
