YSW.pdb
     RDKit          3D

 33 35  0  0  1  0  0  0  0  0999 V2000
    7.4723  -11.8241   16.9905 O   0  0  0  0  0  0  0  0  0  0  0  0
    7.5680  -12.5474   18.1755 C   0  0  0  0  0  0  0  0  0  0  0  0
    6.4681  -13.0744   18.8064 C   0  0  0  0  0  0  0  0  0  0  0  0
    6.6393  -13.7768   19.9724 C   0  0  0  0  0  0  0  0  0  0  0  0
    7.8816  -13.9860   20.5564 C   0  0  0  0  0  0  0  0  0  0  0  0
    8.0537  -14.7418   21.8081 C   0  0  0  0  0  0  0  0  0  0  0  0
    8.6356  -16.1200   21.5638 C   0  0  2  0  0  0  0  0  0  0  0  0
    7.5446  -16.9043   20.9626 N   0  0  0  0  0  0  0  0  0  0  0  0
    9.0090  -16.8015   22.8042 C   0  0  0  0  0  0  0  0  0  0  0  0
    8.0836  -17.0970   23.6357 O   0  0  0  0  0  0  0  0  0  0  0  0
    8.9666  -13.4539   19.9142 C   0  0  0  0  0  0  0  0  0  0  0  0
    8.8037  -12.7427   18.7356 C   0  0  0  0  0  0  0  0  0  0  0  0
   12.9073  -17.8181   23.8500 O   0  0  0  0  0  0  0  0  0  0  0  0
   11.8972  -18.6005   24.4244 C   0  0  0  0  0  0  0  0  0  0  0  0
   10.6539  -17.7506   24.4679 C   0  0  2  0  0  0  0  0  0  0  0  0
   10.3154  -17.1763   23.1893 N   0  0  0  0  0  0  0  0  0  0  0  0
   10.6882  -16.7337   25.5449 C   0  0  0  0  0  0  0  0  0  0  0  0
   11.2391  -15.6242   25.3592 O   0  0  0  0  0  0  0  0  0  0  0  0
   10.0959  -17.0228   26.7821 N   0  0  0  0  0  0  0  0  0  0  0  0
   10.3818  -16.3082   28.0078 C   0  0  1  0  0  0  0  0  0  0  0  0
    9.0839  -15.8233   28.6009 C   0  0  0  0  0  0  0  0  0  0  0  0
    8.1259  -15.3031   27.6275 C   0  0  0  0  0  0  0  0  0  0  0  0
    7.2246  -16.0614   26.9126 C   0  0  0  0  0  0  0  0  0  0  0  0
    6.5168  -15.2470   26.1213 N   0  0  0  0  0  0  0  0  0  0  0  0
    6.9473  -13.9797   26.3153 C   0  0  0  0  0  0  0  0  0  0  0  0
    6.5675  -12.7767   25.7649 C   0  0  0  0  0  0  0  0  0  0  0  0
    7.1833  -11.5782   26.1417 C   0  0  0  0  0  0  0  0  0  0  0  0
    8.1833  -11.6379   27.0822 C   0  0  0  0  0  0  0  0  0  0  0  0
    8.5875  -12.8227   27.6523 C   0  0  0  0  0  0  0  0  0  0  0  0
    7.9588  -13.9824   27.2569 C   0  0  0  0  0  0  0  0  0  0  0  0
   11.1772  -17.1057   28.9554 C   0  0  0  0  0  0  0  0  0  0  0  0
   11.6290  -16.4762   30.1069 O   0  0  0  0  0  0  0  0  0  0  0  0
   11.4778  -18.3129   28.8002 O   0  0  0  0  0  0  0  0  0  0  0  0
  2 12  2  0
  2  1  1  0
  3  2  1  0
  4  3  2  0
  5  4  1  0
  5 11  2  0
  6  5  1  0
  7  6  1  0
  7  9  1  0
  7  8  1  1
  9 10  2  0
 11 12  1  0
 13 14  1  0
 15 14  1  6
 16  9  1  0
 16 15  1  0
 17 15  1  0
 17 18  2  0
 19 17  1  0
 20 19  1  0
 20 21  1  1
 22 21  1  0
 22 30  1  0
 23 22  2  0
 24 23  1  0
 24 25  1  0
 25 26  1  0
 25 30  2  0
 26 27  2  0
 27 28  1  0
 29 28  2  0
 30 29  1  0
 31 32  1  0
 31 20  1  0
 33 31  2  0
M  END
$$$$
