YSW.pdb
     RDKit          3D

 33 35  0  0  1  0  0  0  0  0999 V2000
    8.1500  -12.5280   14.3185 O   0  0  0  0  0  0  0  0  0  0  0  0
    8.0530  -13.1352   15.5669 C   0  0  0  0  0  0  0  0  0  0  0  0
    8.8101  -12.7349   16.6402 C   0  0  0  0  0  0  0  0  0  0  0  0
    8.6606  -13.3807   17.8414 C   0  0  0  0  0  0  0  0  0  0  0  0
    7.7729  -14.4314   18.0323 C   0  0  0  0  0  0  0  0  0  0  0  0
    7.6203  -15.1172   19.3261 C   0  0  0  0  0  0  0  0  0  0  0  0
    8.9324  -15.2058   20.0800 C   0  0  2  0  0  0  0  0  0  0  0  0
    9.8509  -15.9261   19.1831 N   0  0  0  0  0  0  0  0  0  0  0  0
    8.8265  -16.0039   21.3024 C   0  0  0  0  0  0  0  0  0  0  0  0
    7.9345  -15.6830   22.1605 O   0  0  0  0  0  0  0  0  0  0  0  0
    7.0266  -14.8170   16.9520 C   0  0  0  0  0  0  0  0  0  0  0  0
    7.1706  -14.1706   15.7343 C   0  0  0  0  0  0  0  0  0  0  0  0
   11.2826  -19.2635   22.2847 O   0  0  0  0  0  0  0  0  0  0  0  0
    9.9813  -19.2588   22.8033 C   0  0  0  0  0  0  0  0  0  0  0  0
    9.5523  -17.8179   22.9014 C   0  0  2  0  0  0  0  0  0  0  0  0
    9.6250  -17.1183   21.6427 N   0  0  0  0  0  0  0  0  0  0  0  0
   10.2416  -17.0840   23.9884 C   0  0  0  0  0  0  0  0  0  0  0  0
   11.4262  -16.7014   23.8502 O   0  0  0  0  0  0  0  0  0  0  0  0
    9.5547  -16.8182   25.1812 N   0  0  0  0  0  0  0  0  0  0  0  0
   10.1811  -16.3196   26.3869 C   0  0  1  0  0  0  0  0  0  0  0  0
    9.7033  -14.9121   26.6356 C   0  0  0  0  0  0  0  0  0  0  0  0
    8.3030  -14.6742   26.2914 C   0  0  0  0  0  0  0  0  0  0  0  0
    7.3755  -15.6518   26.0044 C   0  0  0  0  0  0  0  0  0  0  0  0
    6.2052  -15.0619   25.7348 N   0  0  0  0  0  0  0  0  0  0  0  0
    6.3645  -13.7233   25.8437 C   0  0  0  0  0  0  0  0  0  0  0  0
    5.4959  -12.6691   25.6743 C   0  0  0  0  0  0  0  0  0  0  0  0
    5.9159  -11.3460   25.8485 C   0  0  0  0  0  0  0  0  0  0  0  0
    7.2276  -11.1289   26.1955 C   0  0  0  0  0  0  0  0  0  0  0  0
    8.1220  -12.1588   26.3727 C   0  0  0  0  0  0  0  0  0  0  0  0
    7.6730  -13.4482   26.1926 C   0  0  0  0  0  0  0  0  0  0  0  0
    9.9678  -17.2051   27.5432 C   0  0  0  0  0  0  0  0  0  0  0  0
   10.7068  -16.9552   28.6912 O   0  0  0  0  0  0  0  0  0  0  0  0
    9.1675  -18.1699   27.5689 O   0  0  0  0  0  0  0  0  0  0  0  0
  2 12  2  0
  2  1  1  0
  3  2  1  0
  4  3  2  0
  5  4  1  0
  5 11  2  0
  6  5  1  0
  7  6  1  0
  7  9  1  0
  7  8  1  6
  9 10  2  0
 11 12  1  0
 13 14  1  0
 15 14  1  6
 16  9  1  0
 16 15  1  0
 17 15  1  0
 17 18  2  0
 19 17  1  0
 20 19  1  0
 20 21  1  1
 22 21  1  0
 22 30  1  0
 23 22  2  0
 24 23  1  0
 24 25  1  0
 25 26  1  0
 25 30  2  0
 26 27  2  0
 27 28  1  0
 29 28  2  0
 30 29  1  0
 31 32  1  0
 31 20  1  0
 33 31  2  0
M  END
$$$$
