YSW.pdb
     RDKit          3D

 33 35  0  0  1  0  0  0  0  0999 V2000
   11.6586  -24.8610   20.2663 O   0  0  0  0  0  0  0  0  0  0  0  0
   11.5118  -23.4982   20.5066 C   0  0  0  0  0  0  0  0  0  0  0  0
   12.4903  -22.5868   20.1948 C   0  0  0  0  0  0  0  0  0  0  0  0
   12.2752  -21.2582   20.4606 C   0  0  0  0  0  0  0  0  0  0  0  0
   11.1054  -20.7794   21.0357 C   0  0  0  0  0  0  0  0  0  0  0  0
   10.8851  -19.3511   21.3164 C   0  0  0  0  0  0  0  0  0  0  0  0
    9.9609  -18.7089   20.3009 C   0  0  2  0  0  0  0  0  0  0  0  0
   10.7484  -18.6127   19.0610 N   0  0  0  0  0  0  0  0  0  0  0  0
    9.5847  -17.3425   20.6669 C   0  0  0  0  0  0  0  0  0  0  0  0
   10.4104  -16.3988   20.4164 O   0  0  0  0  0  0  0  0  0  0  0  0
   10.1412  -21.7016   21.3398 C   0  0  0  0  0  0  0  0  0  0  0  0
   10.3493  -23.0462   21.0750 C   0  0  0  0  0  0  0  0  0  0  0  0
    5.8175  -16.3107   21.7172 O   0  0  0  0  0  0  0  0  0  0  0  0
    6.6056  -15.2379   21.2808 C   0  0  0  0  0  0  0  0  0  0  0  0
    8.0360  -15.5829   21.6047 C   0  0  2  0  0  0  0  0  0  0  0  0
    8.3767  -16.9464   21.2826 N   0  0  0  0  0  0  0  0  0  0  0  0
    8.4153  -15.2256   22.9917 C   0  0  0  0  0  0  0  0  0  0  0  0
    7.8531  -14.2756   23.5835 O   0  0  0  0  0  0  0  0  0  0  0  0
    9.4144  -15.9627   23.6425 N   0  0  0  0  0  0  0  0  0  0  0  0
    9.8966  -15.6780   24.9771 C   0  0  1  0  0  0  0  0  0  0  0  0
    8.8130  -16.0189   25.9675 C   0  0  0  0  0  0  0  0  0  0  0  0
    7.6658  -15.1136   25.9512 C   0  0  0  0  0  0  0  0  0  0  0  0
    6.3545  -15.4920   25.7619 C   0  0  0  0  0  0  0  0  0  0  0  0
    5.5853  -14.3981   25.8076 N   0  0  0  0  0  0  0  0  0  0  0  0
    6.3790  -13.3244   26.0228 C   0  0  0  0  0  0  0  0  0  0  0  0
    6.1074  -11.9812   26.1522 C   0  0  0  0  0  0  0  0  0  0  0  0
    7.1287  -11.0512   26.3748 C   0  0  0  0  0  0  0  0  0  0  0  0
    8.4172  -11.5206   26.4609 C   0  0  0  0  0  0  0  0  0  0  0  0
    8.7239  -12.8557   26.3363 C   0  0  0  0  0  0  0  0  0  0  0  0
    7.6929  -13.7421   26.1177 C   0  0  0  0  0  0  0  0  0  0  0  0
   11.1710  -16.3521   25.2741 C   0  0  0  0  0  0  0  0  0  0  0  0
   11.7799  -16.0723   26.4896 O   0  0  0  0  0  0  0  0  0  0  0  0
   11.7488  -17.1610   24.5102 O   0  0  0  0  0  0  0  0  0  0  0  0
  2 12  2  0
  2  1  1  0
  3  2  1  0
  4  3  2  0
  5  4  1  0
  5 11  2  0
  6  5  1  0
  7  6  1  0
  7  9  1  0
  7  8  1  6
  9 10  2  0
 11 12  1  0
 13 14  1  0
 15 14  1  1
 16  9  1  0
 16 15  1  0
 17 15  1  0
 17 18  2  0
 19 17  1  0
 20 19  1  0
 20 21  1  1
 22 21  1  0
 22 30  1  0
 23 22  2  0
 24 23  1  0
 24 25  1  0
 25 26  1  0
 25 30  2  0
 26 27  2  0
 27 28  1  0
 29 28  2  0
 30 29  1  0
 31 32  1  0
 31 20  1  0
 33 31  2  0
M  END
$$$$
