YSW.pdb
     RDKit          3D

 33 35  0  0  1  0  0  0  0  0999 V2000
    7.2945  -12.1357   16.7319 O   0  0  0  0  0  0  0  0  0  0  0  0
    7.5268  -12.7969   17.9341 C   0  0  0  0  0  0  0  0  0  0  0  0
    8.7508  -12.7835   18.5564 C   0  0  0  0  0  0  0  0  0  0  0  0
    8.9057  -13.4585   19.7406 C   0  0  0  0  0  0  0  0  0  0  0  0
    7.8776  -14.1639   20.3518 C   0  0  0  0  0  0  0  0  0  0  0  0
    8.0550  -14.8847   21.6232 C   0  0  0  0  0  0  0  0  0  0  0  0
    9.1124  -15.9659   21.5202 C   0  0  2  0  0  0  0  0  0  0  0  0
    8.5767  -16.9468   20.5621 N   0  0  0  0  0  0  0  0  0  0  0  0
    9.3138  -16.6785   22.7827 C   0  0  0  0  0  0  0  0  0  0  0  0
    8.2937  -16.9076   23.5190 O   0  0  0  0  0  0  0  0  0  0  0  0
    6.6648  -14.1666   19.7178 C   0  0  0  0  0  0  0  0  0  0  0  0
    6.4984  -13.4875   18.5209 C   0  0  0  0  0  0  0  0  0  0  0  0
   12.9990  -17.9960   24.1429 O   0  0  0  0  0  0  0  0  0  0  0  0
   11.8986  -18.7328   24.5997 C   0  0  0  0  0  0  0  0  0  0  0  0
   10.7057  -17.8135   24.5572 C   0  0  2  0  0  0  0  0  0  0  0  0
   10.5459  -17.1514   23.2863 N   0  0  0  0  0  0  0  0  0  0  0  0
   10.6717  -16.8605   25.6911 C   0  0  0  0  0  0  0  0  0  0  0  0
   11.1691  -15.7164   25.5797 O   0  0  0  0  0  0  0  0  0  0  0  0
   10.0749  -17.2498   26.8983 N   0  0  0  0  0  0  0  0  0  0  0  0
   10.2917  -16.5841   28.1650 C   0  0  1  0  0  0  0  0  0  0  0  0
    8.9610  -16.1340   28.7108 C   0  0  0  0  0  0  0  0  0  0  0  0
    8.0743  -15.5198   27.7247 C   0  0  0  0  0  0  0  0  0  0  0  0
    7.1740  -16.1968   26.9312 C   0  0  0  0  0  0  0  0  0  0  0  0
    6.5418  -15.3103   26.1536 N   0  0  0  0  0  0  0  0  0  0  0  0
    7.0197  -14.0765   26.4335 C   0  0  0  0  0  0  0  0  0  0  0  0
    6.7211  -12.8302   25.9315 C   0  0  0  0  0  0  0  0  0  0  0  0
    7.3721  -11.6832   26.3984 C   0  0  0  0  0  0  0  0  0  0  0  0
    8.3232  -11.8384   27.3780 C   0  0  0  0  0  0  0  0  0  0  0  0
    8.6461  -13.0687   27.9017 C   0  0  0  0  0  0  0  0  0  0  0  0
    7.9847  -14.1754   27.4178 C   0  0  0  0  0  0  0  0  0  0  0  0
   11.0462  -17.4137   29.1184 C   0  0  0  0  0  0  0  0  0  0  0  0
   11.5036  -16.8064   30.2797 O   0  0  0  0  0  0  0  0  0  0  0  0
   11.3073  -18.6296   28.9601 O   0  0  0  0  0  0  0  0  0  0  0  0
  2 12  2  0
  2  1  1  0
  3  2  1  0
  4  3  2  0
  5  4  1  0
  5 11  2  0
  6  5  1  0
  7  6  1  0
  7  9  1  0
  7  8  1  6
  9 10  2  0
 11 12  1  0
 13 14  1  0
 15 14  1  6
 16  9  1  0
 16 15  1  0
 17 15  1  0
 17 18  2  0
 19 17  1  0
 20 19  1  0
 20 21  1  1
 22 21  1  0
 22 30  1  0
 23 22  2  0
 24 23  1  0
 24 25  1  0
 25 26  1  0
 25 30  2  0
 26 27  2  0
 27 28  1  0
 29 28  2  0
 30 29  1  0
 31 32  1  0
 31 20  1  0
 33 31  2  0
M  END
$$$$
