YSW.pdb
     RDKit          3D

 33 35  0  0  1  0  0  0  0  0999 V2000
   13.7809  -23.4354   19.4021 O   0  0  0  0  0  0  0  0  0  0  0  0
   13.2386  -22.1570   19.4921 C   0  0  0  0  0  0  0  0  0  0  0  0
   13.4275  -21.2077   18.5182 C   0  0  0  0  0  0  0  0  0  0  0  0
   12.8619  -19.9677   18.6751 C   0  0  0  0  0  0  0  0  0  0  0  0
   12.0985  -19.6166   19.7807 C   0  0  0  0  0  0  0  0  0  0  0  0
   11.4958  -18.2826   19.9386 C   0  0  0  0  0  0  0  0  0  0  0  0
   10.0136  -18.2881   19.6215 C   0  0  2  0  0  0  0  0  0  0  0  0
    9.9245  -18.5314   18.1723 N   0  0  0  0  0  0  0  0  0  0  0  0
    9.3799  -16.9923   19.8698 C   0  0  0  0  0  0  0  0  0  0  0  0
    9.5511  -16.0595   19.0121 O   0  0  0  0  0  0  0  0  0  0  0  0
   11.9206  -20.5749   20.7413 C   0  0  0  0  0  0  0  0  0  0  0  0
   12.4881  -21.8306   20.5917 C   0  0  0  0  0  0  0  0  0  0  0  0
    5.9980  -16.1809   21.6506 O   0  0  0  0  0  0  0  0  0  0  0  0
    6.6690  -15.1057   21.0539 C   0  0  0  0  0  0  0  0  0  0  0  0
    8.1409  -15.3173   21.2958 C   0  0  2  0  0  0  0  0  0  0  0  0
    8.5797  -16.6549   20.9839 N   0  0  0  0  0  0  0  0  0  0  0  0
    8.5700  -14.8904   22.6482 C   0  0  0  0  0  0  0  0  0  0  0  0
    8.4631  -13.6945   23.0049 O   0  0  0  0  0  0  0  0  0  0  0  0
    9.1001  -15.8400   23.5326 N   0  0  0  0  0  0  0  0  0  0  0  0
    9.9769  -15.5210   24.6391 C   0  0  1  0  0  0  0  0  0  0  0  0
    9.2426  -15.7779   25.9299 C   0  0  0  0  0  0  0  0  0  0  0  0
    7.8883  -15.2308   25.9797 C   0  0  0  0  0  0  0  0  0  0  0  0
    6.7322  -15.9415   25.7415 C   0  0  0  0  0  0  0  0  0  0  0  0
    5.6891  -15.1141   25.8745 N   0  0  0  0  0  0  0  0  0  0  0  0
    6.1546  -13.8851   26.1939 C   0  0  0  0  0  0  0  0  0  0  0  0
    5.5209  -12.6880   26.4386 C   0  0  0  0  0  0  0  0  0  0  0  0
    6.2450  -11.5336   26.7554 C   0  0  0  0  0  0  0  0  0  0  0  0
    7.6144  -11.6306   26.8154 C   0  0  0  0  0  0  0  0  0  0  0  0
    8.2796  -12.8107   26.5767 C   0  0  0  0  0  0  0  0  0  0  0  0
    7.5339  -13.9265   26.2675 C   0  0  0  0  0  0  0  0  0  0  0  0
   11.2632  -16.2328   24.5653 C   0  0  0  0  0  0  0  0  0  0  0  0
   12.2290  -15.9181   25.5112 O   0  0  0  0  0  0  0  0  0  0  0  0
   11.5524  -17.1033   23.7107 O   0  0  0  0  0  0  0  0  0  0  0  0
  2 12  2  0
  2  1  1  0
  3  2  1  0
  4  3  2  0
  5  4  1  0
  5 11  2  0
  6  5  1  0
  7  6  1  0
  7  9  1  0
  7  8  1  6
  9 10  2  0
 11 12  1  0
 13 14  1  0
 15 14  1  1
 16  9  1  0
 16 15  1  0
 17 15  1  0
 17 18  2  0
 19 17  1  0
 20 19  1  0
 20 21  1  1
 22 21  1  0
 22 30  1  0
 23 22  2  0
 24 23  1  0
 24 25  1  0
 25 26  1  0
 25 30  2  0
 26 27  2  0
 27 28  1  0
 29 28  2  0
 30 29  1  0
 31 32  1  0
 31 20  1  0
 33 31  2  0
M  END
$$$$
