YSW.pdb
     RDKit          3D

 33 35  0  0  1  0  0  0  0  0999 V2000
    7.9839  -12.4840   16.0319 O   0  0  0  0  0  0  0  0  0  0  0  0
    8.0732  -13.0744   17.2888 C   0  0  0  0  0  0  0  0  0  0  0  0
    9.1361  -13.8614   17.6579 C   0  0  0  0  0  0  0  0  0  0  0  0
    9.1560  -14.4107   18.9149 C   0  0  0  0  0  0  0  0  0  0  0  0
    8.1455  -14.2108   19.8462 C   0  0  0  0  0  0  0  0  0  0  0  0
    8.1774  -14.8051   21.1928 C   0  0  0  0  0  0  0  0  0  0  0  0
    8.1398  -16.3197   21.1461 C   0  0  2  0  0  0  0  0  0  0  0  0
    6.7349  -16.6680   20.8779 N   0  0  0  0  0  0  0  0  0  0  0  0
    8.4867  -16.9313   22.4298 C   0  0  0  0  0  0  0  0  0  0  0  0
    7.6729  -16.7938   23.4065 O   0  0  0  0  0  0  0  0  0  0  0  0
    7.0942  -13.4238   19.4614 C   0  0  0  0  0  0  0  0  0  0  0  0
    7.0650  -12.8644   18.1935 C   0  0  0  0  0  0  0  0  0  0  0  0
   12.1668  -18.6984   23.2584 O   0  0  0  0  0  0  0  0  0  0  0  0
   11.0904  -19.2022   24.0000 C   0  0  0  0  0  0  0  0  0  0  0  0
   10.0337  -18.1285   24.0260 C   0  0  2  0  0  0  0  0  0  0  0  0
    9.6539  -17.6757   22.7108 N   0  0  0  0  0  0  0  0  0  0  0  0
   10.3775  -17.0030   24.9261 C   0  0  0  0  0  0  0  0  0  0  0  0
   11.0171  -16.0148   24.4982 O   0  0  0  0  0  0  0  0  0  0  0  0
    9.9795  -17.0511   26.2693 N   0  0  0  0  0  0  0  0  0  0  0  0
   10.6000  -16.2859   27.3296 C   0  0  1  0  0  0  0  0  0  0  0  0
   10.0833  -14.8712   27.2734 C   0  0  0  0  0  0  0  0  0  0  0  0
    8.6937  -14.7468   26.8382 C   0  0  0  0  0  0  0  0  0  0  0  0
    7.8488  -15.7987   26.5586 C   0  0  0  0  0  0  0  0  0  0  0  0
    6.6615  -15.3041   26.1897 N   0  0  0  0  0  0  0  0  0  0  0  0
    6.7289  -13.9539   26.2274 C   0  0  0  0  0  0  0  0  0  0  0  0
    5.8069  -12.9711   25.9475 C   0  0  0  0  0  0  0  0  0  0  0  0
    6.1310  -11.6152   26.0658 C   0  0  0  0  0  0  0  0  0  0  0  0
    7.4034  -11.2921   26.4718 C   0  0  0  0  0  0  0  0  0  0  0  0
    8.3491  -12.2486   26.7596 C   0  0  0  0  0  0  0  0  0  0  0  0
    7.9943  -13.5731   26.6318 C   0  0  0  0  0  0  0  0  0  0  0  0
   10.4210  -16.9044   28.6532 C   0  0  0  0  0  0  0  0  0  0  0  0
   11.0285  -16.2896   29.7392 O   0  0  0  0  0  0  0  0  0  0  0  0
    9.7601  -17.9468   28.8737 O   0  0  0  0  0  0  0  0  0  0  0  0
  2 12  2  0
  2  1  1  0
  3  2  1  0
  4  3  2  0
  5  4  1  0
  5 11  2  0
  6  5  1  0
  7  6  1  0
  7  9  1  0
  7  8  1  1
  9 10  2  0
 11 12  1  0
 13 14  1  0
 15 14  1  6
 16  9  1  0
 16 15  1  0
 17 15  1  0
 17 18  2  0
 19 17  1  0
 20 19  1  0
 20 21  1  1
 22 21  1  0
 22 30  1  0
 23 22  2  0
 24 23  1  0
 24 25  1  0
 25 26  1  0
 25 30  2  0
 26 27  2  0
 27 28  1  0
 29 28  2  0
 30 29  1  0
 31 32  1  0
 31 20  1  0
 33 31  2  0
M  END
$$$$
