YSW.pdb
     RDKit          3D

 33 35  0  0  1  0  0  0  0  0999 V2000
    7.7070  -23.1316   29.6779 O   0  0  0  0  0  0  0  0  0  0  0  0
    7.5472  -22.2265   28.6330 C   0  0  0  0  0  0  0  0  0  0  0  0
    6.3497  -22.0581   27.9826 C   0  0  0  0  0  0  0  0  0  0  0  0
    6.2667  -21.1464   26.9608 C   0  0  0  0  0  0  0  0  0  0  0  0
    7.3432  -20.3747   26.5435 C   0  0  0  0  0  0  0  0  0  0  0  0
    7.2428  -19.3988   25.4457 C   0  0  0  0  0  0  0  0  0  0  0  0
    6.9107  -20.0630   24.1242 C   0  0  2  0  0  0  0  0  0  0  0  0
    7.7358  -21.2813   24.0805 N   0  0  0  0  0  0  0  0  0  0  0  0
    7.3008  -19.2496   22.9716 C   0  0  0  0  0  0  0  0  0  0  0  0
    8.4763  -19.4022   22.4921 O   0  0  0  0  0  0  0  0  0  0  0  0
    8.5286  -20.5556   27.2029 C   0  0  0  0  0  0  0  0  0  0  0  0
    8.6223  -21.4743   28.2365 C   0  0  0  0  0  0  0  0  0  0  0  0
    4.7173  -16.7900   21.3033 O   0  0  0  0  0  0  0  0  0  0  0  0
    5.9787  -16.3860   20.8470 C   0  0  0  0  0  0  0  0  0  0  0  0
    7.0011  -17.0874   21.7030 C   0  0  2  0  0  0  0  0  0  0  0  0
    6.4965  -18.2905   22.3169 N   0  0  0  0  0  0  0  0  0  0  0  0
    7.6447  -16.1862   22.6873 C   0  0  0  0  0  0  0  0  0  0  0  0
    7.0568  -15.1565   23.0910 O   0  0  0  0  0  0  0  0  0  0  0  0
    8.9248  -16.4953   23.1678 N   0  0  0  0  0  0  0  0  0  0  0  0
    9.7022  -15.6289   24.0278 C   0  0  1  0  0  0  0  0  0  0  0  0
    9.1613  -15.7260   25.4312 C   0  0  0  0  0  0  0  0  0  0  0  0
    7.8940  -15.0302   25.6452 C   0  0  0  0  0  0  0  0  0  0  0  0
    6.6531  -15.6278   25.6832 C   0  0  0  0  0  0  0  0  0  0  0  0
    5.7315  -14.6814   25.8958 N   0  0  0  0  0  0  0  0  0  0  0  0
    6.3582  -13.4871   25.9952 C   0  0  0  0  0  0  0  0  0  0  0  0
    5.8918  -12.2097   26.2081 C   0  0  0  0  0  0  0  0  0  0  0  0
    6.7646  -11.1181   26.2701 C   0  0  0  0  0  0  0  0  0  0  0  0
    8.1079  -11.3599   26.1113 C   0  0  0  0  0  0  0  0  0  0  0  0
    8.6078  -12.6233   25.8971 C   0  0  0  0  0  0  0  0  0  0  0  0
    7.7189  -13.6737   25.8420 C   0  0  0  0  0  0  0  0  0  0  0  0
   11.1459  -15.9061   23.9544 C   0  0  0  0  0  0  0  0  0  0  0  0
   12.0067  -15.0066   24.5679 O   0  0  0  0  0  0  0  0  0  0  0  0
   11.6573  -16.8952   23.3782 O   0  0  0  0  0  0  0  0  0  0  0  0
  2 12  2  0
  2  1  1  0
  3  2  1  0
  4  3  2  0
  5  4  1  0
  5 11  2  0
  6  5  1  0
  7  6  1  0
  7  9  1  0
  7  8  1  6
  9 10  2  0
 11 12  1  0
 13 14  1  0
 15 14  1  1
 16  9  1  0
 16 15  1  0
 17 15  1  0
 17 18  2  0
 19 17  1  0
 20 19  1  0
 20 21  1  1
 22 21  1  0
 22 30  1  0
 23 22  2  0
 24 23  1  0
 24 25  1  0
 25 26  1  0
 25 30  2  0
 26 27  2  0
 27 28  1  0
 29 28  2  0
 30 29  1  0
 31 32  1  0
 31 20  1  0
 33 31  2  0
M  END
$$$$
