YSW.pdb
     RDKit          3D

 33 35  0  0  1  0  0  0  0  0999 V2000
    7.2891  -13.0820   15.3747 O   0  0  0  0  0  0  0  0  0  0  0  0
    7.3511  -13.6044   16.6630 C   0  0  0  0  0  0  0  0  0  0  0  0
    6.9677  -14.8903   16.9544 C   0  0  0  0  0  0  0  0  0  0  0  0
    7.0566  -15.3370   18.2485 C   0  0  0  0  0  0  0  0  0  0  0  0
    7.5196  -14.5480   19.2932 C   0  0  0  0  0  0  0  0  0  0  0  0
    7.6111  -15.0379   20.6785 C   0  0  0  0  0  0  0  0  0  0  0  0
    9.0459  -15.1073   21.1626 C   0  0  2  0  0  0  0  0  0  0  0  0
    9.7720  -15.8606   20.1271 N   0  0  0  0  0  0  0  0  0  0  0  0
    9.1840  -15.8644   22.4076 C   0  0  0  0  0  0  0  0  0  0  0  0
    8.4013  -15.5822   23.3787 O   0  0  0  0  0  0  0  0  0  0  0  0
    7.8973  -13.2693   18.9846 C   0  0  0  0  0  0  0  0  0  0  0  0
    7.8111  -12.8089   17.6800 C   0  0  0  0  0  0  0  0  0  0  0  0
   12.3324  -18.4380   23.3390 O   0  0  0  0  0  0  0  0  0  0  0  0
   11.0769  -18.8513   23.8031 C   0  0  0  0  0  0  0  0  0  0  0  0
   10.2169  -17.6181   23.9016 C   0  0  2  0  0  0  0  0  0  0  0  0
   10.1130  -16.8991   22.6561 N   0  0  0  0  0  0  0  0  0  0  0  0
   10.6037  -16.7339   25.0258 C   0  0  0  0  0  0  0  0  0  0  0  0
   11.5320  -15.9032   24.8956 O   0  0  0  0  0  0  0  0  0  0  0  0
    9.9192  -16.8334   26.2451 N   0  0  0  0  0  0  0  0  0  0  0  0
   10.2788  -16.1032   27.4419 C   0  0  1  0  0  0  0  0  0  0  0  0
    9.0194  -15.7402   28.1858 C   0  0  0  0  0  0  0  0  0  0  0  0
    7.9909  -15.1013   27.3673 C   0  0  0  0  0  0  0  0  0  0  0  0
    6.8981  -15.7378   26.8204 C   0  0  0  0  0  0  0  0  0  0  0  0
    6.1810  -14.8392   26.1359 N   0  0  0  0  0  0  0  0  0  0  0  0
    6.7936  -13.6374   26.2334 C   0  0  0  0  0  0  0  0  0  0  0  0
    6.4854  -12.3954   25.7266 C   0  0  0  0  0  0  0  0  0  0  0  0
    7.2999  -11.2857   25.9765 C   0  0  0  0  0  0  0  0  0  0  0  0
    8.4224  -11.4732   26.7466 C   0  0  0  0  0  0  0  0  0  0  0  0
    8.7600  -12.7003   27.2686 C   0  0  0  0  0  0  0  0  0  0  0  0
    7.9346  -13.7699   27.0017 C   0  0  0  0  0  0  0  0  0  0  0  0
   11.2446  -16.8317   28.2804 C   0  0  0  0  0  0  0  0  0  0  0  0
   11.8034  -16.1551   29.3558 O   0  0  0  0  0  0  0  0  0  0  0  0
   11.6011  -18.0194   28.0959 O   0  0  0  0  0  0  0  0  0  0  0  0
  2 12  2  0
  2  1  1  0
  3  2  1  0
  4  3  2  0
  5  4  1  0
  5 11  2  0
  6  5  1  0
  7  6  1  0
  7  9  1  0
  7  8  1  6
  9 10  2  0
 11 12  1  0
 13 14  1  0
 15 14  1  6
 16  9  1  0
 16 15  1  0
 17 15  1  0
 17 18  2  0
 19 17  1  0
 20 19  1  0
 20 21  1  1
 22 21  1  0
 22 30  1  0
 23 22  2  0
 24 23  1  0
 24 25  1  0
 25 26  1  0
 25 30  2  0
 26 27  2  0
 27 28  1  0
 29 28  2  0
 30 29  1  0
 31 32  1  0
 31 20  1  0
 33 31  2  0
M  END
$$$$
