RSW.pdb
     RDKit          3D

 32 33  0  0  1  0  0  0  0  0999 V2000
   33.1631  -27.5347  -19.1292 N   0  0  0  0  0  0  0  0  0  0  0  0
   32.0569  -28.3919  -19.0281 C   0  0  0  0  0  0  0  0  0  0  0  0
   32.2196  -29.6459  -18.7905 N   0  0  0  0  0  0  0  0  0  0  0  0
   30.7047  -27.9537  -19.1768 N   0  0  0  0  0  0  0  0  0  0  0  0
   30.3730  -26.5335  -19.0968 C   0  0  0  0  0  0  0  0  0  0  0  0
   31.2859  -25.8235  -18.1171 C   0  0  0  0  0  0  0  0  0  0  0  0
   30.4362  -25.2194  -17.0231 C   0  0  0  0  0  0  0  0  0  0  0  0
   29.2428  -24.4856  -17.5396 C   0  0  2  0  0  0  0  0  0  0  0  0
   29.5679  -23.9395  -18.8423 N   0  0  0  0  0  0  0  0  0  0  0  0
   28.7630  -23.4368  -16.6062 C   0  0  0  0  0  0  0  0  0  0  0  0
   28.4933  -23.7657  -15.4236 O   0  0  0  0  0  0  0  0  0  0  0  0
   31.3980  -30.2863  -18.6724 O   0  0  0  0  0  0  0  0  0  0  0  0
   27.2719  -19.8818  -18.0817 C   0  0  0  0  0  0  0  0  0  0  0  0
   27.9836  -19.7731  -16.9007 C   0  0  1  0  0  0  0  0  0  0  0  0
   28.0136  -21.0768  -16.1378 N   0  0  0  0  0  0  0  0  0  0  0  0
   28.5897  -22.0852  -16.9654 C   0  0  0  0  0  0  0  0  0  0  0  0
   26.6620  -21.4067  -15.6305 O   0  0  0  0  0  0  0  0  0  0  0  0
   26.2942  -22.5979  -15.5624 N   0  0  0  0  0  0  0  0  0  0  0  0
   25.7677  -20.4032  -15.2168 C   0  0  1  0  0  0  0  0  0  0  0  0
   24.9735  -20.6386  -14.0004 C   0  0  0  0  0  0  0  0  0  0  0  0
   25.8999  -20.8220  -12.8248 C   0  0  0  0  0  0  0  0  0  0  0  0
   25.2405  -20.8991  -11.5163 C   0  0  0  0  0  0  0  0  0  0  0  0
   25.9580  -20.7929  -10.3326 N   0  0  0  0  0  0  0  0  0  0  0  0
   25.0941  -20.8395   -9.3279 C   0  0  0  0  0  0  0  0  0  0  0  0
   23.8352  -20.9724   -9.7755 C   0  0  0  0  0  0  0  0  0  0  0  0
   22.6242  -21.0761   -9.1152 C   0  0  0  0  0  0  0  0  0  0  0  0
   21.4946  -21.2237   -9.8867 C   0  0  0  0  0  0  0  0  0  0  0  0
   21.5459  -21.2687  -11.2463 C   0  0  0  0  0  0  0  0  0  0  0  0
   22.7664  -21.1631  -11.8951 C   0  0  0  0  0  0  0  0  0  0  0  0
   23.9347  -21.0107  -11.1624 C   0  0  0  0  0  0  0  0  0  0  0  0
   24.1153  -19.4661  -13.8080 O   0  0  0  0  0  0  0  0  0  0  0  0
   22.9111  -19.5323  -13.4549 O   0  0  0  0  0  0  0  0  0  0  0  0
  2  3  2  0
  2  1  1  0
  4  2  1  0
  5  4  1  0
  6  5  1  0
  7  6  1  0
  7  8  1  0
  8  9  1  6
 10  8  1  0
 10 11  2  0
 13 12  1  0
 14 13  1  1
 14 15  1  0
 15 10  1  0
 16 18  1  0
 16 14  1  0
 17 16  2  0
 19 18  1  0
 19 30  1  0
 20 21  1  0
 19 20  1  6
 21 29  1  0
 22 23  1  0
 22 21  2  0
 23 24  1  0
 24 29  2  0
 24 25  1  0
 25 26  2  0
 26 27  1  0
 28 27  2  0
 29 28  1  0
 30 31  2  0
 30 32  1  0
M  END
$$$$
