RSW.pdb
     RDKit          3D

 32 33  0  0  1  0  0  0  0  0999 V2000
   32.6687  -26.0466  -15.3965 N   0  0  0  0  0  0  0  0  0  0  0  0
   32.8368  -26.1429  -16.7862 C   0  0  0  0  0  0  0  0  0  0  0  0
   33.3352  -27.2054  -17.3136 N   0  0  0  0  0  0  0  0  0  0  0  0
   32.4791  -25.1011  -17.6968 N   0  0  0  0  0  0  0  0  0  0  0  0
   31.8383  -23.8811  -17.2125 C   0  0  0  0  0  0  0  0  0  0  0  0
   30.9467  -24.1791  -16.0235 C   0  0  0  0  0  0  0  0  0  0  0  0
   30.2917  -22.8907  -15.5821 C   0  0  0  0  0  0  0  0  0  0  0  0
   29.0016  -22.6145  -16.2812 C   0  0  2  0  0  0  0  0  0  0  0  0
   29.2899  -22.2798  -17.6617 N   0  0  0  0  0  0  0  0  0  0  0  0
   28.1993  -21.5597  -15.6140 C   0  0  0  0  0  0  0  0  0  0  0  0
   28.1129  -20.4340  -16.1659 O   0  0  0  0  0  0  0  0  0  0  0  0
   33.5519  -27.2515  -18.3383 O   0  0  0  0  0  0  0  0  0  0  0  0
   24.4867  -19.7958  -14.0590 C   0  0  0  0  0  0  0  0  0  0  0  0
   25.4244  -20.6255  -14.6467 C   0  0  1  0  0  0  0  0  0  0  0  0
   26.6497  -20.7959  -13.7793 N   0  0  0  0  0  0  0  0  0  0  0  0
   27.5230  -21.7427  -14.3912 C   0  0  0  0  0  0  0  0  0  0  0  0
   26.2549  -21.1407  -12.3943 O   0  0  0  0  0  0  0  0  0  0  0  0
   25.8559  -22.2933  -12.1274 N   0  0  0  0  0  0  0  0  0  0  0  0
   26.3176  -20.1945  -11.3556 C   0  0  1  0  0  0  0  0  0  0  0  0
   26.1538  -20.6692   -9.9724 C   0  0  0  0  0  0  0  0  0  0  0  0
   26.8756  -19.7358   -9.0334 C   0  0  0  0  0  0  0  0  0  0  0  0
   26.6834  -20.0146   -7.6057 C   0  0  0  0  0  0  0  0  0  0  0  0
   25.7467  -20.9394   -7.1646 N   0  0  0  0  0  0  0  0  0  0  0  0
   25.8432  -21.0181   -5.8446 C   0  0  0  0  0  0  0  0  0  0  0  0
   26.7948  -20.1939   -5.3773 C   0  0  0  0  0  0  0  0  0  0  0  0
   27.2396  -19.9266   -4.0951 C   0  0  0  0  0  0  0  0  0  0  0  0
   28.2407  -18.9932   -3.9555 C   0  0  0  0  0  0  0  0  0  0  0  0
   28.7840  -18.3474   -5.0236 C   0  0  0  0  0  0  0  0  0  0  0  0
   28.3290  -18.6254   -6.3032 C   0  0  0  0  0  0  0  0  0  0  0  0
   27.3224  -19.5603   -6.4975 C   0  0  0  0  0  0  0  0  0  0  0  0
   24.7164  -20.6857   -9.6859 O   0  0  0  0  0  0  0  0  0  0  0  0
   24.1628  -21.5312   -8.9391 O   0  0  0  0  0  0  0  0  0  0  0  0
  2  3  2  0
  2  1  1  0
  4  2  1  0
  5  4  1  0
  6  5  1  0
  7  6  1  0
  7  8  1  0
  8  9  1  6
 10  8  1  0
 10 11  2  0
 13 12  1  0
 14 13  1  6
 14 15  1  0
 15 10  1  0
 16 18  1  0
 16 14  1  0
 17 16  2  0
 19 18  1  0
 19 30  1  0
 20 21  1  0
 19 20  1  1
 21 29  1  0
 22 23  1  0
 22 21  2  0
 23 24  1  0
 24 29  2  0
 24 25  1  0
 25 26  2  0
 26 27  1  0
 28 27  2  0
 29 28  1  0
 30 31  2  0
 30 32  1  0
M  END
$$$$
