RSW.pdb
     RDKit          3D

 32 33  0  0  1  0  0  0  0  0999 V2000
   31.8831  -28.4043  -18.3669 N   0  0  0  0  0  0  0  0  0  0  0  0
   33.1024  -28.9130  -18.8395 C   0  0  0  0  0  0  0  0  0  0  0  0
   33.7428  -28.3114  -19.7794 N   0  0  0  0  0  0  0  0  0  0  0  0
   33.7100  -30.1022  -18.3305 N   0  0  0  0  0  0  0  0  0  0  0  0
   33.0771  -30.8532  -17.2492 C   0  0  0  0  0  0  0  0  0  0  0  0
   32.9822  -32.3243  -17.6017 C   0  0  0  0  0  0  0  0  0  0  0  0
   31.5229  -32.6873  -17.7508 C   0  0  0  0  0  0  0  0  0  0  0  0
   30.8691  -33.0485  -16.4579 C   0  0  2  0  0  0  0  0  0  0  0  0
   31.4062  -34.3184  -16.0109 N   0  0  0  0  0  0  0  0  0  0  0  0
   29.3885  -33.0774  -16.5494 C   0  0  0  0  0  0  0  0  0  0  0  0
   28.8120  -34.1938  -16.5761 O   0  0  0  0  0  0  0  0  0  0  0  0
   34.6636  -28.6736  -20.1259 O   0  0  0  0  0  0  0  0  0  0  0  0
   26.9284  -31.8674  -14.2209 C   0  0  0  0  0  0  0  0  0  0  0  0
   26.6579  -32.6009  -15.3619 C   0  0  1  0  0  0  0  0  0  0  0  0
   27.1566  -31.9089  -16.6090 N   0  0  0  0  0  0  0  0  0  0  0  0
   28.5825  -31.9229  -16.6085 C   0  0  0  0  0  0  0  0  0  0  0  0
   26.5627  -30.5569  -16.7189 O   0  0  0  0  0  0  0  0  0  0  0  0
   27.0880  -29.5938  -16.1225 N   0  0  0  0  0  0  0  0  0  0  0  0
   25.4079  -30.3220  -17.4866 C   0  0  1  0  0  0  0  0  0  0  0  0
   24.8826  -28.9488  -17.5494 C   0  0  0  0  0  0  0  0  0  0  0  0
   24.7452  -28.5303  -18.9916 C   0  0  0  0  0  0  0  0  0  0  0  0
   23.8516  -29.3658  -19.8018 C   0  0  0  0  0  0  0  0  0  0  0  0
   22.4780  -29.1654  -19.8110 N   0  0  0  0  0  0  0  0  0  0  0  0
   21.9476  -30.0232  -20.6718 C   0  0  0  0  0  0  0  0  0  0  0  0
   22.8934  -30.7890  -21.2393 C   0  0  0  0  0  0  0  0  0  0  0  0
   22.8220  -31.8114  -22.1683 C   0  0  0  0  0  0  0  0  0  0  0  0
   24.0024  -32.4162  -22.5339 C   0  0  0  0  0  0  0  0  0  0  0  0
   25.2023  -32.0386  -22.0134 C   0  0  0  0  0  0  0  0  0  0  0  0
   25.2592  -31.0120  -21.0836 C   0  0  0  0  0  0  0  0  0  0  0  0
   24.0970  -30.3685  -20.6834 C   0  0  0  0  0  0  0  0  0  0  0  0
   23.5775  -28.9518  -16.8824 O   0  0  0  0  0  0  0  0  0  0  0  0
   22.9656  -29.9977  -16.5495 O   0  0  0  0  0  0  0  0  0  0  0  0
  2  3  2  0
  2  1  1  0
  4  2  1  0
  5  4  1  0
  6  5  1  0
  7  6  1  0
  7  8  1  0
  8  9  1  6
 10  8  1  0
 10 11  2  0
 13 12  1  0
 14 13  1  6
 14 15  1  0
 15 10  1  0
 16 18  1  0
 16 14  1  0
 17 16  2  0
 19 18  1  0
 19 30  1  0
 20 21  1  0
 19 20  1  1
 21 29  1  0
 22 23  1  0
 22 21  2  0
 23 24  1  0
 24 29  2  0
 24 25  1  0
 25 26  2  0
 26 27  1  0
 28 27  2  0
 29 28  1  0
 30 31  2  0
 30 32  1  0
M  END
$$$$
