RSW.pdb
     RDKit          3D

 32 33  0  0  1  0  0  0  0  0999 V2000
   27.2031  -26.5214  -18.9046 N   0  0  0  0  0  0  0  0  0  0  0  0
   26.5621  -26.7247  -17.6730 C   0  0  0  0  0  0  0  0  0  0  0  0
   26.6087  -27.8716  -17.0919 N   0  0  0  0  0  0  0  0  0  0  0  0
   25.8296  -25.7060  -16.9888 N   0  0  0  0  0  0  0  0  0  0  0  0
   25.9002  -24.3166  -17.4340 C   0  0  0  0  0  0  0  0  0  0  0  0
   27.3371  -23.9071  -17.6888 C   0  0  0  0  0  0  0  0  0  0  0  0
   27.9117  -23.3543  -16.4051 C   0  0  0  0  0  0  0  0  0  0  0  0
   27.4896  -21.9495  -16.1260 C   0  0  2  0  0  0  0  0  0  0  0  0
   28.0602  -21.0880  -17.1424 N   0  0  0  0  0  0  0  0  0  0  0  0
   27.8487  -21.5012  -14.7580 C   0  0  0  0  0  0  0  0  0  0  0  0
   28.9966  -21.0273  -14.5652 O   0  0  0  0  0  0  0  0  0  0  0  0
   26.1676  -28.0218  -16.1527 O   0  0  0  0  0  0  0  0  0  0  0  0
   25.9387  -18.9466  -13.2018 C   0  0  0  0  0  0  0  0  0  0  0  0
   27.1509  -19.3870  -12.7021 C   0  0  1  0  0  0  0  0  0  0  0  0
   27.1402  -20.8718  -12.4229 N   0  0  0  0  0  0  0  0  0  0  0  0
   26.9767  -21.5739  -13.6533 C   0  0  0  0  0  0  0  0  0  0  0  0
   26.1201  -21.1949  -11.3993 O   0  0  0  0  0  0  0  0  0  0  0  0
   24.9430  -21.4301  -11.7433 N   0  0  0  0  0  0  0  0  0  0  0  0
   26.4427  -21.2459  -10.0313 C   0  0  2  0  0  0  0  0  0  0  0  0
   25.3886  -21.6398   -9.0830 C   0  0  0  0  0  0  0  0  0  0  0  0
   25.9835  -21.7873   -7.7052 C   0  0  0  0  0  0  0  0  0  0  0  0
   26.7063  -20.6111   -7.2079 C   0  0  0  0  0  0  0  0  0  0  0  0
   26.4340  -19.3354   -7.6829 N   0  0  0  0  0  0  0  0  0  0  0  0
   27.1942  -18.4809   -7.0120 C   0  0  0  0  0  0  0  0  0  0  0  0
   27.9626  -19.1168   -6.1130 C   0  0  0  0  0  0  0  0  0  0  0  0
   28.9055  -18.6570   -5.2114 C   0  0  0  0  0  0  0  0  0  0  0  0
   29.5414  -19.5937   -4.4296 C   0  0  0  0  0  0  0  0  0  0  0  0
   29.2683  -20.9239   -4.5251 C   0  0  0  0  0  0  0  0  0  0  0  0
   28.3206  -21.3707   -5.4328 C   0  0  0  0  0  0  0  0  0  0  0  0
   27.6498  -20.4658   -6.2428 C   0  0  0  0  0  0  0  0  0  0  0  0
   24.3721  -20.5839   -9.0999 O   0  0  0  0  0  0  0  0  0  0  0  0
   24.5600  -19.4412   -9.5877 O   0  0  0  0  0  0  0  0  0  0  0  0
  2  3  2  0
  2  1  1  0
  4  2  1  0
  5  4  1  0
  6  5  1  0
  7  6  1  0
  7  8  1  0
  8  9  1  6
 10  8  1  0
 10 11  2  0
 13 12  1  0
 14 13  1  6
 14 15  1  0
 15 10  1  0
 16 18  1  0
 16 14  1  0
 17 16  2  0
 19 18  1  0
 19 30  1  0
 20 21  1  0
 19 20  1  6
 21 29  1  0
 22 23  1  0
 22 21  2  0
 23 24  1  0
 24 29  2  0
 24 25  1  0
 25 26  2  0
 26 27  1  0
 28 27  2  0
 29 28  1  0
 30 31  2  0
 30 32  1  0
M  END
$$$$
