RSW.pdb
     RDKit          3D

 32 33  0  0  1  0  0  0  0  0999 V2000
   26.1775  -24.3004  -15.9423 N   0  0  0  0  0  0  0  0  0  0  0  0
   26.1809  -25.3326  -16.8928 C   0  0  0  0  0  0  0  0  0  0  0  0
   25.1201  -26.0279  -17.1084 N   0  0  0  0  0  0  0  0  0  0  0  0
   27.3271  -25.6822  -17.6716 N   0  0  0  0  0  0  0  0  0  0  0  0
   28.5939  -24.9802  -17.4823 C   0  0  0  0  0  0  0  0  0  0  0  0
   28.8605  -24.0337  -18.6357 C   0  0  0  0  0  0  0  0  0  0  0  0
   27.9154  -22.8603  -18.5199 C   0  0  0  0  0  0  0  0  0  0  0  0
   28.6160  -21.5508  -18.3657 C   0  0  2  0  0  0  0  0  0  0  0  0
   29.8847  -21.6239  -19.0627 N   0  0  0  0  0  0  0  0  0  0  0  0
   28.7885  -21.1534  -16.9466 C   0  0  0  0  0  0  0  0  0  0  0  0
   29.9254  -20.7790  -16.5636 O   0  0  0  0  0  0  0  0  0  0  0  0
   25.1308  -26.8427  -17.7681 O   0  0  0  0  0  0  0  0  0  0  0  0
   27.0126  -18.3883  -15.4667 C   0  0  0  0  0  0  0  0  0  0  0  0
   28.0842  -19.0641  -14.9116 C   0  0  1  0  0  0  0  0  0  0  0  0
   27.7866  -20.5328  -14.7191 N   0  0  0  0  0  0  0  0  0  0  0  0
   27.7496  -21.1696  -15.9946 C   0  0  0  0  0  0  0  0  0  0  0  0
   26.5536  -20.7066  -13.9177 O   0  0  0  0  0  0  0  0  0  0  0  0
   25.4368  -20.6729  -14.4751 N   0  0  0  0  0  0  0  0  0  0  0  0
   26.6041  -20.9120  -12.5273 C   0  0  2  0  0  0  0  0  0  0  0  0
   25.3906  -21.3992  -11.8522 C   0  0  0  0  0  0  0  0  0  0  0  0
   25.7505  -21.9053  -10.4781 C   0  0  0  0  0  0  0  0  0  0  0  0
   26.4363  -20.9364   -9.6156 C   0  0  0  0  0  0  0  0  0  0  0  0
   25.7651  -19.8580   -9.0555 N   0  0  0  0  0  0  0  0  0  0  0  0
   26.6219  -19.2007   -8.2863 C   0  0  0  0  0  0  0  0  0  0  0  0
   27.8327  -19.7810   -8.3021 C   0  0  0  0  0  0  0  0  0  0  0  0
   29.0236  -19.4546   -7.6788 C   0  0  0  0  0  0  0  0  0  0  0  0
   30.1082  -20.2645   -7.9249 C   0  0  0  0  0  0  0  0  0  0  0  0
   30.0327  -21.3476   -8.7462 C   0  0  0  0  0  0  0  0  0  0  0  0
   28.8327  -21.6633   -9.3641 C   0  0  0  0  0  0  0  0  0  0  0  0
   27.7090  -20.8791   -9.1467 C   0  0  0  0  0  0  0  0  0  0  0  0
   24.4599  -20.2705  -11.7632 O   0  0  0  0  0  0  0  0  0  0  0  0
   24.8047  -19.0690  -11.8921 O   0  0  0  0  0  0  0  0  0  0  0  0
  2  3  2  0
  2  1  1  0
  4  2  1  0
  5  4  1  0
  6  5  1  0
  7  6  1  0
  7  8  1  0
  8  9  1  1
 10  8  1  0
 10 11  2  0
 13 12  1  0
 14 13  1  1
 14 15  1  0
 15 10  1  0
 16 18  1  0
 16 14  1  0
 17 16  2  0
 19 18  1  0
 19 30  1  0
 20 21  1  0
 19 20  1  6
 21 29  1  0
 22 23  1  0
 22 21  2  0
 23 24  1  0
 24 29  2  0
 24 25  1  0
 25 26  2  0
 26 27  1  0
 28 27  2  0
 29 28  1  0
 30 31  2  0
 30 32  1  0
M  END
$$$$
