RSW.pdb
     RDKit          3D

 32 33  0  0  1  0  0  0  0  0999 V2000
   28.0424  -27.7344  -16.1385 N   0  0  0  0  0  0  0  0  0  0  0  0
   27.0834  -27.4372  -17.1188 C   0  0  0  0  0  0  0  0  0  0  0  0
   26.3490  -28.3672  -17.6199 N   0  0  0  0  0  0  0  0  0  0  0  0
   26.8543  -26.1195  -17.6224 N   0  0  0  0  0  0  0  0  0  0  0  0
   27.5571  -24.9744  -17.0493 C   0  0  0  0  0  0  0  0  0  0  0  0
   26.7690  -24.3826  -15.8977 C   0  0  0  0  0  0  0  0  0  0  0  0
   25.7794  -23.3869  -16.4571 C   0  0  0  0  0  0  0  0  0  0  0  0
   26.1996  -21.9667  -16.2678 C   0  0  2  0  0  0  0  0  0  0  0  0
   27.6288  -21.8770  -16.4917 N   0  0  0  0  0  0  0  0  0  0  0  0
   25.8140  -21.4238  -14.9419 C   0  0  0  0  0  0  0  0  0  0  0  0
   26.6562  -20.7408  -14.3066 O   0  0  0  0  0  0  0  0  0  0  0  0
   25.6149  -28.1513  -18.3366 O   0  0  0  0  0  0  0  0  0  0  0  0
   21.9765  -21.5607  -14.0439 C   0  0  0  0  0  0  0  0  0  0  0  0
   22.6866  -21.4600  -12.8612 C   0  0  2  0  0  0  0  0  0  0  0  0
   24.1292  -21.0796  -13.0998 N   0  0  0  0  0  0  0  0  0  0  0  0
   24.5532  -21.6275  -14.3462 C   0  0  0  0  0  0  0  0  0  0  0  0
   24.9643  -21.4807  -11.9446 O   0  0  0  0  0  0  0  0  0  0  0  0
   25.2797  -22.6787  -11.7883 N   0  0  0  0  0  0  0  0  0  0  0  0
   25.4195  -20.5385  -11.0049 C   0  0  1  0  0  0  0  0  0  0  0  0
   26.1361  -21.0313   -9.8178 C   0  0  0  0  0  0  0  0  0  0  0  0
   27.4808  -20.3550   -9.7276 C   0  0  0  0  0  0  0  0  0  0  0  0
   28.2932  -20.7330   -8.5656 C   0  0  0  0  0  0  0  0  0  0  0  0
   29.1444  -21.8291   -8.5985 N   0  0  0  0  0  0  0  0  0  0  0  0
   29.7820  -21.8839   -7.4373 C   0  0  0  0  0  0  0  0  0  0  0  0
   29.4023  -20.8827   -6.6271 C   0  0  0  0  0  0  0  0  0  0  0  0
   29.7741  -20.5430   -5.3388 C   0  0  0  0  0  0  0  0  0  0  0  0
   29.1684  -19.4435   -4.7757 C   0  0  0  0  0  0  0  0  0  0  0  0
   28.2379  -18.7071   -5.4428 C   0  0  0  0  0  0  0  0  0  0  0  0
   27.8750  -19.0586   -6.7336 C   0  0  0  0  0  0  0  0  0  0  0  0
   28.4583  -20.1580   -7.3470 C   0  0  0  0  0  0  0  0  0  0  0  0
   25.3129  -20.7095   -8.6485 O   0  0  0  0  0  0  0  0  0  0  0  0
   24.5288  -19.7291   -8.5949 O   0  0  0  0  0  0  0  0  0  0  0  0
  2  3  2  0
  2  1  1  0
  4  2  1  0
  5  4  1  0
  6  5  1  0
  7  6  1  0
  7  8  1  0
  8  9  1  1
 10  8  1  0
 10 11  2  0
 13 12  1  0
 14 13  1  6
 14 15  1  0
 15 10  1  0
 16 18  1  0
 16 14  1  0
 17 16  2  0
 19 18  1  0
 19 30  1  0
 20 21  1  0
 19 20  1  1
 21 29  1  0
 22 23  1  0
 22 21  2  0
 23 24  1  0
 24 29  2  0
 24 25  1  0
 25 26  2  0
 26 27  1  0
 28 27  2  0
 29 28  1  0
 30 31  2  0
 30 32  1  0
M  END
$$$$
