RSW.pdb
     RDKit          3D

 32 33  0  0  1  0  0  0  0  0999 V2000
   20.4984  -19.2789  -13.2897 N   0  0  0  0  0  0  0  0  0  0  0  0
   20.7096  -19.0305  -14.6545 C   0  0  0  0  0  0  0  0  0  0  0  0
   20.5938  -17.8403  -15.1292 N   0  0  0  0  0  0  0  0  0  0  0  0
   21.0587  -20.0480  -15.5954 N   0  0  0  0  0  0  0  0  0  0  0  0
   21.2529  -21.4277  -15.1569 C   0  0  0  0  0  0  0  0  0  0  0  0
   22.5780  -21.9680  -15.6564 C   0  0  0  0  0  0  0  0  0  0  0  0
   23.6636  -20.9806  -15.2961 C   0  0  0  0  0  0  0  0  0  0  0  0
   25.0051  -21.3553  -15.8341 C   0  0  2  0  0  0  0  0  0  0  0  0
   24.8370  -22.4589  -16.7586 N   0  0  0  0  0  0  0  0  0  0  0  0
   25.9851  -21.6745  -14.7668 C   0  0  0  0  0  0  0  0  0  0  0  0
   26.0932  -22.8687  -14.3907 O   0  0  0  0  0  0  0  0  0  0  0  0
   20.7525  -17.6448  -16.1469 O   0  0  0  0  0  0  0  0  0  0  0  0
   27.9733  -18.5501  -13.2296 C   0  0  0  0  0  0  0  0  0  0  0  0
   28.4120  -19.7346  -12.6660 C   0  0  1  0  0  0  0  0  0  0  0  0
   27.4179  -20.8552  -12.8625 N   0  0  0  0  0  0  0  0  0  0  0  0
   26.8084  -20.7151  -14.1441 C   0  0  0  0  0  0  0  0  0  0  0  0
   26.4586  -20.8948  -11.7351 O   0  0  0  0  0  0  0  0  0  0  0  0
   25.4000  -20.2352  -11.7926 N   0  0  0  0  0  0  0  0  0  0  0  0
   26.7083  -21.6648  -10.5849 C   0  0  2  0  0  0  0  0  0  0  0  0
   26.0927  -21.2405   -9.3174 C   0  0  0  0  0  0  0  0  0  0  0  0
   26.8053  -20.0168   -8.7992 C   0  0  0  0  0  0  0  0  0  0  0  0
   28.0602  -20.2802   -8.0858 C   0  0  0  0  0  0  0  0  0  0  0  0
   29.1663  -20.8145   -8.7324 N   0  0  0  0  0  0  0  0  0  0  0  0
   30.1571  -20.8828   -7.8539 C   0  0  0  0  0  0  0  0  0  0  0  0
   29.7731  -20.4234   -6.6521 C   0  0  0  0  0  0  0  0  0  0  0  0
   30.4426  -20.3119   -5.4468 C   0  0  0  0  0  0  0  0  0  0  0  0
   29.7395  -19.8055   -4.3781 C   0  0  0  0  0  0  0  0  0  0  0  0
   28.4367  -19.4246   -4.4822 C   0  0  0  0  0  0  0  0  0  0  0  0
   27.7781  -19.5413   -5.6964 C   0  0  0  0  0  0  0  0  0  0  0  0
   28.4436  -20.0443   -6.8051 C   0  0  0  0  0  0  0  0  0  0  0  0
   24.6848  -20.9430   -9.5962 O   0  0  0  0  0  0  0  0  0  0  0  0
   24.3010  -20.1875  -10.5241 O   0  0  0  0  0  0  0  0  0  0  0  0
  2  3  2  0
  2  1  1  0
  4  2  1  0
  5  4  1  0
  6  5  1  0
  7  6  1  0
  7  8  1  0
  8  9  1  6
 10  8  1  0
 10 11  2  0
 13 12  1  0
 14 13  1  6
 14 15  1  0
 15 10  1  0
 16 18  1  0
 16 14  1  0
 17 16  2  0
 19 18  1  0
 19 30  1  0
 20 21  1  0
 19 20  1  6
 21 29  1  0
 22 23  1  0
 22 21  2  0
 23 24  1  0
 24 29  2  0
 24 25  1  0
 25 26  2  0
 26 27  1  0
 28 27  2  0
 29 28  1  0
 30 31  2  0
 30 32  1  0
M  END
$$$$
