RSW.pdb
     RDKit          3D

 32 33  0  0  1  0  0  0  0  0999 V2000
   25.7131  -24.4840  -21.2861 N   0  0  0  0  0  0  0  0  0  0  0  0
   24.5141  -24.1372  -20.6451 C   0  0  0  0  0  0  0  0  0  0  0  0
   23.3831  -24.5370  -21.1104 N   0  0  0  0  0  0  0  0  0  0  0  0
   24.4563  -23.3374  -19.4621 N   0  0  0  0  0  0  0  0  0  0  0  0
   25.6094  -22.5420  -19.0482 C   0  0  0  0  0  0  0  0  0  0  0  0
   26.7724  -23.4383  -18.6724 C   0  0  0  0  0  0  0  0  0  0  0  0
   27.1535  -23.1514  -17.2385 C   0  0  0  0  0  0  0  0  0  0  0  0
   27.8117  -21.8235  -17.0567 C   0  0  2  0  0  0  0  0  0  0  0  0
   29.0531  -21.8202  -17.8049 N   0  0  0  0  0  0  0  0  0  0  0  0
   28.0267  -21.4777  -15.6300 C   0  0  0  0  0  0  0  0  0  0  0  0
   28.5413  -22.3410  -14.8755 O   0  0  0  0  0  0  0  0  0  0  0  0
   22.4805  -24.2558  -20.6571 O   0  0  0  0  0  0  0  0  0  0  0  0
   26.4617  -17.9436  -14.1454 C   0  0  0  0  0  0  0  0  0  0  0  0
   27.5983  -18.4144  -13.5133 C   0  0  1  0  0  0  0  0  0  0  0  0
   27.7575  -19.9079  -13.6771 N   0  0  0  0  0  0  0  0  0  0  0  0
   27.6876  -20.2325  -15.0639 C   0  0  0  0  0  0  0  0  0  0  0  0
   26.7726  -20.6250  -12.8353 O   0  0  0  0  0  0  0  0  0  0  0  0
   25.7364  -21.0950  -13.3496 N   0  0  0  0  0  0  0  0  0  0  0  0
   26.9730  -20.7952  -11.4536 C   0  0  2  0  0  0  0  0  0  0  0  0
   25.9545  -21.5328  -10.6893 C   0  0  0  0  0  0  0  0  0  0  0  0
   26.4846  -21.8361   -9.3106 C   0  0  0  0  0  0  0  0  0  0  0  0
   26.6736  -20.6677   -8.4433 C   0  0  0  0  0  0  0  0  0  0  0  0
   25.8750  -19.5382   -8.5600 N   0  0  0  0  0  0  0  0  0  0  0  0
   26.2394  -18.6832   -7.6144 C   0  0  0  0  0  0  0  0  0  0  0  0
   27.2410  -19.1795   -6.8706 C   0  0  0  0  0  0  0  0  0  0  0  0
   27.9455  -18.6579   -5.8006 C   0  0  0  0  0  0  0  0  0  0  0  0
   28.9469  -19.4345   -5.2647 C   0  0  0  0  0  0  0  0  0  0  0  0
   29.2479  -20.6687   -5.7540 C   0  0  0  0  0  0  0  0  0  0  0  0
   28.5334  -21.1793   -6.8265 C   0  0  0  0  0  0  0  0  0  0  0  0
   27.5123  -20.4363   -7.4013 C   0  0  0  0  0  0  0  0  0  0  0  0
   24.7656  -20.6790  -10.6129 O   0  0  0  0  0  0  0  0  0  0  0  0
   23.6387  -21.0833  -10.2312 O   0  0  0  0  0  0  0  0  0  0  0  0
  2  3  2  0
  2  1  1  0
  4  2  1  0
  5  4  1  0
  6  5  1  0
  7  6  1  0
  7  8  1  0
  8  9  1  6
 10  8  1  0
 10 11  2  0
 13 12  1  0
 14 13  1  6
 14 15  1  0
 15 10  1  0
 16 18  1  0
 16 14  1  0
 17 16  2  0
 19 18  1  0
 19 30  1  0
 20 21  1  0
 19 20  1  6
 21 29  1  0
 22 23  1  0
 22 21  2  0
 23 24  1  0
 24 29  2  0
 24 25  1  0
 25 26  2  0
 26 27  1  0
 28 27  2  0
 29 28  1  0
 30 31  2  0
 30 32  1  0
M  END
$$$$
