RSW.pdb
     RDKit          3D

 32 33  0  0  1  0  0  0  0  0999 V2000
   21.0849  -27.0332  -13.8705 N   0  0  0  0  0  0  0  0  0  0  0  0
   20.9229  -25.9946  -14.8001 C   0  0  0  0  0  0  0  0  0  0  0  0
   19.9985  -26.0532  -15.6930 N   0  0  0  0  0  0  0  0  0  0  0  0
   21.7463  -24.8268  -14.8277 N   0  0  0  0  0  0  0  0  0  0  0  0
   21.7602  -23.9575  -16.0014 C   0  0  0  0  0  0  0  0  0  0  0  0
   23.1583  -23.8572  -16.5783 C   0  0  0  0  0  0  0  0  0  0  0  0
   24.1402  -23.7418  -15.4354 C   0  0  0  0  0  0  0  0  0  0  0  0
   25.5281  -23.4170  -15.8799 C   0  0  2  0  0  0  0  0  0  0  0  0
   26.0994  -24.5959  -16.5001 N   0  0  0  0  0  0  0  0  0  0  0  0
   26.3807  -22.9051  -14.7788 C   0  0  0  0  0  0  0  0  0  0  0  0
   27.1340  -23.7131  -14.1796 O   0  0  0  0  0  0  0  0  0  0  0  0
   19.8851  -25.2934  -16.4066 O   0  0  0  0  0  0  0  0  0  0  0  0
   26.2403  -18.8818  -13.7769 C   0  0  0  0  0  0  0  0  0  0  0  0
   27.2918  -19.6260  -13.2732 C   0  0  1  0  0  0  0  0  0  0  0  0
   26.9299  -21.0853  -13.1243 N   0  0  0  0  0  0  0  0  0  0  0  0
   26.3986  -21.5597  -14.3597 C   0  0  0  0  0  0  0  0  0  0  0  0
   26.0305  -21.2759  -11.9635 O   0  0  0  0  0  0  0  0  0  0  0  0
   24.8124  -21.4823  -12.1446 N   0  0  0  0  0  0  0  0  0  0  0  0
   26.5148  -21.2311  -10.6438 C   0  0  2  0  0  0  0  0  0  0  0  0
   25.5578  -21.4364   -9.5450 C   0  0  0  0  0  0  0  0  0  0  0  0
   26.3116  -21.6308   -8.2536 C   0  0  0  0  0  0  0  0  0  0  0  0
   26.8986  -20.4127   -7.6837 C   0  0  0  0  0  0  0  0  0  0  0  0
   26.6261  -19.1580   -8.2116 N   0  0  0  0  0  0  0  0  0  0  0  0
   27.2436  -18.2575   -7.4595 C   0  0  0  0  0  0  0  0  0  0  0  0
   27.9168  -18.8425   -6.4557 C   0  0  0  0  0  0  0  0  0  0  0  0
   28.7049  -18.3241   -5.4441 C   0  0  0  0  0  0  0  0  0  0  0  0
   29.2785  -19.2176   -4.5692 C   0  0  0  0  0  0  0  0  0  0  0  0
   29.0906  -20.5615   -4.6784 C   0  0  0  0  0  0  0  0  0  0  0  0
   28.2979  -21.0674   -5.6968 C   0  0  0  0  0  0  0  0  0  0  0  0
   27.6952  -20.2076   -6.6039 C   0  0  0  0  0  0  0  0  0  0  0  0
   24.7106  -20.2422   -9.4776 O   0  0  0  0  0  0  0  0  0  0  0  0
   25.0367  -19.1267   -9.9554 O   0  0  0  0  0  0  0  0  0  0  0  0
  2  3  2  0
  2  1  1  0
  4  2  1  0
  5  4  1  0
  6  5  1  0
  7  6  1  0
  7  8  1  0
  8  9  1  1
 10  8  1  0
 10 11  2  0
 13 12  1  0
 14 13  1  6
 14 15  1  0
 15 10  1  0
 16 18  1  0
 16 14  1  0
 17 16  2  0
 19 18  1  0
 19 30  1  0
 20 21  1  0
 19 20  1  6
 21 29  1  0
 22 23  1  0
 22 21  2  0
 23 24  1  0
 24 29  2  0
 24 25  1  0
 25 26  2  0
 26 27  1  0
 28 27  2  0
 29 28  1  0
 30 31  2  0
 30 32  1  0
M  END
$$$$
