RSW.pdb
     RDKit          3D

 32 33  0  0  1  0  0  0  0  0999 V2000
   29.4446  -24.5515  -16.4330 N   0  0  0  0  0  0  0  0  0  0  0  0
   29.6145  -24.2151  -17.7846 C   0  0  0  0  0  0  0  0  0  0  0  0
   29.9225  -25.1159  -18.6501 N   0  0  0  0  0  0  0  0  0  0  0  0
   29.4638  -22.8870  -18.2906 N   0  0  0  0  0  0  0  0  0  0  0  0
   28.8421  -21.8486  -17.4729 C   0  0  0  0  0  0  0  0  0  0  0  0
   27.3525  -21.7730  -17.7429 C   0  0  0  0  0  0  0  0  0  0  0  0
   26.6559  -21.3568  -16.4681 C   0  0  0  0  0  0  0  0  0  0  0  0
   25.6343  -22.3423  -16.0047 C   0  0  2  0  0  0  0  0  0  0  0  0
   25.7560  -23.5422  -16.8087 N   0  0  0  0  0  0  0  0  0  0  0  0
   24.2545  -21.7977  -16.0322 C   0  0  0  0  0  0  0  0  0  0  0  0
   23.6794  -21.6796  -17.1434 O   0  0  0  0  0  0  0  0  0  0  0  0
   30.2070  -24.8561  -19.6251 O   0  0  0  0  0  0  0  0  0  0  0  0
   21.0505  -22.9642  -14.5030 C   0  0  0  0  0  0  0  0  0  0  0  0
   21.2779  -21.9502  -15.4158 C   0  0  1  0  0  0  0  0  0  0  0  0
   22.2102  -20.8955  -14.8670 N   0  0  0  0  0  0  0  0  0  0  0  0
   23.5433  -21.4018  -14.8818 C   0  0  0  0  0  0  0  0  0  0  0  0
   21.7473  -20.4431  -13.5351 O   0  0  0  0  0  0  0  0  0  0  0  0
   21.5041  -21.2802  -12.6411 N   0  0  0  0  0  0  0  0  0  0  0  0
   21.5713  -19.0786  -13.2431 C   0  0  2  0  0  0  0  0  0  0  0  0
   20.6708  -18.2944  -14.1032 C   0  0  0  0  0  0  0  0  0  0  0  0
   21.1034  -18.4341  -15.5409 C   0  0  0  0  0  0  0  0  0  0  0  0
   20.2248  -17.7886  -16.5229 C   0  0  0  0  0  0  0  0  0  0  0  0
   19.3947  -16.7323  -16.1730 N   0  0  0  0  0  0  0  0  0  0  0  0
   18.7728  -16.3232  -17.2702 C   0  0  0  0  0  0  0  0  0  0  0  0
   19.1414  -17.0502  -18.3371 C   0  0  0  0  0  0  0  0  0  0  0  0
   18.7592  -17.0036  -19.6657 C   0  0  0  0  0  0  0  0  0  0  0  0
   19.3253  -17.9228  -20.5186 C   0  0  0  0  0  0  0  0  0  0  0  0
   20.2266  -18.8493  -20.0914 C   0  0  0  0  0  0  0  0  0  0  0  0
   20.6010  -18.8845  -18.7572 C   0  0  0  0  0  0  0  0  0  0  0  0
   20.0604  -17.9775  -17.8571 C   0  0  0  0  0  0  0  0  0  0  0  0
   19.3176  -18.8249  -13.9136 O   0  0  0  0  0  0  0  0  0  0  0  0
   18.3947  -18.1950  -13.3387 O   0  0  0  0  0  0  0  0  0  0  0  0
  2  3  2  0
  2  1  1  0
  4  2  1  0
  5  4  1  0
  6  5  1  0
  7  6  1  0
  7  8  1  0
  8  9  1  6
 10  8  1  0
 10 11  2  0
 13 12  1  0
 14 13  1  6
 14 15  1  0
 15 10  1  0
 16 18  1  0
 16 14  1  0
 17 16  2  0
 19 18  1  0
 19 30  1  0
 20 21  1  0
 19 20  1  6
 21 29  1  0
 22 23  1  0
 22 21  2  0
 23 24  1  0
 24 29  2  0
 24 25  1  0
 25 26  2  0
 26 27  1  0
 28 27  2  0
 29 28  1  0
 30 31  2  0
 30 32  1  0
M  END
$$$$
