RSW.pdb
     RDKit          3D

 32 33  0  0  1  0  0  0  0  0999 V2000
   25.2872  -15.6113  -17.8993 N   0  0  0  0  0  0  0  0  0  0  0  0
   26.4397  -15.7536  -18.6868 C   0  0  0  0  0  0  0  0  0  0  0  0
   26.9605  -14.7351  -19.2757 N   0  0  0  0  0  0  0  0  0  0  0  0
   27.1049  -17.0019  -18.8910 N   0  0  0  0  0  0  0  0  0  0  0  0
   26.7434  -18.1729  -18.0962 C   0  0  0  0  0  0  0  0  0  0  0  0
   26.9735  -17.9120  -16.6209 C   0  0  0  0  0  0  0  0  0  0  0  0
   26.6618  -19.1780  -15.8569 C   0  0  0  0  0  0  0  0  0  0  0  0
   27.7639  -20.1841  -15.9066 C   0  0  2  0  0  0  0  0  0  0  0  0
   27.5941  -20.9928  -17.0974 N   0  0  0  0  0  0  0  0  0  0  0  0
   27.8395  -21.0167  -14.6808 C   0  0  0  0  0  0  0  0  0  0  0  0
   27.0502  -21.9881  -14.5671 O   0  0  0  0  0  0  0  0  0  0  0  0
   27.7924  -14.8396  -19.9051 O   0  0  0  0  0  0  0  0  0  0  0  0
   30.7291  -20.3071  -11.7047 C   0  0  0  0  0  0  0  0  0  0  0  0
   30.0176  -21.4930  -11.7303 C   0  0  1  0  0  0  0  0  0  0  0  0
   28.6334  -21.3082  -12.3070 N   0  0  0  0  0  0  0  0  0  0  0  0
   28.7476  -20.7847  -13.6285 C   0  0  0  0  0  0  0  0  0  0  0  0
   27.8034  -20.4854  -11.3976 O   0  0  0  0  0  0  0  0  0  0  0  0
   27.7401  -19.2487  -11.5576 N   0  0  0  0  0  0  0  0  0  0  0  0
   27.0735  -21.0643  -10.3439 C   0  0  1  0  0  0  0  0  0  0  0  0
   26.4145  -20.1681   -9.3805 C   0  0  0  0  0  0  0  0  0  0  0  0
   25.3908  -19.3257  -10.0990 C   0  0  0  0  0  0  0  0  0  0  0  0
   24.3565  -20.0781  -10.8182 C   0  0  0  0  0  0  0  0  0  0  0  0
   23.3795  -20.7981  -10.1443 N   0  0  0  0  0  0  0  0  0  0  0  0
   22.5606  -21.3173  -11.0485 C   0  0  0  0  0  0  0  0  0  0  0  0
   22.9377  -20.9841  -12.2934 C   0  0  0  0  0  0  0  0  0  0  0  0
   22.4121  -21.2958  -13.5343 C   0  0  0  0  0  0  0  0  0  0  0  0
   23.0637  -20.7986  -14.6394 C   0  0  0  0  0  0  0  0  0  0  0  0
   24.1823  -20.0296  -14.5366 C   0  0  0  0  0  0  0  0  0  0  0  0
   24.6981  -19.7247  -13.2865 C   0  0  0  0  0  0  0  0  0  0  0  0
   24.0765  -20.2002  -12.1408 C   0  0  0  0  0  0  0  0  0  0  0  0
   25.7744  -21.0132   -8.3683 O   0  0  0  0  0  0  0  0  0  0  0  0
   25.7310  -22.2675   -8.4316 O   0  0  0  0  0  0  0  0  0  0  0  0
  2  3  2  0
  2  1  1  0
  4  2  1  0
  5  4  1  0
  6  5  1  0
  7  6  1  0
  7  8  1  0
  8  9  1  6
 10  8  1  0
 10 11  2  0
 13 12  1  0
 14 13  1  6
 14 15  1  0
 15 10  1  0
 16 18  1  0
 16 14  1  0
 17 16  2  0
 19 18  1  0
 19 30  1  0
 20 21  1  0
 19 20  1  1
 21 29  1  0
 22 23  1  0
 22 21  2  0
 23 24  1  0
 24 29  2  0
 24 25  1  0
 25 26  2  0
 26 27  1  0
 28 27  2  0
 29 28  1  0
 30 31  2  0
 30 32  1  0
M  END
$$$$
