RSW.pdb
     RDKit          3D

 32 33  0  0  1  0  0  0  0  0999 V2000
   27.6350  -30.7409  -17.9115 N   0  0  0  0  0  0  0  0  0  0  0  0
   28.2840  -30.7177  -16.6677 C   0  0  0  0  0  0  0  0  0  0  0  0
   28.8521  -31.7755  -16.2054 N   0  0  0  0  0  0  0  0  0  0  0  0
   28.3626  -29.5538  -15.8419 N   0  0  0  0  0  0  0  0  0  0  0  0
   27.7353  -28.3034  -16.2621 C   0  0  0  0  0  0  0  0  0  0  0  0
   28.7507  -27.3864  -16.9144 C   0  0  0  0  0  0  0  0  0  0  0  0
   28.6975  -26.0443  -16.2220 C   0  0  0  0  0  0  0  0  0  0  0  0
   29.5719  -25.0157  -16.8599 C   0  0  2  0  0  0  0  0  0  0  0  0
   30.9197  -25.1803  -16.3527 N   0  0  0  0  0  0  0  0  0  0  0  0
   29.0731  -23.6325  -16.6615 C   0  0  0  0  0  0  0  0  0  0  0  0
   29.4634  -22.9944  -15.6516 O   0  0  0  0  0  0  0  0  0  0  0  0
   29.3239  -31.7724  -15.2691 O   0  0  0  0  0  0  0  0  0  0  0  0
   27.1566  -21.6002  -19.7369 C   0  0  0  0  0  0  0  0  0  0  0  0
   27.8405  -20.9399  -18.7323 C   0  0  1  0  0  0  0  0  0  0  0  0
   27.7109  -21.6463  -17.4030 N   0  0  0  0  0  0  0  0  0  0  0  0
   28.1828  -22.9849  -17.5411 C   0  0  0  0  0  0  0  0  0  0  0  0
   26.3228  -21.5409  -16.8982 O   0  0  0  0  0  0  0  0  0  0  0  0
   25.5529  -22.5206  -16.9789 N   0  0  0  0  0  0  0  0  0  0  0  0
   25.8390  -20.3526  -16.3218 C   0  0  2  0  0  0  0  0  0  0  0  0
   24.4371  -20.3173  -15.8757 C   0  0  0  0  0  0  0  0  0  0  0  0
   24.1608  -19.0003  -15.1953 C   0  0  0  0  0  0  0  0  0  0  0  0
   22.7795  -18.8115  -14.7376 C   0  0  0  0  0  0  0  0  0  0  0  0
   22.3615  -19.2469  -13.4875 N   0  0  0  0  0  0  0  0  0  0  0  0
   21.0944  -18.8877  -13.3346 C   0  0  0  0  0  0  0  0  0  0  0  0
   20.6405  -18.2353  -14.4169 C   0  0  0  0  0  0  0  0  0  0  0  0
   19.4050  -17.6920  -14.7195 C   0  0  0  0  0  0  0  0  0  0  0  0
   19.2620  -17.0946  -15.9506 C   0  0  0  0  0  0  0  0  0  0  0  0
   20.2830  -17.0312  -16.8488 C   0  0  0  0  0  0  0  0  0  0  0  0
   21.5162  -17.5795  -16.5322 C   0  0  0  0  0  0  0  0  0  0  0  0
   21.7122  -18.1913  -15.3024 C   0  0  0  0  0  0  0  0  0  0  0  0
   23.5978  -20.4730  -17.0671 O   0  0  0  0  0  0  0  0  0  0  0  0
   23.9150  -20.0461  -18.2057 O   0  0  0  0  0  0  0  0  0  0  0  0
  2  3  2  0
  2  1  1  0
  4  2  1  0
  5  4  1  0
  6  5  1  0
  7  6  1  0
  7  8  1  0
  8  9  1  1
 10  8  1  0
 10 11  2  0
 13 12  1  0
 14 13  1  1
 14 15  1  0
 15 10  1  0
 16 18  1  0
 16 14  1  0
 17 16  2  0
 19 18  1  0
 19 30  1  0
 20 21  1  0
 19 20  1  6
 21 29  1  0
 22 23  1  0
 22 21  2  0
 23 24  1  0
 24 29  2  0
 24 25  1  0
 25 26  2  0
 26 27  1  0
 28 27  2  0
 29 28  1  0
 30 31  2  0
 30 32  1  0
M  END
$$$$
