GDW.pdb
     RDKit          3D

 27 28  0  0  1  0  0  0  0  0999 V2000
   29.1367  -23.2071  -15.2301 N   0  0  0  0  0  0  0  0  0  0  0  0
   28.7034  -21.9321  -15.7718 C   0  0  0  0  0  0  0  0  0  0  0  0
   27.9019  -21.2144  -14.7536 C   0  0  0  0  0  0  0  0  0  0  0  0
   28.3962  -20.1975  -14.1605 O   0  0  0  0  0  0  0  0  0  0  0  0
   26.5829  -21.6021  -14.3905 N   0  0  0  0  0  0  0  0  0  0  0  0
   25.7583  -20.7373  -13.5700 C   0  0  1  0  0  0  0  0  0  0  0  0
   24.4166  -20.6499  -14.2770 C   0  0  0  0  0  0  0  0  0  0  0  0
   23.5713  -19.7443  -13.4767 C   0  0  0  0  0  0  0  0  0  0  0  0
   24.0833  -18.7266  -12.9673 O   0  0  0  0  0  0  0  0  0  0  0  0
   25.6230  -21.2575  -12.1916 C   0  0  0  0  0  0  0  0  0  0  0  0
   25.2832  -22.4318  -11.9878 O   0  0  0  0  0  0  0  0  0  0  0  0
   22.2323  -20.0162  -13.2921 O   0  0  0  0  0  0  0  0  0  0  0  0
   25.8818  -20.4155  -11.0903 N   0  0  0  0  0  0  0  0  0  0  0  0
   25.7678  -20.8270   -9.7033 C   0  0  1  0  0  0  0  0  0  0  0  0
   26.5096  -19.8075   -8.8814 C   0  0  0  0  0  0  0  0  0  0  0  0
   27.7267  -20.2977   -8.2593 C   0  0  0  0  0  0  0  0  0  0  0  0
   28.6800  -21.1160   -8.8203 C   0  0  0  0  0  0  0  0  0  0  0  0
   29.6662  -21.3558   -7.9327 N   0  0  0  0  0  0  0  0  0  0  0  0
   29.3471  -20.6845   -6.7831 C   0  0  0  0  0  0  0  0  0  0  0  0
   29.9982  -20.5852   -5.5750 C   0  0  0  0  0  0  0  0  0  0  0  0
   29.4946  -19.8456   -4.5377 C   0  0  0  0  0  0  0  0  0  0  0  0
   28.2964  -19.1871   -4.7293 C   0  0  0  0  0  0  0  0  0  0  0  0
   27.6234  -19.2697   -5.9290 C   0  0  0  0  0  0  0  0  0  0  0  0
   28.1374  -20.0179   -6.9713 C   0  0  0  0  0  0  0  0  0  0  0  0
   24.3493  -20.9280   -9.3735 C   0  0  0  0  0  0  0  0  0  0  0  0
   23.4531  -20.3166  -10.0573 O   0  0  0  0  0  0  0  0  0  0  0  0
   23.9395  -21.6979   -8.2998 O   0  0  0  0  0  0  0  0  0  0  0  0
  1  2  1  0
  3  2  1  0
  3  4  2  0
  5  3  1  0
  6  5  1  0
  6 10  1  0
  6  7  1  6
  8  7  1  0
  9  8  2  0
 10 11  2  0
 10 13  1  0
 12  8  1  0
 13 14  1  0
 14 25  1  0
 14 15  1  1
 16 17  2  0
 16 15  1  0
 18 17  1  0
 19 24  2  0
 19 18  1  0
 20 19  1  0
 21 22  1  0
 21 20  2  0
 22 23  2  0
 23 24  1  0
 24 16  1  0
 25 26  2  0
 25 27  1  0
M  END
$$$$
