GDW.pdb
     RDKit          3D

 27 28  0  0  1  0  0  0  0  0999 V2000
   19.6494  -21.1562  -10.7165 N   0  0  0  0  0  0  0  0  0  0  0  0
   20.7375  -20.2502  -10.3969 C   0  0  0  0  0  0  0  0  0  0  0  0
   21.9889  -20.7522  -11.0105 C   0  0  0  0  0  0  0  0  0  0  0  0
   22.3844  -21.9401  -10.7599 O   0  0  0  0  0  0  0  0  0  0  0  0
   22.7933  -19.9688  -11.8827 N   0  0  0  0  0  0  0  0  0  0  0  0
   24.0277  -20.5005  -12.4258 C   0  0  1  0  0  0  0  0  0  0  0  0
   24.1509  -19.9186  -13.8236 C   0  0  0  0  0  0  0  0  0  0  0  0
   22.9393  -20.3220  -14.5615 C   0  0  0  0  0  0  0  0  0  0  0  0
   22.8230  -21.5060  -14.9380 O   0  0  0  0  0  0  0  0  0  0  0  0
   25.1910  -20.1549  -11.5795 C   0  0  0  0  0  0  0  0  0  0  0  0
   25.2143  -19.0961  -10.9357 O   0  0  0  0  0  0  0  0  0  0  0  0
   21.9464  -19.4047  -14.8330 O   0  0  0  0  0  0  0  0  0  0  0  0
   26.2908  -21.0338  -11.4976 N   0  0  0  0  0  0  0  0  0  0  0  0
   27.4946  -20.7663  -10.7325 C   0  0  1  0  0  0  0  0  0  0  0  0
   27.3073  -21.4063   -9.3832 C   0  0  0  0  0  0  0  0  0  0  0  0
   27.2378  -20.4735   -8.2727 C   0  0  0  0  0  0  0  0  0  0  0  0
   26.4412  -19.3563   -8.1692 C   0  0  0  0  0  0  0  0  0  0  0  0
   26.6567  -18.7403   -6.9894 N   0  0  0  0  0  0  0  0  0  0  0  0
   27.6045  -19.4677   -6.3211 C   0  0  0  0  0  0  0  0  0  0  0  0
   28.1872  -19.2902   -5.0873 C   0  0  0  0  0  0  0  0  0  0  0  0
   29.1325  -20.1537   -4.6000 C   0  0  0  0  0  0  0  0  0  0  0  0
   29.4986  -21.2286   -5.3852 C   0  0  0  0  0  0  0  0  0  0  0  0
   28.9311  -21.4299   -6.6246 C   0  0  0  0  0  0  0  0  0  0  0  0
   27.9778  -20.5546   -7.1100 C   0  0  0  0  0  0  0  0  0  0  0  0
   28.6344  -21.2912  -11.4785 C   0  0  0  0  0  0  0  0  0  0  0  0
   28.4816  -21.9426  -12.5727 O   0  0  0  0  0  0  0  0  0  0  0  0
   29.9210  -21.0919  -11.0112 O   0  0  0  0  0  0  0  0  0  0  0  0
  1  2  1  0
  3  2  1  0
  3  4  2  0
  5  3  1  0
  6  5  1  0
  6 10  1  0
  6  7  1  6
  8  7  1  0
  9  8  2  0
 10 11  2  0
 10 13  1  0
 12  8  1  0
 13 14  1  0
 14 25  1  0
 14 15  1  1
 16 17  2  0
 16 15  1  0
 18 17  1  0
 19 24  2  0
 19 18  1  0
 20 19  1  0
 21 22  1  0
 21 20  2  0
 22 23  2  0
 23 24  1  0
 24 16  1  0
 25 26  2  0
 25 27  1  0
M  END
$$$$
