GDW.pdb
     RDKit          3D

 27 28  0  0  1  0  0  0  0  0999 V2000
   23.3737  -18.8795  -17.8008 N   0  0  0  0  0  0  0  0  0  0  0  0
   23.2294  -17.6386  -17.0617 C   0  0  0  0  0  0  0  0  0  0  0  0
   23.0195  -17.9445  -15.6276 C   0  0  0  0  0  0  0  0  0  0  0  0
   22.9602  -16.9919  -14.7794 O   0  0  0  0  0  0  0  0  0  0  0  0
   22.8770  -19.2688  -15.1300 N   0  0  0  0  0  0  0  0  0  0  0  0
   22.5882  -19.5044  -13.7291 C   0  0  1  0  0  0  0  0  0  0  0  0
   21.5706  -20.6318  -13.6989 C   0  0  0  0  0  0  0  0  0  0  0  0
   21.1244  -20.7658  -12.2996 C   0  0  0  0  0  0  0  0  0  0  0  0
   21.1624  -21.8876  -11.7543 O   0  0  0  0  0  0  0  0  0  0  0  0
   23.8109  -19.8438  -12.9684 C   0  0  0  0  0  0  0  0  0  0  0  0
   23.7435  -20.1797  -11.7773 O   0  0  0  0  0  0  0  0  0  0  0  0
   20.6709  -19.6674  -11.6006 O   0  0  0  0  0  0  0  0  0  0  0  0
   25.0721  -19.7878  -13.5968 N   0  0  0  0  0  0  0  0  0  0  0  0
   26.3092  -20.2384  -12.9864 C   0  0  1  0  0  0  0  0  0  0  0  0
   26.1041  -20.1941  -11.4961 C   0  0  0  0  0  0  0  0  0  0  0  0
   27.2717  -20.5530  -10.7111 C   0  0  0  0  0  0  0  0  0  0  0  0
   28.5152  -20.9102  -11.1795 C   0  0  0  0  0  0  0  0  0  0  0  0
   29.3414  -21.1747  -10.1475 N   0  0  0  0  0  0  0  0  0  0  0  0
   28.6238  -20.9866   -8.9969 C   0  0  0  0  0  0  0  0  0  0  0  0
   28.9743  -21.1162   -7.6727 C   0  0  0  0  0  0  0  0  0  0  0  0
   28.0849  -20.8736   -6.6594 C   0  0  0  0  0  0  0  0  0  0  0  0
   26.8029  -20.4882   -6.9970 C   0  0  0  0  0  0  0  0  0  0  0  0
   26.4254  -20.3509   -8.3151 C   0  0  0  0  0  0  0  0  0  0  0  0
   27.3280  -20.5974   -9.3324 C   0  0  0  0  0  0  0  0  0  0  0  0
   26.6104  -21.5719  -13.4986 C   0  0  0  0  0  0  0  0  0  0  0  0
   25.7450  -22.5178  -13.4658 O   0  0  0  0  0  0  0  0  0  0  0  0
   27.8550  -21.8437  -14.0376 O   0  0  0  0  0  0  0  0  0  0  0  0
  1  2  1  0
  3  2  1  0
  3  4  2  0
  5  3  1  0
  6  5  1  0
  6 10  1  0
  6  7  1  6
  8  7  1  0
  9  8  2  0
 10 11  2  0
 10 13  1  0
 12  8  1  0
 13 14  1  0
 14 25  1  0
 14 15  1  1
 16 17  2  0
 16 15  1  0
 18 17  1  0
 19 24  2  0
 19 18  1  0
 20 19  1  0
 21 22  1  0
 21 20  2  0
 22 23  2  0
 23 24  1  0
 24 16  1  0
 25 26  2  0
 25 27  1  0
M  END
$$$$
