GDW.pdb
     RDKit          3D

 27 28  0  0  1  0  0  0  0  0999 V2000
   23.5703  -17.7059  -14.8280 N   0  0  0  0  0  0  0  0  0  0  0  0
   24.0628  -18.0460  -13.5057 C   0  0  0  0  0  0  0  0  0  0  0  0
   24.9840  -19.2014  -13.6084 C   0  0  0  0  0  0  0  0  0  0  0  0
   24.5416  -20.3299  -14.0098 O   0  0  0  0  0  0  0  0  0  0  0  0
   26.3648  -19.1239  -13.2781 N   0  0  0  0  0  0  0  0  0  0  0  0
   27.2091  -20.2999  -13.3517 C   0  0  1  0  0  0  0  0  0  0  0  0
   28.5809  -19.8006  -13.7716 C   0  0  0  0  0  0  0  0  0  0  0  0
   28.4003  -19.0786  -15.0449 C   0  0  0  0  0  0  0  0  0  0  0  0
   27.8375  -19.6568  -15.9969 O   0  0  0  0  0  0  0  0  0  0  0  0
   27.2556  -21.0214  -12.0608 C   0  0  0  0  0  0  0  0  0  0  0  0
   28.0677  -21.9392  -11.8765 O   0  0  0  0  0  0  0  0  0  0  0  0
   28.8464  -17.7815  -15.1843 O   0  0  0  0  0  0  0  0  0  0  0  0
   26.3699  -20.6678  -11.0219 N   0  0  0  0  0  0  0  0  0  0  0  0
   26.2965  -21.3511   -9.7437 C   0  0  1  0  0  0  0  0  0  0  0  0
   27.6046  -21.1071   -9.0406 C   0  0  0  0  0  0  0  0  0  0  0  0
   27.5335  -20.1717   -7.9323 C   0  0  0  0  0  0  0  0  0  0  0  0
   26.8190  -18.9972   -7.8755 C   0  0  0  0  0  0  0  0  0  0  0  0
   27.0029  -18.3995   -6.6810 N   0  0  0  0  0  0  0  0  0  0  0  0
   27.8468  -19.1970   -5.9558 C   0  0  0  0  0  0  0  0  0  0  0  0
   28.3592  -19.0644   -4.6857 C   0  0  0  0  0  0  0  0  0  0  0  0
   29.2021  -19.9975   -4.1420 C   0  0  0  0  0  0  0  0  0  0  0  0
   29.5360  -21.0971   -4.9070 C   0  0  0  0  0  0  0  0  0  0  0  0
   29.0374  -21.2545   -6.1819 C   0  0  0  0  0  0  0  0  0  0  0  0
   28.1874  -20.3091   -6.7242 C   0  0  0  0  0  0  0  0  0  0  0  0
   25.1362  -20.8397   -9.0200 C   0  0  0  0  0  0  0  0  0  0  0  0
   24.4579  -19.8413   -9.4533 O   0  0  0  0  0  0  0  0  0  0  0  0
   24.7410  -21.4328   -7.8344 O   0  0  0  0  0  0  0  0  0  0  0  0
  1  2  1  0
  3  2  1  0
  3  4  2  0
  5  3  1  0
  6  5  1  0
  6 10  1  0
  6  7  1  1
  8  7  1  0
  9  8  2  0
 10 11  2  0
 10 13  1  0
 12  8  1  0
 13 14  1  0
 14 25  1  0
 14 15  1  1
 16 17  2  0
 16 15  1  0
 18 17  1  0
 19 24  2  0
 19 18  1  0
 20 19  1  0
 21 22  1  0
 21 20  2  0
 22 23  2  0
 23 24  1  0
 24 16  1  0
 25 26  2  0
 25 27  1  0
M  END
$$$$
