GDW.pdb
     RDKit          3D

 27 28  0  0  1  0  0  0  0  0999 V2000
   30.5147  -23.9290  -16.3503 N   0  0  0  0  0  0  0  0  0  0  0  0
   29.6072  -22.9908  -16.9851 C   0  0  0  0  0  0  0  0  0  0  0  0
   29.0514  -22.0772  -15.9600 C   0  0  0  0  0  0  0  0  0  0  0  0
   29.4502  -22.1658  -14.7502 O   0  0  0  0  0  0  0  0  0  0  0  0
   28.0769  -21.0842  -16.2529 N   0  0  0  0  0  0  0  0  0  0  0  0
   27.4789  -20.3000  -15.1904 C   0  0  1  0  0  0  0  0  0  0  0  0
   27.0351  -18.9979  -15.8348 C   0  0  0  0  0  0  0  0  0  0  0  0
   28.2605  -18.2802  -16.2329 C   0  0  0  0  0  0  0  0  0  0  0  0
   28.8985  -17.6422  -15.3709 O   0  0  0  0  0  0  0  0  0  0  0  0
   26.3502  -21.0133  -14.5532 C   0  0  0  0  0  0  0  0  0  0  0  0
   25.5784  -21.7098  -15.2281 O   0  0  0  0  0  0  0  0  0  0  0  0
   28.6977  -18.3121  -17.5401 O   0  0  0  0  0  0  0  0  0  0  0  0
   26.1417  -20.9061  -13.1625 N   0  0  0  0  0  0  0  0  0  0  0  0
   25.0701  -21.5705  -12.4440 C   0  0  1  0  0  0  0  0  0  0  0  0
   25.6933  -22.2398  -11.2486 C   0  0  0  0  0  0  0  0  0  0  0  0
   26.2678  -21.3299  -10.2737 C   0  0  0  0  0  0  0  0  0  0  0  0
   25.6180  -20.3439   -9.5674 C   0  0  0  0  0  0  0  0  0  0  0  0
   26.4857  -19.7051   -8.7569 N   0  0  0  0  0  0  0  0  0  0  0  0
   27.7122  -20.2847   -8.9410 C   0  0  0  0  0  0  0  0  0  0  0  0
   28.9377  -20.0250   -8.3718 C   0  0  0  0  0  0  0  0  0  0  0  0
   30.0584  -20.7394   -8.7042 C   0  0  0  0  0  0  0  0  0  0  0  0
   29.9345  -21.7463   -9.6405 C   0  0  0  0  0  0  0  0  0  0  0  0
   28.7192  -22.0273  -10.2262 C   0  0  0  0  0  0  0  0  0  0  0  0
   27.5925  -21.3024   -9.8860 C   0  0  0  0  0  0  0  0  0  0  0  0
   24.0644  -20.5700  -12.0992 C   0  0  0  0  0  0  0  0  0  0  0  0
   24.2987  -19.3137  -12.2072 O   0  0  0  0  0  0  0  0  0  0  0  0
   22.8200  -20.9655  -11.6424 O   0  0  0  0  0  0  0  0  0  0  0  0
  1  2  1  0
  3  2  1  0
  3  4  2  0
  5  3  1  0
  6  5  1  0
  6 10  1  0
  6  7  1  6
  8  7  1  0
  9  8  2  0
 10 11  2  0
 10 13  1  0
 12  8  1  0
 13 14  1  0
 14 25  1  0
 14 15  1  1
 16 17  2  0
 16 15  1  0
 18 17  1  0
 19 24  2  0
 19 18  1  0
 20 19  1  0
 21 22  1  0
 21 20  2  0
 22 23  2  0
 23 24  1  0
 24 16  1  0
 25 26  2  0
 25 27  1  0
M  END
$$$$
