GDW.pdb
     RDKit          3D

 27 28  0  0  1  0  0  0  0  0999 V2000
   30.0880  -17.4747  -17.5083 N   0  0  0  0  0  0  0  0  0  0  0  0
   29.3912  -18.7448  -17.4183 C   0  0  0  0  0  0  0  0  0  0  0  0
   28.2863  -18.6288  -16.4385 C   0  0  0  0  0  0  0  0  0  0  0  0
   28.3774  -17.7928  -15.4777 O   0  0  0  0  0  0  0  0  0  0  0  0
   27.1024  -19.4132  -16.5084 N   0  0  0  0  0  0  0  0  0  0  0  0
   26.0303  -19.2193  -15.5522 C   0  0  1  0  0  0  0  0  0  0  0  0
   24.8603  -18.6651  -16.3470 C   0  0  0  0  0  0  0  0  0  0  0  0
   23.7615  -18.4425  -15.3887 C   0  0  0  0  0  0  0  0  0  0  0  0
   23.9990  -17.8434  -14.3201 O   0  0  0  0  0  0  0  0  0  0  0  0
   25.6801  -20.4794  -14.8604 C   0  0  0  0  0  0  0  0  0  0  0  0
   25.6504  -21.5540  -15.4771 O   0  0  0  0  0  0  0  0  0  0  0  0
   22.4874  -18.8895  -15.6675 O   0  0  0  0  0  0  0  0  0  0  0  0
   25.3754  -20.4680  -13.4835 N   0  0  0  0  0  0  0  0  0  0  0  0
   25.0514  -21.6518  -12.7091 C   0  0  1  0  0  0  0  0  0  0  0  0
   26.2077  -21.8957  -11.7771 C   0  0  0  0  0  0  0  0  0  0  0  0
   26.1805  -21.1096  -10.5565 C   0  0  0  0  0  0  0  0  0  0  0  0
   25.1101  -20.4257  -10.0275 C   0  0  0  0  0  0  0  0  0  0  0  0
   25.4714  -19.8122   -8.8826 N   0  0  0  0  0  0  0  0  0  0  0  0
   26.7920  -20.1025   -8.6680 C   0  0  0  0  0  0  0  0  0  0  0  0
   27.6530  -19.7378   -7.6586 C   0  0  0  0  0  0  0  0  0  0  0  0
   28.9600  -20.1475   -7.6361 C   0  0  0  0  0  0  0  0  0  0  0  0
   29.4084  -20.9502   -8.6659 C   0  0  0  0  0  0  0  0  0  0  0  0
   28.5674  -21.3301   -9.6893 C   0  0  0  0  0  0  0  0  0  0  0  0
   27.2497  -20.9130   -9.7057 C   0  0  0  0  0  0  0  0  0  0  0  0
   23.7843  -21.4150  -12.0238 C   0  0  0  0  0  0  0  0  0  0  0  0
   23.1558  -22.3583  -11.4240 O   0  0  0  0  0  0  0  0  0  0  0  0
   23.2297  -20.1478  -12.0087 O   0  0  0  0  0  0  0  0  0  0  0  0
  1  2  1  0
  3  2  1  0
  3  4  2  0
  5  3  1  0
  6  5  1  0
  6 10  1  0
  6  7  1  6
  8  7  1  0
  9  8  2  0
 10 11  2  0
 10 13  1  0
 12  8  1  0
 13 14  1  0
 14 25  1  0
 14 15  1  1
 16 17  2  0
 16 15  1  0
 18 17  1  0
 19 24  2  0
 19 18  1  0
 20 19  1  0
 21 22  1  0
 21 20  2  0
 22 23  2  0
 23 24  1  0
 24 16  1  0
 25 26  2  0
 25 27  1  0
M  END
$$$$
