GDW.pdb
     RDKit          3D

 27 28  0  0  1  0  0  0  0  0999 V2000
   23.7802  -20.4335  -17.0293 N   0  0  0  0  0  0  0  0  0  0  0  0
   23.1529  -21.7275  -16.8325 C   0  0  0  0  0  0  0  0  0  0  0  0
   21.9343  -21.5605  -16.0070 C   0  0  0  0  0  0  0  0  0  0  0  0
   21.9178  -20.6917  -15.0714 O   0  0  0  0  0  0  0  0  0  0  0  0
   20.7546  -22.3300  -16.2013 N   0  0  0  0  0  0  0  0  0  0  0  0
   19.5898  -22.1205  -15.3642 C   0  0  1  0  0  0  0  0  0  0  0  0
   18.4049  -22.6308  -16.1662 C   0  0  0  0  0  0  0  0  0  0  0  0
   17.6537  -21.4448  -16.6183 C   0  0  0  0  0  0  0  0  0  0  0  0
   16.9826  -21.5142  -17.6680 O   0  0  0  0  0  0  0  0  0  0  0  0
   19.7179  -22.8165  -14.0649 C   0  0  0  0  0  0  0  0  0  0  0  0
   20.3705  -23.8659  -13.9696 O   0  0  0  0  0  0  0  0  0  0  0  0
   17.6909  -20.2733  -15.8923 O   0  0  0  0  0  0  0  0  0  0  0  0
   19.0942  -22.2878  -12.9159 N   0  0  0  0  0  0  0  0  0  0  0  0
   19.2949  -22.7954  -11.5713 C   0  0  1  0  0  0  0  0  0  0  0  0
   19.8136  -21.6505  -10.7435 C   0  0  0  0  0  0  0  0  0  0  0  0
   18.9999  -20.4488  -10.7911 C   0  0  0  0  0  0  0  0  0  0  0  0
   17.8002  -20.2270  -10.1549 C   0  0  0  0  0  0  0  0  0  0  0  0
   17.3451  -18.9904  -10.4405 N   0  0  0  0  0  0  0  0  0  0  0  0
   18.2616  -18.4046  -11.2719 C   0  0  0  0  0  0  0  0  0  0  0  0
   18.2947  -17.1612  -11.8602 C   0  0  0  0  0  0  0  0  0  0  0  0
   19.3262  -16.7697  -12.6722 C   0  0  0  0  0  0  0  0  0  0  0  0
   20.3544  -17.6636  -12.8951 C   0  0  0  0  0  0  0  0  0  0  0  0
   20.3462  -18.9152  -12.3187 C   0  0  0  0  0  0  0  0  0  0  0  0
   19.3022  -19.3036  -11.5004 C   0  0  0  0  0  0  0  0  0  0  0  0
   18.0257  -23.3371  -11.0949 C   0  0  0  0  0  0  0  0  0  0  0  0
   16.9219  -23.1033  -11.7045 O   0  0  0  0  0  0  0  0  0  0  0  0
   17.9902  -24.1254   -9.9588 O   0  0  0  0  0  0  0  0  0  0  0  0
  1  2  1  0
  3  2  1  0
  3  4  2  0
  5  3  1  0
  6  5  1  0
  6 10  1  0
  6  7  1  6
  8  7  1  0
  9  8  2  0
 10 11  2  0
 10 13  1  0
 12  8  1  0
 13 14  1  0
 14 25  1  0
 14 15  1  1
 16 17  2  0
 16 15  1  0
 18 17  1  0
 19 24  2  0
 19 18  1  0
 20 19  1  0
 21 22  1  0
 21 20  2  0
 22 23  2  0
 23 24  1  0
 24 16  1  0
 25 26  2  0
 25 27  1  0
M  END
$$$$
