GDW.pdb
     RDKit          3D

 27 28  0  0  1  0  0  0  0  0999 V2000
   28.1789  -24.5029  -17.2717 N   0  0  0  0  0  0  0  0  0  0  0  0
   28.3322  -23.0976  -17.6009 C   0  0  0  0  0  0  0  0  0  0  0  0
   28.0810  -22.2810  -16.3908 C   0  0  0  0  0  0  0  0  0  0  0  0
   28.5693  -22.6453  -15.2687 O   0  0  0  0  0  0  0  0  0  0  0  0
   27.3093  -21.0868  -16.4077 N   0  0  0  0  0  0  0  0  0  0  0  0
   27.1159  -20.3151  -15.1959 C   0  0  1  0  0  0  0  0  0  0  0  0
   26.7324  -18.9173  -15.6506 C   0  0  0  0  0  0  0  0  0  0  0  0
   27.9070  -18.3580  -16.3454 C   0  0  0  0  0  0  0  0  0  0  0  0
   28.9231  -18.0658  -15.6826 O   0  0  0  0  0  0  0  0  0  0  0  0
   26.0817  -20.9154  -14.3246 C   0  0  0  0  0  0  0  0  0  0  0  0
   24.9967  -21.2886  -14.7932 O   0  0  0  0  0  0  0  0  0  0  0  0
   27.8852  -18.1595  -17.7096 O   0  0  0  0  0  0  0  0  0  0  0  0
   26.3238  -21.0691  -12.9438 N   0  0  0  0  0  0  0  0  0  0  0  0
   25.4088  -21.7157  -12.0215 C   0  0  1  0  0  0  0  0  0  0  0  0
   26.2242  -22.1674  -10.8399 C   0  0  0  0  0  0  0  0  0  0  0  0
   26.2843  -21.2167   -9.7440 C   0  0  0  0  0  0  0  0  0  0  0  0
   25.2979  -20.3478   -9.3373 C   0  0  0  0  0  0  0  0  0  0  0  0
   25.7245  -19.6214   -8.2846 N   0  0  0  0  0  0  0  0  0  0  0  0
   27.0027  -20.0250   -8.0066 C   0  0  0  0  0  0  0  0  0  0  0  0
   27.8976  -19.6190   -7.0435 C   0  0  0  0  0  0  0  0  0  0  0  0
   29.1492  -20.1660   -6.9389 C   0  0  0  0  0  0  0  0  0  0  0  0
   29.5051  -21.1533   -7.8358 C   0  0  0  0  0  0  0  0  0  0  0  0
   28.6285  -21.5785   -8.8103 C   0  0  0  0  0  0  0  0  0  0  0  0
   27.3672  -21.0221   -8.9101 C   0  0  0  0  0  0  0  0  0  0  0  0
   24.3574  -20.7622  -11.6797 C   0  0  0  0  0  0  0  0  0  0  0  0
   24.5216  -19.4983  -11.8217 O   0  0  0  0  0  0  0  0  0  0  0  0
   23.1451  -21.2124  -11.1887 O   0  0  0  0  0  0  0  0  0  0  0  0
  1  2  1  0
  3  2  1  0
  3  4  2  0
  5  3  1  0
  6  5  1  0
  6 10  1  0
  6  7  1  6
  8  7  1  0
  9  8  2  0
 10 11  2  0
 10 13  1  0
 12  8  1  0
 13 14  1  0
 14 25  1  0
 14 15  1  1
 16 17  2  0
 16 15  1  0
 18 17  1  0
 19 24  2  0
 19 18  1  0
 20 19  1  0
 21 22  1  0
 21 20  2  0
 22 23  2  0
 23 24  1  0
 24 16  1  0
 25 26  2  0
 25 27  1  0
M  END
$$$$
