GDW.pdb
     RDKit          3D

 27 28  0  0  1  0  0  0  0  0999 V2000
   29.0363  -18.4925  -17.9285 N   0  0  0  0  0  0  0  0  0  0  0  0
   29.6992  -18.4702  -16.6375 C   0  0  0  0  0  0  0  0  0  0  0  0
   28.6793  -18.4264  -15.5641 C   0  0  0  0  0  0  0  0  0  0  0  0
   29.0365  -18.5612  -14.3457 O   0  0  0  0  0  0  0  0  0  0  0  0
   27.2931  -18.2384  -15.8188 N   0  0  0  0  0  0  0  0  0  0  0  0
   26.3322  -18.2667  -14.7339 C   0  0  1  0  0  0  0  0  0  0  0  0
   25.1255  -17.4871  -15.2275 C   0  0  0  0  0  0  0  0  0  0  0  0
   25.5835  -16.1083  -15.4809 C   0  0  0  0  0  0  0  0  0  0  0  0
   25.9217  -15.3931  -14.5159 O   0  0  0  0  0  0  0  0  0  0  0  0
   25.9769  -19.6518  -14.3542 C   0  0  0  0  0  0  0  0  0  0  0  0
   25.8362  -20.5296  -15.2178 O   0  0  0  0  0  0  0  0  0  0  0  0
   25.6383  -15.6134  -16.7666 O   0  0  0  0  0  0  0  0  0  0  0  0
   25.7943  -19.9873  -12.9966 N   0  0  0  0  0  0  0  0  0  0  0  0
   25.4575  -21.3167  -12.5222 C   0  0  1  0  0  0  0  0  0  0  0  0
   26.4863  -21.6867  -11.4879 C   0  0  0  0  0  0  0  0  0  0  0  0
   26.3486  -20.9940  -10.2192 C   0  0  0  0  0  0  0  0  0  0  0  0
   25.2334  -20.3481   -9.7372 C   0  0  0  0  0  0  0  0  0  0  0  0
   25.4900  -19.8231   -8.5221 N   0  0  0  0  0  0  0  0  0  0  0  0
   26.7874  -20.1330   -8.2139 C   0  0  0  0  0  0  0  0  0  0  0  0
   27.5546  -19.8475   -7.1080 C   0  0  0  0  0  0  0  0  0  0  0  0
   28.8559  -20.2621   -7.0007 C   0  0  0  0  0  0  0  0  0  0  0  0
   29.3962  -20.9870   -8.0440 C   0  0  0  0  0  0  0  0  0  0  0  0
   28.6502  -21.2866   -9.1633 C   0  0  0  0  0  0  0  0  0  0  0  0
   27.3378  -20.8651   -9.2648 C   0  0  0  0  0  0  0  0  0  0  0  0
   24.0919  -21.2839  -12.0070 C   0  0  0  0  0  0  0  0  0  0  0  0
   23.4853  -20.1779  -11.7754 O   0  0  0  0  0  0  0  0  0  0  0  0
   23.4164  -22.4646  -11.7554 O   0  0  0  0  0  0  0  0  0  0  0  0
  1  2  1  0
  3  2  1  0
  3  4  2  0
  5  3  1  0
  6  5  1  0
  6 10  1  0
  6  7  1  6
  8  7  1  0
  9  8  2  0
 10 11  2  0
 10 13  1  0
 12  8  1  0
 13 14  1  0
 14 25  1  0
 14 15  1  1
 16 17  2  0
 16 15  1  0
 18 17  1  0
 19 24  2  0
 19 18  1  0
 20 19  1  0
 21 22  1  0
 21 20  2  0
 22 23  2  0
 23 24  1  0
 24 16  1  0
 25 26  2  0
 25 27  1  0
M  END
$$$$
