GDW.pdb
     RDKit          3D

 27 28  0  0  1  0  0  0  0  0999 V2000
   27.2118  -16.2765  -14.8081 N   0  0  0  0  0  0  0  0  0  0  0  0
   27.6959  -17.2383  -13.8347 C   0  0  0  0  0  0  0  0  0  0  0  0
   26.9549  -18.5110  -13.9936 C   0  0  0  0  0  0  0  0  0  0  0  0
   26.0853  -18.6256  -14.9215 O   0  0  0  0  0  0  0  0  0  0  0  0
   27.1614  -19.6387  -13.1525 N   0  0  0  0  0  0  0  0  0  0  0  0
   26.5199  -20.9054  -13.4445 C   0  0  1  0  0  0  0  0  0  0  0  0
   27.5630  -21.7428  -14.1646 C   0  0  0  0  0  0  0  0  0  0  0  0
   27.6099  -21.2598  -15.5573 C   0  0  0  0  0  0  0  0  0  0  0  0
   26.5484  -20.9219  -16.1196 O   0  0  0  0  0  0  0  0  0  0  0  0
   26.0330  -21.5681  -12.2146 C   0  0  0  0  0  0  0  0  0  0  0  0
   25.4168  -22.6417  -12.2746 O   0  0  0  0  0  0  0  0  0  0  0  0
   28.8099  -21.1816  -16.2317 O   0  0  0  0  0  0  0  0  0  0  0  0
   26.2680  -20.9794  -10.9548 N   0  0  0  0  0  0  0  0  0  0  0  0
   25.7540  -21.5002   -9.7016 C   0  0  1  0  0  0  0  0  0  0  0  0
   26.9186  -21.5857   -8.7521 C   0  0  0  0  0  0  0  0  0  0  0  0
   27.1633  -20.3802   -7.9806 C   0  0  0  0  0  0  0  0  0  0  0  0
   26.7941  -19.0942   -8.3016 C   0  0  0  0  0  0  0  0  0  0  0  0
   27.1985  -18.2413   -7.3388 N   0  0  0  0  0  0  0  0  0  0  0  0
   27.8374  -18.9845   -6.3830 C   0  0  0  0  0  0  0  0  0  0  0  0
   28.4374  -18.6241   -5.1983 C   0  0  0  0  0  0  0  0  0  0  0  0
   29.0287  -19.5452   -4.3746 C   0  0  0  0  0  0  0  0  0  0  0  0
   29.0122  -20.8702   -4.7618 C   0  0  0  0  0  0  0  0  0  0  0  0
   28.4185  -21.2585   -5.9432 C   0  0  0  0  0  0  0  0  0  0  0  0
   27.8236  -20.3238   -6.7695 C   0  0  0  0  0  0  0  0  0  0  0  0
   24.6869  -20.6152   -9.2441 C   0  0  0  0  0  0  0  0  0  0  0  0
   24.4640  -19.4830   -9.8037 O   0  0  0  0  0  0  0  0  0  0  0  0
   23.8836  -20.9881   -8.1815 O   0  0  0  0  0  0  0  0  0  0  0  0
  1  2  1  0
  3  2  1  0
  3  4  2  0
  5  3  1  0
  6  5  1  0
  6 10  1  0
  6  7  1  1
  8  7  1  0
  9  8  2  0
 10 11  2  0
 10 13  1  0
 12  8  1  0
 13 14  1  0
 14 25  1  0
 14 15  1  1
 16 17  2  0
 16 15  1  0
 18 17  1  0
 19 24  2  0
 19 18  1  0
 20 19  1  0
 21 22  1  0
 21 20  2  0
 22 23  2  0
 23 24  1  0
 24 16  1  0
 25 26  2  0
 25 27  1  0
M  END
$$$$
