QNM.pdb
     RDKit          3D

 26 25  0  0  1  0  0  0  0  0999 V2000
   26.2437  -17.3365  -17.9137 N   0  0  0  0  0  0  0  0  0  0  0  0
   27.6591  -17.1378  -17.9138 C   0  0  0  0  0  0  0  0  0  0  0  0
   28.2456  -17.0439  -19.0064 O   0  0  0  0  0  0  0  0  0  0  0  0
   28.3556  -17.0499  -16.6350 C   0  0  0  0  0  0  0  0  0  0  0  0
   27.5617  -17.3174  -15.4151 C   0  0  0  0  0  0  0  0  0  0  0  0
   27.8568  -18.5658  -14.6648 C   0  0  2  0  0  0  0  0  0  0  0  0
   27.7197  -19.7902  -15.3787 N   0  0  0  0  0  0  0  0  0  0  0  0
   26.9925  -18.6420  -13.4175 C   0  0  0  0  0  0  0  0  0  0  0  0
   26.9382  -17.6429  -12.6487 O   0  0  0  0  0  0  0  0  0  0  0  0
   25.8502  -22.3167  -13.2735 N   0  0  0  0  0  0  0  0  0  0  0  0
   24.4577  -22.0188  -13.0520 C   0  0  0  0  0  0  0  0  0  0  0  0
   23.6665  -22.9066  -13.4484 O   0  0  0  0  0  0  0  0  0  0  0  0
   24.0538  -20.7427  -12.3963 C   0  0  0  0  0  0  0  0  0  0  0  0
   25.3314  -19.9859  -12.0210 C   0  0  2  0  0  0  0  0  0  0  0  0
   26.2505  -19.7955  -13.0965 N   0  0  0  0  0  0  0  0  0  0  0  0
   25.9113  -20.5763  -10.8245 C   0  0  0  0  0  0  0  0  0  0  0  0
   26.6919  -21.5431  -10.9530 O   0  0  0  0  0  0  0  0  0  0  0  0
   29.0779  -19.9095   -3.8011 C   0  0  0  0  0  0  0  0  0  0  0  0
   28.4546  -19.1950   -5.3306 S   0  0  0  0  0  0  0  0  0  0  0  0
   27.4001  -20.3514   -6.2204 C   0  0  0  0  0  0  0  0  0  0  0  0
   26.9402  -19.8117   -7.5423 C   0  0  0  0  0  0  0  0  0  0  0  0
   26.0964  -20.7746   -8.3237 C   0  0  2  0  0  0  0  0  0  0  0  0
   25.6219  -20.0998   -9.5369 N   0  0  0  0  0  0  0  0  0  0  0  0
   24.9058  -21.2536   -7.5958 C   0  0  0  0  0  0  0  0  0  0  0  0
   25.0217  -22.1015   -6.5227 O   0  0  0  0  0  0  0  0  0  0  0  0
   23.7400  -20.8959   -7.9407 O   0  0  0  0  0  0  0  0  0  0  0  0
  2  1  1  0
  2  4  1  0
  3  2  2  0
  5  4  1  0
  6  5  1  0
  6  7  1  6
  8  6  1  0
  8  9  2  0
 10 11  1  0
 11 12  2  0
 13 11  1  0
 14 13  1  6
 14 15  1  0
 15  8  1  0
 16 14  1  0
 16 23  1  0
 17 16  2  0
 19 20  1  0
 19 18  1  0
 20 21  1  0
 22 21  1  1
 22 23  1  0
 22 24  1  0
 24 26  2  0
 24 25  1  0
M  END
$$$$
