QNM.pdb
     RDKit          3D

 26 25  0  0  1  0  0  0  0  0999 V2000
   17.8635  -13.9792  -14.5510 N   0  0  0  0  0  0  0  0  0  0  0  0
   17.5664  -13.9675  -15.9490 C   0  0  0  0  0  0  0  0  0  0  0  0
   16.4252  -14.2980  -16.3165 O   0  0  0  0  0  0  0  0  0  0  0  0
   18.6106  -13.5655  -16.8851 C   0  0  0  0  0  0  0  0  0  0  0  0
   19.9212  -13.1870  -16.3113 C   0  0  0  0  0  0  0  0  0  0  0  0
   20.9740  -12.7243  -17.2526 C   0  0  2  0  0  0  0  0  0  0  0  0
   21.2678  -13.5766  -18.3548 N   0  0  0  0  0  0  0  0  0  0  0  0
   22.2663  -12.4563  -16.4996 C   0  0  0  0  0  0  0  0  0  0  0  0
   22.2487  -11.6665  -15.5158 O   0  0  0  0  0  0  0  0  0  0  0  0
   26.9041  -12.8033  -14.6281 N   0  0  0  0  0  0  0  0  0  0  0  0
   26.8332  -13.9490  -15.4993 C   0  0  0  0  0  0  0  0  0  0  0  0
   27.7522  -14.7854  -15.3344 O   0  0  0  0  0  0  0  0  0  0  0  0
   25.7299  -14.0742  -16.4936 C   0  0  0  0  0  0  0  0  0  0  0  0
   24.7699  -12.9007  -16.2759 C   0  0  2  0  0  0  0  0  0  0  0  0
   23.4817  -13.0651  -16.8686 N   0  0  0  0  0  0  0  0  0  0  0  0
   25.4405  -11.6556  -16.6172 C   0  0  0  0  0  0  0  0  0  0  0  0
   25.5652  -11.3548  -17.8232 O   0  0  0  0  0  0  0  0  0  0  0  0
   31.0007  -10.3715  -17.3591 C   0  0  0  0  0  0  0  0  0  0  0  0
   30.0936   -9.0358  -18.1536 S   0  0  0  0  0  0  0  0  0  0  0  0
   28.5918   -8.6257  -17.2495 C   0  0  0  0  0  0  0  0  0  0  0  0
   27.8637   -9.8424  -16.7601 C   0  0  0  0  0  0  0  0  0  0  0  0
   26.6204   -9.5265  -15.9828 C   0  0  2  0  0  0  0  0  0  0  0  0
   25.9517  -10.7869  -15.6412 N   0  0  0  0  0  0  0  0  0  0  0  0
   25.6462   -8.7012  -16.7222 C   0  0  0  0  0  0  0  0  0  0  0  0
   25.8925   -7.3775  -16.9884 O   0  0  0  0  0  0  0  0  0  0  0  0
   24.5522   -9.1912  -17.1335 O   0  0  0  0  0  0  0  0  0  0  0  0
  2  1  1  0
  2  4  1  0
  3  2  2  0
  5  4  1  0
  6  5  1  0
  6  7  1  6
  8  6  1  0
  8  9  2  0
 10 11  1  0
 11 12  2  0
 13 11  1  0
 14 13  1  6
 14 15  1  0
 15  8  1  0
 16 14  1  0
 16 23  1  0
 17 16  2  0
 19 20  1  0
 19 18  1  0
 20 21  1  0
 22 21  1  6
 22 23  1  0
 22 24  1  0
 24 26  2  0
 24 25  1  0
M  END
$$$$
