QNM.pdb
     RDKit          3D

 26 25  0  0  1  0  0  0  0  0999 V2000
   15.9722  -11.0347  -14.7333 N   0  0  0  0  0  0  0  0  0  0  0  0
   17.0449  -11.7256  -15.3772 C   0  0  0  0  0  0  0  0  0  0  0  0
   17.0657  -12.9681  -15.3279 O   0  0  0  0  0  0  0  0  0  0  0  0
   18.0673  -10.9468  -16.0675 C   0  0  0  0  0  0  0  0  0  0  0  0
   17.8950   -9.4771  -16.0894 C   0  0  0  0  0  0  0  0  0  0  0  0
   19.0221   -8.6623  -16.6128 C   0  0  2  0  0  0  0  0  0  0  0  0
   20.2899   -9.3045  -16.7024 N   0  0  0  0  0  0  0  0  0  0  0  0
   19.1846   -7.4009  -15.7814 C   0  0  0  0  0  0  0  0  0  0  0  0
   18.4656   -7.2470  -14.7561 O   0  0  0  0  0  0  0  0  0  0  0  0
   22.2879   -3.8265  -13.7417 N   0  0  0  0  0  0  0  0  0  0  0  0
   22.2244   -5.1873  -13.2715 C   0  0  0  0  0  0  0  0  0  0  0  0
   22.7992   -5.3861  -12.1754 O   0  0  0  0  0  0  0  0  0  0  0  0
   21.5150   -6.2287  -14.0676 C   0  0  0  0  0  0  0  0  0  0  0  0
   20.8402   -5.5314  -15.2526 C   0  0  2  0  0  0  0  0  0  0  0  0
   20.1152   -6.4001  -16.1229 N   0  0  0  0  0  0  0  0  0  0  0  0
   21.8028   -4.6688  -15.9202 C   0  0  0  0  0  0  0  0  0  0  0  0
   22.3889   -3.7941  -15.2479 O   0  0  0  0  0  0  0  0  0  0  0  0
   23.1147   -5.1973  -22.3918 C   0  0  0  0  0  0  0  0  0  0  0  0
   22.4829   -3.5170  -22.2656 S   0  0  0  0  0  0  0  0  0  0  0  0
   22.4664   -2.9421  -20.5597 C   0  0  0  0  0  0  0  0  0  0  0  0
   22.2560   -4.0568  -19.5782 C   0  0  0  0  0  0  0  0  0  0  0  0
   22.3181   -3.6158  -18.1459 C   0  0  2  0  0  0  0  0  0  0  0  0
   22.0913   -4.7845  -17.2884 N   0  0  0  0  0  0  0  0  0  0  0  0
   21.3039   -2.6064  -17.7862 C   0  0  0  0  0  0  0  0  0  0  0  0
   19.9959   -2.9593  -17.5666 O   0  0  0  0  0  0  0  0  0  0  0  0
   21.6113   -1.3825  -17.6696 O   0  0  0  0  0  0  0  0  0  0  0  0
  2  1  1  0
  2  4  1  0
  3  2  2  0
  5  4  1  0
  6  5  1  0
  6  7  1  1
  8  6  1  0
  8  9  2  0
 10 11  1  0
 11 12  2  0
 13 11  1  0
 14 13  1  1
 14 15  1  0
 15  8  1  0
 16 14  1  0
 16 23  1  0
 17 16  2  0
 19 20  1  0
 19 18  1  0
 20 21  1  0
 22 21  1  6
 22 23  1  0
 22 24  1  0
 24 26  2  0
 24 25  1  0
M  END
$$$$
