QNM.pdb
     RDKit          3D

 26 25  0  0  1  0  0  0  0  0999 V2000
   16.9674  -24.9887   -1.0194 N   0  0  0  0  0  0  0  0  0  0  0  0
   16.2397  -24.6867   -2.2119 C   0  0  0  0  0  0  0  0  0  0  0  0
   16.4439  -25.3799   -3.2240 O   0  0  0  0  0  0  0  0  0  0  0  0
   15.2867  -23.5823   -2.1918 C   0  0  0  0  0  0  0  0  0  0  0  0
   15.0896  -22.8852   -0.9014 C   0  0  0  0  0  0  0  0  0  0  0  0
   13.7099  -22.4512   -0.5600 C   0  0  2  0  0  0  0  0  0  0  0  0
   12.9064  -21.9681   -1.6318 N   0  0  0  0  0  0  0  0  0  0  0  0
   13.7505  -21.3862    0.5229 C   0  0  0  0  0  0  0  0  0  0  0  0
   13.7470  -20.1703    0.1858 O   0  0  0  0  0  0  0  0  0  0  0  0
   11.7929  -20.4963    6.2252 N   0  0  0  0  0  0  0  0  0  0  0  0
   12.7679  -20.3083    5.1808 C   0  0  0  0  0  0  0  0  0  0  0  0
   13.2484  -19.1521    5.1198 O   0  0  0  0  0  0  0  0  0  0  0  0
   13.1361  -21.4371    4.2797 C   0  0  0  0  0  0  0  0  0  0  0  0
   13.7636  -20.8403    3.0164 C   0  0  2  0  0  0  0  0  0  0  0  0
   13.7909  -21.7183    1.8912 N   0  0  0  0  0  0  0  0  0  0  0  0
   15.0465  -20.2401    3.3489 C   0  0  0  0  0  0  0  0  0  0  0  0
   16.0421  -20.9852    3.4685 O   0  0  0  0  0  0  0  0  0  0  0  0
   19.4680  -13.9581    2.3387 C   0  0  0  0  0  0  0  0  0  0  0  0
   17.8125  -14.5645    2.6989 S   0  0  0  0  0  0  0  0  0  0  0  0
   17.8484  -16.2450    3.3437 C   0  0  0  0  0  0  0  0  0  0  0  0
   16.4753  -16.8154    3.5418 C   0  0  0  0  0  0  0  0  0  0  0  0
   16.4773  -18.2595    3.9471 C   0  0  2  0  0  0  0  0  0  0  0  0
   15.2011  -18.8589    3.5416 N   0  0  0  0  0  0  0  0  0  0  0  0
   16.6184  -18.4728    5.4002 C   0  0  0  0  0  0  0  0  0  0  0  0
   17.8505  -18.6604    5.9751 O   0  0  0  0  0  0  0  0  0  0  0  0
   15.6048  -18.4892    6.1607 O   0  0  0  0  0  0  0  0  0  0  0  0
  2  1  1  0
  2  4  1  0
  3  2  2  0
  5  4  1  0
  6  5  1  0
  6  7  1  6
  8  6  1  0
  8  9  2  0
 10 11  1  0
 11 12  2  0
 13 11  1  0
 14 13  1  1
 14 15  1  0
 15  8  1  0
 16 14  1  0
 16 23  1  0
 17 16  2  0
 19 20  1  0
 19 18  1  0
 20 21  1  0
 22 21  1  1
 22 23  1  0
 22 24  1  0
 24 26  2  0
 24 25  1  0
M  END
$$$$
