QNM.pdb
     RDKit          3D

 26 25  0  0  1  0  0  0  0  0999 V2000
   14.9563  -10.4354  -14.7655 N   0  0  0  0  0  0  0  0  0  0  0  0
   14.3167  -11.5086  -14.0715 C   0  0  0  0  0  0  0  0  0  0  0  0
   13.6059  -12.2959  -14.7207 O   0  0  0  0  0  0  0  0  0  0  0  0
   14.5264  -11.6384  -12.6336 C   0  0  0  0  0  0  0  0  0  0  0  0
   15.3780  -10.6187  -11.9817 C   0  0  0  0  0  0  0  0  0  0  0  0
   16.6628  -11.0745  -11.3901 C   0  0  2  0  0  0  0  0  0  0  0  0
   16.5934  -12.1473  -10.4563 N   0  0  0  0  0  0  0  0  0  0  0  0
   17.3739   -9.9084  -10.7245 C   0  0  0  0  0  0  0  0  0  0  0  0
   17.0833   -9.6144   -9.5323 O   0  0  0  0  0  0  0  0  0  0  0  0
   19.9603   -5.5766  -10.1303 N   0  0  0  0  0  0  0  0  0  0  0  0
   20.5940   -6.1512  -11.2900 C   0  0  0  0  0  0  0  0  0  0  0  0
   21.5615   -5.4900  -11.7351 O   0  0  0  0  0  0  0  0  0  0  0  0
   20.0956   -7.4325  -11.8656 C   0  0  0  0  0  0  0  0  0  0  0  0
   18.8821   -7.8736  -11.0418 C   0  0  2  0  0  0  0  0  0  0  0  0
   18.3481   -9.1480  -11.4003 N   0  0  0  0  0  0  0  0  0  0  0  0
   17.9055   -6.7961  -11.0014 C   0  0  0  0  0  0  0  0  0  0  0  0
   17.2957   -6.5022  -12.0514 O   0  0  0  0  0  0  0  0  0  0  0  0
   12.4569   -3.7812   -6.2463 C   0  0  0  0  0  0  0  0  0  0  0  0
   13.8213   -4.9103   -6.5659 S   0  0  0  0  0  0  0  0  0  0  0  0
   14.6370   -4.5381   -8.1270 C   0  0  0  0  0  0  0  0  0  0  0  0
   15.7592   -5.4861   -8.4308 C   0  0  0  0  0  0  0  0  0  0  0  0
   16.4771   -5.1768   -9.7109 C   0  0  2  0  0  0  0  0  0  0  0  0
   17.6291   -6.0776   -9.8283 N   0  0  0  0  0  0  0  0  0  0  0  0
   16.9918   -3.7963   -9.7896 C   0  0  0  0  0  0  0  0  0  0  0  0
   16.1504   -2.7352  -10.0132 O   0  0  0  0  0  0  0  0  0  0  0  0
   18.2273   -3.5497   -9.6528 O   0  0  0  0  0  0  0  0  0  0  0  0
  2  1  1  0
  2  4  1  0
  3  2  2  0
  5  4  1  0
  6  5  1  0
  6  7  1  1
  8  6  1  0
  8  9  2  0
 10 11  1  0
 11 12  2  0
 13 11  1  0
 14 13  1  6
 14 15  1  0
 15  8  1  0
 16 14  1  0
 16 23  1  0
 17 16  2  0
 19 20  1  0
 19 18  1  0
 20 21  1  0
 22 21  1  1
 22 23  1  0
 22 24  1  0
 24 26  2  0
 24 25  1  0
M  END
$$$$
