QNM.pdb
     RDKit          3D

 26 25  0  0  1  0  0  0  0  0999 V2000
   28.0976  -15.0363  -17.3620 N   0  0  0  0  0  0  0  0  0  0  0  0
   28.0843  -16.2180  -18.1658 C   0  0  0  0  0  0  0  0  0  0  0  0
   28.1261  -16.0955  -19.4027 O   0  0  0  0  0  0  0  0  0  0  0  0
   28.0260  -17.5166  -17.5037 C   0  0  0  0  0  0  0  0  0  0  0  0
   27.9941  -17.5182  -16.0242 C   0  0  0  0  0  0  0  0  0  0  0  0
   28.0972  -18.8321  -15.3374 C   0  0  2  0  0  0  0  0  0  0  0  0
   27.9306  -19.9925  -16.1456 N   0  0  0  0  0  0  0  0  0  0  0  0
   27.1012  -18.9021  -14.1920 C   0  0  0  0  0  0  0  0  0  0  0  0
   27.0768  -17.9676  -13.3445 O   0  0  0  0  0  0  0  0  0  0  0  0
   23.5798  -18.4809  -14.3852 N   0  0  0  0  0  0  0  0  0  0  0  0
   23.1198  -19.8427  -14.2828 C   0  0  0  0  0  0  0  0  0  0  0  0
   22.0250  -20.0660  -14.8510 O   0  0  0  0  0  0  0  0  0  0  0  0
   23.9271  -20.8591  -13.5501 C   0  0  0  0  0  0  0  0  0  0  0  0
   25.2026  -20.1723  -13.0529 C   0  0  2  0  0  0  0  0  0  0  0  0
   26.2049  -19.9795  -14.0509 N   0  0  0  0  0  0  0  0  0  0  0  0
   25.6694  -20.8328  -11.8437 C   0  0  0  0  0  0  0  0  0  0  0  0
   25.9360  -22.0522  -11.8934 O   0  0  0  0  0  0  0  0  0  0  0  0
   29.3249  -18.9320   -6.7449 C   0  0  0  0  0  0  0  0  0  0  0  0
   27.8170  -19.4761   -5.9273 S   0  0  0  0  0  0  0  0  0  0  0  0
   26.8117  -20.5060   -7.0088 C   0  0  0  0  0  0  0  0  0  0  0  0
   26.7646  -19.9890   -8.4161 C   0  0  0  0  0  0  0  0  0  0  0  0
   25.9578  -20.8472   -9.3448 C   0  0  2  0  0  0  0  0  0  0  0  0
   25.8269  -20.1491  -10.6285 N   0  0  0  0  0  0  0  0  0  0  0  0
   24.5935  -21.1332   -8.8614 C   0  0  0  0  0  0  0  0  0  0  0  0
   24.3729  -22.0223   -7.8393 O   0  0  0  0  0  0  0  0  0  0  0  0
   23.5843  -20.5656   -9.3766 O   0  0  0  0  0  0  0  0  0  0  0  0
  2  1  1  0
  2  4  1  0
  3  2  2  0
  5  4  1  0
  6  5  1  0
  6  7  1  6
  8  6  1  0
  8  9  2  0
 10 11  1  0
 11 12  2  0
 13 11  1  0
 14 13  1  6
 14 15  1  0
 15  8  1  0
 16 14  1  0
 16 23  1  0
 17 16  2  0
 19 20  1  0
 19 18  1  0
 20 21  1  0
 22 21  1  1
 22 23  1  0
 22 24  1  0
 24 26  2  0
 24 25  1  0
M  END
$$$$
