QNM.pdb
     RDKit          3D

 26 25  0  0  1  0  0  0  0  0999 V2000
   21.2142  -13.4079  -22.2814 N   0  0  0  0  0  0  0  0  0  0  0  0
   21.0243  -14.4414  -21.3127 C   0  0  0  0  0  0  0  0  0  0  0  0
   21.0733  -15.6254  -21.6898 O   0  0  0  0  0  0  0  0  0  0  0  0
   20.7849  -14.0657  -19.9235 C   0  0  0  0  0  0  0  0  0  0  0  0
   20.7339  -12.6192  -19.6153 C   0  0  0  0  0  0  0  0  0  0  0  0
   21.5983  -12.1218  -18.5136 C   0  0  2  0  0  0  0  0  0  0  0  0
   21.8140  -13.0066  -17.4189 N   0  0  0  0  0  0  0  0  0  0  0  0
   21.0488  -10.8143  -17.9685 C   0  0  0  0  0  0  0  0  0  0  0  0
   20.9086   -9.8354  -18.7522 O   0  0  0  0  0  0  0  0  0  0  0  0
   17.6558   -7.7972  -14.6411 N   0  0  0  0  0  0  0  0  0  0  0  0
   18.8731   -8.4370  -14.2102 C   0  0  0  0  0  0  0  0  0  0  0  0
   19.5213   -7.7957  -13.3500 O   0  0  0  0  0  0  0  0  0  0  0  0
   19.2738   -9.7563  -14.7763 C   0  0  0  0  0  0  0  0  0  0  0  0
   20.2280   -9.4925  -15.9449 C   0  0  2  0  0  0  0  0  0  0  0  0
   20.6911  -10.6652  -16.6143 N   0  0  0  0  0  0  0  0  0  0  0  0
   21.2796   -8.5829  -15.5168 C   0  0  0  0  0  0  0  0  0  0  0  0
   22.3348   -9.0649  -15.0532 O   0  0  0  0  0  0  0  0  0  0  0  0
   25.7757   -2.8693  -17.7835 C   0  0  0  0  0  0  0  0  0  0  0  0
   24.5778   -4.1931  -18.0092 S   0  0  0  0  0  0  0  0  0  0  0  0
   23.8906   -4.7396  -16.4376 C   0  0  0  0  0  0  0  0  0  0  0  0
   22.8313   -5.7883  -16.6057 C   0  0  0  0  0  0  0  0  0  0  0  0
   22.2553   -6.2737  -15.3086 C   0  0  2  0  0  0  0  0  0  0  0  0
   21.1474   -7.1888  -15.6044 N   0  0  0  0  0  0  0  0  0  0  0  0
   21.7178   -5.1985  -14.4531 C   0  0  0  0  0  0  0  0  0  0  0  0
   22.4676   -4.6528  -13.4414 O   0  0  0  0  0  0  0  0  0  0  0  0
   20.5466   -4.7471  -14.6277 O   0  0  0  0  0  0  0  0  0  0  0  0
  2  1  1  0
  2  4  1  0
  3  2  2  0
  5  4  1  0
  6  5  1  0
  6  7  1  1
  8  6  1  0
  8  9  2  0
 10 11  1  0
 11 12  2  0
 13 11  1  0
 14 13  1  1
 14 15  1  0
 15  8  1  0
 16 14  1  0
 16 23  1  0
 17 16  2  0
 19 20  1  0
 19 18  1  0
 20 21  1  0
 22 21  1  6
 22 23  1  0
 22 24  1  0
 24 26  2  0
 24 25  1  0
M  END
$$$$
