QNM.pdb
     RDKit          3D

 26 25  0  0  1  0  0  0  0  0999 V2000
   17.9796  -12.6635  -14.9705 N   0  0  0  0  0  0  0  0  0  0  0  0
   17.6388  -13.4623  -16.1055 C   0  0  0  0  0  0  0  0  0  0  0  0
   16.6557  -14.2197  -16.0252 O   0  0  0  0  0  0  0  0  0  0  0  0
   18.4541  -13.3538  -17.3104 C   0  0  0  0  0  0  0  0  0  0  0  0
   19.6269  -12.4532  -17.2520 C   0  0  0  0  0  0  0  0  0  0  0  0
   19.8699  -11.5671  -18.4201 C   0  0  2  0  0  0  0  0  0  0  0  0
   20.6154  -12.1201  -19.4999 N   0  0  0  0  0  0  0  0  0  0  0  0
   20.5577  -10.2887  -17.9715 C   0  0  0  0  0  0  0  0  0  0  0  0
   21.7049  -10.3612  -17.4512 O   0  0  0  0  0  0  0  0  0  0  0  0
   21.4041   -6.1136  -20.5120 N   0  0  0  0  0  0  0  0  0  0  0  0
   20.2469   -6.7646  -19.9518 C   0  0  0  0  0  0  0  0  0  0  0  0
   19.6104   -7.4803  -20.7604 O   0  0  0  0  0  0  0  0  0  0  0  0
   19.8891   -6.5663  -18.5185 C   0  0  0  0  0  0  0  0  0  0  0  0
   20.4552   -7.7498  -17.7280 C   0  0  2  0  0  0  0  0  0  0  0  0
   19.9511   -9.0262  -18.1209 N   0  0  0  0  0  0  0  0  0  0  0  0
   20.3593   -7.4719  -16.3033 C   0  0  0  0  0  0  0  0  0  0  0  0
   19.5103   -8.0923  -15.6289 O   0  0  0  0  0  0  0  0  0  0  0  0
   22.4890  -10.2850  -12.4466 C   0  0  0  0  0  0  0  0  0  0  0  0
   21.9913   -9.0440  -11.2422 S   0  0  0  0  0  0  0  0  0  0  0  0
   21.5633   -7.4856  -12.0354 C   0  0  0  0  0  0  0  0  0  0  0  0
   21.4790   -7.6032  -13.5284 C   0  0  0  0  0  0  0  0  0  0  0  0
   21.1474   -6.3116  -14.2151 C   0  0  2  0  0  0  0  0  0  0  0  0
   21.1831   -6.5323  -15.6651 N   0  0  0  0  0  0  0  0  0  0  0  0
   22.0895   -5.2161  -13.9163 C   0  0  0  0  0  0  0  0  0  0  0  0
   22.1790   -4.6789  -12.6565 O   0  0  0  0  0  0  0  0  0  0  0  0
   22.8443   -4.7387  -14.8153 O   0  0  0  0  0  0  0  0  0  0  0  0
  2  1  1  0
  2  4  1  0
  3  2  2  0
  5  4  1  0
  6  5  1  0
  6  7  1  6
  8  6  1  0
  8  9  2  0
 10 11  1  0
 11 12  2  0
 13 11  1  0
 14 13  1  6
 14 15  1  0
 15  8  1  0
 16 14  1  0
 16 23  1  0
 17 16  2  0
 19 20  1  0
 19 18  1  0
 20 21  1  0
 22 21  1  1
 22 23  1  0
 22 24  1  0
 24 26  2  0
 24 25  1  0
M  END
$$$$
