QNM.pdb
     RDKit          3D

 26 25  0  0  1  0  0  0  0  0999 V2000
   19.2042  -15.6845  -17.0845 N   0  0  0  0  0  0  0  0  0  0  0  0
   18.9952  -15.3707  -18.4631 C   0  0  0  0  0  0  0  0  0  0  0  0
   18.3512  -16.1713  -19.1635 O   0  0  0  0  0  0  0  0  0  0  0  0
   19.5417  -14.1248  -18.9899 C   0  0  0  0  0  0  0  0  0  0  0  0
   20.2480  -13.2415  -18.0355 C   0  0  0  0  0  0  0  0  0  0  0  0
   19.8993  -11.7969  -18.0511 C   0  0  2  0  0  0  0  0  0  0  0  0
   19.0499  -11.3540  -19.1046 N   0  0  0  0  0  0  0  0  0  0  0  0
   21.1638  -10.9548  -18.0723 C   0  0  0  0  0  0  0  0  0  0  0  0
   22.2065  -11.4298  -18.6009 O   0  0  0  0  0  0  0  0  0  0  0  0
   23.9376   -6.3358  -17.9867 N   0  0  0  0  0  0  0  0  0  0  0  0
   24.0852   -7.5771  -18.7037 C   0  0  0  0  0  0  0  0  0  0  0  0
   25.2452   -7.8009  -19.1228 O   0  0  0  0  0  0  0  0  0  0  0  0
   22.9161   -8.4815  -18.8959 C   0  0  0  0  0  0  0  0  0  0  0  0
   22.2870   -8.7297  -17.5217 C   0  0  2  0  0  0  0  0  0  0  0  0
   21.2040   -9.6598  -17.5198 N   0  0  0  0  0  0  0  0  0  0  0  0
   21.9933   -7.4550  -16.8852 C   0  0  0  0  0  0  0  0  0  0  0  0
   21.2552   -6.6439  -17.4836 O   0  0  0  0  0  0  0  0  0  0  0  0
   21.7736   -9.1768  -10.9025 C   0  0  0  0  0  0  0  0  0  0  0  0
   20.4291   -7.9851  -11.0038 S   0  0  0  0  0  0  0  0  0  0  0  0
   20.6866   -6.8083  -12.3416 C   0  0  0  0  0  0  0  0  0  0  0  0
   21.4094   -7.4123  -13.5090 C   0  0  0  0  0  0  0  0  0  0  0  0
   21.7051   -6.4321  -14.6052 C   0  0  2  0  0  0  0  0  0  0  0  0
   22.5113   -7.1069  -15.6285 N   0  0  0  0  0  0  0  0  0  0  0  0
   22.4652   -5.2484  -14.1602 C   0  0  0  0  0  0  0  0  0  0  0  0
   21.8653   -4.2494  -13.4349 O   0  0  0  0  0  0  0  0  0  0  0  0
   23.6955   -5.1193  -14.4351 O   0  0  0  0  0  0  0  0  0  0  0  0
  2  1  1  0
  2  4  1  0
  3  2  2  0
  5  4  1  0
  6  5  1  0
  6  7  1  6
  8  6  1  0
  8  9  2  0
 10 11  1  0
 11 12  2  0
 13 11  1  0
 14 13  1  6
 14 15  1  0
 15  8  1  0
 16 14  1  0
 16 23  1  0
 17 16  2  0
 19 20  1  0
 19 18  1  0
 20 21  1  0
 22 21  1  1
 22 23  1  0
 22 24  1  0
 24 26  2  0
 24 25  1  0
M  END
$$$$
