QNM.pdb
     RDKit          3D

 26 25  0  0  1  0  0  0  0  0999 V2000
   18.1406  -28.7121   -7.1249 N   0  0  0  0  0  0  0  0  0  0  0  0
   17.6900  -27.9229   -6.0219 C   0  0  0  0  0  0  0  0  0  0  0  0
   17.5566  -28.4718   -4.9140 O   0  0  0  0  0  0  0  0  0  0  0  0
   17.4093  -26.5079   -6.2396 C   0  0  0  0  0  0  0  0  0  0  0  0
   17.5687  -25.9932   -7.6179 C   0  0  0  0  0  0  0  0  0  0  0  0
   18.6405  -24.9917   -7.8563 C   0  0  2  0  0  0  0  0  0  0  0  0
   18.6547  -23.8526   -7.0020 N   0  0  0  0  0  0  0  0  0  0  0  0
   18.5918  -24.5075   -9.2956 C   0  0  0  0  0  0  0  0  0  0  0  0
   18.6948  -25.3506  -10.2287 O   0  0  0  0  0  0  0  0  0  0  0  0
   14.8485  -22.7824  -10.3382 N   0  0  0  0  0  0  0  0  0  0  0  0
   15.9781  -22.8974  -11.2257 C   0  0  0  0  0  0  0  0  0  0  0  0
   15.9649  -23.9169  -11.9548 O   0  0  0  0  0  0  0  0  0  0  0  0
   17.0424  -21.8539  -11.2321 C   0  0  0  0  0  0  0  0  0  0  0  0
   18.3723  -22.5416  -10.9090 C   0  0  2  0  0  0  0  0  0  0  0  0
   18.4341  -23.1451   -9.6168 N   0  0  0  0  0  0  0  0  0  0  0  0
   19.4716  -21.6373  -11.2096 C   0  0  0  0  0  0  0  0  0  0  0  0
   20.3172  -21.4074  -10.3193 O   0  0  0  0  0  0  0  0  0  0  0  0
   25.9909  -22.4917  -13.8672 C   0  0  0  0  0  0  0  0  0  0  0  0
   24.3089  -22.9128  -13.3854 S   0  0  0  0  0  0  0  0  0  0  0  0
   23.2268  -21.4749  -13.4324 C   0  0  0  0  0  0  0  0  0  0  0  0
   21.8300  -21.7903  -12.9855 C   0  0  0  0  0  0  0  0  0  0  0  0
   20.9147  -20.6020  -12.9910 C   0  0  2  0  0  0  0  0  0  0  0  0
   19.6112  -21.0157  -12.4597 N   0  0  0  0  0  0  0  0  0  0  0  0
   20.6798  -20.0341  -14.3323 C   0  0  0  0  0  0  0  0  0  0  0  0
   21.2260  -18.8299  -14.7003 O   0  0  0  0  0  0  0  0  0  0  0  0
   19.9660  -20.6422  -15.1847 O   0  0  0  0  0  0  0  0  0  0  0  0
  2  1  1  0
  2  4  1  0
  3  2  2  0
  5  4  1  0
  6  5  1  0
  6  7  1  1
  8  6  1  0
  8  9  2  0
 10 11  1  0
 11 12  2  0
 13 11  1  0
 14 13  1  1
 14 15  1  0
 15  8  1  0
 16 14  1  0
 16 23  1  0
 17 16  2  0
 19 20  1  0
 19 18  1  0
 20 21  1  0
 22 21  1  6
 22 23  1  0
 22 24  1  0
 24 26  2  0
 24 25  1  0
M  END
$$$$
