QNM.pdb
     RDKit          3D

 26 25  0  0  1  0  0  0  0  0999 V2000
   28.5574  -15.9330  -17.9486 N   0  0  0  0  0  0  0  0  0  0  0  0
   29.3715  -17.1075  -17.9681 C   0  0  0  0  0  0  0  0  0  0  0  0
   30.3475  -17.1410  -18.7380 O   0  0  0  0  0  0  0  0  0  0  0  0
   29.0270  -18.2150  -17.0831 C   0  0  0  0  0  0  0  0  0  0  0  0
   27.8403  -18.0413  -16.2163 C   0  0  0  0  0  0  0  0  0  0  0  0
   26.7345  -19.0233  -16.3627 C   0  0  2  0  0  0  0  0  0  0  0  0
   26.0067  -18.9911  -17.5862 N   0  0  0  0  0  0  0  0  0  0  0  0
   25.7477  -18.8730  -15.2171 C   0  0  0  0  0  0  0  0  0  0  0  0
   25.4204  -17.7144  -14.8394 O   0  0  0  0  0  0  0  0  0  0  0  0
   21.8983  -19.8106  -16.1215 N   0  0  0  0  0  0  0  0  0  0  0  0
   22.2156  -19.5012  -14.7502 C   0  0  0  0  0  0  0  0  0  0  0  0
   21.9084  -18.3390  -14.3948 O   0  0  0  0  0  0  0  0  0  0  0  0
   22.8541  -20.5239  -13.8739 C   0  0  0  0  0  0  0  0  0  0  0  0
   24.2460  -20.0099  -13.4942 C   0  0  2  0  0  0  0  0  0  0  0  0
   25.1883  -19.9900  -14.5664 N   0  0  0  0  0  0  0  0  0  0  0  0
   24.7054  -20.6939  -12.2952 C   0  0  0  0  0  0  0  0  0  0  0  0
   25.0652  -21.8866  -12.3881 O   0  0  0  0  0  0  0  0  0  0  0  0
   28.9761  -19.1041   -7.8453 C   0  0  0  0  0  0  0  0  0  0  0  0
   27.6101  -19.6027   -6.7852 S   0  0  0  0  0  0  0  0  0  0  0  0
   26.3926  -20.5748   -7.6871 C   0  0  0  0  0  0  0  0  0  0  0  0
   26.1041  -20.0166   -9.0492 C   0  0  0  0  0  0  0  0  0  0  0  0
   25.0656  -20.7888   -9.8075 C   0  0  2  0  0  0  0  0  0  0  0  0
   24.7548  -20.0620  -11.0434 N   0  0  0  0  0  0  0  0  0  0  0  0
   23.7978  -20.9660   -9.0739 C   0  0  0  0  0  0  0  0  0  0  0  0
   23.6969  -21.8541   -8.0324 O   0  0  0  0  0  0  0  0  0  0  0  0
   22.7637  -20.3027   -9.3846 O   0  0  0  0  0  0  0  0  0  0  0  0
  2  1  1  0
  2  4  1  0
  3  2  2  0
  5  4  1  0
  6  5  1  0
  6  7  1  6
  8  6  1  0
  8  9  2  0
 10 11  1  0
 11 12  2  0
 13 11  1  0
 14 13  1  6
 14 15  1  0
 15  8  1  0
 16 14  1  0
 16 23  1  0
 17 16  2  0
 19 20  1  0
 19 18  1  0
 20 21  1  0
 22 21  1  1
 22 23  1  0
 22 24  1  0
 24 26  2  0
 24 25  1  0
M  END
$$$$
