QNM.pdb
     RDKit          3D

 26 25  0  0  1  0  0  0  0  0999 V2000
   17.1351  -14.6415  -17.6104 N   0  0  0  0  0  0  0  0  0  0  0  0
   17.8684  -14.0072  -16.5603 C   0  0  0  0  0  0  0  0  0  0  0  0
   18.1681  -14.6772  -15.5564 O   0  0  0  0  0  0  0  0  0  0  0  0
   18.2375  -12.6038  -16.7105 C   0  0  0  0  0  0  0  0  0  0  0  0
   17.7692  -11.6677  -15.6644 C   0  0  0  0  0  0  0  0  0  0  0  0
   16.7975  -10.6183  -16.0682 C   0  0  2  0  0  0  0  0  0  0  0  0
   16.1265  -10.8097  -17.3094 N   0  0  0  0  0  0  0  0  0  0  0  0
   17.4783   -9.2603  -16.0988 C   0  0  0  0  0  0  0  0  0  0  0  0
   18.2192   -8.9692  -17.0777 O   0  0  0  0  0  0  0  0  0  0  0  0
   16.0715   -6.1684  -16.6546 N   0  0  0  0  0  0  0  0  0  0  0  0
   16.0282   -5.5824  -15.3387 C   0  0  0  0  0  0  0  0  0  0  0  0
   15.0914   -4.7683  -15.1625 O   0  0  0  0  0  0  0  0  0  0  0  0
   17.0415   -5.9570  -14.3119 C   0  0  0  0  0  0  0  0  0  0  0  0
   17.9347   -7.0464  -14.9130 C   0  0  2  0  0  0  0  0  0  0  0  0
   17.3046   -8.3181  -15.0662 N   0  0  0  0  0  0  0  0  0  0  0  0
   19.2039   -7.0797  -14.2028 C   0  0  0  0  0  0  0  0  0  0  0  0
   19.3617   -7.9284  -13.2998 O   0  0  0  0  0  0  0  0  0  0  0  0
   25.7168  -10.0633  -14.6137 C   0  0  0  0  0  0  0  0  0  0  0  0
   24.0450   -9.6197  -15.1103 S   0  0  0  0  0  0  0  0  0  0  0  0
   23.5165   -8.0751  -14.3514 C   0  0  0  0  0  0  0  0  0  0  0  0
   22.0847   -7.7452  -14.6535 C   0  0  0  0  0  0  0  0  0  0  0  0
   21.6329   -6.4394  -14.0699 C   0  0  2  0  0  0  0  0  0  0  0  0
   20.2507   -6.1924  -14.4954 N   0  0  0  0  0  0  0  0  0  0  0  0
   22.4373   -5.2807  -14.5026 C   0  0  0  0  0  0  0  0  0  0  0  0
   23.5403   -4.8759  -13.7932 O   0  0  0  0  0  0  0  0  0  0  0  0
   22.1327   -4.6245  -15.5430 O   0  0  0  0  0  0  0  0  0  0  0  0
  2  1  1  0
  2  4  1  0
  3  2  2  0
  5  4  1  0
  6  5  1  0
  6  7  1  6
  8  6  1  0
  8  9  2  0
 10 11  1  0
 11 12  2  0
 13 11  1  0
 14 13  1  1
 14 15  1  0
 15  8  1  0
 16 14  1  0
 16 23  1  0
 17 16  2  0
 19 20  1  0
 19 18  1  0
 20 21  1  0
 22 21  1  6
 22 23  1  0
 22 24  1  0
 24 26  2  0
 24 25  1  0
M  END
$$$$
