CAQ.pdb
     RDKit          3D

 21 20  0  0  1  0  0  0  0  0999 V2000
   25.1648  -15.1348  -18.3691 N   0  0  0  0  0  0  0  0  0  0  0  0
   25.3834  -13.7627  -18.7830 C   0  0  1  0  0  0  0  0  0  0  0  0
   24.5231  -13.5032  -20.0023 C   0  0  0  0  0  0  0  0  0  0  0  0
   24.6506  -11.7679  -20.5128 S   0  0  0  0  0  0  0  0  0  0  0  0
   25.0347  -12.8760  -17.6578 C   0  0  0  0  0  0  0  0  0  0  0  0
   23.8822  -12.9450  -17.1080 O   0  0  0  0  0  0  0  0  0  0  0  0
   26.6587  -10.1885  -15.5298 C   0  0  0  0  0  0  0  0  0  0  0  0
   25.4999  -11.0273  -16.0573 C   0  0  2  0  0  0  0  0  0  0  0  0
   25.9131  -11.9098  -17.1114 N   0  0  0  0  0  0  0  0  0  0  0  0
   24.4606  -10.0613  -16.4956 C   0  0  0  0  0  0  0  0  0  0  0  0
   24.5373   -9.6152  -17.6695 O   0  0  0  0  0  0  0  0  0  0  0  0
   18.4490  -10.0823  -14.9519 N   0  0  0  0  0  0  0  0  0  0  0  0
   18.5197   -8.8756  -15.6921 C   0  0  0  0  0  0  0  0  0  0  0  0
   17.4797   -8.2716  -15.9787 O   0  0  0  0  0  0  0  0  0  0  0  0
   19.8395   -8.3601  -16.1100 C   0  0  0  0  0  0  0  0  0  0  0  0
   20.9957   -9.2211  -15.7423 C   0  0  0  0  0  0  0  0  0  0  0  0
   22.3308   -8.7135  -16.1660 C   0  0  2  0  0  0  0  0  0  0  0  0
   23.4027   -9.6133  -15.6934 N   0  0  0  0  0  0  0  0  0  0  0  0
   22.6130   -7.3953  -15.5822 C   0  0  0  0  0  0  0  0  0  0  0  0
   22.1505   -6.3663  -16.1104 O   0  0  0  0  0  0  0  0  0  0  0  0
   23.3872   -7.2879  -14.4521 O   0  0  0  0  0  0  0  0  0  0  0  0
  2  5  1  0
  2  1  1  1
  3  2  1  0
  4  3  1  0
  5  6  2  0
  8  7  1  6
  8 10  1  0
  9  5  1  0
  9  8  1  0
 10 11  2  0
 12 13  1  0
 13 14  2  0
 15 13  1  0
 15 16  1  0
 17 16  1  1
 17 19  1  0
 18 17  1  0
 18 10  1  0
 19 20  2  0
 19 21  1  0
M  END
$$$$
