CAQ.pdb
     RDKit          3D

 21 20  0  0  1  0  0  0  0  0999 V2000
   20.8553  -15.9684  -17.0794 N   0  0  0  0  0  0  0  0  0  0  0  0
   21.4813  -14.7894  -17.6450 C   0  0  1  0  0  0  0  0  0  0  0  0
   20.6086  -14.3015  -18.7829 C   0  0  0  0  0  0  0  0  0  0  0  0
   21.0355  -15.1572  -20.3236 S   0  0  0  0  0  0  0  0  0  0  0  0
   21.6211  -13.7801  -16.5794 C   0  0  0  0  0  0  0  0  0  0  0  0
   20.5982  -13.3781  -15.9257 O   0  0  0  0  0  0  0  0  0  0  0  0
   24.3586  -11.7882  -14.8693 C   0  0  0  0  0  0  0  0  0  0  0  0
   22.9196  -12.1412  -15.2290 C   0  0  2  0  0  0  0  0  0  0  0  0
   22.8531  -13.1928  -16.2039 N   0  0  0  0  0  0  0  0  0  0  0  0
   22.2949  -10.8807  -15.7049 C   0  0  0  0  0  0  0  0  0  0  0  0
   22.3496  -10.6320  -16.9370 O   0  0  0  0  0  0  0  0  0  0  0  0
   16.7744   -9.0505  -15.6836 N   0  0  0  0  0  0  0  0  0  0  0  0
   17.3441   -7.7635  -15.8510 C   0  0  0  0  0  0  0  0  0  0  0  0
   16.6071   -6.7850  -16.0184 O   0  0  0  0  0  0  0  0  0  0  0  0
   18.8135   -7.6141  -15.8236 C   0  0  0  0  0  0  0  0  0  0  0  0
   19.5667   -8.8630  -15.5297 C   0  0  0  0  0  0  0  0  0  0  0  0
   21.0381   -8.6978  -15.3636 C   0  0  2  0  0  0  0  0  0  0  0  0
   21.6501   -9.9514  -14.8779 N   0  0  0  0  0  0  0  0  0  0  0  0
   21.3524   -7.6711  -14.3611 C   0  0  0  0  0  0  0  0  0  0  0  0
   21.6923   -8.0052  -13.2102 O   0  0  0  0  0  0  0  0  0  0  0  0
   21.2741   -6.3379  -14.6846 O   0  0  0  0  0  0  0  0  0  0  0  0
  2  5  1  0
  2  1  1  1
  3  2  1  0
  4  3  1  0
  5  6  2  0
  8  7  1  6
  8 10  1  0
  9  5  1  0
  9  8  1  0
 10 11  2  0
 12 13  1  0
 13 14  2  0
 15 13  1  0
 15 16  1  0
 17 16  1  1
 17 19  1  0
 18 17  1  0
 18 10  1  0
 19 20  2  0
 19 21  1  0
M  END
$$$$
