CAQ.pdb
     RDKit          3D

 21 20  0  0  1  0  0  0  0  0999 V2000
   18.8027  -14.4492  -17.6144 N   0  0  0  0  0  0  0  0  0  0  0  0
   17.8394  -13.6973  -16.8345 C   0  0  1  0  0  0  0  0  0  0  0  0
   17.9803  -14.1230  -15.3877 C   0  0  0  0  0  0  0  0  0  0  0  0
   16.7141  -13.3249  -14.3639 S   0  0  0  0  0  0  0  0  0  0  0  0
   18.1107  -12.2600  -17.0200 C   0  0  0  0  0  0  0  0  0  0  0  0
   19.3094  -11.8153  -16.9930 O   0  0  0  0  0  0  0  0  0  0  0  0
   16.2528   -9.1453  -18.0756 C   0  0  0  0  0  0  0  0  0  0  0  0
   17.4296   -9.9106  -17.4805 C   0  0  2  0  0  0  0  0  0  0  0  0
   17.1051  -11.2873  -17.2355 N   0  0  0  0  0  0  0  0  0  0  0  0
   17.8073   -9.1836  -16.2418 C   0  0  0  0  0  0  0  0  0  0  0  0
   17.3737   -9.6304  -15.1485 O   0  0  0  0  0  0  0  0  0  0  0  0
   23.0150   -5.7870  -15.2715 N   0  0  0  0  0  0  0  0  0  0  0  0
   22.2766   -5.4829  -14.1005 C   0  0  0  0  0  0  0  0  0  0  0  0
   22.7917   -4.7915  -13.2144 O   0  0  0  0  0  0  0  0  0  0  0  0
   20.9002   -6.0003  -13.9590 C   0  0  0  0  0  0  0  0  0  0  0  0
   20.3968   -6.7745  -15.1255 C   0  0  0  0  0  0  0  0  0  0  0  0
   19.0381   -7.3640  -14.9630 C   0  0  2  0  0  0  0  0  0  0  0  0
   18.6116   -8.0367  -16.2070 N   0  0  0  0  0  0  0  0  0  0  0  0
   18.0333   -6.3277  -14.6903 C   0  0  0  0  0  0  0  0  0  0  0  0
   17.7532   -6.0231  -13.5154 O   0  0  0  0  0  0  0  0  0  0  0  0
   17.3967   -5.6882  -15.7265 O   0  0  0  0  0  0  0  0  0  0  0  0
  2  5  1  0
  2  1  1  6
  3  2  1  0
  4  3  1  0
  5  6  2  0
  8  7  1  1
  8 10  1  0
  9  5  1  0
  9  8  1  0
 10 11  2  0
 12 13  1  0
 13 14  2  0
 15 13  1  0
 15 16  1  0
 17 16  1  6
 17 19  1  0
 18 17  1  0
 18 10  1  0
 19 20  2  0
 19 21  1  0
M  END
$$$$
