CAQ.pdb
     RDKit          3D

 21 20  0  0  1  0  0  0  0  0999 V2000
   17.9829  -14.9432  -16.9858 N   0  0  0  0  0  0  0  0  0  0  0  0
   17.8909  -14.1420  -15.7810 C   0  0  1  0  0  0  0  0  0  0  0  0
   18.9979  -14.5822  -14.8456 C   0  0  0  0  0  0  0  0  0  0  0  0
   18.4807  -16.0316  -13.8863 S   0  0  0  0  0  0  0  0  0  0  0  0
   18.0124  -12.7215  -16.1565 C   0  0  0  0  0  0  0  0  0  0  0  0
   18.8562  -12.3528  -17.0439 O   0  0  0  0  0  0  0  0  0  0  0  0
   16.3142   -9.4173  -15.4063 C   0  0  0  0  0  0  0  0  0  0  0  0
   17.4073  -10.3137  -15.9775 C   0  0  2  0  0  0  0  0  0  0  0  0
   17.2347  -11.6844  -15.5877 N   0  0  0  0  0  0  0  0  0  0  0  0
   18.6943   -9.7430  -15.5046 C   0  0  0  0  0  0  0  0  0  0  0  0
   19.1792  -10.2030  -14.4388 O   0  0  0  0  0  0  0  0  0  0  0  0
   23.5339   -8.0666  -18.9512 N   0  0  0  0  0  0  0  0  0  0  0  0
   23.9807   -7.6556  -17.6705 C   0  0  0  0  0  0  0  0  0  0  0  0
   25.1422   -7.2572  -17.5262 O   0  0  0  0  0  0  0  0  0  0  0  0
   23.0474   -7.7119  -16.5268 C   0  0  0  0  0  0  0  0  0  0  0  0
   21.6950   -8.2440  -16.8448 C   0  0  0  0  0  0  0  0  0  0  0  0
   20.7181   -8.2202  -15.7202 C   0  0  2  0  0  0  0  0  0  0  0  0
   19.4040   -8.7297  -16.1625 N   0  0  0  0  0  0  0  0  0  0  0  0
   20.4879   -6.8515  -15.2390 C   0  0  0  0  0  0  0  0  0  0  0  0
   21.1848   -6.3884  -14.3161 O   0  0  0  0  0  0  0  0  0  0  0  0
   19.5049   -6.0738  -15.8019 O   0  0  0  0  0  0  0  0  0  0  0  0
  2  5  1  0
  2  1  1  6
  3  2  1  0
  4  3  1  0
  5  6  2  0
  8  7  1  1
  8 10  1  0
  9  5  1  0
  9  8  1  0
 10 11  2  0
 12 13  1  0
 13 14  2  0
 15 13  1  0
 15 16  1  0
 17 16  1  6
 17 19  1  0
 18 17  1  0
 18 10  1  0
 19 20  2  0
 19 21  1  0
M  END
$$$$
