CAQ.pdb
     RDKit          3D

 21 20  0  0  1  0  0  0  0  0999 V2000
   24.5095  -14.2506  -17.6982 N   0  0  0  0  0  0  0  0  0  0  0  0
   24.0008  -13.6385  -16.4864 C   0  0  1  0  0  0  0  0  0  0  0  0
   25.1881  -13.2403  -15.6342 C   0  0  0  0  0  0  0  0  0  0  0  0
   25.9914  -14.7091  -14.9372 S   0  0  0  0  0  0  0  0  0  0  0  0
   23.1730  -12.4781  -16.8632 C   0  0  0  0  0  0  0  0  0  0  0  0
   23.5928  -11.6317  -17.7250 O   0  0  0  0  0  0  0  0  0  0  0  0
   19.6861  -11.1422  -16.2241 C   0  0  0  0  0  0  0  0  0  0  0  0
   21.1190  -11.0774  -16.7412 C   0  0  2  0  0  0  0  0  0  0  0  0
   21.8917  -12.2128  -16.3233 N   0  0  0  0  0  0  0  0  0  0  0  0
   21.6763   -9.7934  -16.2452 C   0  0  0  0  0  0  0  0  0  0  0  0
   22.2738   -9.8061  -15.1381 O   0  0  0  0  0  0  0  0  0  0  0  0
   23.1703   -4.7699  -19.7434 N   0  0  0  0  0  0  0  0  0  0  0  0
   23.8939   -5.9796  -19.5959 C   0  0  0  0  0  0  0  0  0  0  0  0
   24.7570   -6.2819  -20.4278 O   0  0  0  0  0  0  0  0  0  0  0  0
   23.6018   -6.8612  -18.4471 C   0  0  0  0  0  0  0  0  0  0  0  0
   22.4929   -6.4017  -17.5682 C   0  0  0  0  0  0  0  0  0  0  0  0
   22.1625   -7.3053  -16.4306 C   0  0  2  0  0  0  0  0  0  0  0  0
   21.5827   -8.5712  -16.9240 N   0  0  0  0  0  0  0  0  0  0  0  0
   21.1530   -6.7073  -15.5468 C   0  0  0  0  0  0  0  0  0  0  0  0
   21.4662   -5.7760  -14.7811 O   0  0  0  0  0  0  0  0  0  0  0  0
   19.8591   -7.1695  -15.5581 O   0  0  0  0  0  0  0  0  0  0  0  0
  2  5  1  0
  2  1  1  6
  3  2  1  0
  4  3  1  0
  5  6  2  0
  8  7  1  1
  8 10  1  0
  9  5  1  0
  9  8  1  0
 10 11  2  0
 12 13  1  0
 13 14  2  0
 15 13  1  0
 15 16  1  0
 17 16  1  6
 17 19  1  0
 18 17  1  0
 18 10  1  0
 19 20  2  0
 19 21  1  0
M  END
$$$$
