CAQ.pdb
     RDKit          3D

 21 20  0  0  1  0  0  0  0  0999 V2000
   14.4264  -10.5514  -10.8702 N   0  0  0  0  0  0  0  0  0  0  0  0
   15.7124  -10.3357  -10.2365 C   0  0  1  0  0  0  0  0  0  0  0  0
   16.6928  -11.3277  -10.8273 C   0  0  0  0  0  0  0  0  0  0  0  0
   16.5730  -12.9240   -9.9754 S   0  0  0  0  0  0  0  0  0  0  0  0
   16.1213   -8.9396  -10.4769 C   0  0  0  0  0  0  0  0  0  0  0  0
   16.0989   -8.4492  -11.6577 O   0  0  0  0  0  0  0  0  0  0  0  0
   17.0987   -5.8607   -8.5098 C   0  0  0  0  0  0  0  0  0  0  0  0
   17.0172   -6.7311   -9.7590 C   0  0  2  0  0  0  0  0  0  0  0  0
   16.5568   -8.0574   -9.4593 N   0  0  0  0  0  0  0  0  0  0  0  0
   18.3769   -6.7197  -10.3562 C   0  0  0  0  0  0  0  0  0  0  0  0
   19.2045   -7.5698   -9.9375 O   0  0  0  0  0  0  0  0  0  0  0  0
   20.1375   -9.5053  -14.5058 N   0  0  0  0  0  0  0  0  0  0  0  0
   21.2817   -8.6692  -14.5348 C   0  0  0  0  0  0  0  0  0  0  0  0
   22.2682   -9.0047  -15.2002 O   0  0  0  0  0  0  0  0  0  0  0  0
   21.2751   -7.4080  -13.7657 C   0  0  0  0  0  0  0  0  0  0  0  0
   20.0295   -7.1486  -12.9946 C   0  0  0  0  0  0  0  0  0  0  0  0
   20.0708   -5.9627  -12.0936 C   0  0  2  0  0  0  0  0  0  0  0  0
   18.8005   -5.8293  -11.3517 N   0  0  0  0  0  0  0  0  0  0  0  0
   20.2357   -4.7170  -12.8545 C   0  0  0  0  0  0  0  0  0  0  0  0
   19.2353   -4.0678  -13.2143 O   0  0  0  0  0  0  0  0  0  0  0  0
   21.4914   -4.2598  -13.1741 O   0  0  0  0  0  0  0  0  0  0  0  0
  2  5  1  0
  2  1  1  6
  3  2  1  0
  4  3  1  0
  5  6  2  0
  8  7  1  1
  8 10  1  0
  9  5  1  0
  9  8  1  0
 10 11  2  0
 12 13  1  0
 13 14  2  0
 15 13  1  0
 15 16  1  0
 17 16  1  6
 17 19  1  0
 18 17  1  0
 18 10  1  0
 19 20  2  0
 19 21  1  0
M  END
$$$$
