CAQ.pdb
     RDKit          3D

 21 20  0  0  1  0  0  0  0  0999 V2000
   24.2032  -21.1112  -11.6561 N   0  0  0  0  0  0  0  0  0  0  0  0
   25.1999  -20.0591  -11.6946 C   0  0  1  0  0  0  0  0  0  0  0  0
   26.4840  -20.6152  -11.1148 C   0  0  0  0  0  0  0  0  0  0  0  0
   26.3953  -20.6637   -9.3042 S   0  0  0  0  0  0  0  0  0  0  0  0
   25.3642  -19.6248  -13.0940 C   0  0  0  0  0  0  0  0  0  0  0  0
   25.3116  -20.4734  -14.0492 O   0  0  0  0  0  0  0  0  0  0  0  0
   25.7064  -16.4091  -15.0643 C   0  0  0  0  0  0  0  0  0  0  0  0
   25.7714  -17.9187  -14.8601 C   0  0  2  0  0  0  0  0  0  0  0  0
   25.5858  -18.2822  -13.4838 N   0  0  0  0  0  0  0  0  0  0  0  0
   27.0901  -18.3480  -15.3915 C   0  0  0  0  0  0  0  0  0  0  0  0
   28.0936  -18.2045  -14.6463 O   0  0  0  0  0  0  0  0  0  0  0  0
   29.6107  -23.1263  -17.5876 N   0  0  0  0  0  0  0  0  0  0  0  0
   28.3761  -22.9862  -16.9057 C   0  0  0  0  0  0  0  0  0  0  0  0
   27.6480  -23.9731  -16.7490 O   0  0  0  0  0  0  0  0  0  0  0  0
   27.9795  -21.6585  -16.3937 C   0  0  0  0  0  0  0  0  0  0  0  0
   29.0276  -20.6074  -16.4943 C   0  0  0  0  0  0  0  0  0  0  0  0
   28.6067  -19.3477  -17.1695 C   0  0  2  0  0  0  0  0  0  0  0  0
   27.2931  -18.9006  -16.6630 N   0  0  0  0  0  0  0  0  0  0  0  0
   28.4449  -19.5434  -18.6164 C   0  0  0  0  0  0  0  0  0  0  0  0
   27.3174  -19.4477  -19.1374 O   0  0  0  0  0  0  0  0  0  0  0  0
   29.5331  -19.8327  -19.4038 O   0  0  0  0  0  0  0  0  0  0  0  0
  2  5  1  0
  2  1  1  6
  3  2  1  0
  4  3  1  0
  5  6  2  0
  8  7  1  1
  8 10  1  0
  9  5  1  0
  9  8  1  0
 10 11  2  0
 12 13  1  0
 13 14  2  0
 15 13  1  0
 15 16  1  0
 17 16  1  1
 17 19  1  0
 18 17  1  0
 18 10  1  0
 19 20  2  0
 19 21  1  0
M  END
$$$$
