CAQ.pdb
     RDKit          3D

 21 20  0  0  1  0  0  0  0  0999 V2000
   26.4859  -13.3858  -18.4328 N   0  0  0  0  0  0  0  0  0  0  0  0
   25.4453  -13.4957  -17.4293 C   0  0  1  0  0  0  0  0  0  0  0  0
   26.1157  -13.5851  -16.0739 C   0  0  0  0  0  0  0  0  0  0  0  0
   26.9594  -15.1792  -15.8859 S   0  0  0  0  0  0  0  0  0  0  0  0
   24.5672  -12.3164  -17.5383 C   0  0  0  0  0  0  0  0  0  0  0  0
   25.0598  -11.1363  -17.5410 O   0  0  0  0  0  0  0  0  0  0  0  0
   20.9369  -11.5684  -18.2915 C   0  0  0  0  0  0  0  0  0  0  0  0
   22.3590  -11.2163  -17.8690 C   0  0  2  0  0  0  0  0  0  0  0  0
   23.1575  -12.3880  -17.6453 N   0  0  0  0  0  0  0  0  0  0  0  0
   22.2288  -10.3731  -16.6535 C   0  0  0  0  0  0  0  0  0  0  0  0
   22.3252  -10.9427  -15.5359 O   0  0  0  0  0  0  0  0  0  0  0  0
   22.8096   -4.0473  -16.1358 N   0  0  0  0  0  0  0  0  0  0  0  0
   22.2794   -4.3991  -14.8693 C   0  0  0  0  0  0  0  0  0  0  0  0
   22.0560   -3.5166  -14.0327 O   0  0  0  0  0  0  0  0  0  0  0  0
   22.0033   -5.8192  -14.5703 C   0  0  0  0  0  0  0  0  0  0  0  0
   22.1841   -6.7495  -15.7171 C   0  0  0  0  0  0  0  0  0  0  0  0
   21.8265   -8.1709  -15.4495 C   0  0  2  0  0  0  0  0  0  0  0  0
   22.0064   -8.9897  -16.6657 N   0  0  0  0  0  0  0  0  0  0  0  0
   20.4144   -8.3056  -15.0679 C   0  0  0  0  0  0  0  0  0  0  0  0
   19.5525   -8.5404  -15.9360 O   0  0  0  0  0  0  0  0  0  0  0  0
   20.0347   -8.1739  -13.7539 O   0  0  0  0  0  0  0  0  0  0  0  0
  2  5  1  0
  2  1  1  6
  3  2  1  0
  4  3  1  0
  5  6  2  0
  8  7  1  1
  8 10  1  0
  9  5  1  0
  9  8  1  0
 10 11  2  0
 12 13  1  0
 13 14  2  0
 15 13  1  0
 15 16  1  0
 17 16  1  6
 17 19  1  0
 18 17  1  0
 18 10  1  0
 19 20  2  0
 19 21  1  0
M  END
$$$$
