CAQ.pdb
     RDKit          3D

 21 20  0  0  1  0  0  0  0  0999 V2000
   24.7627  -33.4480   -5.2329 N   0  0  0  0  0  0  0  0  0  0  0  0
   25.5442  -33.6010   -4.0214 C   0  0  1  0  0  0  0  0  0  0  0  0
   26.1124  -32.2438   -3.6615 C   0  0  0  0  0  0  0  0  0  0  0  0
   27.7915  -32.4132   -2.9981 S   0  0  0  0  0  0  0  0  0  0  0  0
   24.6649  -34.1335   -2.9645 C   0  0  0  0  0  0  0  0  0  0  0  0
   23.4977  -33.6442   -2.7813 O   0  0  0  0  0  0  0  0  0  0  0  0
   24.3356  -37.1472   -0.7838 C   0  0  0  0  0  0  0  0  0  0  0  0
   24.1326  -35.6645   -1.0755 C   0  0  2  0  0  0  0  0  0  0  0  0
   25.0248  -35.1916   -2.0959 N   0  0  0  0  0  0  0  0  0  0  0  0
   24.3221  -34.9622    0.2193 C   0  0  0  0  0  0  0  0  0  0  0  0
   25.4929  -34.6257    0.5340 O   0  0  0  0  0  0  0  0  0  0  0  0
   25.6314  -30.7682    4.1443 N   0  0  0  0  0  0  0  0  0  0  0  0
   24.4653  -30.6738    3.3441 C   0  0  0  0  0  0  0  0  0  0  0  0
   23.5985  -29.8371    3.6219 O   0  0  0  0  0  0  0  0  0  0  0  0
   24.3058  -31.5809    2.1892 C   0  0  0  0  0  0  0  0  0  0  0  0
   23.1464  -32.5093    2.2748 C   0  0  0  0  0  0  0  0  0  0  0  0
   23.4918  -33.9533    2.3996 C   0  0  2  0  0  0  0  0  0  0  0  0
   23.2889  -34.6492    1.1125 N   0  0  0  0  0  0  0  0  0  0  0  0
   22.6251  -34.6294    3.3740 C   0  0  0  0  0  0  0  0  0  0  0  0
   21.4527  -34.2429    3.5410 O   0  0  0  0  0  0  0  0  0  0  0  0
   23.0998  -35.6905    4.1066 O   0  0  0  0  0  0  0  0  0  0  0  0
  2  5  1  0
  2  1  1  6
  3  2  1  0
  4  3  1  0
  5  6  2  0
  8  7  1  1
  8 10  1  0
  9  5  1  0
  9  8  1  0
 10 11  2  0
 12 13  1  0
 13 14  2  0
 15 13  1  0
 15 16  1  0
 17 16  1  6
 17 19  1  0
 18 17  1  0
 18 10  1  0
 19 20  2  0
 19 21  1  0
M  END
$$$$
