CAQ.pdb
     RDKit          3D

 21 20  0  0  1  0  0  0  0  0999 V2000
   17.5600  -14.6635  -15.2896 N   0  0  0  0  0  0  0  0  0  0  0  0
   17.1405  -13.5016  -16.0485 C   0  0  1  0  0  0  0  0  0  0  0  0
   15.9501  -12.8895  -15.3395 C   0  0  0  0  0  0  0  0  0  0  0  0
   14.5356  -14.0237  -15.3770 S   0  0  0  0  0  0  0  0  0  0  0  0
   18.2772  -12.5667  -16.1345 C   0  0  0  0  0  0  0  0  0  0  0  0
   18.9948  -12.3183  -15.1055 O   0  0  0  0  0  0  0  0  0  0  0  0
   20.3243  -10.8127  -18.7600 C   0  0  0  0  0  0  0  0  0  0  0  0
   19.7779  -10.9949  -17.3482 C   0  0  2  0  0  0  0  0  0  0  0  0
   18.6563  -11.8903  -17.3188 N   0  0  0  0  0  0  0  0  0  0  0  0
   19.4355   -9.6340  -16.8622 C   0  0  0  0  0  0  0  0  0  0  0  0
   18.2354   -9.2675  -16.9532 O   0  0  0  0  0  0  0  0  0  0  0  0
   22.7520   -5.7348  -13.0517 N   0  0  0  0  0  0  0  0  0  0  0  0
   21.8367   -4.8384  -13.6581 C   0  0  0  0  0  0  0  0  0  0  0  0
   21.8485   -3.6437  -13.3404 O   0  0  0  0  0  0  0  0  0  0  0  0
   20.8811   -5.3500  -14.6617 C   0  0  0  0  0  0  0  0  0  0  0  0
   21.0495   -6.7852  -15.0156 C   0  0  0  0  0  0  0  0  0  0  0  0
   20.0303   -7.3364  -15.9521 C   0  0  2  0  0  0  0  0  0  0  0  0
   20.3550   -8.7322  -16.3106 N   0  0  0  0  0  0  0  0  0  0  0  0
   19.9990   -6.5843  -17.2135 C   0  0  0  0  0  0  0  0  0  0  0  0
   20.6573   -6.9811  -18.1938 O   0  0  0  0  0  0  0  0  0  0  0  0
   19.2453   -5.4404  -17.3213 O   0  0  0  0  0  0  0  0  0  0  0  0
  2  5  1  0
  2  1  1  1
  3  2  1  0
  4  3  1  0
  5  6  2  0
  8  7  1  6
  8 10  1  0
  9  5  1  0
  9  8  1  0
 10 11  2  0
 12 13  1  0
 13 14  2  0
 15 13  1  0
 15 16  1  0
 17 16  1  1
 17 19  1  0
 18 17  1  0
 18 10  1  0
 19 20  2  0
 19 21  1  0
M  END
$$$$
