CAQ.pdb
     RDKit          3D

 21 20  0  0  1  0  0  0  0  0999 V2000
   18.3155  -13.4712  -15.1318 N   0  0  0  0  0  0  0  0  0  0  0  0
   19.1091  -12.7946  -16.1389 C   0  0  1  0  0  0  0  0  0  0  0  0
   19.2404  -13.7240  -17.3277 C   0  0  0  0  0  0  0  0  0  0  0  0
   20.1025  -15.2467  -16.8520 S   0  0  0  0  0  0  0  0  0  0  0  0
   18.4345  -11.5321  -16.4922 C   0  0  0  0  0  0  0  0  0  0  0  0
   18.8987  -10.7835  -17.4193 O   0  0  0  0  0  0  0  0  0  0  0  0
   15.1595   -9.7933  -15.7897 C   0  0  0  0  0  0  0  0  0  0  0  0
   16.5941   -9.8672  -16.3009 C   0  0  2  0  0  0  0  0  0  0  0  0
   17.2601  -11.0595  -15.8588 N   0  0  0  0  0  0  0  0  0  0  0  0
   17.2631   -8.6295  -15.8256 C   0  0  0  0  0  0  0  0  0  0  0  0
   17.9183   -8.6959  -14.7536 O   0  0  0  0  0  0  0  0  0  0  0  0
   18.6054   -3.4618  -19.3017 N   0  0  0  0  0  0  0  0  0  0  0  0
   18.9748   -3.0391  -18.0002 C   0  0  0  0  0  0  0  0  0  0  0  0
   19.4273   -1.9009  -17.8319 O   0  0  0  0  0  0  0  0  0  0  0  0
   18.8128   -3.9698  -16.8646 C   0  0  0  0  0  0  0  0  0  0  0  0
   18.1720   -5.2690  -17.2033 C   0  0  0  0  0  0  0  0  0  0  0  0
   17.9627   -6.1967  -16.0564 C   0  0  2  0  0  0  0  0  0  0  0  0
   17.2148   -7.3954  -16.4875 N   0  0  0  0  0  0  0  0  0  0  0  0
   17.1595   -5.5688  -14.9988 C   0  0  0  0  0  0  0  0  0  0  0  0
   15.9191   -5.6835  -15.0052 O   0  0  0  0  0  0  0  0  0  0  0  0
   17.7688   -4.8522  -13.9972 O   0  0  0  0  0  0  0  0  0  0  0  0
  2  5  1  0
  2  1  1  1
  3  2  1  0
  4  3  1  0
  5  6  2  0
  8  7  1  1
  8 10  1  0
  9  5  1  0
  9  8  1  0
 10 11  2  0
 12 13  1  0
 13 14  2  0
 15 13  1  0
 15 16  1  0
 17 16  1  6
 17 19  1  0
 18 17  1  0
 18 10  1  0
 19 20  2  0
 19 21  1  0
M  END
$$$$
