CAQ.pdb
     RDKit          3D

 21 20  0  0  1  0  0  0  0  0999 V2000
   19.1412  -16.7615  -14.9523 N   0  0  0  0  0  0  0  0  0  0  0  0
   18.8221  -15.9967  -16.1419 C   0  0  1  0  0  0  0  0  0  0  0  0
   17.3164  -16.0011  -16.3062 C   0  0  0  0  0  0  0  0  0  0  0  0
   16.7757  -17.4996  -17.1724 S   0  0  0  0  0  0  0  0  0  0  0  0
   19.3593  -14.6336  -15.9767 C   0  0  0  0  0  0  0  0  0  0  0  0
   19.1005  -13.9553  -14.9240 O   0  0  0  0  0  0  0  0  0  0  0  0
   21.7258  -12.2603  -17.7366 C   0  0  0  0  0  0  0  0  0  0  0  0
   20.6301  -12.6361  -16.7453 C   0  0  2  0  0  0  0  0  0  0  0  0
   20.1763  -13.9849  -16.9335 N   0  0  0  0  0  0  0  0  0  0  0  0
   19.5470  -11.6375  -16.9332 C   0  0  0  0  0  0  0  0  0  0  0  0
   18.5495  -11.9815  -17.6185 O   0  0  0  0  0  0  0  0  0  0  0  0
   14.4432   -7.9048  -14.3471 N   0  0  0  0  0  0  0  0  0  0  0  0
   14.9998   -8.9748  -15.0917 C   0  0  0  0  0  0  0  0  0  0  0  0
   14.5181  -10.1086  -14.9875 O   0  0  0  0  0  0  0  0  0  0  0  0
   16.1502   -8.7150  -15.9812 C   0  0  0  0  0  0  0  0  0  0  0  0
   17.2849   -9.6661  -15.8351 C   0  0  0  0  0  0  0  0  0  0  0  0
   18.4984   -9.3412  -16.6363 C   0  0  2  0  0  0  0  0  0  0  0  0
   19.5595  -10.3415  -16.4009 N   0  0  0  0  0  0  0  0  0  0  0  0
   19.0643   -8.0421  -16.2490 C   0  0  0  0  0  0  0  0  0  0  0  0
   20.1481   -7.9904  -15.6371 O   0  0  0  0  0  0  0  0  0  0  0  0
   18.4041   -6.8773  -16.5581 O   0  0  0  0  0  0  0  0  0  0  0  0
  2  5  1  0
  2  1  1  1
  3  2  1  0
  4  3  1  0
  5  6  2  0
  8  7  1  6
  8 10  1  0
  9  5  1  0
  9  8  1  0
 10 11  2  0
 12 13  1  0
 13 14  2  0
 15 13  1  0
 15 16  1  0
 17 16  1  1
 17 19  1  0
 18 17  1  0
 18 10  1  0
 19 20  2  0
 19 21  1  0
M  END
$$$$
