CAQ.pdb
     RDKit          3D

 21 20  0  0  1  0  0  0  0  0999 V2000
   17.0701  -14.1892  -16.8664 N   0  0  0  0  0  0  0  0  0  0  0  0
   16.7627  -13.1662  -15.8862 C   0  0  1  0  0  0  0  0  0  0  0  0
   17.3922  -13.5791  -14.5718 C   0  0  0  0  0  0  0  0  0  0  0  0
   16.4613  -14.9426  -13.8218 S   0  0  0  0  0  0  0  0  0  0  0  0
   17.2906  -11.8794  -16.3754 C   0  0  0  0  0  0  0  0  0  0  0  0
   18.4972  -11.7859  -16.7886 O   0  0  0  0  0  0  0  0  0  0  0  0
   16.0054   -8.4124  -17.1899 C   0  0  0  0  0  0  0  0  0  0  0  0
   17.0799   -9.4714  -16.9696 C   0  0  2  0  0  0  0  0  0  0  0  0
   16.5349  -10.6836  -16.4271 N   0  0  0  0  0  0  0  0  0  0  0  0
   18.0911   -8.8501  -16.0769 C   0  0  0  0  0  0  0  0  0  0  0  0
   17.9759   -9.0468  -14.8396 O   0  0  0  0  0  0  0  0  0  0  0  0
   23.6422   -6.3252  -17.8202 N   0  0  0  0  0  0  0  0  0  0  0  0
   23.4878   -7.6824  -17.4418 C   0  0  0  0  0  0  0  0  0  0  0  0
   24.3559   -8.5066  -17.7511 O   0  0  0  0  0  0  0  0  0  0  0  0
   22.2874   -8.0893  -16.6830 C   0  0  0  0  0  0  0  0  0  0  0  0
   21.3454   -6.9847  -16.3574 C   0  0  0  0  0  0  0  0  0  0  0  0
   20.1190   -7.3889  -15.6143 C   0  0  2  0  0  0  0  0  0  0  0  0
   19.1625   -8.0614  -16.5170 N   0  0  0  0  0  0  0  0  0  0  0  0
   19.4158   -6.2218  -15.0654 C   0  0  0  0  0  0  0  0  0  0  0  0
   18.4802   -5.7003  -15.7013 O   0  0  0  0  0  0  0  0  0  0  0  0
   19.7839   -5.6980  -13.8496 O   0  0  0  0  0  0  0  0  0  0  0  0
  2  5  1  0
  2  1  1  6
  3  2  1  0
  4  3  1  0
  5  6  2  0
  8  7  1  1
  8 10  1  0
  9  5  1  0
  9  8  1  0
 10 11  2  0
 12 13  1  0
 13 14  2  0
 15 13  1  0
 15 16  1  0
 17 16  1  6
 17 19  1  0
 18 17  1  0
 18 10  1  0
 19 20  2  0
 19 21  1  0
M  END
$$$$
