CAQ.pdb
     RDKit          3D

 21 20  0  0  1  0  0  0  0  0999 V2000
   22.8473  -17.5011  -16.2515 N   0  0  0  0  0  0  0  0  0  0  0  0
   23.3691  -16.3429  -16.9502 C   0  0  1  0  0  0  0  0  0  0  0  0
   22.5980  -16.1964  -18.2457 C   0  0  0  0  0  0  0  0  0  0  0  0
   22.9787  -17.5669  -19.3705 S   0  0  0  0  0  0  0  0  0  0  0  0
   23.2170  -15.1649  -16.0766 C   0  0  0  0  0  0  0  0  0  0  0  0
   22.1164  -14.9477  -15.4627 O   0  0  0  0  0  0  0  0  0  0  0  0
   25.3232  -12.3282  -14.7120 C   0  0  0  0  0  0  0  0  0  0  0  0
   24.0209  -13.0557  -15.0275 C   0  0  2  0  0  0  0  0  0  0  0  0
   24.2381  -14.2107  -15.8519 N   0  0  0  0  0  0  0  0  0  0  0  0
   23.1362  -12.0521  -15.6719 C   0  0  0  0  0  0  0  0  0  0  0  0
   23.1776  -11.9582  -16.9259 O   0  0  0  0  0  0  0  0  0  0  0  0
   16.5134   -9.9724  -15.7825 N   0  0  0  0  0  0  0  0  0  0  0  0
   17.8008  -10.1391  -16.3517 C   0  0  0  0  0  0  0  0  0  0  0  0
   17.9375  -10.8390  -17.3615 O   0  0  0  0  0  0  0  0  0  0  0  0
   18.9602   -9.4719  -15.7249 C   0  0  0  0  0  0  0  0  0  0  0  0
   19.9653  -10.3904  -15.1253 C   0  0  0  0  0  0  0  0  0  0  0  0
   21.3562  -10.2378  -15.6372 C   0  0  2  0  0  0  0  0  0  0  0  0
   22.2602  -11.2043  -14.9810 N   0  0  0  0  0  0  0  0  0  0  0  0
   21.8937   -8.9036  -15.3390 C   0  0  0  0  0  0  0  0  0  0  0  0
   22.6527   -8.7394  -14.3650 O   0  0  0  0  0  0  0  0  0  0  0  0
   21.5642   -7.8297  -16.1302 O   0  0  0  0  0  0  0  0  0  0  0  0
  2  5  1  0
  2  1  1  1
  3  2  1  0
  4  3  1  0
  5  6  2  0
  8  7  1  6
  8 10  1  0
  9  5  1  0
  9  8  1  0
 10 11  2  0
 12 13  1  0
 13 14  2  0
 15 13  1  0
 15 16  1  0
 17 16  1  1
 17 19  1  0
 18 17  1  0
 18 10  1  0
 19 20  2  0
 19 21  1  0
M  END
$$$$
