KWI.pdb
     RDKit          3D

 32 33  0  0  1  0  0  0  0  0999 V2000
   11.1140  -20.6678   21.3670 N   0  0  0  0  0  0  0  0  0  0  0  0
   11.5288  -19.3311   21.7432 C   0  0  1  0  0  0  0  0  0  0  0  0
   12.0277  -18.6860   20.4423 C   0  0  0  0  0  0  0  0  0  0  0  0
   13.5405  -18.7806   20.4730 C   0  0  0  0  0  0  0  0  0  0  0  0
   14.1573  -18.1808   19.2281 C   0  0  0  0  0  0  0  0  0  0  0  0
   15.6606  -18.2637   19.3724 C   0  0  0  0  0  0  0  0  0  0  0  0
   16.2588  -17.7099   18.1835 N   0  0  0  0  0  0  0  0  0  0  0  0
   10.3620  -18.5743   22.1987 C   0  0  0  0  0  0  0  0  0  0  0  0
    9.3019  -18.6013   21.5357 O   0  0  0  0  0  0  0  0  0  0  0  0
   10.3770  -17.7803   23.4035 N   0  0  0  0  0  0  0  0  0  0  0  0
    9.2529  -16.9779   23.7702 C   0  0  1  0  0  0  0  0  0  0  0  0
    9.2651  -16.5692   25.2253 C   0  0  0  0  0  0  0  0  0  0  0  0
    8.0424  -15.8186   25.5800 C   0  0  0  0  0  0  0  0  0  0  0  0
    6.7353  -16.2434   25.5379 C   0  0  0  0  0  0  0  0  0  0  0  0
    5.9253  -15.2516   25.9430 N   0  0  0  0  0  0  0  0  0  0  0  0
    6.6466  -14.1646   26.2590 C   0  0  0  0  0  0  0  0  0  0  0  0
    6.3457  -12.8962   26.7187 C   0  0  0  0  0  0  0  0  0  0  0  0
    7.3399  -11.9497   26.9650 C   0  0  0  0  0  0  0  0  0  0  0  0
    8.6479  -12.3083   26.7379 C   0  0  0  0  0  0  0  0  0  0  0  0
    8.9412  -13.5737   26.2798 C   0  0  0  0  0  0  0  0  0  0  0  0
    7.9694  -14.5130   26.0343 C   0  0  0  0  0  0  0  0  0  0  0  0
    9.2596  -15.7552   22.9275 C   0  0  0  0  0  0  0  0  0  0  0  0
   10.3057  -15.1159   22.7489 O   0  0  0  0  0  0  0  0  0  0  0  0
    8.0700  -14.9850   17.9657 C   0  0  0  0  0  0  0  0  0  0  0  0
    8.5059  -14.8131   19.3933 C   0  0  0  0  0  0  0  0  0  0  0  0
    7.4753  -14.1201   20.2520 C   0  0  2  0  0  0  0  0  0  0  0  0
    7.1694  -12.7820   19.6504 C   0  0  0  0  0  0  0  0  0  0  0  0
    7.9242  -14.0130   21.6925 C   0  0  2  0  0  0  0  0  0  0  0  0
    8.0594  -15.3036   22.3148 N   0  0  0  0  0  0  0  0  0  0  0  0
    6.9749  -13.1497   22.4700 C   0  0  0  0  0  0  0  0  0  0  0  0
    7.0006  -11.8953   22.3864 O   0  0  0  0  0  0  0  0  0  0  0  0
    6.0375  -13.7236   23.3081 O   0  0  0  0  0  0  0  0  0  0  0  0
  2  3  1  0
  2  1  1  6
  3  4  1  0
  5  4  1  0
  6  5  1  0
  7  6  1  0
  8  2  1  0
  8  9  2  0
 10  8  1  0
 11 10  1  0
 11 22  1  0
 11 12  1  1
 13 12  1  0
 13 14  2  0
 15 14  1  0
 16 15  1  0
 17 16  2  0
 18 17  1  0
 19 18  2  0
 19 20  1  0
 20 21  2  0
 21 16  1  0
 21 13  1  0
 22 23  2  0
 22 29  1  0
 24 25  1  0
 25 26  1  0
 26 28  1  0
 26 27  1  6
 28 30  1  0
 28 29  1  1
 30 31  2  0
 30 32  1  0
M  END
$$$$
