KWI.pdb
     RDKit          3D

 32 33  0  0  1  0  0  0  0  0999 V2000
   10.5984  -18.7207   20.2669 N   0  0  0  0  0  0  0  0  0  0  0  0
   11.3363  -17.4843   20.4315 C   0  0  1  0  0  0  0  0  0  0  0  0
   11.1245  -16.7143   19.1202 C   0  0  0  0  0  0  0  0  0  0  0  0
   11.6840  -17.5905   18.0167 C   0  0  0  0  0  0  0  0  0  0  0  0
   11.5853  -16.9116   16.6679 C   0  0  0  0  0  0  0  0  0  0  0  0
   11.9641  -17.9262   15.6121 C   0  0  0  0  0  0  0  0  0  0  0  0
   11.7436  -17.3327   14.3170 N   0  0  0  0  0  0  0  0  0  0  0  0
   10.7326  -16.7025   21.5114 C   0  0  0  0  0  0  0  0  0  0  0  0
   11.1927  -15.5758   21.7998 O   0  0  0  0  0  0  0  0  0  0  0  0
    9.6066  -17.1807   22.2766 N   0  0  0  0  0  0  0  0  0  0  0  0
    9.0531  -16.4002   23.3378 C   0  0  1  0  0  0  0  0  0  0  0  0
    7.5604  -16.5812   23.4915 C   0  0  0  0  0  0  0  0  0  0  0  0
    7.0260  -15.7226   24.5692 C   0  0  0  0  0  0  0  0  0  0  0  0
    6.6016  -16.0898   25.8245 C   0  0  0  0  0  0  0  0  0  0  0  0
    6.1885  -15.0031   26.4971 N   0  0  0  0  0  0  0  0  0  0  0  0
    6.3208  -13.9077   25.7326 C   0  0  0  0  0  0  0  0  0  0  0  0
    6.0598  -12.5615   25.9070 C   0  0  0  0  0  0  0  0  0  0  0  0
    6.3082  -11.6293   24.8999 C   0  0  0  0  0  0  0  0  0  0  0  0
    6.8267  -12.0824   23.7096 C   0  0  0  0  0  0  0  0  0  0  0  0
    7.0844  -13.4251   23.5421 C   0  0  0  0  0  0  0  0  0  0  0  0
    6.8434  -14.3511   24.5277 C   0  0  0  0  0  0  0  0  0  0  0  0
    9.7185  -16.7989   24.6042 C   0  0  0  0  0  0  0  0  0  0  0  0
   10.0658  -17.9730   24.7936 O   0  0  0  0  0  0  0  0  0  0  0  0
   10.7434  -12.5515   28.2655 C   0  0  0  0  0  0  0  0  0  0  0  0
   10.9500  -13.7010   27.3203 C   0  0  0  0  0  0  0  0  0  0  0  0
   10.4666  -15.0208   27.8720 C   0  0  2  0  0  0  0  0  0  0  0  0
   11.1987  -15.3054   29.1484 C   0  0  0  0  0  0  0  0  0  0  0  0
   10.6137  -16.1390   26.8641 C   0  0  2  0  0  0  0  0  0  0  0  0
    9.9642  -15.8325   25.6169 N   0  0  0  0  0  0  0  0  0  0  0  0
   10.0856  -17.4235   27.4318 C   0  0  0  0  0  0  0  0  0  0  0  0
    8.8537  -17.6717   27.4741 O   0  0  0  0  0  0  0  0  0  0  0  0
   10.9554  -18.3761   27.9282 O   0  0  0  0  0  0  0  0  0  0  0  0
  2  3  1  0
  2  1  1  6
  3  4  1  0
  5  4  1  0
  6  5  1  0
  7  6  1  0
  8  2  1  0
  8  9  2  0
 10  8  1  0
 11 10  1  0
 11 22  1  0
 11 12  1  1
 13 12  1  0
 13 14  2  0
 15 14  1  0
 16 15  1  0
 17 16  2  0
 18 17  1  0
 19 18  2  0
 19 20  1  0
 20 21  2  0
 21 16  1  0
 21 13  1  0
 22 23  2  0
 22 29  1  0
 24 25  1  0
 25 26  1  0
 26 28  1  0
 26 27  1  1
 28 30  1  0
 28 29  1  6
 30 31  2  0
 30 32  1  0
M  END
$$$$
