KWI.pdb
     RDKit          3D

 32 33  0  0  1  0  0  0  0  0999 V2000
    9.3242  -16.5214   19.5498 N   0  0  0  0  0  0  0  0  0  0  0  0
   10.0642  -17.2629   20.5512 C   0  0  1  0  0  0  0  0  0  0  0  0
   11.5352  -17.1516   20.1258 C   0  0  0  0  0  0  0  0  0  0  0  0
   11.6240  -17.7556   18.7381 C   0  0  0  0  0  0  0  0  0  0  0  0
   13.0457  -17.7439   18.2199 C   0  0  0  0  0  0  0  0  0  0  0  0
   13.0136  -18.1890   16.7747 C   0  0  0  0  0  0  0  0  0  0  0  0
   14.3568  -18.1295   16.2548 N   0  0  0  0  0  0  0  0  0  0  0  0
    9.9220  -16.5975   21.8469 C   0  0  0  0  0  0  0  0  0  0  0  0
   10.5802  -15.5631   22.0938 O   0  0  0  0  0  0  0  0  0  0  0  0
    9.0388  -17.0896   22.8765 N   0  0  0  0  0  0  0  0  0  0  0  0
    8.9882  -16.4675   24.1619 C   0  0  1  0  0  0  0  0  0  0  0  0
    7.7286  -16.7950   24.9305 C   0  0  0  0  0  0  0  0  0  0  0  0
    6.7482  -15.6925   24.8448 C   0  0  0  0  0  0  0  0  0  0  0  0
    5.4462  -15.7378   24.4051 C   0  0  0  0  0  0  0  0  0  0  0  0
    4.8987  -14.5142   24.4889 N   0  0  0  0  0  0  0  0  0  0  0  0
    5.7936  -13.6389   24.9737 C   0  0  0  0  0  0  0  0  0  0  0  0
    5.7763  -12.2868   25.2605 C   0  0  0  0  0  0  0  0  0  0  0  0
    6.8955  -11.6307   25.7721 C   0  0  0  0  0  0  0  0  0  0  0  0
    8.0364  -12.3669   25.9897 C   0  0  0  0  0  0  0  0  0  0  0  0
    8.0473  -13.7138   25.7018 C   0  0  0  0  0  0  0  0  0  0  0  0
    6.9503  -14.3693   25.1978 C   0  0  0  0  0  0  0  0  0  0  0  0
   10.1628  -16.9256   24.9466 C   0  0  0  0  0  0  0  0  0  0  0  0
   11.2618  -17.0942   24.4001 O   0  0  0  0  0  0  0  0  0  0  0  0
   10.8821  -13.7951   29.8705 C   0  0  0  0  0  0  0  0  0  0  0  0
   11.4184  -14.9451   29.0658 C   0  0  0  0  0  0  0  0  0  0  0  0
   10.4499  -15.4441   28.0203 C   0  0  2  0  0  0  0  0  0  0  0  0
    9.1175  -15.6701   28.6681 C   0  0  0  0  0  0  0  0  0  0  0  0
   10.9660  -16.6822   27.3214 C   0  0  2  0  0  0  0  0  0  0  0  0
   10.0370  -17.1768   26.3398 N   0  0  0  0  0  0  0  0  0  0  0  0
   11.2898  -17.7491   28.3254 C   0  0  0  0  0  0  0  0  0  0  0  0
   10.4391  -18.6041   28.6806 O   0  0  0  0  0  0  0  0  0  0  0  0
   12.5497  -17.8159   28.8901 O   0  0  0  0  0  0  0  0  0  0  0  0
  2  3  1  0
  2  1  1  6
  3  4  1  0
  5  4  1  0
  6  5  1  0
  7  6  1  0
  8  2  1  0
  8  9  2  0
 10  8  1  0
 11 10  1  0
 11 22  1  0
 11 12  1  1
 13 12  1  0
 13 14  2  0
 15 14  1  0
 16 15  1  0
 17 16  2  0
 18 17  1  0
 19 18  2  0
 19 20  1  0
 20 21  2  0
 21 16  1  0
 21 13  1  0
 22 23  2  0
 22 29  1  0
 24 25  1  0
 25 26  1  0
 26 28  1  0
 26 27  1  1
 28 30  1  0
 28 29  1  6
 30 31  2  0
 30 32  1  0
M  END
$$$$
