KWI.pdb
     RDKit          3D

 32 33  0  0  1  0  0  0  0  0999 V2000
    8.6902  -16.7905   19.3689 N   0  0  0  0  0  0  0  0  0  0  0  0
    9.4986  -15.6344   19.7008 C   0  0  1  0  0  0  0  0  0  0  0  0
    8.8089  -14.4512   19.0069 C   0  0  0  0  0  0  0  0  0  0  0  0
    8.7829  -14.7814   17.5274 C   0  0  0  0  0  0  0  0  0  0  0  0
    8.2148  -13.6377   16.7155 C   0  0  0  0  0  0  0  0  0  0  0  0
    8.1034  -14.1018   15.2803 C   0  0  0  0  0  0  0  0  0  0  0  0
    7.4268  -13.0762   14.5262 N   0  0  0  0  0  0  0  0  0  0  0  0
    9.4390  -15.4025   21.1446 C   0  0  0  0  0  0  0  0  0  0  0  0
   10.1236  -14.4915   21.6600 O   0  0  0  0  0  0  0  0  0  0  0  0
    8.6091  -16.1929   22.0214 N   0  0  0  0  0  0  0  0  0  0  0  0
    8.3920  -15.8027   23.3788 C   0  0  1  0  0  0  0  0  0  0  0  0
    7.1475  -16.4142   23.9802 C   0  0  0  0  0  0  0  0  0  0  0  0
    6.4855  -15.4746   24.9093 C   0  0  0  0  0  0  0  0  0  0  0  0
    5.5020  -15.7363   25.8339 C   0  0  0  0  0  0  0  0  0  0  0  0
    5.1747  -14.6037   26.4773 N   0  0  0  0  0  0  0  0  0  0  0  0
    5.9092  -13.5798   26.0148 C   0  0  0  0  0  0  0  0  0  0  0  0
    5.9902  -12.2306   26.3045 C   0  0  0  0  0  0  0  0  0  0  0  0
    6.8786  -11.3884   25.6363 C   0  0  0  0  0  0  0  0  0  0  0  0
    7.6866  -11.9351   24.6671 C   0  0  0  0  0  0  0  0  0  0  0  0
    7.6011  -13.2802   24.3831 C   0  0  0  0  0  0  0  0  0  0  0  0
    6.7296  -14.1179   25.0355 C   0  0  0  0  0  0  0  0  0  0  0  0
    9.5698  -16.2256   24.1783 C   0  0  0  0  0  0  0  0  0  0  0  0
   10.3516  -17.0845   23.7470 O   0  0  0  0  0  0  0  0  0  0  0  0
   10.6139  -13.0844   28.7803 C   0  0  0  0  0  0  0  0  0  0  0  0
   10.7888  -13.8035   27.4726 C   0  0  0  0  0  0  0  0  0  0  0  0
   10.8901  -15.3022   27.6253 C   0  0  2  0  0  0  0  0  0  0  0  0
   12.0862  -15.6196   28.4706 C   0  0  0  0  0  0  0  0  0  0  0  0
   10.9321  -16.0021   26.2850 C   0  0  2  0  0  0  0  0  0  0  0  0
    9.8127  -15.6466   25.4533 N   0  0  0  0  0  0  0  0  0  0  0  0
   10.9954  -17.4888   26.4765 C   0  0  0  0  0  0  0  0  0  0  0  0
   12.0642  -18.1319   26.3181 O   0  0  0  0  0  0  0  0  0  0  0  0
    9.8626  -18.1942   26.8367 O   0  0  0  0  0  0  0  0  0  0  0  0
  2  3  1  0
  2  1  1  1
  3  4  1  0
  5  4  1  0
  6  5  1  0
  7  6  1  0
  8  2  1  0
  8  9  2  0
 10  8  1  0
 11 10  1  0
 11 22  1  0
 11 12  1  1
 13 12  1  0
 13 14  2  0
 15 14  1  0
 16 15  1  0
 17 16  2  0
 18 17  1  0
 19 18  2  0
 19 20  1  0
 20 21  2  0
 21 16  1  0
 21 13  1  0
 22 23  2  0
 22 29  1  0
 24 25  1  0
 25 26  1  0
 26 28  1  0
 26 27  1  6
 28 30  1  0
 28 29  1  6
 30 31  2  0
 30 32  1  0
M  END
$$$$
