KWI.pdb
     RDKit          3D

 32 33  0  0  1  0  0  0  0  0999 V2000
   11.6131  -18.2186   19.4535 N   0  0  0  0  0  0  0  0  0  0  0  0
   10.7580  -18.6614   20.5366 C   0  0  1  0  0  0  0  0  0  0  0  0
   11.5796  -19.7184   21.2885 C   0  0  0  0  0  0  0  0  0  0  0  0
   11.5908  -20.9536   20.4095 C   0  0  0  0  0  0  0  0  0  0  0  0
   12.3069  -22.1044   21.0822 C   0  0  0  0  0  0  0  0  0  0  0  0
   12.2357  -23.2972   20.1549 C   0  0  0  0  0  0  0  0  0  0  0  0
   12.9985  -24.3704   20.7417 N   0  0  0  0  0  0  0  0  0  0  0  0
   10.5217  -17.5444   21.4522 C   0  0  0  0  0  0  0  0  0  0  0  0
   11.4220  -16.6997   21.6528 O   0  0  0  0  0  0  0  0  0  0  0  0
    9.2713  -17.3676   22.1503 N   0  0  0  0  0  0  0  0  0  0  0  0
    9.0754  -16.2684   23.0420 C   0  0  1  0  0  0  0  0  0  0  0  0
    7.6780  -15.6958   22.9800 C   0  0  0  0  0  0  0  0  0  0  0  0
    7.6343  -14.3302   23.5433 C   0  0  0  0  0  0  0  0  0  0  0  0
    8.2448  -13.1911   23.0737 C   0  0  0  0  0  0  0  0  0  0  0  0
    7.9508  -12.1569   23.8787 N   0  0  0  0  0  0  0  0  0  0  0  0
    7.1572  -12.5626   24.8824 C   0  0  0  0  0  0  0  0  0  0  0  0
    6.5657  -11.9430   25.9673 C   0  0  0  0  0  0  0  0  0  0  0  0
    5.7673  -12.6463   26.8688 C   0  0  0  0  0  0  0  0  0  0  0  0
    5.5761  -13.9911   26.6543 C   0  0  0  0  0  0  0  0  0  0  0  0
    6.1682  -14.6026   25.5715 C   0  0  0  0  0  0  0  0  0  0  0  0
    6.9562  -13.9189   24.6779 C   0  0  0  0  0  0  0  0  0  0  0  0
    9.3410  -16.7388   24.4253 C   0  0  0  0  0  0  0  0  0  0  0  0
    9.0934  -17.9073   24.7545 O   0  0  0  0  0  0  0  0  0  0  0  0
   10.3505  -12.7042   28.2061 C   0  0  0  0  0  0  0  0  0  0  0  0
   10.5866  -13.8293   27.2385 C   0  0  0  0  0  0  0  0  0  0  0  0
   10.0702  -15.1591   27.7331 C   0  0  2  0  0  0  0  0  0  0  0  0
   10.7236  -15.4708   29.0453 C   0  0  0  0  0  0  0  0  0  0  0  0
   10.2774  -16.2569   26.7133 C   0  0  2  0  0  0  0  0  0  0  0  0
    9.8843  -15.8483   25.3905 N   0  0  0  0  0  0  0  0  0  0  0  0
    9.5367  -17.4951   27.1245 C   0  0  0  0  0  0  0  0  0  0  0  0
    8.2874  -17.5862   27.0155 O   0  0  0  0  0  0  0  0  0  0  0  0
   10.2224  -18.5789   27.6400 O   0  0  0  0  0  0  0  0  0  0  0  0
  2  3  1  0
  2  1  1  6
  3  4  1  0
  5  4  1  0
  6  5  1  0
  7  6  1  0
  8  2  1  0
  8  9  2  0
 10  8  1  0
 11 10  1  0
 11 22  1  0
 11 12  1  1
 13 12  1  0
 13 14  2  0
 15 14  1  0
 16 15  1  0
 17 16  2  0
 18 17  1  0
 19 18  2  0
 19 20  1  0
 20 21  2  0
 21 16  1  0
 21 13  1  0
 22 23  2  0
 22 29  1  0
 24 25  1  0
 25 26  1  0
 26 28  1  0
 26 27  1  1
 28 30  1  0
 28 29  1  6
 30 31  2  0
 30 32  1  0
M  END
$$$$
