KWI.pdb
     RDKit          3D

 32 33  0  0  1  0  0  0  0  0999 V2000
   10.3000  -17.5143   19.1226 N   0  0  0  0  0  0  0  0  0  0  0  0
   11.0929  -17.8000   20.3016 C   0  0  1  0  0  0  0  0  0  0  0  0
   12.5249  -17.3894   19.9300 C   0  0  0  0  0  0  0  0  0  0  0  0
   13.0220  -18.4256   18.9413 C   0  0  0  0  0  0  0  0  0  0  0  0
   14.4979  -18.2534   18.6549 C   0  0  0  0  0  0  0  0  0  0  0  0
   14.9238  -19.3770   17.7363 C   0  0  0  0  0  0  0  0  0  0  0  0
   16.2825  -19.1306   17.3227 N   0  0  0  0  0  0  0  0  0  0  0  0
   10.6518  -16.9392   21.3999 C   0  0  0  0  0  0  0  0  0  0  0  0
   10.8906  -15.7119   21.3664 O   0  0  0  0  0  0  0  0  0  0  0  0
    9.9386  -17.4506   22.5452 N   0  0  0  0  0  0  0  0  0  0  0  0
    9.4642  -16.5735   23.5687 C   0  0  1  0  0  0  0  0  0  0  0  0
    7.9594  -16.5854   23.7099 C   0  0  0  0  0  0  0  0  0  0  0  0
    7.3973  -15.2272   23.5564 C   0  0  0  0  0  0  0  0  0  0  0  0
    7.1227  -14.5410   22.3969 C   0  0  0  0  0  0  0  0  0  0  0  0
    6.6185  -13.3326   22.6963 N   0  0  0  0  0  0  0  0  0  0  0  0
    6.5432  -13.1794   24.0277 C   0  0  0  0  0  0  0  0  0  0  0  0
    6.1163  -12.1690   24.8689 C   0  0  0  0  0  0  0  0  0  0  0  0
    6.1591  -12.3021   26.2565 C   0  0  0  0  0  0  0  0  0  0  0  0
    6.6425  -13.4777   26.7812 C   0  0  0  0  0  0  0  0  0  0  0  0
    7.0664  -14.4807   25.9377 C   0  0  0  0  0  0  0  0  0  0  0  0
    7.0282  -14.3595   24.5699 C   0  0  0  0  0  0  0  0  0  0  0  0
   10.0711  -16.9919   24.8578 C   0  0  0  0  0  0  0  0  0  0  0  0
   10.6657  -18.0745   24.9551 O   0  0  0  0  0  0  0  0  0  0  0  0
   10.3943  -12.9309   28.7691 C   0  0  0  0  0  0  0  0  0  0  0  0
   10.7069  -14.0396   27.8044 C   0  0  0  0  0  0  0  0  0  0  0  0
   10.2960  -15.4022   28.3086 C   0  0  2  0  0  0  0  0  0  0  0  0
   11.0085  -15.6724   29.5991 C   0  0  0  0  0  0  0  0  0  0  0  0
   10.5450  -16.4813   27.2783 C   0  0  2  0  0  0  0  0  0  0  0  0
    9.9749  -16.1503   25.9990 N   0  0  0  0  0  0  0  0  0  0  0  0
   10.0164  -17.7979   27.7662 C   0  0  0  0  0  0  0  0  0  0  0  0
    8.8026  -18.1063   27.6549 O   0  0  0  0  0  0  0  0  0  0  0  0
   10.8657  -18.7141   28.3578 O   0  0  0  0  0  0  0  0  0  0  0  0
  2  3  1  0
  2  1  1  6
  3  4  1  0
  5  4  1  0
  6  5  1  0
  7  6  1  0
  8  2  1  0
  8  9  2  0
 10  8  1  0
 11 10  1  0
 11 22  1  0
 11 12  1  1
 13 12  1  0
 13 14  2  0
 15 14  1  0
 16 15  1  0
 17 16  2  0
 18 17  1  0
 19 18  2  0
 19 20  1  0
 20 21  2  0
 21 16  1  0
 21 13  1  0
 22 23  2  0
 22 29  1  0
 24 25  1  0
 25 26  1  0
 26 28  1  0
 26 27  1  1
 28 30  1  0
 28 29  1  6
 30 31  2  0
 30 32  1  0
M  END
$$$$
