KWI.pdb
     RDKit          3D

 32 33  0  0  1  0  0  0  0  0999 V2000
    8.5793  -16.3174   19.6105 N   0  0  0  0  0  0  0  0  0  0  0  0
    9.2167  -15.0587   19.9419 C   0  0  1  0  0  0  0  0  0  0  0  0
    8.3856  -13.9874   19.2215 C   0  0  0  0  0  0  0  0  0  0  0  0
    8.0867  -14.5375   17.8408 C   0  0  0  0  0  0  0  0  0  0  0  0
    8.8870  -13.8210   16.7749 C   0  0  0  0  0  0  0  0  0  0  0  0
    8.4797  -14.3879   15.4332 C   0  0  0  0  0  0  0  0  0  0  0  0
    9.2287  -13.7041   14.4088 N   0  0  0  0  0  0  0  0  0  0  0  0
    9.0988  -14.8227   21.3815 C   0  0  0  0  0  0  0  0  0  0  0  0
    9.5616  -13.7745   21.8828 O   0  0  0  0  0  0  0  0  0  0  0  0
    8.4598  -15.7632   22.2698 N   0  0  0  0  0  0  0  0  0  0  0  0
    8.3823  -15.5129   23.6745 C   0  0  1  0  0  0  0  0  0  0  0  0
    7.2828  -16.2941   24.3567 C   0  0  0  0  0  0  0  0  0  0  0  0
    6.3452  -15.3943   25.0606 C   0  0  0  0  0  0  0  0  0  0  0  0
    5.1323  -15.6998   25.6316 C   0  0  0  0  0  0  0  0  0  0  0  0
    4.5960  -14.5929   26.1713 N   0  0  0  0  0  0  0  0  0  0  0  0
    5.4118  -13.5438   25.9823 C   0  0  0  0  0  0  0  0  0  0  0  0
    5.3672  -12.2032   26.3161 C   0  0  0  0  0  0  0  0  0  0  0  0
    6.3969  -11.3270   25.9742 C   0  0  0  0  0  0  0  0  0  0  0  0
    7.4761  -11.8307   25.2867 C   0  0  0  0  0  0  0  0  0  0  0  0
    7.5146  -13.1674   24.9570 C   0  0  0  0  0  0  0  0  0  0  0  0
    6.5057  -14.0385   25.2892 C   0  0  0  0  0  0  0  0  0  0  0  0
    9.6845  -15.8824   24.2853 C   0  0  0  0  0  0  0  0  0  0  0  0
   10.5408  -16.4912   23.6288 O   0  0  0  0  0  0  0  0  0  0  0  0
   10.9359  -13.3798   29.1474 C   0  0  0  0  0  0  0  0  0  0  0  0
   11.0530  -13.9596   27.7662 C   0  0  0  0  0  0  0  0  0  0  0  0
   11.1796  -15.4642   27.7599 C   0  0  2  0  0  0  0  0  0  0  0  0
   12.4489  -15.8428   28.4610 C   0  0  0  0  0  0  0  0  0  0  0  0
   11.1076  -16.0284   26.3584 C   0  0  2  0  0  0  0  0  0  0  0  0
    9.9624  -15.5400   25.6364 N   0  0  0  0  0  0  0  0  0  0  0  0
   11.1034  -17.5281   26.4012 C   0  0  0  0  0  0  0  0  0  0  0  0
   12.1308  -18.2011   26.1319 O   0  0  0  0  0  0  0  0  0  0  0  0
    9.9521  -18.2126   26.7427 O   0  0  0  0  0  0  0  0  0  0  0  0
  2  3  1  0
  2  1  1  1
  3  4  1  0
  5  4  1  0
  6  5  1  0
  7  6  1  0
  8  2  1  0
  8  9  2  0
 10  8  1  0
 11 10  1  0
 11 22  1  0
 11 12  1  1
 13 12  1  0
 13 14  2  0
 15 14  1  0
 16 15  1  0
 17 16  2  0
 18 17  1  0
 19 18  2  0
 19 20  1  0
 20 21  2  0
 21 16  1  0
 21 13  1  0
 22 23  2  0
 22 29  1  0
 24 25  1  0
 25 26  1  0
 26 28  1  0
 26 27  1  6
 28 30  1  0
 28 29  1  1
 30 31  2  0
 30 32  1  0
M  END
$$$$
