KWI.pdb
     RDKit          3D

 32 33  0  0  1  0  0  0  0  0999 V2000
   10.4500  -18.5285   19.9906 N   0  0  0  0  0  0  0  0  0  0  0  0
   11.2220  -17.3205   20.2031 C   0  0  1  0  0  0  0  0  0  0  0  0
   11.0406  -16.4986   18.9191 C   0  0  0  0  0  0  0  0  0  0  0  0
   11.6678  -17.3096   17.8022 C   0  0  0  0  0  0  0  0  0  0  0  0
   11.5660  -16.5922   16.4736 C   0  0  0  0  0  0  0  0  0  0  0  0
   12.2980  -17.4233   15.4435 C   0  0  0  0  0  0  0  0  0  0  0  0
   12.2075  -16.7484   14.1730 N   0  0  0  0  0  0  0  0  0  0  0  0
   10.6343  -16.5605   21.3071 C   0  0  0  0  0  0  0  0  0  0  0  0
   11.1209  -15.4557   21.6340 O   0  0  0  0  0  0  0  0  0  0  0  0
    9.4946  -17.0362   22.0533 N   0  0  0  0  0  0  0  0  0  0  0  0
    8.9537  -16.2755   23.1353 C   0  0  1  0  0  0  0  0  0  0  0  0
    7.4573  -16.4311   23.2804 C   0  0  0  0  0  0  0  0  0  0  0  0
    6.9474  -15.6506   24.4272 C   0  0  0  0  0  0  0  0  0  0  0  0
    6.4585  -16.1124   25.6266 C   0  0  0  0  0  0  0  0  0  0  0  0
    6.0982  -15.0730   26.3972 N   0  0  0  0  0  0  0  0  0  0  0  0
    6.3291  -13.9178   25.7537 C   0  0  0  0  0  0  0  0  0  0  0  0
    6.1543  -12.5811   26.0597 C   0  0  0  0  0  0  0  0  0  0  0  0
    6.4978  -11.5715   25.1610 C   0  0  0  0  0  0  0  0  0  0  0  0
    7.0228  -11.9371   23.9438 C   0  0  0  0  0  0  0  0  0  0  0  0
    7.1945  -13.2707   23.6450 C   0  0  0  0  0  0  0  0  0  0  0  0
    6.8594  -14.2725   24.5231 C   0  0  0  0  0  0  0  0  0  0  0  0
    9.6075  -16.7235   24.3912 C   0  0  0  0  0  0  0  0  0  0  0  0
   10.0182  -17.8862   24.5104 O   0  0  0  0  0  0  0  0  0  0  0  0
   10.5875  -12.5938   28.1798 C   0  0  0  0  0  0  0  0  0  0  0  0
   10.8271  -13.7152   27.2089 C   0  0  0  0  0  0  0  0  0  0  0  0
   10.3682  -15.0582   27.7242 C   0  0  2  0  0  0  0  0  0  0  0  0
   11.1343  -15.3822   28.9708 C   0  0  0  0  0  0  0  0  0  0  0  0
   10.4988  -16.1380   26.6730 C   0  0  2  0  0  0  0  0  0  0  0  0
    9.7689  -15.8180   25.4747 N   0  0  0  0  0  0  0  0  0  0  0  0
   10.0511  -17.4588   27.2261 C   0  0  0  0  0  0  0  0  0  0  0  0
   10.8696  -18.2976   27.6816 O   0  0  0  0  0  0  0  0  0  0  0  0
    8.7086  -17.7871   27.2468 O   0  0  0  0  0  0  0  0  0  0  0  0
  2  3  1  0
  2  1  1  6
  3  4  1  0
  5  4  1  0
  6  5  1  0
  7  6  1  0
  8  2  1  0
  8  9  2  0
 10  8  1  0
 11 10  1  0
 11 22  1  0
 11 12  1  1
 13 12  1  0
 13 14  2  0
 15 14  1  0
 16 15  1  0
 17 16  2  0
 18 17  1  0
 19 18  2  0
 19 20  1  0
 20 21  2  0
 21 16  1  0
 21 13  1  0
 22 23  2  0
 22 29  1  0
 24 25  1  0
 25 26  1  0
 26 28  1  0
 26 27  1  1
 28 30  1  0
 28 29  1  6
 30 31  2  0
 30 32  1  0
M  END
$$$$
