KWI.pdb
     RDKit          3D

 32 33  0  0  1  0  0  0  0  0999 V2000
    8.9914  -16.7618   19.8829 N   0  0  0  0  0  0  0  0  0  0  0  0
    9.6637  -15.5238   20.2231 C   0  0  1  0  0  0  0  0  0  0  0  0
    8.8443  -14.4217   19.5365 C   0  0  0  0  0  0  0  0  0  0  0  0
    8.7743  -14.7949   18.0688 C   0  0  0  0  0  0  0  0  0  0  0  0
    8.0061  -13.7629   17.2720 C   0  0  0  0  0  0  0  0  0  0  0  0
    8.0322  -14.1879   15.8206 C   0  0  0  0  0  0  0  0  0  0  0  0
    7.3710  -13.1713   15.0413 N   0  0  0  0  0  0  0  0  0  0  0  0
    9.5780  -15.3098   21.6684 C   0  0  0  0  0  0  0  0  0  0  0  0
   10.1030  -14.2977   22.1824 O   0  0  0  0  0  0  0  0  0  0  0  0
    8.9016  -16.2320   22.5482 N   0  0  0  0  0  0  0  0  0  0  0  0
    8.6698  -15.9051   23.9197 C   0  0  1  0  0  0  0  0  0  0  0  0
    7.4385  -16.5719   24.4888 C   0  0  0  0  0  0  0  0  0  0  0  0
    6.5082  -15.5768   25.0620 C   0  0  0  0  0  0  0  0  0  0  0  0
    5.2555  -15.7818   25.5905 C   0  0  0  0  0  0  0  0  0  0  0  0
    4.7433  -14.6112   26.0046 N   0  0  0  0  0  0  0  0  0  0  0  0
    5.6142  -13.6167   25.7717 C   0  0  0  0  0  0  0  0  0  0  0  0
    5.6135  -12.2513   25.9878 C   0  0  0  0  0  0  0  0  0  0  0  0
    6.6977  -11.4509   25.6290 C   0  0  0  0  0  0  0  0  0  0  0  0
    7.7863  -12.0560   25.0462 C   0  0  0  0  0  0  0  0  0  0  0  0
    7.7809  -13.4168   24.8335 C   0  0  0  0  0  0  0  0  0  0  0  0
    6.7182  -14.2139   25.1833 C   0  0  0  0  0  0  0  0  0  0  0  0
    9.8547  -16.3323   24.7063 C   0  0  0  0  0  0  0  0  0  0  0  0
   10.7238  -17.0546   24.1987 O   0  0  0  0  0  0  0  0  0  0  0  0
   11.2056  -13.2619   29.1439 C   0  0  0  0  0  0  0  0  0  0  0  0
   11.1871  -14.1109   27.9044 C   0  0  0  0  0  0  0  0  0  0  0  0
   11.1499  -15.5918   28.1965 C   0  0  2  0  0  0  0  0  0  0  0  0
   12.3623  -15.9540   28.9996 C   0  0  0  0  0  0  0  0  0  0  0  0
   11.0337  -16.4116   26.9307 C   0  0  2  0  0  0  0  0  0  0  0  0
   10.0037  -15.9150   26.0567 N   0  0  0  0  0  0  0  0  0  0  0  0
   10.7908  -17.8537   27.2657 C   0  0  0  0  0  0  0  0  0  0  0  0
    9.6343  -18.2978   27.4804 O   0  0  0  0  0  0  0  0  0  0  0  0
   11.8496  -18.7386   27.3468 O   0  0  0  0  0  0  0  0  0  0  0  0
  2  3  1  0
  2  1  1  1
  3  4  1  0
  5  4  1  0
  6  5  1  0
  7  6  1  0
  8  2  1  0
  8  9  2  0
 10  8  1  0
 11 10  1  0
 11 22  1  0
 11 12  1  1
 13 12  1  0
 13 14  2  0
 15 14  1  0
 16 15  1  0
 17 16  2  0
 18 17  1  0
 19 18  2  0
 19 20  1  0
 20 21  2  0
 21 16  1  0
 21 13  1  0
 22 23  2  0
 22 29  1  0
 24 25  1  0
 25 26  1  0
 26 28  1  0
 26 27  1  6
 28 30  1  0
 28 29  1  6
 30 31  2  0
 30 32  1  0
M  END
$$$$
