KWI.pdb
     RDKit          3D

 32 33  0  0  1  0  0  0  0  0999 V2000
    8.5836  -19.5404   21.3372 N   0  0  0  0  0  0  0  0  0  0  0  0
    9.9343  -19.3033   21.8060 C   0  0  1  0  0  0  0  0  0  0  0  0
   10.8430  -19.7567   20.6544 C   0  0  0  0  0  0  0  0  0  0  0  0
   10.6271  -21.2497   20.5041 C   0  0  0  0  0  0  0  0  0  0  0  0
   11.4180  -21.8084   19.3412 C   0  0  0  0  0  0  0  0  0  0  0  0
   11.0428  -23.2654   19.1859 C   0  0  0  0  0  0  0  0  0  0  0  0
   11.7181  -23.7832   18.0223 N   0  0  0  0  0  0  0  0  0  0  0  0
   10.1343  -17.8658   21.9938 C   0  0  0  0  0  0  0  0  0  0  0  0
   10.9384  -17.2460   21.2634 O   0  0  0  0  0  0  0  0  0  0  0  0
    9.4321  -17.1126   23.0046 N   0  0  0  0  0  0  0  0  0  0  0  0
    9.6125  -15.7005   23.1284 C   0  0  1  0  0  0  0  0  0  0  0  0
    8.3637  -14.9123   22.8063 C   0  0  0  0  0  0  0  0  0  0  0  0
    7.4509  -14.8587   23.9675 C   0  0  0  0  0  0  0  0  0  0  0  0
    6.6898  -15.8700   24.5047 C   0  0  0  0  0  0  0  0  0  0  0  0
    5.9988  -15.4040   25.5579 N   0  0  0  0  0  0  0  0  0  0  0  0
    6.2699  -14.1035   25.7506 C   0  0  0  0  0  0  0  0  0  0  0  0
    5.8560  -13.1468   26.6585 C   0  0  0  0  0  0  0  0  0  0  0  0
    6.3261  -11.8348   26.6077 C   0  0  0  0  0  0  0  0  0  0  0  0
    7.2247  -11.5051   25.6204 C   0  0  0  0  0  0  0  0  0  0  0  0
    7.6332  -12.4629   24.7188 C   0  0  0  0  0  0  0  0  0  0  0  0
    7.1762  -13.7577   24.7603 C   0  0  0  0  0  0  0  0  0  0  0  0
   10.0206  -15.4046   24.5252 C   0  0  0  0  0  0  0  0  0  0  0  0
   10.3186  -14.2514   24.8662 O   0  0  0  0  0  0  0  0  0  0  0  0
    9.9912  -12.6772   27.7710 C   0  0  0  0  0  0  0  0  0  0  0  0
   10.4914  -13.8372   26.9574 C   0  0  0  0  0  0  0  0  0  0  0  0
   10.1868  -15.1782   27.5811 C   0  0  2  0  0  0  0  0  0  0  0  0
   10.7072  -15.1842   28.9865 C   0  0  0  0  0  0  0  0  0  0  0  0
   10.7418  -16.3197   26.7583 C   0  0  2  0  0  0  0  0  0  0  0  0
   10.0743  -16.4471   25.4897 N   0  0  0  0  0  0  0  0  0  0  0  0
   10.6590  -17.6043   27.5290 C   0  0  0  0  0  0  0  0  0  0  0  0
   11.3673  -17.8126   28.5468 O   0  0  0  0  0  0  0  0  0  0  0  0
    9.7891  -18.6017   27.1303 O   0  0  0  0  0  0  0  0  0  0  0  0
  2  3  1  0
  2  1  1  6
  3  4  1  0
  5  4  1  0
  6  5  1  0
  7  6  1  0
  8  2  1  0
  8  9  2  0
 10  8  1  0
 11 10  1  0
 11 22  1  0
 11 12  1  1
 13 12  1  0
 13 14  2  0
 15 14  1  0
 16 15  1  0
 17 16  2  0
 18 17  1  0
 19 18  2  0
 19 20  1  0
 20 21  2  0
 21 16  1  0
 21 13  1  0
 22 23  2  0
 22 29  1  0
 24 25  1  0
 25 26  1  0
 26 28  1  0
 26 27  1  1
 28 30  1  0
 28 29  1  6
 30 31  2  0
 30 32  1  0
M  END
$$$$
