HMW.pdb
     RDKit          3D

 33 35  0  0  1  0  0  0  0  0999 V2000
    9.5392  -18.9259   18.9979 N   0  0  0  0  0  0  0  0  0  0  0  0
   10.6042  -17.9764   19.0454 C   0  0  1  0  0  0  0  0  0  0  0  0
   11.0062  -17.4375   17.7022 C   0  0  0  0  0  0  0  0  0  0  0  0
   11.3585  -18.5465   16.7745 C   0  0  0  0  0  0  0  0  0  0  0  0
   12.6364  -18.9723   16.5096 C   0  0  0  0  0  0  0  0  0  0  0  0
   12.5563  -19.9894   15.6254 N   0  0  0  0  0  0  0  0  0  0  0  0
   11.2710  -20.1987   15.3419 C   0  0  0  0  0  0  0  0  0  0  0  0
   10.5164  -19.3233   16.0368 N   0  0  0  0  0  0  0  0  0  0  0  0
   10.2969  -16.8253   19.9507 C   0  0  0  0  0  0  0  0  0  0  0  0
   11.2069  -15.9678   20.1834 O   0  0  0  0  0  0  0  0  0  0  0  0
    7.6756  -11.9700   21.1211 C   0  0  0  0  0  0  0  0  0  0  0  0
    7.7789  -13.2443   19.8369 S   0  0  0  0  0  0  0  0  0  0  0  0
    6.9046  -14.7229   20.3540 C   0  0  0  0  0  0  0  0  0  0  0  0
    7.4353  -15.1474   21.7088 C   0  0  0  0  0  0  0  0  0  0  0  0
    8.8678  -15.6151   21.5634 C   0  0  2  0  0  0  0  0  0  0  0  0
    9.0445  -16.6250   20.5733 N   0  0  0  0  0  0  0  0  0  0  0  0
    9.3108  -16.0663   22.9063 C   0  0  0  0  0  0  0  0  0  0  0  0
    9.1901  -17.2980   23.1424 O   0  0  0  0  0  0  0  0  0  0  0  0
    9.8386  -15.1741   23.8720 N   0  0  0  0  0  0  0  0  0  0  0  0
   10.1977  -15.7018   25.1536 C   0  0  1  0  0  0  0  0  0  0  0  0
    9.0407  -16.4081   25.8302 C   0  0  0  0  0  0  0  0  0  0  0  0
    7.8749  -15.4945   25.8263 C   0  0  0  0  0  0  0  0  0  0  0  0
    6.5629  -15.7754   25.4446 C   0  0  0  0  0  0  0  0  0  0  0  0
    5.8037  -14.6726   25.5826 N   0  0  0  0  0  0  0  0  0  0  0  0
    6.5573  -13.6530   26.0452 C   0  0  0  0  0  0  0  0  0  0  0  0
    6.3218  -12.3343   26.3642 C   0  0  0  0  0  0  0  0  0  0  0  0
    7.3111  -11.4896   26.8306 C   0  0  0  0  0  0  0  0  0  0  0  0
    8.5804  -12.0172   26.9731 C   0  0  0  0  0  0  0  0  0  0  0  0
    8.8578  -13.3316   26.6648 C   0  0  0  0  0  0  0  0  0  0  0  0
    7.8355  -14.1445   26.2000 C   0  0  0  0  0  0  0  0  0  0  0  0
   11.3112  -16.6533   24.9646 C   0  0  0  0  0  0  0  0  0  0  0  0
   11.9371  -17.2093   26.0565 O   0  0  0  0  0  0  0  0  0  0  0  0
   11.6923  -16.9601   23.8200 O   0  0  0  0  0  0  0  0  0  0  0  0
  2  1  1  6
  2  3  1  0
  3  4  1  0
  4  8  1  0
  5  4  2  0
  5  6  1  0
  6  7  1  0
  8  7  2  0
  9  2  1  0
  9 10  2  0
 11 12  1  0
 12 13  1  0
 13 14  1  0
 15 16  1  0
 15 14  1  1
 16  9  1  0
 17 15  1  0
 18 17  2  0
 19 17  1  0
 20 19  1  0
 20 21  1  6
 21 22  1  0
 22 30  1  0
 23 24  1  0
 23 22  2  0
 24 25  1  0
 25 30  2  0
 25 26  1  0
 26 27  2  0
 27 28  1  0
 29 28  2  0
 30 29  1  0
 31 32  1  0
 31 20  1  0
 33 31  2  0
M  END
$$$$
