HMW.pdb
     RDKit          3D

 33 35  0  0  1  0  0  0  0  0999 V2000
   13.1297  -17.3912   18.3145 N   0  0  0  0  0  0  0  0  0  0  0  0
   12.6887  -18.1338   19.4512 C   0  0  1  0  0  0  0  0  0  0  0  0
   13.7944  -18.8156   20.2054 C   0  0  0  0  0  0  0  0  0  0  0  0
   14.2769  -20.0122   19.4640 C   0  0  0  0  0  0  0  0  0  0  0  0
   15.1313  -19.9785   18.3900 C   0  0  0  0  0  0  0  0  0  0  0  0
   15.3372  -21.2507   17.9878 N   0  0  0  0  0  0  0  0  0  0  0  0
   14.6366  -22.0603   18.7813 C   0  0  0  0  0  0  0  0  0  0  0  0
   13.9769  -21.3209   19.6962 N   0  0  0  0  0  0  0  0  0  0  0  0
   11.9044  -17.2922   20.4081 C   0  0  0  0  0  0  0  0  0  0  0  0
   12.4809  -16.3125   20.9784 O   0  0  0  0  0  0  0  0  0  0  0  0
    5.5657  -15.3209   20.2484 C   0  0  0  0  0  0  0  0  0  0  0  0
    5.9079  -15.6670   21.9939 S   0  0  0  0  0  0  0  0  0  0  0  0
    7.6759  -15.6523   22.2975 C   0  0  0  0  0  0  0  0  0  0  0  0
    8.3306  -16.6662   21.3806 C   0  0  0  0  0  0  0  0  0  0  0  0
    9.8312  -16.6258   21.5766 C   0  0  2  0  0  0  0  0  0  0  0  0
   10.5459  -17.5173   20.7248 N   0  0  0  0  0  0  0  0  0  0  0  0
   10.0845  -16.9026   23.0128 C   0  0  0  0  0  0  0  0  0  0  0  0
   10.6196  -18.0127   23.2749 O   0  0  0  0  0  0  0  0  0  0  0  0
    9.7483  -15.9812   24.0352 N   0  0  0  0  0  0  0  0  0  0  0  0
   10.2320  -16.2354   25.3586 C   0  0  1  0  0  0  0  0  0  0  0  0
    9.9565  -15.0834   26.3034 C   0  0  0  0  0  0  0  0  0  0  0  0
    8.5023  -14.8039   26.2805 C   0  0  0  0  0  0  0  0  0  0  0  0
    7.4545  -15.7094   26.1113 C   0  0  0  0  0  0  0  0  0  0  0  0
    6.2788  -15.0552   26.1463 N   0  0  0  0  0  0  0  0  0  0  0  0
    6.4942  -13.7361   26.3336 C   0  0  0  0  0  0  0  0  0  0  0  0
    5.6898  -12.6241   26.4464 C   0  0  0  0  0  0  0  0  0  0  0  0
    6.1949  -11.3524   26.6396 C   0  0  0  0  0  0  0  0  0  0  0  0
    7.5682  -11.2207   26.7192 C   0  0  0  0  0  0  0  0  0  0  0  0
    8.4081  -12.3081   26.6112 C   0  0  0  0  0  0  0  0  0  0  0  0
    7.8593  -13.5663   26.4180 C   0  0  0  0  0  0  0  0  0  0  0  0
    9.5703  -17.4548   25.8648 C   0  0  0  0  0  0  0  0  0  0  0  0
   10.0131  -18.0502   27.0236 O   0  0  0  0  0  0  0  0  0  0  0  0
    8.6094  -17.9533   25.2502 O   0  0  0  0  0  0  0  0  0  0  0  0
  2  1  1  6
  2  3  1  0
  3  4  1  0
  4  8  1  0
  5  4  2  0
  5  6  1  0
  6  7  1  0
  8  7  2  0
  9  2  1  0
  9 10  2  0
 11 12  1  0
 12 13  1  0
 13 14  1  0
 15 16  1  0
 15 14  1  1
 16  9  1  0
 17 15  1  0
 18 17  2  0
 19 17  1  0
 20 19  1  0
 20 21  1  1
 21 22  1  0
 22 30  1  0
 23 24  1  0
 23 22  2  0
 24 25  1  0
 25 30  2  0
 25 26  1  0
 26 27  2  0
 27 28  1  0
 29 28  2  0
 30 29  1  0
 31 32  1  0
 31 20  1  0
 33 31  2  0
M  END
$$$$
