HMW.pdb
     RDKit          3D

 33 35  0  0  1  0  0  0  0  0999 V2000
    8.5311  -17.4246   19.2930 N   0  0  0  0  0  0  0  0  0  0  0  0
    9.8731  -17.6976   19.6964 C   0  0  1  0  0  0  0  0  0  0  0  0
   10.8991  -17.4372   18.6307 C   0  0  0  0  0  0  0  0  0  0  0  0
   10.4547  -17.9956   17.3249 C   0  0  0  0  0  0  0  0  0  0  0  0
   10.2733  -19.3310   17.0631 C   0  0  0  0  0  0  0  0  0  0  0  0
    9.8700  -19.4476   15.7799 N   0  0  0  0  0  0  0  0  0  0  0  0
    9.7989  -18.2270   15.2498 C   0  0  0  0  0  0  0  0  0  0  0  0
   10.1539  -17.3187   16.1813 N   0  0  0  0  0  0  0  0  0  0  0  0
   10.2593  -16.9409   20.9281 C   0  0  0  0  0  0  0  0  0  0  0  0
   11.4627  -17.0039   21.3348 O   0  0  0  0  0  0  0  0  0  0  0  0
    5.7956  -13.8751   26.2297 C   0  0  0  0  0  0  0  0  0  0  0  0
    7.1817  -13.4175   25.1559 S   0  0  0  0  0  0  0  0  0  0  0  0
    7.7480  -14.8438   24.2270 C   0  0  0  0  0  0  0  0  0  0  0  0
    8.9458  -14.4318   23.3945 C   0  0  0  0  0  0  0  0  0  0  0  0
    9.7145  -15.6666   22.9743 C   0  0  2  0  0  0  0  0  0  0  0  0
    9.3626  -16.1495   21.6804 N   0  0  0  0  0  0  0  0  0  0  0  0
    9.4970  -16.6877   24.0295 C   0  0  0  0  0  0  0  0  0  0  0  0
    8.6606  -17.5905   23.7598 O   0  0  0  0  0  0  0  0  0  0  0  0
   10.1830  -16.6580   25.2687 N   0  0  0  0  0  0  0  0  0  0  0  0
   10.8821  -17.8374   25.6816 C   0  0  1  0  0  0  0  0  0  0  0  0
   12.0681  -17.5222   26.5702 C   0  0  0  0  0  0  0  0  0  0  0  0
   11.5547  -17.0448   27.8748 C   0  0  0  0  0  0  0  0  0  0  0  0
   11.4305  -17.7616   29.0651 C   0  0  0  0  0  0  0  0  0  0  0  0
   10.9154  -16.9674   30.0220 N   0  0  0  0  0  0  0  0  0  0  0  0
   10.6862  -15.7357   29.5202 C   0  0  0  0  0  0  0  0  0  0  0  0
   10.1837  -14.5567   30.0240 C   0  0  0  0  0  0  0  0  0  0  0  0
   10.0550  -13.4120   29.2605 C   0  0  0  0  0  0  0  0  0  0  0  0
   10.4550  -13.4823   27.9396 C   0  0  0  0  0  0  0  0  0  0  0  0
   10.9629  -14.6430   27.3969 C   0  0  0  0  0  0  0  0  0  0  0  0
   11.0751  -15.7684   28.1984 C   0  0  0  0  0  0  0  0  0  0  0  0
    9.9351  -18.7017   26.4145 C   0  0  0  0  0  0  0  0  0  0  0  0
   10.3355  -19.9390   26.8638 O   0  0  0  0  0  0  0  0  0  0  0  0
    8.7704  -18.3202   26.6318 O   0  0  0  0  0  0  0  0  0  0  0  0
  2  1  1  6
  2  3  1  0
  3  4  1  0
  4  8  1  0
  5  4  2  0
  5  6  1  0
  6  7  1  0
  8  7  2  0
  9  2  1  0
  9 10  2  0
 11 12  1  0
 12 13  1  0
 13 14  1  0
 15 16  1  0
 15 14  1  1
 16  9  1  0
 17 15  1  0
 18 17  2  0
 19 17  1  0
 20 19  1  0
 20 21  1  1
 21 22  1  0
 22 30  1  0
 23 24  1  0
 23 22  2  0
 24 25  1  0
 25 30  2  0
 25 26  1  0
 26 27  2  0
 27 28  1  0
 29 28  2  0
 30 29  1  0
 31 32  1  0
 31 20  1  0
 33 31  2  0
M  END
$$$$
