HMW.pdb
     RDKit          3D

 33 35  0  0  1  0  0  0  0  0999 V2000
    8.8902  -15.7106   18.8668 N   0  0  0  0  0  0  0  0  0  0  0  0
    8.3604  -16.5552   19.8885 C   0  0  1  0  0  0  0  0  0  0  0  0
    8.4883  -18.0235   19.5986 C   0  0  0  0  0  0  0  0  0  0  0  0
    7.8073  -18.3688   18.3213 C   0  0  0  0  0  0  0  0  0  0  0  0
    8.4465  -18.6009   17.1287 C   0  0  0  0  0  0  0  0  0  0  0  0
    7.5035  -18.8818   16.2043 N   0  0  0  0  0  0  0  0  0  0  0  0
    6.3093  -18.8291   16.7935 C   0  0  0  0  0  0  0  0  0  0  0  0
    6.4717  -18.5153   18.0951 N   0  0  0  0  0  0  0  0  0  0  0  0
    8.9698  -16.2764   21.2264 C   0  0  0  0  0  0  0  0  0  0  0  0
   10.2310  -16.1348   21.3086 O   0  0  0  0  0  0  0  0  0  0  0  0
    7.5606  -12.1604   26.3562 C   0  0  0  0  0  0  0  0  0  0  0  0
    6.6259  -12.7614   24.9249 S   0  0  0  0  0  0  0  0  0  0  0  0
    7.6831  -13.7402   23.8560 C   0  0  0  0  0  0  0  0  0  0  0  0
    8.0728  -15.0063   24.5924 C   0  0  0  0  0  0  0  0  0  0  0  0
    8.8699  -15.9009   23.6670 C   0  0  2  0  0  0  0  0  0  0  0  0
    8.2260  -16.1584   22.4219 N   0  0  0  0  0  0  0  0  0  0  0  0
    9.1550  -17.1497   24.4170 C   0  0  0  0  0  0  0  0  0  0  0  0
    8.3245  -17.4571   25.3132 O   0  0  0  0  0  0  0  0  0  0  0  0
   10.2898  -17.9546   24.1495 N   0  0  0  0  0  0  0  0  0  0  0  0
   11.2865  -18.0767   25.1701 C   0  0  1  0  0  0  0  0  0  0  0  0
   11.7354  -16.7303   25.7004 C   0  0  0  0  0  0  0  0  0  0  0  0
   11.4301  -16.6783   27.1487 C   0  0  0  0  0  0  0  0  0  0  0  0
   11.4969  -17.7148   28.0800 C   0  0  0  0  0  0  0  0  0  0  0  0
   11.1340  -17.2593   29.2934 N   0  0  0  0  0  0  0  0  0  0  0  0
   10.8232  -15.9483   29.2161 C   0  0  0  0  0  0  0  0  0  0  0  0
   10.4001  -14.9930   30.1131 C   0  0  0  0  0  0  0  0  0  0  0  0
   10.1481  -13.6841   29.7482 C   0  0  0  0  0  0  0  0  0  0  0  0
   10.3370  -13.3481   28.4212 C   0  0  0  0  0  0  0  0  0  0  0  0
   10.7593  -14.2742   27.4920 C   0  0  0  0  0  0  0  0  0  0  0  0
   11.0008  -15.5765   27.9009 C   0  0  0  0  0  0  0  0  0  0  0  0
   10.7191  -18.8755   26.2751 C   0  0  0  0  0  0  0  0  0  0  0  0
   11.5299  -19.3153   27.2961 O   0  0  0  0  0  0  0  0  0  0  0  0
    9.5068  -19.1570   26.2931 O   0  0  0  0  0  0  0  0  0  0  0  0
  2  1  1  6
  2  3  1  0
  3  4  1  0
  4  8  1  0
  5  4  2  0
  5  6  1  0
  6  7  1  0
  8  7  2  0
  9  2  1  0
  9 10  2  0
 11 12  1  0
 12 13  1  0
 13 14  1  0
 15 16  1  0
 15 14  1  1
 16  9  1  0
 17 15  1  0
 18 17  2  0
 19 17  1  0
 20 19  1  0
 20 21  1  1
 21 22  1  0
 22 30  1  0
 23 24  1  0
 23 22  2  0
 24 25  1  0
 25 30  2  0
 25 26  1  0
 26 27  2  0
 27 28  1  0
 29 28  2  0
 30 29  1  0
 31 32  1  0
 31 20  1  0
 33 31  2  0
M  END
$$$$
