HMW.pdb
     RDKit          3D

 33 35  0  0  1  0  0  0  0  0999 V2000
   11.3947  -17.3332   17.6750 N   0  0  0  0  0  0  0  0  0  0  0  0
   10.9614  -18.0445   18.8345 C   0  0  1  0  0  0  0  0  0  0  0  0
   11.9752  -19.0119   19.3754 C   0  0  0  0  0  0  0  0  0  0  0  0
   11.9435  -20.2888   18.6120 C   0  0  0  0  0  0  0  0  0  0  0  0
   12.2012  -20.4069   17.2687 C   0  0  0  0  0  0  0  0  0  0  0  0
   12.0760  -21.7101   16.9387 N   0  0  0  0  0  0  0  0  0  0  0  0
   11.7505  -22.3916   18.0367 C   0  0  0  0  0  0  0  0  0  0  0  0
   11.6635  -21.5384   19.0775 N   0  0  0  0  0  0  0  0  0  0  0  0
   10.5398  -17.1259   19.9379 C   0  0  0  0  0  0  0  0  0  0  0  0
   11.3275  -16.1930   20.2942 O   0  0  0  0  0  0  0  0  0  0  0  0
    6.9128  -12.3332   19.9567 C   0  0  0  0  0  0  0  0  0  0  0  0
    7.7143  -13.5889   20.9885 S   0  0  0  0  0  0  0  0  0  0  0  0
    6.9129  -15.1790   20.7710 C   0  0  0  0  0  0  0  0  0  0  0  0
    7.4513  -16.1366   21.8154 C   0  0  0  0  0  0  0  0  0  0  0  0
    8.9461  -16.2914   21.6323 C   0  0  2  0  0  0  0  0  0  0  0  0
    9.3067  -17.2277   20.6201 N   0  0  0  0  0  0  0  0  0  0  0  0
    9.5053  -16.6587   22.9574 C   0  0  0  0  0  0  0  0  0  0  0  0
   10.1403  -17.7458   23.0063 O   0  0  0  0  0  0  0  0  0  0  0  0
    9.3405  -15.8435   24.1043 N   0  0  0  0  0  0  0  0  0  0  0  0
    9.8677  -16.3152   25.3491 C   0  0  1  0  0  0  0  0  0  0  0  0
    9.6672  -15.3197   26.4734 C   0  0  0  0  0  0  0  0  0  0  0  0
    8.2917  -14.7796   26.3734 C   0  0  0  0  0  0  0  0  0  0  0  0
    7.1128  -15.4732   26.0995 C   0  0  0  0  0  0  0  0  0  0  0  0
    6.0739  -14.6176   26.0911 N   0  0  0  0  0  0  0  0  0  0  0  0
    6.5090  -13.3666   26.3502 C   0  0  0  0  0  0  0  0  0  0  0  0
    5.9113  -12.1311   26.4627 C   0  0  0  0  0  0  0  0  0  0  0  0
    6.6219  -10.9795   26.7434 C   0  0  0  0  0  0  0  0  0  0  0  0
    7.9878  -11.1026   26.9135 C   0  0  0  0  0  0  0  0  0  0  0  0
    8.6244  -12.3205   26.8090 C   0  0  0  0  0  0  0  0  0  0  0  0
    7.8733  -13.4509   26.5262 C   0  0  0  0  0  0  0  0  0  0  0  0
    9.1876  -17.5817   25.6873 C   0  0  0  0  0  0  0  0  0  0  0  0
    8.1341  -18.0255   24.9215 O   0  0  0  0  0  0  0  0  0  0  0  0
    9.5598  -18.2570   26.6645 O   0  0  0  0  0  0  0  0  0  0  0  0
  2  1  1  6
  2  3  1  0
  3  4  1  0
  4  8  1  0
  5  4  2  0
  5  6  1  0
  6  7  1  0
  8  7  2  0
  9  2  1  0
  9 10  2  0
 11 12  1  0
 12 13  1  0
 13 14  1  0
 15 16  1  0
 15 14  1  1
 16  9  1  0
 17 15  1  0
 18 17  2  0
 19 17  1  0
 20 19  1  0
 20 21  1  1
 21 22  1  0
 22 30  1  0
 23 24  1  0
 23 22  2  0
 24 25  1  0
 25 30  2  0
 25 26  1  0
 26 27  2  0
 27 28  1  0
 29 28  2  0
 30 29  1  0
 31 32  1  0
 31 20  1  0
 33 31  2  0
M  END
$$$$
