HMW.pdb
     RDKit          3D

 33 35  0  0  1  0  0  0  0  0999 V2000
   10.2439  -18.3257   18.4716 N   0  0  0  0  0  0  0  0  0  0  0  0
   11.1591  -17.2606   18.7290 C   0  0  1  0  0  0  0  0  0  0  0  0
   11.5220  -16.4563   17.5134 C   0  0  0  0  0  0  0  0  0  0  0  0
   10.9559  -17.0757   16.2844 C   0  0  0  0  0  0  0  0  0  0  0  0
   10.9260  -18.4239   16.0272 C   0  0  0  0  0  0  0  0  0  0  0  0
   10.3411  -18.6003   14.8232 N   0  0  0  0  0  0  0  0  0  0  0  0
   10.0125  -17.4037   14.3371 C   0  0  0  0  0  0  0  0  0  0  0  0
   10.3810  -16.4517   15.2183 N   0  0  0  0  0  0  0  0  0  0  0  0
   10.6605  -16.3289   19.7884 C   0  0  0  0  0  0  0  0  0  0  0  0
   11.3610  -15.3109   20.0892 O   0  0  0  0  0  0  0  0  0  0  0  0
    7.2106  -11.9305   19.5322 C   0  0  0  0  0  0  0  0  0  0  0  0
    8.0028  -13.0941   20.6733 S   0  0  0  0  0  0  0  0  0  0  0  0
    7.1098  -14.6497   20.6971 C   0  0  0  0  0  0  0  0  0  0  0  0
    7.6485  -15.4970   21.8326 C   0  0  0  0  0  0  0  0  0  0  0  0
    9.1324  -15.7204   21.6329 C   0  0  2  0  0  0  0  0  0  0  0  0
    9.4455  -16.5079   20.4869 N   0  0  0  0  0  0  0  0  0  0  0  0
    9.6478  -16.3279   22.8854 C   0  0  0  0  0  0  0  0  0  0  0  0
    9.9147  -17.5581   22.8330 O   0  0  0  0  0  0  0  0  0  0  0  0
    9.8319  -15.5787   24.0736 N   0  0  0  0  0  0  0  0  0  0  0  0
   10.2786  -16.2701   25.2451 C   0  0  1  0  0  0  0  0  0  0  0  0
   10.0211  -15.4812   26.5126 C   0  0  0  0  0  0  0  0  0  0  0  0
    8.6159  -15.0138   26.4892 C   0  0  0  0  0  0  0  0  0  0  0  0
    7.4651  -15.7598   26.2333 C   0  0  0  0  0  0  0  0  0  0  0  0
    6.3827  -14.9627   26.3014 N   0  0  0  0  0  0  0  0  0  0  0  0
    6.7610  -13.7009   26.5950 C   0  0  0  0  0  0  0  0  0  0  0  0
    6.1037  -12.5055   26.7822 C   0  0  0  0  0  0  0  0  0  0  0  0
    6.7629  -11.3286   27.0824 C   0  0  0  0  0  0  0  0  0  0  0  0
    8.1393  -11.3832   27.1933 C   0  0  0  0  0  0  0  0  0  0  0  0
    8.8349  -12.5593   27.0133 C   0  0  0  0  0  0  0  0  0  0  0  0
    8.1340  -13.7171   26.7135 C   0  0  0  0  0  0  0  0  0  0  0  0
    9.5666  -17.5620   25.3174 C   0  0  0  0  0  0  0  0  0  0  0  0
   10.1514  -18.7017   24.8152 O   0  0  0  0  0  0  0  0  0  0  0  0
    8.4351  -17.6314   25.8316 O   0  0  0  0  0  0  0  0  0  0  0  0
  2  1  1  6
  2  3  1  0
  3  4  1  0
  4  8  1  0
  5  4  2  0
  5  6  1  0
  6  7  1  0
  8  7  2  0
  9  2  1  0
  9 10  2  0
 11 12  1  0
 12 13  1  0
 13 14  1  0
 15 16  1  0
 15 14  1  1
 16  9  1  0
 17 15  1  0
 18 17  2  0
 19 17  1  0
 20 19  1  0
 20 21  1  1
 21 22  1  0
 22 30  1  0
 23 24  1  0
 23 22  2  0
 24 25  1  0
 25 30  2  0
 25 26  1  0
 26 27  2  0
 27 28  1  0
 29 28  2  0
 30 29  1  0
 31 32  1  0
 31 20  1  0
 33 31  2  0
M  END
$$$$
