HMW.pdb
     RDKit          3D

 33 35  0  0  1  0  0  0  0  0999 V2000
    7.5830  -17.1352   19.2618 N   0  0  0  0  0  0  0  0  0  0  0  0
    8.9980  -17.0046   19.3989 C   0  0  1  0  0  0  0  0  0  0  0  0
    9.6657  -16.3170   18.2423 C   0  0  0  0  0  0  0  0  0  0  0  0
    9.3502  -17.0111   16.9643 C   0  0  0  0  0  0  0  0  0  0  0  0
    9.7986  -18.2619   16.6189 C   0  0  0  0  0  0  0  0  0  0  0  0
    9.3087  -18.5510   15.3945 N   0  0  0  0  0  0  0  0  0  0  0  0
    8.5755  -17.5178   14.9811 C   0  0  0  0  0  0  0  0  0  0  0  0
    8.5868  -16.5595   15.9300 N   0  0  0  0  0  0  0  0  0  0  0  0
    9.3821  -16.2997   20.6616 C   0  0  0  0  0  0  0  0  0  0  0  0
   10.2877  -15.4078   20.6153 O   0  0  0  0  0  0  0  0  0  0  0  0
    7.0293  -13.7927   26.2079 C   0  0  0  0  0  0  0  0  0  0  0  0
    6.6234  -13.3520   24.4977 S   0  0  0  0  0  0  0  0  0  0  0  0
    7.7655  -14.1424   23.3624 C   0  0  0  0  0  0  0  0  0  0  0  0
    8.3269  -15.3824   24.0292 C   0  0  0  0  0  0  0  0  0  0  0  0
    9.3514  -16.0232   23.1172 C   0  0  2  0  0  0  0  0  0  0  0  0
    8.7969  -16.5631   21.9204 N   0  0  0  0  0  0  0  0  0  0  0  0
   10.0564  -17.0536   23.9202 C   0  0  0  0  0  0  0  0  0  0  0  0
   10.0178  -18.2284   23.4668 O   0  0  0  0  0  0  0  0  0  0  0  0
   10.7345  -16.7453   25.1253 N   0  0  0  0  0  0  0  0  0  0  0  0
   11.6050  -17.7362   25.6825 C   0  0  1  0  0  0  0  0  0  0  0  0
   12.5439  -17.1588   26.7219 C   0  0  0  0  0  0  0  0  0  0  0  0
   11.7265  -16.5609   27.8025 C   0  0  0  0  0  0  0  0  0  0  0  0
   11.4372  -17.0948   29.0584 C   0  0  0  0  0  0  0  0  0  0  0  0
   10.6560  -16.2412   29.7459 N   0  0  0  0  0  0  0  0  0  0  0  0
   10.4059  -15.1459   28.9980 C   0  0  0  0  0  0  0  0  0  0  0  0
    9.6893  -13.9843   29.1810 C   0  0  0  0  0  0  0  0  0  0  0  0
    9.5999  -13.0008   28.2143 C   0  0  0  0  0  0  0  0  0  0  0  0
   10.2674  -13.2188   27.0241 C   0  0  0  0  0  0  0  0  0  0  0  0
   10.9953  -14.3677   26.8011 C   0  0  0  0  0  0  0  0  0  0  0  0
   11.0588  -15.3288   27.7982 C   0  0  0  0  0  0  0  0  0  0  0  0
   10.7713  -18.7857   26.3026 C   0  0  0  0  0  0  0  0  0  0  0  0
   10.7026  -18.8931   27.6726 O   0  0  0  0  0  0  0  0  0  0  0  0
   10.1255  -19.5798   25.5943 O   0  0  0  0  0  0  0  0  0  0  0  0
  2  1  1  6
  2  3  1  0
  3  4  1  0
  4  8  1  0
  5  4  2  0
  5  6  1  0
  6  7  1  0
  8  7  2  0
  9  2  1  0
  9 10  2  0
 11 12  1  0
 12 13  1  0
 13 14  1  0
 15 16  1  0
 15 14  1  1
 16  9  1  0
 17 15  1  0
 18 17  2  0
 19 17  1  0
 20 19  1  0
 20 21  1  1
 21 22  1  0
 22 30  1  0
 23 24  1  0
 23 22  2  0
 24 25  1  0
 25 30  2  0
 25 26  1  0
 26 27  2  0
 27 28  1  0
 29 28  2  0
 30 29  1  0
 31 32  1  0
 31 20  1  0
 33 31  2  0
M  END
$$$$
