HMW.pdb
     RDKit          3D

 33 35  0  0  1  0  0  0  0  0999 V2000
   13.0400  -18.5174   18.0068 N   0  0  0  0  0  0  0  0  0  0  0  0
   12.5578  -18.9836   19.2671 C   0  0  1  0  0  0  0  0  0  0  0  0
   13.5749  -19.7427   20.0705 C   0  0  0  0  0  0  0  0  0  0  0  0
   13.8672  -21.0588   19.4405 C   0  0  0  0  0  0  0  0  0  0  0  0
   12.9727  -21.7901   18.6989 C   0  0  0  0  0  0  0  0  0  0  0  0
   13.5961  -22.9185   18.2979 N   0  0  0  0  0  0  0  0  0  0  0  0
   14.8422  -22.8999   18.7700 C   0  0  0  0  0  0  0  0  0  0  0  0
   15.0312  -21.7662   19.4755 N   0  0  0  0  0  0  0  0  0  0  0  0
   12.0123  -17.8744   20.1103 C   0  0  0  0  0  0  0  0  0  0  0  0
   12.7485  -16.8647   20.3471 O   0  0  0  0  0  0  0  0  0  0  0  0
    6.4046  -12.9663   22.0693 C   0  0  0  0  0  0  0  0  0  0  0  0
    6.8483  -14.5179   21.2451 S   0  0  0  0  0  0  0  0  0  0  0  0
    8.4503  -15.0903   21.8141 C   0  0  0  0  0  0  0  0  0  0  0  0
    8.8522  -16.2962   20.9884 C   0  0  0  0  0  0  0  0  0  0  0  0
   10.2318  -16.7562   21.4091 C   0  0  2  0  0  0  0  0  0  0  0  0
   10.7146  -17.8746   20.6692 N   0  0  0  0  0  0  0  0  0  0  0  0
   10.1656  -17.0366   22.8653 C   0  0  0  0  0  0  0  0  0  0  0  0
   10.3660  -18.2327   23.2066 O   0  0  0  0  0  0  0  0  0  0  0  0
    9.8939  -16.0277   23.8219 N   0  0  0  0  0  0  0  0  0  0  0  0
   10.3084  -16.2504   25.1742 C   0  0  1  0  0  0  0  0  0  0  0  0
   10.1038  -15.0295   26.0476 C   0  0  0  0  0  0  0  0  0  0  0  0
    8.6906  -14.6037   25.9238 C   0  0  0  0  0  0  0  0  0  0  0  0
    7.5861  -15.3791   25.5706 C   0  0  0  0  0  0  0  0  0  0  0  0
    6.4776  -14.6156   25.5672 N   0  0  0  0  0  0  0  0  0  0  0  0
    6.7936  -13.3481   25.9064 C   0  0  0  0  0  0  0  0  0  0  0  0
    6.0875  -12.1759   26.0597 C   0  0  0  0  0  0  0  0  0  0  0  0
    6.6857  -10.9851   26.4257 C   0  0  0  0  0  0  0  0  0  0  0  0
    8.0507  -11.0007   26.6403 C   0  0  0  0  0  0  0  0  0  0  0  0
    8.7938  -12.1526   26.4974 C   0  0  0  0  0  0  0  0  0  0  0  0
    8.1536  -13.3256   26.1289 C   0  0  0  0  0  0  0  0  0  0  0  0
    9.5252  -17.3790   25.7163 C   0  0  0  0  0  0  0  0  0  0  0  0
    8.5112  -17.9364   24.9717 O   0  0  0  0  0  0  0  0  0  0  0  0
    9.7743  -17.8349   26.8474 O   0  0  0  0  0  0  0  0  0  0  0  0
  2  1  1  6
  2  3  1  0
  3  4  1  0
  4  8  1  0
  5  4  2  0
  5  6  1  0
  6  7  1  0
  8  7  2  0
  9  2  1  0
  9 10  2  0
 11 12  1  0
 12 13  1  0
 13 14  1  0
 15 16  1  0
 15 14  1  6
 16  9  1  0
 17 15  1  0
 18 17  2  0
 19 17  1  0
 20 19  1  0
 20 21  1  1
 21 22  1  0
 22 30  1  0
 23 24  1  0
 23 22  2  0
 24 25  1  0
 25 30  2  0
 25 26  1  0
 26 27  2  0
 27 28  1  0
 29 28  2  0
 30 29  1  0
 31 32  1  0
 31 20  1  0
 33 31  2  0
M  END
$$$$
