HMW.pdb
     RDKit          3D

 33 35  0  0  1  0  0  0  0  0999 V2000
   11.3971  -17.0639   17.5639 N   0  0  0  0  0  0  0  0  0  0  0  0
   11.3058  -17.8345   18.7622 C   0  0  1  0  0  0  0  0  0  0  0  0
   12.5048  -18.6991   19.0286 C   0  0  0  0  0  0  0  0  0  0  0  0
   12.6813  -19.7025   17.9439 C   0  0  0  0  0  0  0  0  0  0  0  0
   13.5287  -19.5603   16.8732 C   0  0  0  0  0  0  0  0  0  0  0  0
   13.4147  -20.6669   16.1083 N   0  0  0  0  0  0  0  0  0  0  0  0
   12.5256  -21.4805   16.6772 C   0  0  0  0  0  0  0  0  0  0  0  0
   12.0615  -20.9082   17.8068 N   0  0  0  0  0  0  0  0  0  0  0  0
   11.0531  -16.9822   19.9658 C   0  0  0  0  0  0  0  0  0  0  0  0
   11.8087  -15.9814   20.1785 O   0  0  0  0  0  0  0  0  0  0  0  0
    7.6007  -12.1816   19.1197 C   0  0  0  0  0  0  0  0  0  0  0  0
    7.2994  -13.4672   20.3607 S   0  0  0  0  0  0  0  0  0  0  0  0
    8.8041  -14.3900   20.6806 C   0  0  0  0  0  0  0  0  0  0  0  0
    8.5044  -15.4566   21.7150 C   0  0  0  0  0  0  0  0  0  0  0  0
    9.7436  -16.2951   21.9459 C   0  0  2  0  0  0  0  0  0  0  0  0
   10.0157  -17.2190   20.8953 N   0  0  0  0  0  0  0  0  0  0  0  0
    9.5655  -16.9737   23.2540 C   0  0  0  0  0  0  0  0  0  0  0  0
    8.4790  -17.5917   23.4117 O   0  0  0  0  0  0  0  0  0  0  0  0
   10.5513  -16.9348   24.2707 N   0  0  0  0  0  0  0  0  0  0  0  0
   10.1612  -16.4833   25.5722 C   0  0  1  0  0  0  0  0  0  0  0  0
    9.9616  -14.9824   25.6251 C   0  0  0  0  0  0  0  0  0  0  0  0
    8.5230  -14.7148   25.8541 C   0  0  0  0  0  0  0  0  0  0  0  0
    7.4647  -15.6234   25.8327 C   0  0  0  0  0  0  0  0  0  0  0  0
    6.3092  -14.9807   26.0845 N   0  0  0  0  0  0  0  0  0  0  0  0
    6.5486  -13.6664   26.2760 C   0  0  0  0  0  0  0  0  0  0  0  0
    5.7708  -12.5654   26.5572 C   0  0  0  0  0  0  0  0  0  0  0  0
    6.2970  -11.2961   26.7046 C   0  0  0  0  0  0  0  0  0  0  0  0
    7.6639  -11.1552   26.5583 C   0  0  0  0  0  0  0  0  0  0  0  0
    8.4775  -12.2315   26.2766 C   0  0  0  0  0  0  0  0  0  0  0  0
    7.9081  -13.4877   26.1370 C   0  0  0  0  0  0  0  0  0  0  0  0
    8.8997  -17.1597   25.9357 C   0  0  0  0  0  0  0  0  0  0  0  0
    8.6834  -17.5671   27.2320 O   0  0  0  0  0  0  0  0  0  0  0  0
    8.0237  -17.3666   25.0759 O   0  0  0  0  0  0  0  0  0  0  0  0
  2  1  1  6
  2  3  1  0
  3  4  1  0
  4  8  1  0
  5  4  2  0
  5  6  1  0
  6  7  1  0
  8  7  2  0
  9  2  1  0
  9 10  2  0
 11 12  1  0
 12 13  1  0
 13 14  1  0
 15 16  1  0
 15 14  1  6
 16  9  1  0
 17 15  1  0
 18 17  2  0
 19 17  1  0
 20 19  1  0
 20 21  1  6
 21 22  1  0
 22 30  1  0
 23 24  1  0
 23 22  2  0
 24 25  1  0
 25 30  2  0
 25 26  1  0
 26 27  2  0
 27 28  1  0
 29 28  2  0
 30 29  1  0
 31 32  1  0
 31 20  1  0
 33 31  2  0
M  END
$$$$
