HMW.pdb
     RDKit          3D

 33 35  0  0  1  0  0  0  0  0999 V2000
    9.6968  -15.8140   18.9078 N   0  0  0  0  0  0  0  0  0  0  0  0
    9.2140  -16.8052   19.8147 C   0  0  1  0  0  0  0  0  0  0  0  0
    9.7778  -18.1776   19.5808 C   0  0  0  0  0  0  0  0  0  0  0  0
    8.8466  -18.9956   18.7573 C   0  0  0  0  0  0  0  0  0  0  0  0
    8.1313  -18.5278   17.6829 C   0  0  0  0  0  0  0  0  0  0  0  0
    7.4024  -19.5543   17.1953 N   0  0  0  0  0  0  0  0  0  0  0  0
    7.6495  -20.6338   17.9367 C   0  0  0  0  0  0  0  0  0  0  0  0
    8.5344  -20.3139   18.9029 N   0  0  0  0  0  0  0  0  0  0  0  0
    9.4489  -16.4281   21.2435 C   0  0  0  0  0  0  0  0  0  0  0  0
   10.6014  -16.0146   21.5874 O   0  0  0  0  0  0  0  0  0  0  0  0
    6.4537  -12.3260   25.9453 C   0  0  0  0  0  0  0  0  0  0  0  0
    7.2523  -13.9524   25.9671 S   0  0  0  0  0  0  0  0  0  0  0  0
    6.8643  -14.8577   24.4678 C   0  0  0  0  0  0  0  0  0  0  0  0
    7.5613  -16.2026   24.5231 C   0  0  0  0  0  0  0  0  0  0  0  0
    8.7656  -16.1825   23.6058 C   0  0  2  0  0  0  0  0  0  0  0  0
    8.4607  -16.5021   22.2507 N   0  0  0  0  0  0  0  0  0  0  0  0
    9.7644  -17.1137   24.1879 C   0  0  0  0  0  0  0  0  0  0  0  0
    9.7479  -18.2912   23.7400 O   0  0  0  0  0  0  0  0  0  0  0  0
   10.6850  -16.7129   25.1874 N   0  0  0  0  0  0  0  0  0  0  0  0
   11.6540  -17.6675   25.6344 C   0  0  1  0  0  0  0  0  0  0  0  0
   12.6269  -17.0755   26.6336 C   0  0  0  0  0  0  0  0  0  0  0  0
   11.8709  -16.7061   27.8524 C   0  0  0  0  0  0  0  0  0  0  0  0
   11.6889  -17.4583   29.0131 C   0  0  0  0  0  0  0  0  0  0  0  0
   10.9330  -16.7686   29.8874 N   0  0  0  0  0  0  0  0  0  0  0  0
   10.5963  -15.5735   29.3583 C   0  0  0  0  0  0  0  0  0  0  0  0
    9.8591  -14.4918   29.7859 C   0  0  0  0  0  0  0  0  0  0  0  0
    9.6704  -13.3626   29.0119 C   0  0  0  0  0  0  0  0  0  0  0  0
   10.2574  -13.3457   27.7610 C   0  0  0  0  0  0  0  0  0  0  0  0
   11.0026  -14.4076   27.2956 C   0  0  0  0  0  0  0  0  0  0  0  0
   11.1669  -15.5210   28.1049 C   0  0  0  0  0  0  0  0  0  0  0  0
   10.9349  -18.7964   26.2586 C   0  0  0  0  0  0  0  0  0  0  0  0
   11.5452  -20.0241   26.3748 O   0  0  0  0  0  0  0  0  0  0  0  0
    9.7745  -18.6482   26.6838 O   0  0  0  0  0  0  0  0  0  0  0  0
  2  1  1  6
  2  3  1  0
  3  4  1  0
  4  8  1  0
  5  4  2  0
  5  6  1  0
  6  7  1  0
  8  7  2  0
  9  2  1  0
  9 10  2  0
 11 12  1  0
 12 13  1  0
 13 14  1  0
 15 16  1  0
 15 14  1  1
 16  9  1  0
 17 15  1  0
 18 17  2  0
 19 17  1  0
 20 19  1  0
 20 21  1  1
 21 22  1  0
 22 30  1  0
 23 24  1  0
 23 22  2  0
 24 25  1  0
 25 30  2  0
 25 26  1  0
 26 27  2  0
 27 28  1  0
 29 28  2  0
 30 29  1  0
 31 32  1  0
 31 20  1  0
 33 31  2  0
M  END
$$$$
