HMW.pdb
     RDKit          3D

 33 35  0  0  1  0  0  0  0  0999 V2000
    9.8414  -19.2995   18.9447 N   0  0  0  0  0  0  0  0  0  0  0  0
   10.9843  -18.6229   19.4680 C   0  0  1  0  0  0  0  0  0  0  0  0
   11.9370  -18.1256   18.4185 C   0  0  0  0  0  0  0  0  0  0  0  0
   12.1545  -19.1613   17.3724 C   0  0  0  0  0  0  0  0  0  0  0  0
   11.3307  -19.3740   16.2950 C   0  0  0  0  0  0  0  0  0  0  0  0
   11.8503  -20.3903   15.5739 N   0  0  0  0  0  0  0  0  0  0  0  0
   12.9647  -20.8049   16.1757 C   0  0  0  0  0  0  0  0  0  0  0  0
   13.1715  -20.0638   17.2833 N   0  0  0  0  0  0  0  0  0  0  0  0
   10.6079  -17.4776   20.3544 C   0  0  0  0  0  0  0  0  0  0  0  0
   11.5313  -16.7638   20.8599 O   0  0  0  0  0  0  0  0  0  0  0  0
    7.5036  -11.2768   21.3893 C   0  0  0  0  0  0  0  0  0  0  0  0
    7.6912  -12.9572   20.7375 S   0  0  0  0  0  0  0  0  0  0  0  0
    7.4498  -14.1631   22.0435 C   0  0  0  0  0  0  0  0  0  0  0  0
    7.5522  -15.5509   21.4427 C   0  0  0  0  0  0  0  0  0  0  0  0
    8.9849  -16.0322   21.5309 C   0  0  2  0  0  0  0  0  0  0  0  0
    9.2753  -17.1316   20.6717 N   0  0  0  0  0  0  0  0  0  0  0  0
    9.2427  -16.3547   22.9567 C   0  0  0  0  0  0  0  0  0  0  0  0
    8.8183  -17.4720   23.3553 O   0  0  0  0  0  0  0  0  0  0  0  0
    9.9236  -15.4668   23.8256 N   0  0  0  0  0  0  0  0  0  0  0  0
   10.0523  -15.8363   25.2029 C   0  0  1  0  0  0  0  0  0  0  0  0
    8.8089  -16.5197   25.7343 C   0  0  0  0  0  0  0  0  0  0  0  0
    7.6883  -15.5533   25.6741 C   0  0  0  0  0  0  0  0  0  0  0  0
    6.3699  -15.7877   25.2828 C   0  0  0  0  0  0  0  0  0  0  0  0
    5.6623  -14.6456   25.3633 N   0  0  0  0  0  0  0  0  0  0  0  0
    6.4569  -13.6443   25.7963 C   0  0  0  0  0  0  0  0  0  0  0  0
    6.2799  -12.3039   26.0575 C   0  0  0  0  0  0  0  0  0  0  0  0
    7.3016  -11.4881   26.5053 C   0  0  0  0  0  0  0  0  0  0  0  0
    8.5421  -12.0685   26.6898 C   0  0  0  0  0  0  0  0  0  0  0  0
    8.7609  -13.4061   26.4398 C   0  0  0  0  0  0  0  0  0  0  0  0
    7.7079  -14.1885   25.9918 C   0  0  0  0  0  0  0  0  0  0  0  0
   11.2065  -16.7489   25.3292 C   0  0  0  0  0  0  0  0  0  0  0  0
   11.5869  -17.2136   26.5672 O   0  0  0  0  0  0  0  0  0  0  0  0
   11.8434  -17.1049   24.3207 O   0  0  0  0  0  0  0  0  0  0  0  0
  2  1  1  6
  2  3  1  0
  3  4  1  0
  4  8  1  0
  5  4  2  0
  5  6  1  0
  6  7  1  0
  8  7  2  0
  9  2  1  0
  9 10  2  0
 11 12  1  0
 12 13  1  0
 13 14  1  0
 15 16  1  0
 15 14  1  1
 16  9  1  0
 17 15  1  0
 18 17  2  0
 19 17  1  0
 20 19  1  0
 20 21  1  6
 21 22  1  0
 22 30  1  0
 23 24  1  0
 23 22  2  0
 24 25  1  0
 25 30  2  0
 25 26  1  0
 26 27  2  0
 27 28  1  0
 29 28  2  0
 30 29  1  0
 31 32  1  0
 31 20  1  0
 33 31  2  0
M  END
$$$$
