HMW.pdb
     RDKit          3D

 33 35  0  0  1  0  0  0  0  0999 V2000
   10.5379  -15.4465   18.2989 N   0  0  0  0  0  0  0  0  0  0  0  0
    9.5210  -16.1823   18.9791 C   0  0  1  0  0  0  0  0  0  0  0  0
    8.7888  -17.1645   18.1100 C   0  0  0  0  0  0  0  0  0  0  0  0
    8.5517  -16.5942   16.7561 C   0  0  0  0  0  0  0  0  0  0  0  0
    8.1990  -15.2917   16.5037 C   0  0  0  0  0  0  0  0  0  0  0  0
    8.0730  -15.1511   15.1669 N   0  0  0  0  0  0  0  0  0  0  0  0
    8.3375  -16.3253   14.5947 C   0  0  0  0  0  0  0  0  0  0  0  0
    8.6343  -17.2273   15.5524 N   0  0  0  0  0  0  0  0  0  0  0  0
   10.0505  -16.9050   20.1775 C   0  0  0  0  0  0  0  0  0  0  0  0
    9.3318  -17.8039   20.7190 O   0  0  0  0  0  0  0  0  0  0  0  0
   16.0634  -19.6853   19.8772 C   0  0  0  0  0  0  0  0  0  0  0  0
   15.4454  -18.5746   21.1688 S   0  0  0  0  0  0  0  0  0  0  0  0
   13.6900  -18.2778   20.9485 C   0  0  0  0  0  0  0  0  0  0  0  0
   13.1857  -17.4724   22.1293 C   0  0  0  0  0  0  0  0  0  0  0  0
   11.6939  -17.2559   21.9896 C   0  0  2  0  0  0  0  0  0  0  0  0
   11.3144  -16.6513   20.7560 N   0  0  0  0  0  0  0  0  0  0  0  0
   11.2651  -16.4511   23.1609 C   0  0  0  0  0  0  0  0  0  0  0  0
   11.4513  -15.2081   23.0745 O   0  0  0  0  0  0  0  0  0  0  0  0
   10.6810  -17.0355   24.3117 N   0  0  0  0  0  0  0  0  0  0  0  0
    9.7149  -16.2706   25.0408 C   0  0  1  0  0  0  0  0  0  0  0  0
    8.5107  -15.9084   24.1958 C   0  0  0  0  0  0  0  0  0  0  0  0
    7.5182  -15.2388   25.0677 C   0  0  0  0  0  0  0  0  0  0  0  0
    6.3365  -15.7658   25.5891 C   0  0  0  0  0  0  0  0  0  0  0  0
    5.7115  -14.8327   26.3309 N   0  0  0  0  0  0  0  0  0  0  0  0
    6.4300  -13.6903   26.3300 C   0  0  0  0  0  0  0  0  0  0  0  0
    6.2810  -12.4453   26.8994 C   0  0  0  0  0  0  0  0  0  0  0  0
    7.2008  -11.4287   26.7257 C   0  0  0  0  0  0  0  0  0  0  0  0
    8.3068  -11.7009   25.9432 C   0  0  0  0  0  0  0  0  0  0  0  0
    8.4933  -12.9336   25.3555 C   0  0  0  0  0  0  0  0  0  0  0  0
    7.5458  -13.9254   25.5559 C   0  0  0  0  0  0  0  0  0  0  0  0
    9.2770  -17.0691   26.2034 C   0  0  0  0  0  0  0  0  0  0  0  0
    9.5704  -18.4119   26.2686 O   0  0  0  0  0  0  0  0  0  0  0  0
    8.6411  -16.5369   27.1316 O   0  0  0  0  0  0  0  0  0  0  0  0
  2  1  1  6
  2  3  1  0
  3  4  1  0
  4  8  1  0
  5  4  2  0
  5  6  1  0
  6  7  1  0
  8  7  2  0
  9  2  1  0
  9 10  2  0
 11 12  1  0
 12 13  1  0
 13 14  1  0
 15 16  1  0
 15 14  1  6
 16  9  1  0
 17 15  1  0
 18 17  2  0
 19 17  1  0
 20 19  1  0
 20 21  1  6
 21 22  1  0
 22 30  1  0
 23 24  1  0
 23 22  2  0
 24 25  1  0
 25 30  2  0
 25 26  1  0
 26 27  2  0
 27 28  1  0
 29 28  2  0
 30 29  1  0
 31 32  1  0
 31 20  1  0
 33 31  2  0
M  END
$$$$
