HMW.pdb
     RDKit          3D

 33 35  0  0  1  0  0  0  0  0999 V2000
    9.0446  -19.1373   20.2961 N   0  0  0  0  0  0  0  0  0  0  0  0
   10.2280  -18.4432   19.9011 C   0  0  1  0  0  0  0  0  0  0  0  0
   10.3651  -18.2597   18.4166 C   0  0  0  0  0  0  0  0  0  0  0  0
   10.4240  -19.5770   17.7270 C   0  0  0  0  0  0  0  0  0  0  0  0
   10.3567  -20.7958   18.3553 C   0  0  0  0  0  0  0  0  0  0  0  0
   10.4433  -21.7530   17.4071 N   0  0  0  0  0  0  0  0  0  0  0  0
   10.5610  -21.1585   16.2202 C   0  0  0  0  0  0  0  0  0  0  0  0
   10.5515  -19.8209   16.3925 N   0  0  0  0  0  0  0  0  0  0  0  0
   10.3476  -17.1060   20.5620 C   0  0  0  0  0  0  0  0  0  0  0  0
   11.3430  -16.3676   20.2768 O   0  0  0  0  0  0  0  0  0  0  0  0
    6.9463  -11.7498   20.2799 C   0  0  0  0  0  0  0  0  0  0  0  0
    6.4370  -13.4732   20.5126 S   0  0  0  0  0  0  0  0  0  0  0  0
    7.8757  -14.5392   20.6223 C   0  0  0  0  0  0  0  0  0  0  0  0
    8.4936  -14.3744   21.9965 C   0  0  0  0  0  0  0  0  0  0  0  0
    9.6328  -15.3586   22.1567 C   0  0  2  0  0  0  0  0  0  0  0  0
    9.4144  -16.6022   21.4957 N   0  0  0  0  0  0  0  0  0  0  0  0
    9.8489  -15.5319   23.6150 C   0  0  0  0  0  0  0  0  0  0  0  0
   10.4267  -14.5799   24.2042 O   0  0  0  0  0  0  0  0  0  0  0  0
    9.4349  -16.6938   24.3118 N   0  0  0  0  0  0  0  0  0  0  0  0
   10.0422  -16.9739   25.5779 C   0  0  1  0  0  0  0  0  0  0  0  0
    9.7947  -15.8747   26.5908 C   0  0  0  0  0  0  0  0  0  0  0  0
    8.4565  -15.2968   26.3289 C   0  0  0  0  0  0  0  0  0  0  0  0
    7.2647  -15.9716   26.0634 C   0  0  0  0  0  0  0  0  0  0  0  0
    6.2716  -15.0828   25.8759 N   0  0  0  0  0  0  0  0  0  0  0  0
    6.7501  -13.8275   26.0053 C   0  0  0  0  0  0  0  0  0  0  0  0
    6.2076  -12.5647   25.9202 C   0  0  0  0  0  0  0  0  0  0  0  0
    6.9544  -11.4163   26.1025 C   0  0  0  0  0  0  0  0  0  0  0  0
    8.2991  -11.5716   26.3807 C   0  0  0  0  0  0  0  0  0  0  0  0
    8.8807  -12.8176   26.4742 C   0  0  0  0  0  0  0  0  0  0  0  0
    8.0947  -13.9436   26.2844 C   0  0  0  0  0  0  0  0  0  0  0  0
    9.4850  -18.2440   26.0853 C   0  0  0  0  0  0  0  0  0  0  0  0
    8.5865  -18.9564   25.3248 O   0  0  0  0  0  0  0  0  0  0  0  0
    9.8219  -18.6801   27.2014 O   0  0  0  0  0  0  0  0  0  0  0  0
  2  1  1  6
  2  3  1  0
  3  4  1  0
  4  8  1  0
  5  4  2  0
  5  6  1  0
  6  7  1  0
  8  7  2  0
  9  2  1  0
  9 10  2  0
 11 12  1  0
 12 13  1  0
 13 14  1  0
 15 16  1  0
 15 14  1  1
 16  9  1  0
 17 15  1  0
 18 17  2  0
 19 17  1  0
 20 19  1  0
 20 21  1  1
 21 22  1  0
 22 30  1  0
 23 24  1  0
 23 22  2  0
 24 25  1  0
 25 30  2  0
 25 26  1  0
 26 27  2  0
 27 28  1  0
 29 28  2  0
 30 29  1  0
 31 32  1  0
 31 20  1  0
 33 31  2  0
M  END
$$$$
