HMW.pdb
     RDKit          3D

 33 35  0  0  1  0  0  0  0  0999 V2000
    8.5191  -17.8525   19.0698 N   0  0  0  0  0  0  0  0  0  0  0  0
    8.0596  -17.8573   20.4215 C   0  0  1  0  0  0  0  0  0  0  0  0
    8.5958  -18.9912   21.2479 C   0  0  0  0  0  0  0  0  0  0  0  0
    8.0495  -20.2918   20.7741 C   0  0  0  0  0  0  0  0  0  0  0  0
    7.1419  -20.4372   19.7544 C   0  0  0  0  0  0  0  0  0  0  0  0
    6.8863  -21.7557   19.6160 N   0  0  0  0  0  0  0  0  0  0  0  0
    7.6086  -22.4201   20.5176 C   0  0  0  0  0  0  0  0  0  0  0  0
    8.3314  -21.5405   21.2407 N   0  0  0  0  0  0  0  0  0  0  0  0
    8.3554  -16.5702   21.1250 C   0  0  0  0  0  0  0  0  0  0  0  0
    9.3636  -15.8877   20.7571 O   0  0  0  0  0  0  0  0  0  0  0  0
    4.8694  -12.2563   25.6247 C   0  0  0  0  0  0  0  0  0  0  0  0
    6.5484  -12.8044   26.0300 S   0  0  0  0  0  0  0  0  0  0  0  0
    7.4830  -13.1120   24.5301 C   0  0  0  0  0  0  0  0  0  0  0  0
    6.9752  -14.3938   23.9004 C   0  0  0  0  0  0  0  0  0  0  0  0
    8.0182  -14.9313   22.9436 C   0  0  2  0  0  0  0  0  0  0  0  0
    7.5778  -16.0555   22.1864 N   0  0  0  0  0  0  0  0  0  0  0  0
    9.2241  -15.2405   23.7521 C   0  0  0  0  0  0  0  0  0  0  0  0
    9.8281  -14.2499   24.2433 O   0  0  0  0  0  0  0  0  0  0  0  0
    9.6773  -16.5658   23.9646 N   0  0  0  0  0  0  0  0  0  0  0  0
   10.8403  -16.7594   24.7770 C   0  0  1  0  0  0  0  0  0  0  0  0
   10.5438  -17.5681   26.0233 C   0  0  0  0  0  0  0  0  0  0  0  0
    9.6634  -16.7616   26.8997 C   0  0  0  0  0  0  0  0  0  0  0  0
    8.2944  -16.9149   27.1196 C   0  0  0  0  0  0  0  0  0  0  0  0
    7.8651  -15.9757   27.9829 N   0  0  0  0  0  0  0  0  0  0  0  0
    8.8975  -15.1906   28.3559 C   0  0  0  0  0  0  0  0  0  0  0  0
    9.0440  -14.1057   29.1912 C   0  0  0  0  0  0  0  0  0  0  0  0
   10.2574  -13.4757   29.3929 C   0  0  0  0  0  0  0  0  0  0  0  0
   11.3525  -13.9767   28.7151 C   0  0  0  0  0  0  0  0  0  0  0  0
   11.2483  -15.0604   27.8699 C   0  0  0  0  0  0  0  0  0  0  0  0
   10.0118  -15.6627   27.6965 C   0  0  0  0  0  0  0  0  0  0  0  0
   11.8568  -17.4603   23.9668 C   0  0  0  0  0  0  0  0  0  0  0  0
   11.5150  -18.0045   22.7502 O   0  0  0  0  0  0  0  0  0  0  0  0
   13.0279  -17.5648   24.3755 O   0  0  0  0  0  0  0  0  0  0  0  0
  2  1  1  6
  2  3  1  0
  3  4  1  0
  4  8  1  0
  5  4  2  0
  5  6  1  0
  6  7  1  0
  8  7  2  0
  9  2  1  0
  9 10  2  0
 11 12  1  0
 12 13  1  0
 13 14  1  0
 15 16  1  0
 15 14  1  1
 16  9  1  0
 17 15  1  0
 18 17  2  0
 19 17  1  0
 20 19  1  0
 20 21  1  1
 21 22  1  0
 22 30  1  0
 23 24  1  0
 23 22  2  0
 24 25  1  0
 25 30  2  0
 25 26  1  0
 26 27  2  0
 27 28  1  0
 29 28  2  0
 30 29  1  0
 31 32  1  0
 31 20  1  0
 33 31  2  0
M  END
$$$$
