KAH.pdb
     RDKit          3D

 25 25  0  0  1  0  0  0  0  0999 V2000
   17.9857  -14.5177  -18.5691 N   0  0  0  0  0  0  0  0  0  0  0  0
   17.8075  -13.9100  -17.2355 C   0  0  1  0  0  0  0  0  0  0  0  0
   18.4555  -14.8665  -16.2367 C   0  0  0  0  0  0  0  0  0  0  0  0
   17.7647  -16.1708  -16.1901 C   0  0  0  0  0  0  0  0  0  0  0  0
   18.3735  -17.2303  -15.3358 C   0  0  0  0  0  0  0  0  0  0  0  0
   17.7022  -18.5500  -15.3482 C   0  0  0  0  0  0  0  0  0  0  0  0
   18.3165  -19.5304  -14.5115 N   0  0  0  0  0  0  0  0  0  0  0  0
   18.4325  -12.5743  -17.2301 C   0  0  0  0  0  0  0  0  0  0  0  0
   19.5012  -12.4011  -17.8668 O   0  0  0  0  0  0  0  0  0  0  0  0
   17.5677   -9.1787  -15.9160 C   0  0  0  0  0  0  0  0  0  0  0  0
   18.4906  -10.1957  -16.5734 C   0  0  2  0  0  0  0  0  0  0  0  0
   17.8446  -11.4698  -16.5125 N   0  0  0  0  0  0  0  0  0  0  0  0
   19.8075  -10.1744  -15.9062 C   0  0  0  0  0  0  0  0  0  0  0  0
   20.1607  -11.1961  -15.2653 O   0  0  0  0  0  0  0  0  0  0  0  0
   20.7009   -9.0724  -15.9423 N   0  0  0  0  0  0  0  0  0  0  0  0
   22.0407   -9.1354  -15.3944 C   0  0  1  0  0  0  0  0  0  0  0  0
   22.8226  -10.1532  -16.2057 C   0  0  0  0  0  0  0  0  0  0  0  0
   24.2378  -10.2660  -15.7199 C   0  0  0  0  0  0  0  0  0  0  0  0
   24.7635   -9.6591  -14.6033 C   0  0  0  0  0  0  0  0  0  0  0  0
   26.0577   -9.9929  -14.4920 N   0  0  0  0  0  0  0  0  0  0  0  0
   26.3181  -10.7986  -15.5351 C   0  0  0  0  0  0  0  0  0  0  0  0
   25.2223  -10.9688  -16.2828 N   0  0  0  0  0  0  0  0  0  0  0  0
   22.6518   -7.8012  -15.5122 C   0  0  0  0  0  0  0  0  0  0  0  0
   22.6203   -7.0526  -16.6921 O   0  0  0  0  0  0  0  0  0  0  0  0
   23.2454   -7.2573  -14.5360 O   0  0  0  0  0  0  0  0  0  0  0  0
  2  8  1  0
  2  1  1  6
  3  2  1  0
  4  3  1  0
  5  4  1  0
  5  6  1  0
  6  7  1  0
  8  9  2  0
 11 10  1  1
 12 11  1  0
 12  8  1  0
 13 14  2  0
 13 11  1  0
 15 13  1  0
 16 15  1  0
 16 23  1  0
 16 17  1  6
 18 19  2  0
 18 17  1  0
 20 19  1  0
 21 22  2  0
 21 20  1  0
 22 18  1  0
 23 24  1  0
 25 23  2  0
M  END
$$$$
