KAH.pdb
     RDKit          3D

 25 25  0  0  1  0  0  0  0  0999 V2000
   35.8506  -36.0216   -9.4198 N   0  0  0  0  0  0  0  0  0  0  0  0
   34.4360  -35.8165   -9.7886 C   0  0  1  0  0  0  0  0  0  0  0  0
   34.1952  -36.6453  -11.0486 C   0  0  0  0  0  0  0  0  0  0  0  0
   34.7647  -36.0042  -12.2508 C   0  0  0  0  0  0  0  0  0  0  0  0
   33.9512  -34.9361  -12.8994 C   0  0  0  0  0  0  0  0  0  0  0  0
   34.4887  -34.3758  -14.1601 C   0  0  0  0  0  0  0  0  0  0  0  0
   33.6576  -33.3848  -14.7649 N   0  0  0  0  0  0  0  0  0  0  0  0
   33.5815  -36.2351   -8.6619 C   0  0  0  0  0  0  0  0  0  0  0  0
   32.3617  -36.4493   -8.8713 O   0  0  0  0  0  0  0  0  0  0  0  0
   34.0419  -36.9135   -5.0054 C   0  0  0  0  0  0  0  0  0  0  0  0
   33.2199  -36.7652   -6.2785 C   0  0  2  0  0  0  0  0  0  0  0  0
   34.1154  -36.4023   -7.3324 N   0  0  0  0  0  0  0  0  0  0  0  0
   32.1420  -35.7801   -6.0607 C   0  0  0  0  0  0  0  0  0  0  0  0
   32.4112  -34.5640   -6.2290 O   0  0  0  0  0  0  0  0  0  0  0  0
   30.8196  -36.1191   -5.6730 N   0  0  0  0  0  0  0  0  0  0  0  0
   29.7801  -35.1259   -5.4927 C   0  0  1  0  0  0  0  0  0  0  0  0
   28.8953  -35.1563   -6.7263 C   0  0  0  0  0  0  0  0  0  0  0  0
   27.6483  -34.3472   -6.5222 C   0  0  0  0  0  0  0  0  0  0  0  0
   27.5389  -33.1996   -5.7723 C   0  0  0  0  0  0  0  0  0  0  0  0
   26.2726  -32.7609   -5.8254 N   0  0  0  0  0  0  0  0  0  0  0  0
   25.6149  -33.6369   -6.6034 C   0  0  0  0  0  0  0  0  0  0  0  0
   26.4401  -34.5995   -7.0290 N   0  0  0  0  0  0  0  0  0  0  0  0
   29.0052  -35.4802   -4.2921 C   0  0  0  0  0  0  0  0  0  0  0  0
   28.1266  -34.5921   -3.6654 O   0  0  0  0  0  0  0  0  0  0  0  0
   29.0976  -36.6242   -3.7594 O   0  0  0  0  0  0  0  0  0  0  0  0
  2  8  1  0
  2  1  1  1
  3  2  1  0
  4  3  1  0
  5  4  1  0
  5  6  1  0
  6  7  1  0
  8  9  2  0
 11 10  1  1
 12 11  1  0
 12  8  1  0
 13 14  2  0
 13 11  1  0
 15 13  1  0
 16 15  1  0
 16 23  1  0
 16 17  1  6
 18 19  2  0
 18 17  1  0
 20 19  1  0
 21 22  2  0
 21 20  1  0
 22 18  1  0
 23 24  1  0
 25 23  2  0
M  END
$$$$
