KAH.pdb
     RDKit          3D

 25 25  0  0  1  0  0  0  0  0999 V2000
   21.3122  -14.6910  -16.9349 N   0  0  0  0  0  0  0  0  0  0  0  0
   21.8196  -13.4444  -17.5415 C   0  0  1  0  0  0  0  0  0  0  0  0
   21.0131  -13.2288  -18.8203 C   0  0  0  0  0  0  0  0  0  0  0  0
   21.4460  -14.1300  -19.9070 C   0  0  0  0  0  0  0  0  0  0  0  0
   21.0754  -15.5689  -19.7827 C   0  0  0  0  0  0  0  0  0  0  0  0
   21.4861  -16.4515  -20.8983 C   0  0  0  0  0  0  0  0  0  0  0  0
   21.0978  -17.8166  -20.7421 N   0  0  0  0  0  0  0  0  0  0  0  0
   21.6583  -12.3415  -16.5758 C   0  0  0  0  0  0  0  0  0  0  0  0
   20.5794  -12.2432  -15.9404 O   0  0  0  0  0  0  0  0  0  0  0  0
   23.7698   -9.5385  -15.2680 C   0  0  0  0  0  0  0  0  0  0  0  0
   22.4685  -10.3131  -15.4263 C   0  0  2  0  0  0  0  0  0  0  0  0
   22.7086  -11.3794  -16.3481 N   0  0  0  0  0  0  0  0  0  0  0  0
   21.3951   -9.3961  -15.8584 C   0  0  0  0  0  0  0  0  0  0  0  0
   21.0603   -9.4088  -17.0697 O   0  0  0  0  0  0  0  0  0  0  0  0
   20.7163   -8.5001  -14.9921 N   0  0  0  0  0  0  0  0  0  0  0  0
   19.7228   -7.5580  -15.4661 C   0  0  1  0  0  0  0  0  0  0  0  0
   18.5759   -8.3575  -16.0586 C   0  0  0  0  0  0  0  0  0  0  0  0
   17.4692   -7.4583  -16.5255 C   0  0  0  0  0  0  0  0  0  0  0  0
   16.8815   -6.4495  -15.7985 C   0  0  0  0  0  0  0  0  0  0  0  0
   15.9322   -5.8672  -16.5459 N   0  0  0  0  0  0  0  0  0  0  0  0
   15.9421   -6.5180  -17.7212 C   0  0  0  0  0  0  0  0  0  0  0  0
   16.8691   -7.4820  -17.7170 N   0  0  0  0  0  0  0  0  0  0  0  0
   19.2583   -6.7598  -14.3197 C   0  0  0  0  0  0  0  0  0  0  0  0
   18.7051   -5.4836  -14.4567 O   0  0  0  0  0  0  0  0  0  0  0  0
   19.3379   -7.1961  -13.1346 O   0  0  0  0  0  0  0  0  0  0  0  0
  2  8  1  0
  2  1  1  1
  3  2  1  0
  4  3  1  0
  5  4  1  0
  5  6  1  0
  6  7  1  0
  8  9  2  0
 11 10  1  6
 12 11  1  0
 12  8  1  0
 13 14  2  0
 13 11  1  0
 15 13  1  0
 16 15  1  0
 16 23  1  0
 16 17  1  1
 18 19  2  0
 18 17  1  0
 20 19  1  0
 21 22  2  0
 21 20  1  0
 22 18  1  0
 23 24  1  0
 25 23  2  0
M  END
$$$$
