KAH.pdb
     RDKit          3D

 25 25  0  0  1  0  0  0  0  0999 V2000
   22.5482  -15.6343  -19.7174 N   0  0  0  0  0  0  0  0  0  0  0  0
   21.5475  -15.1385  -20.6828 C   0  0  1  0  0  0  0  0  0  0  0  0
   20.2023  -15.7105  -20.2403 C   0  0  0  0  0  0  0  0  0  0  0  0
   20.0818  -17.1486  -20.5532 C   0  0  0  0  0  0  0  0  0  0  0  0
   18.7356  -17.7679  -20.3881 C   0  0  0  0  0  0  0  0  0  0  0  0
   18.6012  -19.1745  -20.8306 C   0  0  0  0  0  0  0  0  0  0  0  0
   17.3009  -19.7310  -20.6352 N   0  0  0  0  0  0  0  0  0  0  0  0
   21.5665  -13.6639  -20.6779 C   0  0  0  0  0  0  0  0  0  0  0  0
   21.7701  -13.0625  -19.5942 O   0  0  0  0  0  0  0  0  0  0  0  0
   21.5794  -10.9454  -23.2268 C   0  0  0  0  0  0  0  0  0  0  0  0
   21.4079  -11.4763  -21.8101 C   0  0  2  0  0  0  0  0  0  0  0  0
   21.3573  -12.9032  -21.8855 N   0  0  0  0  0  0  0  0  0  0  0  0
   20.2038  -10.8791  -21.1992 C   0  0  0  0  0  0  0  0  0  0  0  0
   19.1994  -11.6160  -21.0327 O   0  0  0  0  0  0  0  0  0  0  0  0
   20.1080   -9.5244  -20.7874 N   0  0  0  0  0  0  0  0  0  0  0  0
   18.9018   -8.9677  -20.2090 C   0  0  1  0  0  0  0  0  0  0  0  0
   18.5961   -9.7475  -18.9424 C   0  0  0  0  0  0  0  0  0  0  0  0
   17.4049   -9.1804  -18.2277 C   0  0  0  0  0  0  0  0  0  0  0  0
   16.6134   -8.1442  -18.6651 C   0  0  0  0  0  0  0  0  0  0  0  0
   15.6482   -7.9191  -17.7614 N   0  0  0  0  0  0  0  0  0  0  0  0
   15.8513   -8.8134  -16.7795 C   0  0  0  0  0  0  0  0  0  0  0  0
   16.9122   -9.5802  -17.0541 N   0  0  0  0  0  0  0  0  0  0  0  0
   19.1502   -7.5508  -19.8961 C   0  0  0  0  0  0  0  0  0  0  0  0
   18.1278   -6.6523  -19.5784 O   0  0  0  0  0  0  0  0  0  0  0  0
   20.3199   -7.0682  -19.8994 O   0  0  0  0  0  0  0  0  0  0  0  0
  2  8  1  0
  2  1  1  1
  3  2  1  0
  4  3  1  0
  5  4  1  0
  5  6  1  0
  6  7  1  0
  8  9  2  0
 11 10  1  6
 12 11  1  0
 12  8  1  0
 13 14  2  0
 13 11  1  0
 15 13  1  0
 16 15  1  0
 16 23  1  0
 16 17  1  1
 18 19  2  0
 18 17  1  0
 20 19  1  0
 21 22  2  0
 21 20  1  0
 22 18  1  0
 23 24  1  0
 25 23  2  0
M  END
$$$$
