KAH.pdb
     RDKit          3D

 25 25  0  0  1  0  0  0  0  0999 V2000
   16.9195  -12.9993  -16.8162 N   0  0  0  0  0  0  0  0  0  0  0  0
   18.1322  -12.4996  -16.1386 C   0  0  1  0  0  0  0  0  0  0  0  0
   19.2806  -13.3976  -16.5941 C   0  0  0  0  0  0  0  0  0  0  0  0
   19.1851  -14.7540  -16.0184 C   0  0  0  0  0  0  0  0  0  0  0  0
   20.2374  -15.7338  -16.4133 C   0  0  0  0  0  0  0  0  0  0  0  0
   20.1113  -17.0964  -15.8479 C   0  0  0  0  0  0  0  0  0  0  0  0
   21.1244  -18.0070  -16.2758 N   0  0  0  0  0  0  0  0  0  0  0  0
   18.3375  -11.0858  -16.5047 C   0  0  0  0  0  0  0  0  0  0  0  0
   18.1258  -10.7282  -17.6899 O   0  0  0  0  0  0  0  0  0  0  0  0
   17.7976   -7.9526  -15.2764 C   0  0  0  0  0  0  0  0  0  0  0  0
   18.9074   -8.7496  -15.9483 C   0  0  2  0  0  0  0  0  0  0  0  0
   18.7739  -10.1117  -15.5345 N   0  0  0  0  0  0  0  0  0  0  0  0
   20.2173   -8.1598  -15.6079 C   0  0  0  0  0  0  0  0  0  0  0  0
   20.6950   -8.4005  -14.4706 O   0  0  0  0  0  0  0  0  0  0  0  0
   20.9725   -7.3376  -16.4840 N   0  0  0  0  0  0  0  0  0  0  0  0
   22.1919   -6.6719  -16.0726 C   0  0  1  0  0  0  0  0  0  0  0  0
   22.8411   -6.0904  -17.3160 C   0  0  0  0  0  0  0  0  0  0  0  0
   24.0956   -5.3409  -16.9757 C   0  0  0  0  0  0  0  0  0  0  0  0
   25.0772   -5.7539  -16.1055 C   0  0  0  0  0  0  0  0  0  0  0  0
   26.0411   -4.8225  -16.0589 N   0  0  0  0  0  0  0  0  0  0  0  0
   25.6482   -3.8480  -16.8962 C   0  0  0  0  0  0  0  0  0  0  0  0
   24.4722   -4.1540  -17.4548 N   0  0  0  0  0  0  0  0  0  0  0  0
   21.8378   -5.6015  -15.1259 C   0  0  0  0  0  0  0  0  0  0  0  0
   22.6183   -5.2846  -14.0106 O   0  0  0  0  0  0  0  0  0  0  0  0
   20.7927   -4.9043  -15.2770 O   0  0  0  0  0  0  0  0  0  0  0  0
  2  8  1  0
  2  1  1  6
  3  2  1  0
  4  3  1  0
  5  4  1  0
  5  6  1  0
  6  7  1  0
  8  9  2  0
 11 10  1  1
 12 11  1  0
 12  8  1  0
 13 14  2  0
 13 11  1  0
 15 13  1  0
 16 15  1  0
 16 23  1  0
 16 17  1  6
 18 19  2  0
 18 17  1  0
 20 19  1  0
 21 22  2  0
 21 20  1  0
 22 18  1  0
 23 24  1  0
 25 23  2  0
M  END
$$$$
