KAH.pdb
     RDKit          3D

 25 25  0  0  1  0  0  0  0  0999 V2000
   27.1389  -25.1275  -15.9335 N   0  0  0  0  0  0  0  0  0  0  0  0
   26.4750  -25.5143  -17.1941 C   0  0  1  0  0  0  0  0  0  0  0  0
   26.6799  -24.3514  -18.1627 C   0  0  0  0  0  0  0  0  0  0  0  0
   26.0451  -23.1090  -17.6790 C   0  0  0  0  0  0  0  0  0  0  0  0
   24.5655  -23.0011  -17.8278 C   0  0  0  0  0  0  0  0  0  0  0  0
   23.9632  -21.6960  -17.4725 C   0  0  0  0  0  0  0  0  0  0  0  0
   22.5390  -21.6598  -17.5678 N   0  0  0  0  0  0  0  0  0  0  0  0
   27.0702  -26.7719  -17.6829 C   0  0  0  0  0  0  0  0  0  0  0  0
   26.6324  -27.2785  -18.7456 O   0  0  0  0  0  0  0  0  0  0  0  0
   30.1035  -28.7691  -17.1144 C   0  0  0  0  0  0  0  0  0  0  0  0
   28.6251  -28.6766  -17.4669 C   0  0  2  0  0  0  0  0  0  0  0  0
   28.1386  -27.4276  -16.9693 N   0  0  0  0  0  0  0  0  0  0  0  0
   27.9100  -29.8450  -16.9162 C   0  0  0  0  0  0  0  0  0  0  0  0
   27.7604  -29.9115  -15.6701 O   0  0  0  0  0  0  0  0  0  0  0  0
   27.3802  -30.8990  -17.7050 N   0  0  0  0  0  0  0  0  0  0  0  0
   26.7101  -32.0460  -17.1266 C   0  0  1  0  0  0  0  0  0  0  0  0
   25.3284  -32.1349  -17.7502 C   0  0  0  0  0  0  0  0  0  0  0  0
   24.3706  -31.1879  -17.0892 C   0  0  0  0  0  0  0  0  0  0  0  0
   24.6069  -30.4606  -15.9461 C   0  0  0  0  0  0  0  0  0  0  0  0
   23.5202  -29.7281  -15.6608 N   0  0  0  0  0  0  0  0  0  0  0  0
   22.6274  -30.0081  -16.6250 C   0  0  0  0  0  0  0  0  0  0  0  0
   23.1342  -30.8904  -17.4930 N   0  0  0  0  0  0  0  0  0  0  0  0
   27.4976  -33.2492  -17.4419 C   0  0  0  0  0  0  0  0  0  0  0  0
   28.6610  -33.2147  -18.2157 O   0  0  0  0  0  0  0  0  0  0  0  0
   27.1551  -34.3925  -17.0215 O   0  0  0  0  0  0  0  0  0  0  0  0
  2  8  1  0
  2  1  1  1
  3  2  1  0
  4  3  1  0
  5  4  1  0
  5  6  1  0
  6  7  1  0
  8  9  2  0
 11 10  1  1
 12 11  1  0
 12  8  1  0
 13 14  2  0
 13 11  1  0
 15 13  1  0
 16 15  1  0
 16 23  1  0
 16 17  1  6
 18 19  2  0
 18 17  1  0
 20 19  1  0
 21 22  2  0
 21 20  1  0
 22 18  1  0
 23 24  1  0
 25 23  2  0
M  END
$$$$
