KAH.pdb
     RDKit          3D

 25 25  0  0  1  0  0  0  0  0999 V2000
   26.1252  -20.5756  -20.9105 N   0  0  0  0  0  0  0  0  0  0  0  0
   26.0997  -21.8786  -20.2171 C   0  0  1  0  0  0  0  0  0  0  0  0
   26.6025  -22.9115  -21.2235 C   0  0  0  0  0  0  0  0  0  0  0  0
   25.6475  -24.0240  -21.3996 C   0  0  0  0  0  0  0  0  0  0  0  0
   26.0543  -25.1283  -22.3151 C   0  0  0  0  0  0  0  0  0  0  0  0
   25.1056  -26.2578  -22.4436 C   0  0  0  0  0  0  0  0  0  0  0  0
   25.5750  -27.3303  -23.2611 N   0  0  0  0  0  0  0  0  0  0  0  0
   26.9490  -21.7979  -19.0142 C   0  0  0  0  0  0  0  0  0  0  0  0
   27.9589  -21.0513  -19.0324 O   0  0  0  0  0  0  0  0  0  0  0  0
   26.6296  -22.4249  -15.4445 C   0  0  0  0  0  0  0  0  0  0  0  0
   27.5047  -22.4175  -16.6904 C   0  0  2  0  0  0  0  0  0  0  0  0
   26.6449  -22.5548  -17.8245 N   0  0  0  0  0  0  0  0  0  0  0  0
   28.5180  -23.4867  -16.5910 C   0  0  0  0  0  0  0  0  0  0  0  0
   29.2585  -23.5051  -15.5756 O   0  0  0  0  0  0  0  0  0  0  0  0
   28.7095  -24.4961  -17.5699 N   0  0  0  0  0  0  0  0  0  0  0  0
   29.7274  -25.5199  -17.4468 C   0  0  1  0  0  0  0  0  0  0  0  0
   29.3930  -26.3571  -16.2249 C   0  0  0  0  0  0  0  0  0  0  0  0
   28.6474  -27.6024  -16.6053 C   0  0  0  0  0  0  0  0  0  0  0  0
   28.2429  -27.9511  -17.8727 C   0  0  0  0  0  0  0  0  0  0  0  0
   27.6063  -29.1305  -17.8201 N   0  0  0  0  0  0  0  0  0  0  0  0
   27.6234  -29.4974  -16.5277 C   0  0  0  0  0  0  0  0  0  0  0  0
   28.2513  -28.5783  -15.7863 N   0  0  0  0  0  0  0  0  0  0  0  0
   29.7001  -26.3479  -18.6637 C   0  0  0  0  0  0  0  0  0  0  0  0
   30.6968  -27.2777  -18.9726 O   0  0  0  0  0  0  0  0  0  0  0  0
   28.7582  -26.2576  -19.5039 O   0  0  0  0  0  0  0  0  0  0  0  0
  2  8  1  0
  2  1  1  6
  3  2  1  0
  4  3  1  0
  5  4  1  0
  5  6  1  0
  6  7  1  0
  8  9  2  0
 11 10  1  1
 12 11  1  0
 12  8  1  0
 13 14  2  0
 13 11  1  0
 15 13  1  0
 16 15  1  0
 16 23  1  0
 16 17  1  1
 18 19  2  0
 18 17  1  0
 20 19  1  0
 21 22  2  0
 21 20  1  0
 22 18  1  0
 23 24  1  0
 25 23  2  0
M  END
$$$$
