KAH.pdb
     RDKit          3D

 25 25  0  0  1  0  0  0  0  0999 V2000
   22.2896  -15.2456  -17.6301 N   0  0  0  0  0  0  0  0  0  0  0  0
   22.5311  -13.8918  -18.1672 C   0  0  1  0  0  0  0  0  0  0  0  0
   21.5527  -13.7075  -19.3254 C   0  0  0  0  0  0  0  0  0  0  0  0
   22.2051  -13.8950  -20.6368 C   0  0  0  0  0  0  0  0  0  0  0  0
   21.3574  -13.7061  -21.8488 C   0  0  0  0  0  0  0  0  0  0  0  0
   22.0359  -13.8632  -23.1555 C   0  0  0  0  0  0  0  0  0  0  0  0
   21.2310  -13.5139  -24.2820 N   0  0  0  0  0  0  0  0  0  0  0  0
   22.3276  -12.9055  -17.0898 C   0  0  0  0  0  0  0  0  0  0  0  0
   21.1821  -12.7789  -16.5904 O   0  0  0  0  0  0  0  0  0  0  0  0
   24.4588  -10.6397  -15.0248 C   0  0  0  0  0  0  0  0  0  0  0  0
   23.1288  -11.1100  -15.5977 C   0  0  2  0  0  0  0  0  0  0  0  0
   23.4113  -12.0886  -16.6011 N   0  0  0  0  0  0  0  0  0  0  0  0
   22.3708   -9.9502  -16.1077 C   0  0  0  0  0  0  0  0  0  0  0  0
   22.6394   -9.5311  -17.2618 O   0  0  0  0  0  0  0  0  0  0  0  0
   21.3570   -9.2776  -15.3772 N   0  0  0  0  0  0  0  0  0  0  0  0
   20.6290   -8.1454  -15.9134 C   0  0  1  0  0  0  0  0  0  0  0  0
   19.2562   -8.1317  -15.2646 C   0  0  0  0  0  0  0  0  0  0  0  0
   18.4892   -6.8976  -15.6389 C   0  0  0  0  0  0  0  0  0  0  0  0
   18.8799   -5.9440  -16.5497 C   0  0  0  0  0  0  0  0  0  0  0  0
   17.9381   -4.9915  -16.6175 N   0  0  0  0  0  0  0  0  0  0  0  0
   16.9795   -5.3635  -15.7527 C   0  0  0  0  0  0  0  0  0  0  0  0
   17.3053   -6.5155  -15.1567 N   0  0  0  0  0  0  0  0  0  0  0  0
   21.3707   -6.9184  -15.5794 C   0  0  0  0  0  0  0  0  0  0  0  0
   21.3839   -5.7902  -16.4043 O   0  0  0  0  0  0  0  0  0  0  0  0
   22.0437   -6.8225  -14.5122 O   0  0  0  0  0  0  0  0  0  0  0  0
  2  8  1  0
  2  1  1  1
  3  2  1  0
  4  3  1  0
  5  4  1  0
  5  6  1  0
  6  7  1  0
  8  9  2  0
 11 10  1  6
 12 11  1  0
 12  8  1  0
 13 14  2  0
 13 11  1  0
 15 13  1  0
 16 15  1  0
 16 23  1  0
 16 17  1  1
 18 19  2  0
 18 17  1  0
 20 19  1  0
 21 22  2  0
 21 20  1  0
 22 18  1  0
 23 24  1  0
 25 23  2  0
M  END
$$$$
