KAH.pdb
     RDKit          3D

 25 25  0  0  1  0  0  0  0  0999 V2000
   22.9267  -20.4252  -13.7528 N   0  0  0  0  0  0  0  0  0  0  0  0
   22.0734  -19.9192  -12.6596 C   0  0  1  0  0  0  0  0  0  0  0  0
   20.8430  -19.3044  -13.3235 C   0  0  0  0  0  0  0  0  0  0  0  0
   20.6820  -19.7577  -14.7196 C   0  0  0  0  0  0  0  0  0  0  0  0
   19.9952  -21.0637  -14.9334 C   0  0  0  0  0  0  0  0  0  0  0  0
   19.8154  -21.4884  -16.3404 C   0  0  0  0  0  0  0  0  0  0  0  0
   19.2991  -22.8107  -16.4944 N   0  0  0  0  0  0  0  0  0  0  0  0
   21.7339  -21.0373  -11.7599 C   0  0  0  0  0  0  0  0  0  0  0  0
   21.6964  -22.2027  -12.2266 O   0  0  0  0  0  0  0  0  0  0  0  0
   21.1083  -21.4994   -8.1036 C   0  0  0  0  0  0  0  0  0  0  0  0
   21.0819  -21.9451   -9.5592 C   0  0  2  0  0  0  0  0  0  0  0  0
   21.4459  -20.8203  -10.3633 N   0  0  0  0  0  0  0  0  0  0  0  0
   19.7501  -22.4922   -9.8862 C   0  0  0  0  0  0  0  0  0  0  0  0
   18.8770  -21.6994  -10.3206 O   0  0  0  0  0  0  0  0  0  0  0  0
   19.3925  -23.8579   -9.7411 N   0  0  0  0  0  0  0  0  0  0  0  0
   18.0411  -24.3373   -9.9488 C   0  0  1  0  0  0  0  0  0  0  0  0
   18.1085  -25.8445  -10.1204 C   0  0  0  0  0  0  0  0  0  0  0  0
   16.7476  -26.4259  -10.3679 C   0  0  0  0  0  0  0  0  0  0  0  0
   15.5547  -25.7422  -10.3359 C   0  0  0  0  0  0  0  0  0  0  0  0
   14.5546  -26.5940  -10.6062 N   0  0  0  0  0  0  0  0  0  0  0  0
   15.1357  -27.7895  -10.8015 C   0  0  0  0  0  0  0  0  0  0  0  0
   16.4623  -27.6963  -10.6591 N   0  0  0  0  0  0  0  0  0  0  0  0
   17.2391  -23.9874   -8.7649 C   0  0  0  0  0  0  0  0  0  0  0  0
   17.8083  -23.5845   -7.5536 O   0  0  0  0  0  0  0  0  0  0  0  0
   15.9748  -24.0348   -8.7851 O   0  0  0  0  0  0  0  0  0  0  0  0
  2  8  1  0
  2  1  1  6
  3  2  1  0
  4  3  1  0
  5  4  1  0
  5  6  1  0
  6  7  1  0
  8  9  2  0
 11 10  1  1
 12 11  1  0
 12  8  1  0
 13 14  2  0
 13 11  1  0
 15 13  1  0
 16 15  1  0
 16 23  1  0
 16 17  1  1
 18 19  2  0
 18 17  1  0
 20 19  1  0
 21 22  2  0
 21 20  1  0
 22 18  1  0
 23 24  1  0
 25 23  2  0
M  END
$$$$
