KAH.pdb
     RDKit          3D

 25 25  0  0  1  0  0  0  0  0999 V2000
   17.8619  -25.2158   -5.1992 N   0  0  0  0  0  0  0  0  0  0  0  0
   16.3905  -25.1069   -5.2514 C   0  0  1  0  0  0  0  0  0  0  0  0
   15.8522  -26.5360   -5.2297 C   0  0  0  0  0  0  0  0  0  0  0  0
   16.1534  -27.2606   -6.4806 C   0  0  0  0  0  0  0  0  0  0  0  0
   15.5302  -28.6041   -6.6528 C   0  0  0  0  0  0  0  0  0  0  0  0
   15.8696  -29.3307   -7.8975 C   0  0  0  0  0  0  0  0  0  0  0  0
   15.2192  -30.5941   -8.0371 N   0  0  0  0  0  0  0  0  0  0  0  0
   15.9279  -24.3085   -4.1010 C   0  0  0  0  0  0  0  0  0  0  0  0
   16.6745  -24.2008   -3.0967 O   0  0  0  0  0  0  0  0  0  0  0  0
   13.3071  -21.7990   -3.4283 C   0  0  0  0  0  0  0  0  0  0  0  0
   14.2634  -22.8873   -2.9600 C   0  0  2  0  0  0  0  0  0  0  0  0
   14.6431  -23.6528   -4.1063 N   0  0  0  0  0  0  0  0  0  0  0  0
   13.6183  -23.6938   -1.9048 C   0  0  0  0  0  0  0  0  0  0  0  0
   12.9890  -24.7248   -2.2519 O   0  0  0  0  0  0  0  0  0  0  0  0
   13.6636  -23.3786   -0.5218 N   0  0  0  0  0  0  0  0  0  0  0  0
   13.0224  -24.1976    0.4868 C   0  0  1  0  0  0  0  0  0  0  0  0
   14.0335  -24.4413    1.5932 C   0  0  0  0  0  0  0  0  0  0  0  0
   15.0426  -25.4761    1.1905 C   0  0  0  0  0  0  0  0  0  0  0  0
   14.7862  -26.6287    0.4855 C   0  0  0  0  0  0  0  0  0  0  0  0
   15.9337  -27.3019    0.3148 N   0  0  0  0  0  0  0  0  0  0  0  0
   16.8831  -26.5629    0.9129 C   0  0  0  0  0  0  0  0  0  0  0  0
   16.3522  -25.4568    1.4451 N   0  0  0  0  0  0  0  0  0  0  0  0
   11.8560  -23.4640    1.0052 C   0  0  0  0  0  0  0  0  0  0  0  0
   10.8329  -24.0794    1.7320 O   0  0  0  0  0  0  0  0  0  0  0  0
   11.7193  -22.2205    0.8156 O   0  0  0  0  0  0  0  0  0  0  0  0
  2  8  1  0
  2  1  1  1
  3  2  1  0
  4  3  1  0
  5  4  1  0
  5  6  1  0
  6  7  1  0
  8  9  2  0
 11 10  1  6
 12 11  1  0
 12  8  1  0
 13 14  2  0
 13 11  1  0
 15 13  1  0
 16 15  1  0
 16 23  1  0
 16 17  1  1
 18 19  2  0
 18 17  1  0
 20 19  1  0
 21 22  2  0
 21 20  1  0
 22 18  1  0
 23 24  1  0
 25 23  2  0
M  END
$$$$
