KAH.pdb
     RDKit          3D

 25 25  0  0  1  0  0  0  0  0999 V2000
   26.1295  -21.4297  -18.5005 N   0  0  0  0  0  0  0  0  0  0  0  0
   25.1879  -22.0665  -17.5586 C   0  0  1  0  0  0  0  0  0  0  0  0
   25.6636  -23.5071  -17.3826 C   0  0  0  0  0  0  0  0  0  0  0  0
   27.1264  -23.6310  -17.5417 C   0  0  0  0  0  0  0  0  0  0  0  0
   27.8264  -24.5967  -16.6470 C   0  0  0  0  0  0  0  0  0  0  0  0
   27.3352  -25.9932  -16.6758 C   0  0  0  0  0  0  0  0  0  0  0  0
   28.0650  -26.8910  -15.8391 N   0  0  0  0  0  0  0  0  0  0  0  0
   25.1903  -21.3093  -16.2932 C   0  0  0  0  0  0  0  0  0  0  0  0
   26.1560  -20.5459  -16.0438 O   0  0  0  0  0  0  0  0  0  0  0  0
   22.5776  -20.2602  -13.9403 C   0  0  0  0  0  0  0  0  0  0  0  0
   24.0475  -20.4891  -14.2649 C   0  0  2  0  0  0  0  0  0  0  0  0
   24.1122  -21.4271  -15.3421 N   0  0  0  0  0  0  0  0  0  0  0  0
   24.7587  -20.9401  -13.0522 C   0  0  0  0  0  0  0  0  0  0  0  0
   24.4832  -22.0782  -12.5956 O   0  0  0  0  0  0  0  0  0  0  0  0
   25.7347  -20.1696  -12.3684 N   0  0  0  0  0  0  0  0  0  0  0  0
   26.1158  -20.4331  -10.9955 C   0  0  1  0  0  0  0  0  0  0  0  0
   26.6206  -19.1307  -10.3998 C   0  0  0  0  0  0  0  0  0  0  0  0
   27.0756  -19.3203   -8.9826 C   0  0  0  0  0  0  0  0  0  0  0  0
   27.2439  -20.5235   -8.3381 C   0  0  0  0  0  0  0  0  0  0  0  0
   27.6603  -20.2939   -7.0840 N   0  0  0  0  0  0  0  0  0  0  0  0
   27.7450  -18.9583   -6.9660 C   0  0  0  0  0  0  0  0  0  0  0  0
   27.3930  -18.3620   -8.1102 N   0  0  0  0  0  0  0  0  0  0  0  0
   24.9269  -20.9073  -10.2683 C   0  0  0  0  0  0  0  0  0  0  0  0
   23.7114  -20.2172  -10.2673 O   0  0  0  0  0  0  0  0  0  0  0  0
   24.9463  -21.9800   -9.5975 O   0  0  0  0  0  0  0  0  0  0  0  0
  2  8  1  0
  2  1  1  6
  3  2  1  0
  4  3  1  0
  5  4  1  0
  5  6  1  0
  6  7  1  0
  8  9  2  0
 11 10  1  1
 12 11  1  0
 12  8  1  0
 13 14  2  0
 13 11  1  0
 15 13  1  0
 16 15  1  0
 16 23  1  0
 16 17  1  1
 18 19  2  0
 18 17  1  0
 20 19  1  0
 21 22  2  0
 21 20  1  0
 22 18  1  0
 23 24  1  0
 25 23  2  0
M  END
$$$$
