KAH.pdb
     RDKit          3D

 25 25  0  0  1  0  0  0  0  0999 V2000
   26.6383  -23.7433  -15.5500 N   0  0  0  0  0  0  0  0  0  0  0  0
   25.1985  -23.9886  -15.7647 C   0  0  1  0  0  0  0  0  0  0  0  0
   25.0422  -25.4961  -15.9531 C   0  0  0  0  0  0  0  0  0  0  0  0
   26.0175  -26.0376  -16.9207 C   0  0  0  0  0  0  0  0  0  0  0  0
   27.2015  -26.7515  -16.3626 C   0  0  0  0  0  0  0  0  0  0  0  0
   28.1478  -27.3234  -17.3474 C   0  0  0  0  0  0  0  0  0  0  0  0
   29.2672  -26.4874  -17.6418 N   0  0  0  0  0  0  0  0  0  0  0  0
   24.4472  -23.4810  -14.6016 C   0  0  0  0  0  0  0  0  0  0  0  0
   23.2185  -23.7277  -14.5173 O   0  0  0  0  0  0  0  0  0  0  0  0
   25.3004  -21.8540  -11.3513 C   0  0  0  0  0  0  0  0  0  0  0  0
   24.3266  -22.3413  -12.4156 C   0  0  2  0  0  0  0  0  0  0  0  0
   25.0914  -22.7116  -13.5654 N   0  0  0  0  0  0  0  0  0  0  0  0
   23.3266  -21.2906  -12.6909 C   0  0  0  0  0  0  0  0  0  0  0  0
   22.5007  -21.0104  -11.7859 O   0  0  0  0  0  0  0  0  0  0  0  0
   23.2382  -20.5761  -13.9138 N   0  0  0  0  0  0  0  0  0  0  0  0
   22.2031  -19.5956  -14.1720 C   0  0  1  0  0  0  0  0  0  0  0  0
   22.6826  -18.7078  -15.3067 C   0  0  0  0  0  0  0  0  0  0  0  0
   21.6196  -17.7340  -15.7229 C   0  0  0  0  0  0  0  0  0  0  0  0
   20.3839  -17.5823  -15.1385 C   0  0  0  0  0  0  0  0  0  0  0  0
   19.7108  -16.6170  -15.7820 N   0  0  0  0  0  0  0  0  0  0  0  0
   20.5325  -16.1837  -16.7527 C   0  0  0  0  0  0  0  0  0  0  0  0
   21.6892  -16.8544  -16.7237 N   0  0  0  0  0  0  0  0  0  0  0  0
   20.9753  -20.3101  -14.5584 C   0  0  0  0  0  0  0  0  0  0  0  0
   20.9877  -21.5048  -15.2836 O   0  0  0  0  0  0  0  0  0  0  0  0
   19.8296  -19.8712  -14.2486 O   0  0  0  0  0  0  0  0  0  0  0  0
  2  8  1  0
  2  1  1  1
  3  2  1  0
  4  3  1  0
  5  4  1  0
  5  6  1  0
  6  7  1  0
  8  9  2  0
 11 10  1  1
 12 11  1  0
 12  8  1  0
 13 14  2  0
 13 11  1  0
 15 13  1  0
 16 15  1  0
 16 23  1  0
 16 17  1  6
 18 19  2  0
 18 17  1  0
 20 19  1  0
 21 22  2  0
 21 20  1  0
 22 18  1  0
 23 24  1  0
 25 23  2  0
M  END
$$$$
