GVN.pdb
     RDKit          3D

 20 19  0  0  1  0  0  0  0  0999 V2000
   17.0471  -13.1285  -13.3855 N   0  0  0  0  0  0  0  0  0  0  0  0
   16.8870  -12.7666  -11.9917 C   0  0  0  0  0  0  0  0  0  0  0  0
   15.9903  -11.6127  -11.9056 C   0  0  0  0  0  0  0  0  0  0  0  0
   15.9569  -10.7476  -12.8105 O   0  0  0  0  0  0  0  0  0  0  0  0
   13.2561  -11.0974   -8.6121 C   0  0  0  0  0  0  0  0  0  0  0  0
   13.0425  -10.5251   -9.9930 C   0  0  1  0  0  0  0  0  0  0  0  0
   12.0930   -9.3561   -9.9360 C   0  0  0  0  0  0  0  0  0  0  0  0
   14.3446  -10.1876  -10.6795 C   0  0  2  0  0  0  0  0  0  0  0  0
   15.1008  -11.3903  -10.8015 N   0  0  0  0  0  0  0  0  0  0  0  0
   15.0589   -9.0745  -10.0653 C   0  0  0  0  0  0  0  0  0  0  0  0
   15.7768   -9.2510   -9.0505 O   0  0  0  0  0  0  0  0  0  0  0  0
   17.5947   -4.9811   -8.2172 N   0  0  0  0  0  0  0  0  0  0  0  0
   17.7470   -5.4389   -9.5434 C   0  0  0  0  0  0  0  0  0  0  0  0
   18.4488   -4.7789  -10.3339 O   0  0  0  0  0  0  0  0  0  0  0  0
   17.0926   -6.6771  -10.0031 C   0  0  0  0  0  0  0  0  0  0  0  0
   15.6059   -6.6088  -10.0662 C   0  0  2  0  0  0  0  0  0  0  0  0
   14.9638   -7.7675  -10.5935 N   0  0  0  0  0  0  0  0  0  0  0  0
   15.1681   -5.3672  -10.7431 C   0  0  0  0  0  0  0  0  0  0  0  0
   14.9260   -5.3336  -12.1086 O   0  0  0  0  0  0  0  0  0  0  0  0
   15.0122   -4.3307  -10.0825 O   0  0  0  0  0  0  0  0  0  0  0  0
  2  1  1  0
  3  9  1  0
  3  2  1  0
  4  3  2  0
  6  5  1  1
  6  8  1  0
  7  6  1  0
  8 10  1  0
  8  9  1  1
 10 11  2  0
 13 12  1  0
 14 13  2  0
 15 13  1  0
 16 15  1  6
 17 16  1  0
 17 10  1  0
 18 19  1  0
 18 16  1  0
 20 18  2  0
M  END
$$$$
