GVN.pdb
     RDKit          3D

 20 19  0  0  1  0  0  0  0  0999 V2000
   21.9439  -11.3778  -20.4087 N   0  0  0  0  0  0  0  0  0  0  0  0
   22.8792  -10.9311  -19.3962 C   0  0  0  0  0  0  0  0  0  0  0  0
   22.1241  -10.3961  -18.2620 C   0  0  0  0  0  0  0  0  0  0  0  0
   20.9050  -10.1279  -18.3623 O   0  0  0  0  0  0  0  0  0  0  0  0
   23.7487  -10.2817  -14.3417 C   0  0  0  0  0  0  0  0  0  0  0  0
   22.2712  -10.2092  -14.6443 C   0  0  1  0  0  0  0  0  0  0  0  0
   21.5234   -9.6246  -13.4736 C   0  0  0  0  0  0  0  0  0  0  0  0
   21.9878   -9.4856  -15.9392 C   0  0  2  0  0  0  0  0  0  0  0  0
   22.7112  -10.1438  -16.9768 N   0  0  0  0  0  0  0  0  0  0  0  0
   22.2000   -8.0449  -15.8633 C   0  0  0  0  0  0  0  0  0  0  0  0
   23.3565   -7.5599  -15.9222 O   0  0  0  0  0  0  0  0  0  0  0  0
   21.3723   -2.9059  -15.7949 N   0  0  0  0  0  0  0  0  0  0  0  0
   21.5651   -3.6257  -16.9934 C   0  0  0  0  0  0  0  0  0  0  0  0
   21.8500   -3.0018  -18.0340 O   0  0  0  0  0  0  0  0  0  0  0  0
   21.4352   -5.0934  -17.0314 C   0  0  0  0  0  0  0  0  0  0  0  0
   21.1985   -5.7316  -15.7063 C   0  0  2  0  0  0  0  0  0  0  0  0
   21.1120   -7.1547  -15.7215 N   0  0  0  0  0  0  0  0  0  0  0  0
   20.0434   -5.1060  -15.0238 C   0  0  0  0  0  0  0  0  0  0  0  0
   18.9452   -5.8544  -14.6261 O   0  0  0  0  0  0  0  0  0  0  0  0
   20.0499   -3.8876  -14.7992 O   0  0  0  0  0  0  0  0  0  0  0  0
  2  1  1  0
  3  9  1  0
  3  2  1  0
  4  3  2  0
  6  5  1  1
  6  8  1  0
  7  6  1  0
  8 10  1  0
  8  9  1  6
 10 11  2  0
 13 12  1  0
 14 13  2  0
 15 13  1  0
 16 15  1  6
 17 16  1  0
 17 10  1  0
 18 19  1  0
 18 16  1  0
 20 18  2  0
M  END
$$$$
