GVN.pdb
     RDKit          3D

 20 19  0  0  1  0  0  0  0  0999 V2000
   27.2976  -25.4690  -17.1066 N   0  0  0  0  0  0  0  0  0  0  0  0
   28.6747  -25.8390  -16.8499 C   0  0  0  0  0  0  0  0  0  0  0  0
   28.9436  -27.1259  -17.4936 C   0  0  0  0  0  0  0  0  0  0  0  0
   28.0220  -27.7989  -18.0094 O   0  0  0  0  0  0  0  0  0  0  0  0
   32.9114  -28.7595  -17.6244 C   0  0  0  0  0  0  0  0  0  0  0  0
   31.8880  -29.0074  -18.7065 C   0  0  1  0  0  0  0  0  0  0  0  0
   32.2063  -30.2799  -19.4488 C   0  0  0  0  0  0  0  0  0  0  0  0
   30.4750  -28.9791  -18.1741 C   0  0  2  0  0  0  0  0  0  0  0  0
   30.2555  -27.7015  -17.5803 N   0  0  0  0  0  0  0  0  0  0  0  0
   30.1480  -30.1156  -17.3209 C   0  0  0  0  0  0  0  0  0  0  0  0
   30.5856  -30.1863  -16.1462 O   0  0  0  0  0  0  0  0  0  0  0  0
   28.6817  -33.1745  -14.3369 N   0  0  0  0  0  0  0  0  0  0  0  0
   27.5752  -32.5032  -14.8996 C   0  0  0  0  0  0  0  0  0  0  0  0
   26.5787  -32.2769  -14.1863 O   0  0  0  0  0  0  0  0  0  0  0  0
   27.5815  -32.0694  -16.3083 C   0  0  0  0  0  0  0  0  0  0  0  0
   28.8754  -32.2759  -17.0171 C   0  0  2  0  0  0  0  0  0  0  0  0
   29.3308  -31.1681  -17.7906 N   0  0  0  0  0  0  0  0  0  0  0  0
   28.8483  -33.5330  -17.7985 C   0  0  0  0  0  0  0  0  0  0  0  0
   28.9090  -34.7724  -17.1784 O   0  0  0  0  0  0  0  0  0  0  0  0
   28.7699  -33.4856  -19.0341 O   0  0  0  0  0  0  0  0  0  0  0  0
  2  1  1  0
  3  9  1  0
  3  2  1  0
  4  3  2  0
  6  5  1  1
  6  8  1  0
  7  6  1  0
  8 10  1  0
  8  9  1  1
 10 11  2  0
 13 12  1  0
 14 13  2  0
 15 13  1  0
 16 15  1  6
 17 16  1  0
 17 10  1  0
 18 19  1  0
 18 16  1  0
 20 18  2  0
M  END
$$$$
