GVN.pdb
     RDKit          3D

 20 19  0  0  1  0  0  0  0  0999 V2000
   27.2340  -36.4374  -11.3141 N   0  0  0  0  0  0  0  0  0  0  0  0
   26.1250  -35.8257  -10.6103 C   0  0  0  0  0  0  0  0  0  0  0  0
   26.6275  -35.2228   -9.3747 C   0  0  0  0  0  0  0  0  0  0  0  0
   27.8444  -35.2620   -9.0814 O   0  0  0  0  0  0  0  0  0  0  0  0
   25.6621  -31.6984   -8.2701 C   0  0  0  0  0  0  0  0  0  0  0  0
   25.5548  -32.6157   -7.0756 C   0  0  1  0  0  0  0  0  0  0  0  0
   24.1090  -32.8411   -6.7147 C   0  0  0  0  0  0  0  0  0  0  0  0
   26.3154  -33.9051   -7.2750 C   0  0  2  0  0  0  0  0  0  0  0  0
   25.7819  -34.5555   -8.4263 N   0  0  0  0  0  0  0  0  0  0  0  0
   26.3831  -34.7358   -6.0784 C   0  0  0  0  0  0  0  0  0  0  0  0
   25.5684  -35.6739   -5.8983 O   0  0  0  0  0  0  0  0  0  0  0  0
   27.9814  -36.9147   -1.6466 N   0  0  0  0  0  0  0  0  0  0  0  0
   28.9849  -35.9962   -2.0221 C   0  0  0  0  0  0  0  0  0  0  0  0
   30.0387  -35.9474   -1.3586 O   0  0  0  0  0  0  0  0  0  0  0  0
   28.8054  -35.1007   -3.1791 C   0  0  0  0  0  0  0  0  0  0  0  0
   27.4839  -35.2169   -3.8567 C   0  0  2  0  0  0  0  0  0  0  0  0
   27.3659  -34.5092   -5.0888 N   0  0  0  0  0  0  0  0  0  0  0  0
   26.3852  -34.8966   -2.9177 C   0  0  0  0  0  0  0  0  0  0  0  0
   26.0514  -35.7493   -1.8757 O   0  0  0  0  0  0  0  0  0  0  0  0
   25.7446  -33.8455   -3.0588 O   0  0  0  0  0  0  0  0  0  0  0  0
  2  1  1  0
  3  9  1  0
  3  2  1  0
  4  3  2  0
  6  5  1  6
  6  8  1  0
  7  6  1  0
  8 10  1  0
  8  9  1  6
 10 11  2  0
 13 12  1  0
 14 13  2  0
 15 13  1  0
 16 15  1  1
 17 16  1  0
 17 10  1  0
 18 19  1  0
 18 16  1  0
 20 18  2  0
M  END
$$$$
