GVN.pdb
     RDKit          3D

 20 19  0  0  1  0  0  0  0  0999 V2000
   28.5697  -20.8292  -15.6231 N   0  0  0  0  0  0  0  0  0  0  0  0
   27.7949  -19.9940  -14.7278 C   0  0  0  0  0  0  0  0  0  0  0  0
   26.7678  -20.8175  -14.0877 C   0  0  0  0  0  0  0  0  0  0  0  0
   26.3869  -21.8948  -14.6002 O   0  0  0  0  0  0  0  0  0  0  0  0
   26.5717  -21.5218  -10.3558 C   0  0  0  0  0  0  0  0  0  0  0  0
   25.1674  -21.2126  -10.8163 C   0  0  1  0  0  0  0  0  0  0  0  0
   24.6815  -19.9287  -10.1944 C   0  0  0  0  0  0  0  0  0  0  0  0
   25.0458  -21.2157  -12.3216 C   0  0  2  0  0  0  0  0  0  0  0  0
   26.1331  -20.4602  -12.8510 N   0  0  0  0  0  0  0  0  0  0  0  0
   23.7292  -20.8146  -12.8034 C   0  0  0  0  0  0  0  0  0  0  0  0
   23.4688  -19.6091  -13.0387 O   0  0  0  0  0  0  0  0  0  0  0  0
   19.6044  -21.6197  -16.5719 N   0  0  0  0  0  0  0  0  0  0  0  0
   19.7212  -22.1990  -15.2904 C   0  0  0  0  0  0  0  0  0  0  0  0
   18.6851  -22.4867  -14.6603 O   0  0  0  0  0  0  0  0  0  0  0  0
   21.0411  -22.4666  -14.6914 C   0  0  0  0  0  0  0  0  0  0  0  0
   21.4435  -21.5121  -13.6207 C   0  0  2  0  0  0  0  0  0  0  0  0
   22.7102  -21.7694  -13.0189 N   0  0  0  0  0  0  0  0  0  0  0  0
   20.3645  -21.3666  -12.6178 C   0  0  0  0  0  0  0  0  0  0  0  0
   19.2839  -20.5240  -12.8338 O   0  0  0  0  0  0  0  0  0  0  0  0
   20.4203  -22.0082  -11.5593 O   0  0  0  0  0  0  0  0  0  0  0  0
  2  1  1  0
  3  9  1  0
  3  2  1  0
  4  3  2  0
  6  5  1  6
  6  8  1  0
  7  6  1  0
  8 10  1  0
  8  9  1  6
 10 11  2  0
 13 12  1  0
 14 13  2  0
 15 13  1  0
 16 15  1  6
 17 16  1  0
 17 10  1  0
 18 19  1  0
 18 16  1  0
 20 18  2  0
M  END
$$$$
