GVN.pdb
     RDKit          3D

 20 19  0  0  1  0  0  0  0  0999 V2000
   19.6311  -14.1752  -15.9872 N   0  0  0  0  0  0  0  0  0  0  0  0
   19.8455  -13.0322  -16.8515 C   0  0  0  0  0  0  0  0  0  0  0  0
   20.0236  -11.8408  -16.0199 C   0  0  0  0  0  0  0  0  0  0  0  0
   19.2302  -11.5750  -15.0881 O   0  0  0  0  0  0  0  0  0  0  0  0
   22.9044  -10.8370  -13.9595 C   0  0  0  0  0  0  0  0  0  0  0  0
   22.5997   -9.6595  -14.8542 C   0  0  1  0  0  0  0  0  0  0  0  0
   23.6570   -9.5218  -15.9193 C   0  0  0  0  0  0  0  0  0  0  0  0
   21.2019   -9.7201  -15.4225 C   0  0  2  0  0  0  0  0  0  0  0  0
   21.0978  -10.9072  -16.2055 N   0  0  0  0  0  0  0  0  0  0  0  0
   20.7942   -8.4980  -16.1057 C   0  0  0  0  0  0  0  0  0  0  0  0
   21.1209   -8.2875  -17.2995 O   0  0  0  0  0  0  0  0  0  0  0  0
   16.0500   -6.9878  -15.0335 N   0  0  0  0  0  0  0  0  0  0  0  0
   17.1079   -6.7269  -15.9303 C   0  0  0  0  0  0  0  0  0  0  0  0
   17.0922   -7.2621  -17.0557 O   0  0  0  0  0  0  0  0  0  0  0  0
   18.2225   -5.8374  -15.5575 C   0  0  0  0  0  0  0  0  0  0  0  0
   19.5637   -6.2941  -16.0176 C   0  0  2  0  0  0  0  0  0  0  0  0
   20.0212   -7.5171  -15.4449 N   0  0  0  0  0  0  0  0  0  0  0  0
   20.5592   -5.2061  -15.8874 C   0  0  0  0  0  0  0  0  0  0  0  0
   20.3991   -3.9957  -16.5457 O   0  0  0  0  0  0  0  0  0  0  0  0
   21.5602   -5.3725  -15.1766 O   0  0  0  0  0  0  0  0  0  0  0  0
  2  1  1  0
  3  9  1  0
  3  2  1  0
  4  3  2  0
  6  5  1  6
  6  8  1  0
  7  6  1  0
  8 10  1  0
  8  9  1  6
 10 11  2  0
 13 12  1  0
 14 13  2  0
 15 13  1  0
 16 15  1  1
 17 16  1  0
 17 10  1  0
 18 19  1  0
 18 16  1  0
 20 18  2  0
M  END
$$$$
