GVN.pdb
     RDKit          3D

 20 19  0  0  1  0  0  0  0  0999 V2000
   24.0075  -15.1041  -17.7784 N   0  0  0  0  0  0  0  0  0  0  0  0
   23.9695  -13.7944  -18.3968 C   0  0  0  0  0  0  0  0  0  0  0  0
   24.0421  -12.7766  -17.3472 C   0  0  0  0  0  0  0  0  0  0  0  0
   23.2638  -12.7989  -16.3664 O   0  0  0  0  0  0  0  0  0  0  0  0
   26.9982  -11.4741  -15.3469 C   0  0  0  0  0  0  0  0  0  0  0  0
   26.3115  -10.2890  -15.9824 C   0  0  1  0  0  0  0  0  0  0  0  0
   27.1641   -9.7176  -17.0860 C   0  0  0  0  0  0  0  0  0  0  0  0
   24.9093  -10.6172  -16.4374 C   0  0  2  0  0  0  0  0  0  0  0  0
   24.9904  -11.6994  -17.3623 N   0  0  0  0  0  0  0  0  0  0  0  0
   24.1622   -9.4590  -16.9136 C   0  0  0  0  0  0  0  0  0  0  0  0
   24.1833   -9.1325  -18.1257 O   0  0  0  0  0  0  0  0  0  0  0  0
   20.8562   -5.4291  -17.0969 N   0  0  0  0  0  0  0  0  0  0  0  0
   20.5039   -6.2386  -15.9959 C   0  0  0  0  0  0  0  0  0  0  0  0
   19.4585   -5.9829  -15.3675 O   0  0  0  0  0  0  0  0  0  0  0  0
   21.3485   -7.3735  -15.5820 C   0  0  0  0  0  0  0  0  0  0  0  0
   22.5856   -7.5562  -16.3916 C   0  0  2  0  0  0  0  0  0  0  0  0
   23.3944   -8.6721  -16.0262 N   0  0  0  0  0  0  0  0  0  0  0  0
   23.3610   -6.2966  -16.4525 C   0  0  0  0  0  0  0  0  0  0  0  0
   24.5870   -6.1696  -15.8161 O   0  0  0  0  0  0  0  0  0  0  0  0
   22.9119   -5.3298  -17.0838 O   0  0  0  0  0  0  0  0  0  0  0  0
  2  1  1  0
  3  9  1  0
  3  2  1  0
  4  3  2  0
  6  5  1  6
  6  8  1  0
  7  6  1  0
  8 10  1  0
  8  9  1  6
 10 11  2  0
 13 12  1  0
 14 13  2  0
 15 13  1  0
 16 15  1  1
 17 16  1  0
 17 10  1  0
 18 19  1  0
 18 16  1  0
 20 18  2  0
M  END
$$$$
