GVN.pdb
     RDKit          3D

 20 19  0  0  1  0  0  0  0  0999 V2000
   20.3389  -22.4255   -6.7118 N   0  0  0  0  0  0  0  0  0  0  0  0
   21.6629  -22.8070   -7.1600 C   0  0  0  0  0  0  0  0  0  0  0  0
   22.2691  -21.6710   -7.8561 C   0  0  0  0  0  0  0  0  0  0  0  0
   21.5747  -20.8789   -8.5334 O   0  0  0  0  0  0  0  0  0  0  0  0
   26.5230  -21.0013   -7.7353 C   0  0  0  0  0  0  0  0  0  0  0  0
   25.5281  -19.9303   -8.1134 C   0  0  1  0  0  0  0  0  0  0  0  0
   26.1895  -18.8753   -8.9625 C   0  0  0  0  0  0  0  0  0  0  0  0
   24.2871  -20.5037   -8.7550 C   0  0  2  0  0  0  0  0  0  0  0  0
   23.6750  -21.3850   -7.8160 N   0  0  0  0  0  0  0  0  0  0  0  0
   24.5231  -21.0810  -10.0732 C   0  0  0  0  0  0  0  0  0  0  0  0
   24.9121  -22.2683  -10.1964 O   0  0  0  0  0  0  0  0  0  0  0  0
   21.8769  -19.7254  -12.8304 N   0  0  0  0  0  0  0  0  0  0  0  0
   22.0735  -21.0865  -13.1475 C   0  0  0  0  0  0  0  0  0  0  0  0
   21.0935  -21.7740  -13.4940 O   0  0  0  0  0  0  0  0  0  0  0  0
   23.4111  -21.7013  -13.0751 C   0  0  0  0  0  0  0  0  0  0  0  0
   24.4864  -20.7957  -12.5824 C   0  0  2  0  0  0  0  0  0  0  0  0
   24.3210  -20.3222  -11.2478 N   0  0  0  0  0  0  0  0  0  0  0  0
   24.7237  -19.6950  -13.5435 C   0  0  0  0  0  0  0  0  0  0  0  0
   24.5830  -18.3661  -13.1715 O   0  0  0  0  0  0  0  0  0  0  0  0
   25.0556  -19.9582  -14.7078 O   0  0  0  0  0  0  0  0  0  0  0  0
  2  1  1  0
  3  9  1  0
  3  2  1  0
  4  3  2  0
  6  5  1  6
  6  8  1  0
  7  6  1  0
  8 10  1  0
  8  9  1  1
 10 11  2  0
 13 12  1  0
 14 13  2  0
 15 13  1  0
 16 15  1  6
 17 16  1  0
 17 10  1  0
 18 19  1  0
 18 16  1  0
 20 18  2  0
M  END
$$$$
