GVN.pdb
     RDKit          3D

 20 19  0  0  1  0  0  0  0  0999 V2000
   21.8654  -13.8635  -19.3943 N   0  0  0  0  0  0  0  0  0  0  0  0
   22.6997  -12.7140  -19.1083 C   0  0  0  0  0  0  0  0  0  0  0  0
   22.0081  -11.8601  -18.1412 C   0  0  0  0  0  0  0  0  0  0  0  0
   20.8007  -11.5609  -18.2862 O   0  0  0  0  0  0  0  0  0  0  0  0
   23.9048  -10.6388  -14.5154 C   0  0  0  0  0  0  0  0  0  0  0  0
   22.4097  -10.7725  -14.6787 C   0  0  1  0  0  0  0  0  0  0  0  0
   21.6924   -9.9611  -13.6305 C   0  0  0  0  0  0  0  0  0  0  0  0
   21.9565  -10.4462  -16.0818 C   0  0  2  0  0  0  0  0  0  0  0  0
   22.6476  -11.3129  -16.9787 N   0  0  0  0  0  0  0  0  0  0  0  0
   22.0442   -9.0282  -16.4105 C   0  0  0  0  0  0  0  0  0  0  0  0
   23.1429   -8.5052  -16.7195 O   0  0  0  0  0  0  0  0  0  0  0  0
   21.3089   -7.2996  -19.4229 N   0  0  0  0  0  0  0  0  0  0  0  0
   20.0841   -6.7181  -19.0314 C   0  0  0  0  0  0  0  0  0  0  0  0
   19.2120   -6.5056  -19.8960 O   0  0  0  0  0  0  0  0  0  0  0  0
   19.8239   -6.3612  -17.6252 C   0  0  0  0  0  0  0  0  0  0  0  0
   20.8740   -6.8046  -16.6661 C   0  0  2  0  0  0  0  0  0  0  0  0
   20.8972   -8.2034  -16.3907 N   0  0  0  0  0  0  0  0  0  0  0  0
   20.8313   -5.9898  -15.4309 C   0  0  0  0  0  0  0  0  0  0  0  0
   21.3189   -4.6914  -15.4028 O   0  0  0  0  0  0  0  0  0  0  0  0
   20.3509   -6.4708  -14.3951 O   0  0  0  0  0  0  0  0  0  0  0  0
  2  1  1  0
  3  9  1  0
  3  2  1  0
  4  3  2  0
  6  5  1  6
  6  8  1  0
  7  6  1  0
  8 10  1  0
  8  9  1  6
 10 11  2  0
 13 12  1  0
 14 13  2  0
 15 13  1  0
 16 15  1  6
 17 16  1  0
 17 10  1  0
 18 19  1  0
 18 16  1  0
 20 18  2  0
M  END
$$$$
