GVN.pdb
     RDKit          3D

 20 19  0  0  1  0  0  0  0  0999 V2000
   17.8105  -14.1354  -15.5274 N   0  0  0  0  0  0  0  0  0  0  0  0
   17.1898  -12.8407  -15.3328 C   0  0  0  0  0  0  0  0  0  0  0  0
   18.1120  -11.8028  -15.7966 C   0  0  0  0  0  0  0  0  0  0  0  0
   19.3181  -12.0576  -16.0176 O   0  0  0  0  0  0  0  0  0  0  0  0
   18.0269  -10.1453  -18.8892 C   0  0  0  0  0  0  0  0  0  0  0  0
   18.0953   -9.0175  -17.8877 C   0  0  1  0  0  0  0  0  0  0  0  0
   16.7613   -8.3236  -17.7861 C   0  0  0  0  0  0  0  0  0  0  0  0
   18.6200   -9.4745  -16.5473 C   0  0  2  0  0  0  0  0  0  0  0  0
   17.7123  -10.4439  -16.0283 N   0  0  0  0  0  0  0  0  0  0  0  0
   18.9331   -8.3792  -15.6369 C   0  0  0  0  0  0  0  0  0  0  0  0
   18.0952   -7.9876  -14.7878 O   0  0  0  0  0  0  0  0  0  0  0  0
   22.3253   -5.5128  -12.2756 N   0  0  0  0  0  0  0  0  0  0  0  0
   22.4220   -5.4327  -13.6812 C   0  0  0  0  0  0  0  0  0  0  0  0
   22.8453   -4.3812  -14.1991 O   0  0  0  0  0  0  0  0  0  0  0  0
   22.0324   -6.5665  -14.5387 C   0  0  0  0  0  0  0  0  0  0  0  0
   20.5814   -6.6256  -14.8710 C   0  0  2  0  0  0  0  0  0  0  0  0
   20.1862   -7.7282  -15.6839 N   0  0  0  0  0  0  0  0  0  0  0  0
   20.1173   -5.3303  -15.4173 C   0  0  0  0  0  0  0  0  0  0  0  0
   20.0134   -5.1165  -16.7839 O   0  0  0  0  0  0  0  0  0  0  0  0
   19.8131   -4.4119  -14.6434 O   0  0  0  0  0  0  0  0  0  0  0  0
  2  1  1  0
  3  9  1  0
  3  2  1  0
  4  3  2  0
  6  5  1  6
  6  8  1  0
  7  6  1  0
  8 10  1  0
  8  9  1  1
 10 11  2  0
 13 12  1  0
 14 13  2  0
 15 13  1  0
 16 15  1  6
 17 16  1  0
 17 10  1  0
 18 19  1  0
 18 16  1  0
 20 18  2  0
M  END
$$$$
