GVN.pdb
     RDKit          3D

 20 19  0  0  1  0  0  0  0  0999 V2000
   23.1819  -17.5942  -18.5800 N   0  0  0  0  0  0  0  0  0  0  0  0
   23.2401  -16.1798  -18.8890 C   0  0  0  0  0  0  0  0  0  0  0  0
   23.1462  -15.4216  -17.6405 C   0  0  0  0  0  0  0  0  0  0  0  0
   22.1200  -15.4742  -16.9245 O   0  0  0  0  0  0  0  0  0  0  0  0
   25.5654  -15.3677  -15.0133 C   0  0  0  0  0  0  0  0  0  0  0  0
   25.1369  -13.9211  -15.0720 C   0  0  1  0  0  0  0  0  0  0  0  0
   26.3236  -13.0324  -15.3434 C   0  0  0  0  0  0  0  0  0  0  0  0
   24.0054  -13.6992  -16.0473 C   0  0  2  0  0  0  0  0  0  0  0  0
   24.2004  -14.5785  -17.1527 N   0  0  0  0  0  0  0  0  0  0  0  0
   23.8072  -12.2996  -16.4054 C   0  0  0  0  0  0  0  0  0  0  0  0
   24.4714  -11.7709  -17.3304 O   0  0  0  0  0  0  0  0  0  0  0  0
   22.0482   -7.4326  -16.6737 N   0  0  0  0  0  0  0  0  0  0  0  0
   21.3584   -8.4490  -17.3685 C   0  0  0  0  0  0  0  0  0  0  0  0
   20.5224   -8.1285  -18.2353 O   0  0  0  0  0  0  0  0  0  0  0  0
   21.6111   -9.8733  -17.0854 C   0  0  0  0  0  0  0  0  0  0  0  0
   22.5893  -10.1262  -15.9907 C   0  0  2  0  0  0  0  0  0  0  0  0
   22.8635  -11.4995  -15.7230 N   0  0  0  0  0  0  0  0  0  0  0  0
   22.2108   -9.3806  -14.7691 C   0  0  0  0  0  0  0  0  0  0  0  0
   22.1479   -7.9950  -14.7568 O   0  0  0  0  0  0  0  0  0  0  0  0
   21.9427  -10.0007  -13.7305 O   0  0  0  0  0  0  0  0  0  0  0  0
  2  1  1  0
  3  9  1  0
  3  2  1  0
  4  3  2  0
  6  5  1  6
  6  8  1  0
  7  6  1  0
  8 10  1  0
  8  9  1  6
 10 11  2  0
 13 12  1  0
 14 13  2  0
 15 13  1  0
 16 15  1  6
 17 16  1  0
 17 10  1  0
 18 19  1  0
 18 16  1  0
 20 18  2  0
M  END
$$$$
