GVN.pdb
     RDKit          3D

 20 19  0  0  1  0  0  0  0  0999 V2000
   22.5810  -20.2710  -14.8845 N   0  0  0  0  0  0  0  0  0  0  0  0
   23.0116  -19.5998  -16.0942 C   0  0  0  0  0  0  0  0  0  0  0  0
   23.1516  -18.1699  -15.8140 C   0  0  0  0  0  0  0  0  0  0  0  0
   22.1646  -17.4735  -15.4833 O   0  0  0  0  0  0  0  0  0  0  0  0
   26.8814  -16.0952  -16.4358 C   0  0  0  0  0  0  0  0  0  0  0  0
   25.9277  -15.7455  -15.3187 C   0  0  1  0  0  0  0  0  0  0  0  0
   26.1166  -14.3111  -14.8965 C   0  0  0  0  0  0  0  0  0  0  0  0
   24.4944  -16.0678  -15.6689 C   0  0  2  0  0  0  0  0  0  0  0  0
   24.4035  -17.4727  -15.8953 N   0  0  0  0  0  0  0  0  0  0  0  0
   23.9526  -15.2385  -16.7390 C   0  0  0  0  0  0  0  0  0  0  0  0
   24.1313  -15.5433  -17.9438 O   0  0  0  0  0  0  0  0  0  0  0  0
   19.5474  -12.9082  -19.2234 N   0  0  0  0  0  0  0  0  0  0  0  0
   20.3330  -12.3502  -18.1923 C   0  0  0  0  0  0  0  0  0  0  0  0
   20.4283  -11.1104  -18.1085 O   0  0  0  0  0  0  0  0  0  0  0  0
   21.0368  -13.2065  -17.2208 C   0  0  0  0  0  0  0  0  0  0  0  0
   22.5136  -13.2726  -17.4049 C   0  0  2  0  0  0  0  0  0  0  0  0
   23.2121  -14.0700  -16.4514 N   0  0  0  0  0  0  0  0  0  0  0  0
   23.0863  -11.9129  -17.5269 C   0  0  0  0  0  0  0  0  0  0  0  0
   23.2138  -11.2888  -18.7592 O   0  0  0  0  0  0  0  0  0  0  0  0
   23.4625  -11.3123  -16.5106 O   0  0  0  0  0  0  0  0  0  0  0  0
  2  1  1  0
  3  9  1  0
  3  2  1  0
  4  3  2  0
  6  5  1  6
  6  8  1  0
  7  6  1  0
  8 10  1  0
  8  9  1  6
 10 11  2  0
 13 12  1  0
 14 13  2  0
 15 13  1  0
 16 15  1  1
 17 16  1  0
 17 10  1  0
 18 19  1  0
 18 16  1  0
 20 18  2  0
M  END
$$$$
