GVN.pdb
     RDKit          3D

 20 19  0  0  1  0  0  0  0  0999 V2000
   18.3534  -12.6806  -16.4037 N   0  0  0  0  0  0  0  0  0  0  0  0
   18.9484  -11.5079  -17.0120 C   0  0  0  0  0  0  0  0  0  0  0  0
   19.5174  -10.6683  -15.9565 C   0  0  0  0  0  0  0  0  0  0  0  0
   18.8724  -10.4086  -14.9149 O   0  0  0  0  0  0  0  0  0  0  0  0
   22.7521  -11.0873  -14.1853 C   0  0  0  0  0  0  0  0  0  0  0  0
   22.7155   -9.6541  -14.6590 C   0  0  1  0  0  0  0  0  0  0  0  0
   23.7077   -9.4440  -15.7738 C   0  0  0  0  0  0  0  0  0  0  0  0
   21.3200   -9.2092  -15.0268 C   0  0  2  0  0  0  0  0  0  0  0  0
   20.8294  -10.0916  -16.0337 N   0  0  0  0  0  0  0  0  0  0  0  0
   21.2251   -7.7916  -15.3554 C   0  0  0  0  0  0  0  0  0  0  0  0
   21.3621   -7.3938  -16.5383 O   0  0  0  0  0  0  0  0  0  0  0  0
   18.6512   -2.8055  -15.2546 N   0  0  0  0  0  0  0  0  0  0  0  0
   19.4867   -3.3554  -14.2591 C   0  0  0  0  0  0  0  0  0  0  0  0
   20.1491   -2.5880  -13.5342 O   0  0  0  0  0  0  0  0  0  0  0  0
   19.5862   -4.8133  -14.0662 C   0  0  0  0  0  0  0  0  0  0  0  0
   20.8510   -5.4221  -14.5651 C   0  0  2  0  0  0  0  0  0  0  0  0
   20.9767   -6.8265  -14.3537 N   0  0  0  0  0  0  0  0  0  0  0  0
   22.0250   -4.6717  -14.0651 C   0  0  0  0  0  0  0  0  0  0  0  0
   22.6392   -5.0030  -12.8663 O   0  0  0  0  0  0  0  0  0  0  0  0
   22.4750   -3.7253  -14.7261 O   0  0  0  0  0  0  0  0  0  0  0  0
  2  1  1  0
  3  9  1  0
  3  2  1  0
  4  3  2  0
  6  5  1  6
  6  8  1  0
  7  6  1  0
  8 10  1  0
  8  9  1  6
 10 11  2  0
 13 12  1  0
 14 13  2  0
 15 13  1  0
 16 15  1  1
 17 16  1  0
 17 10  1  0
 18 19  1  0
 18 16  1  0
 20 18  2  0
M  END
$$$$
