GVN.pdb
     RDKit          3D

 20 19  0  0  1  0  0  0  0  0999 V2000
   31.5653  -22.3626  -10.3822 N   0  0  0  0  0  0  0  0  0  0  0  0
   30.8510  -21.1091  -10.2482 C   0  0  0  0  0  0  0  0  0  0  0  0
   29.4880  -21.3909   -9.7947 C   0  0  0  0  0  0  0  0  0  0  0  0
   28.9443  -22.4963  -10.0201 O   0  0  0  0  0  0  0  0  0  0  0  0
   28.0419  -20.7074   -6.4114 C   0  0  0  0  0  0  0  0  0  0  0  0
   27.0184  -20.2063   -7.4019 C   0  0  1  0  0  0  0  0  0  0  0  0
   26.8803  -18.7088   -7.3023 C   0  0  0  0  0  0  0  0  0  0  0  0
   27.3071  -20.6744   -8.8084 C   0  0  2  0  0  0  0  0  0  0  0  0
   28.6887  -20.4420   -9.0731 N   0  0  0  0  0  0  0  0  0  0  0  0
   26.3924  -20.1309   -9.8055 C   0  0  0  0  0  0  0  0  0  0  0  0
   26.6835  -19.0929  -10.4491 O   0  0  0  0  0  0  0  0  0  0  0  0
   24.9228  -21.4224  -14.7107 N   0  0  0  0  0  0  0  0  0  0  0  0
   24.3221  -21.9687  -13.5565 C   0  0  0  0  0  0  0  0  0  0  0  0
   23.2030  -22.5083  -13.6553 O   0  0  0  0  0  0  0  0  0  0  0  0
   24.9944  -21.9105  -12.2461 C   0  0  0  0  0  0  0  0  0  0  0  0
   24.5165  -20.8212  -11.3494 C   0  0  2  0  0  0  0  0  0  0  0  0
   25.1542  -20.7556  -10.0759 N   0  0  0  0  0  0  0  0  0  0  0  0
   23.0406  -20.8460  -11.2377 C   0  0  0  0  0  0  0  0  0  0  0  0
   22.2330  -20.2136  -12.1715 O   0  0  0  0  0  0  0  0  0  0  0  0
   22.5070  -21.4427  -10.2920 O   0  0  0  0  0  0  0  0  0  0  0  0
  2  1  1  0
  3  9  1  0
  3  2  1  0
  4  3  2  0
  6  5  1  1
  6  8  1  0
  7  6  1  0
  8 10  1  0
  8  9  1  6
 10 11  2  0
 13 12  1  0
 14 13  2  0
 15 13  1  0
 16 15  1  1
 17 16  1  0
 17 10  1  0
 18 19  1  0
 18 16  1  0
 20 18  2  0
M  END
$$$$
