NLN.pdb
     RDKit          3D

 25 24  0  0  1  0  0  0  0  0999 V2000
   11.4869  -17.3277   19.1686 N   0  0  0  0  0  0  0  0  0  0  0  0
   10.2315  -16.7255   18.9448 C   0  0  0  0  0  0  0  0  0  0  0  0
    9.5581  -17.0379   17.9418 O   0  0  0  0  0  0  0  0  0  0  0  0
    9.7125  -15.7249   19.8973 C   0  0  0  0  0  0  0  0  0  0  0  0
    9.0716  -16.4607   21.0530 C   0  0  2  0  0  0  0  0  0  0  0  0
    7.6406  -16.6103   20.8591 N   0  0  0  0  0  0  0  0  0  0  0  0
    9.3419  -15.8199   22.3688 C   0  0  0  0  0  0  0  0  0  0  0  0
   10.5035  -15.5517   22.7774 O   0  0  0  0  0  0  0  0  0  0  0  0
    8.0697  -12.8366   26.8346 C   0  0  0  0  0  0  0  0  0  0  0  0
    7.4542  -12.6652   25.4905 C   0  0  2  0  0  0  0  0  0  0  0  0
    5.9838  -12.2499   25.7297 C   0  0  0  0  0  0  0  0  0  0  0  0
    7.3974  -13.8226   24.5926 C   0  0  0  0  0  0  0  0  0  0  0  0
    8.4638  -14.8445   24.5560 C   0  0  2  0  0  0  0  0  0  0  0  0
    8.2679  -15.4863   23.2133 N   0  0  0  0  0  0  0  0  0  0  0  0
    8.4463  -15.9484   25.4952 C   0  0  0  0  0  0  0  0  0  0  0  0
    7.4904  -16.8024   25.4998 O   0  0  0  0  0  0  0  0  0  0  0  0
   11.4305  -20.4781   25.6668 N   0  0  0  0  0  0  0  0  0  0  0  0
   10.2834  -19.6598   25.5367 C   0  0  0  0  0  0  0  0  0  0  0  0
    9.1536  -20.2049   25.4513 O   0  0  0  0  0  0  0  0  0  0  0  0
   10.3817  -18.1979   25.5021 C   0  0  0  0  0  0  0  0  0  0  0  0
    9.8533  -17.5658   26.8031 C   0  0  2  0  0  0  0  0  0  0  0  0
    9.4507  -16.1943   26.4617 N   0  0  0  0  0  0  0  0  0  0  0  0
   10.8162  -17.6349   27.8929 C   0  0  0  0  0  0  0  0  0  0  0  0
   10.7124  -18.6383   28.8379 O   0  0  0  0  0  0  0  0  0  0  0  0
   11.7409  -16.8056   27.9943 O   0  0  0  0  0  0  0  0  0  0  0  0
  2  1  1  0
  2  3  2  0
  4  2  1  0
  5  4  1  0
  5  6  1  6
  7  8  2  0
  7  5  1  0
 10  9  1  1
 10 11  1  0
 10 12  1  0
 13 12  1  1
 13 14  1  0
 14  7  1  0
 15 13  1  0
 15 16  2  0
 18 17  1  0
 18 20  1  0
 19 18  2  0
 21 22  1  0
 21 20  1  6
 22 15  1  0
 23 21  1  0
 24 23  1  0
 25 23  2  0
M  END
$$$$
