NLN.pdb
     RDKit          3D

 25 24  0  0  1  0  0  0  0  0999 V2000
   11.6333  -20.3268   14.8990 N   0  0  0  0  0  0  0  0  0  0  0  0
   11.0305  -20.3257   16.1739 C   0  0  0  0  0  0  0  0  0  0  0  0
   10.1935  -21.2023   16.4705 O   0  0  0  0  0  0  0  0  0  0  0  0
   11.3894  -19.2873   17.1591 C   0  0  0  0  0  0  0  0  0  0  0  0
   10.1445  -18.4906   17.4807 C   0  0  2  0  0  0  0  0  0  0  0  0
    9.5831  -17.8792   16.2896 N   0  0  0  0  0  0  0  0  0  0  0  0
   10.3735  -17.4543   18.5241 C   0  0  0  0  0  0  0  0  0  0  0  0
   11.5219  -17.1223   18.9231 O   0  0  0  0  0  0  0  0  0  0  0  0
    6.3618  -13.4459   21.0287 C   0  0  0  0  0  0  0  0  0  0  0  0
    7.7786  -13.8928   20.9390 C   0  0  2  0  0  0  0  0  0  0  0  0
    8.5776  -12.7068   20.3504 C   0  0  0  0  0  0  0  0  0  0  0  0
    8.0980  -15.0449   20.0908 C   0  0  0  0  0  0  0  0  0  0  0  0
    9.4292  -15.6858   20.1012 C   0  0  2  0  0  0  0  0  0  0  0  0
    9.2737  -16.7990   19.1061 N   0  0  0  0  0  0  0  0  0  0  0  0
    9.9151  -16.3346   21.3029 C   0  0  0  0  0  0  0  0  0  0  0  0
    9.4201  -17.4467   21.7046 O   0  0  0  0  0  0  0  0  0  0  0  0
   13.1496  -17.7387   21.5494 N   0  0  0  0  0  0  0  0  0  0  0  0
   13.7069  -16.8932   22.5377 C   0  0  0  0  0  0  0  0  0  0  0  0
   14.9521  -16.7202   22.5588 O   0  0  0  0  0  0  0  0  0  0  0  0
   12.8691  -16.2156   23.5313 C   0  0  0  0  0  0  0  0  0  0  0  0
   11.3784  -16.5467   23.3326 C   0  0  2  0  0  0  0  0  0  0  0  0
   10.9546  -15.8312   22.1210 N   0  0  0  0  0  0  0  0  0  0  0  0
   10.5725  -16.2343   24.5042 C   0  0  0  0  0  0  0  0  0  0  0  0
   10.6926  -17.0053   25.6452 O   0  0  0  0  0  0  0  0  0  0  0  0
    9.7717  -15.2795   24.5041 O   0  0  0  0  0  0  0  0  0  0  0  0
  2  1  1  0
  2  3  2  0
  4  2  1  0
  5  4  1  0
  5  6  1  6
  7  8  2  0
  7  5  1  0
 10  9  1  6
 10 11  1  0
 10 12  1  0
 13 12  1  1
 13 14  1  0
 14  7  1  0
 15 13  1  0
 15 16  2  0
 18 17  1  0
 18 20  1  0
 19 18  2  0
 21 22  1  0
 21 20  1  1
 22 15  1  0
 23 21  1  0
 24 23  1  0
 25 23  2  0
M  END
$$$$
