NLN.pdb
     RDKit          3D

 25 24  0  0  1  0  0  0  0  0999 V2000
    8.1246  -12.3517   19.2180 N   0  0  0  0  0  0  0  0  0  0  0  0
    8.1580  -13.7615   19.2050 C   0  0  0  0  0  0  0  0  0  0  0  0
    9.1049  -14.3594   18.6546 O   0  0  0  0  0  0  0  0  0  0  0  0
    7.0726  -14.5314   19.8429 C   0  0  0  0  0  0  0  0  0  0  0  0
    7.6891  -15.4553   20.8697 C   0  0  2  0  0  0  0  0  0  0  0  0
    6.7348  -16.4463   21.3330 N   0  0  0  0  0  0  0  0  0  0  0  0
    8.2688  -14.7263   22.0306 C   0  0  0  0  0  0  0  0  0  0  0  0
    9.4100  -14.1922   22.0070 O   0  0  0  0  0  0  0  0  0  0  0  0
    5.5178  -12.3011   26.9452 C   0  0  0  0  0  0  0  0  0  0  0  0
    6.8242  -12.6030   26.2994 C   0  0  2  0  0  0  0  0  0  0  0  0
    7.5181  -11.2429   26.0534 C   0  0  0  0  0  0  0  0  0  0  0  0
    6.8240  -13.2873   25.0030 C   0  0  0  0  0  0  0  0  0  0  0  0
    8.0454  -13.8896   24.4299 C   0  0  2  0  0  0  0  0  0  0  0  0
    7.5276  -14.6123   23.2203 N   0  0  0  0  0  0  0  0  0  0  0  0
    8.7773  -14.8967   25.1722 C   0  0  0  0  0  0  0  0  0  0  0  0
    9.2813  -14.6395   26.3224 O   0  0  0  0  0  0  0  0  0  0  0  0
   10.9191  -20.3739   25.1825 N   0  0  0  0  0  0  0  0  0  0  0  0
   10.0099  -19.5949   25.9367 C   0  0  0  0  0  0  0  0  0  0  0  0
    9.9051  -19.8075   27.1715 O   0  0  0  0  0  0  0  0  0  0  0  0
    9.1932  -18.5490   25.3145 C   0  0  0  0  0  0  0  0  0  0  0  0
    9.8233  -17.1561   25.4995 C   0  0  2  0  0  0  0  0  0  0  0  0
    8.9943  -16.2220   24.7251 N   0  0  0  0  0  0  0  0  0  0  0  0
   11.2322  -17.1236   25.1338 C   0  0  0  0  0  0  0  0  0  0  0  0
   11.6082  -16.6452   23.8927 O   0  0  0  0  0  0  0  0  0  0  0  0
   12.1150  -17.5181   25.9199 O   0  0  0  0  0  0  0  0  0  0  0  0
  2  1  1  0
  2  3  2  0
  4  2  1  0
  5  4  1  0
  5  6  1  1
  7  8  2  0
  7  5  1  0
 10  9  1  6
 10 11  1  0
 10 12  1  0
 13 12  1  1
 13 14  1  0
 14  7  1  0
 15 13  1  0
 15 16  2  0
 18 17  1  0
 18 20  1  0
 19 18  2  0
 21 22  1  0
 21 20  1  6
 22 15  1  0
 23 21  1  0
 24 23  1  0
 25 23  2  0
M  END
$$$$
