NLN.pdb
     RDKit          3D

 25 24  0  0  1  0  0  0  0  0999 V2000
   11.5622  -17.2526   13.7934 N   0  0  0  0  0  0  0  0  0  0  0  0
   10.4265  -17.3165   14.6270 C   0  0  0  0  0  0  0  0  0  0  0  0
    9.5234  -18.1446   14.3908 O   0  0  0  0  0  0  0  0  0  0  0  0
   10.3051  -16.4039   15.7803 C   0  0  0  0  0  0  0  0  0  0  0  0
   10.2510  -17.2392   17.0402 C   0  0  2  0  0  0  0  0  0  0  0  0
    8.9843  -17.9384   17.1595 N   0  0  0  0  0  0  0  0  0  0  0  0
   10.5120  -16.4464   18.2724 C   0  0  0  0  0  0  0  0  0  0  0  0
   11.6663  -16.0846   18.6257 O   0  0  0  0  0  0  0  0  0  0  0  0
    8.7391  -12.2217   19.4219 C   0  0  0  0  0  0  0  0  0  0  0  0
    7.8915  -13.4422   19.5046 C   0  0  2  0  0  0  0  0  0  0  0  0
    6.5021  -12.9800   20.0023 C   0  0  0  0  0  0  0  0  0  0  0  0
    8.2989  -14.5187   20.4123 C   0  0  0  0  0  0  0  0  0  0  0  0
    9.6108  -15.1892   20.3006 C   0  0  2  0  0  0  0  0  0  0  0  0
    9.4370  -16.0689   19.0967 N   0  0  0  0  0  0  0  0  0  0  0  0
   10.0612  -16.0857   21.3468 C   0  0  0  0  0  0  0  0  0  0  0  0
    9.5692  -17.2627   21.4712 O   0  0  0  0  0  0  0  0  0  0  0  0
   13.5474  -18.6644   22.0786 N   0  0  0  0  0  0  0  0  0  0  0  0
   13.5718  -17.2711   22.3243 C   0  0  0  0  0  0  0  0  0  0  0  0
   14.1568  -16.5187   21.5041 O   0  0  0  0  0  0  0  0  0  0  0  0
   12.9314  -16.6875   23.5064 C   0  0  0  0  0  0  0  0  0  0  0  0
   11.3966  -16.7027   23.3821 C   0  0  2  0  0  0  0  0  0  0  0  0
   11.0611  -15.7696   22.2975 N   0  0  0  0  0  0  0  0  0  0  0  0
   10.7279  -16.3979   24.6390 C   0  0  0  0  0  0  0  0  0  0  0  0
   10.8748  -17.2487   25.7184 O   0  0  0  0  0  0  0  0  0  0  0  0
   10.0222  -15.3788   24.7671 O   0  0  0  0  0  0  0  0  0  0  0  0
  2  1  1  0
  2  3  2  0
  4  2  1  0
  5  4  1  0
  5  6  1  1
  7  8  2  0
  7  5  1  0
 10  9  1  1
 10 11  1  0
 10 12  1  0
 13 12  1  1
 13 14  1  0
 14  7  1  0
 15 13  1  0
 15 16  2  0
 18 17  1  0
 18 20  1  0
 19 18  2  0
 21 22  1  0
 21 20  1  1
 22 15  1  0
 23 21  1  0
 24 23  1  0
 25 23  2  0
M  END
$$$$
