NLN.pdb
     RDKit          3D

 25 24  0  0  1  0  0  0  0  0999 V2000
   11.0403  -17.7780   14.6584 N   0  0  0  0  0  0  0  0  0  0  0  0
   10.0997  -17.8483   15.7068 C   0  0  0  0  0  0  0  0  0  0  0  0
    9.3144  -18.8154   15.7784 O   0  0  0  0  0  0  0  0  0  0  0  0
   10.0433  -16.7778   16.7209 C   0  0  0  0  0  0  0  0  0  0  0  0
   10.6371  -17.3121   18.0054 C   0  0  2  0  0  0  0  0  0  0  0  0
    9.8700  -18.4324   18.5191 N   0  0  0  0  0  0  0  0  0  0  0  0
   10.7780  -16.2679   19.0566 C   0  0  0  0  0  0  0  0  0  0  0  0
   11.7903  -15.5238   19.1554 O   0  0  0  0  0  0  0  0  0  0  0  0
    8.2208  -12.5390   19.6919 C   0  0  0  0  0  0  0  0  0  0  0  0
    7.6851  -13.8654   20.1026 C   0  0  2  0  0  0  0  0  0  0  0  0
    6.2536  -13.6168   20.6325 C   0  0  0  0  0  0  0  0  0  0  0  0
    8.3771  -14.6031   21.1636 C   0  0  0  0  0  0  0  0  0  0  0  0
    9.7922  -15.0113   21.0454 C   0  0  2  0  0  0  0  0  0  0  0  0
    9.7463  -16.0817   19.9940 N   0  0  0  0  0  0  0  0  0  0  0  0
   10.4671  -15.6307   22.1688 C   0  0  0  0  0  0  0  0  0  0  0  0
   10.4051  -15.1228   23.3441 O   0  0  0  0  0  0  0  0  0  0  0  0
   10.0683  -20.2792   22.2812 N   0  0  0  0  0  0  0  0  0  0  0  0
   10.6258  -19.4288   23.2653 C   0  0  0  0  0  0  0  0  0  0  0  0
    9.9466  -19.1534   24.2870 O   0  0  0  0  0  0  0  0  0  0  0  0
   11.9716  -18.8664   23.1225 C   0  0  0  0  0  0  0  0  0  0  0  0
   11.9594  -17.3324   23.2568 C   0  0  2  0  0  0  0  0  0  0  0  0
   11.2277  -16.8217   22.0891 N   0  0  0  0  0  0  0  0  0  0  0  0
   13.2949  -16.7699   23.3977 C   0  0  0  0  0  0  0  0  0  0  0  0
   13.7970  -15.9391   22.4137 O   0  0  0  0  0  0  0  0  0  0  0  0
   14.0015  -17.0198   24.3933 O   0  0  0  0  0  0  0  0  0  0  0  0
  2  1  1  0
  2  3  2  0
  4  2  1  0
  5  4  1  0
  5  6  1  1
  7  8  2  0
  7  5  1  0
 10  9  1  1
 10 11  1  0
 10 12  1  0
 13 12  1  1
 13 14  1  0
 14  7  1  0
 15 13  1  0
 15 16  2  0
 18 17  1  0
 18 20  1  0
 19 18  2  0
 21 22  1  0
 21 20  1  6
 22 15  1  0
 23 21  1  0
 24 23  1  0
 25 23  2  0
M  END
$$$$
