NLN.pdb
     RDKit          3D

 25 24  0  0  1  0  0  0  0  0999 V2000
    7.6839  -16.2904   17.7797 N   0  0  0  0  0  0  0  0  0  0  0  0
    8.5510  -16.5095   18.8701 C   0  0  0  0  0  0  0  0  0  0  0  0
    9.1813  -17.5825   18.9619 O   0  0  0  0  0  0  0  0  0  0  0  0
    8.7139  -15.4693   19.9040 C   0  0  0  0  0  0  0  0  0  0  0  0
    8.7058  -16.1436   21.2580 C   0  0  2  0  0  0  0  0  0  0  0  0
    7.4237  -16.7666   21.5331 N   0  0  0  0  0  0  0  0  0  0  0  0
    9.0707  -15.2204   22.3669 C   0  0  0  0  0  0  0  0  0  0  0  0
   10.1417  -14.5564   22.3847 O   0  0  0  0  0  0  0  0  0  0  0  0
    5.7072  -12.6708   26.8171 C   0  0  0  0  0  0  0  0  0  0  0  0
    7.0852  -12.9017   26.3044 C   0  0  2  0  0  0  0  0  0  0  0  0
    7.6899  -11.5061   26.0241 C   0  0  0  0  0  0  0  0  0  0  0  0
    7.2530  -13.6622   25.0625 C   0  0  0  0  0  0  0  0  0  0  0  0
    8.5499  -14.2496   24.6675 C   0  0  2  0  0  0  0  0  0  0  0  0
    8.1954  -15.0623   23.4562 N   0  0  0  0  0  0  0  0  0  0  0  0
    9.2251  -15.1816   25.5487 C   0  0  0  0  0  0  0  0  0  0  0  0
    9.6648  -14.8134   26.6950 O   0  0  0  0  0  0  0  0  0  0  0  0
   10.7348  -20.7528   26.6868 N   0  0  0  0  0  0  0  0  0  0  0  0
    9.9706  -19.6790   27.2017 C   0  0  0  0  0  0  0  0  0  0  0  0
    9.8451  -19.5638   28.4476 O   0  0  0  0  0  0  0  0  0  0  0  0
    9.3271  -18.7009   26.3201 C   0  0  0  0  0  0  0  0  0  0  0  0
   10.1695  -17.4184   26.1898 C   0  0  2  0  0  0  0  0  0  0  0  0
    9.4511  -16.5465   25.2499 N   0  0  0  0  0  0  0  0  0  0  0  0
   11.5456  -17.6874   25.7977 C   0  0  0  0  0  0  0  0  0  0  0  0
   12.5307  -17.7706   26.7638 O   0  0  0  0  0  0  0  0  0  0  0  0
   11.8592  -17.8479   24.6024 O   0  0  0  0  0  0  0  0  0  0  0  0
  2  1  1  0
  2  3  2  0
  4  2  1  0
  5  4  1  0
  5  6  1  1
  7  8  2  0
  7  5  1  0
 10  9  1  6
 10 11  1  0
 10 12  1  0
 13 12  1  1
 13 14  1  0
 14  7  1  0
 15 13  1  0
 15 16  2  0
 18 17  1  0
 18 20  1  0
 19 18  2  0
 21 22  1  0
 21 20  1  6
 22 15  1  0
 23 21  1  0
 24 23  1  0
 25 23  2  0
M  END
$$$$
