NLN.pdb
     RDKit          3D

 25 24  0  0  1  0  0  0  0  0999 V2000
   10.0154  -17.2987   18.0530 N   0  0  0  0  0  0  0  0  0  0  0  0
    8.9700  -16.4920   18.5482 C   0  0  0  0  0  0  0  0  0  0  0  0
    7.8421  -16.5343   18.0162 O   0  0  0  0  0  0  0  0  0  0  0  0
    9.2090  -15.5969   19.6968 C   0  0  0  0  0  0  0  0  0  0  0  0
    8.6401  -16.2543   20.9345 C   0  0  2  0  0  0  0  0  0  0  0  0
    7.1919  -16.3352   20.8747 N   0  0  0  0  0  0  0  0  0  0  0  0
    9.0600  -15.5802   22.1933 C   0  0  0  0  0  0  0  0  0  0  0  0
   10.2641  -15.3362   22.4740 O   0  0  0  0  0  0  0  0  0  0  0  0
    5.7288  -12.3758   26.2761 C   0  0  0  0  0  0  0  0  0  0  0  0
    7.0401  -13.0227   25.9986 C   0  0  2  0  0  0  0  0  0  0  0  0
    8.0968  -11.8935   26.0002 C   0  0  0  0  0  0  0  0  0  0  0  0
    7.2182  -13.7294   24.7267 C   0  0  0  0  0  0  0  0  0  0  0  0
    8.4354  -14.5097   24.4227 C   0  0  2  0  0  0  0  0  0  0  0  0
    8.0866  -15.1853   23.1283 N   0  0  0  0  0  0  0  0  0  0  0  0
    8.8460  -15.5886   25.2994 C   0  0  0  0  0  0  0  0  0  0  0  0
    8.0829  -16.5952   25.5173 O   0  0  0  0  0  0  0  0  0  0  0  0
   10.9675  -19.4065   25.8551 N   0  0  0  0  0  0  0  0  0  0  0  0
   12.0733  -18.5260   25.9204 C   0  0  0  0  0  0  0  0  0  0  0  0
   13.2054  -18.9436   25.5667 O   0  0  0  0  0  0  0  0  0  0  0  0
   11.9292  -17.1440   26.3866 C   0  0  0  0  0  0  0  0  0  0  0  0
   10.4705  -16.8243   26.7623 C   0  0  2  0  0  0  0  0  0  0  0  0
   10.0899  -15.6449   25.9724 N   0  0  0  0  0  0  0  0  0  0  0  0
   10.2850  -16.6486   28.1957 C   0  0  0  0  0  0  0  0  0  0  0  0
   10.0853  -17.7533   29.0023 O   0  0  0  0  0  0  0  0  0  0  0  0
   10.3041  -15.5173   28.7178 O   0  0  0  0  0  0  0  0  0  0  0  0
  2  1  1  0
  2  3  2  0
  4  2  1  0
  5  4  1  0
  5  6  1  6
  7  8  2  0
  7  5  1  0
 10  9  1  6
 10 11  1  0
 10 12  1  0
 13 12  1  1
 13 14  1  0
 14  7  1  0
 15 13  1  0
 15 16  2  0
 18 17  1  0
 18 20  1  0
 19 18  2  0
 21 22  1  0
 21 20  1  1
 22 15  1  0
 23 21  1  0
 24 23  1  0
 25 23  2  0
M  END
$$$$
