NLN.pdb
     RDKit          3D

 25 24  0  0  1  0  0  0  0  0999 V2000
    9.3668  -17.4293   19.4579 N   0  0  0  0  0  0  0  0  0  0  0  0
    8.4284  -16.5206   19.9894 C   0  0  0  0  0  0  0  0  0  0  0  0
    7.2785  -16.4570   19.5092 O   0  0  0  0  0  0  0  0  0  0  0  0
    8.8057  -15.6438   21.1148 C   0  0  0  0  0  0  0  0  0  0  0  0
    8.5347  -16.3868   22.4041 C   0  0  2  0  0  0  0  0  0  0  0  0
    7.1223  -16.6848   22.5583 N   0  0  0  0  0  0  0  0  0  0  0  0
    9.0359  -15.6647   23.6051 C   0  0  0  0  0  0  0  0  0  0  0  0
   10.2450  -15.3451   23.7606 O   0  0  0  0  0  0  0  0  0  0  0  0
    7.9137  -11.6450   25.0299 C   0  0  0  0  0  0  0  0  0  0  0  0
    6.9845  -12.7535   25.3804 C   0  0  2  0  0  0  0  0  0  0  0  0
    5.7790  -12.1058   26.1009 C   0  0  0  0  0  0  0  0  0  0  0  0
    7.4606  -13.8103   26.2777 C   0  0  0  0  0  0  0  0  0  0  0  0
    8.5877  -14.6971   25.9223 C   0  0  2  0  0  0  0  0  0  0  0  0
    8.1380  -15.3090   24.6274 N   0  0  0  0  0  0  0  0  0  0  0  0
    8.9176  -15.8284   26.7663 C   0  0  0  0  0  0  0  0  0  0  0  0
    9.3520  -15.6624   27.9608 O   0  0  0  0  0  0  0  0  0  0  0  0
    6.3771  -19.5185   25.3049 N   0  0  0  0  0  0  0  0  0  0  0  0
    7.6344  -19.7140   25.9238 C   0  0  0  0  0  0  0  0  0  0  0  0
    8.5388  -20.3136   25.2884 O   0  0  0  0  0  0  0  0  0  0  0  0
    7.9062  -19.2335   27.2815 C   0  0  0  0  0  0  0  0  0  0  0  0
    9.1092  -18.2726   27.3098 C   0  0  2  0  0  0  0  0  0  0  0  0
    8.7891  -17.1831   26.3769 N   0  0  0  0  0  0  0  0  0  0  0  0
   10.3688  -18.9402   27.0140 C   0  0  0  0  0  0  0  0  0  0  0  0
   11.0906  -18.5778   25.8922 O   0  0  0  0  0  0  0  0  0  0  0  0
   10.8168  -19.8365   27.7548 O   0  0  0  0  0  0  0  0  0  0  0  0
  2  1  1  0
  2  3  2  0
  4  2  1  0
  5  4  1  0
  5  6  1  1
  7  8  2  0
  7  5  1  0
 10  9  1  1
 10 11  1  0
 10 12  1  0
 13 12  1  1
 13 14  1  0
 14  7  1  0
 15 13  1  0
 15 16  2  0
 18 17  1  0
 18 20  1  0
 19 18  2  0
 21 22  1  0
 21 20  1  6
 22 15  1  0
 23 21  1  0
 24 23  1  0
 25 23  2  0
M  END
$$$$
