NLN.pdb
     RDKit          3D

 25 24  0  0  1  0  0  0  0  0999 V2000
   10.0619  -16.1920   14.4241 N   0  0  0  0  0  0  0  0  0  0  0  0
   11.0236  -16.9789   15.0909 C   0  0  0  0  0  0  0  0  0  0  0  0
   10.9601  -18.2238   15.0354 O   0  0  0  0  0  0  0  0  0  0  0  0
   12.1067  -16.3304   15.8552 C   0  0  0  0  0  0  0  0  0  0  0  0
   12.0556  -16.8451   17.2766 C   0  0  2  0  0  0  0  0  0  0  0  0
   11.1004  -17.9296   17.4144 N   0  0  0  0  0  0  0  0  0  0  0  0
   11.7584  -15.7767   18.2691 C   0  0  0  0  0  0  0  0  0  0  0  0
   12.5203  -14.7931   18.4696 O   0  0  0  0  0  0  0  0  0  0  0  0
    6.6056  -13.2330   19.9179 C   0  0  0  0  0  0  0  0  0  0  0  0
    8.0694  -13.3385   20.1650 C   0  0  2  0  0  0  0  0  0  0  0  0
    8.7307  -12.1711   19.3957 C   0  0  0  0  0  0  0  0  0  0  0  0
    8.7694  -14.5490   19.7250 C   0  0  0  0  0  0  0  0  0  0  0  0
   10.1961  -14.7876   20.0261 C   0  0  2  0  0  0  0  0  0  0  0  0
   10.5775  -15.8437   19.0298 N   0  0  0  0  0  0  0  0  0  0  0  0
   10.5869  -15.3370   21.3093 C   0  0  0  0  0  0  0  0  0  0  0  0
   10.2657  -14.7573   22.4064 O   0  0  0  0  0  0  0  0  0  0  0  0
   10.5073  -19.6931   20.9205 N   0  0  0  0  0  0  0  0  0  0  0  0
   10.5797  -19.1236   22.2138 C   0  0  0  0  0  0  0  0  0  0  0  0
    9.5529  -19.1294   22.9396 O   0  0  0  0  0  0  0  0  0  0  0  0
   11.8193  -18.5322   22.7253 C   0  0  0  0  0  0  0  0  0  0  0  0
   11.7177  -16.9983   22.8151 C   0  0  2  0  0  0  0  0  0  0  0  0
   11.3273  -16.5316   21.4774 N   0  0  0  0  0  0  0  0  0  0  0  0
   12.9396  -16.3823   23.3122 C   0  0  0  0  0  0  0  0  0  0  0  0
   13.3768  -16.6614   24.5935 O   0  0  0  0  0  0  0  0  0  0  0  0
   13.6078  -15.6046   22.6040 O   0  0  0  0  0  0  0  0  0  0  0  0
  2  1  1  0
  2  3  2  0
  4  2  1  0
  5  4  1  0
  5  6  1  6
  7  8  2  0
  7  5  1  0
 10  9  1  6
 10 11  1  0
 10 12  1  0
 13 12  1  1
 13 14  1  0
 14  7  1  0
 15 13  1  0
 15 16  2  0
 18 17  1  0
 18 20  1  0
 19 18  2  0
 21 22  1  0
 21 20  1  6
 22 15  1  0
 23 21  1  0
 24 23  1  0
 25 23  2  0
M  END
$$$$
