NLN.pdb
     RDKit          3D

 25 24  0  0  1  0  0  0  0  0999 V2000
    7.2949  -13.0745   18.6503 N   0  0  0  0  0  0  0  0  0  0  0  0
    8.1506  -13.8817   19.4280 C   0  0  0  0  0  0  0  0  0  0  0  0
    8.6763  -14.8975   18.9291 O   0  0  0  0  0  0  0  0  0  0  0  0
    8.4257  -13.5254   20.8334 C   0  0  0  0  0  0  0  0  0  0  0  0
    8.3853  -14.7925   21.6586 C   0  0  2  0  0  0  0  0  0  0  0  0
    7.0666  -15.3992   21.6355 N   0  0  0  0  0  0  0  0  0  0  0  0
    8.8232  -14.5816   23.0654 C   0  0  0  0  0  0  0  0  0  0  0  0
    9.9825  -14.1958   23.3742 O   0  0  0  0  0  0  0  0  0  0  0  0
    7.6656  -11.4470   26.0124 C   0  0  0  0  0  0  0  0  0  0  0  0
    6.7154  -12.5522   25.7114 C   0  0  2  0  0  0  0  0  0  0  0  0
    5.4135  -12.2357   26.4839 C   0  0  0  0  0  0  0  0  0  0  0  0
    7.0828  -13.9176   26.0980 C   0  0  0  0  0  0  0  0  0  0  0  0
    8.2799  -14.5944   25.5575 C   0  0  2  0  0  0  0  0  0  0  0  0
    7.9193  -14.8149   24.1171 N   0  0  0  0  0  0  0  0  0  0  0  0
    8.6565  -15.9063   26.0453 C   0  0  0  0  0  0  0  0  0  0  0  0
    8.9273  -16.1032   27.2826 O   0  0  0  0  0  0  0  0  0  0  0  0
    6.0851  -19.4114   24.1972 N   0  0  0  0  0  0  0  0  0  0  0  0
    7.0187  -19.4039   25.2605 C   0  0  0  0  0  0  0  0  0  0  0  0
    6.5937  -19.3622   26.4431 O   0  0  0  0  0  0  0  0  0  0  0  0
    8.4631  -19.4461   25.0157 C   0  0  0  0  0  0  0  0  0  0  0  0
    9.2009  -18.3456   25.8005 C   0  0  2  0  0  0  0  0  0  0  0  0
    8.7506  -17.0649   25.2377 N   0  0  0  0  0  0  0  0  0  0  0  0
   10.6469  -18.5136   25.7795 C   0  0  0  0  0  0  0  0  0  0  0  0
   11.3838  -17.9875   24.7350 O   0  0  0  0  0  0  0  0  0  0  0  0
   11.2418  -19.1236   26.6889 O   0  0  0  0  0  0  0  0  0  0  0  0
  2  1  1  0
  2  3  2  0
  4  2  1  0
  5  4  1  0
  5  6  1  1
  7  8  2  0
  7  5  1  0
 10  9  1  1
 10 11  1  0
 10 12  1  0
 13 12  1  1
 13 14  1  0
 14  7  1  0
 15 13  1  0
 15 16  2  0
 18 17  1  0
 18 20  1  0
 19 18  2  0
 21 22  1  0
 21 20  1  6
 22 15  1  0
 23 21  1  0
 24 23  1  0
 25 23  2  0
M  END
$$$$
