NLN.pdb
     RDKit          3D

 25 24  0  0  1  0  0  0  0  0999 V2000
    8.6026  -12.4642   18.0793 N   0  0  0  0  0  0  0  0  0  0  0  0
    7.9917  -13.2940   19.0421 C   0  0  0  0  0  0  0  0  0  0  0  0
    7.2524  -14.2319   18.6805 O   0  0  0  0  0  0  0  0  0  0  0  0
    8.2266  -13.0539   20.4791 C   0  0  0  0  0  0  0  0  0  0  0  0
    8.3958  -14.3937   21.1605 C   0  0  2  0  0  0  0  0  0  0  0  0
    7.1503  -15.1392   21.1823 N   0  0  0  0  0  0  0  0  0  0  0  0
    8.9425  -14.2770   22.5398 C   0  0  0  0  0  0  0  0  0  0  0  0
   10.1096  -13.8693   22.7847 O   0  0  0  0  0  0  0  0  0  0  0  0
    8.0508  -11.5569   26.1636 C   0  0  0  0  0  0  0  0  0  0  0  0
    7.0545  -12.5671   25.7144 C   0  0  2  0  0  0  0  0  0  0  0  0
    5.8309  -12.4241   26.6494 C   0  0  0  0  0  0  0  0  0  0  0  0
    7.4239  -13.9849   25.7602 C   0  0  0  0  0  0  0  0  0  0  0  0
    8.6120  -14.5126   25.0581 C   0  0  2  0  0  0  0  0  0  0  0  0
    8.1385  -14.6298   23.6384 N   0  0  0  0  0  0  0  0  0  0  0  0
    9.1240  -15.8292   25.3828 C   0  0  0  0  0  0  0  0  0  0  0  0
    9.2374  -16.2171   26.5992 O   0  0  0  0  0  0  0  0  0  0  0  0
    9.9393  -21.4735   24.2742 N   0  0  0  0  0  0  0  0  0  0  0  0
   10.6276  -20.3040   23.8731 C   0  0  0  0  0  0  0  0  0  0  0  0
   11.8721  -20.3589   23.7018 O   0  0  0  0  0  0  0  0  0  0  0  0
    9.9257  -19.0366   23.6515 C   0  0  0  0  0  0  0  0  0  0  0  0
   10.1072  -18.0755   24.8409 C   0  0  2  0  0  0  0  0  0  0  0  0
    9.5270  -16.7908   24.4255 N   0  0  0  0  0  0  0  0  0  0  0  0
   11.4932  -17.9743   25.2751 C   0  0  0  0  0  0  0  0  0  0  0  0
   12.3496  -17.0958   24.6382 O   0  0  0  0  0  0  0  0  0  0  0  0
   11.9294  -18.6646   26.2164 O   0  0  0  0  0  0  0  0  0  0  0  0
  2  1  1  0
  2  3  2  0
  4  2  1  0
  5  4  1  0
  5  6  1  1
  7  8  2  0
  7  5  1  0
 10  9  1  1
 10 11  1  0
 10 12  1  0
 13 12  1  1
 13 14  1  0
 14  7  1  0
 15 13  1  0
 15 16  2  0
 18 17  1  0
 18 20  1  0
 19 18  2  0
 21 22  1  0
 21 20  1  6
 22 15  1  0
 23 21  1  0
 24 23  1  0
 25 23  2  0
M  END
$$$$
