NLN.pdb
     RDKit          3D

 25 24  0  0  1  0  0  0  0  0999 V2000
   11.1401  -18.7740   14.9601 N   0  0  0  0  0  0  0  0  0  0  0  0
   10.2349  -17.9821   15.6965 C   0  0  0  0  0  0  0  0  0  0  0  0
    9.0190  -18.2625   15.7006 O   0  0  0  0  0  0  0  0  0  0  0  0
   10.7250  -16.8207   16.4636 C   0  0  0  0  0  0  0  0  0  0  0  0
   10.7529  -17.1992   17.9278 C   0  0  2  0  0  0  0  0  0  0  0  0
    9.6470  -18.0748   18.2709 N   0  0  0  0  0  0  0  0  0  0  0  0
   10.7643  -16.0167   18.8315 C   0  0  0  0  0  0  0  0  0  0  0  0
   11.7252  -15.2033   18.8877 O   0  0  0  0  0  0  0  0  0  0  0  0
    6.4213  -12.6892   20.0631 C   0  0  0  0  0  0  0  0  0  0  0  0
    7.8386  -12.9218   20.4532 C   0  0  2  0  0  0  0  0  0  0  0  0
    8.7029  -12.5044   19.2406 C   0  0  0  0  0  0  0  0  0  0  0  0
    8.2590  -14.2856   20.7880 C   0  0  0  0  0  0  0  0  0  0  0  0
    9.6730  -14.7105   20.7313 C   0  0  2  0  0  0  0  0  0  0  0  0
    9.6623  -15.7724   19.6704 N   0  0  0  0  0  0  0  0  0  0  0  0
   10.2882  -15.3465   21.8794 C   0  0  0  0  0  0  0  0  0  0  0  0
   10.2052  -14.8300   23.0495 O   0  0  0  0  0  0  0  0  0  0  0  0
   11.2535  -20.0477   25.1822 N   0  0  0  0  0  0  0  0  0  0  0  0
   11.1565  -18.6644   24.9005 C   0  0  0  0  0  0  0  0  0  0  0  0
   11.4688  -17.8378   25.7950 O   0  0  0  0  0  0  0  0  0  0  0  0
   10.7046  -18.1754   23.5948 C   0  0  0  0  0  0  0  0  0  0  0  0
   11.6596  -17.1070   23.0310 C   0  0  2  0  0  0  0  0  0  0  0  0
   11.0086  -16.5639   21.8306 N   0  0  0  0  0  0  0  0  0  0  0  0
   12.9979  -17.6240   22.7831 C   0  0  0  0  0  0  0  0  0  0  0  0
   13.9130  -17.6835   23.8174 O   0  0  0  0  0  0  0  0  0  0  0  0
   13.3407  -18.0194   21.6522 O   0  0  0  0  0  0  0  0  0  0  0  0
  2  1  1  0
  2  3  2  0
  4  2  1  0
  5  4  1  0
  5  6  1  1
  7  8  2  0
  7  5  1  0
 10  9  1  6
 10 11  1  0
 10 12  1  0
 13 12  1  1
 13 14  1  0
 14  7  1  0
 15 13  1  0
 15 16  2  0
 18 17  1  0
 18 20  1  0
 19 18  2  0
 21 22  1  0
 21 20  1  6
 22 15  1  0
 23 21  1  0
 24 23  1  0
 25 23  2  0
M  END
$$$$
