NLN.pdb
     RDKit          3D

 25 24  0  0  1  0  0  0  0  0999 V2000
    8.4607  -17.0150   19.4055 N   0  0  0  0  0  0  0  0  0  0  0  0
    8.2684  -15.6186   19.4512 C   0  0  0  0  0  0  0  0  0  0  0  0
    8.0034  -14.9895   18.4066 O   0  0  0  0  0  0  0  0  0  0  0  0
    8.3801  -14.8998   20.7351 C   0  0  0  0  0  0  0  0  0  0  0  0
    8.6500  -15.9153   21.8232 C   0  0  2  0  0  0  0  0  0  0  0  0
    7.5141  -16.7980   22.0191 N   0  0  0  0  0  0  0  0  0  0  0  0
    9.0361  -15.2891   23.1169 C   0  0  0  0  0  0  0  0  0  0  0  0
   10.1589  -14.7511   23.3125 O   0  0  0  0  0  0  0  0  0  0  0  0
    8.0256  -11.6190   26.0204 C   0  0  0  0  0  0  0  0  0  0  0  0
    7.0187  -12.6315   25.6011 C   0  0  2  0  0  0  0  0  0  0  0  0
    5.6902  -12.2427   26.2907 C   0  0  0  0  0  0  0  0  0  0  0  0
    7.2494  -14.0363   25.9505 C   0  0  0  0  0  0  0  0  0  0  0  0
    8.4745  -14.7574   25.5476 C   0  0  2  0  0  0  0  0  0  0  0  0
    8.1226  -15.2826   24.1861 N   0  0  0  0  0  0  0  0  0  0  0  0
    8.9087  -15.9248   26.2890 C   0  0  0  0  0  0  0  0  0  0  0  0
    9.2017  -15.8504   27.5347 O   0  0  0  0  0  0  0  0  0  0  0  0
    6.2912  -19.1599   25.6301 N   0  0  0  0  0  0  0  0  0  0  0  0
    7.3143  -19.3902   26.5802 C   0  0  0  0  0  0  0  0  0  0  0  0
    7.0113  -19.4457   27.7993 O   0  0  0  0  0  0  0  0  0  0  0  0
    8.7122  -19.5672   26.1771 C   0  0  0  0  0  0  0  0  0  0  0  0
    9.5639  -18.3362   26.5386 C   0  0  2  0  0  0  0  0  0  0  0  0
    9.0393  -17.2217   25.7371 N   0  0  0  0  0  0  0  0  0  0  0  0
   10.9897  -18.5652   26.3530 C   0  0  0  0  0  0  0  0  0  0  0  0
   11.7401  -19.0937   27.3866 O   0  0  0  0  0  0  0  0  0  0  0  0
   11.5544  -18.2960   25.2752 O   0  0  0  0  0  0  0  0  0  0  0  0
  2  1  1  0
  2  3  2  0
  4  2  1  0
  5  4  1  0
  5  6  1  1
  7  8  2  0
  7  5  1  0
 10  9  1  1
 10 11  1  0
 10 12  1  0
 13 12  1  1
 13 14  1  0
 14  7  1  0
 15 13  1  0
 15 16  2  0
 18 17  1  0
 18 20  1  0
 19 18  2  0
 21 22  1  0
 21 20  1  6
 22 15  1  0
 23 21  1  0
 24 23  1  0
 25 23  2  0
M  END
$$$$
