NLN.pdb
     RDKit          3D

 25 24  0  0  1  0  0  0  0  0999 V2000
    6.0189  -21.8119   25.3987 N   0  0  0  0  0  0  0  0  0  0  0  0
    6.0110  -20.7098   26.2786 C   0  0  0  0  0  0  0  0  0  0  0  0
    6.1364  -20.8897   27.5070 O   0  0  0  0  0  0  0  0  0  0  0  0
    5.8548  -19.3421   25.7471 C   0  0  0  0  0  0  0  0  0  0  0  0
    7.2319  -18.7879   25.4567 C   0  0  2  0  0  0  0  0  0  0  0  0
    8.0282  -18.6838   26.6661 N   0  0  0  0  0  0  0  0  0  0  0  0
    7.1920  -17.4734   24.7597 C   0  0  0  0  0  0  0  0  0  0  0  0
    6.5340  -17.2749   23.7034 O   0  0  0  0  0  0  0  0  0  0  0  0
    5.6631  -13.1986   25.8531 C   0  0  0  0  0  0  0  0  0  0  0  0
    6.8427  -13.8707   26.4629 C   0  0  2  0  0  0  0  0  0  0  0  0
    7.3049  -12.9715   27.6333 C   0  0  0  0  0  0  0  0  0  0  0  0
    8.0331  -14.0854   25.6349 C   0  0  0  0  0  0  0  0  0  0  0  0
    8.0675  -15.0869   24.5492 C   0  0  2  0  0  0  0  0  0  0  0  0
    7.9121  -16.3858   25.2854 N   0  0  0  0  0  0  0  0  0  0  0  0
    9.2678  -15.2580   23.7548 C   0  0  0  0  0  0  0  0  0  0  0  0
    9.5225  -14.4897   22.7609 O   0  0  0  0  0  0  0  0  0  0  0  0
   13.2079  -15.0070   21.4621 N   0  0  0  0  0  0  0  0  0  0  0  0
   13.5069  -15.0532   22.8444 C   0  0  0  0  0  0  0  0  0  0  0  0
   14.6010  -14.5816   23.2463 O   0  0  0  0  0  0  0  0  0  0  0  0
   12.5735  -15.6332   23.8141 C   0  0  0  0  0  0  0  0  0  0  0  0
   11.4220  -16.3778   23.1133 C   0  0  2  0  0  0  0  0  0  0  0  0
   10.2513  -16.2478   23.9920 N   0  0  0  0  0  0  0  0  0  0  0  0
   11.7580  -17.7576   22.7924 C   0  0  0  0  0  0  0  0  0  0  0  0
   11.4655  -18.7628   23.6951 O   0  0  0  0  0  0  0  0  0  0  0  0
   12.3056  -18.0573   21.7139 O   0  0  0  0  0  0  0  0  0  0  0  0
  2  1  1  0
  2  3  2  0
  4  2  1  0
  5  4  1  0
  5  6  1  1
  7  8  2  0
  7  5  1  0
 10  9  1  6
 10 11  1  0
 10 12  1  0
 13 12  1  1
 13 14  1  0
 14  7  1  0
 15 13  1  0
 15 16  2  0
 18 17  1  0
 18 20  1  0
 19 18  2  0
 21 22  1  0
 21 20  1  1
 22 15  1  0
 23 21  1  0
 24 23  1  0
 25 23  2  0
M  END
$$$$
