MWK.pdb
     RDKit          3D

 32 33  0  0  1  0  0  0  0  0999 V2000
    9.2646  -20.2167   18.5152 C   0  0  0  0  0  0  0  0  0  0  0  0
    7.5087  -20.4909   18.8142 S   0  0  0  0  0  0  0  0  0  0  0  0
    6.6832  -19.0329   19.4906 C   0  0  0  0  0  0  0  0  0  0  0  0
    7.6228  -18.2384   20.3536 C   0  0  0  0  0  0  0  0  0  0  0  0
    6.9755  -17.0889   21.0815 C   0  0  2  0  0  0  0  0  0  0  0  0
    6.4460  -16.1817   20.0469 N   0  0  0  0  0  0  0  0  0  0  0  0
    7.9315  -16.3702   21.9337 C   0  0  0  0  0  0  0  0  0  0  0  0
    8.6264  -15.4431   21.4230 O   0  0  0  0  0  0  0  0  0  0  0  0
    8.1024  -16.6831   23.3198 N   0  0  0  0  0  0  0  0  0  0  0  0
    9.1349  -16.0312   24.0551 C   0  0  1  0  0  0  0  0  0  0  0  0
    8.7892  -15.8508   25.5209 C   0  0  0  0  0  0  0  0  0  0  0  0
    7.6064  -15.0151   25.7123 C   0  0  0  0  0  0  0  0  0  0  0  0
    6.2877  -15.4050   25.7013 C   0  0  0  0  0  0  0  0  0  0  0  0
    5.5072  -14.3087   25.9210 N   0  0  0  0  0  0  0  0  0  0  0  0
    6.2780  -13.2205   26.0741 C   0  0  0  0  0  0  0  0  0  0  0  0
    5.9888  -11.8849   26.3137 C   0  0  0  0  0  0  0  0  0  0  0  0
    6.9713  -10.9288   26.4350 C   0  0  0  0  0  0  0  0  0  0  0  0
    8.2921  -11.3683   26.3042 C   0  0  0  0  0  0  0  0  0  0  0  0
    8.5765  -12.6843   26.0682 C   0  0  0  0  0  0  0  0  0  0  0  0
    7.5843  -13.6452   25.9466 C   0  0  0  0  0  0  0  0  0  0  0  0
   10.3483  -16.9305   24.0137 C   0  0  0  0  0  0  0  0  0  0  0  0
   10.2637  -18.1387   24.3488 O   0  0  0  0  0  0  0  0  0  0  0  0
   11.6089  -16.4380   23.5979 N   0  0  0  0  0  0  0  0  0  0  0  0
   12.7804  -17.3134   23.4353 C   0  0  1  0  0  0  0  0  0  0  0  0
   13.4504  -17.0827   22.1436 C   0  0  0  0  0  0  0  0  0  0  0  0
   14.1780  -15.7775   22.0743 C   0  0  0  0  0  0  0  0  0  0  0  0
   14.6720  -15.5459   20.6688 C   0  0  0  0  0  0  0  0  0  0  0  0
   15.3675  -14.1895   20.5989 C   0  0  0  0  0  0  0  0  0  0  0  0
   15.7457  -13.9149   19.2339 N   0  0  0  0  0  0  0  0  0  0  0  0
   13.6990  -17.1024   24.5787 C   0  0  0  0  0  0  0  0  0  0  0  0
   13.5441  -16.2100   25.4177 O   0  0  0  0  0  0  0  0  0  0  0  0
   14.8163  -17.9339   24.7582 O   0  0  0  0  0  0  0  0  0  0  0  0
  2  1  1  0
  3  2  1  0
  4  3  1  0
  5  7  1  0
  5  4  1  0
  5  6  1  6
  7  8  2  0
  9 10  1  0
  9  7  1  0
 10 11  1  1
 11 12  1  0
 12 13  2  0
 12 20  1  0
 13 14  1  0
 14 15  1  0
 15 16  2  0
 16 17  1  0
 18 17  2  0
 19 18  1  0
 20 19  2  0
 20 15  1  0
 21 10  1  0
 22 21  2  0
 23 21  1  0
 24 25  1  6
 24 23  1  0
 25 26  1  0
 26 27  1  0
 27 28  1  0
 28 29  1  0
 30 24  1  0
 30 32  1  0
 31 30  2  0
M  END
$$$$
