MWK.pdb
     RDKit          3D

 32 33  0  0  1  0  0  0  0  0999 V2000
    8.4901  -11.7939   19.5648 C   0  0  0  0  0  0  0  0  0  0  0  0
    7.2963  -13.0046   18.9675 S   0  0  0  0  0  0  0  0  0  0  0  0
    7.7352  -14.6968   19.4242 C   0  0  0  0  0  0  0  0  0  0  0  0
    8.3739  -14.7353   20.7842 C   0  0  0  0  0  0  0  0  0  0  0  0
    8.7861  -16.1117   21.2379 C   0  0  2  0  0  0  0  0  0  0  0  0
    7.5740  -16.9498   21.1907 N   0  0  0  0  0  0  0  0  0  0  0  0
    9.3321  -16.1001   22.6012 C   0  0  0  0  0  0  0  0  0  0  0  0
   10.4263  -15.4997   22.8147 O   0  0  0  0  0  0  0  0  0  0  0  0
    8.6686  -16.7439   23.6938 N   0  0  0  0  0  0  0  0  0  0  0  0
    9.2538  -16.6840   24.9921 C   0  0  1  0  0  0  0  0  0  0  0  0
    8.2207  -16.6650   26.1026 C   0  0  0  0  0  0  0  0  0  0  0  0
    7.2726  -15.5631   25.9584 C   0  0  0  0  0  0  0  0  0  0  0  0
    5.9822  -15.6174   25.4859 C   0  0  0  0  0  0  0  0  0  0  0  0
    5.4523  -14.3615   25.5202 N   0  0  0  0  0  0  0  0  0  0  0  0
    6.3582  -13.4947   25.9997 C   0  0  0  0  0  0  0  0  0  0  0  0
    6.3257  -12.1272   26.2319 C   0  0  0  0  0  0  0  0  0  0  0  0
    7.4046  -11.4408   26.7409 C   0  0  0  0  0  0  0  0  0  0  0  0
    8.5508  -12.1920   27.0175 C   0  0  0  0  0  0  0  0  0  0  0  0
    8.5822  -13.5393   26.7886 C   0  0  0  0  0  0  0  0  0  0  0  0
    7.4935  -14.2281   26.2757 C   0  0  0  0  0  0  0  0  0  0  0  0
   10.0542  -17.9516   25.1798 C   0  0  0  0  0  0  0  0  0  0  0  0
    9.5295  -19.0769   24.9860 O   0  0  0  0  0  0  0  0  0  0  0  0
   11.4121  -17.9060   25.5779 N   0  0  0  0  0  0  0  0  0  0  0  0
   12.2347  -19.1192   25.7073 C   0  0  1  0  0  0  0  0  0  0  0  0
   13.5879  -18.9133   25.1623 C   0  0  0  0  0  0  0  0  0  0  0  0
   14.4388  -20.1431   25.1990 C   0  0  0  0  0  0  0  0  0  0  0  0
   15.7928  -19.8412   24.6086 C   0  0  0  0  0  0  0  0  0  0  0  0
   16.6029  -21.1318   24.5263 C   0  0  0  0  0  0  0  0  0  0  0  0
   17.8151  -20.8897   23.7821 N   0  0  0  0  0  0  0  0  0  0  0  0
   12.2696  -19.5253   27.1319 C   0  0  0  0  0  0  0  0  0  0  0  0
   12.8234  -20.5542   27.5306 O   0  0  0  0  0  0  0  0  0  0  0  0
   11.6549  -18.7324   28.1143 O   0  0  0  0  0  0  0  0  0  0  0  0
  2  1  1  0
  3  2  1  0
  4  3  1  0
  5  7  1  0
  5  4  1  0
  5  6  1  1
  7  8  2  0
  9 10  1  0
  9  7  1  0
 10 11  1  1
 11 12  1  0
 12 13  2  0
 12 20  1  0
 13 14  1  0
 14 15  1  0
 15 16  2  0
 16 17  1  0
 18 17  2  0
 19 18  1  0
 20 19  2  0
 20 15  1  0
 21 10  1  0
 22 21  2  0
 23 21  1  0
 24 25  1  1
 24 23  1  0
 25 26  1  0
 26 27  1  0
 27 28  1  0
 28 29  1  0
 30 24  1  0
 30 32  1  0
 31 30  2  0
M  END
$$$$
