MWK.pdb
     RDKit          3D

 32 33  0  0  1  0  0  0  0  0999 V2000
    6.8558  -12.3783   17.4972 C   0  0  0  0  0  0  0  0  0  0  0  0
    7.6632  -12.6126   19.0912 S   0  0  0  0  0  0  0  0  0  0  0  0
    7.8177  -14.3555   19.5422 C   0  0  0  0  0  0  0  0  0  0  0  0
    8.5259  -14.5064   20.8593 C   0  0  0  0  0  0  0  0  0  0  0  0
    8.6824  -15.9322   21.3204 C   0  0  2  0  0  0  0  0  0  0  0  0
    7.3205  -16.4611   21.5188 N   0  0  0  0  0  0  0  0  0  0  0  0
    9.4410  -16.0239   22.5746 C   0  0  0  0  0  0  0  0  0  0  0  0
   10.6400  -15.6174   22.5929 O   0  0  0  0  0  0  0  0  0  0  0  0
    8.8699  -16.5565   23.7739 N   0  0  0  0  0  0  0  0  0  0  0  0
    9.6313  -16.5224   24.9784 C   0  0  1  0  0  0  0  0  0  0  0  0
    8.7743  -16.2993   26.2099 C   0  0  0  0  0  0  0  0  0  0  0  0
    7.6274  -15.4364   25.9377 C   0  0  0  0  0  0  0  0  0  0  0  0
    6.3890  -15.8038   25.4659 C   0  0  0  0  0  0  0  0  0  0  0  0
    5.6152  -14.6864   25.3566 N   0  0  0  0  0  0  0  0  0  0  0  0
    6.3126  -13.6063   25.7426 C   0  0  0  0  0  0  0  0  0  0  0  0
    5.9973  -12.2575   25.8209 C   0  0  0  0  0  0  0  0  0  0  0  0
    6.8996  -11.3144   26.2573 C   0  0  0  0  0  0  0  0  0  0  0  0
    8.1656  -11.7813   26.6233 C   0  0  0  0  0  0  0  0  0  0  0  0
    8.4756  -13.1103   26.5460 C   0  0  0  0  0  0  0  0  0  0  0  0
    7.5643  -14.0582   26.1059 C   0  0  0  0  0  0  0  0  0  0  0  0
   10.2651  -17.8838   25.1445 C   0  0  0  0  0  0  0  0  0  0  0  0
    9.5575  -18.9217   25.1782 O   0  0  0  0  0  0  0  0  0  0  0  0
   11.6684  -18.0264   25.2663 N   0  0  0  0  0  0  0  0  0  0  0  0
   12.3201  -19.3426   25.3571 C   0  0  1  0  0  0  0  0  0  0  0  0
   13.2764  -19.5476   24.2552 C   0  0  0  0  0  0  0  0  0  0  0  0
   14.3364  -18.4947   24.1822 C   0  0  0  0  0  0  0  0  0  0  0  0
   15.1634  -18.6926   22.9373 C   0  0  0  0  0  0  0  0  0  0  0  0
   16.3579  -17.7436   22.9727 C   0  0  0  0  0  0  0  0  0  0  0  0
   17.1348  -17.9063   21.7679 N   0  0  0  0  0  0  0  0  0  0  0  0
   12.9712  -19.4649   26.6825 C   0  0  0  0  0  0  0  0  0  0  0  0
   13.0309  -18.5389   27.4970 O   0  0  0  0  0  0  0  0  0  0  0  0
   13.5647  -20.6751   27.0761 O   0  0  0  0  0  0  0  0  0  0  0  0
  2  1  1  0
  3  2  1  0
  4  3  1  0
  5  7  1  0
  5  4  1  0
  5  6  1  1
  7  8  2  0
  9 10  1  0
  9  7  1  0
 10 11  1  1
 11 12  1  0
 12 13  2  0
 12 20  1  0
 13 14  1  0
 14 15  1  0
 15 16  2  0
 16 17  1  0
 18 17  2  0
 19 18  1  0
 20 19  2  0
 20 15  1  0
 21 10  1  0
 22 21  2  0
 23 21  1  0
 24 25  1  6
 24 23  1  0
 25 26  1  0
 26 27  1  0
 27 28  1  0
 28 29  1  0
 30 24  1  0
 30 32  1  0
 31 30  2  0
M  END
$$$$
