MWK.pdb
     RDKit          3D

 32 33  0  0  1  0  0  0  0  0999 V2000
    8.0930  -11.8682   19.9437 C   0  0  0  0  0  0  0  0  0  0  0  0
    7.3150  -13.1039   18.8875 S   0  0  0  0  0  0  0  0  0  0  0  0
    7.3381  -14.7562   19.6183 C   0  0  0  0  0  0  0  0  0  0  0  0
    8.3472  -14.8356   20.7294 C   0  0  0  0  0  0  0  0  0  0  0  0
    8.5314  -16.2165   21.3034 C   0  0  2  0  0  0  0  0  0  0  0  0
    7.1811  -16.7832   21.4752 N   0  0  0  0  0  0  0  0  0  0  0  0
    9.2278  -16.1856   22.5960 C   0  0  0  0  0  0  0  0  0  0  0  0
   10.3661  -15.6350   22.6623 O   0  0  0  0  0  0  0  0  0  0  0  0
    8.6625  -16.7564   23.7805 N   0  0  0  0  0  0  0  0  0  0  0  0
    9.3861  -16.6685   25.0054 C   0  0  1  0  0  0  0  0  0  0  0  0
    8.4821  -16.5020   26.2120 C   0  0  0  0  0  0  0  0  0  0  0  0
    7.5201  -15.4166   26.0378 C   0  0  0  0  0  0  0  0  0  0  0  0
    6.2112  -15.5078   25.6259 C   0  0  0  0  0  0  0  0  0  0  0  0
    5.6735  -14.2550   25.6017 N   0  0  0  0  0  0  0  0  0  0  0  0
    6.5922  -13.3544   25.9847 C   0  0  0  0  0  0  0  0  0  0  0  0
    6.5590  -11.9749   26.1292 C   0  0  0  0  0  0  0  0  0  0  0  0
    7.6532  -11.2515   26.5458 C   0  0  0  0  0  0  0  0  0  0  0  0
    8.8160  -11.9775   26.8208 C   0  0  0  0  0  0  0  0  0  0  0  0
    8.8481  -13.3365   26.6783 C   0  0  0  0  0  0  0  0  0  0  0  0
    7.7440  -14.0626   26.2584 C   0  0  0  0  0  0  0  0  0  0  0  0
   10.1061  -17.9833   25.1939 C   0  0  0  0  0  0  0  0  0  0  0  0
    9.4646  -19.0607   25.2753 O   0  0  0  0  0  0  0  0  0  0  0  0
   11.5180  -18.0368   25.2835 N   0  0  0  0  0  0  0  0  0  0  0  0
   12.2482  -19.3038   25.4469 C   0  0  1  0  0  0  0  0  0  0  0  0
   13.5249  -19.2887   24.7119 C   0  0  0  0  0  0  0  0  0  0  0  0
   13.3582  -19.1735   23.2297 C   0  0  0  0  0  0  0  0  0  0  0  0
   14.7122  -19.1493   22.5671 C   0  0  0  0  0  0  0  0  0  0  0  0
   14.5298  -19.0047   21.0590 C   0  0  0  0  0  0  0  0  0  0  0  0
   15.8222  -18.8767   20.4304 N   0  0  0  0  0  0  0  0  0  0  0  0
   12.4469  -19.5598   26.8928 C   0  0  0  0  0  0  0  0  0  0  0  0
   12.1675  -18.7389   27.7717 O   0  0  0  0  0  0  0  0  0  0  0  0
   12.9779  -20.7827   27.3337 O   0  0  0  0  0  0  0  0  0  0  0  0
  2  1  1  0
  3  2  1  0
  4  3  1  0
  5  7  1  0
  5  4  1  0
  5  6  1  1
  7  8  2  0
  9 10  1  0
  9  7  1  0
 10 11  1  1
 11 12  1  0
 12 13  2  0
 12 20  1  0
 13 14  1  0
 14 15  1  0
 15 16  2  0
 16 17  1  0
 18 17  2  0
 19 18  1  0
 20 19  2  0
 20 15  1  0
 21 10  1  0
 22 21  2  0
 23 21  1  0
 24 25  1  6
 24 23  1  0
 25 26  1  0
 26 27  1  0
 27 28  1  0
 28 29  1  0
 30 24  1  0
 30 32  1  0
 31 30  2  0
M  END
$$$$
