MWK.pdb
     RDKit          3D

 32 33  0  0  1  0  0  0  0  0999 V2000
    7.7114  -11.7759   18.3450 C   0  0  0  0  0  0  0  0  0  0  0  0
    7.0866  -13.1926   17.4229 S   0  0  0  0  0  0  0  0  0  0  0  0
    7.7464  -14.7617   18.0289 C   0  0  0  0  0  0  0  0  0  0  0  0
    8.5933  -14.5491   19.2523 C   0  0  0  0  0  0  0  0  0  0  0  0
    9.1146  -15.8183   19.8749 C   0  0  2  0  0  0  0  0  0  0  0  0
    8.1100  -16.8626   19.6032 N   0  0  0  0  0  0  0  0  0  0  0  0
    9.3106  -15.6791   21.3237 C   0  0  0  0  0  0  0  0  0  0  0  0
   10.3924  -15.1752   21.7470 O   0  0  0  0  0  0  0  0  0  0  0  0
    8.3204  -16.0936   22.2703 N   0  0  0  0  0  0  0  0  0  0  0  0
    8.5508  -15.8660   23.6584 C   0  0  1  0  0  0  0  0  0  0  0  0
    7.2770  -15.9096   24.4809 C   0  0  0  0  0  0  0  0  0  0  0  0
    7.4491  -15.3084   25.8010 C   0  0  0  0  0  0  0  0  0  0  0  0
    7.9222  -15.9071   26.9451 C   0  0  0  0  0  0  0  0  0  0  0  0
    7.9209  -14.9868   27.9512 N   0  0  0  0  0  0  0  0  0  0  0  0
    7.4620  -13.8104   27.4958 C   0  0  0  0  0  0  0  0  0  0  0  0
    7.2642  -12.5768   28.0991 C   0  0  0  0  0  0  0  0  0  0  0  0
    6.7703  -11.4916   27.4118 C   0  0  0  0  0  0  0  0  0  0  0  0
    6.4722  -11.6892   26.0602 C   0  0  0  0  0  0  0  0  0  0  0  0
    6.6672  -12.9048   25.4664 C   0  0  0  0  0  0  0  0  0  0  0  0
    7.1651  -13.9964   26.1616 C   0  0  0  0  0  0  0  0  0  0  0  0
    9.4170  -16.9983   24.1588 C   0  0  0  0  0  0  0  0  0  0  0  0
    9.1239  -18.1928   23.9015 O   0  0  0  0  0  0  0  0  0  0  0  0
   10.5780  -16.7448   24.9283 N   0  0  0  0  0  0  0  0  0  0  0  0
   11.5472  -17.8010   25.2605 C   0  0  1  0  0  0  0  0  0  0  0  0
   12.8756  -17.5113   24.6932 C   0  0  0  0  0  0  0  0  0  0  0  0
   13.8947  -18.5644   24.9935 C   0  0  0  0  0  0  0  0  0  0  0  0
   15.1961  -18.2194   24.3150 C   0  0  0  0  0  0  0  0  0  0  0  0
   16.2281  -19.2978   24.6323 C   0  0  0  0  0  0  0  0  0  0  0  0
   16.8016  -19.7885   23.4026 N   0  0  0  0  0  0  0  0  0  0  0  0
   11.5986  -17.9588   26.7330 C   0  0  0  0  0  0  0  0  0  0  0  0
   12.2966  -18.8042   27.3007 O   0  0  0  0  0  0  0  0  0  0  0  0
   10.8315  -17.1284   27.5660 O   0  0  0  0  0  0  0  0  0  0  0  0
  2  1  1  0
  3  2  1  0
  4  3  1  0
  5  7  1  0
  5  4  1  0
  5  6  1  1
  7  8  2  0
  9 10  1  0
  9  7  1  0
 10 11  1  1
 11 12  1  0
 12 13  2  0
 12 20  1  0
 13 14  1  0
 14 15  1  0
 15 16  2  0
 16 17  1  0
 18 17  2  0
 19 18  1  0
 20 19  2  0
 20 15  1  0
 21 10  1  0
 22 21  2  0
 23 21  1  0
 24 25  1  1
 24 23  1  0
 25 26  1  0
 26 27  1  0
 27 28  1  0
 28 29  1  0
 30 24  1  0
 30 32  1  0
 31 30  2  0
M  END
$$$$
