MWK.pdb
     RDKit          3D

 32 33  0  0  1  0  0  0  0  0999 V2000
    7.7106  -12.3470   17.3144 C   0  0  0  0  0  0  0  0  0  0  0  0
    8.1093  -13.0119   18.9412 S   0  0  0  0  0  0  0  0  0  0  0  0
    6.6555  -13.6427   19.8093 C   0  0  0  0  0  0  0  0  0  0  0  0
    7.0279  -14.1595   21.1707 C   0  0  0  0  0  0  0  0  0  0  0  0
    8.0088  -15.3030   21.1539 C   0  0  2  0  0  0  0  0  0  0  0  0
    7.2137  -16.5361   21.0093 N   0  0  0  0  0  0  0  0  0  0  0  0
    8.8034  -15.3633   22.3875 C   0  0  0  0  0  0  0  0  0  0  0  0
    9.7285  -14.5159   22.5589 O   0  0  0  0  0  0  0  0  0  0  0  0
    8.5661  -16.3466   23.4000 N   0  0  0  0  0  0  0  0  0  0  0  0
    9.3373  -16.3075   24.5981 C   0  0  1  0  0  0  0  0  0  0  0  0
    8.4853  -16.4028   25.8494 C   0  0  0  0  0  0  0  0  0  0  0  0
    7.4707  -15.3536   25.9099 C   0  0  0  0  0  0  0  0  0  0  0  0
    6.1174  -15.4760   25.6977 C   0  0  0  0  0  0  0  0  0  0  0  0
    5.5392  -14.2511   25.8539 N   0  0  0  0  0  0  0  0  0  0  0  0
    6.4745  -13.3384   26.1605 C   0  0  0  0  0  0  0  0  0  0  0  0
    6.4162  -11.9758   26.4154 C   0  0  0  0  0  0  0  0  0  0  0  0
    7.5362  -11.2339   26.7143 C   0  0  0  0  0  0  0  0  0  0  0  0
    8.7523  -11.9228   26.7503 C   0  0  0  0  0  0  0  0  0  0  0  0
    8.8091  -13.2652   26.4992 C   0  0  0  0  0  0  0  0  0  0  0  0
    7.6789  -14.0100   26.1983 C   0  0  0  0  0  0  0  0  0  0  0  0
   10.2262  -17.5293   24.5969 C   0  0  0  0  0  0  0  0  0  0  0  0
    9.7803  -18.6472   24.2357 O   0  0  0  0  0  0  0  0  0  0  0  0
   11.5805  -17.4478   25.0012 N   0  0  0  0  0  0  0  0  0  0  0  0
   12.4519  -18.6313   25.0741 C   0  0  1  0  0  0  0  0  0  0  0  0
   13.8758  -18.2555   25.0324 C   0  0  0  0  0  0  0  0  0  0  0  0
   14.8033  -19.4086   25.2509 C   0  0  0  0  0  0  0  0  0  0  0  0
   15.8766  -19.4043   24.1921 C   0  0  0  0  0  0  0  0  0  0  0  0
   16.7995  -20.6000   24.4089 C   0  0  0  0  0  0  0  0  0  0  0  0
   17.9285  -20.5018   23.5159 N   0  0  0  0  0  0  0  0  0  0  0  0
   12.1190  -19.3972   26.2981 C   0  0  0  0  0  0  0  0  0  0  0  0
   11.4744  -18.9253   27.2394 O   0  0  0  0  0  0  0  0  0  0  0  0
   12.5371  -20.7302   26.4405 O   0  0  0  0  0  0  0  0  0  0  0  0
  2  1  1  0
  3  2  1  0
  4  3  1  0
  5  7  1  0
  5  4  1  0
  5  6  1  1
  7  8  2  0
  9 10  1  0
  9  7  1  0
 10 11  1  1
 11 12  1  0
 12 13  2  0
 12 20  1  0
 13 14  1  0
 14 15  1  0
 15 16  2  0
 16 17  1  0
 18 17  2  0
 19 18  1  0
 20 19  2  0
 20 15  1  0
 21 10  1  0
 22 21  2  0
 23 21  1  0
 24 25  1  1
 24 23  1  0
 25 26  1  0
 26 27  1  0
 27 28  1  0
 28 29  1  0
 30 24  1  0
 30 32  1  0
 31 30  2  0
M  END
$$$$
