MWK.pdb
     RDKit          3D

 32 33  0  0  1  0  0  0  0  0999 V2000
    8.0153  -11.7871   19.4361 C   0  0  0  0  0  0  0  0  0  0  0  0
    6.6629  -12.9781   19.4572 S   0  0  0  0  0  0  0  0  0  0  0  0
    7.2010  -14.6317   19.9477 C   0  0  0  0  0  0  0  0  0  0  0  0
    8.2882  -14.5553   20.9828 C   0  0  0  0  0  0  0  0  0  0  0  0
    8.8298  -15.8935   21.4144 C   0  0  2  0  0  0  0  0  0  0  0  0
    7.6827  -16.8190   21.4499 N   0  0  0  0  0  0  0  0  0  0  0  0
    9.4606  -15.8294   22.7391 C   0  0  0  0  0  0  0  0  0  0  0  0
   10.4643  -15.0746   22.9005 O   0  0  0  0  0  0  0  0  0  0  0  0
    8.9783  -16.5908   23.8508 N   0  0  0  0  0  0  0  0  0  0  0  0
    9.6574  -16.4983   25.1006 C   0  0  1  0  0  0  0  0  0  0  0  0
    8.7227  -16.6250   26.2886 C   0  0  0  0  0  0  0  0  0  0  0  0
    7.5900  -15.7066   26.2026 C   0  0  0  0  0  0  0  0  0  0  0  0
    6.2890  -16.0013   25.8678 C   0  0  0  0  0  0  0  0  0  0  0  0
    5.5569  -14.8518   25.9105 N   0  0  0  0  0  0  0  0  0  0  0  0
    6.3419  -13.8212   26.2623 C   0  0  0  0  0  0  0  0  0  0  0  0
    6.0971  -12.4680   26.4464 C   0  0  0  0  0  0  0  0  0  0  0  0
    7.0854  -11.5845   26.8162 C   0  0  0  0  0  0  0  0  0  0  0  0
    8.3648  -12.1174   27.0006 C   0  0  0  0  0  0  0  0  0  0  0  0
    8.6053  -13.4507   26.8190 C   0  0  0  0  0  0  0  0  0  0  0  0
    7.6074  -14.3384   26.4465 C   0  0  0  0  0  0  0  0  0  0  0  0
   10.6061  -17.6715   25.1812 C   0  0  0  0  0  0  0  0  0  0  0  0
   10.4388  -18.5747   26.0387 O   0  0  0  0  0  0  0  0  0  0  0  0
   11.7051  -17.7844   24.2959 N   0  0  0  0  0  0  0  0  0  0  0  0
   12.6680  -18.8942   24.3754 C   0  0  1  0  0  0  0  0  0  0  0  0
   13.6110  -18.8716   23.2437 C   0  0  0  0  0  0  0  0  0  0  0  0
   13.3265  -19.9145   22.2097 C   0  0  0  0  0  0  0  0  0  0  0  0
   14.3124  -19.7877   21.0762 C   0  0  0  0  0  0  0  0  0  0  0  0
   13.9401  -20.7761   19.9749 C   0  0  0  0  0  0  0  0  0  0  0  0
   14.9150  -20.7007   18.9140 N   0  0  0  0  0  0  0  0  0  0  0  0
   13.3692  -18.8283   25.6791 C   0  0  0  0  0  0  0  0  0  0  0  0
   13.4298  -19.7782   26.4655 O   0  0  0  0  0  0  0  0  0  0  0  0
   14.0110  -17.6470   26.0844 O   0  0  0  0  0  0  0  0  0  0  0  0
  2  1  1  0
  3  2  1  0
  4  3  1  0
  5  7  1  0
  5  4  1  0
  5  6  1  1
  7  8  2  0
  9 10  1  0
  9  7  1  0
 10 11  1  1
 11 12  1  0
 12 13  2  0
 12 20  1  0
 13 14  1  0
 14 15  1  0
 15 16  2  0
 16 17  1  0
 18 17  2  0
 19 18  1  0
 20 19  2  0
 20 15  1  0
 21 10  1  0
 22 21  2  0
 23 21  1  0
 24 25  1  6
 24 23  1  0
 25 26  1  0
 26 27  1  0
 27 28  1  0
 28 29  1  0
 30 24  1  0
 30 32  1  0
 31 30  2  0
M  END
$$$$
