MWK.pdb
     RDKit          3D

 32 33  0  0  1  0  0  0  0  0999 V2000
    7.1922  -11.7471   20.4604 C   0  0  0  0  0  0  0  0  0  0  0  0
    7.8992  -12.6974   19.1021 S   0  0  0  0  0  0  0  0  0  0  0  0
    7.3281  -14.4115   19.0824 C   0  0  0  0  0  0  0  0  0  0  0  0
    7.1267  -14.9244   20.4809 C   0  0  0  0  0  0  0  0  0  0  0  0
    7.8546  -16.2088   20.7821 C   0  0  2  0  0  0  0  0  0  0  0  0
    6.8207  -17.2192   21.0717 N   0  0  0  0  0  0  0  0  0  0  0  0
    8.7556  -16.0724   21.9338 C   0  0  0  0  0  0  0  0  0  0  0  0
    9.8095  -15.3824   21.8050 O   0  0  0  0  0  0  0  0  0  0  0  0
    8.4813  -16.6927   23.1940 N   0  0  0  0  0  0  0  0  0  0  0  0
    9.3973  -16.5090   24.2706 C   0  0  1  0  0  0  0  0  0  0  0  0
    8.7309  -16.5933   25.6307 C   0  0  0  0  0  0  0  0  0  0  0  0
    7.6101  -15.6650   25.7569 C   0  0  0  0  0  0  0  0  0  0  0  0
    6.2731  -15.9269   25.5699 C   0  0  0  0  0  0  0  0  0  0  0  0
    5.5694  -14.7798   25.7893 N   0  0  0  0  0  0  0  0  0  0  0  0
    6.4077  -13.7824   26.1124 C   0  0  0  0  0  0  0  0  0  0  0  0
    6.2083  -12.4453   26.4246 C   0  0  0  0  0  0  0  0  0  0  0  0
    7.2485  -11.5971   26.7289 C   0  0  0  0  0  0  0  0  0  0  0  0
    8.5328  -12.1491   26.7095 C   0  0  0  0  0  0  0  0  0  0  0  0
    8.7286  -13.4665   26.4020 C   0  0  0  0  0  0  0  0  0  0  0  0
    7.6786  -14.3187   26.0958 C   0  0  0  0  0  0  0  0  0  0  0  0
   10.3881  -17.6482   24.2131 C   0  0  0  0  0  0  0  0  0  0  0  0
    9.9956  -18.8341   24.0772 O   0  0  0  0  0  0  0  0  0  0  0  0
   11.7804  -17.4110   24.3105 N   0  0  0  0  0  0  0  0  0  0  0  0
   12.7678  -18.5016   24.2808 C   0  0  1  0  0  0  0  0  0  0  0  0
   13.8968  -18.1822   23.3898 C   0  0  0  0  0  0  0  0  0  0  0  0
   13.6011  -18.4223   21.9432 C   0  0  0  0  0  0  0  0  0  0  0  0
   14.7999  -18.0446   21.1106 C   0  0  0  0  0  0  0  0  0  0  0  0
   14.4610  -18.2237   19.6336 C   0  0  0  0  0  0  0  0  0  0  0  0
   15.5851  -17.8076   18.8305 N   0  0  0  0  0  0  0  0  0  0  0  0
   13.2185  -18.7784   25.6649 C   0  0  0  0  0  0  0  0  0  0  0  0
   12.8953  -18.0861   26.6348 O   0  0  0  0  0  0  0  0  0  0  0  0
   14.0571  -19.8715   25.9363 O   0  0  0  0  0  0  0  0  0  0  0  0
  2  1  1  0
  3  2  1  0
  4  3  1  0
  5  7  1  0
  5  4  1  0
  5  6  1  1
  7  8  2  0
  9 10  1  0
  9  7  1  0
 10 11  1  1
 11 12  1  0
 12 13  2  0
 12 20  1  0
 13 14  1  0
 14 15  1  0
 15 16  2  0
 16 17  1  0
 18 17  2  0
 19 18  1  0
 20 19  2  0
 20 15  1  0
 21 10  1  0
 22 21  2  0
 23 21  1  0
 24 25  1  6
 24 23  1  0
 25 26  1  0
 26 27  1  0
 27 28  1  0
 28 29  1  0
 30 24  1  0
 30 32  1  0
 31 30  2  0
M  END
$$$$
