MWK.pdb
     RDKit          3D

 32 33  0  0  1  0  0  0  0  0999 V2000
    8.1424  -11.5165   20.0481 C   0  0  0  0  0  0  0  0  0  0  0  0
    6.8726  -12.6516   19.4592 S   0  0  0  0  0  0  0  0  0  0  0  0
    7.2585  -14.3777   19.8283 C   0  0  0  0  0  0  0  0  0  0  0  0
    8.1831  -14.4785   21.0090 C   0  0  0  0  0  0  0  0  0  0  0  0
    8.6035  -15.8845   21.3502 C   0  0  2  0  0  0  0  0  0  0  0  0
    7.3748  -16.6993   21.3606 N   0  0  0  0  0  0  0  0  0  0  0  0
    9.2622  -15.9582   22.6608 C   0  0  0  0  0  0  0  0  0  0  0  0
   10.3220  -15.2913   22.8488 O   0  0  0  0  0  0  0  0  0  0  0  0
    8.7458  -16.7574   23.7299 N   0  0  0  0  0  0  0  0  0  0  0  0
    9.3724  -16.6926   25.0085 C   0  0  1  0  0  0  0  0  0  0  0  0
    8.3750  -16.6251   26.1494 C   0  0  0  0  0  0  0  0  0  0  0  0
    7.3997  -15.5526   25.9698 C   0  0  0  0  0  0  0  0  0  0  0  0
    6.1068  -15.6564   25.5127 C   0  0  0  0  0  0  0  0  0  0  0  0
    5.5474  -14.4129   25.5011 N   0  0  0  0  0  0  0  0  0  0  0  0
    6.4366  -13.5062   25.9361 C   0  0  0  0  0  0  0  0  0  0  0  0
    6.3736  -12.1315   26.1128 C   0  0  0  0  0  0  0  0  0  0  0  0
    7.4402  -11.3998   26.5828 C   0  0  0  0  0  0  0  0  0  0  0  0
    8.6064  -12.1119   26.8785 C   0  0  0  0  0  0  0  0  0  0  0  0
    8.6679  -13.4663   26.7042 C   0  0  0  0  0  0  0  0  0  0  0  0
    7.5915  -14.2008   26.2305 C   0  0  0  0  0  0  0  0  0  0  0  0
   10.1420  -17.9794   25.1942 C   0  0  0  0  0  0  0  0  0  0  0  0
    9.5588  -19.0908   25.1330 O   0  0  0  0  0  0  0  0  0  0  0  0
   11.5359  -17.9678   25.4415 N   0  0  0  0  0  0  0  0  0  0  0  0
   12.2958  -19.1972   25.7179 C   0  0  1  0  0  0  0  0  0  0  0  0
   13.6204  -19.1684   25.0736 C   0  0  0  0  0  0  0  0  0  0  0  0
   13.5763  -19.4588   23.6068 C   0  0  0  0  0  0  0  0  0  0  0  0
   14.9740  -19.4342   23.0423 C   0  0  0  0  0  0  0  0  0  0  0  0
   14.9218  -19.7869   21.5586 C   0  0  0  0  0  0  0  0  0  0  0  0
   16.2466  -19.6882   20.9959 N   0  0  0  0  0  0  0  0  0  0  0  0
   12.3997  -19.3771   27.1850 C   0  0  0  0  0  0  0  0  0  0  0  0
   11.9948  -18.5437   28.0010 O   0  0  0  0  0  0  0  0  0  0  0  0
   12.9811  -20.5373   27.7214 O   0  0  0  0  0  0  0  0  0  0  0  0
  2  1  1  0
  3  2  1  0
  4  3  1  0
  5  7  1  0
  5  4  1  0
  5  6  1  1
  7  8  2  0
  9 10  1  0
  9  7  1  0
 10 11  1  1
 11 12  1  0
 12 13  2  0
 12 20  1  0
 13 14  1  0
 14 15  1  0
 15 16  2  0
 16 17  1  0
 18 17  2  0
 19 18  1  0
 20 19  2  0
 20 15  1  0
 21 10  1  0
 22 21  2  0
 23 21  1  0
 24 25  1  1
 24 23  1  0
 25 26  1  0
 26 27  1  0
 27 28  1  0
 28 29  1  0
 30 24  1  0
 30 32  1  0
 31 30  2  0
M  END
$$$$
