MWK.pdb
     RDKit          3D

 32 33  0  0  1  0  0  0  0  0999 V2000
    7.9115  -11.9396   18.7050 C   0  0  0  0  0  0  0  0  0  0  0  0
    7.8714  -13.4925   17.7915 S   0  0  0  0  0  0  0  0  0  0  0  0
    7.2344  -14.8640   18.7804 C   0  0  0  0  0  0  0  0  0  0  0  0
    7.1260  -14.4745   20.2281 C   0  0  0  0  0  0  0  0  0  0  0  0
    6.9145  -15.6325   21.1685 C   0  0  2  0  0  0  0  0  0  0  0  0
    5.4729  -15.6657   21.4760 N   0  0  0  0  0  0  0  0  0  0  0  0
    7.6859  -15.4807   22.4089 C   0  0  0  0  0  0  0  0  0  0  0  0
    7.7866  -14.3299   22.9273 O   0  0  0  0  0  0  0  0  0  0  0  0
    8.3259  -16.5892   23.0492 N   0  0  0  0  0  0  0  0  0  0  0  0
    9.2529  -16.3400   24.1029 C   0  0  1  0  0  0  0  0  0  0  0  0
    8.6706  -16.6157   25.4761 C   0  0  0  0  0  0  0  0  0  0  0  0
    7.6047  -15.6793   25.8240 C   0  0  0  0  0  0  0  0  0  0  0  0
    6.2467  -15.8892   25.7689 C   0  0  0  0  0  0  0  0  0  0  0  0
    5.6133  -14.7547   26.1821 N   0  0  0  0  0  0  0  0  0  0  0  0
    6.5174  -13.8159   26.5032 C   0  0  0  0  0  0  0  0  0  0  0  0
    6.4019  -12.5138   26.9682 C   0  0  0  0  0  0  0  0  0  0  0  0
    7.4990  -11.7260   27.2323 C   0  0  0  0  0  0  0  0  0  0  0  0
    8.7527  -12.3031   27.0085 C   0  0  0  0  0  0  0  0  0  0  0  0
    8.8658  -13.5859   26.5504 C   0  0  0  0  0  0  0  0  0  0  0  0
    7.7585  -14.3772   26.2852 C   0  0  0  0  0  0  0  0  0  0  0  0
   10.3996  -17.3079   23.9269 C   0  0  0  0  0  0  0  0  0  0  0  0
   10.2025  -18.5487   23.9553 O   0  0  0  0  0  0  0  0  0  0  0  0
   11.7223  -16.8448   23.7261 N   0  0  0  0  0  0  0  0  0  0  0  0
   12.8589  -17.7630   23.5515 C   0  0  1  0  0  0  0  0  0  0  0  0
   13.6023  -17.4708   22.3136 C   0  0  0  0  0  0  0  0  0  0  0  0
   12.7433  -17.4675   21.0889 C   0  0  0  0  0  0  0  0  0  0  0  0
   13.5731  -17.0906   19.8879 C   0  0  0  0  0  0  0  0  0  0  0  0
   12.7108  -17.1868   18.6326 C   0  0  0  0  0  0  0  0  0  0  0  0
   13.4110  -16.5859   17.5234 N   0  0  0  0  0  0  0  0  0  0  0  0
   13.7280  -17.6833   24.7489 C   0  0  0  0  0  0  0  0  0  0  0  0
   13.5820  -16.8395   25.6382 O   0  0  0  0  0  0  0  0  0  0  0  0
   14.7846  -18.5914   24.9243 O   0  0  0  0  0  0  0  0  0  0  0  0
  2  1  1  0
  3  2  1  0
  4  3  1  0
  5  7  1  0
  5  4  1  0
  5  6  1  1
  7  8  2  0
  9 10  1  0
  9  7  1  0
 10 11  1  1
 11 12  1  0
 12 13  2  0
 12 20  1  0
 13 14  1  0
 14 15  1  0
 15 16  2  0
 16 17  1  0
 18 17  2  0
 19 18  1  0
 20 19  2  0
 20 15  1  0
 21 10  1  0
 22 21  2  0
 23 21  1  0
 24 25  1  6
 24 23  1  0
 25 26  1  0
 26 27  1  0
 27 28  1  0
 28 29  1  0
 30 24  1  0
 30 32  1  0
 31 30  2  0
M  END
$$$$
