MWK.pdb
     RDKit          3D

 32 33  0  0  1  0  0  0  0  0999 V2000
    7.9895  -11.8221   19.5284 C   0  0  0  0  0  0  0  0  0  0  0  0
    6.9018  -13.1036   18.8786 S   0  0  0  0  0  0  0  0  0  0  0  0
    7.4153  -14.7651   19.3689 C   0  0  0  0  0  0  0  0  0  0  0  0
    8.2392  -14.7214   20.6252 C   0  0  0  0  0  0  0  0  0  0  0  0
    8.7390  -16.0657   21.0871 C   0  0  2  0  0  0  0  0  0  0  0  0
    7.5653  -16.9567   21.1334 N   0  0  0  0  0  0  0  0  0  0  0  0
    9.3633  -15.9932   22.4144 C   0  0  0  0  0  0  0  0  0  0  0  0
   10.4154  -15.3031   22.5564 O   0  0  0  0  0  0  0  0  0  0  0  0
    8.8219  -16.6757   23.5499 N   0  0  0  0  0  0  0  0  0  0  0  0
    9.4841  -16.5623   24.8071 C   0  0  1  0  0  0  0  0  0  0  0  0
    8.5214  -16.5424   25.9792 C   0  0  0  0  0  0  0  0  0  0  0  0
    7.4918  -15.5165   25.8329 C   0  0  0  0  0  0  0  0  0  0  0  0
    6.1876  -15.6822   25.4294 C   0  0  0  0  0  0  0  0  0  0  0  0
    5.5723  -14.4654   25.4330 N   0  0  0  0  0  0  0  0  0  0  0  0
    6.4361  -13.5160   25.8260 C   0  0  0  0  0  0  0  0  0  0  0  0
    6.3179  -12.1443   25.9968 C   0  0  0  0  0  0  0  0  0  0  0  0
    7.3682  -11.3613   26.4186 C   0  0  0  0  0  0  0  0  0  0  0  0
    8.5766  -12.0178   26.6709 C   0  0  0  0  0  0  0  0  0  0  0  0
    8.6925  -13.3693   26.5024 C   0  0  0  0  0  0  0  0  0  0  0  0
    7.6324  -14.1554   26.0774 C   0  0  0  0  0  0  0  0  0  0  0  0
   10.3334  -17.8002   24.9776 C   0  0  0  0  0  0  0  0  0  0  0  0
    9.8264  -18.9455   24.8767 O   0  0  0  0  0  0  0  0  0  0  0  0
   11.7183  -17.7034   25.2548 N   0  0  0  0  0  0  0  0  0  0  0  0
   12.5871  -18.8877   25.3437 C   0  0  1  0  0  0  0  0  0  0  0  0
   13.8357  -18.6984   24.5850 C   0  0  0  0  0  0  0  0  0  0  0  0
   14.7453  -19.8852   24.6281 C   0  0  0  0  0  0  0  0  0  0  0  0
   16.0055  -19.5871   23.8561 C   0  0  0  0  0  0  0  0  0  0  0  0
   16.9087  -20.8168   23.8766 C   0  0  0  0  0  0  0  0  0  0  0  0
   18.0982  -20.5504   23.1046 N   0  0  0  0  0  0  0  0  0  0  0  0
   12.8488  -19.1844   26.7717 C   0  0  0  0  0  0  0  0  0  0  0  0
   13.3759  -20.2305   27.1617 O   0  0  0  0  0  0  0  0  0  0  0  0
   12.4962  -18.2598   27.7680 O   0  0  0  0  0  0  0  0  0  0  0  0
  2  1  1  0
  3  2  1  0
  4  3  1  0
  5  7  1  0
  5  4  1  0
  5  6  1  1
  7  8  2  0
  9 10  1  0
  9  7  1  0
 10 11  1  1
 11 12  1  0
 12 13  2  0
 12 20  1  0
 13 14  1  0
 14 15  1  0
 15 16  2  0
 16 17  1  0
 18 17  2  0
 19 18  1  0
 20 19  2  0
 20 15  1  0
 21 10  1  0
 22 21  2  0
 23 21  1  0
 24 25  1  6
 24 23  1  0
 25 26  1  0
 26 27  1  0
 27 28  1  0
 28 29  1  0
 30 24  1  0
 30 32  1  0
 31 30  2  0
M  END
$$$$
