MWK.pdb
     RDKit          3D

 32 33  0  0  1  0  0  0  0  0999 V2000
    7.7525  -11.6938   19.8123 C   0  0  0  0  0  0  0  0  0  0  0  0
    6.7749  -13.0858   19.2169 S   0  0  0  0  0  0  0  0  0  0  0  0
    7.5170  -14.6815   19.6264 C   0  0  0  0  0  0  0  0  0  0  0  0
    8.1270  -14.6511   20.9997 C   0  0  0  0  0  0  0  0  0  0  0  0
    8.8253  -15.9257   21.3974 C   0  0  2  0  0  0  0  0  0  0  0  0
    7.8301  -17.0063   21.2723 N   0  0  0  0  0  0  0  0  0  0  0  0
    9.3297  -15.8688   22.7755 C   0  0  0  0  0  0  0  0  0  0  0  0
   10.2394  -15.0345   23.0578 O   0  0  0  0  0  0  0  0  0  0  0  0
    8.8270  -16.7238   23.8072 N   0  0  0  0  0  0  0  0  0  0  0  0
    9.4133  -16.6622   25.1050 C   0  0  1  0  0  0  0  0  0  0  0  0
    8.3808  -16.5964   26.2143 C   0  0  0  0  0  0  0  0  0  0  0  0
    7.4087  -15.5267   26.0033 C   0  0  0  0  0  0  0  0  0  0  0  0
    6.1243  -15.6369   25.5242 C   0  0  0  0  0  0  0  0  0  0  0  0
    5.5650  -14.3939   25.4865 N   0  0  0  0  0  0  0  0  0  0  0  0
    6.4459  -13.4813   25.9258 C   0  0  0  0  0  0  0  0  0  0  0  0
    6.3794  -12.1045   26.0837 C   0  0  0  0  0  0  0  0  0  0  0  0
    7.4372  -11.3663   26.5635 C   0  0  0  0  0  0  0  0  0  0  0  0
    8.5980  -12.0741   26.8894 C   0  0  0  0  0  0  0  0  0  0  0  0
    8.6629  -13.4305   26.7336 C   0  0  0  0  0  0  0  0  0  0  0  0
    7.5954  -14.1716   26.2500 C   0  0  0  0  0  0  0  0  0  0  0  0
   10.1758  -17.9501   25.3120 C   0  0  0  0  0  0  0  0  0  0  0  0
    9.5672  -19.0370   25.4774 O   0  0  0  0  0  0  0  0  0  0  0  0
   11.5914  -17.9669   25.3253 N   0  0  0  0  0  0  0  0  0  0  0  0
   12.3608  -19.1965   25.5728 C   0  0  1  0  0  0  0  0  0  0  0  0
   13.5838  -19.2412   24.7525 C   0  0  0  0  0  0  0  0  0  0  0  0
   13.3769  -18.7709   23.3476 C   0  0  0  0  0  0  0  0  0  0  0  0
   14.6655  -18.8965   22.5753 C   0  0  0  0  0  0  0  0  0  0  0  0
   14.4136  -18.5278   21.1162 C   0  0  0  0  0  0  0  0  0  0  0  0
   15.6427  -18.6541   20.3712 N   0  0  0  0  0  0  0  0  0  0  0  0
   12.6637  -19.2895   27.0203 C   0  0  0  0  0  0  0  0  0  0  0  0
   13.2428  -20.2525   27.5317 O   0  0  0  0  0  0  0  0  0  0  0  0
   12.2920  -18.2551   27.8942 O   0  0  0  0  0  0  0  0  0  0  0  0
  2  1  1  0
  3  2  1  0
  4  3  1  0
  5  7  1  0
  5  4  1  0
  5  6  1  1
  7  8  2  0
  9 10  1  0
  9  7  1  0
 10 11  1  1
 11 12  1  0
 12 13  2  0
 12 20  1  0
 13 14  1  0
 14 15  1  0
 15 16  2  0
 16 17  1  0
 18 17  2  0
 19 18  1  0
 20 19  2  0
 20 15  1  0
 21 10  1  0
 22 21  2  0
 23 21  1  0
 24 25  1  6
 24 23  1  0
 25 26  1  0
 26 27  1  0
 27 28  1  0
 28 29  1  0
 30 24  1  0
 30 32  1  0
 31 30  2  0
M  END
$$$$
