MWK.pdb
     RDKit          3D

 32 33  0  0  1  0  0  0  0  0999 V2000
    7.0728  -11.8742   20.0941 C   0  0  0  0  0  0  0  0  0  0  0  0
    7.5487  -12.9756   18.7494 S   0  0  0  0  0  0  0  0  0  0  0  0
    8.3142  -14.5022   19.3395 C   0  0  0  0  0  0  0  0  0  0  0  0
    7.3331  -15.3216   20.1302 C   0  0  0  0  0  0  0  0  0  0  0  0
    7.9191  -16.5628   20.7515 C   0  0  2  0  0  0  0  0  0  0  0  0
    6.7824  -17.3646   21.2401 N   0  0  0  0  0  0  0  0  0  0  0  0
    8.8217  -16.2457   21.8658 C   0  0  0  0  0  0  0  0  0  0  0  0
    9.8468  -15.5384   21.6377 O   0  0  0  0  0  0  0  0  0  0  0  0
    8.5801  -16.7091   23.1982 N   0  0  0  0  0  0  0  0  0  0  0  0
    9.4555  -16.2963   24.2447 C   0  0  1  0  0  0  0  0  0  0  0  0
    8.7894  -16.3078   25.6074 C   0  0  0  0  0  0  0  0  0  0  0  0
    7.6225  -15.4308   25.6610 C   0  0  0  0  0  0  0  0  0  0  0  0
    6.3121  -15.7537   25.3965 C   0  0  0  0  0  0  0  0  0  0  0  0
    5.5456  -14.6389   25.5665 N   0  0  0  0  0  0  0  0  0  0  0  0
    6.3174  -13.6034   25.9328 C   0  0  0  0  0  0  0  0  0  0  0  0
    6.0397  -12.2757   26.2241 C   0  0  0  0  0  0  0  0  0  0  0  0
    7.0206  -11.3801   26.5845 C   0  0  0  0  0  0  0  0  0  0  0  0
    8.3274  -11.8734   26.6449 C   0  0  0  0  0  0  0  0  0  0  0  0
    8.6003  -13.1816   26.3578 C   0  0  0  0  0  0  0  0  0  0  0  0
    7.6098  -14.0816   25.9950 C   0  0  0  0  0  0  0  0  0  0  0  0
   10.5771  -17.3063   24.3129 C   0  0  0  0  0  0  0  0  0  0  0  0
   10.3343  -18.5387   24.2769 O   0  0  0  0  0  0  0  0  0  0  0  0
   11.9270  -16.8930   24.4191 N   0  0  0  0  0  0  0  0  0  0  0  0
   13.0516  -17.8137   24.1897 C   0  0  1  0  0  0  0  0  0  0  0  0
   14.1107  -17.1807   23.3846 C   0  0  0  0  0  0  0  0  0  0  0  0
   15.2356  -18.1066   23.0455 C   0  0  0  0  0  0  0  0  0  0  0  0
   16.2305  -17.3951   22.1641 C   0  0  0  0  0  0  0  0  0  0  0  0
   17.3130  -18.3804   21.7330 C   0  0  0  0  0  0  0  0  0  0  0  0
   18.2161  -17.7287   20.8157 N   0  0  0  0  0  0  0  0  0  0  0  0
   13.5609  -18.2842   25.4993 C   0  0  0  0  0  0  0  0  0  0  0  0
   14.4016  -19.1806   25.6179 O   0  0  0  0  0  0  0  0  0  0  0  0
   13.0927  -17.7124   26.6933 O   0  0  0  0  0  0  0  0  0  0  0  0
  2  1  1  0
  3  2  1  0
  4  3  1  0
  5  7  1  0
  5  4  1  0
  5  6  1  1
  7  8  2  0
  9 10  1  0
  9  7  1  0
 10 11  1  1
 11 12  1  0
 12 13  2  0
 12 20  1  0
 13 14  1  0
 14 15  1  0
 15 16  2  0
 16 17  1  0
 18 17  2  0
 19 18  1  0
 20 19  2  0
 20 15  1  0
 21 10  1  0
 22 21  2  0
 23 21  1  0
 24 25  1  1
 24 23  1  0
 25 26  1  0
 26 27  1  0
 27 28  1  0
 28 29  1  0
 30 24  1  0
 30 32  1  0
 31 30  2  0
M  END
$$$$
