MPK.pdb
     RDKit          3D

 25 25  0  0  1  0  0  0  0  0999 V2000
   26.9575  -23.5170  -20.6485 C   0  0  0  0  0  0  0  0  0  0  0  0
   28.6729  -22.9945  -20.5719 S   0  0  0  0  0  0  0  0  0  0  0  0
   29.0267  -22.0739  -19.0494 C   0  0  0  0  0  0  0  0  0  0  0  0
   27.8299  -22.0457  -18.1296 C   0  0  0  0  0  0  0  0  0  0  0  0
   28.2892  -22.6437  -16.7894 C   0  0  2  0  0  0  0  0  0  0  0  0
   28.4468  -24.0870  -17.0595 N   0  0  0  0  0  0  0  0  0  0  0  0
   27.2518  -22.4344  -15.7497 C   0  0  0  0  0  0  0  0  0  0  0  0
   26.4979  -23.3911  -15.4545 O   0  0  0  0  0  0  0  0  0  0  0  0
   27.1066  -21.2037  -15.1029 N   0  0  0  0  0  0  0  0  0  0  0  0
   27.8782  -20.0034  -15.4565 C   0  0  0  0  0  0  0  0  0  0  0  0
   27.5233  -18.9573  -14.4486 C   0  0  0  0  0  0  0  0  0  0  0  0
   26.8684  -19.6922  -13.3201 C   0  0  0  0  0  0  0  0  0  0  0  0
   26.2035  -20.8790  -14.0397 C   0  0  1  0  0  0  0  0  0  0  0  0
   24.9173  -20.3060  -14.5697 C   0  0  0  0  0  0  0  0  0  0  0  0
   24.9952  -19.4359  -15.4717 O   0  0  0  0  0  0  0  0  0  0  0  0
   23.6560  -20.6904  -14.1126 N   0  0  0  0  0  0  0  0  0  0  0  0
   22.3940  -20.3244  -14.7867 C   0  0  1  0  0  0  0  0  0  0  0  0
   21.7424  -21.5409  -15.3617 C   0  0  0  0  0  0  0  0  0  0  0  0
   21.3611  -22.5307  -14.3233 C   0  0  0  0  0  0  0  0  0  0  0  0
   20.6036  -23.7164  -14.8856 C   0  0  0  0  0  0  0  0  0  0  0  0
   20.1725  -24.6654  -13.7892 C   0  0  0  0  0  0  0  0  0  0  0  0
   19.5250  -25.8383  -14.2906 N   0  0  0  0  0  0  0  0  0  0  0  0
   21.5597  -19.6652  -13.7705 C   0  0  0  0  0  0  0  0  0  0  0  0
   21.9032  -19.6819  -12.5715 O   0  0  0  0  0  0  0  0  0  0  0  0
   20.3885  -19.0183  -14.1107 O   0  0  0  0  0  0  0  0  0  0  0  0
  2  1  1  0
  3  2  1  0
  4  3  1  0
  4  5  1  0
  5  6  1  6
  7  5  1  0
  7  8  2  0
  9  7  1  0
 10  9  1  0
 11 12  1  0
 11 10  1  0
 12 13  1  0
 13  9  1  0
 14 16  1  0
 13 14  1  6
 15 14  2  0
 17 16  1  0
 17 23  1  0
 17 18  1  1
 19 18  1  0
 20 19  1  0
 21 20  1  0
 22 21  1  0
 23 24  2  0
 23 25  1  0
M  END
$$$$
