MPK.pdb
     RDKit          3D

 25 25  0  0  1  0  0  0  0  0999 V2000
   22.4429  -13.1503  -23.5348 C   0  0  0  0  0  0  0  0  0  0  0  0
   22.3743  -11.9691  -22.1852 S   0  0  0  0  0  0  0  0  0  0  0  0
   22.8194  -12.7332  -20.6014 C   0  0  0  0  0  0  0  0  0  0  0  0
   22.7855  -11.7292  -19.4743 C   0  0  0  0  0  0  0  0  0  0  0  0
   23.1716  -12.4894  -18.1945 C   0  0  2  0  0  0  0  0  0  0  0  0
   22.1778  -13.5770  -18.0926 N   0  0  0  0  0  0  0  0  0  0  0  0
   23.0668  -11.5968  -17.0141 C   0  0  0  0  0  0  0  0  0  0  0  0
   21.9555  -11.4829  -16.4460 O   0  0  0  0  0  0  0  0  0  0  0  0
   24.1744  -10.8928  -16.5326 N   0  0  0  0  0  0  0  0  0  0  0  0
   25.5126  -10.9710  -17.1361 C   0  0  0  0  0  0  0  0  0  0  0  0
   26.4255  -10.1857  -16.2495 C   0  0  0  0  0  0  0  0  0  0  0  0
   25.6815  -10.0087  -14.9620 C   0  0  0  0  0  0  0  0  0  0  0  0
   24.2151   -9.9816  -15.4283 C   0  0  1  0  0  0  0  0  0  0  0  0
   24.0059   -8.5624  -15.8816 C   0  0  0  0  0  0  0  0  0  0  0  0
   24.6285   -8.1792  -16.9026 O   0  0  0  0  0  0  0  0  0  0  0  0
   23.1630   -7.6612  -15.2297 N   0  0  0  0  0  0  0  0  0  0  0  0
   22.7363   -6.3721  -15.8104 C   0  0  1  0  0  0  0  0  0  0  0  0
   21.3676   -6.4971  -16.3989 C   0  0  0  0  0  0  0  0  0  0  0  0
   20.8211   -5.1956  -16.8579 C   0  0  0  0  0  0  0  0  0  0  0  0
   19.4458   -5.3183  -17.4821 C   0  0  0  0  0  0  0  0  0  0  0  0
   18.9768   -3.9956  -18.0468 C   0  0  0  0  0  0  0  0  0  0  0  0
   17.7278   -4.0962  -18.7369 N   0  0  0  0  0  0  0  0  0  0  0  0
   22.7923   -5.3890  -14.7179 C   0  0  0  0  0  0  0  0  0  0  0  0
   22.8962   -4.1727  -14.9748 O   0  0  0  0  0  0  0  0  0  0  0  0
   22.7323   -5.7795  -13.3951 O   0  0  0  0  0  0  0  0  0  0  0  0
  2  1  1  0
  3  2  1  0
  4  3  1  0
  4  5  1  0
  5  6  1  1
  7  5  1  0
  7  8  2  0
  9  7  1  0
 10  9  1  0
 11 12  1  0
 11 10  1  0
 12 13  1  0
 13  9  1  0
 14 16  1  0
 13 14  1  6
 15 14  2  0
 17 16  1  0
 17 23  1  0
 17 18  1  1
 19 18  1  0
 20 19  1  0
 21 20  1  0
 22 21  1  0
 23 24  2  0
 23 25  1  0
M  END
$$$$
