MPK.pdb
     RDKit          3D

 25 25  0  0  1  0  0  0  0  0999 V2000
   18.6606   -7.2160  -19.4849 C   0  0  0  0  0  0  0  0  0  0  0  0
   18.4525   -8.8974  -18.8924 S   0  0  0  0  0  0  0  0  0  0  0  0
   19.0980   -9.1006  -17.2094 C   0  0  0  0  0  0  0  0  0  0  0  0
   20.5014   -8.5576  -17.0861 C   0  0  0  0  0  0  0  0  0  0  0  0
   20.8925   -8.6783  -15.6038 C   0  0  2  0  0  0  0  0  0  0  0  0
   20.2404   -9.9218  -15.1461 N   0  0  0  0  0  0  0  0  0  0  0  0
   20.3686   -7.5211  -14.8373 C   0  0  0  0  0  0  0  0  0  0  0  0
   19.3067   -7.6644  -14.1873 O   0  0  0  0  0  0  0  0  0  0  0  0
   21.0340   -6.2917  -14.8285 N   0  0  0  0  0  0  0  0  0  0  0  0
   22.2408   -6.0148  -15.6211 C   0  0  0  0  0  0  0  0  0  0  0  0
   22.7058   -4.6499  -15.2251 C   0  0  0  0  0  0  0  0  0  0  0  0
   21.9956   -4.3392  -13.9438 C   0  0  0  0  0  0  0  0  0  0  0  0
   20.6735   -5.1108  -14.1028 C   0  0  1  0  0  0  0  0  0  0  0  0
   19.8187   -4.1954  -14.9365 C   0  0  0  0  0  0  0  0  0  0  0  0
   19.9392   -4.2623  -16.1847 O   0  0  0  0  0  0  0  0  0  0  0  0
   18.9085   -3.2860  -14.3960 N   0  0  0  0  0  0  0  0  0  0  0  0
   17.9046   -2.5576  -15.1977 C   0  0  1  0  0  0  0  0  0  0  0  0
   16.5242   -2.9638  -14.7918 C   0  0  0  0  0  0  0  0  0  0  0  0
   15.4698   -2.2230  -15.5287 C   0  0  0  0  0  0  0  0  0  0  0  0
   14.0699   -2.6960  -15.1933 C   0  0  0  0  0  0  0  0  0  0  0  0
   13.0345   -2.0098  -16.0569 C   0  0  0  0  0  0  0  0  0  0  0  0
   11.6927   -2.3251  -15.6742 N   0  0  0  0  0  0  0  0  0  0  0  0
   18.1591   -1.1262  -14.9755 C   0  0  0  0  0  0  0  0  0  0  0  0
   17.8953   -0.2972  -15.8696 O   0  0  0  0  0  0  0  0  0  0  0  0
   18.6901   -0.6660  -13.7872 O   0  0  0  0  0  0  0  0  0  0  0  0
  2  1  1  0
  3  2  1  0
  4  3  1  0
  4  5  1  0
  5  6  1  1
  7  5  1  0
  7  8  2  0
  9  7  1  0
 10  9  1  0
 11 12  1  0
 11 10  1  0
 12 13  1  0
 13  9  1  0
 14 16  1  0
 13 14  1  6
 15 14  2  0
 17 16  1  0
 17 23  1  0
 17 18  1  1
 19 18  1  0
 20 19  1  0
 21 20  1  0
 22 21  1  0
 23 24  2  0
 23 25  1  0
M  END
$$$$
