MPK.pdb
     RDKit          3D

 25 25  0  0  1  0  0  0  0  0999 V2000
   19.9708  -14.9854  -21.0269 C   0  0  0  0  0  0  0  0  0  0  0  0
   21.7159  -15.3804  -20.8861 S   0  0  0  0  0  0  0  0  0  0  0  0
   22.2905  -15.2793  -19.1686 C   0  0  0  0  0  0  0  0  0  0  0  0
   21.2676  -14.6111  -18.2817 C   0  0  0  0  0  0  0  0  0  0  0  0
   21.5439  -15.0937  -16.8480 C   0  0  2  0  0  0  0  0  0  0  0  0
   20.5363  -16.1464  -16.6082 N   0  0  0  0  0  0  0  0  0  0  0  0
   21.3524  -13.9819  -15.8847 C   0  0  0  0  0  0  0  0  0  0  0  0
   20.2061  -13.7841  -15.4181 O   0  0  0  0  0  0  0  0  0  0  0  0
   22.4174  -13.1648  -15.4942 N   0  0  0  0  0  0  0  0  0  0  0  0
   23.7871  -13.3141  -16.0069 C   0  0  0  0  0  0  0  0  0  0  0  0
   24.6345  -12.3464  -15.2443 C   0  0  0  0  0  0  0  0  0  0  0  0
   23.8197  -11.9515  -14.0515 C   0  0  0  0  0  0  0  0  0  0  0  0
   22.3798  -12.0596  -14.5840 C   0  0  1  0  0  0  0  0  0  0  0  0
   22.1642  -10.7596  -15.3099 C   0  0  0  0  0  0  0  0  0  0  0  0
   22.6153  -10.6627  -16.4778 O   0  0  0  0  0  0  0  0  0  0  0  0
   21.4945   -9.6684  -14.7545 N   0  0  0  0  0  0  0  0  0  0  0  0
   20.9536   -8.5480  -15.5502 C   0  0  1  0  0  0  0  0  0  0  0  0
   19.4628   -8.6353  -15.6208 C   0  0  0  0  0  0  0  0  0  0  0  0
   18.9950   -9.6910  -16.5536 C   0  0  0  0  0  0  0  0  0  0  0  0
   17.4847   -9.7897  -16.6262 C   0  0  0  0  0  0  0  0  0  0  0  0
   17.0492  -10.9384  -17.5090 C   0  0  0  0  0  0  0  0  0  0  0  0
   17.5003  -12.2094  -17.0321 N   0  0  0  0  0  0  0  0  0  0  0  0
   21.4155   -7.3154  -14.8939 C   0  0  0  0  0  0  0  0  0  0  0  0
   21.6766   -7.3155  -13.6741 O   0  0  0  0  0  0  0  0  0  0  0  0
   21.5707   -6.1393  -15.6000 O   0  0  0  0  0  0  0  0  0  0  0  0
  2  1  1  0
  3  2  1  0
  4  3  1  0
  4  5  1  0
  5  6  1  1
  7  5  1  0
  7  8  2  0
  9  7  1  0
 10  9  1  0
 11 12  1  0
 11 10  1  0
 12 13  1  0
 13  9  1  0
 14 16  1  0
 13 14  1  6
 15 14  2  0
 17 16  1  0
 17 23  1  0
 17 18  1  1
 19 18  1  0
 20 19  1  0
 21 20  1  0
 22 21  1  0
 23 24  2  0
 23 25  1  0
M  END
$$$$
