MPK.pdb
     RDKit          3D

 25 25  0  0  1  0  0  0  0  0999 V2000
   27.1010  -19.0611   -4.0692 C   0  0  0  0  0  0  0  0  0  0  0  0
   27.4734  -20.6859   -4.7347 S   0  0  0  0  0  0  0  0  0  0  0  0
   28.0310  -20.5934   -6.4584 C   0  0  0  0  0  0  0  0  0  0  0  0
   26.8796  -20.3297   -7.3986 C   0  0  0  0  0  0  0  0  0  0  0  0
   27.4921  -20.0762   -8.7862 C   0  0  2  0  0  0  0  0  0  0  0  0
   28.2808  -18.8381   -8.6251 N   0  0  0  0  0  0  0  0  0  0  0  0
   26.4211  -19.8661   -9.7910 C   0  0  0  0  0  0  0  0  0  0  0  0
   25.7366  -18.8182   -9.7269 O   0  0  0  0  0  0  0  0  0  0  0  0
   26.1696  -20.8059  -10.7949 N   0  0  0  0  0  0  0  0  0  0  0  0
   26.5862  -22.2134  -10.7137 C   0  0  0  0  0  0  0  0  0  0  0  0
   26.2492  -22.8334  -12.0321 C   0  0  0  0  0  0  0  0  0  0  0  0
   26.0149  -21.6874  -12.9672 C   0  0  0  0  0  0  0  0  0  0  0  0
   25.4680  -20.5992  -12.0263 C   0  0  1  0  0  0  0  0  0  0  0  0
   24.0090  -20.9398  -11.8890 C   0  0  0  0  0  0  0  0  0  0  0  0
   23.6911  -21.8089  -11.0402 O   0  0  0  0  0  0  0  0  0  0  0  0
   23.0032  -20.3432  -12.6505 N   0  0  0  0  0  0  0  0  0  0  0  0
   21.5614  -20.5718  -12.4261 C   0  0  1  0  0  0  0  0  0  0  0  0
   20.7635  -19.4429  -12.9955 C   0  0  0  0  0  0  0  0  0  0  0  0
   19.3020  -19.7001  -12.9597 C   0  0  0  0  0  0  0  0  0  0  0  0
   18.4971  -18.6437  -13.6891 C   0  0  0  0  0  0  0  0  0  0  0  0
   17.0125  -18.9183  -13.5938 C   0  0  0  0  0  0  0  0  0  0  0  0
   16.2183  -17.9130  -14.2301 N   0  0  0  0  0  0  0  0  0  0  0  0
   21.2448  -21.8611  -13.0590 C   0  0  0  0  0  0  0  0  0  0  0  0
   20.2495  -22.5141  -12.6859 O   0  0  0  0  0  0  0  0  0  0  0  0
   22.0298  -22.3781  -14.0701 O   0  0  0  0  0  0  0  0  0  0  0  0
  2  1  1  0
  3  2  1  0
  4  3  1  0
  4  5  1  0
  5  6  1  1
  7  5  1  0
  7  8  2  0
  9  7  1  0
 10  9  1  0
 11 12  1  0
 11 10  1  0
 12 13  1  0
 13  9  1  0
 14 16  1  0
 13 14  1  1
 15 14  2  0
 17 16  1  0
 17 23  1  0
 17 18  1  6
 19 18  1  0
 20 19  1  0
 21 20  1  0
 22 21  1  0
 23 24  2  0
 23 25  1  0
M  END
$$$$
