MPK.pdb
     RDKit          3D

 25 25  0  0  1  0  0  0  0  0999 V2000
   15.3055   -9.0226  -17.7768 C   0  0  0  0  0  0  0  0  0  0  0  0
   16.8484   -9.4310  -18.5980 S   0  0  0  0  0  0  0  0  0  0  0  0
   18.1508   -9.8530  -17.4079 C   0  0  0  0  0  0  0  0  0  0  0  0
   17.9495   -9.1403  -16.0922 C   0  0  0  0  0  0  0  0  0  0  0  0
   19.0087   -9.6935  -15.1242 C   0  0  2  0  0  0  0  0  0  0  0  0
   18.5588  -11.0679  -14.8249 N   0  0  0  0  0  0  0  0  0  0  0  0
   19.0377   -8.8886  -13.8782 C   0  0  0  0  0  0  0  0  0  0  0  0
   18.3817   -9.2916  -12.8893 O   0  0  0  0  0  0  0  0  0  0  0  0
   19.7772   -7.7054  -13.7924 N   0  0  0  0  0  0  0  0  0  0  0  0
   20.6226   -7.1943  -14.8811 C   0  0  0  0  0  0  0  0  0  0  0  0
   21.3351   -5.9963  -14.3397 C   0  0  0  0  0  0  0  0  0  0  0  0
   21.1886   -6.0797  -12.8517 C   0  0  0  0  0  0  0  0  0  0  0  0
   19.8328   -6.7902  -12.6921 C   0  0  1  0  0  0  0  0  0  0  0  0
   18.8245   -5.6845  -12.8482 C   0  0  0  0  0  0  0  0  0  0  0  0
   18.6240   -5.2381  -14.0047 O   0  0  0  0  0  0  0  0  0  0  0  0
   18.1093   -5.1373  -11.7822 N   0  0  0  0  0  0  0  0  0  0  0  0
   17.0441   -4.1270  -11.9433 C   0  0  1  0  0  0  0  0  0  0  0  0
   16.2042   -4.0588  -10.7084 C   0  0  0  0  0  0  0  0  0  0  0  0
   15.3499   -5.2596  -10.5303 C   0  0  0  0  0  0  0  0  0  0  0  0
   14.6310   -5.2819   -9.1967 C   0  0  0  0  0  0  0  0  0  0  0  0
   13.8037   -6.5384   -9.0374 C   0  0  0  0  0  0  0  0  0  0  0  0
   13.2221   -6.6610   -7.7362 N   0  0  0  0  0  0  0  0  0  0  0  0
   17.7228   -2.8550  -12.2343 C   0  0  0  0  0  0  0  0  0  0  0  0
   18.9396   -2.7249  -11.9923 O   0  0  0  0  0  0  0  0  0  0  0  0
   17.0412   -1.7837  -12.7760 O   0  0  0  0  0  0  0  0  0  0  0  0
  2  1  1  0
  3  2  1  0
  4  3  1  0
  4  5  1  0
  5  6  1  1
  7  5  1  0
  7  8  2  0
  9  7  1  0
 10  9  1  0
 11 12  1  0
 11 10  1  0
 12 13  1  0
 13  9  1  0
 14 16  1  0
 13 14  1  6
 15 14  2  0
 17 16  1  0
 17 23  1  0
 17 18  1  1
 19 18  1  0
 20 19  1  0
 21 20  1  0
 22 21  1  0
 23 24  2  0
 23 25  1  0
M  END
$$$$
