MPK.pdb
     RDKit          3D

 25 25  0  0  1  0  0  0  0  0999 V2000
   17.9336  -13.3525  -19.4538 C   0  0  0  0  0  0  0  0  0  0  0  0
   19.1736  -14.0367  -20.5564 S   0  0  0  0  0  0  0  0  0  0  0  0
   20.5622  -12.8944  -20.7961 C   0  0  0  0  0  0  0  0  0  0  0  0
   20.8225  -12.0728  -19.5565 C   0  0  0  0  0  0  0  0  0  0  0  0
   22.3154  -12.2349  -19.2251 C   0  0  2  0  0  0  0  0  0  0  0  0
   22.4444  -13.6303  -18.7588 N   0  0  0  0  0  0  0  0  0  0  0  0
   22.7063  -11.3013  -18.1405 C   0  0  0  0  0  0  0  0  0  0  0  0
   22.5182  -11.6515  -16.9519 O   0  0  0  0  0  0  0  0  0  0  0  0
   23.2749  -10.0555  -18.4214 N   0  0  0  0  0  0  0  0  0  0  0  0
   23.5788   -9.5888  -19.7819 C   0  0  0  0  0  0  0  0  0  0  0  0
   24.2927   -8.2831  -19.6341 C   0  0  0  0  0  0  0  0  0  0  0  0
   24.7294   -8.2235  -18.2029 C   0  0  0  0  0  0  0  0  0  0  0  0
   23.6305   -9.0293  -17.4877 C   0  0  1  0  0  0  0  0  0  0  0  0
   22.5123   -8.0383  -17.3113 C   0  0  0  0  0  0  0  0  0  0  0  0
   21.9571   -7.5960  -18.3472 O   0  0  0  0  0  0  0  0  0  0  0  0
   22.0671   -7.5920  -16.0663 N   0  0  0  0  0  0  0  0  0  0  0  0
   20.8970   -6.7097  -15.8830 C   0  0  1  0  0  0  0  0  0  0  0  0
   19.6735   -7.5232  -15.6063 C   0  0  0  0  0  0  0  0  0  0  0  0
   18.4550   -6.6896  -15.4520 C   0  0  0  0  0  0  0  0  0  0  0  0
   17.1974   -7.5111  -15.2526 C   0  0  0  0  0  0  0  0  0  0  0  0
   15.9658   -6.6333  -15.2153 C   0  0  0  0  0  0  0  0  0  0  0  0
   14.7823   -7.3496  -14.8512 N   0  0  0  0  0  0  0  0  0  0  0  0
   21.2335   -5.8033  -14.7747 C   0  0  0  0  0  0  0  0  0  0  0  0
   20.5391   -4.7889  -14.5625 O   0  0  0  0  0  0  0  0  0  0  0  0
   22.3129   -6.0464  -13.9491 O   0  0  0  0  0  0  0  0  0  0  0  0
  2  1  1  0
  3  2  1  0
  4  3  1  0
  4  5  1  0
  5  6  1  1
  7  5  1  0
  7  8  2  0
  9  7  1  0
 10  9  1  0
 11 12  1  0
 11 10  1  0
 12 13  1  0
 13  9  1  0
 14 16  1  0
 13 14  1  6
 15 14  2  0
 17 16  1  0
 17 23  1  0
 17 18  1  1
 19 18  1  0
 20 19  1  0
 21 20  1  0
 22 21  1  0
 23 24  2  0
 23 25  1  0
M  END
$$$$
