MPK.pdb
     RDKit          3D

 25 25  0  0  1  0  0  0  0  0999 V2000
   21.2659  -19.7964  -10.3585 C   0  0  0  0  0  0  0  0  0  0  0  0
   20.0338  -20.2774  -11.5718 S   0  0  0  0  0  0  0  0  0  0  0  0
   20.6839  -20.1823  -13.2626 C   0  0  0  0  0  0  0  0  0  0  0  0
   22.1845  -20.0152  -13.2694 C   0  0  0  0  0  0  0  0  0  0  0  0
   22.6365  -20.1472  -14.7333 C   0  0  2  0  0  0  0  0  0  0  0  0
   21.7298  -19.2565  -15.4853 N   0  0  0  0  0  0  0  0  0  0  0  0
   22.4717  -21.5461  -15.1988 C   0  0  0  0  0  0  0  0  0  0  0  0
   21.5035  -21.8186  -15.9465 O   0  0  0  0  0  0  0  0  0  0  0  0
   23.3692  -22.5496  -14.8223 N   0  0  0  0  0  0  0  0  0  0  0  0
   24.5307  -22.3168  -13.9519 C   0  0  0  0  0  0  0  0  0  0  0  0
   25.2949  -23.6015  -13.9096 C   0  0  0  0  0  0  0  0  0  0  0  0
   24.7800  -24.4135  -15.0576 C   0  0  0  0  0  0  0  0  0  0  0  0
   23.3207  -23.9379  -15.1711 C   0  0  1  0  0  0  0  0  0  0  0  0
   22.5964  -24.7404  -14.1247 C   0  0  0  0  0  0  0  0  0  0  0  0
   22.6652  -24.3435  -12.9353 O   0  0  0  0  0  0  0  0  0  0  0  0
   21.8601  -25.8913  -14.4086 N   0  0  0  0  0  0  0  0  0  0  0  0
   20.5526  -26.1992  -13.7949 C   0  0  1  0  0  0  0  0  0  0  0  0
   19.6023  -25.0640  -14.0038 C   0  0  0  0  0  0  0  0  0  0  0  0
   18.2222  -25.3841  -13.5608 C   0  0  0  0  0  0  0  0  0  0  0  0
   17.2273  -24.2885  -13.8858 C   0  0  0  0  0  0  0  0  0  0  0  0
   15.8411  -24.6381  -13.3909 C   0  0  0  0  0  0  0  0  0  0  0  0
   14.9036  -23.5711  -13.5607 N   0  0  0  0  0  0  0  0  0  0  0  0
   20.0868  -27.4463  -14.4202 C   0  0  0  0  0  0  0  0  0  0  0  0
   20.2356  -27.6259  -15.6456 O   0  0  0  0  0  0  0  0  0  0  0  0
   19.4800  -28.4399  -13.6783 O   0  0  0  0  0  0  0  0  0  0  0  0
  2  1  1  0
  3  2  1  0
  4  3  1  0
  4  5  1  0
  5  6  1  6
  7  5  1  0
  7  8  2  0
  9  7  1  0
 10  9  1  0
 11 12  1  0
 11 10  1  0
 12 13  1  0
 13  9  1  0
 14 16  1  0
 13 14  1  1
 15 14  2  0
 17 16  1  0
 17 23  1  0
 17 18  1  6
 19 18  1  0
 20 19  1  0
 21 20  1  0
 22 21  1  0
 23 24  2  0
 23 25  1  0
M  END
$$$$
