MPK.pdb
     RDKit          3D

 25 25  0  0  1  0  0  0  0  0999 V2000
   27.1674  -18.3514   -6.8616 C   0  0  0  0  0  0  0  0  0  0  0  0
   28.1549  -19.8322   -7.0928 S   0  0  0  0  0  0  0  0  0  0  0  0
   27.4452  -20.9215   -8.3578 C   0  0  0  0  0  0  0  0  0  0  0  0
   26.6091  -20.1473   -9.3482 C   0  0  0  0  0  0  0  0  0  0  0  0
   25.8126  -21.1836  -10.1585 C   0  0  2  0  0  0  0  0  0  0  0  0
   26.8366  -21.9338  -10.9132 N   0  0  0  0  0  0  0  0  0  0  0  0
   24.8894  -20.5024  -11.0991 C   0  0  0  0  0  0  0  0  0  0  0  0
   24.0241  -19.7253  -10.6320 O   0  0  0  0  0  0  0  0  0  0  0  0
   24.9712  -20.7107  -12.4790 N   0  0  0  0  0  0  0  0  0  0  0  0
   26.0110  -21.5308  -13.1173 C   0  0  0  0  0  0  0  0  0  0  0  0
   25.8219  -21.3842  -14.5934 C   0  0  0  0  0  0  0  0  0  0  0  0
   24.9413  -20.1857  -14.7689 C   0  0  0  0  0  0  0  0  0  0  0  0
   24.0864  -20.2131  -13.4894 C   0  0  1  0  0  0  0  0  0  0  0  0
   22.9994  -21.2051  -13.8021 C   0  0  0  0  0  0  0  0  0  0  0  0
   23.3079  -22.4223  -13.8157 O   0  0  0  0  0  0  0  0  0  0  0  0
   21.6797  -20.8422  -14.0746 N   0  0  0  0  0  0  0  0  0  0  0  0
   20.5063  -21.5143  -13.4810 C   0  0  1  0  0  0  0  0  0  0  0  0
   20.6068  -21.5101  -11.9893 C   0  0  0  0  0  0  0  0  0  0  0  0
   19.9279  -22.6742  -11.3668 C   0  0  0  0  0  0  0  0  0  0  0  0
   20.0422  -22.6875   -9.8559 C   0  0  0  0  0  0  0  0  0  0  0  0
   19.4227  -23.9358   -9.2672 C   0  0  0  0  0  0  0  0  0  0  0  0
   19.5400  -23.9971   -7.8429 N   0  0  0  0  0  0  0  0  0  0  0  0
   19.3243  -20.7872  -13.9682 C   0  0  0  0  0  0  0  0  0  0  0  0
   19.3312  -19.5406  -14.0147 O   0  0  0  0  0  0  0  0  0  0  0  0
   18.1891  -21.4549  -14.3820 O   0  0  0  0  0  0  0  0  0  0  0  0
  2  1  1  0
  3  2  1  0
  4  3  1  0
  4  5  1  0
  5  6  1  6
  7  5  1  0
  7  8  2  0
  9  7  1  0
 10  9  1  0
 11 12  1  0
 11 10  1  0
 12 13  1  0
 13  9  1  0
 14 16  1  0
 13 14  1  6
 15 14  2  0
 17 16  1  0
 17 23  1  0
 17 18  1  1
 19 18  1  0
 20 19  1  0
 21 20  1  0
 22 21  1  0
 23 24  2  0
 23 25  1  0
M  END
$$$$
