MPK.pdb
     RDKit          3D

 25 25  0  0  1  0  0  0  0  0999 V2000
   22.1742  -10.4550  -21.8338 C   0  0  0  0  0  0  0  0  0  0  0  0
   23.0021  -12.0322  -22.0543 S   0  0  0  0  0  0  0  0  0  0  0  0
   23.4395  -12.7885  -20.4646 C   0  0  0  0  0  0  0  0  0  0  0  0
   23.2201  -11.8313  -19.3178 C   0  0  0  0  0  0  0  0  0  0  0  0
   23.5319  -12.6088  -18.0282 C   0  0  2  0  0  0  0  0  0  0  0  0
   22.5522  -13.7138  -18.0129 N   0  0  0  0  0  0  0  0  0  0  0  0
   23.3323  -11.7400  -16.8424 C   0  0  0  0  0  0  0  0  0  0  0  0
   22.2069  -11.7281  -16.2909 O   0  0  0  0  0  0  0  0  0  0  0  0
   24.3673  -10.9474  -16.3376 N   0  0  0  0  0  0  0  0  0  0  0  0
   25.7230  -10.9220  -16.9056 C   0  0  0  0  0  0  0  0  0  0  0  0
   26.5469  -10.0617  -16.0016 C   0  0  0  0  0  0  0  0  0  0  0  0
   25.7574   -9.9375  -14.7351 C   0  0  0  0  0  0  0  0  0  0  0  0
   24.3063  -10.0299  -15.2394 C   0  0  1  0  0  0  0  0  0  0  0  0
   23.9971   -8.6342  -15.7086 C   0  0  0  0  0  0  0  0  0  0  0  0
   24.6367   -8.1968  -16.6968 O   0  0  0  0  0  0  0  0  0  0  0  0
   23.0445   -7.8117  -15.1058 N   0  0  0  0  0  0  0  0  0  0  0  0
   22.6348   -6.5001  -15.6471 C   0  0  1  0  0  0  0  0  0  0  0  0
   21.2006   -6.5386  -16.0676 C   0  0  0  0  0  0  0  0  0  0  0  0
   20.9420   -7.5448  -17.1278 C   0  0  0  0  0  0  0  0  0  0  0  0
   19.4794   -7.6358  -17.5133 C   0  0  0  0  0  0  0  0  0  0  0  0
   19.2354   -8.7672  -18.4874 C   0  0  0  0  0  0  0  0  0  0  0  0
   17.8473   -8.9748  -18.7635 N   0  0  0  0  0  0  0  0  0  0  0  0
   22.8832   -5.5180  -14.5808 C   0  0  0  0  0  0  0  0  0  0  0  0
   22.8605   -4.2972  -14.8362 O   0  0  0  0  0  0  0  0  0  0  0  0
   23.1452   -5.9144  -13.2846 O   0  0  0  0  0  0  0  0  0  0  0  0
  2  1  1  0
  3  2  1  0
  4  3  1  0
  4  5  1  0
  5  6  1  1
  7  5  1  0
  7  8  2  0
  9  7  1  0
 10  9  1  0
 11 12  1  0
 11 10  1  0
 12 13  1  0
 13  9  1  0
 14 16  1  0
 13 14  1  6
 15 14  2  0
 17 16  1  0
 17 23  1  0
 17 18  1  1
 19 18  1  0
 20 19  1  0
 21 20  1  0
 22 21  1  0
 23 24  2  0
 23 25  1  0
M  END
$$$$
