MPK.pdb
     RDKit          3D

 25 25  0  0  1  0  0  0  0  0999 V2000
   25.3579  -22.1430  -10.0488 C   0  0  0  0  0  0  0  0  0  0  0  0
   24.7179  -20.4782   -9.8485 S   0  0  0  0  0  0  0  0  0  0  0  0
   23.9405  -19.8704  -11.3707 C   0  0  0  0  0  0  0  0  0  0  0  0
   24.6913  -20.3311  -12.5969 C   0  0  0  0  0  0  0  0  0  0  0  0
   24.0054  -19.6747  -13.8067 C   0  0  2  0  0  0  0  0  0  0  0  0
   22.6733  -20.3092  -13.8696 N   0  0  0  0  0  0  0  0  0  0  0  0
   24.7631  -19.9659  -15.0485 C   0  0  0  0  0  0  0  0  0  0  0  0
   24.1950  -20.6130  -15.9591 O   0  0  0  0  0  0  0  0  0  0  0  0
   26.0818  -19.5332  -15.2156 N   0  0  0  0  0  0  0  0  0  0  0  0
   26.8012  -18.7172  -14.2267 C   0  0  0  0  0  0  0  0  0  0  0  0
   28.1165  -18.3628  -14.8436 C   0  0  0  0  0  0  0  0  0  0  0  0
   27.9634  -18.6445  -16.3065 C   0  0  0  0  0  0  0  0  0  0  0  0
   26.9567  -19.8086  -16.3156 C   0  0  1  0  0  0  0  0  0  0  0  0
   27.8051  -21.0224  -16.0498 C   0  0  0  0  0  0  0  0  0  0  0  0
   28.3669  -21.1065  -14.9299 O   0  0  0  0  0  0  0  0  0  0  0  0
   27.9957  -22.0477  -16.9771 N   0  0  0  0  0  0  0  0  0  0  0  0
   27.6629  -23.4623  -16.7138 C   0  0  1  0  0  0  0  0  0  0  0  0
   26.2480  -23.5829  -16.2461 C   0  0  0  0  0  0  0  0  0  0  0  0
   25.8271  -24.9934  -16.0545 C   0  0  0  0  0  0  0  0  0  0  0  0
   24.3793  -25.1261  -15.6273 C   0  0  0  0  0  0  0  0  0  0  0  0
   23.9892  -26.5763  -15.4447 C   0  0  0  0  0  0  0  0  0  0  0  0
   22.6466  -26.7372  -14.9778 N   0  0  0  0  0  0  0  0  0  0  0  0
   27.9038  -24.1838  -17.9726 C   0  0  0  0  0  0  0  0  0  0  0  0
   28.6481  -25.1847  -17.9881 O   0  0  0  0  0  0  0  0  0  0  0  0
   27.3208  -23.7789  -19.1567 O   0  0  0  0  0  0  0  0  0  0  0  0
  2  1  1  0
  3  2  1  0
  4  3  1  0
  4  5  1  0
  5  6  1  6
  7  5  1  0
  7  8  2  0
  9  7  1  0
 10  9  1  0
 11 12  1  0
 11 10  1  0
 12 13  1  0
 13  9  1  0
 14 16  1  0
 13 14  1  1
 15 14  2  0
 17 16  1  0
 17 23  1  0
 17 18  1  6
 19 18  1  0
 20 19  1  0
 21 20  1  0
 22 21  1  0
 23 24  2  0
 23 25  1  0
M  END
$$$$
