RPR.pdb
     RDKit          3D

 30 30  0  0  1  0  0  0  0  0999 V2000
    7.6677  -13.4563   17.2329 N   0  0  0  0  0  0  0  0  0  0  0  0
    8.8095  -13.9776   17.9081 C   0  0  0  0  0  0  0  0  0  0  0  0
    9.4322  -14.9854   17.4141 N   0  0  0  0  0  0  0  0  0  0  0  0
    9.2630  -13.3948   19.1185 N   0  0  0  0  0  0  0  0  0  0  0  0
    9.0025  -13.9957   20.4229 C   0  0  0  0  0  0  0  0  0  0  0  0
    7.7207  -14.7717   20.3464 C   0  0  0  0  0  0  0  0  0  0  0  0
    7.4566  -15.4996   21.6323 C   0  0  0  0  0  0  0  0  0  0  0  0
    6.7408  -14.6039   22.6407 C   0  0  2  0  0  0  0  0  0  0  0  0
    6.0982  -13.5797   21.9204 N   0  0  0  0  0  0  0  0  0  0  0  0
    7.6893  -14.2623   23.6936 C   0  0  0  0  0  0  0  0  0  0  0  0
    8.8440  -14.8330   23.5288 O   0  0  0  0  0  0  0  0  0  0  0  0
   10.2503  -15.4343   17.8469 N   0  0  0  0  0  0  0  0  0  0  0  0
    7.5553  -13.4412   24.8173 C   0  0  0  0  0  0  0  0  0  0  0  0
    7.0369  -12.0401   24.7370 C   0  0  0  0  0  0  0  0  0  0  0  0
    5.9699  -12.0982   25.8303 C   0  0  0  0  0  0  0  0  0  0  0  0
    6.3843  -13.2489   26.7543 C   0  0  2  0  0  0  0  0  0  0  0  0
    7.7838  -13.5536   26.2151 C   0  0  0  0  0  0  0  0  0  0  0  0
    8.3834  -14.7090   26.8131 O   0  0  0  0  0  0  0  0  0  0  0  0
    7.7804  -15.7633   27.0565 N   0  0  0  0  0  0  0  0  0  0  0  0
   11.8592  -17.1098   21.9914 C   0  0  0  0  0  0  0  0  0  0  0  0
   11.0557  -17.8826   22.8650 N   0  0  0  0  0  0  0  0  0  0  0  0
    9.7786  -17.8606   22.6535 N   0  0  0  0  0  0  0  0  0  0  0  0
   11.5865  -18.6511   23.9230 C   0  0  0  0  0  0  0  0  0  0  0  0
   12.2270  -17.8981   25.0230 C   0  0  0  0  0  0  0  0  0  0  0  0
   11.2987  -17.7015   26.1513 C   0  0  0  0  0  0  0  0  0  0  0  0
   11.3166  -16.4028   26.7895 C   0  0  2  0  0  0  0  0  0  0  0  0
   10.3872  -15.9285   27.8236 N   0  0  0  0  0  0  0  0  0  0  0  0
    9.7785  -14.7103   27.1806 C   0  0  0  0  0  0  0  0  0  0  0  0
   10.8362  -15.4832   29.1204 O   0  0  0  0  0  0  0  0  0  0  0  0
   11.0564  -14.2280   29.3240 O   0  0  0  0  0  0  0  0  0  0  0  0
  1  2  1  0
  2  4  1  0
  3  2  2  0
  4  5  1  0
  6  7  1  0
  6  5  1  0
  7  8  1  0
  8  9  1  6
 10 12  1  0
 10  8  1  0
 11 10  2  0
 12 16  1  0
 13 14  1  0
 13 12  1  0
 14 15  1  0
 16 15  1  0
 16 17  1  6
 17 27  1  0
 18 17  2  0
 20 19  1  0
 20 22  1  0
 21 20  2  0
 22 23  1  0
 23 24  1  0
 24 25  1  0
 26 27  1  0
 26 28  1  0
 26 25  1  6
 28 29  2  0
 28 30  1  0
M  END
$$$$
