RPR.pdb
     RDKit          3D

 30 30  0  0  1  0  0  0  0  0999 V2000
    4.9346  -17.9805   12.4882 N   0  0  0  0  0  0  0  0  0  0  0  0
    6.1884  -17.9946   13.1657 C   0  0  0  0  0  0  0  0  0  0  0  0
    7.2763  -17.9515   12.4857 N   0  0  0  0  0  0  0  0  0  0  0  0
    6.2455  -18.0562   14.5810 N   0  0  0  0  0  0  0  0  0  0  0  0
    7.4690  -18.3938   15.3016 C   0  0  0  0  0  0  0  0  0  0  0  0
    8.3598  -17.1868   15.3267 C   0  0  0  0  0  0  0  0  0  0  0  0
    8.1595  -16.3983   16.5881 C   0  0  0  0  0  0  0  0  0  0  0  0
    9.1583  -15.2477   16.6886 C   0  0  2  0  0  0  0  0  0  0  0  0
   10.1961  -15.5028   15.7727 N   0  0  0  0  0  0  0  0  0  0  0  0
    9.4711  -15.0436   18.0977 C   0  0  0  0  0  0  0  0  0  0  0  0
   10.4391  -15.8052   18.5089 O   0  0  0  0  0  0  0  0  0  0  0  0
    8.2174  -18.0690   12.8839 N   0  0  0  0  0  0  0  0  0  0  0  0
    8.9104  -14.1825   19.0459 C   0  0  0  0  0  0  0  0  0  0  0  0
    8.4557  -12.7972   18.7104 C   0  0  0  0  0  0  0  0  0  0  0  0
    7.0503  -12.8360   19.3107 C   0  0  0  0  0  0  0  0  0  0  0  0
    7.0828  -13.9405   20.3730 C   0  0  2  0  0  0  0  0  0  0  0  0
    8.5835  -14.2354   20.4276 C   0  0  0  0  0  0  0  0  0  0  0  0
    8.9125  -15.3533   21.2608 O   0  0  0  0  0  0  0  0  0  0  0  0
    8.3673  -16.4632   21.1895 N   0  0  0  0  0  0  0  0  0  0  0  0
   11.8814  -21.8662   21.0745 C   0  0  0  0  0  0  0  0  0  0  0  0
   13.0176  -21.4865   21.8302 N   0  0  0  0  0  0  0  0  0  0  0  0
   14.0436  -22.2741   21.7744 N   0  0  0  0  0  0  0  0  0  0  0  0
   13.0645  -20.3147   22.6153 C   0  0  0  0  0  0  0  0  0  0  0  0
   12.4566  -19.1037   22.0226 C   0  0  0  0  0  0  0  0  0  0  0  0
   12.3166  -18.0288   23.0218 C   0  0  0  0  0  0  0  0  0  0  0  0
   11.5713  -16.8565   22.6158 C   0  0  2  0  0  0  0  0  0  0  0  0
   10.2665  -16.4305   23.1395 N   0  0  0  0  0  0  0  0  0  0  0  0
    9.9377  -15.2456   22.2700 C   0  0  0  0  0  0  0  0  0  0  0  0
   10.0930  -15.9620   24.4930 O   0  0  0  0  0  0  0  0  0  0  0  0
   10.1627  -14.6984   24.7457 O   0  0  0  0  0  0  0  0  0  0  0  0
  1  2  1  0
  2  4  1  0
  3  2  2  0
  4  5  1  0
  6  7  1  0
  6  5  1  0
  7  8  1  0
  8  9  1  6
 10 12  1  0
 10  8  1  0
 11 10  2  0
 12 16  1  0
 13 14  1  0
 13 12  1  0
 14 15  1  0
 16 15  1  0
 16 17  1  6
 17 27  1  0
 18 17  2  0
 20 19  1  0
 20 22  1  0
 21 20  2  0
 22 23  1  0
 23 24  1  0
 24 25  1  0
 26 27  1  0
 26 28  1  0
 26 25  1  6
 28 29  2  0
 28 30  1  0
M  END
$$$$
