RPR.pdb
     RDKit          3D

 30 30  0  0  1  0  0  0  0  0999 V2000
    8.1156  -13.7490   11.9386 N   0  0  0  0  0  0  0  0  0  0  0  0
    8.6822  -14.6246   12.9101 C   0  0  0  0  0  0  0  0  0  0  0  0
    9.1356  -15.7683   12.5442 N   0  0  0  0  0  0  0  0  0  0  0  0
    8.7491  -14.2451   14.2746 N   0  0  0  0  0  0  0  0  0  0  0  0
    7.8497  -14.7931   15.2850 C   0  0  0  0  0  0  0  0  0  0  0  0
    8.4153  -16.0930   15.7767 C   0  0  0  0  0  0  0  0  0  0  0  0
    8.5999  -16.0686   17.2660 C   0  0  0  0  0  0  0  0  0  0  0  0
    9.8938  -15.3563   17.6538 C   0  0  2  0  0  0  0  0  0  0  0  0
   10.9411  -15.9465   16.9221 N   0  0  0  0  0  0  0  0  0  0  0  0
    9.9645  -15.3101   19.1091 C   0  0  0  0  0  0  0  0  0  0  0  0
   10.5627  -16.3470   19.6123 O   0  0  0  0  0  0  0  0  0  0  0  0
    9.4830  -16.4907   13.1887 N   0  0  0  0  0  0  0  0  0  0  0  0
    9.5046  -14.3538   20.0195 C   0  0  0  0  0  0  0  0  0  0  0  0
    9.4016  -12.9001   19.6812 C   0  0  0  0  0  0  0  0  0  0  0  0
    7.9645  -12.6335   20.1294 C   0  0  0  0  0  0  0  0  0  0  0  0
    7.6398  -13.7259   21.1545 C   0  0  2  0  0  0  0  0  0  0  0  0
    9.0252  -14.3437   21.3570 C   0  0  0  0  0  0  0  0  0  0  0  0
    9.0101  -15.5125   22.1850 O   0  0  0  0  0  0  0  0  0  0  0  0
    8.0318  -16.2595   22.3228 N   0  0  0  0  0  0  0  0  0  0  0  0
   13.5267  -20.9137   23.0664 C   0  0  0  0  0  0  0  0  0  0  0  0
   12.9702  -21.1483   21.7852 N   0  0  0  0  0  0  0  0  0  0  0  0
   12.8251  -22.3851   21.4312 N   0  0  0  0  0  0  0  0  0  0  0  0
   12.5811  -20.1100   20.9122 C   0  0  0  0  0  0  0  0  0  0  0  0
   12.8408  -18.7303   21.3775 C   0  0  0  0  0  0  0  0  0  0  0  0
   11.5884  -18.0383   21.7325 C   0  0  0  0  0  0  0  0  0  0  0  0
   11.2811  -17.9327   23.1427 C   0  0  2  0  0  0  0  0  0  0  0  0
   10.1710  -17.1759   23.7371 N   0  0  0  0  0  0  0  0  0  0  0  0
   10.1795  -15.9012   22.9350 C   0  0  0  0  0  0  0  0  0  0  0  0
   10.1764  -16.7513   25.1160 O   0  0  0  0  0  0  0  0  0  0  0  0
    9.8787  -17.5954   26.0456 O   0  0  0  0  0  0  0  0  0  0  0  0
  1  2  1  0
  2  4  1  0
  3  2  2  0
  4  5  1  0
  6  7  1  0
  6  5  1  0
  7  8  1  0
  8  9  1  1
 10 12  1  0
 10  8  1  0
 11 10  2  0
 12 16  1  0
 13 14  1  0
 13 12  1  0
 14 15  1  0
 16 15  1  0
 16 17  1  6
 17 27  1  0
 18 17  2  0
 20 19  1  0
 20 22  1  0
 21 20  2  0
 22 23  1  0
 23 24  1  0
 24 25  1  0
 26 27  1  0
 26 28  1  0
 26 25  1  6
 28 29  2  0
 28 30  1  0
M  END
$$$$
