RPR.pdb
     RDKit          3D

 30 30  0  0  1  0  0  0  0  0999 V2000
   10.2563  -19.1663   19.5966 N   0  0  0  0  0  0  0  0  0  0  0  0
    9.2401  -18.3657   20.1948 C   0  0  0  0  0  0  0  0  0  0  0  0
    9.1166  -18.3494   21.4723 N   0  0  0  0  0  0  0  0  0  0  0  0
    8.3657  -17.5888   19.3935 N   0  0  0  0  0  0  0  0  0  0  0  0
    7.2985  -16.7724   19.9637 C   0  0  0  0  0  0  0  0  0  0  0  0
    7.8650  -15.4338   20.3356 C   0  0  0  0  0  0  0  0  0  0  0  0
    6.8259  -14.5768   20.9980 C   0  0  0  0  0  0  0  0  0  0  0  0
    7.3997  -13.2208   21.4026 C   0  0  2  0  0  0  0  0  0  0  0  0
    8.0962  -12.7046   20.2939 N   0  0  0  0  0  0  0  0  0  0  0  0
    8.0881  -13.3845   22.6772 C   0  0  0  0  0  0  0  0  0  0  0  0
    9.3041  -13.8173   22.5350 O   0  0  0  0  0  0  0  0  0  0  0  0
    8.4241  -17.7865   21.9836 N   0  0  0  0  0  0  0  0  0  0  0  0
    7.6581  -13.1546   23.9875 C   0  0  0  0  0  0  0  0  0  0  0  0
    7.1241  -11.8333   24.4425 C   0  0  0  0  0  0  0  0  0  0  0  0
    5.8282  -12.2959   25.1088 C   0  0  0  0  0  0  0  0  0  0  0  0
    6.0494  -13.7694   25.4688 C   0  0  2  0  0  0  0  0  0  0  0  0
    7.5476  -13.9066   25.1880 C   0  0  0  0  0  0  0  0  0  0  0  0
    8.0270  -15.2511   25.3087 O   0  0  0  0  0  0  0  0  0  0  0  0
    7.4178  -16.2500   24.9022 N   0  0  0  0  0  0  0  0  0  0  0  0
   14.3621  -18.6905   21.4749 C   0  0  0  0  0  0  0  0  0  0  0  0
   13.1732  -19.4403   21.6491 N   0  0  0  0  0  0  0  0  0  0  0  0
   12.7714  -20.1383   20.6355 N   0  0  0  0  0  0  0  0  0  0  0  0
   12.4380  -19.4504   22.8537 C   0  0  0  0  0  0  0  0  0  0  0  0
   12.4894  -18.2140   23.6636 C   0  0  0  0  0  0  0  0  0  0  0  0
   11.5609  -18.2814   24.8067 C   0  0  0  0  0  0  0  0  0  0  0  0
   10.7471  -17.1104   25.0536 C   0  0  1  0  0  0  0  0  0  0  0  0
    9.7496  -16.9531   26.1205 N   0  0  0  0  0  0  0  0  0  0  0  0
    9.2964  -15.5289   25.9353 C   0  0  0  0  0  0  0  0  0  0  0  0
   10.0903  -17.0594   27.5184 O   0  0  0  0  0  0  0  0  0  0  0  0
   10.4246  -18.2051   28.0092 O   0  0  0  0  0  0  0  0  0  0  0  0
  1  2  1  0
  2  4  1  0
  3  2  2  0
  4  5  1  0
  6  7  1  0
  6  5  1  0
  7  8  1  0
  8  9  1  6
 10 12  1  0
 10  8  1  0
 11 10  2  0
 12 16  1  0
 13 14  1  0
 13 12  1  0
 14 15  1  0
 16 15  1  0
 16 17  1  6
 17 27  1  0
 18 17  2  0
 20 19  1  0
 20 22  1  0
 21 20  2  0
 22 23  1  0
 23 24  1  0
 24 25  1  0
 26 27  1  0
 26 28  1  0
 26 25  1  6
 28 29  2  0
 28 30  1  0
M  END
$$$$
