RPR.pdb
     RDKit          3D

 30 30  0  0  1  0  0  0  0  0999 V2000
   11.2886  -23.2870   22.7300 N   0  0  0  0  0  0  0  0  0  0  0  0
   10.2598  -23.5217   21.7720 C   0  0  0  0  0  0  0  0  0  0  0  0
    9.5013  -24.5498   21.8961 N   0  0  0  0  0  0  0  0  0  0  0  0
   10.0668  -22.6322   20.6848 N   0  0  0  0  0  0  0  0  0  0  0  0
   10.9272  -21.4755   20.4570 C   0  0  0  0  0  0  0  0  0  0  0  0
   10.5955  -20.4230   21.4736 C   0  0  0  0  0  0  0  0  0  0  0  0
   11.5100  -19.2404   21.3394 C   0  0  0  0  0  0  0  0  0  0  0  0
   10.7522  -17.9281   21.5268 C   0  0  2  0  0  0  0  0  0  0  0  0
   11.1247  -17.0672   20.4775 N   0  0  0  0  0  0  0  0  0  0  0  0
   10.9258  -17.5004   22.9096 C   0  0  0  0  0  0  0  0  0  0  0  0
   11.9107  -18.1074   23.4992 O   0  0  0  0  0  0  0  0  0  0  0  0
    8.7098  -24.7681   21.2766 N   0  0  0  0  0  0  0  0  0  0  0  0
   10.2208  -16.5675   23.6761 C   0  0  0  0  0  0  0  0  0  0  0  0
    9.8550  -15.2109   23.1621 C   0  0  0  0  0  0  0  0  0  0  0  0
    8.3653  -15.1997   23.5055 C   0  0  0  0  0  0  0  0  0  0  0  0
    8.1922  -16.2193   24.6369 C   0  0  2  0  0  0  0  0  0  0  0  0
    9.6548  -16.5131   24.9781 C   0  0  0  0  0  0  0  0  0  0  0  0
    9.8136  -17.5645   25.9381 O   0  0  0  0  0  0  0  0  0  0  0  0
    9.2092  -18.6450   25.8985 N   0  0  0  0  0  0  0  0  0  0  0  0
   17.1850  -20.1568   26.7714 C   0  0  0  0  0  0  0  0  0  0  0  0
   16.4002  -20.1626   25.5923 N   0  0  0  0  0  0  0  0  0  0  0  0
   17.0075  -20.4674   24.4903 N   0  0  0  0  0  0  0  0  0  0  0  0
   15.0224  -19.8572   25.5821 C   0  0  0  0  0  0  0  0  0  0  0  0
   14.4053  -19.5676   26.8946 C   0  0  0  0  0  0  0  0  0  0  0  0
   12.9709  -19.2564   26.7570 C   0  0  0  0  0  0  0  0  0  0  0  0
   12.2664  -18.8877   27.9662 C   0  0  2  0  0  0  0  0  0  0  0  0
   10.8478  -18.5198   28.0691 N   0  0  0  0  0  0  0  0  0  0  0  0
   10.7221  -17.4189   27.0492 C   0  0  0  0  0  0  0  0  0  0  0  0
   10.2759  -17.9783   29.2779 O   0  0  0  0  0  0  0  0  0  0  0  0
   10.0222  -16.7154   29.3547 O   0  0  0  0  0  0  0  0  0  0  0  0
  1  2  1  0
  2  4  1  0
  3  2  2  0
  4  5  1  0
  6  7  1  0
  6  5  1  0
  7  8  1  0
  8  9  1  6
 10 12  1  0
 10  8  1  0
 11 10  2  0
 12 16  1  0
 13 14  1  0
 13 12  1  0
 14 15  1  0
 16 15  1  0
 16 17  1  6
 17 27  1  0
 18 17  2  0
 20 19  1  0
 20 22  1  0
 21 20  2  0
 22 23  1  0
 23 24  1  0
 24 25  1  0
 26 27  1  0
 26 28  1  0
 26 25  1  6
 28 29  2  0
 28 30  1  0
M  END
$$$$
