RPR.pdb
     RDKit          3D

 30 30  0  0  1  0  0  0  0  0999 V2000
    8.3927  -12.7084   18.4082 N   0  0  0  0  0  0  0  0  0  0  0  0
    8.1454  -13.1194   19.7504 C   0  0  0  0  0  0  0  0  0  0  0  0
    9.0579  -12.9621   20.6393 N   0  0  0  0  0  0  0  0  0  0  0  0
    6.9034  -13.6998   20.1122 N   0  0  0  0  0  0  0  0  0  0  0  0
    6.6115  -14.1405   21.4727 C   0  0  0  0  0  0  0  0  0  0  0  0
    7.0260  -15.5758   21.6114 C   0  0  0  0  0  0  0  0  0  0  0  0
    5.9906  -16.4921   21.0271 C   0  0  0  0  0  0  0  0  0  0  0  0
    6.4489  -17.9480   21.0709 C   0  0  2  0  0  0  0  0  0  0  0  0
    5.8055  -18.5648   22.1601 N   0  0  0  0  0  0  0  0  0  0  0  0
    7.9041  -17.9656   20.9857 C   0  0  0  0  0  0  0  0  0  0  0  0
    8.4678  -18.1964   22.1325 O   0  0  0  0  0  0  0  0  0  0  0  0
    9.9539  -12.4841   20.4764 N   0  0  0  0  0  0  0  0  0  0  0  0
    8.7610  -17.7797   19.8967 C   0  0  0  0  0  0  0  0  0  0  0  0
    8.3485  -18.0622   18.4867 C   0  0  0  0  0  0  0  0  0  0  0  0
    8.7712  -16.7491   17.8277 C   0  0  0  0  0  0  0  0  0  0  0  0
    9.8479  -16.1535   18.7418 C   0  0  2  0  0  0  0  0  0  0  0  0
   10.0924  -17.3278   19.6921 C   0  0  0  0  0  0  0  0  0  0  0  0
   10.9786  -17.0095   20.7716 O   0  0  0  0  0  0  0  0  0  0  0  0
   12.0660  -16.4318   20.6369 N   0  0  0  0  0  0  0  0  0  0  0  0
   10.1396  -13.1647   29.1456 C   0  0  0  0  0  0  0  0  0  0  0  0
   10.0078  -14.3884   28.4446 N   0  0  0  0  0  0  0  0  0  0  0  0
   10.1990  -15.4728   29.1256 N   0  0  0  0  0  0  0  0  0  0  0  0
    9.6844  -14.4597   27.0728 C   0  0  0  0  0  0  0  0  0  0  0  0
    9.6131  -15.8153   26.4857 C   0  0  0  0  0  0  0  0  0  0  0  0
   10.7859  -16.0959   25.6376 C   0  0  0  0  0  0  0  0  0  0  0  0
   10.5231  -16.4311   24.2545 C   0  0  1  0  0  0  0  0  0  0  0  0
   11.5108  -16.8859   23.2666 N   0  0  0  0  0  0  0  0  0  0  0  0
   10.6417  -17.3574   22.1306 C   0  0  0  0  0  0  0  0  0  0  0  0
   12.4153  -17.9796   23.5257 O   0  0  0  0  0  0  0  0  0  0  0  0
   13.3590  -17.8363   24.3941 O   0  0  0  0  0  0  0  0  0  0  0  0
  1  2  1  0
  2  4  1  0
  3  2  2  0
  4  5  1  0
  6  7  1  0
  6  5  1  0
  7  8  1  0
  8  9  1  1
 10 12  1  0
 10  8  1  0
 11 10  2  0
 12 16  1  0
 13 14  1  0
 13 12  1  0
 14 15  1  0
 16 15  1  0
 16 17  1  6
 17 27  1  0
 18 17  2  0
 20 19  1  0
 20 22  1  0
 21 20  2  0
 22 23  1  0
 23 24  1  0
 24 25  1  0
 26 27  1  0
 26 28  1  0
 26 25  1  6
 28 29  2  0
 28 30  1  0
M  END
$$$$
