RPR.pdb
     RDKit          3D

 30 30  0  0  1  0  0  0  0  0999 V2000
    6.0645  -19.9737   14.6575 N   0  0  0  0  0  0  0  0  0  0  0  0
    7.4872  -19.9098   14.7126 C   0  0  0  0  0  0  0  0  0  0  0  0
    8.1707  -20.0725   13.6384 N   0  0  0  0  0  0  0  0  0  0  0  0
    8.1536  -19.6692   15.9408 N   0  0  0  0  0  0  0  0  0  0  0  0
    7.7984  -18.5600   16.8205 C   0  0  0  0  0  0  0  0  0  0  0  0
    7.8062  -17.2911   16.0198 C   0  0  0  0  0  0  0  0  0  0  0  0
    7.5445  -16.1016   16.8970 C   0  0  0  0  0  0  0  0  0  0  0  0
    8.6750  -15.0799   16.7994 C   0  0  2  0  0  0  0  0  0  0  0  0
    9.5123  -15.4706   15.7378 N   0  0  0  0  0  0  0  0  0  0  0  0
    9.2349  -14.8979   18.1330 C   0  0  0  0  0  0  0  0  0  0  0  0
   10.2057  -15.7233   18.3830 O   0  0  0  0  0  0  0  0  0  0  0  0
    9.1972  -20.0306   13.5890 N   0  0  0  0  0  0  0  0  0  0  0  0
    8.9017  -14.0013   19.1528 C   0  0  0  0  0  0  0  0  0  0  0  0
    8.6030  -12.5583   18.8941 C   0  0  0  0  0  0  0  0  0  0  0  0
    7.2791  -12.4313   19.6481 C   0  0  0  0  0  0  0  0  0  0  0  0
    7.2791  -13.5638   20.6810 C   0  0  2  0  0  0  0  0  0  0  0  0
    8.7236  -14.0548   20.5614 C   0  0  0  0  0  0  0  0  0  0  0  0
    8.9887  -15.2322   21.3331 O   0  0  0  0  0  0  0  0  0  0  0  0
    8.2917  -16.2558   21.3093 N   0  0  0  0  0  0  0  0  0  0  0  0
   15.6063  -21.7568   22.5945 C   0  0  0  0  0  0  0  0  0  0  0  0
   15.1798  -20.4186   22.4113 N   0  0  0  0  0  0  0  0  0  0  0  0
   16.1070  -19.5280   22.2591 N   0  0  0  0  0  0  0  0  0  0  0  0
   13.8208  -20.0390   22.3894 C   0  0  0  0  0  0  0  0  0  0  0  0
   13.5461  -18.5943   22.2321 C   0  0  0  0  0  0  0  0  0  0  0  0
   12.3606  -18.1853   23.0072 C   0  0  0  0  0  0  0  0  0  0  0  0
   11.6054  -17.0615   22.4962 C   0  0  1  0  0  0  0  0  0  0  0  0
   10.3606  -16.5214   23.0592 N   0  0  0  0  0  0  0  0  0  0  0  0
   10.1274  -15.2950   22.2167 C   0  0  0  0  0  0  0  0  0  0  0  0
   10.2652  -16.0626   24.4237 O   0  0  0  0  0  0  0  0  0  0  0  0
   10.3617  -16.9110   25.3913 O   0  0  0  0  0  0  0  0  0  0  0  0
  1  2  1  0
  2  4  1  0
  3  2  2  0
  4  5  1  0
  6  7  1  0
  6  5  1  0
  7  8  1  0
  8  9  1  6
 10 12  1  0
 10  8  1  0
 11 10  2  0
 12 16  1  0
 13 14  1  0
 13 12  1  0
 14 15  1  0
 16 15  1  0
 16 17  1  6
 17 27  1  0
 18 17  2  0
 20 19  1  0
 20 22  1  0
 21 20  2  0
 22 23  1  0
 23 24  1  0
 24 25  1  0
 26 27  1  0
 26 28  1  0
 26 25  1  6
 28 29  2  0
 28 30  1  0
M  END
$$$$
