RPR.pdb
     RDKit          3D

 30 30  0  0  1  0  0  0  0  0999 V2000
    9.0526  -21.1848   19.3285 N   0  0  0  0  0  0  0  0  0  0  0  0
    8.2291  -20.1011   18.9057 C   0  0  0  0  0  0  0  0  0  0  0  0
    7.7260  -19.3087   19.7813 N   0  0  0  0  0  0  0  0  0  0  0  0
    7.9604  -19.8905   17.5295 N   0  0  0  0  0  0  0  0  0  0  0  0
    7.2995  -18.6864   17.0358 C   0  0  0  0  0  0  0  0  0  0  0  0
    8.3114  -17.5813   16.9581 C   0  0  0  0  0  0  0  0  0  0  0  0
    7.7007  -16.3340   16.3885 C   0  0  0  0  0  0  0  0  0  0  0  0
    8.7044  -15.1834   16.3682 C   0  0  2  0  0  0  0  0  0  0  0  0
    9.5595  -15.3829   15.2683 N   0  0  0  0  0  0  0  0  0  0  0  0
    9.2664  -15.0514   17.7069 C   0  0  0  0  0  0  0  0  0  0  0  0
   10.1702  -15.9490   17.9588 O   0  0  0  0  0  0  0  0  0  0  0  0
    7.1680  -18.4737   19.5593 N   0  0  0  0  0  0  0  0  0  0  0  0
    8.9941  -14.1377   18.7295 C   0  0  0  0  0  0  0  0  0  0  0  0
    8.7499  -12.6846   18.4707 C   0  0  0  0  0  0  0  0  0  0  0  0
    7.4499  -12.4994   19.2537 C   0  0  0  0  0  0  0  0  0  0  0  0
    7.4263  -13.6269   20.2919 C   0  0  2  0  0  0  0  0  0  0  0  0
    8.8460  -14.1783   20.1420 C   0  0  0  0  0  0  0  0  0  0  0  0
    9.0794  -15.3627   20.9132 O   0  0  0  0  0  0  0  0  0  0  0  0
    8.3629  -16.3725   20.8785 N   0  0  0  0  0  0  0  0  0  0  0  0
   15.2429  -19.8632   18.8451 C   0  0  0  0  0  0  0  0  0  0  0  0
   14.6402  -20.7349   19.7848 N   0  0  0  0  0  0  0  0  0  0  0  0
   14.9694  -21.9850   19.7136 N   0  0  0  0  0  0  0  0  0  0  0  0
   13.7231  -20.2973   20.7641 C   0  0  0  0  0  0  0  0  0  0  0  0
   13.2460  -18.9030   20.6391 C   0  0  0  0  0  0  0  0  0  0  0  0
   12.2134  -18.5962   21.6456 C   0  0  0  0  0  0  0  0  0  0  0  0
   11.6136  -17.2807   21.5817 C   0  0  2  0  0  0  0  0  0  0  0  0
   10.5535  -16.7643   22.4579 N   0  0  0  0  0  0  0  0  0  0  0  0
   10.2064  -15.4500   21.8095 C   0  0  0  0  0  0  0  0  0  0  0  0
   10.7847  -16.4479   23.8464 O   0  0  0  0  0  0  0  0  0  0  0  0
   11.0903  -15.2405   24.1844 O   0  0  0  0  0  0  0  0  0  0  0  0
  1  2  1  0
  2  4  1  0
  3  2  2  0
  4  5  1  0
  6  7  1  0
  6  5  1  0
  7  8  1  0
  8  9  1  6
 10 12  1  0
 10  8  1  0
 11 10  2  0
 12 16  1  0
 13 14  1  0
 13 12  1  0
 14 15  1  0
 16 15  1  0
 16 17  1  1
 17 27  1  0
 18 17  2  0
 20 19  1  0
 20 22  1  0
 21 20  2  0
 22 23  1  0
 23 24  1  0
 24 25  1  0
 26 27  1  0
 26 28  1  0
 26 25  1  6
 28 29  2  0
 28 30  1  0
M  END
$$$$
