RPR.pdb
     RDKit          3D

 30 30  0  0  1  0  0  0  0  0999 V2000
    7.2417  -12.1823   17.5654 N   0  0  0  0  0  0  0  0  0  0  0  0
    7.4894  -13.5124   17.1173 C   0  0  0  0  0  0  0  0  0  0  0  0
    8.2762  -13.7095   16.1225 N   0  0  0  0  0  0  0  0  0  0  0  0
    6.8756  -14.6181   17.7586 N   0  0  0  0  0  0  0  0  0  0  0  0
    7.4782  -15.2926   18.9042 C   0  0  0  0  0  0  0  0  0  0  0  0
    6.9707  -14.6494   20.1612 C   0  0  0  0  0  0  0  0  0  0  0  0
    7.3564  -15.4535   21.3686 C   0  0  0  0  0  0  0  0  0  0  0  0
    8.6553  -14.9404   21.9859 C   0  0  2  0  0  0  0  0  0  0  0  0
    9.6977  -15.2264   21.0845 N   0  0  0  0  0  0  0  0  0  0  0  0
    8.7286  -15.4323   23.3562 C   0  0  0  0  0  0  0  0  0  0  0  0
    9.3832  -16.5498   23.4504 O   0  0  0  0  0  0  0  0  0  0  0  0
    8.5473  -14.6365   15.7687 N   0  0  0  0  0  0  0  0  0  0  0  0
    8.2214  -14.9053   24.5478 C   0  0  0  0  0  0  0  0  0  0  0  0
    8.1037  -13.4345   24.7952 C   0  0  0  0  0  0  0  0  0  0  0  0
    6.6479  -13.3677   25.2570 C   0  0  0  0  0  0  0  0  0  0  0  0
    6.3088  -14.7732   25.7661 C   0  0  2  0  0  0  0  0  0  0  0  0
    7.6976  -15.4161   25.7657 C   0  0  0  0  0  0  0  0  0  0  0  0
    7.6758  -16.8146   26.0753 O   0  0  0  0  0  0  0  0  0  0  0  0
    6.8746  -17.6258   25.5913 N   0  0  0  0  0  0  0  0  0  0  0  0
   13.9227  -19.7249   31.3034 C   0  0  0  0  0  0  0  0  0  0  0  0
   12.7717  -20.4226   31.7446 N   0  0  0  0  0  0  0  0  0  0  0  0
   12.9358  -21.2580   32.7199 N   0  0  0  0  0  0  0  0  0  0  0  0
   11.4941  -20.2405   31.1736 C   0  0  0  0  0  0  0  0  0  0  0  0
   11.4626  -19.7191   29.7899 C   0  0  0  0  0  0  0  0  0  0  0  0
   10.0868  -19.6800   29.2616 C   0  0  0  0  0  0  0  0  0  0  0  0
    9.9044  -19.0574   27.9680 C   0  0  1  0  0  0  0  0  0  0  0  0
    8.6273  -18.8627   27.2683 N   0  0  0  0  0  0  0  0  0  0  0  0
    8.6230  -17.3799   27.0051 C   0  0  0  0  0  0  0  0  0  0  0  0
    7.3554  -19.1367   27.8917 O   0  0  0  0  0  0  0  0  0  0  0  0
    6.7065  -18.1808   28.4666 O   0  0  0  0  0  0  0  0  0  0  0  0
  1  2  1  0
  2  4  1  0
  3  2  2  0
  4  5  1  0
  6  7  1  0
  6  5  1  0
  7  8  1  0
  8  9  1  6
 10 12  1  0
 10  8  1  0
 11 10  2  0
 12 16  1  0
 13 14  1  0
 13 12  1  0
 14 15  1  0
 16 15  1  0
 16 17  1  6
 17 27  1  0
 18 17  2  0
 20 19  1  0
 20 22  1  0
 21 20  2  0
 22 23  1  0
 23 24  1  0
 24 25  1  0
 26 27  1  0
 26 28  1  0
 26 25  1  6
 28 29  2  0
 28 30  1  0
M  END
$$$$
