RPR.pdb
     RDKit          3D

 30 30  0  0  1  0  0  0  0  0999 V2000
    6.4085  -18.9781   21.3562 N   0  0  0  0  0  0  0  0  0  0  0  0
    6.0626  -17.9981   20.3809 C   0  0  0  0  0  0  0  0  0  0  0  0
    5.9661  -16.7660   20.7275 N   0  0  0  0  0  0  0  0  0  0  0  0
    5.8238  -18.3707   19.0338 N   0  0  0  0  0  0  0  0  0  0  0  0
    6.8991  -18.5050   18.0560 C   0  0  0  0  0  0  0  0  0  0  0  0
    7.5457  -17.1644   17.8667 C   0  0  0  0  0  0  0  0  0  0  0  0
    7.9070  -16.9415   16.4270 C   0  0  0  0  0  0  0  0  0  0  0  0
    8.3928  -15.5133   16.1908 C   0  0  2  0  0  0  0  0  0  0  0  0
    8.7993  -15.4180   14.8468 N   0  0  0  0  0  0  0  0  0  0  0  0
    9.3287  -15.1732   17.2555 C   0  0  0  0  0  0  0  0  0  0  0  0
   10.2241  -16.0943   17.4451 O   0  0  0  0  0  0  0  0  0  0  0  0
    5.6290  -16.0127   20.1137 N   0  0  0  0  0  0  0  0  0  0  0  0
    9.4114  -14.0456   18.0780 C   0  0  0  0  0  0  0  0  0  0  0  0
    8.8810  -12.7075   17.6701 C   0  0  0  0  0  0  0  0  0  0  0  0
    8.0465  -12.3744   18.9070 C   0  0  0  0  0  0  0  0  0  0  0  0
    8.6374  -13.2142   20.0450 C   0  0  2  0  0  0  0  0  0  0  0  0
    9.9071  -13.7440   19.3749 C   0  0  0  0  0  0  0  0  0  0  0  0
   10.6164  -14.6967   20.1757 O   0  0  0  0  0  0  0  0  0  0  0  0
   10.5725  -15.9230   20.0070 N   0  0  0  0  0  0  0  0  0  0  0  0
    7.7633  -16.6825   26.9812 C   0  0  0  0  0  0  0  0  0  0  0  0
    9.0233  -17.3222   26.8836 N   0  0  0  0  0  0  0  0  0  0  0  0
    9.7390  -17.3658   27.9615 N   0  0  0  0  0  0  0  0  0  0  0  0
    9.5061  -17.8951   25.6876 C   0  0  0  0  0  0  0  0  0  0  0  0
    9.3833  -17.0676   24.4680 C   0  0  0  0  0  0  0  0  0  0  0  0
   10.6958  -16.8475   23.8336 C   0  0  0  0  0  0  0  0  0  0  0  0
   10.8282  -15.6681   23.0054 C   0  0  1  0  0  0  0  0  0  0  0  0
   12.0148  -15.2760   22.2330 N   0  0  0  0  0  0  0  0  0  0  0  0
   11.4552  -14.2650   21.2671 C   0  0  0  0  0  0  0  0  0  0  0  0
   12.7473  -16.2113   21.4143 O   0  0  0  0  0  0  0  0  0  0  0  0
   13.1655  -17.3188   21.9277 O   0  0  0  0  0  0  0  0  0  0  0  0
  1  2  1  0
  2  4  1  0
  3  2  2  0
  4  5  1  0
  6  7  1  0
  6  5  1  0
  7  8  1  0
  8  9  1  6
 10 12  1  0
 10  8  1  0
 11 10  2  0
 12 16  1  0
 13 14  1  0
 13 12  1  0
 14 15  1  0
 16 15  1  0
 16 17  1  1
 17 27  1  0
 18 17  2  0
 20 19  1  0
 20 22  1  0
 21 20  2  0
 22 23  1  0
 23 24  1  0
 24 25  1  0
 26 27  1  0
 26 28  1  0
 26 25  1  1
 28 29  2  0
 28 30  1  0
M  END
$$$$
