RPR.pdb
     RDKit          3D

 30 30  0  0  1  0  0  0  0  0999 V2000
    7.9468  -15.6652   13.9287 N   0  0  0  0  0  0  0  0  0  0  0  0
    7.7788  -15.2933   15.2943 C   0  0  0  0  0  0  0  0  0  0  0  0
    6.9066  -14.4047   15.6061 N   0  0  0  0  0  0  0  0  0  0  0  0
    8.5651  -15.8940   16.3098 N   0  0  0  0  0  0  0  0  0  0  0  0
    8.4757  -15.4924   17.7102 C   0  0  0  0  0  0  0  0  0  0  0  0
    7.8354  -16.6040   18.4883 C   0  0  0  0  0  0  0  0  0  0  0  0
    8.8592  -17.3628   19.2813 C   0  0  0  0  0  0  0  0  0  0  0  0
    9.9368  -16.4318   19.8324 C   0  0  2  0  0  0  0  0  0  0  0  0
   11.1548  -17.1369   19.8232 N   0  0  0  0  0  0  0  0  0  0  0  0
    9.4427  -15.8575   21.0779 C   0  0  0  0  0  0  0  0  0  0  0  0
    9.3747  -16.7304   22.0368 O   0  0  0  0  0  0  0  0  0  0  0  0
    6.6948  -14.1084   16.5680 N   0  0  0  0  0  0  0  0  0  0  0  0
    9.0442  -14.5547   21.3922 C   0  0  0  0  0  0  0  0  0  0  0  0
    9.4330  -13.3695   20.5662 C   0  0  0  0  0  0  0  0  0  0  0  0
    8.0586  -12.7277   20.3755 C   0  0  0  0  0  0  0  0  0  0  0  0
    7.1959  -13.2418   21.5336 C   0  0  2  0  0  0  0  0  0  0  0  0
    8.2596  -13.9256   22.3958 C   0  0  0  0  0  0  0  0  0  0  0  0
    7.7136  -14.6363   23.5133 O   0  0  0  0  0  0  0  0  0  0  0  0
    6.5144  -14.6373   23.8235 N   0  0  0  0  0  0  0  0  0  0  0  0
    4.8051  -21.6568   22.8947 C   0  0  0  0  0  0  0  0  0  0  0  0
    6.2134  -21.5053   22.9035 N   0  0  0  0  0  0  0  0  0  0  0  0
    6.9100  -22.5563   23.1973 N   0  0  0  0  0  0  0  0  0  0  0  0
    6.8591  -20.2851   22.6107 C   0  0  0  0  0  0  0  0  0  0  0  0
    6.3450  -19.0872   23.3093 C   0  0  0  0  0  0  0  0  0  0  0  0
    7.4290  -18.3553   23.9895 C   0  0  0  0  0  0  0  0  0  0  0  0
    7.0542  -17.1537   24.7037 C   0  0  1  0  0  0  0  0  0  0  0  0
    7.9557  -16.2732   25.4589 N   0  0  0  0  0  0  0  0  0  0  0  0
    8.5629  -15.4220   24.3750 C   0  0  0  0  0  0  0  0  0  0  0  0
    9.0779  -16.7789   26.2115 O   0  0  0  0  0  0  0  0  0  0  0  0
   10.2783  -16.5710   25.7861 O   0  0  0  0  0  0  0  0  0  0  0  0
  1  2  1  0
  2  4  1  0
  3  2  2  0
  4  5  1  0
  6  7  1  0
  6  5  1  0
  7  8  1  0
  8  9  1  1
 10 12  1  0
 10  8  1  0
 11 10  2  0
 12 16  1  0
 13 14  1  0
 13 12  1  0
 14 15  1  0
 16 15  1  0
 16 17  1  6
 17 27  1  0
 18 17  2  0
 20 19  1  0
 20 22  1  0
 21 20  2  0
 22 23  1  0
 23 24  1  0
 24 25  1  0
 26 27  1  0
 26 28  1  0
 26 25  1  1
 28 29  2  0
 28 30  1  0
M  END
$$$$
