RPR.pdb
     RDKit          3D

 30 30  0  0  1  0  0  0  0  0999 V2000
    8.3388  -14.7631   14.7522 N   0  0  0  0  0  0  0  0  0  0  0  0
    7.6714  -14.2743   15.9128 C   0  0  0  0  0  0  0  0  0  0  0  0
    7.8781  -13.0686   16.3017 N   0  0  0  0  0  0  0  0  0  0  0  0
    6.7832  -15.1058   16.6408 N   0  0  0  0  0  0  0  0  0  0  0  0
    7.0410  -15.5094   18.0196 C   0  0  0  0  0  0  0  0  0  0  0  0
    7.3910  -14.2891   18.8193 C   0  0  0  0  0  0  0  0  0  0  0  0
    7.6346  -14.6421   20.2578 C   0  0  0  0  0  0  0  0  0  0  0  0
    7.9956  -13.4067   21.0795 C   0  0  2  0  0  0  0  0  0  0  0  0
    8.7521  -12.5527   20.2553 N   0  0  0  0  0  0  0  0  0  0  0  0
    8.5447  -13.8565   22.3527 C   0  0  0  0  0  0  0  0  0  0  0  0
    9.6021  -14.5958   22.2063 O   0  0  0  0  0  0  0  0  0  0  0  0
    7.4936  -12.6605   17.1640 N   0  0  0  0  0  0  0  0  0  0  0  0
    8.1251  -13.6230   23.6658 C   0  0  0  0  0  0  0  0  0  0  0  0
    7.6779  -12.2778   24.1440 C   0  0  0  0  0  0  0  0  0  0  0  0
    6.3512  -12.6656   24.7972 C   0  0  0  0  0  0  0  0  0  0  0  0
    6.4725  -14.1570   25.1300 C   0  0  2  0  0  0  0  0  0  0  0  0
    7.9594  -14.3882   24.8515 C   0  0  0  0  0  0  0  0  0  0  0  0
    8.3480  -15.7636   24.9483 O   0  0  0  0  0  0  0  0  0  0  0  0
    7.8353  -16.6830   24.2955 N   0  0  0  0  0  0  0  0  0  0  0  0
   15.1974  -21.0417   24.4391 C   0  0  0  0  0  0  0  0  0  0  0  0
   14.1653  -20.6253   23.5630 N   0  0  0  0  0  0  0  0  0  0  0  0
   13.6022  -21.5460   22.8479 N   0  0  0  0  0  0  0  0  0  0  0  0
   13.7453  -19.2828   23.4499 C   0  0  0  0  0  0  0  0  0  0  0  0
   12.9389  -18.7516   24.5702 C   0  0  0  0  0  0  0  0  0  0  0  0
   11.4957  -18.8398   24.2824 C   0  0  0  0  0  0  0  0  0  0  0  0
   10.6842  -17.7070   24.6733 C   0  0  1  0  0  0  0  0  0  0  0  0
    9.8488  -17.6094   25.8778 N   0  0  0  0  0  0  0  0  0  0  0  0
    9.3998  -16.1722   25.8471 C   0  0  0  0  0  0  0  0  0  0  0  0
   10.3798  -17.8082   27.2044 O   0  0  0  0  0  0  0  0  0  0  0  0
   10.5885  -19.0063   27.6362 O   0  0  0  0  0  0  0  0  0  0  0  0
  1  2  1  0
  2  4  1  0
  3  2  2  0
  4  5  1  0
  6  7  1  0
  6  5  1  0
  7  8  1  0
  8  9  1  6
 10 12  1  0
 10  8  1  0
 11 10  2  0
 12 16  1  0
 13 14  1  0
 13 12  1  0
 14 15  1  0
 16 15  1  0
 16 17  1  6
 17 27  1  0
 18 17  2  0
 20 19  1  0
 20 22  1  0
 21 20  2  0
 22 23  1  0
 23 24  1  0
 24 25  1  0
 26 27  1  0
 26 28  1  0
 26 25  1  6
 28 29  2  0
 28 30  1  0
M  END
$$$$
