FKD.pdb
     RDKit          3D

 29 29  0  0  1  0  0  0  0  0999 V2000
   20.3688  -10.7870  -21.8670 N   0  0  0  0  0  0  0  0  0  0  0  0
   21.3643  -10.4420  -20.8703 C   0  0  1  0  0  0  0  0  0  0  0  0
   22.2128   -9.2845  -21.2884 C   0  0  0  0  0  0  0  0  0  0  0  0
   23.0282   -9.5297  -22.4779 C   0  0  0  0  0  0  0  0  0  0  0  0
   24.1832  -10.2898  -22.4804 C   0  0  0  0  0  0  0  0  0  0  0  0
   24.9357  -10.5063  -23.6212 C   0  0  0  0  0  0  0  0  0  0  0  0
   24.5153   -9.9375  -24.8148 C   0  0  0  0  0  0  0  0  0  0  0  0
   23.3684   -9.1741  -24.8479 C   0  0  0  0  0  0  0  0  0  0  0  0
   22.6326   -8.9762  -23.6754 C   0  0  0  0  0  0  0  0  0  0  0  0
   20.6677  -10.0515  -19.6162 C   0  0  0  0  0  0  0  0  0  0  0  0
   19.5830   -9.4037  -19.7570 O   0  0  0  0  0  0  0  0  0  0  0  0
   21.1835  -10.3824  -18.3444 N   0  0  0  0  0  0  0  0  0  0  0  0
   20.4322  -10.0899  -17.1436 C   0  0  1  0  0  0  0  0  0  0  0  0
   20.4079  -11.3663  -16.3341 C   0  0  0  0  0  0  0  0  0  0  0  0
   19.4965  -12.4181  -16.8684 C   0  0  0  0  0  0  0  0  0  0  0  0
   19.4742  -13.6656  -16.0148 C   0  0  0  0  0  0  0  0  0  0  0  0
   18.4614  -14.6226  -16.6477 C   0  0  0  0  0  0  0  0  0  0  0  0
   18.3322  -15.8028  -15.8267 N   0  0  0  0  0  0  0  0  0  0  0  0
   21.0611   -8.9602  -16.4220 C   0  0  0  0  0  0  0  0  0  0  0  0
   22.2096   -8.5873  -16.7477 O   0  0  0  0  0  0  0  0  0  0  0  0
   20.4355   -8.2621  -15.3681 N   0  0  0  0  0  0  0  0  0  0  0  0
   21.0360   -7.1417  -14.6581 C   0  0  1  0  0  0  0  0  0  0  0  0
   21.3748   -6.0153  -15.5753 C   0  0  0  0  0  0  0  0  0  0  0  0
   21.9642   -4.9009  -14.8060 C   0  0  0  0  0  0  0  0  0  0  0  0
   21.2732   -3.9370  -14.3994 O   0  0  0  0  0  0  0  0  0  0  0  0
   20.1626   -6.7636  -13.5535 C   0  0  0  0  0  0  0  0  0  0  0  0
   20.6331   -6.0688  -12.4403 O   0  0  0  0  0  0  0  0  0  0  0  0
   23.3314   -4.8598  -14.4876 O   0  0  0  0  0  0  0  0  0  0  0  0
   18.9273   -7.0844  -13.6153 O   0  0  0  0  0  0  0  0  0  0  0  0
  2  1  1  6
  2 10  1  0
  2  3  1  0
  3  4  1  0
  4  5  2  0
  4  9  1  0
  5  6  1  0
  6  7  2  0
  8  7  1  0
  9  8  2  0
 10 12  1  0
 11 10  2  0
 12 13  1  0
 13 14  1  1
 14 15  1  0
 15 16  1  0
 16 17  1  0
 17 18  1  0
 19 20  2  0
 19 13  1  0
 21 19  1  0
 22 26  1  0
 22 21  1  0
 22 23  1  6
 24 25  2  0
 24 23  1  0
 26 27  1  0
 28 24  1  0
 29 26  2  0
M  END
$$$$
