FKD.pdb
     RDKit          3D

 29 29  0  0  1  0  0  0  0  0999 V2000
   26.9733  -18.3069   -8.3000 N   0  0  0  0  0  0  0  0  0  0  0  0
   27.0691  -19.7151   -8.6334 C   0  0  1  0  0  0  0  0  0  0  0  0
   26.7798  -20.5993   -7.4631 C   0  0  0  0  0  0  0  0  0  0  0  0
   27.6889  -20.4220   -6.3309 C   0  0  0  0  0  0  0  0  0  0  0  0
   29.0148  -20.8141   -6.3350 C   0  0  0  0  0  0  0  0  0  0  0  0
   29.8533  -20.6336   -5.2493 C   0  0  0  0  0  0  0  0  0  0  0  0
   29.3443  -20.0338   -4.1065 C   0  0  0  0  0  0  0  0  0  0  0  0
   28.0270  -19.6308   -4.0684 C   0  0  0  0  0  0  0  0  0  0  0  0
   27.2082  -19.8291   -5.1844 C   0  0  0  0  0  0  0  0  0  0  0  0
   26.0634  -20.0258   -9.6835 C   0  0  0  0  0  0  0  0  0  0  0  0
   24.9896  -19.3463   -9.6484 O   0  0  0  0  0  0  0  0  0  0  0  0
   26.2909  -21.0184  -10.6613 N   0  0  0  0  0  0  0  0  0  0  0  0
   25.8487  -20.8269  -12.0251 C   0  0  1  0  0  0  0  0  0  0  0  0
   26.8653  -21.5187  -12.9043 C   0  0  0  0  0  0  0  0  0  0  0  0
   27.7032  -20.5958  -13.7218 C   0  0  0  0  0  0  0  0  0  0  0  0
   26.8921  -19.5274  -14.4191 C   0  0  0  0  0  0  0  0  0  0  0  0
   27.8588  -18.7395  -15.3061 C   0  0  0  0  0  0  0  0  0  0  0  0
   27.1323  -17.7250  -16.0317 N   0  0  0  0  0  0  0  0  0  0  0  0
   24.4802  -21.3682  -12.1885 C   0  0  0  0  0  0  0  0  0  0  0  0
   24.3177  -22.6036  -12.2961 O   0  0  0  0  0  0  0  0  0  0  0  0
   23.3226  -20.5634  -12.2316 N   0  0  0  0  0  0  0  0  0  0  0  0
   21.9855  -21.0670  -12.5114 C   0  0  1  0  0  0  0  0  0  0  0  0
   20.9466  -20.0069  -12.3647 C   0  0  0  0  0  0  0  0  0  0  0  0
   19.6011  -20.5992  -12.5057 C   0  0  0  0  0  0  0  0  0  0  0  0
   19.4331  -21.8279  -12.6900 O   0  0  0  0  0  0  0  0  0  0  0  0
   21.9913  -21.7134  -13.8184 C   0  0  0  0  0  0  0  0  0  0  0  0
   21.3852  -22.9495  -14.0373 O   0  0  0  0  0  0  0  0  0  0  0  0
   18.4355  -19.8183  -12.4409 O   0  0  0  0  0  0  0  0  0  0  0  0
   22.5743  -21.1213  -14.7891 O   0  0  0  0  0  0  0  0  0  0  0  0
  2  1  1  1
  2 10  1  0
  2  3  1  0
  3  4  1  0
  4  5  2  0
  4  9  1  0
  5  6  1  0
  6  7  2  0
  8  7  1  0
  9  8  2  0
 10 12  1  0
 11 10  2  0
 12 13  1  0
 13 14  1  6
 14 15  1  0
 15 16  1  0
 16 17  1  0
 17 18  1  0
 19 20  2  0
 19 13  1  0
 21 19  1  0
 22 26  1  0
 22 21  1  0
 22 23  1  6
 24 25  2  0
 24 23  1  0
 26 27  1  0
 28 24  1  0
 29 26  2  0
M  END
$$$$
