FKD.pdb
     RDKit          3D

 29 29  0  0  1  0  0  0  0  0999 V2000
   27.5326  -21.7207  -18.8003 N   0  0  0  0  0  0  0  0  0  0  0  0
   26.8254  -20.6914  -18.0630 C   0  0  1  0  0  0  0  0  0  0  0  0
   25.6933  -20.1059  -18.8442 C   0  0  0  0  0  0  0  0  0  0  0  0
   26.1002  -19.3700  -20.0412 C   0  0  0  0  0  0  0  0  0  0  0  0
   26.7720  -18.1617  -20.0150 C   0  0  0  0  0  0  0  0  0  0  0  0
   27.1458  -17.4868  -21.1635 C   0  0  0  0  0  0  0  0  0  0  0  0
   26.8343  -18.0442  -22.3953 C   0  0  0  0  0  0  0  0  0  0  0  0
   26.1653  -19.2474  -22.4578 C   0  0  0  0  0  0  0  0  0  0  0  0
   25.8029  -19.9019  -21.2764 C   0  0  0  0  0  0  0  0  0  0  0  0
   26.2497  -21.2965  -16.8330 C   0  0  0  0  0  0  0  0  0  0  0  0
   25.8444  -22.4968  -16.9368 O   0  0  0  0  0  0  0  0  0  0  0  0
   26.1597  -20.5770  -15.6216 N   0  0  0  0  0  0  0  0  0  0  0  0
   25.6584  -21.2102  -14.4217 C   0  0  1  0  0  0  0  0  0  0  0  0
   26.5526  -20.7524  -13.2922 C   0  0  0  0  0  0  0  0  0  0  0  0
   26.1882  -21.3027  -11.9555 C   0  0  0  0  0  0  0  0  0  0  0  0
   25.2588  -20.3968  -11.1802 C   0  0  0  0  0  0  0  0  0  0  0  0
   25.1110  -20.9994   -9.7812 C   0  0  0  0  0  0  0  0  0  0  0  0
   24.2043  -20.1924   -9.0000 N   0  0  0  0  0  0  0  0  0  0  0  0
   24.2380  -20.8447  -14.2185 C   0  0  0  0  0  0  0  0  0  0  0  0
   23.9111  -19.6376  -14.2044 O   0  0  0  0  0  0  0  0  0  0  0  0
   23.2072  -21.7899  -14.0358 N   0  0  0  0  0  0  0  0  0  0  0  0
   21.8063  -21.4457  -13.8384 C   0  0  1  0  0  0  0  0  0  0  0  0
   20.9041  -22.6057  -14.0935 C   0  0  0  0  0  0  0  0  0  0  0  0
   19.4986  -22.2050  -13.8815 C   0  0  0  0  0  0  0  0  0  0  0  0
   19.0403  -21.1287  -14.3326 O   0  0  0  0  0  0  0  0  0  0  0  0
   21.6503  -20.8541  -12.5149 C   0  0  0  0  0  0  0  0  0  0  0  0
   20.7545  -19.8150  -12.2678 O   0  0  0  0  0  0  0  0  0  0  0  0
   18.5978  -23.0079  -13.1629 O   0  0  0  0  0  0  0  0  0  0  0  0
   22.3627  -21.3079  -11.5561 O   0  0  0  0  0  0  0  0  0  0  0  0
  2  1  1  6
  2 10  1  0
  2  3  1  0
  3  4  1  0
  4  5  2  0
  4  9  1  0
  5  6  1  0
  6  7  2  0
  8  7  1  0
  9  8  2  0
 10 12  1  0
 11 10  2  0
 12 13  1  0
 13 14  1  1
 14 15  1  0
 15 16  1  0
 16 17  1  0
 17 18  1  0
 19 20  2  0
 19 13  1  0
 21 19  1  0
 22 26  1  0
 22 21  1  0
 22 23  1  1
 24 25  2  0
 24 23  1  0
 26 27  1  0
 28 24  1  0
 29 26  2  0
M  END
$$$$
