FKD.pdb
     RDKit          3D

 29 29  0  0  1  0  0  0  0  0999 V2000
   27.7796  -20.0196  -11.1480 N   0  0  0  0  0  0  0  0  0  0  0  0
   26.8276  -21.0441  -10.7640 C   0  0  1  0  0  0  0  0  0  0  0  0
   26.1245  -20.7190   -9.4854 C   0  0  0  0  0  0  0  0  0  0  0  0
   27.0147  -20.4538   -8.3552 C   0  0  0  0  0  0  0  0  0  0  0  0
   26.8167  -19.4397   -7.4363 C   0  0  0  0  0  0  0  0  0  0  0  0
   27.6750  -19.2114   -6.3754 C   0  0  0  0  0  0  0  0  0  0  0  0
   28.7824  -20.0336   -6.2251 C   0  0  0  0  0  0  0  0  0  0  0  0
   29.0098  -21.0540   -7.1231 C   0  0  0  0  0  0  0  0  0  0  0  0
   28.1212  -21.2558   -8.1837 C   0  0  0  0  0  0  0  0  0  0  0  0
   25.7915  -21.1536  -11.8247 C   0  0  0  0  0  0  0  0  0  0  0  0
   25.5476  -20.0922  -12.4804 O   0  0  0  0  0  0  0  0  0  0  0  0
   25.1194  -22.3673  -12.0859 N   0  0  0  0  0  0  0  0  0  0  0  0
   24.2641  -22.5036  -13.2443 C   0  0  1  0  0  0  0  0  0  0  0  0
   24.1655  -23.9846  -13.5301 C   0  0  0  0  0  0  0  0  0  0  0  0
   23.2152  -24.3400  -14.6222 C   0  0  0  0  0  0  0  0  0  0  0  0
   23.9134  -24.7652  -15.8939 C   0  0  0  0  0  0  0  0  0  0  0  0
   22.8242  -25.0209  -16.9382 C   0  0  0  0  0  0  0  0  0  0  0  0
   23.4343  -25.3859  -18.1944 N   0  0  0  0  0  0  0  0  0  0  0  0
   22.9493  -21.8791  -12.9724 C   0  0  0  0  0  0  0  0  0  0  0  0
   22.4362  -21.9985  -11.8381 O   0  0  0  0  0  0  0  0  0  0  0  0
   22.2221  -21.1423  -13.9303 N   0  0  0  0  0  0  0  0  0  0  0  0
   20.9018  -20.5747  -13.6969 C   0  0  1  0  0  0  0  0  0  0  0  0
   20.5071  -19.6168  -14.7699 C   0  0  0  0  0  0  0  0  0  0  0  0
   19.1639  -19.0717  -14.4875 C   0  0  0  0  0  0  0  0  0  0  0  0
   18.1183  -19.6850  -14.8076 O   0  0  0  0  0  0  0  0  0  0  0  0
   19.9520  -21.6626  -13.4957 C   0  0  0  0  0  0  0  0  0  0  0  0
   18.9317  -21.5909  -12.5486 O   0  0  0  0  0  0  0  0  0  0  0  0
   18.9840  -17.8360  -13.8447 O   0  0  0  0  0  0  0  0  0  0  0  0
   20.0666  -22.7130  -14.2143 O   0  0  0  0  0  0  0  0  0  0  0  0
  2  1  1  6
  2 10  1  0
  2  3  1  0
  3  4  1  0
  4  5  2  0
  4  9  1  0
  5  6  1  0
  6  7  2  0
  8  7  1  0
  9  8  2  0
 10 12  1  0
 11 10  2  0
 12 13  1  0
 13 14  1  1
 14 15  1  0
 15 16  1  0
 16 17  1  0
 17 18  1  0
 19 20  2  0
 19 13  1  0
 21 19  1  0
 22 26  1  0
 22 21  1  0
 22 23  1  6
 24 25  2  0
 24 23  1  0
 26 27  1  0
 28 24  1  0
 29 26  2  0
M  END
$$$$
