FKD.pdb
     RDKit          3D

 29 29  0  0  1  0  0  0  0  0999 V2000
   25.7605  -17.7764  -18.2316 N   0  0  0  0  0  0  0  0  0  0  0  0
   25.3702  -18.5606  -17.0758 C   0  0  1  0  0  0  0  0  0  0  0  0
   26.4394  -18.6094  -16.0321 C   0  0  0  0  0  0  0  0  0  0  0  0
   27.6647  -19.2894  -16.4517 C   0  0  0  0  0  0  0  0  0  0  0  0
   27.8682  -20.6528  -16.3437 C   0  0  0  0  0  0  0  0  0  0  0  0
   29.0378  -21.2707  -16.7494 C   0  0  0  0  0  0  0  0  0  0  0  0
   30.0513  -20.4910  -17.2878 C   0  0  0  0  0  0  0  0  0  0  0  0
   29.8817  -19.1288  -17.4099 C   0  0  0  0  0  0  0  0  0  0  0  0
   28.6861  -18.5380  -16.9894 C   0  0  0  0  0  0  0  0  0  0  0  0
   24.1734  -17.9330  -16.4559 C   0  0  0  0  0  0  0  0  0  0  0  0
   24.1961  -16.6662  -16.3525 O   0  0  0  0  0  0  0  0  0  0  0  0
   23.0770  -18.7021  -16.0092 N   0  0  0  0  0  0  0  0  0  0  0  0
   21.8407  -18.0650  -15.6119 C   0  0  1  0  0  0  0  0  0  0  0  0
   21.2627  -17.4393  -16.8606 C   0  0  0  0  0  0  0  0  0  0  0  0
   21.0135  -15.9732  -16.7570 C   0  0  0  0  0  0  0  0  0  0  0  0
   20.3891  -15.3933  -18.0057 C   0  0  0  0  0  0  0  0  0  0  0  0
   20.2808  -13.8818  -17.7912 C   0  0  0  0  0  0  0  0  0  0  0  0
   18.8927  -13.5109  -17.6527 N   0  0  0  0  0  0  0  0  0  0  0  0
   20.9381  -19.0639  -14.9955 C   0  0  0  0  0  0  0  0  0  0  0  0
   20.7394  -20.1529  -15.5774 O   0  0  0  0  0  0  0  0  0  0  0  0
   20.2734  -18.8627  -13.7678 N   0  0  0  0  0  0  0  0  0  0  0  0
   19.4019  -19.8445  -13.1382 C   0  0  1  0  0  0  0  0  0  0  0  0
   19.4871  -19.7950  -11.6499 C   0  0  0  0  0  0  0  0  0  0  0  0
   20.8282  -20.2286  -11.2088 C   0  0  0  0  0  0  0  0  0  0  0  0
   21.4335  -19.6602  -10.2695 O   0  0  0  0  0  0  0  0  0  0  0  0
   18.0508  -19.6757  -13.6598 C   0  0  0  0  0  0  0  0  0  0  0  0
   17.5148  -18.4193  -13.9383 O   0  0  0  0  0  0  0  0  0  0  0  0
   21.4991  -21.3019  -11.8174 O   0  0  0  0  0  0  0  0  0  0  0  0
   17.3412  -20.7185  -13.8643 O   0  0  0  0  0  0  0  0  0  0  0  0
  2  1  1  6
  2 10  1  0
  2  3  1  0
  3  4  1  0
  4  5  2  0
  4  9  1  0
  5  6  1  0
  6  7  2  0
  8  7  1  0
  9  8  2  0
 10 12  1  0
 11 10  2  0
 12 13  1  0
 13 14  1  6
 14 15  1  0
 15 16  1  0
 16 17  1  0
 17 18  1  0
 19 20  2  0
 19 13  1  0
 21 19  1  0
 22 26  1  0
 22 21  1  0
 22 23  1  1
 24 25  2  0
 24 23  1  0
 26 27  1  0
 28 24  1  0
 29 26  2  0
M  END
$$$$
