FKD.pdb
     RDKit          3D

 29 29  0  0  1  0  0  0  0  0999 V2000
   27.0804  -18.2067   -8.3397 N   0  0  0  0  0  0  0  0  0  0  0  0
   27.2588  -19.6179   -8.6230 C   0  0  1  0  0  0  0  0  0  0  0  0
   26.9207  -20.4822   -7.4511 C   0  0  0  0  0  0  0  0  0  0  0  0
   27.7779  -20.2809   -6.2828 C   0  0  0  0  0  0  0  0  0  0  0  0
   29.1063  -20.6600   -6.2240 C   0  0  0  0  0  0  0  0  0  0  0  0
   29.8949  -20.4568   -5.1054 C   0  0  0  0  0  0  0  0  0  0  0  0
   29.3309  -19.8470   -3.9941 C   0  0  0  0  0  0  0  0  0  0  0  0
   28.0095  -19.4565   -4.0188 C   0  0  0  0  0  0  0  0  0  0  0  0
   27.2421  -19.6776   -5.1667 C   0  0  0  0  0  0  0  0  0  0  0  0
   26.3473  -19.9999   -9.7338 C   0  0  0  0  0  0  0  0  0  0  0  0
   25.1825  -19.4918   -9.7017 O   0  0  0  0  0  0  0  0  0  0  0  0
   26.7548  -20.8764  -10.7628 N   0  0  0  0  0  0  0  0  0  0  0  0
   26.1103  -20.8461  -12.0573 C   0  0  1  0  0  0  0  0  0  0  0  0
   26.9698  -21.6782  -12.9814 C   0  0  0  0  0  0  0  0  0  0  0  0
   26.4412  -21.8025  -14.3697 C   0  0  0  0  0  0  0  0  0  0  0  0
   26.4146  -20.4841  -15.1090 C   0  0  0  0  0  0  0  0  0  0  0  0
   25.8921  -20.7719  -16.5183 C   0  0  0  0  0  0  0  0  0  0  0  0
   25.8504  -19.5458  -17.2788 N   0  0  0  0  0  0  0  0  0  0  0  0
   24.7258  -21.3578  -11.9395 C   0  0  0  0  0  0  0  0  0  0  0  0
   24.5040  -22.3729  -11.2434 O   0  0  0  0  0  0  0  0  0  0  0  0
   23.6167  -20.7618  -12.5752 N   0  0  0  0  0  0  0  0  0  0  0  0
   22.2567  -21.2764  -12.5012 C   0  0  1  0  0  0  0  0  0  0  0  0
   21.2982  -20.2526  -11.9933 C   0  0  0  0  0  0  0  0  0  0  0  0
   19.9791  -20.8730  -11.7568 C   0  0  0  0  0  0  0  0  0  0  0  0
   19.7844  -22.1007  -11.9207 O   0  0  0  0  0  0  0  0  0  0  0  0
   21.8947  -21.8341  -13.7989 C   0  0  0  0  0  0  0  0  0  0  0  0
   21.4345  -23.1423  -13.9417 O   0  0  0  0  0  0  0  0  0  0  0  0
   18.8700  -20.1217  -11.3352 O   0  0  0  0  0  0  0  0  0  0  0  0
   22.0070  -21.0934  -14.8339 O   0  0  0  0  0  0  0  0  0  0  0  0
  2  1  1  1
  2 10  1  0
  2  3  1  0
  3  4  1  0
  4  5  2  0
  4  9  1  0
  5  6  1  0
  6  7  2  0
  8  7  1  0
  9  8  2  0
 10 12  1  0
 11 10  2  0
 12 13  1  0
 13 14  1  6
 14 15  1  0
 15 16  1  0
 16 17  1  0
 17 18  1  0
 19 20  2  0
 19 13  1  0
 21 19  1  0
 22 26  1  0
 22 21  1  0
 22 23  1  6
 24 25  2  0
 24 23  1  0
 26 27  1  0
 28 24  1  0
 29 26  2  0
M  END
$$$$
