FKD.pdb
     RDKit          3D

 29 29  0  0  1  0  0  0  0  0999 V2000
   20.5592  -13.6027  -16.3895 N   0  0  0  0  0  0  0  0  0  0  0  0
   20.6770  -12.4814  -17.3018 C   0  0  1  0  0  0  0  0  0  0  0  0
   19.3468  -11.9253  -17.6969 C   0  0  0  0  0  0  0  0  0  0  0  0
   18.5626  -12.7957  -18.5730 C   0  0  0  0  0  0  0  0  0  0  0  0
   19.0596  -13.3910  -19.7177 C   0  0  0  0  0  0  0  0  0  0  0  0
   18.2952  -14.2111  -20.5286 C   0  0  0  0  0  0  0  0  0  0  0  0
   16.9733  -14.4478  -20.1803 C   0  0  0  0  0  0  0  0  0  0  0  0
   16.4457  -13.8702  -19.0457 C   0  0  0  0  0  0  0  0  0  0  0  0
   17.2476  -13.0466  -18.2494 C   0  0  0  0  0  0  0  0  0  0  0  0
   21.4295  -11.3927  -16.6242 C   0  0  0  0  0  0  0  0  0  0  0  0
   21.2767  -11.3065  -15.3652 O   0  0  0  0  0  0  0  0  0  0  0  0
   22.2644  -10.5078  -17.3404 N   0  0  0  0  0  0  0  0  0  0  0  0
   23.0841   -9.5399  -16.6452 C   0  0  1  0  0  0  0  0  0  0  0  0
   24.5053   -9.7778  -17.1019 C   0  0  0  0  0  0  0  0  0  0  0  0
   25.1905  -10.9123  -16.4196 C   0  0  0  0  0  0  0  0  0  0  0  0
   26.6244  -11.0869  -16.8654 C   0  0  0  0  0  0  0  0  0  0  0  0
   27.2002  -12.2611  -16.0705 C   0  0  0  0  0  0  0  0  0  0  0  0
   28.5283  -12.5640  -16.5481 N   0  0  0  0  0  0  0  0  0  0  0  0
   22.6034   -8.1712  -16.9420 C   0  0  0  0  0  0  0  0  0  0  0  0
   22.4082   -7.8337  -18.1304 O   0  0  0  0  0  0  0  0  0  0  0  0
   22.3457   -7.2022  -15.9501 N   0  0  0  0  0  0  0  0  0  0  0  0
   21.8951   -5.8459  -16.2281 C   0  0  1  0  0  0  0  0  0  0  0  0
   21.1404   -5.2613  -15.0820 C   0  0  0  0  0  0  0  0  0  0  0  0
   21.9256   -5.4025  -13.8392 C   0  0  0  0  0  0  0  0  0  0  0  0
   21.7734   -6.3772  -13.0654 O   0  0  0  0  0  0  0  0  0  0  0  0
   23.0400   -5.0484  -16.6514 C   0  0  0  0  0  0  0  0  0  0  0  0
   24.3450   -5.5351  -16.5937 O   0  0  0  0  0  0  0  0  0  0  0  0
   22.8861   -4.4523  -13.4556 O   0  0  0  0  0  0  0  0  0  0  0  0
   22.8317   -3.8654  -17.0871 O   0  0  0  0  0  0  0  0  0  0  0  0
  2  1  1  1
  2 10  1  0
  2  3  1  0
  3  4  1  0
  4  5  2  0
  4  9  1  0
  5  6  1  0
  6  7  2  0
  8  7  1  0
  9  8  2  0
 10 12  1  0
 11 10  2  0
 12 13  1  0
 13 14  1  6
 14 15  1  0
 15 16  1  0
 16 17  1  0
 17 18  1  0
 19 20  2  0
 19 13  1  0
 21 19  1  0
 22 26  1  0
 22 21  1  0
 22 23  1  1
 24 25  2  0
 24 23  1  0
 26 27  1  0
 28 24  1  0
 29 26  2  0
M  END
$$$$
