FKD.pdb
     RDKit          3D

 29 29  0  0  1  0  0  0  0  0999 V2000
   17.5095  -31.3989   -4.0050 N   0  0  0  0  0  0  0  0  0  0  0  0
   18.8162  -30.8443   -4.3019 C   0  0  1  0  0  0  0  0  0  0  0  0
   19.3074  -29.9325   -3.2238 C   0  0  0  0  0  0  0  0  0  0  0  0
   18.5368  -28.6977   -3.0774 C   0  0  0  0  0  0  0  0  0  0  0  0
   17.5839  -28.4925   -2.0968 C   0  0  0  0  0  0  0  0  0  0  0  0
   16.8694  -27.3133   -1.9808 C   0  0  0  0  0  0  0  0  0  0  0  0
   17.1180  -26.2916   -2.8859 C   0  0  0  0  0  0  0  0  0  0  0  0
   18.0613  -26.4627   -3.8759 C   0  0  0  0  0  0  0  0  0  0  0  0
   18.7647  -27.6681   -3.9633 C   0  0  0  0  0  0  0  0  0  0  0  0
   19.7922  -31.9598   -4.4184 C   0  0  0  0  0  0  0  0  0  0  0  0
   19.5486  -32.9919   -3.7175 O   0  0  0  0  0  0  0  0  0  0  0  0
   20.9229  -31.8745   -5.2595 N   0  0  0  0  0  0  0  0  0  0  0  0
   21.7810  -33.0211   -5.4623 C   0  0  1  0  0  0  0  0  0  0  0  0
   22.1146  -33.0490   -6.9363 C   0  0  0  0  0  0  0  0  0  0  0  0
   21.0557  -33.6495   -7.7969 C   0  0  0  0  0  0  0  0  0  0  0  0
   21.3784  -33.5649   -9.2714 C   0  0  0  0  0  0  0  0  0  0  0  0
   20.1687  -34.1204  -10.0266 C   0  0  0  0  0  0  0  0  0  0  0  0
   20.4676  -34.1868  -11.4372 N   0  0  0  0  0  0  0  0  0  0  0  0
   22.9800  -32.9079   -4.6008 C   0  0  0  0  0  0  0  0  0  0  0  0
   23.4808  -31.7812   -4.3912 O   0  0  0  0  0  0  0  0  0  0  0  0
   23.6077  -34.0123   -3.9878 N   0  0  0  0  0  0  0  0  0  0  0  0
   24.7510  -33.9108   -3.0921 C   0  0  1  0  0  0  0  0  0  0  0  0
   24.9833  -35.1755   -2.3363 C   0  0  0  0  0  0  0  0  0  0  0  0
   24.3979  -35.0678   -0.9847 C   0  0  0  0  0  0  0  0  0  0  0  0
   23.6446  -34.1190   -0.6617 O   0  0  0  0  0  0  0  0  0  0  0  0
   25.9070  -33.4569   -3.8561 C   0  0  0  0  0  0  0  0  0  0  0  0
   26.9266  -32.7009   -3.2797 O   0  0  0  0  0  0  0  0  0  0  0  0
   24.6530  -36.0225    0.0133 O   0  0  0  0  0  0  0  0  0  0  0  0
   25.9794  -33.7653   -5.0939 O   0  0  0  0  0  0  0  0  0  0  0  0
  2  1  1  1
  2 10  1  0
  2  3  1  0
  3  4  1  0
  4  5  2  0
  4  9  1  0
  5  6  1  0
  6  7  2  0
  8  7  1  0
  9  8  2  0
 10 12  1  0
 11 10  2  0
 12 13  1  0
 13 14  1  6
 14 15  1  0
 15 16  1  0
 16 17  1  0
 17 18  1  0
 19 20  2  0
 19 13  1  0
 21 19  1  0
 22 26  1  0
 22 21  1  0
 22 23  1  6
 24 25  2  0
 24 23  1  0
 26 27  1  0
 28 24  1  0
 29 26  2  0
M  END
$$$$
