FKD.pdb
     RDKit          3D

 29 29  0  0  1  0  0  0  0  0999 V2000
   21.8413  -18.9713  -18.3735 N   0  0  0  0  0  0  0  0  0  0  0  0
   22.5650  -18.3040  -17.3085 C   0  0  1  0  0  0  0  0  0  0  0  0
   21.6656  -17.5044  -16.4216 C   0  0  0  0  0  0  0  0  0  0  0  0
   21.0574  -16.3408  -17.0668 C   0  0  0  0  0  0  0  0  0  0  0  0
   19.7567  -16.3081  -17.5349 C   0  0  0  0  0  0  0  0  0  0  0  0
   19.2061  -15.1930  -18.1413 C   0  0  0  0  0  0  0  0  0  0  0  0
   19.9905  -14.0579  -18.2870 C   0  0  0  0  0  0  0  0  0  0  0  0
   21.2912  -14.0563  -17.8317 C   0  0  0  0  0  0  0  0  0  0  0  0
   21.8150  -15.2014  -17.2236 C   0  0  0  0  0  0  0  0  0  0  0  0
   23.2225  -19.3337  -16.4611 C   0  0  0  0  0  0  0  0  0  0  0  0
   22.5232  -20.3576  -16.1809 O   0  0  0  0  0  0  0  0  0  0  0  0
   24.5467  -19.1802  -15.9964 N   0  0  0  0  0  0  0  0  0  0  0  0
   25.1905  -20.2312  -15.2394 C   0  0  1  0  0  0  0  0  0  0  0  0
   26.6425  -20.2316  -15.6597 C   0  0  0  0  0  0  0  0  0  0  0  0
   26.9192  -20.9770  -16.9207 C   0  0  0  0  0  0  0  0  0  0  0  0
   28.3779  -20.9420  -17.3163 C   0  0  0  0  0  0  0  0  0  0  0  0
   28.4982  -21.6867  -18.6480 C   0  0  0  0  0  0  0  0  0  0  0  0
   29.8806  -21.7177  -19.0619 N   0  0  0  0  0  0  0  0  0  0  0  0
   25.0088  -19.9879  -13.7902 C   0  0  0  0  0  0  0  0  0  0  0  0
   25.3068  -18.8708  -13.3134 O   0  0  0  0  0  0  0  0  0  0  0  0
   24.5105  -20.9554  -12.8928 N   0  0  0  0  0  0  0  0  0  0  0  0
   24.2906  -20.7189  -11.4731 C   0  0  1  0  0  0  0  0  0  0  0  0
   22.8638  -20.9190  -11.0872 C   0  0  0  0  0  0  0  0  0  0  0  0
   22.7001  -20.6987   -9.6361 C   0  0  0  0  0  0  0  0  0  0  0  0
   23.1886  -19.6993   -9.0577 O   0  0  0  0  0  0  0  0  0  0  0  0
   25.2299  -21.5328  -10.7107 C   0  0  0  0  0  0  0  0  0  0  0  0
   25.6329  -21.1886   -9.4213 O   0  0  0  0  0  0  0  0  0  0  0  0
   21.9882  -21.5967   -8.8243 O   0  0  0  0  0  0  0  0  0  0  0  0
   25.6950  -22.5938  -11.2498 O   0  0  0  0  0  0  0  0  0  0  0  0
  2  1  1  6
  2 10  1  0
  2  3  1  0
  3  4  1  0
  4  5  2  0
  4  9  1  0
  5  6  1  0
  6  7  2  0
  8  7  1  0
  9  8  2  0
 10 12  1  0
 11 10  2  0
 12 13  1  0
 13 14  1  1
 14 15  1  0
 15 16  1  0
 16 17  1  0
 17 18  1  0
 19 20  2  0
 19 13  1  0
 21 19  1  0
 22 26  1  0
 22 21  1  0
 22 23  1  1
 24 25  2  0
 24 23  1  0
 26 27  1  0
 28 24  1  0
 29 26  2  0
M  END
$$$$
