FKD.pdb
     RDKit          3D

 29 29  0  0  1  0  0  0  0  0999 V2000
   27.3550  -21.5215   -8.6536 N   0  0  0  0  0  0  0  0  0  0  0  0
   26.3614  -20.4755   -8.5056 C   0  0  1  0  0  0  0  0  0  0  0  0
   26.9358  -19.2200   -7.9324 C   0  0  0  0  0  0  0  0  0  0  0  0
   27.6205  -19.3968   -6.6518 C   0  0  0  0  0  0  0  0  0  0  0  0
   27.0575  -20.0203   -5.5536 C   0  0  0  0  0  0  0  0  0  0  0  0
   27.7285  -20.1747   -4.3535 C   0  0  0  0  0  0  0  0  0  0  0  0
   29.0216  -19.6838   -4.2449 C   0  0  0  0  0  0  0  0  0  0  0  0
   29.6130  -19.0568   -5.3203 C   0  0  0  0  0  0  0  0  0  0  0  0
   28.9051  -18.9184   -6.5182 C   0  0  0  0  0  0  0  0  0  0  0  0
   25.8170  -20.1417   -9.8483 C   0  0  0  0  0  0  0  0  0  0  0  0
   24.9886  -19.1785   -9.8927 O   0  0  0  0  0  0  0  0  0  0  0  0
   26.1999  -20.8551  -11.0049 N   0  0  0  0  0  0  0  0  0  0  0  0
   25.7585  -20.4300  -12.3150 C   0  0  1  0  0  0  0  0  0  0  0  0
   26.8443  -20.8379  -13.2843 C   0  0  0  0  0  0  0  0  0  0  0  0
   26.5515  -20.5148  -14.7099 C   0  0  0  0  0  0  0  0  0  0  0  0
   27.6468  -20.9622  -15.6510 C   0  0  0  0  0  0  0  0  0  0  0  0
   27.2421  -20.5094  -17.0558 C   0  0  0  0  0  0  0  0  0  0  0  0
   28.1788  -21.0324  -18.0214 N   0  0  0  0  0  0  0  0  0  0  0  0
   24.4470  -21.0436  -12.6251 C   0  0  0  0  0  0  0  0  0  0  0  0
   24.2932  -22.2748  -12.4683 O   0  0  0  0  0  0  0  0  0  0  0  0
   23.3357  -20.3139  -13.0962 N   0  0  0  0  0  0  0  0  0  0  0  0
   22.0736  -20.9156  -13.5020 C   0  0  1  0  0  0  0  0  0  0  0  0
   20.9193  -20.3659  -12.7337 C   0  0  0  0  0  0  0  0  0  0  0  0
   20.4244  -21.3773  -11.7782 C   0  0  0  0  0  0  0  0  0  0  0  0
   20.9217  -22.5263  -11.7115 O   0  0  0  0  0  0  0  0  0  0  0  0
   21.9365  -20.7888  -14.9481 C   0  0  0  0  0  0  0  0  0  0  0  0
   22.3025  -19.6286  -15.6288 O   0  0  0  0  0  0  0  0  0  0  0  0
   19.3693  -21.1075  -10.8914 O   0  0  0  0  0  0  0  0  0  0  0  0
   21.4636  -21.7774  -15.6050 O   0  0  0  0  0  0  0  0  0  0  0  0
  2  1  1  6
  2 10  1  0
  2  3  1  0
  3  4  1  0
  4  5  2  0
  4  9  1  0
  5  6  1  0
  6  7  2  0
  8  7  1  0
  9  8  2  0
 10 12  1  0
 11 10  2  0
 12 13  1  0
 13 14  1  6
 14 15  1  0
 15 16  1  0
 16 17  1  0
 17 18  1  0
 19 20  2  0
 19 13  1  0
 21 19  1  0
 22 26  1  0
 22 21  1  0
 22 23  1  1
 24 25  2  0
 24 23  1  0
 26 27  1  0
 28 24  1  0
 29 26  2  0
M  END
$$$$
