FKD.pdb
     RDKit          3D

 29 29  0  0  1  0  0  0  0  0999 V2000
   23.7983  -10.2380  -18.2047 N   0  0  0  0  0  0  0  0  0  0  0  0
   23.2473   -9.7421  -16.9582 C   0  0  1  0  0  0  0  0  0  0  0  0
   24.1811   -8.8131  -16.2513 C   0  0  0  0  0  0  0  0  0  0  0  0
   25.5066   -9.3725  -15.9864 C   0  0  0  0  0  0  0  0  0  0  0  0
   26.6606   -8.9646  -16.6296 C   0  0  0  0  0  0  0  0  0  0  0  0
   27.9027   -9.5109  -16.3590 C   0  0  0  0  0  0  0  0  0  0  0  0
   27.9968  -10.5108  -15.4017 C   0  0  0  0  0  0  0  0  0  0  0  0
   26.8662  -10.9411  -14.7415 C   0  0  0  0  0  0  0  0  0  0  0  0
   25.6270  -10.3663  -15.0405 C   0  0  0  0  0  0  0  0  0  0  0  0
   22.0050   -8.9813  -17.2555 C   0  0  0  0  0  0  0  0  0  0  0  0
   21.9940   -8.3330  -18.3489 O   0  0  0  0  0  0  0  0  0  0  0  0
   20.9034   -8.9808  -16.3726 N   0  0  0  0  0  0  0  0  0  0  0  0
   19.6481   -8.3744  -16.7580 C   0  0  1  0  0  0  0  0  0  0  0  0
   18.5727   -9.3944  -16.4615 C   0  0  0  0  0  0  0  0  0  0  0  0
   18.5831  -10.5813  -17.3636 C   0  0  0  0  0  0  0  0  0  0  0  0
   17.5366  -11.6084  -16.9959 C   0  0  0  0  0  0  0  0  0  0  0  0
   17.6106  -12.7184  -18.0469 C   0  0  0  0  0  0  0  0  0  0  0  0
   16.5323  -13.6551  -17.8383 N   0  0  0  0  0  0  0  0  0  0  0  0
   19.4584   -7.1042  -16.0208 C   0  0  0  0  0  0  0  0  0  0  0  0
   19.7698   -7.0445  -14.8111 O   0  0  0  0  0  0  0  0  0  0  0  0
   18.9378   -5.9318  -16.6072 N   0  0  0  0  0  0  0  0  0  0  0  0
   18.7508   -4.6747  -15.8968 C   0  0  1  0  0  0  0  0  0  0  0  0
   18.7515   -3.5043  -16.8214 C   0  0  0  0  0  0  0  0  0  0  0  0
   20.1273   -3.2289  -17.2821 C   0  0  0  0  0  0  0  0  0  0  0  0
   21.1084   -3.2680  -16.5023 O   0  0  0  0  0  0  0  0  0  0  0  0
   17.5534   -4.7760  -15.0709 C   0  0  0  0  0  0  0  0  0  0  0  0
   17.3043   -3.9003  -14.0153 O   0  0  0  0  0  0  0  0  0  0  0  0
   20.4125   -2.9079  -18.6193 O   0  0  0  0  0  0  0  0  0  0  0  0
   16.7108   -5.7012  -15.3291 O   0  0  0  0  0  0  0  0  0  0  0  0
  2  1  1  6
  2 10  1  0
  2  3  1  0
  3  4  1  0
  4  5  2  0
  4  9  1  0
  5  6  1  0
  6  7  2  0
  8  7  1  0
  9  8  2  0
 10 12  1  0
 11 10  2  0
 12 13  1  0
 13 14  1  1
 14 15  1  0
 15 16  1  0
 16 17  1  0
 17 18  1  0
 19 20  2  0
 19 13  1  0
 21 19  1  0
 22 26  1  0
 22 21  1  0
 22 23  1  6
 24 25  2  0
 24 23  1  0
 26 27  1  0
 28 24  1  0
 29 26  2  0
M  END
$$$$
