NAC.pdb
     RDKit          3D

 20 19  0  0  1  0  0  0  0  0999 V2000
   10.6219  -18.4594   14.9122 N   0  0  0  0  0  0  0  0  0  0  0  0
    9.3151  -18.2162   15.4215 C   0  0  0  0  0  0  0  0  0  0  0  0
    8.4086  -19.0609   15.3495 O   0  0  0  0  0  0  0  0  0  0  0  0
    9.0099  -16.9110   16.0644 C   0  0  0  0  0  0  0  0  0  0  0  0
    8.9514  -17.0661   17.5876 C   0  0  2  0  0  0  0  0  0  0  0  0
    7.6198  -17.4388   18.0025 N   0  0  0  0  0  0  0  0  0  0  0  0
    9.2727  -15.7407   18.1544 C   0  0  0  0  0  0  0  0  0  0  0  0
   10.4619  -15.3465   18.1426 O   0  0  0  0  0  0  0  0  0  0  0  0
    7.5386  -12.6591   19.2582 C   0  0  0  0  0  0  0  0  0  0  0  0
    8.6837  -13.6415   19.3178 C   0  0  2  0  0  0  0  0  0  0  0  0
    8.2902  -14.8836   18.7171 N   0  0  0  0  0  0  0  0  0  0  0  0
    9.1756  -13.8457   20.7006 C   0  0  0  0  0  0  0  0  0  0  0  0
    9.8136  -12.8999   21.2509 O   0  0  0  0  0  0  0  0  0  0  0  0
    8.9788  -15.0247   21.4420 N   0  0  0  0  0  0  0  0  0  0  0  0
    9.5202  -15.1400   22.7607 C   0  0  1  0  0  0  0  0  0  0  0  0
    8.4530  -15.7462   23.6476 C   0  0  0  0  0  0  0  0  0  0  0  0
    7.0607  -14.5743   23.6707 S   0  0  0  0  0  0  0  0  0  0  0  0
   10.7586  -15.9361   22.8250 C   0  0  0  0  0  0  0  0  0  0  0  0
   11.2632  -16.5646   21.8604 O   0  0  0  0  0  0  0  0  0  0  0  0
   11.4230  -16.0003   24.0419 O   0  0  0  0  0  0  0  0  0  0  0  0
  2  4  1  0
  2  1  1  0
  3  2  2  0
  5  6  1  6
  5  7  1  0
  5  4  1  0
  7 11  1  0
  8  7  2  0
 10  9  1  1
 11 10  1  0
 12 14  1  0
 12 10  1  0
 13 12  2  0
 15 14  1  0
 15 18  1  0
 15 16  1  1
 17 16  1  0
 18 20  1  0
 19 18  2  0
M  END
$$$$
