NAC.pdb
     RDKit          3D

 20 19  0  0  1  0  0  0  0  0999 V2000
    8.7405  -20.7033   20.5954 N   0  0  0  0  0  0  0  0  0  0  0  0
    7.7813  -19.7004   20.2787 C   0  0  0  0  0  0  0  0  0  0  0  0
    6.7299  -19.9581   19.6715 O   0  0  0  0  0  0  0  0  0  0  0  0
    8.0327  -18.2919   20.6819 C   0  0  0  0  0  0  0  0  0  0  0  0
    7.8054  -17.3478   19.4968 C   0  0  2  0  0  0  0  0  0  0  0  0
    8.4650  -17.8562   18.3176 N   0  0  0  0  0  0  0  0  0  0  0  0
    8.4213  -16.0576   19.8674 C   0  0  0  0  0  0  0  0  0  0  0  0
    9.6464  -16.0211   20.1276 O   0  0  0  0  0  0  0  0  0  0  0  0
    7.4784  -12.4457   20.0117 C   0  0  0  0  0  0  0  0  0  0  0  0
    8.3388  -13.6371   20.3585 C   0  0  2  0  0  0  0  0  0  0  0  0
    7.6857  -14.8453   19.9438 N   0  0  0  0  0  0  0  0  0  0  0  0
    8.6827  -13.6797   21.7993 C   0  0  0  0  0  0  0  0  0  0  0  0
    9.4700  -12.7954   22.2494 O   0  0  0  0  0  0  0  0  0  0  0  0
    8.1898  -14.6410   22.7000 N   0  0  0  0  0  0  0  0  0  0  0  0
    8.5762  -14.5973   24.0762 C   0  0  1  0  0  0  0  0  0  0  0  0
    7.3197  -14.7106   24.9135 C   0  0  0  0  0  0  0  0  0  0  0  0
    6.5442  -13.0642   24.9231 S   0  0  0  0  0  0  0  0  0  0  0  0
    9.5440  -15.6427   24.4531 C   0  0  0  0  0  0  0  0  0  0  0  0
   10.0142  -16.5066   23.6704 O   0  0  0  0  0  0  0  0  0  0  0  0
    9.9726  -15.6810   25.7727 O   0  0  0  0  0  0  0  0  0  0  0  0
  2  4  1  0
  2  1  1  0
  3  2  2  0
  5  6  1  6
  5  7  1  0
  5  4  1  0
  7 11  1  0
  8  7  2  0
 10  9  1  1
 11 10  1  0
 12 14  1  0
 12 10  1  0
 13 12  2  0
 15 14  1  0
 15 18  1  0
 15 16  1  1
 17 16  1  0
 18 20  1  0
 19 18  2  0
M  END
$$$$
