NAC.pdb
     RDKit          3D

 20 19  0  0  1  0  0  0  0  0999 V2000
    6.5871  -20.6586   20.1368 N   0  0  0  0  0  0  0  0  0  0  0  0
    7.0203  -19.3639   20.5397 C   0  0  0  0  0  0  0  0  0  0  0  0
    6.6435  -18.8397   21.5998 O   0  0  0  0  0  0  0  0  0  0  0  0
    7.9558  -18.6009   19.6722 C   0  0  0  0  0  0  0  0  0  0  0  0
    7.2166  -17.4645   18.9584 C   0  0  2  0  0  0  0  0  0  0  0  0
    7.1906  -17.7003   17.5344 N   0  0  0  0  0  0  0  0  0  0  0  0
    7.9891  -16.2337   19.2227 C   0  0  0  0  0  0  0  0  0  0  0  0
    9.2140  -16.3260   19.4694 O   0  0  0  0  0  0  0  0  0  0  0  0
    7.5265  -12.5441   18.9759 C   0  0  0  0  0  0  0  0  0  0  0  0
    8.2147  -13.7871   19.4872 C   0  0  2  0  0  0  0  0  0  0  0  0
    7.4056  -14.9391   19.2107 N   0  0  0  0  0  0  0  0  0  0  0  0
    8.5414  -13.6938   20.9296 C   0  0  0  0  0  0  0  0  0  0  0  0
    9.3165  -12.7651   21.3052 O   0  0  0  0  0  0  0  0  0  0  0  0
    8.0447  -14.5723   21.9094 N   0  0  0  0  0  0  0  0  0  0  0  0
    8.4146  -14.3992   23.2799 C   0  0  1  0  0  0  0  0  0  0  0  0
    7.1457  -14.4067   24.1062 C   0  0  0  0  0  0  0  0  0  0  0  0
    7.6532  -14.2890   25.8500 S   0  0  0  0  0  0  0  0  0  0  0  0
    9.3576  -15.4189   23.7723 C   0  0  0  0  0  0  0  0  0  0  0  0
    9.9000  -15.4123   24.9062 O   0  0  0  0  0  0  0  0  0  0  0  0
    9.6746  -16.4696   22.9227 O   0  0  0  0  0  0  0  0  0  0  0  0
  2  4  1  0
  2  1  1  0
  3  2  2  0
  5  6  1  6
  5  7  1  0
  5  4  1  0
  7 11  1  0
  8  7  2  0
 10  9  1  1
 11 10  1  0
 12 14  1  0
 12 10  1  0
 13 12  2  0
 15 14  1  0
 15 18  1  0
 15 16  1  1
 17 16  1  0
 18 20  1  0
 19 18  2  0
M  END
$$$$
