NAC.pdb
     RDKit          3D

 20 19  0  0  1  0  0  0  0  0999 V2000
    7.1834  -17.2942   14.0407 N   0  0  0  0  0  0  0  0  0  0  0  0
    7.9763  -17.5530   15.1942 C   0  0  0  0  0  0  0  0  0  0  0  0
    8.2080  -18.7051   15.5935 O   0  0  0  0  0  0  0  0  0  0  0  0
    8.5535  -16.4154   15.9574 C   0  0  0  0  0  0  0  0  0  0  0  0
    8.6091  -16.7477   17.4520 C   0  0  2  0  0  0  0  0  0  0  0  0
    7.3393  -17.2716   17.8965 N   0  0  0  0  0  0  0  0  0  0  0  0
    8.8698  -15.4742   18.1531 C   0  0  0  0  0  0  0  0  0  0  0  0
   10.0431  -15.0376   18.2043 O   0  0  0  0  0  0  0  0  0  0  0  0
    6.9346  -12.7058   19.7490 C   0  0  0  0  0  0  0  0  0  0  0  0
    8.1811  -13.5215   19.5019 C   0  0  2  0  0  0  0  0  0  0  0  0
    7.8460  -14.7137   18.7775 N   0  0  0  0  0  0  0  0  0  0  0  0
    8.9004  -13.8403   20.7576 C   0  0  0  0  0  0  0  0  0  0  0  0
    9.1986  -12.8832   21.5319 O   0  0  0  0  0  0  0  0  0  0  0  0
    9.2736  -15.1399   21.1449 N   0  0  0  0  0  0  0  0  0  0  0  0
   10.0381  -15.3401   22.3368 C   0  0  1  0  0  0  0  0  0  0  0  0
    9.0695  -15.4415   23.4963 C   0  0  0  0  0  0  0  0  0  0  0  0
   10.0593  -15.8159   24.9770 S   0  0  0  0  0  0  0  0  0  0  0  0
   10.9114  -16.5260   22.2882 C   0  0  0  0  0  0  0  0  0  0  0  0
   10.8535  -17.4293   21.4161 O   0  0  0  0  0  0  0  0  0  0  0  0
   11.8737  -16.6609   23.2793 O   0  0  0  0  0  0  0  0  0  0  0  0
  2  4  1  0
  2  1  1  0
  3  2  2  0
  5  6  1  1
  5  7  1  0
  5  4  1  0
  7 11  1  0
  8  7  2  0
 10  9  1  1
 11 10  1  0
 12 14  1  0
 12 10  1  0
 13 12  2  0
 15 14  1  0
 15 18  1  0
 15 16  1  1
 17 16  1  0
 18 20  1  0
 19 18  2  0
M  END
$$$$
