NAC.pdb
     RDKit          3D

 20 19  0  0  1  0  0  0  0  0999 V2000
    8.0140  -12.2079   18.0440 N   0  0  0  0  0  0  0  0  0  0  0  0
    8.1458  -13.5679   18.4431 C   0  0  0  0  0  0  0  0  0  0  0  0
    8.5552  -14.4482   17.6698 O   0  0  0  0  0  0  0  0  0  0  0  0
    7.7851  -13.9633   19.8300 C   0  0  0  0  0  0  0  0  0  0  0  0
    7.9395  -15.4767   20.0117 C   0  0  2  0  0  0  0  0  0  0  0  0
    6.8694  -16.1740   19.3386 N   0  0  0  0  0  0  0  0  0  0  0  0
    7.8372  -15.7352   21.4622 C   0  0  0  0  0  0  0  0  0  0  0  0
    6.7551  -15.4971   22.0474 O   0  0  0  0  0  0  0  0  0  0  0  0
    9.8367  -17.4170   24.1261 C   0  0  0  0  0  0  0  0  0  0  0  0
    8.7311  -16.5162   23.6297 C   0  0  2  0  0  0  0  0  0  0  0  0
    8.9155  -16.2450   22.2329 N   0  0  0  0  0  0  0  0  0  0  0  0
    8.6363  -15.2616   24.4125 C   0  0  0  0  0  0  0  0  0  0  0  0
    9.3650  -14.2861   24.0636 O   0  0  0  0  0  0  0  0  0  0  0  0
    7.7872  -15.0849   25.5199 N   0  0  0  0  0  0  0  0  0  0  0  0
    7.7927  -13.8471   26.2360 C   0  0  1  0  0  0  0  0  0  0  0  0
    6.3749  -13.3156   26.2524 C   0  0  0  0  0  0  0  0  0  0  0  0
    6.3923  -11.8025   27.2635 S   0  0  0  0  0  0  0  0  0  0  0  0
    8.3182  -13.9589   27.6082 C   0  0  0  0  0  0  0  0  0  0  0  0
    8.5816  -12.9876   28.3613 O   0  0  0  0  0  0  0  0  0  0  0  0
    8.5414  -15.2325   28.1128 O   0  0  0  0  0  0  0  0  0  0  0  0
  2  4  1  0
  2  1  1  0
  3  2  2  0
  5  6  1  6
  5  7  1  0
  5  4  1  0
  7 11  1  0
  8  7  2  0
 10  9  1  1
 11 10  1  0
 12 14  1  0
 12 10  1  0
 13 12  2  0
 15 14  1  0
 15 18  1  0
 15 16  1  1
 17 16  1  0
 18 20  1  0
 19 18  2  0
M  END
$$$$
