NAC.pdb
     RDKit          3D

 20 19  0  0  1  0  0  0  0  0999 V2000
    8.2105  -21.3443   22.8699 N   0  0  0  0  0  0  0  0  0  0  0  0
    7.5546  -20.2691   22.2067 C   0  0  0  0  0  0  0  0  0  0  0  0
    6.4289  -20.3927   21.6985 O   0  0  0  0  0  0  0  0  0  0  0  0
    8.2274  -18.9470   22.1110 C   0  0  0  0  0  0  0  0  0  0  0  0
    7.5983  -17.9546   23.0943 C   0  0  2  0  0  0  0  0  0  0  0  0
    6.1626  -17.9409   22.9428 N   0  0  0  0  0  0  0  0  0  0  0  0
    8.1269  -16.6224   22.7378 C   0  0  0  0  0  0  0  0  0  0  0  0
    9.3666  -16.4640   22.6490 O   0  0  0  0  0  0  0  0  0  0  0  0
    6.9922  -13.4541   21.2544 C   0  0  0  0  0  0  0  0  0  0  0  0
    7.8745  -14.2215   22.2098 C   0  0  2  0  0  0  0  0  0  0  0  0
    7.2907  -15.5020   22.4884 N   0  0  0  0  0  0  0  0  0  0  0  0
    8.1373  -13.4678   23.4583 C   0  0  0  0  0  0  0  0  0  0  0  0
    8.8389  -12.4160   23.3819 O   0  0  0  0  0  0  0  0  0  0  0  0
    7.6565  -13.8468   24.7247 N   0  0  0  0  0  0  0  0  0  0  0  0
    8.1048  -13.1595   25.8959 C   0  0  1  0  0  0  0  0  0  0  0  0
    7.0431  -12.1482   26.2739 C   0  0  0  0  0  0  0  0  0  0  0  0
    5.5225  -13.0866   26.6194 S   0  0  0  0  0  0  0  0  0  0  0  0
    8.3955  -14.0521   27.0317 C   0  0  0  0  0  0  0  0  0  0  0  0
    8.8047  -13.6754   28.1590 O   0  0  0  0  0  0  0  0  0  0  0  0
    8.2045  -15.4145   26.8482 O   0  0  0  0  0  0  0  0  0  0  0  0
  2  4  1  0
  2  1  1  0
  3  2  2  0
  5  6  1  6
  5  7  1  0
  5  4  1  0
  7 11  1  0
  8  7  2  0
 10  9  1  6
 11 10  1  0
 12 14  1  0
 12 10  1  0
 13 12  2  0
 15 14  1  0
 15 18  1  0
 15 16  1  1
 17 16  1  0
 18 20  1  0
 19 18  2  0
M  END
$$$$
