NAC.pdb
     RDKit          3D

 20 19  0  0  1  0  0  0  0  0999 V2000
   10.1273  -20.2493   20.3859 N   0  0  0  0  0  0  0  0  0  0  0  0
   10.5523  -19.3055   19.4088 C   0  0  0  0  0  0  0  0  0  0  0  0
   11.2103  -19.6373   18.4100 O   0  0  0  0  0  0  0  0  0  0  0  0
   10.2042  -17.8700   19.5758 C   0  0  0  0  0  0  0  0  0  0  0  0
    9.5462  -17.6346   20.9393 C   0  0  2  0  0  0  0  0  0  0  0  0
    8.2606  -18.2890   20.9950 N   0  0  0  0  0  0  0  0  0  0  0  0
    9.3434  -16.1766   21.0583 C   0  0  0  0  0  0  0  0  0  0  0  0
   10.3426  -15.4208   21.0471 O   0  0  0  0  0  0  0  0  0  0  0  0
    6.5087  -13.7397   21.1909 C   0  0  0  0  0  0  0  0  0  0  0  0
    7.9412  -14.1702   21.3975 C   0  0  2  0  0  0  0  0  0  0  0  0
    8.0590  -15.5843   21.1860 N   0  0  0  0  0  0  0  0  0  0  0  0
    8.4563  -13.7817   22.7315 C   0  0  0  0  0  0  0  0  0  0  0  0
    8.6650  -12.5524   22.9539 O   0  0  0  0  0  0  0  0  0  0  0  0
    8.7286  -14.6927   23.7680 N   0  0  0  0  0  0  0  0  0  0  0  0
    9.0159  -14.2143   25.0847 C   0  0  1  0  0  0  0  0  0  0  0  0
    7.7889  -13.4849   25.5900 C   0  0  0  0  0  0  0  0  0  0  0  0
    8.2587  -12.6897   27.1582 S   0  0  0  0  0  0  0  0  0  0  0  0
    9.4106  -15.2757   26.0276 C   0  0  0  0  0  0  0  0  0  0  0  0
    9.2266  -16.5060   25.8472 O   0  0  0  0  0  0  0  0  0  0  0  0
   10.0339  -14.8931   27.2072 O   0  0  0  0  0  0  0  0  0  0  0  0
  2  4  1  0
  2  1  1  0
  3  2  2  0
  5  6  1  6
  5  7  1  0
  5  4  1  0
  7 11  1  0
  8  7  2  0
 10  9  1  1
 11 10  1  0
 12 14  1  0
 12 10  1  0
 13 12  2  0
 15 14  1  0
 15 18  1  0
 15 16  1  1
 17 16  1  0
 18 20  1  0
 19 18  2  0
M  END
$$$$
