NAC.pdb
     RDKit          3D

 20 19  0  0  1  0  0  0  0  0999 V2000
    8.9123  -12.5977   17.8254 N   0  0  0  0  0  0  0  0  0  0  0  0
    8.0218  -13.6991   17.6837 C   0  0  0  0  0  0  0  0  0  0  0  0
    7.7451  -14.1886   16.5772 O   0  0  0  0  0  0  0  0  0  0  0  0
    7.3938  -14.2945   18.8924 C   0  0  0  0  0  0  0  0  0  0  0  0
    8.3554  -15.2803   19.5639 C   0  0  2  0  0  0  0  0  0  0  0  0
    8.3633  -16.5363   18.8521 N   0  0  0  0  0  0  0  0  0  0  0  0
    7.8338  -15.5090   20.9265 C   0  0  0  0  0  0  0  0  0  0  0  0
    6.6130  -15.7469   21.0783 O   0  0  0  0  0  0  0  0  0  0  0  0
    8.4691  -17.1097   23.8413 C   0  0  0  0  0  0  0  0  0  0  0  0
    8.0855  -15.7256   23.3754 C   0  0  2  0  0  0  0  0  0  0  0  0
    8.6562  -15.4721   22.0837 N   0  0  0  0  0  0  0  0  0  0  0  0
    8.4742  -14.6785   24.3492 C   0  0  0  0  0  0  0  0  0  0  0  0
    9.1818  -13.7133   23.9343 O   0  0  0  0  0  0  0  0  0  0  0  0
    8.1070  -14.6884   25.7069 N   0  0  0  0  0  0  0  0  0  0  0  0
    8.6503  -13.7151   26.6028 C   0  0  1  0  0  0  0  0  0  0  0  0
    7.8718  -12.4296   26.4168 C   0  0  0  0  0  0  0  0  0  0  0  0
    6.1143  -12.8410   26.6493 S   0  0  0  0  0  0  0  0  0  0  0  0
    8.6277  -14.1326   28.0158 C   0  0  0  0  0  0  0  0  0  0  0  0
    9.0182  -13.4299   28.9820 O   0  0  0  0  0  0  0  0  0  0  0  0
    8.1387  -15.3983   28.3078 O   0  0  0  0  0  0  0  0  0  0  0  0
  2  4  1  0
  2  1  1  0
  3  2  2  0
  5  6  1  6
  5  7  1  0
  5  4  1  0
  7 11  1  0
  8  7  2  0
 10  9  1  1
 11 10  1  0
 12 14  1  0
 12 10  1  0
 13 12  2  0
 15 14  1  0
 15 18  1  0
 15 16  1  1
 17 16  1  0
 18 20  1  0
 19 18  2  0
M  END
$$$$
