NAC.pdb
     RDKit          3D

 20 19  0  0  1  0  0  0  0  0999 V2000
    9.2999  -19.4961   21.0701 N   0  0  0  0  0  0  0  0  0  0  0  0
    9.3814  -18.2925   20.3145 C   0  0  0  0  0  0  0  0  0  0  0  0
    9.5456  -18.2929   19.0842 O   0  0  0  0  0  0  0  0  0  0  0  0
    9.2678  -16.9824   21.0077 C   0  0  0  0  0  0  0  0  0  0  0  0
    9.1840  -17.1854   22.5240 C   0  0  2  0  0  0  0  0  0  0  0  0
    7.9622  -17.8720   22.8709 N   0  0  0  0  0  0  0  0  0  0  0  0
    9.1584  -15.8364   23.1247 C   0  0  0  0  0  0  0  0  0  0  0  0
   10.1377  -15.0746   22.9501 O   0  0  0  0  0  0  0  0  0  0  0  0
    6.6954  -13.5391   24.6842 C   0  0  0  0  0  0  0  0  0  0  0  0
    8.1026  -14.0269   24.4353 C   0  0  2  0  0  0  0  0  0  0  0  0
    8.0680  -15.3566   23.8975 N   0  0  0  0  0  0  0  0  0  0  0  0
    8.9421  -13.9625   25.6548 C   0  0  0  0  0  0  0  0  0  0  0  0
    9.0905  -12.8368   26.2161 O   0  0  0  0  0  0  0  0  0  0  0  0
    9.5854  -15.0735   26.2293 N   0  0  0  0  0  0  0  0  0  0  0  0
   10.4040  -14.9058   27.3899 C   0  0  1  0  0  0  0  0  0  0  0  0
    9.5598  -14.2467   28.4603 C   0  0  0  0  0  0  0  0  0  0  0  0
   10.6409  -13.9970   29.9029 S   0  0  0  0  0  0  0  0  0  0  0  0
   10.9848  -16.1636   27.8920 C   0  0  0  0  0  0  0  0  0  0  0  0
   10.5444  -17.3133   27.6385 O   0  0  0  0  0  0  0  0  0  0  0  0
   12.1042  -16.0780   28.7079 O   0  0  0  0  0  0  0  0  0  0  0  0
  2  4  1  0
  2  1  1  0
  3  2  2  0
  5  6  1  6
  5  7  1  0
  5  4  1  0
  7 11  1  0
  8  7  2  0
 10  9  1  1
 11 10  1  0
 12 14  1  0
 12 10  1  0
 13 12  2  0
 15 14  1  0
 15 18  1  0
 15 16  1  1
 17 16  1  0
 18 20  1  0
 19 18  2  0
M  END
$$$$
