NAC.pdb
     RDKit          3D

 20 19  0  0  1  0  0  0  0  0999 V2000
    7.4562  -13.1920   16.4125 N   0  0  0  0  0  0  0  0  0  0  0  0
    8.3010  -13.7525   17.4117 C   0  0  0  0  0  0  0  0  0  0  0  0
    9.4520  -14.1442   17.1620 O   0  0  0  0  0  0  0  0  0  0  0  0
    7.8024  -13.8800   18.8063 C   0  0  0  0  0  0  0  0  0  0  0  0
    8.7500  -14.7531   19.6352 C   0  0  2  0  0  0  0  0  0  0  0  0
    8.8736  -16.0628   19.0405 N   0  0  0  0  0  0  0  0  0  0  0  0
    8.1297  -14.8926   20.9682 C   0  0  0  0  0  0  0  0  0  0  0  0
    7.3402  -14.0053   21.3673 O   0  0  0  0  0  0  0  0  0  0  0  0
    7.9141  -17.4627   23.6778 C   0  0  0  0  0  0  0  0  0  0  0  0
    7.7197  -16.0837   23.0943 C   0  0  2  0  0  0  0  0  0  0  0  0
    8.3872  -15.9935   21.8275 N   0  0  0  0  0  0  0  0  0  0  0  0
    8.1718  -15.0158   24.0169 C   0  0  0  0  0  0  0  0  0  0  0  0
    9.3406  -15.1005   24.4977 O   0  0  0  0  0  0  0  0  0  0  0  0
    7.3845  -13.9127   24.3932 N   0  0  0  0  0  0  0  0  0  0  0  0
    7.5755  -13.2992   25.6708 C   0  0  1  0  0  0  0  0  0  0  0  0
    6.2881  -12.5939   26.0425 C   0  0  0  0  0  0  0  0  0  0  0  0
    6.5860  -11.7597   27.6323 S   0  0  0  0  0  0  0  0  0  0  0  0
    7.9701  -14.2455   26.7292 C   0  0  0  0  0  0  0  0  0  0  0  0
    7.3843  -15.3280   26.9843 O   0  0  0  0  0  0  0  0  0  0  0  0
    9.0728  -13.9215   27.5073 O   0  0  0  0  0  0  0  0  0  0  0  0
  2  4  1  0
  2  1  1  0
  3  2  2  0
  5  6  1  6
  5  7  1  0
  5  4  1  0
  7 11  1  0
  8  7  2  0
 10  9  1  1
 11 10  1  0
 12 14  1  0
 12 10  1  0
 13 12  2  0
 15 14  1  0
 15 18  1  0
 15 16  1  1
 17 16  1  0
 18 20  1  0
 19 18  2  0
M  END
$$$$
