NAC.pdb
     RDKit          3D

 20 19  0  0  1  0  0  0  0  0999 V2000
   14.1477  -18.1344   20.3223 N   0  0  0  0  0  0  0  0  0  0  0  0
   13.2538  -17.3612   19.5291 C   0  0  0  0  0  0  0  0  0  0  0  0
   13.5888  -16.8752   18.4372 O   0  0  0  0  0  0  0  0  0  0  0  0
   11.8686  -17.1185   20.0110 C   0  0  0  0  0  0  0  0  0  0  0  0
   11.6786  -17.7094   21.4117 C   0  0  2  0  0  0  0  0  0  0  0  0
   10.7906  -18.8466   21.3596 N   0  0  0  0  0  0  0  0  0  0  0  0
   11.0497  -16.6519   22.2287 C   0  0  0  0  0  0  0  0  0  0  0  0
   11.6553  -15.5669   22.3895 O   0  0  0  0  0  0  0  0  0  0  0  0
    7.7691  -15.9009   23.8162 C   0  0  0  0  0  0  0  0  0  0  0  0
    9.2691  -15.7725   23.6994 C   0  0  2  0  0  0  0  0  0  0  0  0
    9.7804  -16.8066   22.8464 N   0  0  0  0  0  0  0  0  0  0  0  0
    9.9376  -15.7874   25.0218 C   0  0  0  0  0  0  0  0  0  0  0  0
   10.6891  -16.7691   25.2975 O   0  0  0  0  0  0  0  0  0  0  0  0
    9.7905  -14.7794   25.9916 N   0  0  0  0  0  0  0  0  0  0  0  0
   10.3755  -14.9408   27.2865 C   0  0  1  0  0  0  0  0  0  0  0  0
   10.0110  -13.7259   28.1137 C   0  0  0  0  0  0  0  0  0  0  0  0
   10.9130  -13.8717   29.6876 S   0  0  0  0  0  0  0  0  0  0  0  0
    9.9612  -16.1767   27.9738 C   0  0  0  0  0  0  0  0  0  0  0  0
    8.7826  -16.6098   28.0312 O   0  0  0  0  0  0  0  0  0  0  0  0
   10.9439  -16.9238   28.6082 O   0  0  0  0  0  0  0  0  0  0  0  0
  2  4  1  0
  2  1  1  0
  3  2  2  0
  5  6  1  6
  5  7  1  0
  5  4  1  0
  7 11  1  0
  8  7  2  0
 10  9  1  1
 11 10  1  0
 12 14  1  0
 12 10  1  0
 13 12  2  0
 15 14  1  0
 15 18  1  0
 15 16  1  1
 17 16  1  0
 18 20  1  0
 19 18  2  0
M  END
$$$$
