NAC.pdb
     RDKit          3D

 20 19  0  0  1  0  0  0  0  0999 V2000
    7.4083  -12.5363   17.9075 N   0  0  0  0  0  0  0  0  0  0  0  0
    8.2100  -13.5342   18.5303 C   0  0  0  0  0  0  0  0  0  0  0  0
    9.1524  -14.0883   17.9427 O   0  0  0  0  0  0  0  0  0  0  0  0
    7.9213  -13.9373   19.9318 C   0  0  0  0  0  0  0  0  0  0  0  0
    7.9866  -15.4614   20.0739 C   0  0  2  0  0  0  0  0  0  0  0  0
    6.8754  -16.0767   19.3875 N   0  0  0  0  0  0  0  0  0  0  0  0
    7.8730  -15.7509   21.5177 C   0  0  0  0  0  0  0  0  0  0  0  0
    6.7849  -15.5299   22.0983 O   0  0  0  0  0  0  0  0  0  0  0  0
    9.8473  -17.4705   24.1734 C   0  0  0  0  0  0  0  0  0  0  0  0
    8.7615  -16.5425   23.6835 C   0  0  2  0  0  0  0  0  0  0  0  0
    8.9470  -16.2722   22.2868 N   0  0  0  0  0  0  0  0  0  0  0  0
    8.6993  -15.2881   24.4698 C   0  0  0  0  0  0  0  0  0  0  0  0
    9.4844  -14.3466   24.1511 O   0  0  0  0  0  0  0  0  0  0  0  0
    7.8227  -15.0761   25.5492 N   0  0  0  0  0  0  0  0  0  0  0  0
    7.9018  -13.8673   26.3091 C   0  0  1  0  0  0  0  0  0  0  0  0
    6.5046  -13.2928   26.4116 C   0  0  0  0  0  0  0  0  0  0  0  0
    6.6160  -11.8278   27.4857 S   0  0  0  0  0  0  0  0  0  0  0  0
    8.4856  -14.0477   27.6500 C   0  0  0  0  0  0  0  0  0  0  0  0
    8.9228  -13.1204   28.3774 O   0  0  0  0  0  0  0  0  0  0  0  0
    8.5611  -15.3390   28.1535 O   0  0  0  0  0  0  0  0  0  0  0  0
  2  4  1  0
  2  1  1  0
  3  2  2  0
  5  6  1  6
  5  7  1  0
  5  4  1  0
  7 11  1  0
  8  7  2  0
 10  9  1  1
 11 10  1  0
 12 14  1  0
 12 10  1  0
 13 12  2  0
 15 14  1  0
 15 18  1  0
 15 16  1  1
 17 16  1  0
 18 20  1  0
 19 18  2  0
M  END
$$$$
