NAC.pdb
     RDKit          3D

 20 19  0  0  1  0  0  0  0  0999 V2000
   12.4269  -19.3198   19.6813 N   0  0  0  0  0  0  0  0  0  0  0  0
   11.0388  -19.1018   19.9090 C   0  0  0  0  0  0  0  0  0  0  0  0
   10.1852  -19.9730   19.6788 O   0  0  0  0  0  0  0  0  0  0  0  0
   10.5800  -17.7915   20.4404 C   0  0  0  0  0  0  0  0  0  0  0  0
   10.2096  -17.9155   21.9219 C   0  0  2  0  0  0  0  0  0  0  0  0
    9.0052  -18.6969   22.0737 N   0  0  0  0  0  0  0  0  0  0  0  0
    9.9502  -16.5435   22.4032 C   0  0  0  0  0  0  0  0  0  0  0  0
   10.9034  -15.7333   22.4729 O   0  0  0  0  0  0  0  0  0  0  0  0
    7.0158  -14.4672   23.4668 C   0  0  0  0  0  0  0  0  0  0  0  0
    8.4857  -14.7524   23.2716 C   0  0  2  0  0  0  0  0  0  0  0  0
    8.6612  -16.0940   22.7944 N   0  0  0  0  0  0  0  0  0  0  0  0
    9.2716  -14.5138   24.5050 C   0  0  0  0  0  0  0  0  0  0  0  0
    9.6616  -13.3324   24.7428 O   0  0  0  0  0  0  0  0  0  0  0  0
    9.6126  -15.5174   25.4297 N   0  0  0  0  0  0  0  0  0  0  0  0
   10.0401  -15.1617   26.7472 C   0  0  1  0  0  0  0  0  0  0  0  0
    8.9108  -14.4018   27.4107 C   0  0  0  0  0  0  0  0  0  0  0  0
    9.6763  -13.0771   28.3963 S   0  0  0  0  0  0  0  0  0  0  0  0
   10.4406  -16.3155   27.5717 C   0  0  0  0  0  0  0  0  0  0  0  0
   10.1816  -17.5165   27.3062 O   0  0  0  0  0  0  0  0  0  0  0  0
   11.1593  -16.0622   28.7317 O   0  0  0  0  0  0  0  0  0  0  0  0
  2  4  1  0
  2  1  1  0
  3  2  2  0
  5  6  1  6
  5  7  1  0
  5  4  1  0
  7 11  1  0
  8  7  2  0
 10  9  1  1
 11 10  1  0
 12 14  1  0
 12 10  1  0
 13 12  2  0
 15 14  1  0
 15 18  1  0
 15 16  1  1
 17 16  1  0
 18 20  1  0
 19 18  2  0
M  END
$$$$
