NAC.pdb
     RDKit          3D

 20 19  0  0  1  0  0  0  0  0999 V2000
    7.8745  -12.0243   18.7466 N   0  0  0  0  0  0  0  0  0  0  0  0
    8.2836  -13.2745   19.2907 C   0  0  0  0  0  0  0  0  0  0  0  0
    8.9712  -14.0832   18.6476 O   0  0  0  0  0  0  0  0  0  0  0  0
    7.8817  -13.6384   20.6748 C   0  0  0  0  0  0  0  0  0  0  0  0
    7.5635  -15.1345   20.7632 C   0  0  2  0  0  0  0  0  0  0  0  0
    6.3242  -15.4244   20.0816 N   0  0  0  0  0  0  0  0  0  0  0  0
    7.4001  -15.4421   22.1985 C   0  0  0  0  0  0  0  0  0  0  0  0
    6.6160  -14.7457   22.8841 O   0  0  0  0  0  0  0  0  0  0  0  0
    7.7650  -18.2759   24.4380 C   0  0  0  0  0  0  0  0  0  0  0  0
    7.8386  -16.7824   24.2278 C   0  0  2  0  0  0  0  0  0  0  0  0
    8.0950  -16.4984   22.8450 N   0  0  0  0  0  0  0  0  0  0  0  0
    8.8480  -16.1422   25.1037 C   0  0  0  0  0  0  0  0  0  0  0  0
   10.0085  -15.9513   24.6335 O   0  0  0  0  0  0  0  0  0  0  0  0
    8.5988  -15.7323   26.4260 N   0  0  0  0  0  0  0  0  0  0  0  0
    9.6583  -15.1909   27.2194 C   0  0  1  0  0  0  0  0  0  0  0  0
    9.0947  -14.0326   28.0155 C   0  0  0  0  0  0  0  0  0  0  0  0
   10.4727  -13.3379   28.9802 S   0  0  0  0  0  0  0  0  0  0  0  0
   10.2893  -16.1753   28.1162 C   0  0  0  0  0  0  0  0  0  0  0  0
    9.6812  -17.0941   28.7211 O   0  0  0  0  0  0  0  0  0  0  0  0
   11.6605  -16.0856   28.3114 O   0  0  0  0  0  0  0  0  0  0  0  0
  2  4  1  0
  2  1  1  0
  3  2  2  0
  5  6  1  6
  5  7  1  0
  5  4  1  0
  7 11  1  0
  8  7  2  0
 10  9  1  6
 11 10  1  0
 12 14  1  0
 12 10  1  0
 13 12  2  0
 15 14  1  0
 15 18  1  0
 15 16  1  1
 17 16  1  0
 18 20  1  0
 19 18  2  0
M  END
$$$$
