YME.pdb
     RDKit          3D

 30 30  0  0  1  0  0  0  0  0999 V2000
   12.9712  -11.3392  -19.8888 O   0  0  0  0  0  0  0  0  0  0  0  0
   14.0875  -10.8494  -19.1893 C   0  0  0  0  0  0  0  0  0  0  0  0
   14.0898  -10.7737  -17.8081 C   0  0  0  0  0  0  0  0  0  0  0  0
   15.1700  -10.2972  -17.0819 C   0  0  0  0  0  0  0  0  0  0  0  0
   16.3060   -9.8740  -17.7593 C   0  0  0  0  0  0  0  0  0  0  0  0
   17.4595   -9.3714  -17.0189 C   0  0  0  0  0  0  0  0  0  0  0  0
   18.4807  -10.4352  -16.6496 C   0  0  2  0  0  0  0  0  0  0  0  0
   17.9089  -11.3302  -15.6284 N   0  0  0  0  0  0  0  0  0  0  0  0
   19.7260   -9.9042  -16.0958 C   0  0  0  0  0  0  0  0  0  0  0  0
   19.9227   -9.8194  -14.8360 O   0  0  0  0  0  0  0  0  0  0  0  0
   16.3045   -9.9489  -19.1313 C   0  0  0  0  0  0  0  0  0  0  0  0
   15.2201  -10.4266  -19.8502 C   0  0  0  0  0  0  0  0  0  0  0  0
   26.4917  -10.2594  -14.6031 C   0  0  0  0  0  0  0  0  0  0  0  0
   24.7851  -10.3713  -15.1631 S   0  0  0  0  0  0  0  0  0  0  0  0
   24.5479   -9.4043  -16.7120 C   0  0  0  0  0  0  0  0  0  0  0  0
   23.1465   -9.6303  -17.1402 C   0  0  0  0  0  0  0  0  0  0  0  0
   22.0853   -8.9828  -16.2715 C   0  0  2  0  0  0  0  0  0  0  0  0
   20.8185   -9.4423  -16.8940 N   0  0  0  0  0  0  0  0  0  0  0  0
   22.0817   -7.5107  -16.3486 C   0  0  0  0  0  0  0  0  0  0  0  0
   22.2468   -6.9002  -17.4681 O   0  0  0  0  0  0  0  0  0  0  0  0
   21.8897   -6.7096  -15.1816 N   0  0  0  0  0  0  0  0  0  0  0  0
   22.0192   -5.2474  -15.2948 C   0  0  1  0  0  0  0  0  0  0  0  0
   20.7983   -4.5906  -14.7033 C   0  0  0  0  0  0  0  0  0  0  0  0
   19.5781   -4.8973  -15.5203 C   0  0  0  0  0  0  0  0  0  0  0  0
   18.4345   -4.1429  -14.9386 C   0  0  0  0  0  0  0  0  0  0  0  0
   18.2509   -2.9659  -15.3189 O   0  0  0  0  0  0  0  0  0  0  0  0
   23.2965   -4.7920  -14.7110 C   0  0  0  0  0  0  0  0  0  0  0  0
   23.6998   -3.6011  -14.7022 O   0  0  0  0  0  0  0  0  0  0  0  0
   17.6255   -4.7573  -14.0122 O   0  0  0  0  0  0  0  0  0  0  0  0
   24.1947   -5.6935  -14.0948 O   0  0  0  0  0  0  0  0  0  0  0  0
  2  1  1  0
  3  2  2  0
  4  3  1  0
  5  4  2  0
  5 11  1  0
  6  5  1  0
  7  9  1  0
  7  6  1  0
  7  8  1  1
  9 10  2  0
 11 12  2  0
 12  2  1  0
 14 13  1  0
 15 14  1  0
 16 15  1  0
 17 16  1  6
 17 19  1  0
 18 17  1  0
 18  9  1  0
 19 20  2  0
 21 22  1  0
 21 19  1  0
 22 27  1  0
 22 23  1  1
 24 23  1  0
 24 25  1  0
 25 26  2  0
 27 28  2  0
 27 30  1  0
 29 25  1  0
M  END
$$$$
