YME.pdb
     RDKit          3D

 30 30  0  0  1  0  0  0  0  0999 V2000
   29.9432  -16.2513  -19.5886 O   0  0  0  0  0  0  0  0  0  0  0  0
   29.1176  -16.9760  -18.7118 C   0  0  0  0  0  0  0  0  0  0  0  0
   28.2292  -17.9246  -19.1852 C   0  0  0  0  0  0  0  0  0  0  0  0
   27.3987  -18.6597  -18.3538 C   0  0  0  0  0  0  0  0  0  0  0  0
   27.4514  -18.4435  -16.9831 C   0  0  0  0  0  0  0  0  0  0  0  0
   26.5907  -19.2068  -16.0843 C   0  0  0  0  0  0  0  0  0  0  0  0
   27.2878  -20.3539  -15.3709 C   0  0  2  0  0  0  0  0  0  0  0  0
   27.5927  -21.4210  -16.3400 N   0  0  0  0  0  0  0  0  0  0  0  0
   26.4961  -20.9661  -14.3042 C   0  0  0  0  0  0  0  0  0  0  0  0
   25.7433  -21.9766  -14.5169 O   0  0  0  0  0  0  0  0  0  0  0  0
   28.3338  -17.5014  -16.5121 C   0  0  0  0  0  0  0  0  0  0  0  0
   29.1609  -16.7703  -17.3501 C   0  0  0  0  0  0  0  0  0  0  0  0
   25.4096  -20.7268   -6.4505 C   0  0  0  0  0  0  0  0  0  0  0  0
   26.2548  -20.3059   -7.9826 S   0  0  0  0  0  0  0  0  0  0  0  0
   25.3145  -20.9373   -9.4344 C   0  0  0  0  0  0  0  0  0  0  0  0
   26.1205  -20.6085  -10.6346 C   0  0  0  0  0  0  0  0  0  0  0  0
   25.5203  -21.0327  -11.9612 C   0  0  2  0  0  0  0  0  0  0  0  0
   26.4915  -20.5038  -12.9514 N   0  0  0  0  0  0  0  0  0  0  0  0
   24.2279  -20.3870  -12.2539 C   0  0  0  0  0  0  0  0  0  0  0  0
   24.1690  -19.2566  -12.8636 O   0  0  0  0  0  0  0  0  0  0  0  0
   22.9935  -20.9976  -11.8742 N   0  0  0  0  0  0  0  0  0  0  0  0
   21.7498  -20.5460  -12.5198 C   0  0  1  0  0  0  0  0  0  0  0  0
   21.8930  -20.6618  -14.0157 C   0  0  0  0  0  0  0  0  0  0  0  0
   20.5974  -20.3448  -14.7024 C   0  0  0  0  0  0  0  0  0  0  0  0
   20.7956  -20.5317  -16.1657 C   0  0  0  0  0  0  0  0  0  0  0  0
   21.6656  -21.3469  -16.5428 O   0  0  0  0  0  0  0  0  0  0  0  0
   20.5854  -21.2638  -11.9641 C   0  0  0  0  0  0  0  0  0  0  0  0
   20.5850  -22.4706  -11.6114 O   0  0  0  0  0  0  0  0  0  0  0  0
   20.0243  -19.8104  -17.0460 O   0  0  0  0  0  0  0  0  0  0  0  0
   19.3379  -20.6245  -11.7792 O   0  0  0  0  0  0  0  0  0  0  0  0
  2  1  1  0
  3  2  2  0
  4  3  1  0
  5  4  2  0
  5 11  1  0
  6  5  1  0
  7  9  1  0
  7  6  1  0
  7  8  1  6
  9 10  2  0
 11 12  2  0
 12  2  1  0
 14 13  1  0
 15 14  1  0
 16 15  1  0
 17 16  1  1
 17 19  1  0
 18 17  1  0
 18  9  1  0
 19 20  2  0
 21 22  1  0
 21 19  1  0
 22 27  1  0
 22 23  1  6
 24 23  1  0
 24 25  1  0
 25 26  2  0
 27 28  2  0
 27 30  1  0
 29 25  1  0
M  END
$$$$
