YME.pdb
     RDKit          3D

 30 30  0  0  1  0  0  0  0  0999 V2000
   27.5226  -19.9882  -23.8558 O   0  0  0  0  0  0  0  0  0  0  0  0
   26.7402  -19.9359  -22.6894 C   0  0  0  0  0  0  0  0  0  0  0  0
   25.8898  -18.8726  -22.4453 C   0  0  0  0  0  0  0  0  0  0  0  0
   25.1022  -18.7840  -21.3080 C   0  0  0  0  0  0  0  0  0  0  0  0
   25.1606  -19.8013  -20.3645 C   0  0  0  0  0  0  0  0  0  0  0  0
   24.3389  -19.7351  -19.1597 C   0  0  0  0  0  0  0  0  0  0  0  0
   24.6939  -18.5948  -18.2193 C   0  0  2  0  0  0  0  0  0  0  0  0
   26.0502  -18.8051  -17.6837 N   0  0  0  0  0  0  0  0  0  0  0  0
   23.8008  -18.4669  -17.0681 C   0  0  0  0  0  0  0  0  0  0  0  0
   24.0312  -19.0685  -15.9645 O   0  0  0  0  0  0  0  0  0  0  0  0
   26.0051  -20.8578  -20.6063 C   0  0  0  0  0  0  0  0  0  0  0  0
   26.7895  -20.9390  -21.7461 C   0  0  0  0  0  0  0  0  0  0  0  0
   20.5553  -13.5320  -14.1209 C   0  0  0  0  0  0  0  0  0  0  0  0
   22.1861  -13.6315  -14.8755 S   0  0  0  0  0  0  0  0  0  0  0  0
   22.7030  -15.3883  -15.0689 C   0  0  0  0  0  0  0  0  0  0  0  0
   21.5546  -16.1014  -15.6779 C   0  0  0  0  0  0  0  0  0  0  0  0
   21.7396  -17.5945  -15.8692 C   0  0  2  0  0  0  0  0  0  0  0  0
   22.6126  -17.6718  -17.0674 N   0  0  0  0  0  0  0  0  0  0  0  0
   20.4922  -18.3013  -16.2117 C   0  0  0  0  0  0  0  0  0  0  0  0
   20.0127  -18.2700  -17.4042 O   0  0  0  0  0  0  0  0  0  0  0  0
   19.7738  -19.0509  -15.2305 N   0  0  0  0  0  0  0  0  0  0  0  0
   18.5418  -19.7496  -15.6325 C   0  0  1  0  0  0  0  0  0  0  0  0
   18.4649  -21.0760  -14.9209 C   0  0  0  0  0  0  0  0  0  0  0  0
   17.6404  -20.9654  -13.6725 C   0  0  0  0  0  0  0  0  0  0  0  0
   17.1795  -22.3319  -13.3040 C   0  0  0  0  0  0  0  0  0  0  0  0
   16.3444  -22.4426  -12.3800 O   0  0  0  0  0  0  0  0  0  0  0  0
   17.3635  -18.8832  -15.4306 C   0  0  0  0  0  0  0  0  0  0  0  0
   17.3181  -17.9010  -14.6469 O   0  0  0  0  0  0  0  0  0  0  0  0
   17.6810  -23.4165  -13.9840 O   0  0  0  0  0  0  0  0  0  0  0  0
   16.1537  -19.1002  -16.1294 O   0  0  0  0  0  0  0  0  0  0  0  0
  2  1  1  0
  3  2  2  0
  4  3  1  0
  5  4  2  0
  5 11  1  0
  6  5  1  0
  7  9  1  0
  7  6  1  0
  7  8  1  1
  9 10  2  0
 11 12  2  0
 12  2  1  0
 14 13  1  0
 15 14  1  0
 16 15  1  0
 17 16  1  6
 17 19  1  0
 18 17  1  0
 18  9  1  0
 19 20  2  0
 21 22  1  0
 21 19  1  0
 22 27  1  0
 22 23  1  1
 24 23  1  0
 24 25  1  0
 25 26  2  0
 27 28  2  0
 27 30  1  0
 29 25  1  0
M  END
$$$$
