YME.pdb
     RDKit          3D

 30 30  0  0  1  0  0  0  0  0999 V2000
   28.8286  -13.8750  -17.3960 O   0  0  0  0  0  0  0  0  0  0  0  0
   28.2261  -15.0642  -16.9506 C   0  0  0  0  0  0  0  0  0  0  0  0
   28.0208  -16.1280  -17.8105 C   0  0  0  0  0  0  0  0  0  0  0  0
   27.4306  -17.3167  -17.4102 C   0  0  0  0  0  0  0  0  0  0  0  0
   27.0230  -17.4580  -16.0903 C   0  0  0  0  0  0  0  0  0  0  0  0
   26.4023  -18.7007  -15.6411 C   0  0  0  0  0  0  0  0  0  0  0  0
   27.2998  -19.5758  -14.7812 C   0  0  2  0  0  0  0  0  0  0  0  0
   28.1159  -20.4430  -15.6488 N   0  0  0  0  0  0  0  0  0  0  0  0
   26.5773  -20.4566  -13.8638 C   0  0  0  0  0  0  0  0  0  0  0  0
   26.0028  -21.5251  -14.2654 O   0  0  0  0  0  0  0  0  0  0  0  0
   27.2266  -16.4016  -15.2356 C   0  0  0  0  0  0  0  0  0  0  0  0
   27.8175  -15.2162  -15.6436 C   0  0  0  0  0  0  0  0  0  0  0  0
   26.2470  -19.1200   -7.3021 C   0  0  0  0  0  0  0  0  0  0  0  0
   26.2100  -20.9043   -7.5337 S   0  0  0  0  0  0  0  0  0  0  0  0
   25.3246  -21.3363   -9.0893 C   0  0  0  0  0  0  0  0  0  0  0  0
   26.1161  -20.7556  -10.2005 C   0  0  0  0  0  0  0  0  0  0  0  0
   25.6342  -21.1012  -11.5963 C   0  0  2  0  0  0  0  0  0  0  0  0
   26.4503  -20.2125  -12.4609 N   0  0  0  0  0  0  0  0  0  0  0  0
   24.2247  -20.7423  -11.8363 C   0  0  0  0  0  0  0  0  0  0  0  0
   23.8542  -19.5144  -11.9258 O   0  0  0  0  0  0  0  0  0  0  0  0
   23.2203  -21.7475  -11.9827 N   0  0  0  0  0  0  0  0  0  0  0  0
   21.8276  -21.3310  -12.2164 C   0  0  1  0  0  0  0  0  0  0  0  0
   21.3080  -22.0019  -13.4621 C   0  0  0  0  0  0  0  0  0  0  0  0
   20.9773  -20.9875  -14.5167 C   0  0  0  0  0  0  0  0  0  0  0  0
   19.7421  -21.4370  -15.2150 C   0  0  0  0  0  0  0  0  0  0  0  0
   19.8353  -22.3849  -16.0252 O   0  0  0  0  0  0  0  0  0  0  0  0
   21.0059  -21.5660  -11.0126 C   0  0  0  0  0  0  0  0  0  0  0  0
   21.2779  -22.3933  -10.1057 O   0  0  0  0  0  0  0  0  0  0  0  0
   18.5515  -20.8029  -14.9496 O   0  0  0  0  0  0  0  0  0  0  0  0
   19.8079  -20.8519  -10.7802 O   0  0  0  0  0  0  0  0  0  0  0  0
  2  1  1  0
  3  2  2  0
  4  3  1  0
  5  4  2  0
  5 11  1  0
  6  5  1  0
  7  9  1  0
  7  6  1  0
  7  8  1  6
  9 10  2  0
 11 12  2  0
 12  2  1  0
 14 13  1  0
 15 14  1  0
 16 15  1  0
 17 16  1  1
 17 19  1  0
 18 17  1  0
 18  9  1  0
 19 20  2  0
 21 22  1  0
 21 19  1  0
 22 27  1  0
 22 23  1  6
 24 23  1  0
 24 25  1  0
 25 26  2  0
 27 28  2  0
 27 30  1  0
 29 25  1  0
M  END
$$$$
