YME.pdb
     RDKit          3D

 30 30  0  0  1  0  0  0  0  0999 V2000
   29.9480  -16.3678  -19.6696 O   0  0  0  0  0  0  0  0  0  0  0  0
   29.0691  -17.0548  -18.8146 C   0  0  0  0  0  0  0  0  0  0  0  0
   28.9649  -16.7203  -17.4766 C   0  0  0  0  0  0  0  0  0  0  0  0
   28.1107  -17.3730  -16.6015 C   0  0  0  0  0  0  0  0  0  0  0  0
   27.3195  -18.4104  -17.0770 C   0  0  0  0  0  0  0  0  0  0  0  0
   26.4082  -19.1122  -16.1780 C   0  0  0  0  0  0  0  0  0  0  0  0
   27.0900  -20.0727  -15.2170 C   0  0  2  0  0  0  0  0  0  0  0  0
   27.6018  -21.2341  -15.9654 N   0  0  0  0  0  0  0  0  0  0  0  0
   26.2128  -20.5979  -14.1711 C   0  0  0  0  0  0  0  0  0  0  0  0
   25.5239  -21.6611  -14.3384 O   0  0  0  0  0  0  0  0  0  0  0  0
   27.4225  -18.7433  -18.4061 C   0  0  0  0  0  0  0  0  0  0  0  0
   28.2792  -18.0857  -19.2748 C   0  0  0  0  0  0  0  0  0  0  0  0
   24.6219  -22.4499   -7.9043 C   0  0  0  0  0  0  0  0  0  0  0  0
   25.4099  -20.8728   -8.2658 S   0  0  0  0  0  0  0  0  0  0  0  0
   24.4391  -19.9373   -9.5200 C   0  0  0  0  0  0  0  0  0  0  0  0
   25.3493  -19.6983  -10.6658 C   0  0  0  0  0  0  0  0  0  0  0  0
   25.0334  -20.4810  -11.9257 C   0  0  2  0  0  0  0  0  0  0  0  0
   26.0484  -19.9863  -12.8893 N   0  0  0  0  0  0  0  0  0  0  0  0
   23.7151  -20.1591  -12.5015 C   0  0  0  0  0  0  0  0  0  0  0  0
   23.5955  -19.3202  -13.4685 O   0  0  0  0  0  0  0  0  0  0  0  0
   22.5230  -20.7724  -12.0081 N   0  0  0  0  0  0  0  0  0  0  0  0
   21.2905  -20.6736  -12.8073 C   0  0  1  0  0  0  0  0  0  0  0  0
   21.3376  -19.4216  -13.6453 C   0  0  0  0  0  0  0  0  0  0  0  0
   21.7216  -19.7401  -15.0601 C   0  0  0  0  0  0  0  0  0  0  0  0
   21.4994  -18.5192  -15.8820 C   0  0  0  0  0  0  0  0  0  0  0  0
   21.2180  -17.4541  -15.2905 O   0  0  0  0  0  0  0  0  0  0  0  0
   21.0707  -21.9128  -13.5791 C   0  0  0  0  0  0  0  0  0  0  0  0
   19.9916  -22.2283  -14.1421 O   0  0  0  0  0  0  0  0  0  0  0  0
   21.6097  -18.6007  -17.2500 O   0  0  0  0  0  0  0  0  0  0  0  0
   22.0947  -22.8726  -13.7501 O   0  0  0  0  0  0  0  0  0  0  0  0
  2  1  1  0
  3  2  2  0
  4  3  1  0
  5  4  2  0
  5 11  1  0
  6  5  1  0
  7  9  1  0
  7  6  1  0
  7  8  1  6
  9 10  2  0
 11 12  2  0
 12  2  1  0
 14 13  1  0
 15 14  1  0
 16 15  1  0
 17 16  1  1
 17 19  1  0
 18 17  1  0
 18  9  1  0
 19 20  2  0
 21 22  1  0
 21 19  1  0
 22 27  1  0
 22 23  1  6
 24 23  1  0
 24 25  1  0
 25 26  2  0
 27 28  2  0
 27 30  1  0
 29 25  1  0
M  END
$$$$
