YME.pdb
     RDKit          3D

 30 30  0  0  1  0  0  0  0  0999 V2000
   29.5195  -16.2507  -18.8915 O   0  0  0  0  0  0  0  0  0  0  0  0
   28.7590  -17.0328  -18.0053 C   0  0  0  0  0  0  0  0  0  0  0  0
   28.6549  -16.7007  -16.6666 C   0  0  0  0  0  0  0  0  0  0  0  0
   27.9151  -17.4455  -15.7613 C   0  0  0  0  0  0  0  0  0  0  0  0
   27.2444  -18.5774  -16.2056 C   0  0  0  0  0  0  0  0  0  0  0  0
   26.4549  -19.3777  -15.2743 C   0  0  0  0  0  0  0  0  0  0  0  0
   27.2744  -20.3091  -14.3957 C   0  0  2  0  0  0  0  0  0  0  0  0
   27.8530  -21.3815  -15.2239 N   0  0  0  0  0  0  0  0  0  0  0  0
   26.5074  -20.9620  -13.3352 C   0  0  0  0  0  0  0  0  0  0  0  0
   25.8866  -22.0618  -13.5300 O   0  0  0  0  0  0  0  0  0  0  0  0
   27.3474  -18.9079  -17.5353 C   0  0  0  0  0  0  0  0  0  0  0  0
   28.0892  -18.1579  -18.4343 C   0  0  0  0  0  0  0  0  0  0  0  0
   28.5915  -19.9907   -7.4467 C   0  0  0  0  0  0  0  0  0  0  0  0
   26.7961  -20.1021   -7.3950 S   0  0  0  0  0  0  0  0  0  0  0  0
   26.1729  -21.1475   -8.7768 C   0  0  0  0  0  0  0  0  0  0  0  0
   25.6282  -20.2187   -9.7961 C   0  0  0  0  0  0  0  0  0  0  0  0
   25.2617  -20.8496  -11.1257 C   0  0  2  0  0  0  0  0  0  0  0  0
   26.3844  -20.4444  -12.0082 N   0  0  0  0  0  0  0  0  0  0  0  0
   24.0351  -20.2905  -11.7223 C   0  0  0  0  0  0  0  0  0  0  0  0
   23.9605  -19.0515  -12.0578 O   0  0  0  0  0  0  0  0  0  0  0  0
   22.8865  -21.1076  -11.9536 N   0  0  0  0  0  0  0  0  0  0  0  0
   21.6890  -20.4959  -12.5531 C   0  0  1  0  0  0  0  0  0  0  0  0
   21.3249  -21.2403  -13.8122 C   0  0  0  0  0  0  0  0  0  0  0  0
   20.9322  -22.6545  -13.5018 C   0  0  0  0  0  0  0  0  0  0  0  0
   20.5147  -23.3048  -14.7739 C   0  0  0  0  0  0  0  0  0  0  0  0
   20.2274  -24.5215  -14.7468 O   0  0  0  0  0  0  0  0  0  0  0  0
   20.5980  -20.4093  -11.5622 C   0  0  0  0  0  0  0  0  0  0  0  0
   19.4981  -19.8303  -11.7513 O   0  0  0  0  0  0  0  0  0  0  0  0
   20.4588  -22.5554  -15.9251 O   0  0  0  0  0  0  0  0  0  0  0  0
   20.7119  -20.9929  -10.2793 O   0  0  0  0  0  0  0  0  0  0  0  0
  2  1  1  0
  3  2  2  0
  4  3  1  0
  5  4  2  0
  5 11  1  0
  6  5  1  0
  7  9  1  0
  7  6  1  0
  7  8  1  6
  9 10  2  0
 11 12  2  0
 12  2  1  0
 14 13  1  0
 15 14  1  0
 16 15  1  0
 17 16  1  1
 17 19  1  0
 18 17  1  0
 18  9  1  0
 19 20  2  0
 21 22  1  0
 21 19  1  0
 22 27  1  0
 22 23  1  6
 24 23  1  0
 24 25  1  0
 25 26  2  0
 27 28  2  0
 27 30  1  0
 29 25  1  0
M  END
$$$$
