YME.pdb
     RDKit          3D

 30 30  0  0  1  0  0  0  0  0999 V2000
   28.1582  -14.0460  -17.4547 O   0  0  0  0  0  0  0  0  0  0  0  0
   27.6544  -15.1291  -16.7140 C   0  0  0  0  0  0  0  0  0  0  0  0
   27.0930  -16.2261  -17.3421 C   0  0  0  0  0  0  0  0  0  0  0  0
   26.5855  -17.3133  -16.6480 C   0  0  0  0  0  0  0  0  0  0  0  0
   26.6373  -17.3131  -15.2602 C   0  0  0  0  0  0  0  0  0  0  0  0
   26.1137  -18.4471  -14.5045 C   0  0  0  0  0  0  0  0  0  0  0  0
   27.1723  -19.2579  -13.7746 C   0  0  2  0  0  0  0  0  0  0  0  0
   28.0471  -19.9201  -14.7579 N   0  0  0  0  0  0  0  0  0  0  0  0
   26.6335  -20.3099  -12.9131 C   0  0  0  0  0  0  0  0  0  0  0  0
   26.3676  -21.4776  -13.3590 O   0  0  0  0  0  0  0  0  0  0  0  0
   27.1949  -16.2237  -14.6356 C   0  0  0  0  0  0  0  0  0  0  0  0
   27.7001  -15.1403  -15.3370 C   0  0  0  0  0  0  0  0  0  0  0  0
   28.6276  -20.3962   -6.4510 C   0  0  0  0  0  0  0  0  0  0  0  0
   26.9467  -20.3759   -7.0935 S   0  0  0  0  0  0  0  0  0  0  0  0
   26.9181  -20.9344   -8.8479 C   0  0  0  0  0  0  0  0  0  0  0  0
   25.5636  -20.6269   -9.3666 C   0  0  0  0  0  0  0  0  0  0  0  0
   25.3340  -20.9549  -10.8294 C   0  0  2  0  0  0  0  0  0  0  0  0
   26.3617  -20.1363  -11.5203 N   0  0  0  0  0  0  0  0  0  0  0  0
   24.0257  -20.5007  -11.3344 C   0  0  0  0  0  0  0  0  0  0  0  0
   23.8734  -19.3249  -11.8318 O   0  0  0  0  0  0  0  0  0  0  0  0
   22.8806  -21.3537  -11.2933 N   0  0  0  0  0  0  0  0  0  0  0  0
   21.6023  -20.8525  -11.8246 C   0  0  1  0  0  0  0  0  0  0  0  0
   21.7591  -20.5395  -13.2907 C   0  0  0  0  0  0  0  0  0  0  0  0
   22.3304  -21.7136  -14.0293 C   0  0  0  0  0  0  0  0  0  0  0  0
   22.2496  -21.4226  -15.4868 C   0  0  0  0  0  0  0  0  0  0  0  0
   23.0615  -21.9937  -16.2473 O   0  0  0  0  0  0  0  0  0  0  0  0
   20.5072  -21.7943  -11.5187 C   0  0  0  0  0  0  0  0  0  0  0  0
   19.2900  -21.5835  -11.7532 O   0  0  0  0  0  0  0  0  0  0  0  0
   21.2956  -20.5452  -15.9451 O   0  0  0  0  0  0  0  0  0  0  0  0
   20.7539  -23.0502  -10.9178 O   0  0  0  0  0  0  0  0  0  0  0  0
  2  1  1  0
  3  2  2  0
  4  3  1  0
  5  4  2  0
  5 11  1  0
  6  5  1  0
  7  9  1  0
  7  6  1  0
  7  8  1  6
  9 10  2  0
 11 12  2  0
 12  2  1  0
 14 13  1  0
 15 14  1  0
 16 15  1  0
 17 16  1  1
 17 19  1  0
 18 17  1  0
 18  9  1  0
 19 20  2  0
 21 22  1  0
 21 19  1  0
 22 27  1  0
 22 23  1  6
 24 23  1  0
 24 25  1  0
 25 26  2  0
 27 28  2  0
 27 30  1  0
 29 25  1  0
M  END
$$$$
