YME.pdb
     RDKit          3D

 30 30  0  0  1  0  0  0  0  0999 V2000
   24.5008  -14.3322  -20.1180 O   0  0  0  0  0  0  0  0  0  0  0  0
   24.0974  -15.3928  -19.2886 C   0  0  0  0  0  0  0  0  0  0  0  0
   24.1053  -16.6993  -19.7427 C   0  0  0  0  0  0  0  0  0  0  0  0
   23.7154  -17.7722  -18.9564 C   0  0  0  0  0  0  0  0  0  0  0  0
   23.2962  -17.5381  -17.6533 C   0  0  0  0  0  0  0  0  0  0  0  0
   22.8839  -18.6502  -16.8022 C   0  0  0  0  0  0  0  0  0  0  0  0
   23.8784  -19.0065  -15.7091 C   0  0  2  0  0  0  0  0  0  0  0  0
   25.1147  -19.5244  -16.3208 N   0  0  0  0  0  0  0  0  0  0  0  0
   23.4057  -20.0321  -14.7796 C   0  0  0  0  0  0  0  0  0  0  0  0
   23.3181  -21.2613  -15.1179 O   0  0  0  0  0  0  0  0  0  0  0  0
   23.2881  -16.2404  -17.2016 C   0  0  0  0  0  0  0  0  0  0  0  0
   23.6795  -15.1730  -17.9942 C   0  0  0  0  0  0  0  0  0  0  0  0
   26.8232  -21.7252  -10.8291 C   0  0  0  0  0  0  0  0  0  0  0  0
   25.0612  -21.7705  -11.1925 S   0  0  0  0  0  0  0  0  0  0  0  0
   24.2722  -20.1611  -10.7704 C   0  0  0  0  0  0  0  0  0  0  0  0
   22.8433  -20.2799  -11.1479 C   0  0  0  0  0  0  0  0  0  0  0  0
   22.5771  -20.8558  -12.5254 C   0  0  2  0  0  0  0  0  0  0  0  0
   23.0079  -19.7630  -13.4330 N   0  0  0  0  0  0  0  0  0  0  0  0
   21.1473  -21.0893  -12.7977 C   0  0  0  0  0  0  0  0  0  0  0  0
   20.3275  -20.1102  -12.9474 O   0  0  0  0  0  0  0  0  0  0  0  0
   20.6225  -22.4132  -12.9096 N   0  0  0  0  0  0  0  0  0  0  0  0
   19.1886  -22.5868  -13.1951 C   0  0  1  0  0  0  0  0  0  0  0  0
   19.0158  -23.6317  -14.2675 C   0  0  0  0  0  0  0  0  0  0  0  0
   17.5624  -23.8629  -14.5586 C   0  0  0  0  0  0  0  0  0  0  0  0
   17.4653  -24.9273  -15.5946 C   0  0  0  0  0  0  0  0  0  0  0  0
   16.8972  -25.9980  -15.2874 O   0  0  0  0  0  0  0  0  0  0  0  0
   18.4409  -22.8629  -11.9524 C   0  0  0  0  0  0  0  0  0  0  0  0
   18.8124  -23.6556  -11.0499 O   0  0  0  0  0  0  0  0  0  0  0  0
   17.9972  -24.7016  -16.8420 O   0  0  0  0  0  0  0  0  0  0  0  0
   17.2062  -22.2331  -11.6730 O   0  0  0  0  0  0  0  0  0  0  0  0
  2  1  1  0
  3  2  2  0
  4  3  1  0
  5  4  2  0
  5 11  1  0
  6  5  1  0
  7  9  1  0
  7  6  1  0
  7  8  1  6
  9 10  2  0
 11 12  2  0
 12  2  1  0
 14 13  1  0
 15 14  1  0
 16 15  1  0
 17 16  1  1
 17 19  1  0
 18 17  1  0
 18  9  1  0
 19 20  2  0
 21 22  1  0
 21 19  1  0
 22 27  1  0
 22 23  1  6
 24 23  1  0
 24 25  1  0
 25 26  2  0
 27 28  2  0
 27 30  1  0
 29 25  1  0
M  END
$$$$
