YME.pdb
     RDKit          3D

 30 30  0  0  1  0  0  0  0  0999 V2000
   17.2763  -14.6851  -16.0751 O   0  0  0  0  0  0  0  0  0  0  0  0
   17.8289  -13.3976  -16.1865 C   0  0  0  0  0  0  0  0  0  0  0  0
   19.0959  -13.2053  -16.7071 C   0  0  0  0  0  0  0  0  0  0  0  0
   19.6758  -11.9526  -16.8336 C   0  0  0  0  0  0  0  0  0  0  0  0
   18.9635  -10.8334  -16.4231 C   0  0  0  0  0  0  0  0  0  0  0  0
   19.5490   -9.5020  -16.5488 C   0  0  0  0  0  0  0  0  0  0  0  0
   20.7359   -9.2490  -15.6334 C   0  0  2  0  0  0  0  0  0  0  0  0
   20.2612   -9.0897  -14.2477 N   0  0  0  0  0  0  0  0  0  0  0  0
   21.4983   -8.0441  -15.9594 C   0  0  0  0  0  0  0  0  0  0  0  0
   21.1927   -6.9006  -15.4779 O   0  0  0  0  0  0  0  0  0  0  0  0
   17.7049  -11.0238  -15.9059 C   0  0  0  0  0  0  0  0  0  0  0  0
   17.1320  -12.2797  -15.7826 C   0  0  0  0  0  0  0  0  0  0  0  0
   28.4892   -6.0460  -19.1147 C   0  0  0  0  0  0  0  0  0  0  0  0
   27.1969   -7.2019  -18.6325 S   0  0  0  0  0  0  0  0  0  0  0  0
   25.7177   -6.2967  -18.0134 C   0  0  0  0  0  0  0  0  0  0  0  0
   24.7492   -7.3266  -17.5665 C   0  0  0  0  0  0  0  0  0  0  0  0
   23.4322   -6.7971  -17.0326 C   0  0  2  0  0  0  0  0  0  0  0  0
   22.6348   -8.0322  -16.8267 N   0  0  0  0  0  0  0  0  0  0  0  0
   22.6913   -5.9761  -18.0073 C   0  0  0  0  0  0  0  0  0  0  0  0
   22.2255   -6.4853  -19.0922 O   0  0  0  0  0  0  0  0  0  0  0  0
   22.4602   -4.5851  -17.7783 N   0  0  0  0  0  0  0  0  0  0  0  0
   21.7148   -3.8137  -18.7867 C   0  0  1  0  0  0  0  0  0  0  0  0
   20.3652   -3.4378  -18.2307 C   0  0  0  0  0  0  0  0  0  0  0  0
   20.4352   -2.1319  -17.4958 C   0  0  0  0  0  0  0  0  0  0  0  0
   19.1029   -1.8781  -16.8825 C   0  0  0  0  0  0  0  0  0  0  0  0
   18.2112   -2.7416  -17.0330 O   0  0  0  0  0  0  0  0  0  0  0  0
   22.5161   -2.6683  -19.2616 C   0  0  0  0  0  0  0  0  0  0  0  0
   23.6080   -2.2968  -18.7609 O   0  0  0  0  0  0  0  0  0  0  0  0
   18.8978   -0.7156  -16.1779 O   0  0  0  0  0  0  0  0  0  0  0  0
   22.1012   -1.8744  -20.3557 O   0  0  0  0  0  0  0  0  0  0  0  0
  2  1  1  0
  3  2  2  0
  4  3  1  0
  5  4  2  0
  5 11  1  0
  6  5  1  0
  7  9  1  0
  7  6  1  0
  7  8  1  1
  9 10  2  0
 11 12  2  0
 12  2  1  0
 14 13  1  0
 15 14  1  0
 16 15  1  0
 17 16  1  6
 17 19  1  0
 18 17  1  0
 18  9  1  0
 19 20  2  0
 21 22  1  0
 21 19  1  0
 22 27  1  0
 22 23  1  1
 24 23  1  0
 24 25  1  0
 25 26  2  0
 27 28  2  0
 27 30  1  0
 29 25  1  0
M  END
$$$$
