YME.pdb
     RDKit          3D

 30 30  0  0  1  0  0  0  0  0999 V2000
   29.2122  -15.7462  -18.6740 O   0  0  0  0  0  0  0  0  0  0  0  0
   28.5119  -16.5652  -17.7716 C   0  0  0  0  0  0  0  0  0  0  0  0
   28.3382  -16.1902  -16.4516 C   0  0  0  0  0  0  0  0  0  0  0  0
   27.6543  -16.9692  -15.5313 C   0  0  0  0  0  0  0  0  0  0  0  0
   27.1153  -18.1819  -15.9403 C   0  0  0  0  0  0  0  0  0  0  0  0
   26.3869  -19.0201  -14.9926 C   0  0  0  0  0  0  0  0  0  0  0  0
   27.2635  -19.9672  -14.1893 C   0  0  2  0  0  0  0  0  0  0  0  0
   27.8772  -20.9542  -15.0947 N   0  0  0  0  0  0  0  0  0  0  0  0
   26.5458  -20.7241  -13.1639 C   0  0  0  0  0  0  0  0  0  0  0  0
   26.0780  -21.8916  -13.3900 O   0  0  0  0  0  0  0  0  0  0  0  0
   27.2876  -18.5550  -17.2514 C   0  0  0  0  0  0  0  0  0  0  0  0
   27.9727  -17.7704  -18.1656 C   0  0  0  0  0  0  0  0  0  0  0  0
   28.7445  -20.5589   -6.7478 C   0  0  0  0  0  0  0  0  0  0  0  0
   27.1080  -20.1722   -7.3889 S   0  0  0  0  0  0  0  0  0  0  0  0
   26.8708  -20.9246   -9.0527 C   0  0  0  0  0  0  0  0  0  0  0  0
   25.6152  -20.3551   -9.5981 C   0  0  0  0  0  0  0  0  0  0  0  0
   25.2368  -20.8219  -10.9906 C   0  0  2  0  0  0  0  0  0  0  0  0
   26.3071  -20.2413  -11.8396 N   0  0  0  0  0  0  0  0  0  0  0  0
   23.9640  -20.2563  -11.4735 C   0  0  0  0  0  0  0  0  0  0  0  0
   23.9353  -19.3953  -12.4279 O   0  0  0  0  0  0  0  0  0  0  0  0
   22.7157  -20.6491  -10.9007 N   0  0  0  0  0  0  0  0  0  0  0  0
   21.5550  -20.8353  -11.7870 C   0  0  1  0  0  0  0  0  0  0  0  0
   21.9107  -21.8138  -12.8769 C   0  0  0  0  0  0  0  0  0  0  0  0
   21.5958  -21.2450  -14.2289 C   0  0  0  0  0  0  0  0  0  0  0  0
   20.9263  -22.3066  -15.0291 C   0  0  0  0  0  0  0  0  0  0  0  0
   21.6415  -23.0530  -15.7326 O   0  0  0  0  0  0  0  0  0  0  0  0
   20.3584  -21.2057  -11.0055 C   0  0  0  0  0  0  0  0  0  0  0  0
   19.2571  -20.6002  -11.0449 O   0  0  0  0  0  0  0  0  0  0  0  0
   19.5585  -22.4311  -14.9697 O   0  0  0  0  0  0  0  0  0  0  0  0
   20.3607  -22.3098  -10.1223 O   0  0  0  0  0  0  0  0  0  0  0  0
  2  1  1  0
  3  2  2  0
  4  3  1  0
  5  4  2  0
  5 11  1  0
  6  5  1  0
  7  9  1  0
  7  6  1  0
  7  8  1  6
  9 10  2  0
 11 12  2  0
 12  2  1  0
 14 13  1  0
 15 14  1  0
 16 15  1  0
 17 16  1  1
 17 19  1  0
 18 17  1  0
 18  9  1  0
 19 20  2  0
 21 22  1  0
 21 19  1  0
 22 27  1  0
 22 23  1  6
 24 23  1  0
 24 25  1  0
 25 26  2  0
 27 28  2  0
 27 30  1  0
 29 25  1  0
M  END
$$$$
