YME.pdb
     RDKit          3D

 30 30  0  0  1  0  0  0  0  0999 V2000
   16.3441  -22.9242  -11.8847 O   0  0  0  0  0  0  0  0  0  0  0  0
   17.6911  -22.6626  -12.1891 C   0  0  0  0  0  0  0  0  0  0  0  0
   18.3080  -21.4998  -11.7641 C   0  0  0  0  0  0  0  0  0  0  0  0
   19.6334  -21.2051  -12.0433 C   0  0  0  0  0  0  0  0  0  0  0  0
   20.3857  -22.1092  -12.7816 C   0  0  0  0  0  0  0  0  0  0  0  0
   21.7849  -21.8256  -13.0865 C   0  0  0  0  0  0  0  0  0  0  0  0
   22.2710  -20.4694  -12.6014 C   0  0  2  0  0  0  0  0  0  0  0  0
   21.7286  -19.4134  -13.4740 N   0  0  0  0  0  0  0  0  0  0  0  0
   23.7256  -20.3164  -12.6079 C   0  0  0  0  0  0  0  0  0  0  0  0
   24.3087  -19.4352  -13.3264 O   0  0  0  0  0  0  0  0  0  0  0  0
   19.7736  -23.2645  -13.2041 C   0  0  0  0  0  0  0  0  0  0  0  0
   18.4476  -23.5518  -12.9208 C   0  0  0  0  0  0  0  0  0  0  0  0
   25.7756  -20.1842   -7.3529 C   0  0  0  0  0  0  0  0  0  0  0  0
   27.4624  -19.9674   -7.9414 S   0  0  0  0  0  0  0  0  0  0  0  0
   27.6179  -20.5405   -9.6844 C   0  0  0  0  0  0  0  0  0  0  0  0
   26.2423  -20.8235  -10.1598 C   0  0  0  0  0  0  0  0  0  0  0  0
   26.0415  -20.7487  -11.6612 C   0  0  2  0  0  0  0  0  0  0  0  0
   24.6135  -21.1190  -11.8258 N   0  0  0  0  0  0  0  0  0  0  0  0
   26.8241  -21.7496  -12.4086 C   0  0  0  0  0  0  0  0  0  0  0  0
   28.0781  -21.9214  -12.1826 O   0  0  0  0  0  0  0  0  0  0  0  0
   26.2151  -22.5683  -13.4084 N   0  0  0  0  0  0  0  0  0  0  0  0
   26.4151  -22.2249  -14.8260 C   0  0  1  0  0  0  0  0  0  0  0  0
   25.4324  -21.1536  -15.2239 C   0  0  0  0  0  0  0  0  0  0  0  0
   25.6216  -20.7619  -16.6597 C   0  0  0  0  0  0  0  0  0  0  0  0
   24.6321  -19.6969  -16.9793 C   0  0  0  0  0  0  0  0  0  0  0  0
   23.4356  -19.8938  -16.6738 O   0  0  0  0  0  0  0  0  0  0  0  0
   27.8272  -21.8790  -15.0828 C   0  0  0  0  0  0  0  0  0  0  0  0
   28.3899  -20.8211  -14.7019 O   0  0  0  0  0  0  0  0  0  0  0  0
   25.0605  -18.5438  -17.5931 O   0  0  0  0  0  0  0  0  0  0  0  0
   28.6846  -22.7433  -15.8020 O   0  0  0  0  0  0  0  0  0  0  0  0
  2  1  1  0
  3  2  2  0
  4  3  1  0
  5  4  2  0
  5 11  1  0
  6  5  1  0
  7  9  1  0
  7  6  1  0
  7  8  1  6
  9 10  2  0
 11 12  2  0
 12  2  1  0
 14 13  1  0
 15 14  1  0
 16 15  1  0
 17 16  1  1
 17 19  1  0
 18 17  1  0
 18  9  1  0
 19 20  2  0
 21 22  1  0
 21 19  1  0
 22 27  1  0
 22 23  1  1
 24 23  1  0
 24 25  1  0
 25 26  2  0
 27 28  2  0
 27 30  1  0
 29 25  1  0
M  END
$$$$
