RTS.pdb
     RDKit          3D

 25 24  0  0  1  0  0  0  0  0999 V2000
   14.9491  -14.6343  -18.0368 N   0  0  0  0  0  0  0  0  0  0  0  0
   14.9833  -13.9158  -19.2770 C   0  0  0  0  0  0  0  0  0  0  0  0
   13.9598  -14.0017  -20.0472 N   0  0  0  0  0  0  0  0  0  0  0  0
   16.1399  -13.1669  -19.5577 N   0  0  0  0  0  0  0  0  0  0  0  0
   17.2301  -13.1672  -18.6042 C   0  0  0  0  0  0  0  0  0  0  0  0
   16.9572  -12.0471  -17.6234 C   0  0  0  0  0  0  0  0  0  0  0  0
   18.1589  -11.1792  -17.4405 C   0  0  0  0  0  0  0  0  0  0  0  0
   19.3913  -11.9629  -16.9969 C   0  0  2  0  0  0  0  0  0  0  0  0
   18.9064  -13.1633  -16.3681 N   0  0  0  0  0  0  0  0  0  0  0  0
   20.0779  -11.0684  -15.9964 C   0  0  0  0  0  0  0  0  0  0  0  0
   19.5711  -10.8609  -14.8648 O   0  0  0  0  0  0  0  0  0  0  0  0
   13.9287  -13.4667  -20.9159 C   0  0  0  0  0  0  0  0  0  0  0  0
   24.2142   -9.0925  -14.2462 C   0  0  2  0  0  0  0  0  0  0  0  0
   23.4701   -9.9370  -15.2193 O   0  0  0  0  0  0  0  0  0  0  0  0
   23.5274  -11.2619  -14.7895 C   0  0  1  0  0  0  0  0  0  0  0  0
   21.9903   -9.5790  -15.3172 N   0  0  0  0  0  0  0  0  0  0  0  0
   21.3098  -10.4264  -16.2764 C   0  0  0  0  0  0  0  0  0  0  0  0
   21.7962   -8.1401  -15.6219 O   0  0  0  0  0  0  0  0  0  0  0  0
   22.0664   -7.6379  -16.7417 O   0  0  0  0  0  0  0  0  0  0  0  0
   18.8064   -6.1087  -14.9660 C   0  0  0  0  0  0  0  0  0  0  0  0
   19.7883   -5.2799  -14.4350 C   0  0  2  0  0  0  0  0  0  0  0  0
   21.1257   -5.8241  -14.8833 N   0  0  0  0  0  0  0  0  0  0  0  0
   21.2793   -7.2172  -14.6408 C   0  0  0  0  0  0  0  0  0  0  0  0
   22.1756   -5.0723  -14.1557 O   0  0  0  0  0  0  0  0  0  0  0  0
   22.9260   -5.7080  -13.3676 O   0  0  0  0  0  0  0  0  0  0  0  0
  2  1  1  0
  2  3  2  0
  4  2  1  0
  5  4  1  0
  6  5  1  0
  7  8  1  0
  7  6  1  0
  8  9  1  1
 10 16  1  0
 10  8  1  0
 11 10  2  0
 13 15  1  0
 13 12  1  6
 14 13  1  0
 15 16  1  6
 17 18  2  0
 17 15  1  0
 19 20  1  0
 21 20  1  6
 21 22  1  0
 22 17  1  0
 23 21  1  0
 24 23  2  0
 25 23  1  0
M  END
$$$$
