RTS.pdb
     RDKit          3D

 25 24  0  0  1  0  0  0  0  0999 V2000
   17.6143  -16.9746  -16.8717 N   0  0  0  0  0  0  0  0  0  0  0  0
   18.1420  -16.8665  -18.2003 C   0  0  0  0  0  0  0  0  0  0  0  0
   17.5729  -17.5477  -19.1278 N   0  0  0  0  0  0  0  0  0  0  0  0
   19.2475  -16.0183  -18.3891 N   0  0  0  0  0  0  0  0  0  0  0  0
   19.3747  -14.8311  -17.5692 C   0  0  0  0  0  0  0  0  0  0  0  0
   20.8358  -14.7112  -17.1921 C   0  0  0  0  0  0  0  0  0  0  0  0
   21.0756  -13.5273  -16.3137 C   0  0  0  0  0  0  0  0  0  0  0  0
   20.9698  -12.2031  -17.0655 C   0  0  2  0  0  0  0  0  0  0  0  0
   21.8110  -12.3256  -18.2270 N   0  0  0  0  0  0  0  0  0  0  0  0
   21.5149  -11.1724  -16.1100 C   0  0  0  0  0  0  0  0  0  0  0  0
   21.0410  -11.0547  -14.9516 O   0  0  0  0  0  0  0  0  0  0  0  0
   17.9042  -17.4752  -20.0905 C   0  0  0  0  0  0  0  0  0  0  0  0
   25.1286  -10.6202  -15.0958 C   0  0  2  0  0  0  0  0  0  0  0  0
   24.5889   -9.2914  -15.4918 O   0  0  0  0  0  0  0  0  0  0  0  0
   25.0611   -8.9846  -16.7671 C   0  0  2  0  0  0  0  0  0  0  0  0
   23.0660   -9.2626  -15.5772 N   0  0  0  0  0  0  0  0  0  0  0  0
   22.5725  -10.2980  -16.4637 C   0  0  0  0  0  0  0  0  0  0  0  0
   22.5669   -7.9215  -15.9689 O   0  0  0  0  0  0  0  0  0  0  0  0
   22.0737   -7.6811  -17.0994 O   0  0  0  0  0  0  0  0  0  0  0  0
   19.9980   -4.3858  -15.7424 C   0  0  0  0  0  0  0  0  0  0  0  0
   20.4844   -5.6659  -15.5023 C   0  0  1  0  0  0  0  0  0  0  0  0
   21.9825   -5.5525  -15.3328 N   0  0  0  0  0  0  0  0  0  0  0  0
   22.6171   -6.7972  -15.0662 C   0  0  0  0  0  0  0  0  0  0  0  0
   22.2311   -4.6155  -14.2116 O   0  0  0  0  0  0  0  0  0  0  0  0
   22.6836   -5.0839  -13.1326 O   0  0  0  0  0  0  0  0  0  0  0  0
  2  1  1  0
  2  3  2  0
  4  2  1  0
  5  4  1  0
  6  5  1  0
  7  8  1  0
  7  6  1  0
  8  9  1  6
 10 16  1  0
 10  8  1  0
 11 10  2  0
 13 15  1  0
 13 12  1  1
 14 13  1  0
 15 16  1  1
 17 18  2  0
 17 15  1  0
 19 20  1  0
 21 20  1  6
 21 22  1  0
 22 17  1  0
 23 21  1  0
 24 23  2  0
 25 23  1  0
M  END
$$$$
