RTS.pdb
     RDKit          3D

 25 24  0  0  1  0  0  0  0  0999 V2000
   26.4903  -21.5993  -10.2831 N   0  0  0  0  0  0  0  0  0  0  0  0
   25.2361  -21.0565   -9.8497 C   0  0  0  0  0  0  0  0  0  0  0  0
   24.9325  -21.1686   -8.6073 N   0  0  0  0  0  0  0  0  0  0  0  0
   24.4294  -20.4386  -10.8216 N   0  0  0  0  0  0  0  0  0  0  0  0
   24.3595  -21.0122  -12.1498 C   0  0  0  0  0  0  0  0  0  0  0  0
   25.6003  -20.5609  -12.8899 C   0  0  0  0  0  0  0  0  0  0  0  0
   25.3610  -19.2829  -13.6247 C   0  0  0  0  0  0  0  0  0  0  0  0
   24.6180  -19.4893  -14.9420 C   0  0  2  0  0  0  0  0  0  0  0  0
   25.2429  -20.6119  -15.5908 N   0  0  0  0  0  0  0  0  0  0  0  0
   24.8500  -18.2185  -15.7191 C   0  0  0  0  0  0  0  0  0  0  0  0
   24.3947  -17.1211  -15.3083 O   0  0  0  0  0  0  0  0  0  0  0  0
   24.0402  -20.8095   -8.2658 C   0  0  0  0  0  0  0  0  0  0  0  0
   28.1636  -16.8541  -16.8602 C   0  0  2  0  0  0  0  0  0  0  0  0
   27.2703  -16.8097  -18.0492 O   0  0  0  0  0  0  0  0  0  0  0  0
   27.6046  -17.8676  -18.8932 C   0  0  2  0  0  0  0  0  0  0  0  0
   25.7957  -16.9860  -17.6998 N   0  0  0  0  0  0  0  0  0  0  0  0
   25.5816  -18.1971  -16.9325 C   0  0  0  0  0  0  0  0  0  0  0  0
   24.9396  -16.9453  -18.9108 O   0  0  0  0  0  0  0  0  0  0  0  0
   24.2270  -17.9143  -19.2747 O   0  0  0  0  0  0  0  0  0  0  0  0
   21.5084  -14.4586  -20.0456 C   0  0  0  0  0  0  0  0  0  0  0  0
   22.6144  -14.9116  -19.3355 C   0  0  1  0  0  0  0  0  0  0  0  0
   23.6645  -15.3115  -20.3471 N   0  0  0  0  0  0  0  0  0  0  0  0
   24.8710  -15.7778  -19.7555 C   0  0  0  0  0  0  0  0  0  0  0  0
   23.9469  -14.1221  -21.1852 O   0  0  0  0  0  0  0  0  0  0  0  0
   23.0491  -13.7219  -21.9739 O   0  0  0  0  0  0  0  0  0  0  0  0
  2  1  1  0
  2  3  2  0
  4  2  1  0
  5  4  1  0
  6  5  1  0
  7  8  1  0
  7  6  1  0
  8  9  1  6
 10 16  1  0
 10  8  1  0
 11 10  2  0
 13 15  1  0
 13 12  1  6
 14 13  1  0
 15 16  1  6
 17 18  2  0
 17 15  1  0
 19 20  1  0
 21 20  1  6
 21 22  1  0
 22 17  1  0
 23 21  1  0
 24 23  2  0
 25 23  1  0
M  END
$$$$
