RTS.pdb
     RDKit          3D

 25 24  0  0  1  0  0  0  0  0999 V2000
   28.1954  -30.2318  -16.6022 N   0  0  0  0  0  0  0  0  0  0  0  0
   26.9194  -29.5840  -16.6894 C   0  0  0  0  0  0  0  0  0  0  0  0
   25.9068  -30.1844  -16.1771 N   0  0  0  0  0  0  0  0  0  0  0  0
   26.8723  -28.3339  -17.3315 N   0  0  0  0  0  0  0  0  0  0  0  0
   28.1036  -27.7374  -17.8068 C   0  0  0  0  0  0  0  0  0  0  0  0
   28.6029  -26.8239  -16.7080 C   0  0  0  0  0  0  0  0  0  0  0  0
   28.2423  -25.4000  -16.9783 C   0  0  0  0  0  0  0  0  0  0  0  0
   29.4485  -24.5488  -17.3662 C   0  0  2  0  0  0  0  0  0  0  0  0
   29.9429  -23.9635  -16.1478 N   0  0  0  0  0  0  0  0  0  0  0  0
   28.8946  -23.4918  -18.2872 C   0  0  0  0  0  0  0  0  0  0  0  0
   28.6884  -22.3224  -17.8743 O   0  0  0  0  0  0  0  0  0  0  0  0
   24.9738  -29.7812  -16.2701 C   0  0  0  0  0  0  0  0  0  0  0  0
   28.2575  -21.8727  -22.9105 C   0  0  2  0  0  0  0  0  0  0  0  0
   28.7550  -22.8705  -21.9254 O   0  0  0  0  0  0  0  0  0  0  0  0
   30.1192  -22.6585  -21.7318 C   0  0  1  0  0  0  0  0  0  0  0  0
   28.0993  -22.7396  -20.5541 N   0  0  0  0  0  0  0  0  0  0  0  0
   28.5834  -23.7585  -19.6438 C   0  0  0  0  0  0  0  0  0  0  0  0
   26.6192  -22.7517  -20.6539 O   0  0  0  0  0  0  0  0  0  0  0  0
   25.9691  -23.7617  -21.0233 O   0  0  0  0  0  0  0  0  0  0  0  0
   22.4240  -20.3590  -20.1424 C   0  0  0  0  0  0  0  0  0  0  0  0
   23.8057  -20.2228  -20.0703 C   0  0  2  0  0  0  0  0  0  0  0  0
   24.4089  -21.5538  -20.4581 N   0  0  0  0  0  0  0  0  0  0  0  0
   25.8249  -21.5918  -20.3294 C   0  0  0  0  0  0  0  0  0  0  0  0
   24.0287  -21.8184  -21.8661 O   0  0  0  0  0  0  0  0  0  0  0  0
   24.6815  -21.2433  -22.7779 O   0  0  0  0  0  0  0  0  0  0  0  0
  2  1  1  0
  2  3  2  0
  4  2  1  0
  5  4  1  0
  6  5  1  0
  7  8  1  0
  7  6  1  0
  8  9  1  1
 10 16  1  0
 10  8  1  0
 11 10  2  0
 13 15  1  0
 13 12  1  6
 14 13  1  0
 15 16  1  6
 17 18  2  0
 17 15  1  0
 19 20  1  0
 21 20  1  1
 21 22  1  0
 22 17  1  0
 23 21  1  0
 24 23  2  0
 25 23  1  0
M  END
$$$$
