RTS.pdb
     RDKit          3D

 25 24  0  0  1  0  0  0  0  0999 V2000
   18.9618  -23.6522  -12.0088 N   0  0  0  0  0  0  0  0  0  0  0  0
   19.8767  -23.2520  -10.9801 C   0  0  0  0  0  0  0  0  0  0  0  0
   19.5806  -23.5489   -9.7666 N   0  0  0  0  0  0  0  0  0  0  0  0
   21.0353  -22.5620  -11.3788 N   0  0  0  0  0  0  0  0  0  0  0  0
   21.2003  -22.2056  -12.7730 C   0  0  0  0  0  0  0  0  0  0  0  0
   22.6658  -22.3896  -13.1038 C   0  0  0  0  0  0  0  0  0  0  0  0
   23.5232  -21.4556  -12.3143 C   0  0  0  0  0  0  0  0  0  0  0  0
   24.9959  -21.5296  -12.7090 C   0  0  2  0  0  0  0  0  0  0  0  0
   25.7168  -21.9118  -11.5234 N   0  0  0  0  0  0  0  0  0  0  0  0
   25.3534  -20.1269  -13.1299 C   0  0  0  0  0  0  0  0  0  0  0  0
   25.7800  -19.2927  -12.2918 O   0  0  0  0  0  0  0  0  0  0  0  0
   20.2129  -23.2888   -9.0089 C   0  0  0  0  0  0  0  0  0  0  0  0
   28.0341  -18.9135  -14.3716 C   0  0  2  0  0  0  0  0  0  0  0  0
   27.0871  -18.3640  -15.3791 O   0  0  0  0  0  0  0  0  0  0  0  0
   27.1293  -19.1735  -16.5133 C   0  0  2  0  0  0  0  0  0  0  0  0
   25.6375  -18.3632  -14.9035 N   0  0  0  0  0  0  0  0  0  0  0  0
   25.2287  -19.6848  -14.4705 C   0  0  0  0  0  0  0  0  0  0  0  0
   24.7244  -17.8179  -15.9378 O   0  0  0  0  0  0  0  0  0  0  0  0
   23.6596  -18.3920  -16.2782 O   0  0  0  0  0  0  0  0  0  0  0  0
   23.2403  -14.4104  -15.9434 C   0  0  0  0  0  0  0  0  0  0  0  0
   22.8410  -15.4370  -16.7915 C   0  0  1  0  0  0  0  0  0  0  0  0
   24.0786  -15.9440  -17.4966 N   0  0  0  0  0  0  0  0  0  0  0  0
   25.0049  -16.5808  -16.6251 C   0  0  0  0  0  0  0  0  0  0  0  0
   24.7252  -14.7798  -18.1473 O   0  0  0  0  0  0  0  0  0  0  0  0
   25.9097  -14.4973  -17.8225 O   0  0  0  0  0  0  0  0  0  0  0  0
  2  1  1  0
  2  3  2  0
  4  2  1  0
  5  4  1  0
  6  5  1  0
  7  8  1  0
  7  6  1  0
  8  9  1  1
 10 16  1  0
 10  8  1  0
 11 10  2  0
 13 15  1  0
 13 12  1  6
 14 13  1  0
 15 16  1  6
 17 18  2  0
 17 15  1  0
 19 20  1  0
 21 20  1  6
 21 22  1  0
 22 17  1  0
 23 21  1  0
 24 23  2  0
 25 23  1  0
M  END
$$$$
