RTS.pdb
     RDKit          3D

 25 24  0  0  1  0  0  0  0  0999 V2000
   24.0111  -25.1705  -20.6674 N   0  0  0  0  0  0  0  0  0  0  0  0
   24.1836  -25.5739  -19.3025 C   0  0  0  0  0  0  0  0  0  0  0  0
   23.5038  -26.5798  -18.8850 N   0  0  0  0  0  0  0  0  0  0  0  0
   25.0888  -24.8352  -18.5202 N   0  0  0  0  0  0  0  0  0  0  0  0
   25.8243  -23.7466  -19.1300 C   0  0  0  0  0  0  0  0  0  0  0  0
   26.7055  -23.1525  -18.0522 C   0  0  0  0  0  0  0  0  0  0  0  0
   28.0576  -23.7868  -18.0439 C   0  0  0  0  0  0  0  0  0  0  0  0
   28.8970  -23.3721  -16.8384 C   0  0  2  0  0  0  0  0  0  0  0  0
   28.9348  -21.9333  -16.8436 N   0  0  0  0  0  0  0  0  0  0  0  0
   30.2642  -23.9493  -17.1032 C   0  0  0  0  0  0  0  0  0  0  0  0
   31.1365  -23.2825  -17.7153 O   0  0  0  0  0  0  0  0  0  0  0  0
   23.5576  -26.8606  -17.9052 C   0  0  0  0  0  0  0  0  0  0  0  0
   32.7334  -24.9261  -14.5849 C   0  0  2  0  0  0  0  0  0  0  0  0
   32.5814  -26.1133  -15.4689 O   0  0  0  0  0  0  0  0  0  0  0  0
   31.7083  -27.0113  -14.8570 C   0  0  2  0  0  0  0  0  0  0  0  0
   31.9728  -25.7772  -16.8269 N   0  0  0  0  0  0  0  0  0  0  0  0
   30.6295  -25.2522  -16.6822 C   0  0  0  0  0  0  0  0  0  0  0  0
   32.0105  -26.9421  -17.7448 O   0  0  0  0  0  0  0  0  0  0  0  0
   30.9858  -27.6017  -18.0516 O   0  0  0  0  0  0  0  0  0  0  0  0
   35.6414  -28.3949  -19.1663 C   0  0  0  0  0  0  0  0  0  0  0  0
   34.5862  -28.5222  -20.0626 C   0  0  1  0  0  0  0  0  0  0  0  0
   33.3068  -28.4878  -19.2577 N   0  0  0  0  0  0  0  0  0  0  0  0
   33.2396  -27.3955  -18.3492 C   0  0  0  0  0  0  0  0  0  0  0  0
   33.2200  -29.7647  -18.5101 O   0  0  0  0  0  0  0  0  0  0  0  0
   33.2708  -29.7231  -17.2515 O   0  0  0  0  0  0  0  0  0  0  0  0
  2  1  1  0
  2  3  2  0
  4  2  1  0
  5  4  1  0
  6  5  1  0
  7  8  1  0
  7  6  1  0
  8  9  1  6
 10 16  1  0
 10  8  1  0
 11 10  2  0
 13 15  1  0
 13 12  1  1
 14 13  1  0
 15 16  1  6
 17 18  2  0
 17 15  1  0
 19 20  1  0
 21 20  1  6
 21 22  1  0
 22 17  1  0
 23 21  1  0
 24 23  2  0
 25 23  1  0
M  END
$$$$
