RTS.pdb
     RDKit          3D

 25 24  0  0  1  0  0  0  0  0999 V2000
   15.6311  -14.9588  -14.5930 N   0  0  0  0  0  0  0  0  0  0  0  0
   15.7802  -13.5515  -14.3635 C   0  0  0  0  0  0  0  0  0  0  0  0
   14.8138  -12.9331  -13.7874 N   0  0  0  0  0  0  0  0  0  0  0  0
   16.9791  -12.9514  -14.7874 N   0  0  0  0  0  0  0  0  0  0  0  0
   17.1137  -12.5427  -16.1704 C   0  0  0  0  0  0  0  0  0  0  0  0
   16.3358  -11.2535  -16.3260 C   0  0  0  0  0  0  0  0  0  0  0  0
   17.2489  -10.0765  -16.4330 C   0  0  0  0  0  0  0  0  0  0  0  0
   17.4841   -9.6409  -17.8769 C   0  0  2  0  0  0  0  0  0  0  0  0
   18.1663  -10.7299  -18.5251 N   0  0  0  0  0  0  0  0  0  0  0  0
   18.3756   -8.4297  -17.7741 C   0  0  0  0  0  0  0  0  0  0  0  0
   19.5978   -8.5043  -18.0588 O   0  0  0  0  0  0  0  0  0  0  0  0
   14.9074  -11.9436  -13.5556 C   0  0  0  0  0  0  0  0  0  0  0  0
   18.6436   -3.5211  -18.0457 C   0  0  2  0  0  0  0  0  0  0  0  0
   17.9072   -4.8139  -18.0606 O   0  0  0  0  0  0  0  0  0  0  0  0
   17.6880   -5.1826  -19.3871 C   0  0  1  0  0  0  0  0  0  0  0  0
   18.6871   -5.9571  -17.4184 N   0  0  0  0  0  0  0  0  0  0  0  0
   17.8886   -7.1655  -17.3582 C   0  0  0  0  0  0  0  0  0  0  0  0
   19.2099   -5.5781  -16.0828 O   0  0  0  0  0  0  0  0  0  0  0  0
   18.4659   -5.3909  -15.0875 O   0  0  0  0  0  0  0  0  0  0  0  0
   23.0370   -4.7200  -13.2265 C   0  0  0  0  0  0  0  0  0  0  0  0
   22.6574   -5.1305  -14.4994 C   0  0  2  0  0  0  0  0  0  0  0  0
   21.1532   -5.0028  -14.5824 N   0  0  0  0  0  0  0  0  0  0  0  0
   20.6208   -5.3988  -15.8405 C   0  0  0  0  0  0  0  0  0  0  0  0
   20.8146   -3.5836  -14.3218 O   0  0  0  0  0  0  0  0  0  0  0  0
   20.9852   -2.7498  -15.2512 O   0  0  0  0  0  0  0  0  0  0  0  0
  2  1  1  0
  2  3  2  0
  4  2  1  0
  5  4  1  0
  6  5  1  0
  7  8  1  0
  7  6  1  0
  8  9  1  6
 10 16  1  0
 10  8  1  0
 11 10  2  0
 13 15  1  0
 13 12  1  1
 14 13  1  0
 15 16  1  1
 17 18  2  0
 17 15  1  0
 19 20  1  0
 21 20  1  1
 21 22  1  0
 22 17  1  0
 23 21  1  0
 24 23  2  0
 25 23  1  0
M  END
$$$$
