RTS.pdb
     RDKit          3D

 25 24  0  0  1  0  0  0  0  0999 V2000
   13.8153  -14.5542  -10.9680 N   0  0  0  0  0  0  0  0  0  0  0  0
   12.3991  -14.7418  -10.8474 C   0  0  0  0  0  0  0  0  0  0  0  0
   11.9755  -15.9080  -10.5175 N   0  0  0  0  0  0  0  0  0  0  0  0
   11.5765  -13.6295  -11.0996 N   0  0  0  0  0  0  0  0  0  0  0  0
   12.1869  -12.3691  -11.4689 C   0  0  0  0  0  0  0  0  0  0  0  0
   12.4885  -11.6323  -10.1814 C   0  0  0  0  0  0  0  0  0  0  0  0
   13.0840  -10.2891  -10.4499 C   0  0  0  0  0  0  0  0  0  0  0  0
   13.5205   -9.5714   -9.1755 C   0  0  2  0  0  0  0  0  0  0  0  0
   12.3201   -9.2983   -8.4299 N   0  0  0  0  0  0  0  0  0  0  0  0
   14.1624   -8.2937   -9.6529 C   0  0  0  0  0  0  0  0  0  0  0  0
   13.4711   -7.2638   -9.8575 O   0  0  0  0  0  0  0  0  0  0  0  0
   10.9732  -16.0825  -10.4359 C   0  0  0  0  0  0  0  0  0  0  0  0
   16.2268   -6.4829   -7.6449 C   0  0  2  0  0  0  0  0  0  0  0  0
   15.9298   -5.9360   -8.9964 O   0  0  0  0  0  0  0  0  0  0  0  0
   16.7525   -4.8325   -9.2174 C   0  0  1  0  0  0  0  0  0  0  0  0
   16.2217   -6.9238  -10.1218 N   0  0  0  0  0  0  0  0  0  0  0  0
   15.5555   -8.1904   -9.8913 C   0  0  0  0  0  0  0  0  0  0  0  0
   17.6802   -7.1007  -10.3277 O   0  0  0  0  0  0  0  0  0  0  0  0
   18.3990   -7.7868   -9.5585 O   0  0  0  0  0  0  0  0  0  0  0  0
   18.9346   -8.5599  -13.2440 C   0  0  0  0  0  0  0  0  0  0  0  0
   19.8213   -8.3148  -12.2016 C   0  0  1  0  0  0  0  0  0  0  0  0
   19.6882   -6.8546  -11.8330 N   0  0  0  0  0  0  0  0  0  0  0  0
   18.3720   -6.4893  -11.4363 C   0  0  0  0  0  0  0  0  0  0  0  0
   20.0905   -6.0606  -13.0181 O   0  0  0  0  0  0  0  0  0  0  0  0
   19.2263   -5.3220  -13.5621 O   0  0  0  0  0  0  0  0  0  0  0  0
  2  1  1  0
  2  3  2  0
  4  2  1  0
  5  4  1  0
  6  5  1  0
  7  8  1  0
  7  6  1  0
  8  9  1  1
 10 16  1  0
 10  8  1  0
 11 10  2  0
 13 15  1  0
 13 12  1  1
 14 13  1  0
 15 16  1  1
 17 18  2  0
 17 15  1  0
 19 20  1  0
 21 20  1  1
 21 22  1  0
 22 17  1  0
 23 21  1  0
 24 23  2  0
 25 23  1  0
M  END
$$$$
