RTS.pdb
     RDKit          3D

 25 24  0  0  1  0  0  0  0  0999 V2000
   25.8111  -26.2431  -15.8949 N   0  0  0  0  0  0  0  0  0  0  0  0
   26.5544  -25.4354  -16.8171 C   0  0  0  0  0  0  0  0  0  0  0  0
   26.5683  -25.7930  -18.0501 N   0  0  0  0  0  0  0  0  0  0  0  0
   27.2148  -24.3066  -16.3002 N   0  0  0  0  0  0  0  0  0  0  0  0
   26.4565  -23.3270  -15.5498 C   0  0  0  0  0  0  0  0  0  0  0  0
   26.8150  -21.9681  -16.1121 C   0  0  0  0  0  0  0  0  0  0  0  0
   26.0503  -20.8794  -15.4335 C   0  0  0  0  0  0  0  0  0  0  0  0
   24.7278  -20.5655  -16.1279 C   0  0  2  0  0  0  0  0  0  0  0  0
   24.9944  -19.4885  -17.0447 N   0  0  0  0  0  0  0  0  0  0  0  0
   23.8077  -20.1173  -15.0210 C   0  0  0  0  0  0  0  0  0  0  0  0
   23.7712  -18.9129  -14.6628 O   0  0  0  0  0  0  0  0  0  0  0  0
   27.0802  -25.2377  -18.7366 C   0  0  0  0  0  0  0  0  0  0  0  0
   21.7992  -18.4107  -14.8358 C   0  0  2  0  0  0  0  0  0  0  0  0
   20.9867  -19.5454  -14.3199 O   0  0  0  0  0  0  0  0  0  0  0  0
   20.4230  -20.2149  -15.4050 C   0  0  2  0  0  0  0  0  0  0  0  0
   21.8119  -20.5775  -13.5575 N   0  0  0  0  0  0  0  0  0  0  0  0
   22.9509  -21.0168  -14.3391 C   0  0  0  0  0  0  0  0  0  0  0  0
   20.9784  -21.7212  -13.1121 O   0  0  0  0  0  0  0  0  0  0  0  0
   20.9262  -22.8105  -13.7363 O   0  0  0  0  0  0  0  0  0  0  0  0
   17.8327  -23.5406   -9.8913 C   0  0  0  0  0  0  0  0  0  0  0  0
   18.6303  -22.4384  -10.1774 C   0  0  2  0  0  0  0  0  0  0  0  0
   19.2892  -22.6957  -11.5136 N   0  0  0  0  0  0  0  0  0  0  0  0
   20.1668  -21.6533  -11.9213 C   0  0  0  0  0  0  0  0  0  0  0  0
   18.2091  -22.8589  -12.5153 O   0  0  0  0  0  0  0  0  0  0  0  0
   17.6961  -21.8210  -13.0131 O   0  0  0  0  0  0  0  0  0  0  0  0
  2  1  1  0
  2  3  2  0
  4  2  1  0
  5  4  1  0
  6  5  1  0
  7  8  1  0
  7  6  1  0
  8  9  1  6
 10 16  1  0
 10  8  1  0
 11 10  2  0
 13 15  1  0
 13 12  1  1
 14 13  1  0
 15 16  1  1
 17 18  2  0
 17 15  1  0
 19 20  1  0
 21 20  1  1
 21 22  1  0
 22 17  1  0
 23 21  1  0
 24 23  2  0
 25 23  1  0
M  END
$$$$
