RTS.pdb
     RDKit          3D

 25 24  0  0  1  0  0  0  0  0999 V2000
   19.3832  -15.5067  -14.5392 N   0  0  0  0  0  0  0  0  0  0  0  0
   18.0470  -15.7179  -15.0137 C   0  0  0  0  0  0  0  0  0  0  0  0
   17.5567  -16.9004  -14.9157 N   0  0  0  0  0  0  0  0  0  0  0  0
   17.3701  -14.6093  -15.5522 N   0  0  0  0  0  0  0  0  0  0  0  0
   18.0177  -13.3138  -15.5432 C   0  0  0  0  0  0  0  0  0  0  0  0
   17.0824  -12.3493  -16.2403 C   0  0  0  0  0  0  0  0  0  0  0  0
   17.7045  -10.9996  -16.3890 C   0  0  0  0  0  0  0  0  0  0  0  0
   16.7289   -9.9557  -16.9259 C   0  0  2  0  0  0  0  0  0  0  0  0
   16.4370  -10.3311  -18.2843 N   0  0  0  0  0  0  0  0  0  0  0  0
   17.4897   -8.6552  -16.8764 C   0  0  0  0  0  0  0  0  0  0  0  0
   18.3317   -8.3683  -17.7647 O   0  0  0  0  0  0  0  0  0  0  0  0
   16.6235  -17.0975  -15.2790 C   0  0  0  0  0  0  0  0  0  0  0  0
   17.8323   -4.0109  -15.2317 C   0  0  2  0  0  0  0  0  0  0  0  0
   17.1058   -5.2857  -15.4782 O   0  0  0  0  0  0  0  0  0  0  0  0
   16.3029   -5.1261  -16.6065 C   0  0  1  0  0  0  0  0  0  0  0  0
   18.0349   -6.4595  -15.7724 N   0  0  0  0  0  0  0  0  0  0  0  0
   17.2970   -7.7053  -15.8426 C   0  0  0  0  0  0  0  0  0  0  0  0
   19.1461   -6.5347  -14.7924 O   0  0  0  0  0  0  0  0  0  0  0  0
   18.9740   -6.8572  -13.5901 O   0  0  0  0  0  0  0  0  0  0  0  0
   23.0591   -5.8760  -16.0386 C   0  0  0  0  0  0  0  0  0  0  0  0
   22.8970   -6.7722  -14.9881 C   0  0  1  0  0  0  0  0  0  0  0  0
   21.6119   -6.4067  -14.2805 N   0  0  0  0  0  0  0  0  0  0  0  0
   20.5088   -6.2389  -15.1625 C   0  0  0  0  0  0  0  0  0  0  0  0
   21.8567   -5.1451  -13.5421 O   0  0  0  0  0  0  0  0  0  0  0  0
   21.2796   -4.0987  -13.9423 O   0  0  0  0  0  0  0  0  0  0  0  0
  2  1  1  0
  2  3  2  0
  4  2  1  0
  5  4  1  0
  6  5  1  0
  7  8  1  0
  7  6  1  0
  8  9  1  6
 10 16  1  0
 10  8  1  0
 11 10  2  0
 13 15  1  0
 13 12  1  1
 14 13  1  0
 15 16  1  1
 17 18  2  0
 17 15  1  0
 19 20  1  0
 21 20  1  1
 21 22  1  0
 22 17  1  0
 23 21  1  0
 24 23  2  0
 25 23  1  0
M  END
$$$$
