PGP.pdb
     RDKit          3D

 19 20  0  0  1  0  0  0  0  0999 V2000
    8.0736  -15.2691   19.4577 N   0  0  0  0  0  0  0  0  0  0  0  0
    8.1397  -15.0361   18.0030 C   0  0  0  0  0  0  0  0  0  0  0  0
    7.5436  -13.6494   17.9099 C   0  0  0  0  0  0  0  0  0  0  0  0
    8.1701  -12.9263   19.0657 C   0  0  0  0  0  0  0  0  0  0  0  0
    8.5637  -14.0247   20.0150 C   0  0  1  0  0  0  0  0  0  0  0  0
    7.9689  -13.7750   21.3421 C   0  0  0  0  0  0  0  0  0  0  0  0
    8.2414  -12.7060   21.9955 O   0  0  0  0  0  0  0  0  0  0  0  0
    7.0766  -14.6599   21.9937 N   0  0  0  0  0  0  0  0  0  0  0  0
    6.4316  -14.2681   23.2356 C   0  0  0  0  0  0  0  0  0  0  0  0
    7.4124  -14.0999   24.3306 C   0  0  0  0  0  0  0  0  0  0  0  0
    8.4932  -14.7660   24.2422 O   0  0  0  0  0  0  0  0  0  0  0  0
    7.1777  -13.2474   25.4265 N   0  0  0  0  0  0  0  0  0  0  0  0
    6.0019  -12.3697   25.5180 C   0  0  0  0  0  0  0  0  0  0  0  0
    6.3847  -11.3639   26.5901 C   0  0  0  0  0  0  0  0  0  0  0  0
    7.1636  -12.2545   27.5269 C   0  0  0  0  0  0  0  0  0  0  0  0
    8.0079  -13.0816   26.5913 C   0  0  1  0  0  0  0  0  0  0  0  0
    8.4022  -14.3727   27.2195 C   0  0  0  0  0  0  0  0  0  0  0  0
    9.4813  -14.3837   27.8570 O   0  0  0  0  0  0  0  0  0  0  0  0
    7.6415  -15.5030   27.1201 O   0  0  0  0  0  0  0  0  0  0  0  0
  1  2  1  0
  3  2  1  0
  4  5  1  0
  4  3  1  0
  5  1  1  0
  5  6  1  1
  7  6  2  0
  8  6  1  0
  9  8  1  0
 10  9  1  0
 10 12  1  0
 11 10  2  0
 12 16  1  0
 13 12  1  0
 13 14  1  0
 14 15  1  0
 16 17  1  1
 16 15  1  0
 17 19  1  0
 18 17  2  0
M  END
$$$$
