PGP.pdb
     RDKit          3D

 19 20  0  0  1  0  0  0  0  0999 V2000
    8.0558  -15.2697   19.6188 N   0  0  0  0  0  0  0  0  0  0  0  0
    8.0799  -14.9324   18.1833 C   0  0  0  0  0  0  0  0  0  0  0  0
    7.3321  -13.6180   18.1878 C   0  0  0  0  0  0  0  0  0  0  0  0
    7.8868  -12.9097   19.3885 C   0  0  0  0  0  0  0  0  0  0  0  0
    8.4105  -14.0191   20.2587 C   0  0  1  0  0  0  0  0  0  0  0  0
    7.8060  -13.9283   21.6018 C   0  0  0  0  0  0  0  0  0  0  0  0
    7.9293  -12.8661   22.3092 O   0  0  0  0  0  0  0  0  0  0  0  0
    7.0628  -14.9670   22.2121 N   0  0  0  0  0  0  0  0  0  0  0  0
    6.5007  -14.7842   23.5397 C   0  0  0  0  0  0  0  0  0  0  0  0
    7.5436  -14.4403   24.5313 C   0  0  0  0  0  0  0  0  0  0  0  0
    8.6545  -15.0535   24.4341 O   0  0  0  0  0  0  0  0  0  0  0  0
    7.3343  -13.4822   25.5418 N   0  0  0  0  0  0  0  0  0  0  0  0
    6.1654  -12.5908   25.5674 C   0  0  0  0  0  0  0  0  0  0  0  0
    6.5740  -11.4871   26.5278 C   0  0  0  0  0  0  0  0  0  0  0  0
    7.3651  -12.2869   27.5338 C   0  0  0  0  0  0  0  0  0  0  0  0
    8.1870  -13.2086   26.6693 C   0  0  1  0  0  0  0  0  0  0  0  0
    8.5856  -14.4344   27.4148 C   0  0  0  0  0  0  0  0  0  0  0  0
    7.7842  -15.3977   27.3863 O   0  0  0  0  0  0  0  0  0  0  0  0
    9.7620  -14.5283   28.1028 O   0  0  0  0  0  0  0  0  0  0  0  0
  1  2  1  0
  3  2  1  0
  4  5  1  0
  4  3  1  0
  5  1  1  0
  5  6  1  1
  7  6  2  0
  8  6  1  0
  9  8  1  0
 10  9  1  0
 10 12  1  0
 11 10  2  0
 12 16  1  0
 13 12  1  0
 13 14  1  0
 14 15  1  0
 16 17  1  1
 16 15  1  0
 17 19  1  0
 18 17  2  0
M  END
$$$$
