PGP.pdb
     RDKit          3D

 19 20  0  0  1  0  0  0  0  0999 V2000
    7.8693  -15.7215   19.6171 N   0  0  0  0  0  0  0  0  0  0  0  0
    7.9076  -15.6869   18.1433 C   0  0  0  0  0  0  0  0  0  0  0  0
    7.4648  -14.2649   17.8810 C   0  0  0  0  0  0  0  0  0  0  0  0
    8.2089  -13.4752   18.9172 C   0  0  0  0  0  0  0  0  0  0  0  0
    8.5135  -14.4798   19.9944 C   0  0  1  0  0  0  0  0  0  0  0  0
    7.9987  -13.9951   21.2896 C   0  0  0  0  0  0  0  0  0  0  0  0
    8.4325  -12.9038   21.8041 O   0  0  0  0  0  0  0  0  0  0  0  0
    7.0157  -14.6655   22.0566 N   0  0  0  0  0  0  0  0  0  0  0  0
    6.4103  -14.0124   23.2049 C   0  0  0  0  0  0  0  0  0  0  0  0
    7.3532  -13.9222   24.3415 C   0  0  0  0  0  0  0  0  0  0  0  0
    8.4248  -14.6033   24.2554 O   0  0  0  0  0  0  0  0  0  0  0  0
    7.0936  -13.1254   25.4731 N   0  0  0  0  0  0  0  0  0  0  0  0
    5.9217  -12.2438   25.5772 C   0  0  0  0  0  0  0  0  0  0  0  0
    6.2810  -11.2978   26.7101 C   0  0  0  0  0  0  0  0  0  0  0  0
    7.0271  -12.2419   27.6208 C   0  0  0  0  0  0  0  0  0  0  0  0
    7.8918  -13.0266   26.6675 C   0  0  1  0  0  0  0  0  0  0  0  0
    8.2595  -14.3516   27.2388 C   0  0  0  0  0  0  0  0  0  0  0  0
    7.5013  -15.3125   26.9690 O   0  0  0  0  0  0  0  0  0  0  0  0
    9.3643  -14.5356   28.0210 O   0  0  0  0  0  0  0  0  0  0  0  0
  1  2  1  0
  3  2  1  0
  4  5  1  0
  4  3  1  0
  5  1  1  0
  5  6  1  1
  7  6  2  0
  8  6  1  0
  9  8  1  0
 10  9  1  0
 10 12  1  0
 11 10  2  0
 12 16  1  0
 13 12  1  0
 13 14  1  0
 14 15  1  0
 16 17  1  1
 16 15  1  0
 17 19  1  0
 18 17  2  0
M  END
$$$$
