PGP.pdb
     RDKit          3D

 19 20  0  0  1  0  0  0  0  0999 V2000
    8.1560  -15.3002   19.0264 N   0  0  0  0  0  0  0  0  0  0  0  0
    8.4631  -14.5265   17.8090 C   0  0  0  0  0  0  0  0  0  0  0  0
    7.8158  -13.2014   18.1438 C   0  0  0  0  0  0  0  0  0  0  0  0
    8.1885  -12.9889   19.5815 C   0  0  0  0  0  0  0  0  0  0  0  0
    8.4704  -14.3741   20.0954 C   0  0  1  0  0  0  0  0  0  0  0  0
    7.6390  -14.6447   21.2841 C   0  0  0  0  0  0  0  0  0  0  0  0
    6.3599  -14.5850   21.2208 O   0  0  0  0  0  0  0  0  0  0  0  0
    8.1570  -14.9815   22.5578 N   0  0  0  0  0  0  0  0  0  0  0  0
    7.3212  -14.8726   23.7415 C   0  0  0  0  0  0  0  0  0  0  0  0
    8.0653  -14.2984   24.8842 C   0  0  0  0  0  0  0  0  0  0  0  0
    9.2903  -14.6254   24.9956 O   0  0  0  0  0  0  0  0  0  0  0  0
    7.4629  -13.4296   25.8143 N   0  0  0  0  0  0  0  0  0  0  0  0
    6.0986  -12.9067   25.6511 C   0  0  0  0  0  0  0  0  0  0  0  0
    6.0493  -11.7234   26.6023 C   0  0  0  0  0  0  0  0  0  0  0  0
    6.8911  -12.2559   27.7360 C   0  0  0  0  0  0  0  0  0  0  0  0
    8.0462  -12.9144   27.0257 C   0  0  1  0  0  0  0  0  0  0  0  0
    8.6690  -13.9694   27.8721 C   0  0  0  0  0  0  0  0  0  0  0  0
    9.6760  -13.6358   28.5396 O   0  0  0  0  0  0  0  0  0  0  0  0
    8.1843  -15.2450   27.9346 O   0  0  0  0  0  0  0  0  0  0  0  0
  1  2  1  0
  3  2  1  0
  4  5  1  0
  4  3  1  0
  5  1  1  0
  5  6  1  1
  7  6  2  0
  8  6  1  0
  9  8  1  0
 10  9  1  0
 10 12  1  0
 11 10  2  0
 12 16  1  0
 13 12  1  0
 13 14  1  0
 14 15  1  0
 16 17  1  1
 16 15  1  0
 17 19  1  0
 18 17  2  0
M  END
$$$$
