PGP.pdb
     RDKit          3D

 19 20  0  0  1  0  0  0  0  0999 V2000
    7.8842  -15.0689   18.8927 N   0  0  0  0  0  0  0  0  0  0  0  0
    8.1749  -14.2298   17.7153 C   0  0  0  0  0  0  0  0  0  0  0  0
    7.7066  -12.8785   18.2068 C   0  0  0  0  0  0  0  0  0  0  0  0
    8.2157  -12.8291   19.6173 C   0  0  0  0  0  0  0  0  0  0  0  0
    8.3842  -14.2748   19.9967 C   0  0  1  0  0  0  0  0  0  0  0  0
    7.6273  -14.5589   21.2311 C   0  0  0  0  0  0  0  0  0  0  0  0
    6.3537  -14.4166   21.2703 O   0  0  0  0  0  0  0  0  0  0  0  0
    8.2149  -14.9971   22.4421 N   0  0  0  0  0  0  0  0  0  0  0  0
    7.4242  -15.0617   23.6596 C   0  0  0  0  0  0  0  0  0  0  0  0
    8.1217  -14.4235   24.7979 C   0  0  0  0  0  0  0  0  0  0  0  0
    9.3546  -14.7018   24.9462 O   0  0  0  0  0  0  0  0  0  0  0  0
    7.4679  -13.5470   25.6851 N   0  0  0  0  0  0  0  0  0  0  0  0
    6.1218  -13.0125   25.4326 C   0  0  0  0  0  0  0  0  0  0  0  0
    6.0215  -11.8263   26.3761 C   0  0  0  0  0  0  0  0  0  0  0  0
    6.7831  -12.3632   27.5632 C   0  0  0  0  0  0  0  0  0  0  0  0
    7.9759  -13.0337   26.9308 C   0  0  1  0  0  0  0  0  0  0  0  0
    8.5330  -14.0919   27.8179 C   0  0  0  0  0  0  0  0  0  0  0  0
    9.4389  -13.7440   28.6111 O   0  0  0  0  0  0  0  0  0  0  0  0
    8.0941  -15.3852   27.7873 O   0  0  0  0  0  0  0  0  0  0  0  0
  1  2  1  0
  3  2  1  0
  4  5  1  0
  4  3  1  0
  5  1  1  0
  5  6  1  1
  7  6  2  0
  8  6  1  0
  9  8  1  0
 10  9  1  0
 10 12  1  0
 11 10  2  0
 12 16  1  0
 13 12  1  0
 13 14  1  0
 14 15  1  0
 16 17  1  1
 16 15  1  0
 17 19  1  0
 18 17  2  0
M  END
$$$$
