PGP.pdb
     RDKit          3D

 19 20  0  0  1  0  0  0  0  0999 V2000
    7.7042  -15.0553   18.6545 N   0  0  0  0  0  0  0  0  0  0  0  0
    8.0471  -14.1681   17.5275 C   0  0  0  0  0  0  0  0  0  0  0  0
    7.7846  -12.8120   18.1433 C   0  0  0  0  0  0  0  0  0  0  0  0
    8.3617  -12.9419   19.5222 C   0  0  0  0  0  0  0  0  0  0  0  0
    8.3559  -14.4231   19.7837 C   0  0  1  0  0  0  0  0  0  0  0  0
    7.6271  -14.7067   21.0351 C   0  0  0  0  0  0  0  0  0  0  0  0
    6.4929  -15.3043   21.0159 O   0  0  0  0  0  0  0  0  0  0  0  0
    8.0940  -14.3571   22.3249 N   0  0  0  0  0  0  0  0  0  0  0  0
    7.4092  -14.8454   23.5099 C   0  0  0  0  0  0  0  0  0  0  0  0
    8.0857  -14.4072   24.7507 C   0  0  0  0  0  0  0  0  0  0  0  0
    9.2254  -14.9181   24.9957 O   0  0  0  0  0  0  0  0  0  0  0  0
    7.5107  -13.4703   25.6306 N   0  0  0  0  0  0  0  0  0  0  0  0
    6.2749  -12.7370   25.3201 C   0  0  0  0  0  0  0  0  0  0  0  0
    6.2877  -11.5766   26.3004 C   0  0  0  0  0  0  0  0  0  0  0  0
    6.8866  -12.2536   27.5089 C   0  0  0  0  0  0  0  0  0  0  0  0
    8.0075  -13.0734   26.9226 C   0  0  1  0  0  0  0  0  0  0  0  0
    8.3481  -14.2271   27.8001 C   0  0  0  0  0  0  0  0  0  0  0  0
    7.6845  -15.2773   27.6344 O   0  0  0  0  0  0  0  0  0  0  0  0
    9.3319  -14.1678   28.7461 O   0  0  0  0  0  0  0  0  0  0  0  0
  1  2  1  0
  3  2  1  0
  4  5  1  0
  4  3  1  0
  5  1  1  0
  5  6  1  1
  7  6  2  0
  8  6  1  0
  9  8  1  0
 10  9  1  0
 10 12  1  0
 11 10  2  0
 12 16  1  0
 13 12  1  0
 13 14  1  0
 14 15  1  0
 16 17  1  1
 16 15  1  0
 17 19  1  0
 18 17  2  0
M  END
$$$$
