PGP.pdb
     RDKit          3D

 19 20  0  0  1  0  0  0  0  0999 V2000
    9.7434  -16.2812   20.0082 N   0  0  0  0  0  0  0  0  0  0  0  0
    9.9884  -17.6522   19.5233 C   0  0  0  0  0  0  0  0  0  0  0  0
    9.2377  -18.4584   20.5595 C   0  0  0  0  0  0  0  0  0  0  0  0
    7.9697  -17.6793   20.7504 C   0  0  0  0  0  0  0  0  0  0  0  0
    8.3267  -16.2855   20.3118 C   0  0  1  0  0  0  0  0  0  0  0  0
    8.0195  -15.3278   21.3916 C   0  0  0  0  0  0  0  0  0  0  0  0
    8.6695  -14.2282   21.5013 O   0  0  0  0  0  0  0  0  0  0  0  0
    7.0172  -15.5273   22.3711 N   0  0  0  0  0  0  0  0  0  0  0  0
    6.5624  -14.4173   23.1914 C   0  0  0  0  0  0  0  0  0  0  0  0
    7.4653  -14.1813   24.3396 C   0  0  0  0  0  0  0  0  0  0  0  0
    8.5258  -14.8830   24.3912 O   0  0  0  0  0  0  0  0  0  0  0  0
    7.1806  -13.2294   25.3374 N   0  0  0  0  0  0  0  0  0  0  0  0
    6.0370  -12.3088   25.2599 C   0  0  0  0  0  0  0  0  0  0  0  0
    6.3754  -11.2266   26.2707 C   0  0  0  0  0  0  0  0  0  0  0  0
    7.0436  -12.0575   27.3388 C   0  0  0  0  0  0  0  0  0  0  0  0
    7.9242  -12.9902   26.5471 C   0  0  1  0  0  0  0  0  0  0  0  0
    8.2172  -14.2340   27.3115 C   0  0  0  0  0  0  0  0  0  0  0  0
    9.2886  -14.2577   27.9614 O   0  0  0  0  0  0  0  0  0  0  0  0
    7.3747  -15.3094   27.3196 O   0  0  0  0  0  0  0  0  0  0  0  0
  1  2  1  0
  3  2  1  0
  4  5  1  0
  4  3  1  0
  5  1  1  0
  5  6  1  1
  7  6  2  0
  8  6  1  0
  9  8  1  0
 10  9  1  0
 10 12  1  0
 11 10  2  0
 12 16  1  0
 13 12  1  0
 13 14  1  0
 14 15  1  0
 16 17  1  1
 16 15  1  0
 17 19  1  0
 18 17  2  0
M  END
$$$$
