PGP.pdb
     RDKit          3D

 19 20  0  0  1  0  0  0  0  0999 V2000
    8.4229  -17.2547   20.9412 N   0  0  0  0  0  0  0  0  0  0  0  0
    8.1057  -18.3936   20.0596 C   0  0  0  0  0  0  0  0  0  0  0  0
    6.8581  -17.8832   19.3740 C   0  0  0  0  0  0  0  0  0  0  0  0
    7.1908  -16.4514   19.0736 C   0  0  0  0  0  0  0  0  0  0  0  0
    8.2632  -16.1075   20.0707 C   0  0  1  0  0  0  0  0  0  0  0  0
    7.8634  -14.9155   20.8432 C   0  0  0  0  0  0  0  0  0  0  0  0
    7.7706  -13.7669   20.2811 O   0  0  0  0  0  0  0  0  0  0  0  0
    7.5580  -14.9283   22.2254 N   0  0  0  0  0  0  0  0  0  0  0  0
    7.2064  -13.6958   22.9101 C   0  0  0  0  0  0  0  0  0  0  0  0
    7.8309  -13.6181   24.2492 C   0  0  0  0  0  0  0  0  0  0  0  0
    8.9247  -14.2481   24.4114 O   0  0  0  0  0  0  0  0  0  0  0  0
    7.2562  -12.8863   25.3061 N   0  0  0  0  0  0  0  0  0  0  0  0
    6.0351  -12.0825   25.1496 C   0  0  0  0  0  0  0  0  0  0  0  0
    6.0497  -11.1644   26.3596 C   0  0  0  0  0  0  0  0  0  0  0  0
    6.6218  -12.0985   27.3977 C   0  0  0  0  0  0  0  0  0  0  0  0
    7.7397  -12.7890   26.6589 C   0  0  1  0  0  0  0  0  0  0  0  0
    8.0518  -14.1118   27.2671 C   0  0  0  0  0  0  0  0  0  0  0  0
    7.3914  -15.0932   26.8528 O   0  0  0  0  0  0  0  0  0  0  0  0
    9.0069  -14.2728   28.2304 O   0  0  0  0  0  0  0  0  0  0  0  0
  1  2  1  0
  3  2  1  0
  4  5  1  0
  4  3  1  0
  5  1  1  0
  5  6  1  1
  7  6  2  0
  8  6  1  0
  9  8  1  0
 10  9  1  0
 10 12  1  0
 11 10  2  0
 12 16  1  0
 13 12  1  0
 13 14  1  0
 14 15  1  0
 16 17  1  1
 16 15  1  0
 17 19  1  0
 18 17  2  0
M  END
$$$$
