PGP.pdb
     RDKit          3D

 19 20  0  0  1  0  0  0  0  0999 V2000
    7.7201  -16.9378   20.7423 N   0  0  0  0  0  0  0  0  0  0  0  0
    7.3590  -16.9810   19.3131 C   0  0  0  0  0  0  0  0  0  0  0  0
    7.0265  -15.5276   19.0600 C   0  0  0  0  0  0  0  0  0  0  0  0
    8.1099  -14.7932   19.7935 C   0  0  0  0  0  0  0  0  0  0  0  0
    8.5799  -15.7750   20.8315 C   0  0  1  0  0  0  0  0  0  0  0  0
    8.4963  -15.1635   22.1718 C   0  0  0  0  0  0  0  0  0  0  0  0
    9.2234  -14.1540   22.4818 O   0  0  0  0  0  0  0  0  0  0  0  0
    7.6386  -15.6182   23.2021 N   0  0  0  0  0  0  0  0  0  0  0  0
    7.5076  -14.8603   24.4350 C   0  0  0  0  0  0  0  0  0  0  0  0
    8.7217  -14.9683   25.2738 C   0  0  0  0  0  0  0  0  0  0  0  0
    9.5685  -15.8608   24.9480 O   0  0  0  0  0  0  0  0  0  0  0  0
    8.9463  -14.1314   26.3837 N   0  0  0  0  0  0  0  0  0  0  0  0
    8.0527  -13.0194   26.7392 C   0  0  0  0  0  0  0  0  0  0  0  0
    8.8906  -12.1691   27.6785 C   0  0  0  0  0  0  0  0  0  0  0  0
    9.6446  -13.2484   28.4160 C   0  0  0  0  0  0  0  0  0  0  0  0
   10.0398  -14.2024   27.3178 C   0  0  1  0  0  0  0  0  0  0  0  0
   10.2681  -15.5738   27.8510 C   0  0  0  0  0  0  0  0  0  0  0  0
   11.3958  -15.8062   28.3462 O   0  0  0  0  0  0  0  0  0  0  0  0
    9.3106  -16.5475   27.8137 O   0  0  0  0  0  0  0  0  0  0  0  0
  1  2  1  0
  3  2  1  0
  4  5  1  0
  4  3  1  0
  5  1  1  0
  5  6  1  1
  7  6  2  0
  8  6  1  0
  9  8  1  0
 10  9  1  0
 10 12  1  0
 11 10  2  0
 12 16  1  0
 13 12  1  0
 13 14  1  0
 14 15  1  0
 16 17  1  1
 16 15  1  0
 17 19  1  0
 18 17  2  0
M  END
$$$$
