PGP.pdb
     RDKit          3D

 19 20  0  0  1  0  0  0  0  0999 V2000
    7.8457  -15.1540   19.7774 N   0  0  0  0  0  0  0  0  0  0  0  0
    7.8588  -14.2206   18.6357 C   0  0  0  0  0  0  0  0  0  0  0  0
    7.3576  -12.9561   19.2968 C   0  0  0  0  0  0  0  0  0  0  0  0
    8.0876  -12.9396   20.6075 C   0  0  0  0  0  0  0  0  0  0  0  0
    8.4479  -14.3806   20.8444 C   0  0  1  0  0  0  0  0  0  0  0  0
    7.9358  -14.8140   22.1587 C   0  0  0  0  0  0  0  0  0  0  0  0
    7.1136  -15.7931   22.2550 O   0  0  0  0  0  0  0  0  0  0  0  0
    8.2903  -14.2110   23.3894 N   0  0  0  0  0  0  0  0  0  0  0  0
    7.9452  -14.8526   24.6467 C   0  0  0  0  0  0  0  0  0  0  0  0
    9.1489  -15.1669   25.4476 C   0  0  0  0  0  0  0  0  0  0  0  0
    9.9850  -15.9783   24.9353 O   0  0  0  0  0  0  0  0  0  0  0  0
    9.3751  -14.6043   26.7184 N   0  0  0  0  0  0  0  0  0  0  0  0
    8.5716  -13.4967   27.2559 C   0  0  0  0  0  0  0  0  0  0  0  0
    9.4200  -12.9537   28.3929 C   0  0  0  0  0  0  0  0  0  0  0  0
   10.0110  -14.2373   28.9227 C   0  0  0  0  0  0  0  0  0  0  0  0
   10.3877  -14.9846   27.6689 C   0  0  1  0  0  0  0  0  0  0  0  0
   10.4426  -16.4526   27.9120 C   0  0  0  0  0  0  0  0  0  0  0  0
    9.4039  -17.1060   27.6570 O   0  0  0  0  0  0  0  0  0  0  0  0
   11.5592  -17.0791   28.3886 O   0  0  0  0  0  0  0  0  0  0  0  0
  1  2  1  0
  3  2  1  0
  4  5  1  0
  4  3  1  0
  5  1  1  0
  5  6  1  1
  7  6  2  0
  8  6  1  0
  9  8  1  0
 10  9  1  0
 10 12  1  0
 11 10  2  0
 12 16  1  0
 13 12  1  0
 13 14  1  0
 14 15  1  0
 16 17  1  1
 16 15  1  0
 17 19  1  0
 18 17  2  0
M  END
$$$$
