PGP.pdb
     RDKit          3D

 19 20  0  0  1  0  0  0  0  0999 V2000
    9.6497  -16.8997   20.8996 N   0  0  0  0  0  0  0  0  0  0  0  0
    9.8374  -18.2590   20.3593 C   0  0  0  0  0  0  0  0  0  0  0  0
    8.4292  -18.8012   20.4586 C   0  0  0  0  0  0  0  0  0  0  0  0
    7.5835  -17.6515   19.9957 C   0  0  0  0  0  0  0  0  0  0  0  0
    8.4459  -16.4427   20.2354 C   0  0  1  0  0  0  0  0  0  0  0  0
    7.7208  -15.4705   21.0760 C   0  0  0  0  0  0  0  0  0  0  0  0
    6.6153  -14.9545   20.6820 O   0  0  0  0  0  0  0  0  0  0  0  0
    8.1625  -15.0324   22.3476 N   0  0  0  0  0  0  0  0  0  0  0  0
    7.3736  -14.0792   23.1096 C   0  0  0  0  0  0  0  0  0  0  0  0
    7.9627  -13.8253   24.4429 C   0  0  0  0  0  0  0  0  0  0  0  0
    9.1129  -14.3216   24.6676 O   0  0  0  0  0  0  0  0  0  0  0  0
    7.2965  -13.0724   25.4288 N   0  0  0  0  0  0  0  0  0  0  0  0
    6.0155  -12.3935   25.1853 C   0  0  0  0  0  0  0  0  0  0  0  0
    5.9155  -11.3921   26.3231 C   0  0  0  0  0  0  0  0  0  0  0  0
    6.5363  -12.1939   27.4408 C   0  0  0  0  0  0  0  0  0  0  0  0
    7.7307  -12.8346   26.7810 C   0  0  1  0  0  0  0  0  0  0  0  0
    8.1386  -14.0769   27.4934 C   0  0  0  0  0  0  0  0  0  0  0  0
    9.0207  -13.9576   28.3757 O   0  0  0  0  0  0  0  0  0  0  0  0
    7.5921  -15.2979   27.2167 O   0  0  0  0  0  0  0  0  0  0  0  0
  1  2  1  0
  3  2  1  0
  4  5  1  0
  4  3  1  0
  5  1  1  0
  5  6  1  1
  7  6  2  0
  8  6  1  0
  9  8  1  0
 10  9  1  0
 10 12  1  0
 11 10  2  0
 12 16  1  0
 13 12  1  0
 13 14  1  0
 14 15  1  0
 16 17  1  1
 16 15  1  0
 17 19  1  0
 18 17  2  0
M  END
$$$$
