PGP.pdb
     RDKit          3D

 19 20  0  0  1  0  0  0  0  0999 V2000
    7.6641  -15.0863   19.1611 N   0  0  0  0  0  0  0  0  0  0  0  0
    7.7492  -14.1359   18.0366 C   0  0  0  0  0  0  0  0  0  0  0  0
    7.3379  -12.8506   18.7191 C   0  0  0  0  0  0  0  0  0  0  0  0
    8.0618  -12.9103   20.0320 C   0  0  0  0  0  0  0  0  0  0  0  0
    8.3162  -14.3775   20.2437 C   0  0  1  0  0  0  0  0  0  0  0  0
    7.7688  -14.7963   21.5484 C   0  0  0  0  0  0  0  0  0  0  0  0
    6.8953  -15.7315   21.6268 O   0  0  0  0  0  0  0  0  0  0  0  0
    8.1421  -14.2250   22.7886 N   0  0  0  0  0  0  0  0  0  0  0  0
    7.7370  -14.8509   24.0359 C   0  0  0  0  0  0  0  0  0  0  0  0
    8.8572  -14.9218   25.0001 C   0  0  0  0  0  0  0  0  0  0  0  0
    9.8065  -15.7222   24.7211 O   0  0  0  0  0  0  0  0  0  0  0  0
    8.8880  -14.1476   26.1758 N   0  0  0  0  0  0  0  0  0  0  0  0
    7.8718  -13.1328   26.4907 C   0  0  0  0  0  0  0  0  0  0  0  0
    8.5278  -12.2874   27.5688 C   0  0  0  0  0  0  0  0  0  0  0  0
    9.2825  -13.3543   28.3236 C   0  0  0  0  0  0  0  0  0  0  0  0
    9.8739  -14.1991   27.2241 C   0  0  1  0  0  0  0  0  0  0  0  0
   10.1544  -15.5824   27.6984 C   0  0  0  0  0  0  0  0  0  0  0  0
    9.2710  -16.4440   27.4792 O   0  0  0  0  0  0  0  0  0  0  0  0
   11.3108  -15.9199   28.3426 O   0  0  0  0  0  0  0  0  0  0  0  0
  1  2  1  0
  3  2  1  0
  4  5  1  0
  4  3  1  0
  5  1  1  0
  5  6  1  1
  7  6  2  0
  8  6  1  0
  9  8  1  0
 10  9  1  0
 10 12  1  0
 11 10  2  0
 12 16  1  0
 13 12  1  0
 13 14  1  0
 14 15  1  0
 16 17  1  1
 16 15  1  0
 17 19  1  0
 18 17  2  0
M  END
$$$$
