PGP.pdb
     RDKit          3D

 19 20  0  0  1  0  0  0  0  0999 V2000
    8.1842  -15.3376   19.5716 N   0  0  0  0  0  0  0  0  0  0  0  0
    8.2680  -15.0525   18.1271 C   0  0  0  0  0  0  0  0  0  0  0  0
    7.5602  -13.7178   18.0594 C   0  0  0  0  0  0  0  0  0  0  0  0
    8.0940  -12.9834   19.2540 C   0  0  0  0  0  0  0  0  0  0  0  0
    8.5538  -14.0757   20.1801 C   0  0  1  0  0  0  0  0  0  0  0  0
    7.9062  -13.9198   21.4969 C   0  0  0  0  0  0  0  0  0  0  0  0
    8.0495  -12.8431   22.1780 O   0  0  0  0  0  0  0  0  0  0  0  0
    7.0978  -14.9079   22.1084 N   0  0  0  0  0  0  0  0  0  0  0  0
    6.4375  -14.6351   23.3737 C   0  0  0  0  0  0  0  0  0  0  0  0
    7.4113  -14.3055   24.4378 C   0  0  0  0  0  0  0  0  0  0  0  0
    8.5242  -14.9223   24.4102 O   0  0  0  0  0  0  0  0  0  0  0  0
    7.1368  -13.3568   25.4414 N   0  0  0  0  0  0  0  0  0  0  0  0
    5.9375  -12.5064   25.4300 C   0  0  0  0  0  0  0  0  0  0  0  0
    6.2766  -11.3908   26.4035 C   0  0  0  0  0  0  0  0  0  0  0  0
    7.0624  -12.1643   27.4339 C   0  0  0  0  0  0  0  0  0  0  0  0
    7.9430  -13.0555   26.5958 C   0  0  1  0  0  0  0  0  0  0  0  0
    8.3598  -14.2680   27.3531 C   0  0  0  0  0  0  0  0  0  0  0  0
    7.6290  -15.2803   27.2439 O   0  0  0  0  0  0  0  0  0  0  0  0
    9.4798  -14.2996   28.1346 O   0  0  0  0  0  0  0  0  0  0  0  0
  1  2  1  0
  3  2  1  0
  4  5  1  0
  4  3  1  0
  5  1  1  0
  5  6  1  1
  7  6  2  0
  8  6  1  0
  9  8  1  0
 10  9  1  0
 10 12  1  0
 11 10  2  0
 12 16  1  0
 13 12  1  0
 13 14  1  0
 14 15  1  0
 16 17  1  1
 16 15  1  0
 17 19  1  0
 18 17  2  0
M  END
$$$$
