WHD.pdb
     RDKit          3D

 33 35  0  0  1  0  0  0  0  0999 V2000
   25.0616  -10.3885  -18.1786 N   0  0  0  0  0  0  0  0  0  0  0  0
   24.5909  -10.1032  -16.8349 C   0  0  1  0  0  0  0  0  0  0  0  0
   25.5647   -9.1011  -16.2055 C   0  0  0  0  0  0  0  0  0  0  0  0
   26.9075   -9.7224  -16.2413 C   0  0  0  0  0  0  0  0  0  0  0  0
   28.0562   -9.1497  -16.7360 C   0  0  0  0  0  0  0  0  0  0  0  0
   29.0892  -10.0010  -16.6100 N   0  0  0  0  0  0  0  0  0  0  0  0
   28.6178  -11.0999  -16.0460 C   0  0  0  0  0  0  0  0  0  0  0  0
   29.2215  -12.2975  -15.6778 C   0  0  0  0  0  0  0  0  0  0  0  0
   28.4774  -13.2992  -15.0914 C   0  0  0  0  0  0  0  0  0  0  0  0
   27.1390  -13.1710  -14.8473 C   0  0  0  0  0  0  0  0  0  0  0  0
   26.5224  -11.9771  -15.2113 C   0  0  0  0  0  0  0  0  0  0  0  0
   27.2514  -10.9724  -15.7954 C   0  0  0  0  0  0  0  0  0  0  0  0
   23.2074   -9.5956  -16.8463 C   0  0  0  0  0  0  0  0  0  0  0  0
   22.7896   -9.0304  -17.8877 O   0  0  0  0  0  0  0  0  0  0  0  0
   22.4008   -9.7609  -15.6904 N   0  0  0  0  0  0  0  0  0  0  0  0
   21.0182   -9.3608  -15.6788 C   0  0  1  0  0  0  0  0  0  0  0  0
   20.1887  -10.2461  -14.7609 C   0  0  0  0  0  0  0  0  0  0  0  0
   19.8887  -11.5461  -15.4343 C   0  0  0  0  0  0  0  0  0  0  0  0
   20.3004  -11.9351  -16.7005 C   0  0  0  0  0  0  0  0  0  0  0  0
   19.8336  -13.1729  -16.9547 N   0  0  0  0  0  0  0  0  0  0  0  0
   19.1395  -13.5702  -15.8803 C   0  0  0  0  0  0  0  0  0  0  0  0
   19.1748  -12.5931  -14.9715 N   0  0  0  0  0  0  0  0  0  0  0  0
   20.9047   -7.9343  -15.2984 C   0  0  0  0  0  0  0  0  0  0  0  0
   21.5279   -7.4641  -14.3120 O   0  0  0  0  0  0  0  0  0  0  0  0
   20.0746   -7.0706  -16.0599 N   0  0  0  0  0  0  0  0  0  0  0  0
   20.0397   -5.6471  -15.7192 C   0  0  1  0  0  0  0  0  0  0  0  0
   19.9039   -4.8177  -16.9652 C   0  0  0  0  0  0  0  0  0  0  0  0
   19.6929   -3.3830  -16.7446 C   0  0  0  0  0  0  0  0  0  0  0  0
   20.3041   -2.7011  -15.8967 O   0  0  0  0  0  0  0  0  0  0  0  0
   18.8977   -5.4988  -14.7863 C   0  0  0  0  0  0  0  0  0  0  0  0
   18.7457   -4.4407  -13.9169 O   0  0  0  0  0  0  0  0  0  0  0  0
   18.7483   -2.7007  -17.5211 O   0  0  0  0  0  0  0  0  0  0  0  0
   17.9500   -6.3683  -14.7241 O   0  0  0  0  0  0  0  0  0  0  0  0
  2  1  1  6
  2  3  1  0
  3  4  1  0
  4  5  2  0
  6  5  1  0
  7  6  1  0
  8  7  2  0
  9  8  1  0
 10 11  1  0
 10  9  2  0
 11 12  2  0
 12  7  1  0
 12  4  1  0
 13 14  2  0
 13  2  1  0
 15 13  1  0
 16 15  1  0
 16 17  1  1
 18 17  1  0
 18 22  1  0
 19 20  1  0
 19 18  2  0
 20 21  1  0
 21 22  2  0
 23 16  1  0
 24 23  2  0
 25 23  1  0
 26 25  1  0
 26 27  1  6
 27 28  1  0
 28 29  2  0
 30 26  1  0
 30 31  1  0
 32 28  1  0
 33 30  2  0
M  END
$$$$
