WHD.pdb
     RDKit          3D

 33 35  0  0  1  0  0  0  0  0999 V2000
   20.1125  -10.8196  -17.2073 N   0  0  0  0  0  0  0  0  0  0  0  0
   20.4560   -9.4941  -17.6906 C   0  0  1  0  0  0  0  0  0  0  0  0
   19.8134   -9.3231  -19.0714 C   0  0  0  0  0  0  0  0  0  0  0  0
   20.4436  -10.3180  -19.9676 C   0  0  0  0  0  0  0  0  0  0  0  0
   21.6965  -10.8667  -19.8214 C   0  0  0  0  0  0  0  0  0  0  0  0
   21.9423  -11.7321  -20.8206 N   0  0  0  0  0  0  0  0  0  0  0  0
   20.8713  -11.7422  -21.5955 C   0  0  0  0  0  0  0  0  0  0  0  0
   20.5622  -12.4399  -22.7582 C   0  0  0  0  0  0  0  0  0  0  0  0
   19.3423  -12.2576  -23.3744 C   0  0  0  0  0  0  0  0  0  0  0  0
   18.3953  -11.4018  -22.8865 C   0  0  0  0  0  0  0  0  0  0  0  0
   18.6922  -10.6970  -21.7232 C   0  0  0  0  0  0  0  0  0  0  0  0
   19.9023  -10.8693  -21.1002 C   0  0  0  0  0  0  0  0  0  0  0  0
   20.0223   -8.4486  -16.7469 C   0  0  0  0  0  0  0  0  0  0  0  0
   18.8619   -8.5210  -16.2707 O   0  0  0  0  0  0  0  0  0  0  0  0
   20.9225   -7.4041  -16.4106 N   0  0  0  0  0  0  0  0  0  0  0  0
   20.5165   -6.3066  -15.5726 C   0  0  1  0  0  0  0  0  0  0  0  0
   21.2541   -6.3177  -14.2422 C   0  0  0  0  0  0  0  0  0  0  0  0
   20.6816   -7.3678  -13.3461 C   0  0  0  0  0  0  0  0  0  0  0  0
   19.6335   -8.2263  -13.6437 C   0  0  0  0  0  0  0  0  0  0  0  0
   19.4075   -9.0290  -12.5857 N   0  0  0  0  0  0  0  0  0  0  0  0
   20.2869   -8.6959  -11.6321 C   0  0  0  0  0  0  0  0  0  0  0  0
   21.0487   -7.7004  -12.0912 N   0  0  0  0  0  0  0  0  0  0  0  0
   20.7106   -5.0234  -16.2855 C   0  0  0  0  0  0  0  0  0  0  0  0
   21.8271   -4.6991  -16.7657 O   0  0  0  0  0  0  0  0  0  0  0  0
   19.6155   -4.1327  -16.4345 N   0  0  0  0  0  0  0  0  0  0  0  0
   19.8046   -2.9093  -17.2164 C   0  0  1  0  0  0  0  0  0  0  0  0
   18.5046   -2.4850  -17.8399 C   0  0  0  0  0  0  0  0  0  0  0  0
   18.5604   -1.2496  -18.6287 C   0  0  0  0  0  0  0  0  0  0  0  0
   19.5889   -0.5623  -18.7936 O   0  0  0  0  0  0  0  0  0  0  0  0
   20.3499   -1.9173  -16.2598 C   0  0  0  0  0  0  0  0  0  0  0  0
   21.2409   -0.9243  -16.6043 O   0  0  0  0  0  0  0  0  0  0  0  0
   17.3979   -0.7807  -19.2530 O   0  0  0  0  0  0  0  0  0  0  0  0
   20.0206   -1.9170  -15.0151 O   0  0  0  0  0  0  0  0  0  0  0  0
  2  1  1  1
  2  3  1  0
  3  4  1  0
  4  5  2  0
  6  5  1  0
  7  6  1  0
  8  7  2  0
  9  8  1  0
 10 11  1  0
 10  9  2  0
 11 12  2  0
 12  7  1  0
 12  4  1  0
 13 14  2  0
 13  2  1  0
 15 13  1  0
 16 15  1  0
 16 17  1  1
 18 17  1  0
 18 22  1  0
 19 20  1  0
 19 18  2  0
 20 21  1  0
 21 22  2  0
 23 16  1  0
 24 23  2  0
 25 23  1  0
 26 25  1  0
 26 27  1  1
 27 28  1  0
 28 29  2  0
 30 26  1  0
 30 31  1  0
 32 28  1  0
 33 30  2  0
M  END
$$$$
