WHD.pdb
     RDKit          3D

 33 35  0  0  1  0  0  0  0  0999 V2000
   17.8870  -24.5490  -14.2269 N   0  0  0  0  0  0  0  0  0  0  0  0
   18.5348  -24.0984  -13.0080 C   0  0  1  0  0  0  0  0  0  0  0  0
   18.0646  -22.6654  -12.7356 C   0  0  0  0  0  0  0  0  0  0  0  0
   18.8873  -21.7723  -13.5817 C   0  0  0  0  0  0  0  0  0  0  0  0
   18.4777  -21.1332  -14.7288 C   0  0  0  0  0  0  0  0  0  0  0  0
   19.4869  -20.4061  -15.2391 N   0  0  0  0  0  0  0  0  0  0  0  0
   20.5261  -20.5720  -14.4389 C   0  0  0  0  0  0  0  0  0  0  0  0
   21.8218  -20.0677  -14.4685 C   0  0  0  0  0  0  0  0  0  0  0  0
   22.7233  -20.4100  -13.4829 C   0  0  0  0  0  0  0  0  0  0  0  0
   22.3986  -21.2432  -12.4498 C   0  0  0  0  0  0  0  0  0  0  0  0
   21.1046  -21.7552  -12.4085 C   0  0  0  0  0  0  0  0  0  0  0  0
   20.1979  -21.4225  -13.3828 C   0  0  0  0  0  0  0  0  0  0  0  0
   18.2422  -24.9991  -11.8789 C   0  0  0  0  0  0  0  0  0  0  0  0
   17.0538  -25.3677  -11.7044 O   0  0  0  0  0  0  0  0  0  0  0  0
   19.3037  -25.4163  -11.0342 N   0  0  0  0  0  0  0  0  0  0  0  0
   19.0689  -26.2834   -9.9096 C   0  0  1  0  0  0  0  0  0  0  0  0
   20.2173  -27.2609   -9.7094 C   0  0  0  0  0  0  0  0  0  0  0  0
   20.1376  -28.3608  -10.7180 C   0  0  0  0  0  0  0  0  0  0  0  0
   19.1444  -28.5386  -11.6698 C   0  0  0  0  0  0  0  0  0  0  0  0
   19.4209  -29.6400  -12.3946 N   0  0  0  0  0  0  0  0  0  0  0  0
   20.5620  -30.1575  -11.9216 C   0  0  0  0  0  0  0  0  0  0  0  0
   20.9886  -29.3885  -10.9173 N   0  0  0  0  0  0  0  0  0  0  0  0
   18.8264  -25.4800   -8.6897 C   0  0  0  0  0  0  0  0  0  0  0  0
   19.6253  -24.5795   -8.3246 O   0  0  0  0  0  0  0  0  0  0  0  0
   17.6673  -25.7261   -7.9083 N   0  0  0  0  0  0  0  0  0  0  0  0
   17.3914  -24.8547   -6.7645 C   0  0  1  0  0  0  0  0  0  0  0  0
   15.9110  -24.6392   -6.6205 C   0  0  0  0  0  0  0  0  0  0  0  0
   15.4921  -23.9615   -5.3890 C   0  0  0  0  0  0  0  0  0  0  0  0
   16.2352  -23.2423   -4.6903 O   0  0  0  0  0  0  0  0  0  0  0  0
   18.0027  -25.5374   -5.5997 C   0  0  0  0  0  0  0  0  0  0  0  0
   18.7686  -24.9000   -4.6480 O   0  0  0  0  0  0  0  0  0  0  0  0
   14.1749  -24.1103   -4.9375 O   0  0  0  0  0  0  0  0  0  0  0  0
   17.8562  -26.8001   -5.3946 O   0  0  0  0  0  0  0  0  0  0  0  0
  2  1  1  6
  2  3  1  0
  3  4  1  0
  4  5  2  0
  6  5  1  0
  7  6  1  0
  8  7  2  0
  9  8  1  0
 10 11  1  0
 10  9  2  0
 11 12  2  0
 12  7  1  0
 12  4  1  0
 13 14  2  0
 13  2  1  0
 15 13  1  0
 16 15  1  0
 16 17  1  1
 18 17  1  0
 18 22  1  0
 19 20  1  0
 19 18  2  0
 20 21  1  0
 21 22  2  0
 23 16  1  0
 24 23  2  0
 25 23  1  0
 26 25  1  0
 26 27  1  1
 27 28  1  0
 28 29  2  0
 30 26  1  0
 30 31  1  0
 32 28  1  0
 33 30  2  0
M  END
$$$$
