WHD.pdb
     RDKit          3D

 33 35  0  0  1  0  0  0  0  0999 V2000
   25.2949  -19.6379  -11.1819 N   0  0  0  0  0  0  0  0  0  0  0  0
   26.1390  -20.5115  -11.9775 C   0  0  1  0  0  0  0  0  0  0  0  0
   26.4886  -21.7294  -11.1155 C   0  0  0  0  0  0  0  0  0  0  0  0
   26.5786  -21.2570   -9.7158 C   0  0  0  0  0  0  0  0  0  0  0  0
   25.5212  -20.9607   -8.8874 C   0  0  0  0  0  0  0  0  0  0  0  0
   25.9727  -20.5577   -7.6867 N   0  0  0  0  0  0  0  0  0  0  0  0
   27.2932  -20.5930   -7.7386 C   0  0  0  0  0  0  0  0  0  0  0  0
   28.2764  -20.2895   -6.8029 C   0  0  0  0  0  0  0  0  0  0  0  0
   29.6097  -20.4204   -7.1288 C   0  0  0  0  0  0  0  0  0  0  0  0
   30.0254  -20.8452   -8.3592 C   0  0  0  0  0  0  0  0  0  0  0  0
   29.0511  -21.1522   -9.3052 C   0  0  0  0  0  0  0  0  0  0  0  0
   27.7210  -21.0263   -8.9938 C   0  0  0  0  0  0  0  0  0  0  0  0
   25.4776  -20.8980  -13.2364 C   0  0  0  0  0  0  0  0  0  0  0  0
   26.1244  -21.5928  -14.0594 O   0  0  0  0  0  0  0  0  0  0  0  0
   24.1436  -20.4760  -13.4745 N   0  0  0  0  0  0  0  0  0  0  0  0
   23.2330  -21.2751  -14.2516 C   0  0  1  0  0  0  0  0  0  0  0  0
   23.1485  -22.6988  -13.7222 C   0  0  0  0  0  0  0  0  0  0  0  0
   24.0851  -23.5845  -14.4783 C   0  0  0  0  0  0  0  0  0  0  0  0
   24.8878  -23.2166  -15.5481 C   0  0  0  0  0  0  0  0  0  0  0  0
   25.5904  -24.2894  -15.9610 N   0  0  0  0  0  0  0  0  0  0  0  0
   25.2487  -25.3206  -15.1777 C   0  0  0  0  0  0  0  0  0  0  0  0
   24.3468  -24.8946  -14.2906 N   0  0  0  0  0  0  0  0  0  0  0  0
   21.8987  -20.6342  -14.2891 C   0  0  0  0  0  0  0  0  0  0  0  0
   21.2426  -20.4169  -13.2381 O   0  0  0  0  0  0  0  0  0  0  0  0
   21.3399  -20.2534  -15.5371 N   0  0  0  0  0  0  0  0  0  0  0  0
   20.0209  -19.6178  -15.5532 C   0  0  1  0  0  0  0  0  0  0  0  0
   19.7409  -19.0358  -16.9102 C   0  0  0  0  0  0  0  0  0  0  0  0
   19.6820  -17.5712  -16.9652 C   0  0  0  0  0  0  0  0  0  0  0  0
   19.7688  -16.8227  -15.9705 O   0  0  0  0  0  0  0  0  0  0  0  0
   19.0703  -20.6860  -15.1635 C   0  0  0  0  0  0  0  0  0  0  0  0
   17.9210  -20.4664  -14.4359 O   0  0  0  0  0  0  0  0  0  0  0  0
   19.5174  -16.9369  -18.2027 O   0  0  0  0  0  0  0  0  0  0  0  0
   19.2590  -21.9183  -15.4856 O   0  0  0  0  0  0  0  0  0  0  0  0
  2  1  1  1
  2  3  1  0
  3  4  1  0
  4  5  2  0
  6  5  1  0
  7  6  1  0
  8  7  2  0
  9  8  1  0
 10 11  1  0
 10  9  2  0
 11 12  2  0
 12  7  1  0
 12  4  1  0
 13 14  2  0
 13  2  1  0
 15 13  1  0
 16 15  1  0
 16 17  1  1
 18 17  1  0
 18 22  1  0
 19 20  1  0
 19 18  2  0
 20 21  1  0
 21 22  2  0
 23 16  1  0
 24 23  2  0
 25 23  1  0
 26 25  1  0
 26 27  1  6
 27 28  1  0
 28 29  2  0
 30 26  1  0
 30 31  1  0
 32 28  1  0
 33 30  2  0
M  END
$$$$
