WHD.pdb
     RDKit          3D

 33 35  0  0  1  0  0  0  0  0999 V2000
   19.8015  -16.1604  -20.2946 N   0  0  0  0  0  0  0  0  0  0  0  0
   18.4666  -15.5893  -20.2794 C   0  0  1  0  0  0  0  0  0  0  0  0
   17.6302  -16.3376  -21.3231 C   0  0  0  0  0  0  0  0  0  0  0  0
   18.1882  -15.9955  -22.6504 C   0  0  0  0  0  0  0  0  0  0  0  0
   19.0920  -16.7420  -23.3703 C   0  0  0  0  0  0  0  0  0  0  0  0
   19.3802  -16.1270  -24.5306 N   0  0  0  0  0  0  0  0  0  0  0  0
   18.6778  -15.0074  -24.5597 C   0  0  0  0  0  0  0  0  0  0  0  0
   18.5756  -13.9892  -25.5015 C   0  0  0  0  0  0  0  0  0  0  0  0
   17.7460  -12.9120  -25.2728 C   0  0  0  0  0  0  0  0  0  0  0  0
   16.9982  -12.7910  -24.1355 C   0  0  0  0  0  0  0  0  0  0  0  0
   17.0915  -13.8035  -23.1845 C   0  0  0  0  0  0  0  0  0  0  0  0
   17.9132  -14.8808  -23.3997 C   0  0  0  0  0  0  0  0  0  0  0  0
   17.8659  -15.6619  -18.9357 C   0  0  0  0  0  0  0  0  0  0  0  0
   18.1587  -16.6413  -18.2052 O   0  0  0  0  0  0  0  0  0  0  0  0
   16.9844  -14.6319  -18.5158 N   0  0  0  0  0  0  0  0  0  0  0  0
   16.4010  -14.6359  -17.2000 C   0  0  1  0  0  0  0  0  0  0  0  0
   15.9297  -13.2476  -16.7942 C   0  0  0  0  0  0  0  0  0  0  0  0
   17.1029  -12.3831  -16.4631 C   0  0  0  0  0  0  0  0  0  0  0  0
   18.4248  -12.7898  -16.3558 C   0  0  0  0  0  0  0  0  0  0  0  0
   19.1893  -11.7251  -16.0444 N   0  0  0  0  0  0  0  0  0  0  0  0
   18.3808  -10.6613  -15.9537 C   0  0  0  0  0  0  0  0  0  0  0  0
   17.1317  -11.0592  -16.2051 N   0  0  0  0  0  0  0  0  0  0  0  0
   15.2963  -15.6198  -17.1365 C   0  0  0  0  0  0  0  0  0  0  0  0
   14.5302  -15.8140  -18.1152 O   0  0  0  0  0  0  0  0  0  0  0  0
   15.0904  -16.3654  -15.9463 N   0  0  0  0  0  0  0  0  0  0  0  0
   13.9751  -17.3125  -15.8931 C   0  0  1  0  0  0  0  0  0  0  0  0
   14.4922  -18.7234  -15.8695 C   0  0  0  0  0  0  0  0  0  0  0  0
   14.3766  -19.4129  -14.5800 C   0  0  0  0  0  0  0  0  0  0  0  0
   13.3161  -19.5270  -13.9322 O   0  0  0  0  0  0  0  0  0  0  0  0
   13.2113  -16.9453  -14.6773 C   0  0  0  0  0  0  0  0  0  0  0  0
   11.9752  -17.4639  -14.3583 O   0  0  0  0  0  0  0  0  0  0  0  0
   15.5150  -19.9943  -14.0080 O   0  0  0  0  0  0  0  0  0  0  0  0
   13.6613  -16.0979  -13.8186 O   0  0  0  0  0  0  0  0  0  0  0  0
  2  1  1  1
  2  3  1  0
  3  4  1  0
  4  5  2  0
  6  5  1  0
  7  6  1  0
  8  7  2  0
  9  8  1  0
 10 11  1  0
 10  9  2  0
 11 12  2  0
 12  7  1  0
 12  4  1  0
 13 14  2  0
 13  2  1  0
 15 13  1  0
 16 15  1  0
 16 17  1  6
 18 17  1  0
 18 22  1  0
 19 20  1  0
 19 18  2  0
 20 21  1  0
 21 22  2  0
 23 16  1  0
 24 23  2  0
 25 23  1  0
 26 25  1  0
 26 27  1  1
 27 28  1  0
 28 29  2  0
 30 26  1  0
 30 31  1  0
 32 28  1  0
 33 30  2  0
M  END
$$$$
