WHD.pdb
     RDKit          3D

 33 35  0  0  1  0  0  0  0  0999 V2000
   19.3632  -11.0240  -18.1838 N   0  0  0  0  0  0  0  0  0  0  0  0
   19.8851   -9.6714  -18.1034 C   0  0  1  0  0  0  0  0  0  0  0  0
   19.0066   -8.7820  -18.9900 C   0  0  0  0  0  0  0  0  0  0  0  0
   19.4321   -9.0113  -20.3888 C   0  0  0  0  0  0  0  0  0  0  0  0
   20.2209  -10.0438  -20.8406 C   0  0  0  0  0  0  0  0  0  0  0  0
   20.4079   -9.9368  -22.1678 N   0  0  0  0  0  0  0  0  0  0  0  0
   19.7539   -8.8586  -22.5646 C   0  0  0  0  0  0  0  0  0  0  0  0
   19.5935   -8.2661  -23.8126 C   0  0  0  0  0  0  0  0  0  0  0  0
   18.8391   -7.1196  -23.9455 C   0  0  0  0  0  0  0  0  0  0  0  0
   18.2241   -6.5195  -22.8831 C   0  0  0  0  0  0  0  0  0  0  0  0
   18.3769   -7.1025  -21.6281 C   0  0  0  0  0  0  0  0  0  0  0  0
   19.1248   -8.2433  -21.4821 C   0  0  0  0  0  0  0  0  0  0  0  0
   19.9260   -9.1928  -16.7101 C   0  0  0  0  0  0  0  0  0  0  0  0
   18.9289   -9.4094  -15.9771 O   0  0  0  0  0  0  0  0  0  0  0  0
   21.0806   -8.5093  -16.2475 N   0  0  0  0  0  0  0  0  0  0  0  0
   21.1424   -7.9579  -14.9194 C   0  0  1  0  0  0  0  0  0  0  0  0
   22.5034   -8.1914  -14.2810 C   0  0  0  0  0  0  0  0  0  0  0  0
   22.7728   -9.6569  -14.1670 C   0  0  0  0  0  0  0  0  0  0  0  0
   21.9325  -10.6852  -14.5678 C   0  0  0  0  0  0  0  0  0  0  0  0
   22.5238  -11.8662  -14.3023 N   0  0  0  0  0  0  0  0  0  0  0  0
   23.7133  -11.6049  -13.7451 C   0  0  0  0  0  0  0  0  0  0  0  0
   23.8592  -10.2804  -13.6657 N   0  0  0  0  0  0  0  0  0  0  0  0
   20.8018   -6.5173  -14.9504 C   0  0  0  0  0  0  0  0  0  0  0  0
   20.8157   -5.8146  -13.9071 O   0  0  0  0  0  0  0  0  0  0  0  0
   20.4500   -5.9075  -16.1829 N   0  0  0  0  0  0  0  0  0  0  0  0
   19.9671   -4.5254  -16.1719 C   0  0  1  0  0  0  0  0  0  0  0  0
   20.5686   -3.7555  -17.3139 C   0  0  0  0  0  0  0  0  0  0  0  0
   20.0069   -2.4186  -17.5348 C   0  0  0  0  0  0  0  0  0  0  0  0
   19.1521   -1.8813  -16.8014 O   0  0  0  0  0  0  0  0  0  0  0  0
   18.4905   -4.6292  -16.2453 C   0  0  0  0  0  0  0  0  0  0  0  0
   17.8211   -5.5883  -16.9738 O   0  0  0  0  0  0  0  0  0  0  0  0
   20.4372   -1.6665  -18.6349 O   0  0  0  0  0  0  0  0  0  0  0  0
   17.7169   -3.8120  -15.6195 O   0  0  0  0  0  0  0  0  0  0  0  0
  2  1  1  1
  2  3  1  0
  3  4  1  0
  4  5  2  0
  6  5  1  0
  7  6  1  0
  8  7  2  0
  9  8  1  0
 10 11  1  0
 10  9  2  0
 11 12  2  0
 12  7  1  0
 12  4  1  0
 13 14  2  0
 13  2  1  0
 15 13  1  0
 16 15  1  0
 16 17  1  6
 18 17  1  0
 18 22  1  0
 19 20  1  0
 19 18  2  0
 20 21  1  0
 21 22  2  0
 23 16  1  0
 24 23  2  0
 25 23  1  0
 26 25  1  0
 26 27  1  6
 27 28  1  0
 28 29  2  0
 30 26  1  0
 30 31  1  0
 32 28  1  0
 33 30  2  0
M  END
$$$$
