WHD.pdb
     RDKit          3D

 33 35  0  0  1  0  0  0  0  0999 V2000
   19.0518  -17.5310  -22.2329 N   0  0  0  0  0  0  0  0  0  0  0  0
   17.9815  -17.7331  -21.2727 C   0  0  1  0  0  0  0  0  0  0  0  0
   16.6909  -17.9788  -22.0619 C   0  0  0  0  0  0  0  0  0  0  0  0
   16.2059  -16.6577  -22.5196 C   0  0  0  0  0  0  0  0  0  0  0  0
   16.5526  -16.0244  -23.6905 C   0  0  0  0  0  0  0  0  0  0  0  0
   15.9250  -14.8387  -23.7788 N   0  0  0  0  0  0  0  0  0  0  0  0
   15.1888  -14.7088  -22.6884 C   0  0  0  0  0  0  0  0  0  0  0  0
   14.3388  -13.7009  -22.2459 C   0  0  0  0  0  0  0  0  0  0  0  0
   13.6785  -13.8275  -21.0422 C   0  0  0  0  0  0  0  0  0  0  0  0
   13.8213  -14.9241  -20.2396 C   0  0  0  0  0  0  0  0  0  0  0  0
   14.6694  -15.9403  -20.6708 C   0  0  0  0  0  0  0  0  0  0  0  0
   15.3324  -15.8269  -21.8666 C   0  0  0  0  0  0  0  0  0  0  0  0
   18.2862  -18.8441  -20.3537 C   0  0  0  0  0  0  0  0  0  0  0  0
   18.6624  -19.9372  -20.8457 O   0  0  0  0  0  0  0  0  0  0  0  0
   18.1459  -18.6433  -18.9557 N   0  0  0  0  0  0  0  0  0  0  0  0
   18.3962  -19.7060  -18.0178 C   0  0  1  0  0  0  0  0  0  0  0  0
   19.6245  -19.4213  -17.1667 C   0  0  0  0  0  0  0  0  0  0  0  0
   20.8555  -19.4559  -18.0133 C   0  0  0  0  0  0  0  0  0  0  0  0
   21.6011  -20.5785  -18.3420 C   0  0  0  0  0  0  0  0  0  0  0  0
   22.6355  -20.2078  -19.1214 N   0  0  0  0  0  0  0  0  0  0  0  0
   22.5578  -18.8814  -19.2898 C   0  0  0  0  0  0  0  0  0  0  0  0
   21.4902  -18.4344  -18.6247 N   0  0  0  0  0  0  0  0  0  0  0  0
   17.1992  -19.9347  -17.1768 C   0  0  0  0  0  0  0  0  0  0  0  0
   16.5754  -18.9802  -16.6456 O   0  0  0  0  0  0  0  0  0  0  0  0
   16.7386  -21.2597  -16.9601 N   0  0  0  0  0  0  0  0  0  0  0  0
   15.4954  -21.4593  -16.2129 C   0  0  1  0  0  0  0  0  0  0  0  0
   14.8419  -22.7481  -16.6262 C   0  0  0  0  0  0  0  0  0  0  0  0
   13.5831  -23.0616  -15.9415 C   0  0  0  0  0  0  0  0  0  0  0  0
   13.0433  -22.3311  -15.0857 O   0  0  0  0  0  0  0  0  0  0  0  0
   15.8917  -21.4319  -14.7851 C   0  0  0  0  0  0  0  0  0  0  0  0
   15.1916  -20.7639  -13.8041 O   0  0  0  0  0  0  0  0  0  0  0  0
   12.9151  -24.2542  -16.2452 O   0  0  0  0  0  0  0  0  0  0  0  0
   16.9402  -22.0439  -14.3560 O   0  0  0  0  0  0  0  0  0  0  0  0
  2  1  1  6
  2  3  1  0
  3  4  1  0
  4  5  2  0
  6  5  1  0
  7  6  1  0
  8  7  2  0
  9  8  1  0
 10 11  1  0
 10  9  2  0
 11 12  2  0
 12  7  1  0
 12  4  1  0
 13 14  2  0
 13  2  1  0
 15 13  1  0
 16 15  1  0
 16 17  1  1
 18 17  1  0
 18 22  1  0
 19 20  1  0
 19 18  2  0
 20 21  1  0
 21 22  2  0
 23 16  1  0
 24 23  2  0
 25 23  1  0
 26 25  1  0
 26 27  1  6
 27 28  1  0
 28 29  2  0
 30 26  1  0
 30 31  1  0
 32 28  1  0
 33 30  2  0
M  END
$$$$
