WHD.pdb
     RDKit          3D

 33 35  0  0  1  0  0  0  0  0999 V2000
   22.5408  -21.4181  -20.5081 N   0  0  0  0  0  0  0  0  0  0  0  0
   21.3915  -20.6299  -20.1004 C   0  0  1  0  0  0  0  0  0  0  0  0
   20.1799  -21.5672  -20.0519 C   0  0  0  0  0  0  0  0  0  0  0  0
   19.7254  -21.7586  -21.4472 C   0  0  0  0  0  0  0  0  0  0  0  0
   20.4185  -21.4120  -22.5837 C   0  0  0  0  0  0  0  0  0  0  0  0
   19.7027  -21.7285  -23.6770 N   0  0  0  0  0  0  0  0  0  0  0  0
   18.5716  -22.2679  -23.2557 C   0  0  0  0  0  0  0  0  0  0  0  0
   17.4674  -22.7768  -23.9308 C   0  0  0  0  0  0  0  0  0  0  0  0
   16.4002  -23.2935  -23.2271 C   0  0  0  0  0  0  0  0  0  0  0  0
   16.3722  -23.3317  -21.8615 C   0  0  0  0  0  0  0  0  0  0  0  0
   17.4714  -22.8253  -21.1735 C   0  0  0  0  0  0  0  0  0  0  0  0
   18.5398  -22.3084  -21.8616 C   0  0  0  0  0  0  0  0  0  0  0  0
   21.6270  -19.9652  -18.8063 C   0  0  0  0  0  0  0  0  0  0  0  0
   22.0325  -20.6636  -17.8438 O   0  0  0  0  0  0  0  0  0  0  0  0
   21.3900  -18.5705  -18.6921 N   0  0  0  0  0  0  0  0  0  0  0  0
   21.6655  -17.8619  -17.4699 C   0  0  1  0  0  0  0  0  0  0  0  0
   22.2561  -16.4868  -17.7431 C   0  0  0  0  0  0  0  0  0  0  0  0
   23.6729  -16.6178  -18.2004 C   0  0  0  0  0  0  0  0  0  0  0  0
   24.7952  -16.7271  -17.3925 C   0  0  0  0  0  0  0  0  0  0  0  0
   25.8902  -16.8272  -18.1708 N   0  0  0  0  0  0  0  0  0  0  0  0
   25.4834  -16.7834  -19.4461 C   0  0  0  0  0  0  0  0  0  0  0  0
   24.1545  -16.6580  -19.4600 N   0  0  0  0  0  0  0  0  0  0  0  0
   20.4370  -17.7672  -16.6489 C   0  0  0  0  0  0  0  0  0  0  0  0
   19.3270  -17.4637  -17.1571 O   0  0  0  0  0  0  0  0  0  0  0  0
   20.5054  -18.0233  -15.2544 N   0  0  0  0  0  0  0  0  0  0  0  0
   19.2702  -17.9803  -14.4695 C   0  0  1  0  0  0  0  0  0  0  0  0
   18.2692  -18.9558  -15.0219 C   0  0  0  0  0  0  0  0  0  0  0  0
   16.9671  -18.9694  -14.3467 C   0  0  0  0  0  0  0  0  0  0  0  0
   16.6693  -18.2500  -13.3714 O   0  0  0  0  0  0  0  0  0  0  0  0
   19.6828  -18.2847  -13.0790 C   0  0  0  0  0  0  0  0  0  0  0  0
   18.8037  -18.4187  -12.0265 O   0  0  0  0  0  0  0  0  0  0  0  0
   15.9669  -19.8374  -14.8019 O   0  0  0  0  0  0  0  0  0  0  0  0
   20.9180  -18.4477  -12.7538 O   0  0  0  0  0  0  0  0  0  0  0  0
  2  1  1  1
  2  3  1  0
  3  4  1  0
  4  5  2  0
  6  5  1  0
  7  6  1  0
  8  7  2  0
  9  8  1  0
 10 11  1  0
 10  9  2  0
 11 12  2  0
 12  7  1  0
 12  4  1  0
 13 14  2  0
 13  2  1  0
 15 13  1  0
 16 15  1  0
 16 17  1  6
 18 17  1  0
 18 22  1  0
 19 20  1  0
 19 18  2  0
 20 21  1  0
 21 22  2  0
 23 16  1  0
 24 23  2  0
 25 23  1  0
 26 25  1  0
 26 27  1  6
 27 28  1  0
 28 29  2  0
 30 26  1  0
 30 31  1  0
 32 28  1  0
 33 30  2  0
M  END
$$$$
