IHL.pdb
     RDKit          3D

 27 27  0  0  1  0  0  0  0  0999 V2000
    7.1102  -11.5334   19.2734 C   0  0  0  0  0  0  0  0  0  0  0  0
    7.5911  -12.9218   18.9707 C   0  0  0  0  0  0  0  0  0  0  0  0
    7.8781  -13.7029   20.2230 C   0  0  2  0  0  0  0  0  0  0  0  0
    8.8353  -12.9115   21.1164 C   0  0  0  0  0  0  0  0  0  0  0  0
    8.3457  -15.1037   20.0170 C   0  0  2  0  0  0  0  0  0  0  0  0
    7.3175  -15.7479   19.1660 N   0  0  0  0  0  0  0  0  0  0  0  0
    8.3596  -15.9244   21.2713 C   0  0  0  0  0  0  0  0  0  0  0  0
    7.2830  -16.3621   21.7533 O   0  0  0  0  0  0  0  0  0  0  0  0
    9.5393  -16.2431   21.9573 N   0  0  0  0  0  0  0  0  0  0  0  0
    9.8199  -16.9932   23.1095 C   0  0  1  0  0  0  0  0  0  0  0  0
   10.9475  -17.9742   23.0986 C   0  0  0  0  0  0  0  0  0  0  0  0
   11.1019  -18.7740   24.3279 C   0  0  0  0  0  0  0  0  0  0  0  0
   12.1473  -18.5475   25.2317 C   0  0  0  0  0  0  0  0  0  0  0  0
   12.0724  -19.3900   26.2517 N   0  0  0  0  0  0  0  0  0  0  0  0
   10.9906  -20.1610   26.0207 C   0  0  0  0  0  0  0  0  0  0  0  0
   10.4146  -19.7855   24.8659 N   0  0  0  0  0  0  0  0  0  0  0  0
    9.8177  -16.1963   24.3189 C   0  0  0  0  0  0  0  0  0  0  0  0
   10.7177  -15.3097   24.4619 O   0  0  0  0  0  0  0  0  0  0  0  0
    5.9030  -13.2746   26.1231 C   0  0  0  0  0  0  0  0  0  0  0  0
    7.2566  -13.8457   25.8820 C   0  0  1  0  0  0  0  0  0  0  0  0
    8.2626  -12.7077   25.9908 C   0  0  0  0  0  0  0  0  0  0  0  0
    7.6446  -14.9279   26.8228 C   0  0  0  0  0  0  0  0  0  0  0  0
    8.9547  -15.5876   26.5617 C   0  0  2  0  0  0  0  0  0  0  0  0
    8.8729  -16.3523   25.3387 N   0  0  0  0  0  0  0  0  0  0  0  0
    9.5083  -16.3454   27.6894 C   0  0  0  0  0  0  0  0  0  0  0  0
    9.8005  -15.7508   28.7477 O   0  0  0  0  0  0  0  0  0  0  0  0
    9.7343  -17.7329   27.6454 O   0  0  0  0  0  0  0  0  0  0  0  0
  2  1  1  0
  3  2  1  0
  3  5  1  0
  3  4  1  6
  5  6  1  6
  7  5  1  0
  7  8  2  0
  9  7  1  0
 10  9  1  0
 10 11  1  6
 12 11  1  0
 12 16  1  0
 13 14  1  0
 13 12  2  0
 14 15  1  0
 15 16  2  0
 17 10  1  0
 18 17  2  0
 20 22  1  0
 20 19  1  1
 21 20  1  0
 23 24  1  0
 23 22  1  1
 24 17  1  0
 25 23  1  0
 26 25  2  0
 27 25  1  0
M  END
$$$$
