IHL.pdb
     RDKit          3D

 27 27  0  0  1  0  0  0  0  0999 V2000
    7.5853  -11.7351   18.9325 C   0  0  0  0  0  0  0  0  0  0  0  0
    7.8826  -13.2025   18.8390 C   0  0  0  0  0  0  0  0  0  0  0  0
    8.0206  -13.8358   20.1957 C   0  0  2  0  0  0  0  0  0  0  0  0
    9.0841  -13.0922   21.0062 C   0  0  0  0  0  0  0  0  0  0  0  0
    8.2526  -15.3086   20.1999 C   0  0  2  0  0  0  0  0  0  0  0  0
    7.0999  -15.8975   19.4780 N   0  0  0  0  0  0  0  0  0  0  0  0
    8.1915  -15.9239   21.5655 C   0  0  0  0  0  0  0  0  0  0  0  0
    7.0890  -16.0334   22.1616 O   0  0  0  0  0  0  0  0  0  0  0  0
    9.3266  -16.4002   22.2353 N   0  0  0  0  0  0  0  0  0  0  0  0
    9.5406  -16.9652   23.5018 C   0  0  1  0  0  0  0  0  0  0  0  0
   10.4958  -18.1048   23.6529 C   0  0  0  0  0  0  0  0  0  0  0  0
   10.1635  -19.3154   22.8791 C   0  0  0  0  0  0  0  0  0  0  0  0
    8.9309  -19.4647   22.2316 C   0  0  0  0  0  0  0  0  0  0  0  0
    8.8707  -20.6319   21.6072 N   0  0  0  0  0  0  0  0  0  0  0  0
   10.0500  -21.2422   21.8416 C   0  0  0  0  0  0  0  0  0  0  0  0
   10.8191  -20.4467   22.6045 N   0  0  0  0  0  0  0  0  0  0  0  0
    9.7250  -15.9733   24.5409 C   0  0  0  0  0  0  0  0  0  0  0  0
   10.7520  -15.2255   24.4895 O   0  0  0  0  0  0  0  0  0  0  0  0
    6.1706  -13.8358   25.6804 C   0  0  0  0  0  0  0  0  0  0  0  0
    7.4731  -13.3486   26.2120 C   0  0  1  0  0  0  0  0  0  0  0  0
    7.2403  -11.9653   26.8046 C   0  0  0  0  0  0  0  0  0  0  0  0
    8.0818  -14.2236   27.2466 C   0  0  0  0  0  0  0  0  0  0  0  0
    9.2113  -15.0851   26.7976 C   0  0  2  0  0  0  0  0  0  0  0  0
    8.8278  -15.7952   25.5994 N   0  0  0  0  0  0  0  0  0  0  0  0
    9.7858  -15.9518   27.8326 C   0  0  0  0  0  0  0  0  0  0  0  0
   10.3335  -15.4400   28.8312 O   0  0  0  0  0  0  0  0  0  0  0  0
    9.7550  -17.3561   27.7625 O   0  0  0  0  0  0  0  0  0  0  0  0
  2  1  1  0
  3  2  1  0
  3  5  1  0
  3  4  1  6
  5  6  1  6
  7  5  1  0
  7  8  2  0
  9  7  1  0
 10  9  1  0
 10 11  1  6
 12 11  1  0
 12 16  1  0
 13 14  1  0
 13 12  2  0
 14 15  1  0
 15 16  2  0
 17 10  1  0
 18 17  2  0
 20 22  1  0
 20 19  1  1
 21 20  1  0
 23 24  1  0
 23 22  1  1
 24 17  1  0
 25 23  1  0
 26 25  2  0
 27 25  1  0
M  END
$$$$
