IHL.pdb
     RDKit          3D

 27 27  0  0  1  0  0  0  0  0999 V2000
    7.9998  -11.4418   18.4817 C   0  0  0  0  0  0  0  0  0  0  0  0
    8.2518  -12.9081   18.2901 C   0  0  0  0  0  0  0  0  0  0  0  0
    8.2860  -13.6484   19.5985 C   0  0  2  0  0  0  0  0  0  0  0  0
    9.2524  -12.9530   20.5593 C   0  0  0  0  0  0  0  0  0  0  0  0
    8.5572  -15.1116   19.5052 C   0  0  2  0  0  0  0  0  0  0  0  0
    7.4907  -15.6618   18.6354 N   0  0  0  0  0  0  0  0  0  0  0  0
    8.3905  -15.8389   20.8054 C   0  0  0  0  0  0  0  0  0  0  0  0
    7.2397  -16.0707   21.2578 O   0  0  0  0  0  0  0  0  0  0  0  0
    9.4763  -16.2905   21.5675 N   0  0  0  0  0  0  0  0  0  0  0  0
    9.5883  -17.0343   22.7521 C   0  0  1  0  0  0  0  0  0  0  0  0
   10.6180  -18.1127   22.8553 C   0  0  0  0  0  0  0  0  0  0  0  0
   10.6423  -18.8437   24.1358 C   0  0  0  0  0  0  0  0  0  0  0  0
   11.7561  -18.8137   24.9841 C   0  0  0  0  0  0  0  0  0  0  0  0
   11.5371  -19.5451   26.0670 N   0  0  0  0  0  0  0  0  0  0  0  0
   10.2940  -20.0498   25.9319 C   0  0  0  0  0  0  0  0  0  0  0  0
    9.7646  -19.6248   24.7719 N   0  0  0  0  0  0  0  0  0  0  0  0
    9.5570  -16.2109   23.9433 C   0  0  0  0  0  0  0  0  0  0  0  0
   10.4538  -15.3215   24.0888 O   0  0  0  0  0  0  0  0  0  0  0  0
    5.6752  -13.2196   26.0863 C   0  0  0  0  0  0  0  0  0  0  0  0
    7.0283  -13.7614   25.7829 C   0  0  1  0  0  0  0  0  0  0  0  0
    8.0451  -12.6831   26.1326 C   0  0  0  0  0  0  0  0  0  0  0  0
    7.3710  -15.0075   26.5154 C   0  0  0  0  0  0  0  0  0  0  0  0
    8.6889  -15.6207   26.1890 C   0  0  2  0  0  0  0  0  0  0  0  0
    8.5873  -16.3442   24.9427 N   0  0  0  0  0  0  0  0  0  0  0  0
    9.2997  -16.4016   27.2706 C   0  0  0  0  0  0  0  0  0  0  0  0
    8.9910  -17.6029   27.4139 O   0  0  0  0  0  0  0  0  0  0  0  0
   10.2322  -15.8626   28.1749 O   0  0  0  0  0  0  0  0  0  0  0  0
  2  1  1  0
  3  2  1  0
  3  5  1  0
  3  4  1  1
  5  6  1  6
  7  5  1  0
  7  8  2  0
  9  7  1  0
 10  9  1  0
 10 11  1  6
 12 11  1  0
 12 16  1  0
 13 14  1  0
 13 12  2  0
 14 15  1  0
 15 16  2  0
 17 10  1  0
 18 17  2  0
 20 22  1  0
 20 19  1  1
 21 20  1  0
 23 24  1  0
 23 22  1  1
 24 17  1  0
 25 23  1  0
 26 25  2  0
 27 25  1  0
M  END
$$$$
