IHL.pdb
     RDKit          3D

 27 27  0  0  1  0  0  0  0  0999 V2000
    7.3175  -11.6972   19.6048 C   0  0  0  0  0  0  0  0  0  0  0  0
    7.7676  -13.1022   19.3334 C   0  0  0  0  0  0  0  0  0  0  0  0
    7.8883  -13.9080   20.5971 C   0  0  2  0  0  0  0  0  0  0  0  0
    8.7151  -13.1335   21.6255 C   0  0  0  0  0  0  0  0  0  0  0  0
    8.3844  -15.3038   20.4277 C   0  0  2  0  0  0  0  0  0  0  0  0
    7.4121  -15.9677   19.5274 N   0  0  0  0  0  0  0  0  0  0  0  0
    8.3411  -16.1153   21.6872 C   0  0  0  0  0  0  0  0  0  0  0  0
    7.2602  -16.6333   22.0695 O   0  0  0  0  0  0  0  0  0  0  0  0
    9.4705  -16.3381   22.4864 N   0  0  0  0  0  0  0  0  0  0  0  0
    9.7082  -17.1001   23.6405 C   0  0  1  0  0  0  0  0  0  0  0  0
   10.6235  -18.2798   23.5739 C   0  0  0  0  0  0  0  0  0  0  0  0
   10.2186  -19.3423   22.6349 C   0  0  0  0  0  0  0  0  0  0  0  0
   10.7060  -19.3958   21.3231 C   0  0  0  0  0  0  0  0  0  0  0  0
   10.1977  -20.4363   20.6791 N   0  0  0  0  0  0  0  0  0  0  0  0
    9.3859  -21.0591   21.5574 C   0  0  0  0  0  0  0  0  0  0  0  0
    9.4040  -20.3972   22.7270 N   0  0  0  0  0  0  0  0  0  0  0  0
    9.9681  -16.2886   24.8116 C   0  0  0  0  0  0  0  0  0  0  0  0
   10.9391  -15.4685   24.7773 O   0  0  0  0  0  0  0  0  0  0  0  0
    6.6020  -13.1663   26.5939 C   0  0  0  0  0  0  0  0  0  0  0  0
    7.9667  -13.7320   26.4100 C   0  0  1  0  0  0  0  0  0  0  0  0
    8.9452  -12.5663   26.3581 C   0  0  0  0  0  0  0  0  0  0  0  0
    8.3913  -14.6748   27.4767 C   0  0  0  0  0  0  0  0  0  0  0  0
    9.5332  -15.5722   27.1446 C   0  0  2  0  0  0  0  0  0  0  0  0
    9.2024  -16.3607   25.9802 N   0  0  0  0  0  0  0  0  0  0  0  0
   10.0474  -16.3691   28.2640 C   0  0  0  0  0  0  0  0  0  0  0  0
   10.5030  -15.7925   29.2734 O   0  0  0  0  0  0  0  0  0  0  0  0
   10.0574  -17.7755   28.2647 O   0  0  0  0  0  0  0  0  0  0  0  0
  2  1  1  0
  3  2  1  0
  3  5  1  0
  3  4  1  1
  5  6  1  6
  7  5  1  0
  7  8  2  0
  9  7  1  0
 10  9  1  0
 10 11  1  6
 12 11  1  0
 12 16  1  0
 13 14  1  0
 13 12  2  0
 14 15  1  0
 15 16  2  0
 17 10  1  0
 18 17  2  0
 20 22  1  0
 20 19  1  1
 21 20  1  0
 23 24  1  0
 23 22  1  1
 24 17  1  0
 25 23  1  0
 26 25  2  0
 27 25  1  0
M  END
$$$$
