IHL.pdb
     RDKit          3D

 27 27  0  0  1  0  0  0  0  0999 V2000
    7.4450  -11.5899   18.8922 C   0  0  0  0  0  0  0  0  0  0  0  0
    8.0281  -12.9589   18.7015 C   0  0  0  0  0  0  0  0  0  0  0  0
    8.0465  -13.7456   19.9827 C   0  0  2  0  0  0  0  0  0  0  0  0
    8.7496  -12.9367   21.0746 C   0  0  0  0  0  0  0  0  0  0  0  0
    8.5924  -15.1295   19.8826 C   0  0  2  0  0  0  0  0  0  0  0  0
    7.7665  -15.8126   18.8589 N   0  0  0  0  0  0  0  0  0  0  0  0
    8.3970  -15.9453   21.1249 C   0  0  0  0  0  0  0  0  0  0  0  0
    7.2478  -16.3445   21.4456 O   0  0  0  0  0  0  0  0  0  0  0  0
    9.4536  -16.3009   21.9739 N   0  0  0  0  0  0  0  0  0  0  0  0
    9.5248  -16.9531   23.2144 C   0  0  1  0  0  0  0  0  0  0  0  0
   10.4565  -18.1082   23.3917 C   0  0  0  0  0  0  0  0  0  0  0  0
   10.1347  -19.3081   22.5972 C   0  0  0  0  0  0  0  0  0  0  0  0
    8.9475  -19.4122   21.8617 C   0  0  0  0  0  0  0  0  0  0  0  0
    8.8877  -20.5786   21.2358 N   0  0  0  0  0  0  0  0  0  0  0  0
   10.0221  -21.2332   21.5564 C   0  0  0  0  0  0  0  0  0  0  0  0
   10.7640  -20.4650   22.3725 N   0  0  0  0  0  0  0  0  0  0  0  0
    9.5929  -16.0361   24.3335 C   0  0  0  0  0  0  0  0  0  0  0  0
   10.5843  -15.2436   24.4080 O   0  0  0  0  0  0  0  0  0  0  0  0
    5.7542  -12.9682   26.2801 C   0  0  0  0  0  0  0  0  0  0  0  0
    7.0750  -13.5605   25.9322 C   0  0  1  0  0  0  0  0  0  0  0  0
    8.0628  -12.4144   25.7605 C   0  0  0  0  0  0  0  0  0  0  0  0
    7.6073  -14.5131   26.9402 C   0  0  0  0  0  0  0  0  0  0  0  0
    8.8483  -15.2453   26.5618 C   0  0  2  0  0  0  0  0  0  0  0  0
    8.6205  -15.9774   25.3375 N   0  0  0  0  0  0  0  0  0  0  0  0
    9.4432  -16.0591   27.6279 C   0  0  0  0  0  0  0  0  0  0  0  0
    9.8126  -15.5122   28.6878 O   0  0  0  0  0  0  0  0  0  0  0  0
    9.6258  -17.4495   27.5216 O   0  0  0  0  0  0  0  0  0  0  0  0
  2  1  1  0
  3  2  1  0
  3  5  1  0
  3  4  1  1
  5  6  1  6
  7  5  1  0
  7  8  2  0
  9  7  1  0
 10  9  1  0
 10 11  1  6
 12 11  1  0
 12 16  1  0
 13 14  1  0
 13 12  2  0
 14 15  1  0
 15 16  2  0
 17 10  1  0
 18 17  2  0
 20 22  1  0
 20 19  1  1
 21 20  1  0
 23 24  1  0
 23 22  1  1
 24 17  1  0
 25 23  1  0
 26 25  2  0
 27 25  1  0
M  END
$$$$
