IHL.pdb
     RDKit          3D

 27 27  0  0  1  0  0  0  0  0999 V2000
    5.4527  -21.2671   24.6619 C   0  0  0  0  0  0  0  0  0  0  0  0
    5.4025  -20.3502   23.4757 C   0  0  0  0  0  0  0  0  0  0  0  0
    6.4503  -19.2745   23.5517 C   0  0  2  0  0  0  0  0  0  0  0  0
    6.3468  -18.5478   24.8941 C   0  0  0  0  0  0  0  0  0  0  0  0
    6.4787  -18.3191   22.4073 C   0  0  2  0  0  0  0  0  0  0  0  0
    6.4465  -19.1572   21.1853 N   0  0  0  0  0  0  0  0  0  0  0  0
    7.7599  -17.5487   22.2977 C   0  0  0  0  0  0  0  0  0  0  0  0
    8.8509  -18.1544   22.1370 O   0  0  0  0  0  0  0  0  0  0  0  0
    7.8130  -16.1500   22.3643 N   0  0  0  0  0  0  0  0  0  0  0  0
    8.8583  -15.2235   22.4992 C   0  0  1  0  0  0  0  0  0  0  0  0
    8.8638  -13.9856   21.6617 C   0  0  0  0  0  0  0  0  0  0  0  0
    8.4609  -14.1715   20.2554 C   0  0  0  0  0  0  0  0  0  0  0  0
    8.2280  -15.4419   19.7140 C   0  0  0  0  0  0  0  0  0  0  0  0
    7.8806  -15.3486   18.4387 N   0  0  0  0  0  0  0  0  0  0  0  0
    7.8853  -14.0324   18.1456 C   0  0  0  0  0  0  0  0  0  0  0  0
    8.2341  -13.3339   19.2396 N   0  0  0  0  0  0  0  0  0  0  0  0
    9.1847  -14.9347   23.8804 C   0  0  0  0  0  0  0  0  0  0  0  0
   10.2502  -14.2869   24.1286 O   0  0  0  0  0  0  0  0  0  0  0  0
    5.5867  -12.7986   26.6891 C   0  0  0  0  0  0  0  0  0  0  0  0
    6.8992  -13.2481   26.1490 C   0  0  1  0  0  0  0  0  0  0  0  0
    7.8052  -12.0271   26.0651 C   0  0  0  0  0  0  0  0  0  0  0  0
    7.5715  -14.2965   26.9587 C   0  0  0  0  0  0  0  0  0  0  0  0
    8.7272  -14.9831   26.3163 C   0  0  2  0  0  0  0  0  0  0  0  0
    8.3844  -15.3318   24.9569 N   0  0  0  0  0  0  0  0  0  0  0  0
    9.2946  -16.0992   27.0811 C   0  0  0  0  0  0  0  0  0  0  0  0
    9.3475  -17.2355   26.5665 O   0  0  0  0  0  0  0  0  0  0  0  0
    9.7923  -15.9595   28.3891 O   0  0  0  0  0  0  0  0  0  0  0  0
  2  1  1  0
  3  2  1  0
  3  5  1  0
  3  4  1  1
  5  6  1  6
  7  5  1  0
  7  8  2  0
  9  7  1  0
 10  9  1  0
 10 11  1  1
 12 11  1  0
 12 16  1  0
 13 14  1  0
 13 12  2  0
 14 15  1  0
 15 16  2  0
 17 10  1  0
 18 17  2  0
 20 22  1  0
 20 19  1  1
 21 20  1  0
 23 24  1  0
 23 22  1  1
 24 17  1  0
 25 23  1  0
 26 25  2  0
 27 25  1  0
M  END
$$$$
