IHL.pdb
     RDKit          3D

 27 27  0  0  1  0  0  0  0  0999 V2000
    7.5624  -11.7710   18.8128 C   0  0  0  0  0  0  0  0  0  0  0  0
    8.0404  -13.1905   18.7292 C   0  0  0  0  0  0  0  0  0  0  0  0
    8.0886  -13.8481   20.0805 C   0  0  2  0  0  0  0  0  0  0  0  0
    8.8321  -12.9454   21.0671 C   0  0  0  0  0  0  0  0  0  0  0  0
    8.6169  -15.2422   20.1014 C   0  0  2  0  0  0  0  0  0  0  0  0
    7.7756  -16.0035   19.1478 N   0  0  0  0  0  0  0  0  0  0  0  0
    8.4201  -15.9411   21.4129 C   0  0  0  0  0  0  0  0  0  0  0  0
    7.2604  -16.2169   21.8154 O   0  0  0  0  0  0  0  0  0  0  0  0
    9.4866  -16.3178   22.2402 N   0  0  0  0  0  0  0  0  0  0  0  0
    9.5682  -16.8943   23.5170 C   0  0  1  0  0  0  0  0  0  0  0  0
   10.4745  -18.0603   23.7469 C   0  0  0  0  0  0  0  0  0  0  0  0
   10.1501  -19.2751   22.9764 C   0  0  0  0  0  0  0  0  0  0  0  0
    8.9084  -19.4457   22.3517 C   0  0  0  0  0  0  0  0  0  0  0  0
    8.8580  -20.6124   21.7255 N   0  0  0  0  0  0  0  0  0  0  0  0
   10.0525  -21.2013   21.9363 C   0  0  0  0  0  0  0  0  0  0  0  0
   10.8210  -20.3935   22.6867 N   0  0  0  0  0  0  0  0  0  0  0  0
    9.6830  -15.9125   24.5756 C   0  0  0  0  0  0  0  0  0  0  0  0
   10.6560  -15.0950   24.5410 O   0  0  0  0  0  0  0  0  0  0  0  0
    5.7618  -12.8037   26.5144 C   0  0  0  0  0  0  0  0  0  0  0  0
    7.0546  -13.4083   26.0905 C   0  0  1  0  0  0  0  0  0  0  0  0
    8.0020  -12.2695   25.7380 C   0  0  0  0  0  0  0  0  0  0  0  0
    7.6950  -14.2729   27.1148 C   0  0  0  0  0  0  0  0  0  0  0  0
    8.9907  -14.8992   26.7295 C   0  0  2  0  0  0  0  0  0  0  0  0
    8.7747  -15.8174   25.6354 N   0  0  0  0  0  0  0  0  0  0  0  0
    9.7580  -15.4795   27.8373 C   0  0  0  0  0  0  0  0  0  0  0  0
    9.8520  -16.7203   27.9388 O   0  0  0  0  0  0  0  0  0  0  0  0
   10.4067  -14.7013   28.8128 O   0  0  0  0  0  0  0  0  0  0  0  0
  2  1  1  0
  3  2  1  0
  3  5  1  0
  3  4  1  1
  5  6  1  6
  7  5  1  0
  7  8  2  0
  9  7  1  0
 10  9  1  0
 10 11  1  6
 12 11  1  0
 12 16  1  0
 13 14  1  0
 13 12  2  0
 14 15  1  0
 15 16  2  0
 17 10  1  0
 18 17  2  0
 20 22  1  0
 20 19  1  1
 21 20  1  0
 23 24  1  0
 23 22  1  1
 24 17  1  0
 25 23  1  0
 26 25  2  0
 27 25  1  0
M  END
$$$$
