IHL.pdb
     RDKit          3D

 27 27  0  0  1  0  0  0  0  0999 V2000
    7.5080  -11.7963   18.2973 C   0  0  0  0  0  0  0  0  0  0  0  0
    7.9714  -13.2096   18.1020 C   0  0  0  0  0  0  0  0  0  0  0  0
    8.1048  -13.9431   19.4078 C   0  0  2  0  0  0  0  0  0  0  0  0
    9.0139  -13.1538   20.3520 C   0  0  0  0  0  0  0  0  0  0  0  0
    8.5207  -15.3713   19.3063 C   0  0  2  0  0  0  0  0  0  0  0  0
    7.5308  -16.0137   18.4095 N   0  0  0  0  0  0  0  0  0  0  0  0
    8.4013  -16.1264   20.5957 C   0  0  0  0  0  0  0  0  0  0  0  0
    7.2670  -16.3899   21.0721 O   0  0  0  0  0  0  0  0  0  0  0  0
    9.5146  -16.5704   21.3217 N   0  0  0  0  0  0  0  0  0  0  0  0
    9.6799  -17.1420   22.5926 C   0  0  1  0  0  0  0  0  0  0  0  0
   10.7642  -18.1456   22.8183 C   0  0  0  0  0  0  0  0  0  0  0  0
   10.8479  -18.6894   24.1865 C   0  0  0  0  0  0  0  0  0  0  0  0
    9.9230  -19.6233   24.6695 C   0  0  0  0  0  0  0  0  0  0  0  0
   10.2075  -19.9574   25.9198 N   0  0  0  0  0  0  0  0  0  0  0  0
   11.3064  -19.2512   26.2543 C   0  0  0  0  0  0  0  0  0  0  0  0
   11.6839  -18.4938   25.2101 N   0  0  0  0  0  0  0  0  0  0  0  0
    9.6227  -16.1685   23.6635 C   0  0  0  0  0  0  0  0  0  0  0  0
   10.4578  -15.2099   23.6562 O   0  0  0  0  0  0  0  0  0  0  0  0
    8.1499  -12.2316   26.5569 C   0  0  0  0  0  0  0  0  0  0  0  0
    7.2378  -13.3978   26.7139 C   0  0  1  0  0  0  0  0  0  0  0  0
    5.8085  -12.8761   26.6524 C   0  0  0  0  0  0  0  0  0  0  0  0
    7.4119  -14.4581   25.6882 C   0  0  0  0  0  0  0  0  0  0  0  0
    8.6783  -15.2396   25.7588 C   0  0  2  0  0  0  0  0  0  0  0  0
    8.6922  -16.2291   24.7064 N   0  0  0  0  0  0  0  0  0  0  0  0
    9.0014  -15.7873   27.0810 C   0  0  0  0  0  0  0  0  0  0  0  0
    8.3545  -16.7609   27.5200 O   0  0  0  0  0  0  0  0  0  0  0  0
   10.0194  -15.2669   27.9001 O   0  0  0  0  0  0  0  0  0  0  0  0
  2  1  1  0
  3  2  1  0
  3  5  1  0
  3  4  1  1
  5  6  1  6
  7  5  1  0
  7  8  2  0
  9  7  1  0
 10  9  1  0
 10 11  1  6
 12 11  1  0
 12 16  1  0
 13 14  1  0
 13 12  2  0
 14 15  1  0
 15 16  2  0
 17 10  1  0
 18 17  2  0
 20 22  1  0
 20 19  1  6
 21 20  1  0
 23 24  1  0
 23 22  1  1
 24 17  1  0
 25 23  1  0
 26 25  2  0
 27 25  1  0
M  END
$$$$
