IHL.pdb
     RDKit          3D

 27 27  0  0  1  0  0  0  0  0999 V2000
    8.2221  -12.0589   18.6632 C   0  0  0  0  0  0  0  0  0  0  0  0
    8.3576  -13.5525   18.6989 C   0  0  0  0  0  0  0  0  0  0  0  0
    7.9523  -14.1222   20.0300 C   0  0  2  0  0  0  0  0  0  0  0  0
    8.7860  -13.4805   21.1409 C   0  0  0  0  0  0  0  0  0  0  0  0
    7.9586  -15.6102   20.1241 C   0  0  2  0  0  0  0  0  0  0  0  0
    7.0187  -16.0814   19.0795 N   0  0  0  0  0  0  0  0  0  0  0  0
    7.3854  -16.1349   21.4060 C   0  0  0  0  0  0  0  0  0  0  0  0
    6.1671  -15.9658   21.6706 O   0  0  0  0  0  0  0  0  0  0  0  0
    8.1521  -16.8256   22.3542 N   0  0  0  0  0  0  0  0  0  0  0  0
    7.9048  -17.2781   23.6592 C   0  0  1  0  0  0  0  0  0  0  0  0
    8.0253  -18.7343   23.9738 C   0  0  0  0  0  0  0  0  0  0  0  0
    7.7029  -19.1101   25.3628 C   0  0  0  0  0  0  0  0  0  0  0  0
    8.6845  -19.5591   26.2549 C   0  0  0  0  0  0  0  0  0  0  0  0
    8.1504  -19.8342   27.4359 N   0  0  0  0  0  0  0  0  0  0  0  0
    6.8333  -19.5691   27.3211 C   0  0  0  0  0  0  0  0  0  0  0  0
    6.5732  -19.1356   26.0758 N   0  0  0  0  0  0  0  0  0  0  0  0
    8.5381  -16.4594   24.6723 C   0  0  0  0  0  0  0  0  0  0  0  0
    9.7846  -16.2292   24.5735 O   0  0  0  0  0  0  0  0  0  0  0  0
    6.0919  -12.1273   26.6774 C   0  0  0  0  0  0  0  0  0  0  0  0
    7.0913  -13.1144   26.1844 C   0  0  1  0  0  0  0  0  0  0  0  0
    8.2495  -12.3335   25.5780 C   0  0  0  0  0  0  0  0  0  0  0  0
    7.6178  -14.0311   27.2280 C   0  0  0  0  0  0  0  0  0  0  0  0
    8.5241  -15.1147   26.7549 C   0  0  2  0  0  0  0  0  0  0  0  0
    7.8458  -15.9068   25.7552 N   0  0  0  0  0  0  0  0  0  0  0  0
    9.1450  -15.9171   27.8147 C   0  0  0  0  0  0  0  0  0  0  0  0
    9.9059  -15.3679   28.6383 O   0  0  0  0  0  0  0  0  0  0  0  0
    8.9281  -17.2992   27.9586 O   0  0  0  0  0  0  0  0  0  0  0  0
  2  1  1  0
  3  2  1  0
  3  5  1  0
  3  4  1  1
  5  6  1  6
  7  5  1  0
  7  8  2  0
  9  7  1  0
 10  9  1  0
 10 11  1  6
 12 11  1  0
 12 16  1  0
 13 14  1  0
 13 12  2  0
 14 15  1  0
 15 16  2  0
 17 10  1  0
 18 17  2  0
 20 22  1  0
 20 19  1  1
 21 20  1  0
 23 24  1  0
 23 22  1  1
 24 17  1  0
 25 23  1  0
 26 25  2  0
 27 25  1  0
M  END
$$$$
