EID.pdb
     RDKit          3D

 26 25  0  0  1  0  0  0  0  0999 V2000
    7.9697  -13.8152   19.4916 N   0  0  0  0  0  0  0  0  0  0  0  0
    7.5559  -14.7514   20.4880 C   0  0  1  0  0  0  0  0  0  0  0  0
    7.6248  -16.1820   20.0423 C   0  0  0  0  0  0  0  0  0  0  0  0
    7.1271  -16.2873   18.6222 C   0  0  0  0  0  0  0  0  0  0  0  0
    7.0173  -17.7019   18.1781 C   0  0  0  0  0  0  0  0  0  0  0  0
    5.9333  -18.2439   17.8506 O   0  0  0  0  0  0  0  0  0  0  0  0
    8.2353  -14.5262   21.7893 C   0  0  0  0  0  0  0  0  0  0  0  0
    9.4516  -14.2075   21.7573 O   0  0  0  0  0  0  0  0  0  0  0  0
    8.1971  -18.4367   18.1342 O   0  0  0  0  0  0  0  0  0  0  0  0
    5.6928  -12.1586   25.9184 C   0  0  0  0  0  0  0  0  0  0  0  0
    6.7817  -12.6228   25.0022 C   0  0  0  0  0  0  0  0  0  0  0  0
    7.3195  -13.9988   25.3797 C   0  0  2  0  0  0  0  0  0  0  0  0
    8.0698  -13.9179   26.6911 C   0  0  0  0  0  0  0  0  0  0  0  0
    8.2717  -14.4869   24.3237 C   0  0  2  0  0  0  0  0  0  0  0  0
    7.6058  -14.6474   23.0367 N   0  0  0  0  0  0  0  0  0  0  0  0
    8.8868  -15.7798   24.6429 C   0  0  0  0  0  0  0  0  0  0  0  0
    8.1713  -16.8102   24.5907 O   0  0  0  0  0  0  0  0  0  0  0  0
   10.2464  -15.9506   25.0102 N   0  0  0  0  0  0  0  0  0  0  0  0
   10.8265  -17.2884   25.2582 C   0  0  1  0  0  0  0  0  0  0  0  0
   12.2488  -17.3011   24.7408 C   0  0  0  0  0  0  0  0  0  0  0  0
   12.9717  -18.5618   25.0133 C   0  0  0  0  0  0  0  0  0  0  0  0
   12.4454  -19.6791   25.2042 O   0  0  0  0  0  0  0  0  0  0  0  0
   10.8029  -17.4877   26.7452 C   0  0  0  0  0  0  0  0  0  0  0  0
   10.7027  -16.4571   27.4948 O   0  0  0  0  0  0  0  0  0  0  0  0
   14.3783  -18.5442   25.0709 O   0  0  0  0  0  0  0  0  0  0  0  0
   10.8813  -18.7084   27.3711 O   0  0  0  0  0  0  0  0  0  0  0  0
  2  1  1  6
  2  7  1  0
  3  2  1  0
  4  3  1  0
  5  4  1  0
  6  5  2  0
  7  8  2  0
  9  5  1  0
 10 11  1  0
 12 11  1  0
 12 14  1  0
 12 13  1  1
 14 15  1  6
 15  7  1  0
 16 17  2  0
 16 14  1  0
 18 16  1  0
 19 18  1  0
 19 23  1  0
 19 20  1  1
 21 20  1  0
 21 22  2  0
 23 26  1  0
 24 23  2  0
 25 21  1  0
M  END
$$$$
