EID.pdb
     RDKit          3D

 26 25  0  0  1  0  0  0  0  0999 V2000
    8.0618  -14.0815   20.2219 N   0  0  0  0  0  0  0  0  0  0  0  0
    7.7063  -15.0314   21.2279 C   0  0  1  0  0  0  0  0  0  0  0  0
    7.8758  -16.4593   20.8010 C   0  0  0  0  0  0  0  0  0  0  0  0
    7.0596  -16.7091   19.5573 C   0  0  0  0  0  0  0  0  0  0  0  0
    7.0602  -18.1458   19.1746 C   0  0  0  0  0  0  0  0  0  0  0  0
    6.0298  -18.8630   19.1711 O   0  0  0  0  0  0  0  0  0  0  0  0
    8.3600  -14.7441   22.5301 C   0  0  0  0  0  0  0  0  0  0  0  0
    9.5981  -14.5222   22.5173 O   0  0  0  0  0  0  0  0  0  0  0  0
    8.2838  -18.6940   18.8059 O   0  0  0  0  0  0  0  0  0  0  0  0
    5.8556  -11.7322   26.1715 C   0  0  0  0  0  0  0  0  0  0  0  0
    6.9243  -12.4061   25.3688 C   0  0  0  0  0  0  0  0  0  0  0  0
    7.3717  -13.7291   25.9808 C   0  0  2  0  0  0  0  0  0  0  0  0
    8.1008  -13.4756   27.2821 C   0  0  0  0  0  0  0  0  0  0  0  0
    8.3126  -14.4368   25.0459 C   0  0  2  0  0  0  0  0  0  0  0  0
    7.6842  -14.7067   23.7584 N   0  0  0  0  0  0  0  0  0  0  0  0
    8.7886  -15.7258   25.5597 C   0  0  0  0  0  0  0  0  0  0  0  0
    7.9536  -16.6496   25.7194 O   0  0  0  0  0  0  0  0  0  0  0  0
   10.1390  -16.0054   25.8924 N   0  0  0  0  0  0  0  0  0  0  0  0
   10.5767  -17.3545   26.3125 C   0  0  1  0  0  0  0  0  0  0  0  0
   12.0446  -17.5112   25.9782 C   0  0  0  0  0  0  0  0  0  0  0  0
   12.2969  -18.3060   24.7571 C   0  0  0  0  0  0  0  0  0  0  0  0
   11.4280  -18.8818   24.0678 O   0  0  0  0  0  0  0  0  0  0  0  0
   10.3620  -17.4232   27.7959 C   0  0  0  0  0  0  0  0  0  0  0  0
   10.4036  -16.3359   28.4668 O   0  0  0  0  0  0  0  0  0  0  0  0
   13.6197  -18.4509   24.2974 O   0  0  0  0  0  0  0  0  0  0  0  0
   10.1206  -18.5796   28.4976 O   0  0  0  0  0  0  0  0  0  0  0  0
  2  1  1  6
  2  7  1  0
  3  2  1  0
  4  3  1  0
  5  4  1  0
  6  5  2  0
  7  8  2  0
  9  5  1  0
 10 11  1  0
 12 11  1  0
 12 14  1  0
 12 13  1  1
 14 15  1  6
 15  7  1  0
 16 17  2  0
 16 14  1  0
 18 16  1  0
 19 18  1  0
 19 23  1  0
 19 20  1  1
 21 20  1  0
 21 22  2  0
 23 26  1  0
 24 23  2  0
 25 21  1  0
M  END
$$$$
