EID.pdb
     RDKit          3D

 26 25  0  0  1  0  0  0  0  0999 V2000
    9.2754  -17.7793   16.6944 N   0  0  0  0  0  0  0  0  0  0  0  0
    9.1329  -18.0504   18.0897 C   0  0  1  0  0  0  0  0  0  0  0  0
    9.6159  -19.4112   18.4957 C   0  0  0  0  0  0  0  0  0  0  0  0
   10.9105  -19.7149   17.7836 C   0  0  0  0  0  0  0  0  0  0  0  0
   11.4951  -21.0082   18.2262 C   0  0  0  0  0  0  0  0  0  0  0  0
   10.9991  -21.7187   19.1348 O   0  0  0  0  0  0  0  0  0  0  0  0
    9.6998  -16.9685   18.9345 C   0  0  0  0  0  0  0  0  0  0  0  0
   10.6273  -16.2772   18.4406 O   0  0  0  0  0  0  0  0  0  0  0  0
   12.6533  -21.4248   17.5792 O   0  0  0  0  0  0  0  0  0  0  0  0
    6.5498  -13.0764   20.2099 C   0  0  0  0  0  0  0  0  0  0  0  0
    7.8785  -13.7467   20.0481 C   0  0  0  0  0  0  0  0  0  0  0  0
    8.2020  -14.6936   21.1986 C   0  0  2  0  0  0  0  0  0  0  0  0
    8.3604  -13.9102   22.4833 C   0  0  0  0  0  0  0  0  0  0  0  0
    9.4934  -15.4132   20.9256 C   0  0  2  0  0  0  0  0  0  0  0  0
    9.2654  -16.6772   20.2358 N   0  0  0  0  0  0  0  0  0  0  0  0
   10.2558  -15.7279   22.1387 C   0  0  0  0  0  0  0  0  0  0  0  0
   10.3238  -14.8596   23.0429 O   0  0  0  0  0  0  0  0  0  0  0  0
   10.9285  -16.9562   22.3652 N   0  0  0  0  0  0  0  0  0  0  0  0
   11.2568  -17.4273   23.7284 C   0  0  1  0  0  0  0  0  0  0  0  0
    9.9836  -17.4627   24.5462 C   0  0  0  0  0  0  0  0  0  0  0  0
   10.1885  -17.8731   25.9519 C   0  0  0  0  0  0  0  0  0  0  0  0
   11.2913  -18.1072   26.4912 O   0  0  0  0  0  0  0  0  0  0  0  0
   11.8229  -18.8079   23.5713 C   0  0  0  0  0  0  0  0  0  0  0  0
   11.2145  -19.6302   22.8045 O   0  0  0  0  0  0  0  0  0  0  0  0
    9.0674  -18.0246   26.7898 O   0  0  0  0  0  0  0  0  0  0  0  0
   12.9595  -19.2619   24.1955 O   0  0  0  0  0  0  0  0  0  0  0  0
  2  1  1  6
  2  7  1  0
  3  2  1  0
  4  3  1  0
  5  4  1  0
  6  5  2  0
  7  8  2  0
  9  5  1  0
 10 11  1  0
 12 11  1  0
 12 14  1  0
 12 13  1  1
 14 15  1  1
 15  7  1  0
 16 17  2  0
 16 14  1  0
 18 16  1  0
 19 18  1  0
 19 23  1  0
 19 20  1  1
 21 20  1  0
 21 22  2  0
 23 26  1  0
 24 23  2  0
 25 21  1  0
M  END
$$$$
