EID.pdb
     RDKit          3D

 26 25  0  0  1  0  0  0  0  0999 V2000
    7.5853  -13.7114   20.0928 N   0  0  0  0  0  0  0  0  0  0  0  0
    6.9919  -14.3458   21.2268 C   0  0  1  0  0  0  0  0  0  0  0  0
    6.5113  -15.7412   20.9588 C   0  0  0  0  0  0  0  0  0  0  0  0
    7.6047  -16.5235   20.2748 C   0  0  0  0  0  0  0  0  0  0  0  0
    7.1619  -17.8973   19.9184 C   0  0  0  0  0  0  0  0  0  0  0  0
    7.9542  -18.8446   19.6925 O   0  0  0  0  0  0  0  0  0  0  0  0
    7.8525  -14.2611   22.4342 C   0  0  0  0  0  0  0  0  0  0  0  0
    9.0932  -14.1625   22.2522 O   0  0  0  0  0  0  0  0  0  0  0  0
    5.7902  -18.1113   19.8394 O   0  0  0  0  0  0  0  0  0  0  0  0
    6.0675  -11.4660   26.6327 C   0  0  0  0  0  0  0  0  0  0  0  0
    7.0355  -12.0809   25.6706 C   0  0  0  0  0  0  0  0  0  0  0  0
    7.4363  -13.4978   26.0666 C   0  0  2  0  0  0  0  0  0  0  0  0
    8.3360  -13.4592   27.2824 C   0  0  0  0  0  0  0  0  0  0  0  0
    8.1926  -14.1517   24.9438 C   0  0  2  0  0  0  0  0  0  0  0  0
    7.3669  -14.2848   23.7496 N   0  0  0  0  0  0  0  0  0  0  0  0
    8.6786  -15.4966   25.2709 C   0  0  0  0  0  0  0  0  0  0  0  0
    7.8342  -16.4023   25.4780 O   0  0  0  0  0  0  0  0  0  0  0  0
   10.0489  -15.8502   25.3708 N   0  0  0  0  0  0  0  0  0  0  0  0
   10.4787  -17.2324   25.6752 C   0  0  1  0  0  0  0  0  0  0  0  0
   11.9333  -17.3823   25.2847 C   0  0  0  0  0  0  0  0  0  0  0  0
   12.1854  -17.1961   23.8396 C   0  0  0  0  0  0  0  0  0  0  0  0
   13.1456  -16.5712   23.3402 O   0  0  0  0  0  0  0  0  0  0  0  0
   10.3076  -17.4096   27.1553 C   0  0  0  0  0  0  0  0  0  0  0  0
   10.2851  -16.3662   27.8935 O   0  0  0  0  0  0  0  0  0  0  0  0
   11.2875  -17.7569   22.9115 O   0  0  0  0  0  0  0  0  0  0  0  0
   10.1711  -18.6225   27.7862 O   0  0  0  0  0  0  0  0  0  0  0  0
  2  1  1  6
  2  7  1  0
  3  2  1  0
  4  3  1  0
  5  4  1  0
  6  5  2  0
  7  8  2  0
  9  5  1  0
 10 11  1  0
 12 11  1  0
 12 14  1  0
 12 13  1  1
 14 15  1  6
 15  7  1  0
 16 17  2  0
 16 14  1  0
 18 16  1  0
 19 18  1  0
 19 23  1  0
 19 20  1  1
 21 20  1  0
 21 22  2  0
 23 26  1  0
 24 23  2  0
 25 21  1  0
M  END
$$$$
