EID.pdb
     RDKit          3D

 26 25  0  0  1  0  0  0  0  0999 V2000
    7.9712  -13.7407   19.7154 N   0  0  0  0  0  0  0  0  0  0  0  0
    7.1621  -14.1792   20.8079 C   0  0  1  0  0  0  0  0  0  0  0  0
    6.4629  -15.4829   20.5601 C   0  0  0  0  0  0  0  0  0  0  0  0
    7.4891  -16.5733   20.3772 C   0  0  0  0  0  0  0  0  0  0  0  0
    6.8576  -17.9152   20.2726 C   0  0  0  0  0  0  0  0  0  0  0  0
    6.6217  -18.4875   19.1803 O   0  0  0  0  0  0  0  0  0  0  0  0
    7.8997  -14.1638   22.0969 C   0  0  0  0  0  0  0  0  0  0  0  0
    9.1489  -14.3030   22.0482 O   0  0  0  0  0  0  0  0  0  0  0  0
    6.5224  -18.5432   21.4671 O   0  0  0  0  0  0  0  0  0  0  0  0
    5.8272  -11.3161   26.2929 C   0  0  0  0  0  0  0  0  0  0  0  0
    6.8439  -11.9140   25.3713 C   0  0  0  0  0  0  0  0  0  0  0  0
    7.1603  -13.3668   25.7097 C   0  0  2  0  0  0  0  0  0  0  0  0
    7.9393  -13.4374   27.0049 C   0  0  0  0  0  0  0  0  0  0  0  0
    8.0006  -13.9774   24.6229 C   0  0  2  0  0  0  0  0  0  0  0  0
    7.2904  -14.0049   23.3500 N   0  0  0  0  0  0  0  0  0  0  0  0
    8.4104  -15.3573   24.9056 C   0  0  0  0  0  0  0  0  0  0  0  0
    7.5417  -16.2617   24.8465 O   0  0  0  0  0  0  0  0  0  0  0  0
    9.7319  -15.7464   25.2444 N   0  0  0  0  0  0  0  0  0  0  0  0
   10.0883  -17.1585   25.5032 C   0  0  1  0  0  0  0  0  0  0  0  0
   11.3990  -17.4602   24.8090 C   0  0  0  0  0  0  0  0  0  0  0  0
   11.9624  -18.7847   25.1475 C   0  0  0  0  0  0  0  0  0  0  0  0
   12.8788  -19.0003   25.9694 O   0  0  0  0  0  0  0  0  0  0  0  0
   10.2354  -17.2892   26.9907 C   0  0  0  0  0  0  0  0  0  0  0  0
   10.4465  -16.2306   27.6756 O   0  0  0  0  0  0  0  0  0  0  0  0
   11.4482  -19.9294   24.5092 O   0  0  0  0  0  0  0  0  0  0  0  0
   10.1592  -18.4740   27.6822 O   0  0  0  0  0  0  0  0  0  0  0  0
  2  1  1  6
  2  7  1  0
  3  2  1  0
  4  3  1  0
  5  4  1  0
  6  5  2  0
  7  8  2  0
  9  5  1  0
 10 11  1  0
 12 11  1  0
 12 14  1  0
 12 13  1  1
 14 15  1  6
 15  7  1  0
 16 17  2  0
 16 14  1  0
 18 16  1  0
 19 18  1  0
 19 23  1  0
 19 20  1  6
 21 20  1  0
 21 22  2  0
 23 26  1  0
 24 23  2  0
 25 21  1  0
M  END
$$$$
