EID.pdb
     RDKit          3D

 26 25  0  0  1  0  0  0  0  0999 V2000
    8.0521  -14.5039   20.2679 N   0  0  0  0  0  0  0  0  0  0  0  0
    7.4972  -15.1625   21.4076 C   0  0  1  0  0  0  0  0  0  0  0  0
    7.3477  -16.6454   21.2383 C   0  0  0  0  0  0  0  0  0  0  0  0
    6.5375  -16.9273   19.9975 C   0  0  0  0  0  0  0  0  0  0  0  0
    6.2716  -18.3803   19.8289 C   0  0  0  0  0  0  0  0  0  0  0  0
    7.0175  -19.1506   19.1757 O   0  0  0  0  0  0  0  0  0  0  0  0
    8.1994  -14.8000   22.6651 C   0  0  0  0  0  0  0  0  0  0  0  0
    9.4448  -14.6343   22.6029 O   0  0  0  0  0  0  0  0  0  0  0  0
    5.1275  -18.8816   20.4399 O   0  0  0  0  0  0  0  0  0  0  0  0
    5.7392  -11.6763   26.3103 C   0  0  0  0  0  0  0  0  0  0  0  0
    6.8452  -12.3010   25.5183 C   0  0  0  0  0  0  0  0  0  0  0  0
    7.3243  -13.6187   26.1176 C   0  0  2  0  0  0  0  0  0  0  0  0
    8.0930  -13.3562   27.3941 C   0  0  0  0  0  0  0  0  0  0  0  0
    8.2408  -14.3196   25.1537 C   0  0  2  0  0  0  0  0  0  0  0  0
    7.5613  -14.6341   23.9028 N   0  0  0  0  0  0  0  0  0  0  0  0
    8.7772  -15.5835   25.6701 C   0  0  0  0  0  0  0  0  0  0  0  0
    7.9766  -16.5241   25.8948 O   0  0  0  0  0  0  0  0  0  0  0  0
   10.1502  -15.8210   25.9365 N   0  0  0  0  0  0  0  0  0  0  0  0
   10.6486  -17.1541   26.3394 C   0  0  1  0  0  0  0  0  0  0  0  0
   12.0576  -17.3218   25.8128 C   0  0  0  0  0  0  0  0  0  0  0  0
   12.7116  -18.5749   26.2467 C   0  0  0  0  0  0  0  0  0  0  0  0
   13.6643  -18.6612   27.0509 O   0  0  0  0  0  0  0  0  0  0  0  0
   10.6394  -17.1706   27.8397 C   0  0  0  0  0  0  0  0  0  0  0  0
   10.9814  -18.2475   28.4376 O   0  0  0  0  0  0  0  0  0  0  0  0
   12.2497  -19.8008   25.7310 O   0  0  0  0  0  0  0  0  0  0  0  0
   10.2877  -16.1034   28.6306 O   0  0  0  0  0  0  0  0  0  0  0  0
  2  1  1  6
  2  7  1  0
  3  2  1  0
  4  3  1  0
  5  4  1  0
  6  5  2  0
  7  8  2  0
  9  5  1  0
 10 11  1  0
 12 11  1  0
 12 14  1  0
 12 13  1  1
 14 15  1  6
 15  7  1  0
 16 17  2  0
 16 14  1  0
 18 16  1  0
 19 18  1  0
 19 23  1  0
 19 20  1  1
 21 20  1  0
 21 22  2  0
 23 26  1  0
 24 23  2  0
 25 21  1  0
M  END
$$$$
