EID.pdb
     RDKit          3D

 26 25  0  0  1  0  0  0  0  0999 V2000
    6.9159  -16.7225   21.2880 N   0  0  0  0  0  0  0  0  0  0  0  0
    8.3027  -16.3979   21.1790 C   0  0  1  0  0  0  0  0  0  0  0  0
    8.6674  -15.7181   19.8926 C   0  0  0  0  0  0  0  0  0  0  0  0
    8.1121  -16.5092   18.7345 C   0  0  0  0  0  0  0  0  0  0  0  0
    9.1712  -16.8790   17.7589 C   0  0  0  0  0  0  0  0  0  0  0  0
    9.8221  -17.9511   17.8150 O   0  0  0  0  0  0  0  0  0  0  0  0
    8.8063  -15.6698   22.3715 C   0  0  0  0  0  0  0  0  0  0  0  0
   10.0329  -15.3928   22.4025 O   0  0  0  0  0  0  0  0  0  0  0  0
    9.4304  -15.9669   16.7418 O   0  0  0  0  0  0  0  0  0  0  0  0
    7.0443  -11.6969   26.7416 C   0  0  0  0  0  0  0  0  0  0  0  0
    8.0075  -12.7323   26.2508 C   0  0  0  0  0  0  0  0  0  0  0  0
    7.4355  -13.5748   25.1158 C   0  0  2  0  0  0  0  0  0  0  0  0
    6.2505  -14.3738   25.6123 C   0  0  0  0  0  0  0  0  0  0  0  0
    8.4751  -14.5388   24.6158 C   0  0  2  0  0  0  0  0  0  0  0  0
    8.0023  -15.2784   23.4518 N   0  0  0  0  0  0  0  0  0  0  0  0
    8.8758  -15.5367   25.6135 C   0  0  0  0  0  0  0  0  0  0  0  0
    8.0937  -16.4892   25.8524 O   0  0  0  0  0  0  0  0  0  0  0  0
   10.0968  -15.5016   26.3351 N   0  0  0  0  0  0  0  0  0  0  0  0
   10.4908  -16.5892   27.2570 C   0  0  1  0  0  0  0  0  0  0  0  0
   11.9526  -16.9090   27.0290 C   0  0  0  0  0  0  0  0  0  0  0  0
   12.2513  -17.3951   25.6649 C   0  0  0  0  0  0  0  0  0  0  0  0
   11.6112  -18.2715   25.0452 O   0  0  0  0  0  0  0  0  0  0  0  0
   10.2751  -16.0624   28.6453 C   0  0  0  0  0  0  0  0  0  0  0  0
   10.3892  -16.8730   29.6272 O   0  0  0  0  0  0  0  0  0  0  0  0
   13.3456  -16.8475   24.9687 O   0  0  0  0  0  0  0  0  0  0  0  0
    9.9610  -14.7591   28.9463 O   0  0  0  0  0  0  0  0  0  0  0  0
  2  1  1  1
  2  7  1  0
  3  2  1  0
  4  3  1  0
  5  4  1  0
  6  5  2  0
  7  8  2  0
  9  5  1  0
 10 11  1  0
 12 11  1  0
 12 14  1  0
 12 13  1  1
 14 15  1  6
 15  7  1  0
 16 17  2  0
 16 14  1  0
 18 16  1  0
 19 18  1  0
 19 23  1  0
 19 20  1  1
 21 20  1  0
 21 22  2  0
 23 26  1  0
 24 23  2  0
 25 21  1  0
M  END
$$$$
