EID.pdb
     RDKit          3D

 26 25  0  0  1  0  0  0  0  0999 V2000
    9.5938  -18.2070   16.8033 N   0  0  0  0  0  0  0  0  0  0  0  0
    8.5937  -17.8791   17.7692 C   0  0  1  0  0  0  0  0  0  0  0  0
    7.7879  -19.0566   18.2320 C   0  0  0  0  0  0  0  0  0  0  0  0
    7.7643  -20.1035   17.1462 C   0  0  0  0  0  0  0  0  0  0  0  0
    6.9133  -21.2650   17.5163 C   0  0  0  0  0  0  0  0  0  0  0  0
    5.6599  -21.2174   17.5697 O   0  0  0  0  0  0  0  0  0  0  0  0
    9.1401  -17.0831   18.8977 C   0  0  0  0  0  0  0  0  0  0  0  0
   10.3835  -17.1239   19.0834 O   0  0  0  0  0  0  0  0  0  0  0  0
    7.5719  -22.4531   17.8135 O   0  0  0  0  0  0  0  0  0  0  0  0
    6.8136  -12.3258   20.0055 C   0  0  0  0  0  0  0  0  0  0  0  0
    7.9240  -13.3248   19.9074 C   0  0  0  0  0  0  0  0  0  0  0  0
    7.9556  -14.2852   21.0913 C   0  0  2  0  0  0  0  0  0  0  0  0
    8.4577  -13.5676   22.3251 C   0  0  0  0  0  0  0  0  0  0  0  0
    8.8874  -15.4289   20.8019 C   0  0  2  0  0  0  0  0  0  0  0  0
    8.3584  -16.2981   19.7578 N   0  0  0  0  0  0  0  0  0  0  0  0
    9.1471  -16.2814   21.9671 C   0  0  0  0  0  0  0  0  0  0  0  0
    8.2279  -17.0344   22.3723 O   0  0  0  0  0  0  0  0  0  0  0  0
   10.3755  -16.3159   22.6758 N   0  0  0  0  0  0  0  0  0  0  0  0
   10.6173  -17.2774   23.7735 C   0  0  1  0  0  0  0  0  0  0  0  0
   12.0202  -17.8278   23.6325 C   0  0  0  0  0  0  0  0  0  0  0  0
   12.4686  -18.6238   24.7951 C   0  0  0  0  0  0  0  0  0  0  0  0
   13.3626  -18.2954   25.6042 O   0  0  0  0  0  0  0  0  0  0  0  0
   10.4796  -16.5013   25.0503 C   0  0  0  0  0  0  0  0  0  0  0  0
   10.6044  -15.2299   25.0048 O   0  0  0  0  0  0  0  0  0  0  0  0
   11.8594  -19.8677   25.0473 O   0  0  0  0  0  0  0  0  0  0  0  0
   10.2261  -17.0591   26.2801 O   0  0  0  0  0  0  0  0  0  0  0  0
  2  1  1  6
  2  7  1  0
  3  2  1  0
  4  3  1  0
  5  4  1  0
  6  5  2  0
  7  8  2  0
  9  5  1  0
 10 11  1  0
 12 11  1  0
 12 14  1  0
 12 13  1  1
 14 15  1  6
 15  7  1  0
 16 17  2  0
 16 14  1  0
 18 16  1  0
 19 18  1  0
 19 23  1  0
 19 20  1  6
 21 20  1  0
 21 22  2  0
 23 26  1  0
 24 23  2  0
 25 21  1  0
M  END
$$$$
