EID.pdb
     RDKit          3D

 26 25  0  0  1  0  0  0  0  0999 V2000
   10.6108  -17.9964   17.2560 N   0  0  0  0  0  0  0  0  0  0  0  0
    9.6816  -18.0239   18.3406 C   0  0  1  0  0  0  0  0  0  0  0  0
    9.5837  -19.3566   19.0220 C   0  0  0  0  0  0  0  0  0  0  0  0
    9.4951  -20.4446   17.9810 C   0  0  0  0  0  0  0  0  0  0  0  0
    9.2966  -21.7836   18.5959 C   0  0  0  0  0  0  0  0  0  0  0  0
    9.1931  -22.8436   17.9311 O   0  0  0  0  0  0  0  0  0  0  0  0
    9.8992  -16.9089   19.2972 C   0  0  0  0  0  0  0  0  0  0  0  0
   11.0659  -16.4479   19.3897 O   0  0  0  0  0  0  0  0  0  0  0  0
    9.2259  -21.8299   19.9838 O   0  0  0  0  0  0  0  0  0  0  0  0
    6.5786  -12.7457   19.5723 C   0  0  0  0  0  0  0  0  0  0  0  0
    7.8040  -13.5983   19.6811 C   0  0  0  0  0  0  0  0  0  0  0  0
    7.9067  -14.3092   21.0262 C   0  0  2  0  0  0  0  0  0  0  0  0
    8.1080  -13.2960   22.1317 C   0  0  0  0  0  0  0  0  0  0  0  0
    9.0844  -15.2436   21.0261 C   0  0  2  0  0  0  0  0  0  0  0  0
    8.8906  -16.3476   20.0937 N   0  0  0  0  0  0  0  0  0  0  0  0
    9.3558  -15.8433   22.3370 C   0  0  0  0  0  0  0  0  0  0  0  0
    8.7415  -16.8918   22.6523 O   0  0  0  0  0  0  0  0  0  0  0  0
   10.2722  -15.3173   23.2837 N   0  0  0  0  0  0  0  0  0  0  0  0
   10.6376  -16.0568   24.5115 C   0  0  1  0  0  0  0  0  0  0  0  0
    9.5445  -17.0590   24.8143 C   0  0  0  0  0  0  0  0  0  0  0  0
    9.8560  -17.9578   25.9463 C   0  0  0  0  0  0  0  0  0  0  0  0
   10.9137  -17.9548   26.6119 O   0  0  0  0  0  0  0  0  0  0  0  0
   11.9296  -16.7582   24.2111 C   0  0  0  0  0  0  0  0  0  0  0  0
   12.9834  -16.3809   24.8285 O   0  0  0  0  0  0  0  0  0  0  0  0
    8.9027  -18.9160   26.3403 O   0  0  0  0  0  0  0  0  0  0  0  0
   12.0687  -17.7882   23.3124 O   0  0  0  0  0  0  0  0  0  0  0  0
  2  1  1  6
  2  7  1  0
  3  2  1  0
  4  3  1  0
  5  4  1  0
  6  5  2  0
  7  8  2  0
  9  5  1  0
 10 11  1  0
 12 11  1  0
 12 14  1  0
 12 13  1  1
 14 15  1  6
 15  7  1  0
 16 17  2  0
 16 14  1  0
 18 16  1  0
 19 18  1  0
 19 23  1  0
 19 20  1  6
 21 20  1  0
 21 22  2  0
 23 26  1  0
 24 23  2  0
 25 21  1  0
M  END
$$$$
