KMQ.pdb
     RDKit          3D

 27 26  0  0  1  0  0  0  0  0999 V2000
    7.5724  -16.3958   20.4731 N   0  0  0  0  0  0  0  0  0  0  0  0
    8.7890  -15.6328   20.4292 C   0  0  1  0  0  0  0  0  0  0  0  0
    8.7713  -14.4812   19.4855 C   0  0  0  0  0  0  0  0  0  0  0  0
    8.2536  -14.8016   18.1285 C   0  0  0  0  0  0  0  0  0  0  0  0
    8.2300  -13.6794   17.1517 C   0  0  0  0  0  0  0  0  0  0  0  0
    7.5985  -14.1959   15.8546 C   0  0  0  0  0  0  0  0  0  0  0  0
    7.6855  -13.1164   14.8901 N   0  0  0  0  0  0  0  0  0  0  0  0
    9.0765  -15.1478   21.8111 C   0  0  0  0  0  0  0  0  0  0  0  0
   10.1826  -14.5677   21.9923 O   0  0  0  0  0  0  0  0  0  0  0  0
    6.4858  -11.4619   28.0505 C   0  0  0  0  0  0  0  0  0  0  0  0
    6.1677  -12.1674   26.4262 S   0  0  0  0  0  0  0  0  0  0  0  0
    7.4416  -13.3915   26.0139 C   0  0  0  0  0  0  0  0  0  0  0  0
    7.1827  -14.0162   24.6677 C   0  0  0  0  0  0  0  0  0  0  0  0
    8.3516  -14.8211   24.1639 C   0  0  2  0  0  0  0  0  0  0  0  0
    8.1367  -15.3438   22.8436 N   0  0  0  0  0  0  0  0  0  0  0  0
    8.6709  -15.9572   25.1000 C   0  0  0  0  0  0  0  0  0  0  0  0
    7.8607  -16.8940   25.2828 O   0  0  0  0  0  0  0  0  0  0  0  0
   13.5687  -19.0951   24.5927 N   0  0  0  0  0  0  0  0  0  0  0  0
   13.3262  -19.4433   25.9468 C   0  0  0  0  0  0  0  0  0  0  0  0
   13.9964  -20.3988   26.4360 O   0  0  0  0  0  0  0  0  0  0  0  0
   12.3201  -18.7077   26.7494 C   0  0  0  0  0  0  0  0  0  0  0  0
   11.6616  -17.6105   26.0010 C   0  0  0  0  0  0  0  0  0  0  0  0
   10.2638  -17.2564   26.4646 C   0  0  2  0  0  0  0  0  0  0  0  0
    9.8924  -16.0032   25.8011 N   0  0  0  0  0  0  0  0  0  0  0  0
   10.2744  -16.9752   27.9118 C   0  0  0  0  0  0  0  0  0  0  0  0
   10.1462  -15.6862   28.3696 O   0  0  0  0  0  0  0  0  0  0  0  0
   10.3999  -17.8993   28.7312 O   0  0  0  0  0  0  0  0  0  0  0  0
  2  3  1  0
  2  1  1  1
  4  3  1  0
  5  4  1  0
  5  6  1  0
  6  7  1  0
  8  9  2  0
  8  2  1  0
 10 11  1  0
 11 12  1  0
 12 13  1  0
 14 13  1  1
 14 15  1  0
 15  8  1  0
 16 17  2  0
 16 14  1  0
 18 19  1  0
 19 20  2  0
 21 19  1  0
 21 22  1  0
 23 22  1  6
 23 24  1  0
 24 16  1  0
 25 23  1  0
 26 25  1  0
 27 25  2  0
M  END
$$$$
