KMQ.pdb
     RDKit          3D

 27 26  0  0  1  0  0  0  0  0999 V2000
    7.7458  -16.4471   20.2866 N   0  0  0  0  0  0  0  0  0  0  0  0
    9.1219  -16.0393   20.2222 C   0  0  1  0  0  0  0  0  0  0  0  0
    9.4321  -15.0516   19.1521 C   0  0  0  0  0  0  0  0  0  0  0  0
    8.2794  -14.7031   18.2792 C   0  0  0  0  0  0  0  0  0  0  0  0
    8.5730  -13.8053   17.1295 C   0  0  0  0  0  0  0  0  0  0  0  0
    7.2613  -13.5576   16.3772 C   0  0  0  0  0  0  0  0  0  0  0  0
    7.5885  -12.7346   15.2287 N   0  0  0  0  0  0  0  0  0  0  0  0
    9.4960  -15.4756   21.5526 C   0  0  0  0  0  0  0  0  0  0  0  0
   10.6564  -14.9909   21.6596 O   0  0  0  0  0  0  0  0  0  0  0  0
    6.5238  -11.9020   26.6097 C   0  0  0  0  0  0  0  0  0  0  0  0
    5.8245  -12.6322   25.1213 S   0  0  0  0  0  0  0  0  0  0  0  0
    7.1428  -13.3173   24.0801 C   0  0  0  0  0  0  0  0  0  0  0  0
    7.7691  -14.5290   24.7197 C   0  0  0  0  0  0  0  0  0  0  0  0
    8.9407  -15.0613   23.9375 C   0  0  2  0  0  0  0  0  0  0  0  0
    8.5746  -15.4983   22.6194 N   0  0  0  0  0  0  0  0  0  0  0  0
    9.6088  -16.1969   24.6676 C   0  0  0  0  0  0  0  0  0  0  0  0
   10.4331  -16.9425   24.0914 O   0  0  0  0  0  0  0  0  0  0  0  0
   10.9749  -14.3705   30.2142 N   0  0  0  0  0  0  0  0  0  0  0  0
   11.2927  -15.7432   30.3821 C   0  0  0  0  0  0  0  0  0  0  0  0
   11.7274  -16.1108   31.5123 O   0  0  0  0  0  0  0  0  0  0  0  0
   11.1189  -16.7029   29.2657 C   0  0  0  0  0  0  0  0  0  0  0  0
   10.5799  -16.0781   28.0342 C   0  0  0  0  0  0  0  0  0  0  0  0
   10.3967  -17.0147   26.8580 C   0  0  2  0  0  0  0  0  0  0  0  0
    9.3280  -16.4576   26.0237 N   0  0  0  0  0  0  0  0  0  0  0  0
    9.9153  -18.3245   27.3335 C   0  0  0  0  0  0  0  0  0  0  0  0
   10.7991  -19.2482   27.8367 O   0  0  0  0  0  0  0  0  0  0  0  0
    8.7074  -18.6067   27.2836 O   0  0  0  0  0  0  0  0  0  0  0  0
  2  3  1  0
  2  1  1  1
  4  3  1  0
  5  4  1  0
  5  6  1  0
  6  7  1  0
  8  9  2  0
  8  2  1  0
 10 11  1  0
 11 12  1  0
 12 13  1  0
 14 13  1  1
 14 15  1  0
 15  8  1  0
 16 17  2  0
 16 14  1  0
 18 19  1  0
 19 20  2  0
 21 19  1  0
 21 22  1  0
 23 22  1  1
 23 24  1  0
 24 16  1  0
 25 23  1  0
 26 25  1  0
 27 25  2  0
M  END
$$$$
