KMQ.pdb
     RDKit          3D

 27 26  0  0  1  0  0  0  0  0999 V2000
    7.8561  -16.2145   20.2632 N   0  0  0  0  0  0  0  0  0  0  0  0
    9.2444  -15.8498   20.3240 C   0  0  1  0  0  0  0  0  0  0  0  0
    9.7080  -14.9664   19.2187 C   0  0  0  0  0  0  0  0  0  0  0  0
    9.2563  -15.3821   17.8640 C   0  0  0  0  0  0  0  0  0  0  0  0
    8.1409  -14.5948   17.2724 C   0  0  0  0  0  0  0  0  0  0  0  0
    7.9380  -15.0736   15.8310 C   0  0  0  0  0  0  0  0  0  0  0  0
    6.8786  -14.2596   15.2667 N   0  0  0  0  0  0  0  0  0  0  0  0
    9.4866  -15.1834   21.6374 C   0  0  0  0  0  0  0  0  0  0  0  0
   10.6254  -14.6684   21.8131 O   0  0  0  0  0  0  0  0  0  0  0  0
    6.9591  -10.8268   27.2081 C   0  0  0  0  0  0  0  0  0  0  0  0
    6.3041  -12.1505   26.1804 S   0  0  0  0  0  0  0  0  0  0  0  0
    7.5926  -13.3844   25.8509 C   0  0  0  0  0  0  0  0  0  0  0  0
    7.3843  -14.0471   24.5140 C   0  0  0  0  0  0  0  0  0  0  0  0
    8.6727  -14.5065   23.8839 C   0  0  2  0  0  0  0  0  0  0  0  0
    8.4712  -15.1477   22.6148 N   0  0  0  0  0  0  0  0  0  0  0  0
    9.4195  -15.4420   24.7981 C   0  0  0  0  0  0  0  0  0  0  0  0
    8.8654  -16.4546   25.2831 O   0  0  0  0  0  0  0  0  0  0  0  0
    9.7549  -17.3925   29.6306 N   0  0  0  0  0  0  0  0  0  0  0  0
   10.4015  -16.1504   29.8598 C   0  0  0  0  0  0  0  0  0  0  0  0
   10.6489  -15.8302   31.0589 O   0  0  0  0  0  0  0  0  0  0  0  0
   10.7681  -15.2669   28.7273 C   0  0  0  0  0  0  0  0  0  0  0  0
   10.2644  -15.7507   27.4197 C   0  0  0  0  0  0  0  0  0  0  0  0
   11.3069  -15.8731   26.3277 C   0  0  2  0  0  0  0  0  0  0  0  0
   10.7671  -15.2086   25.1378 N   0  0  0  0  0  0  0  0  0  0  0  0
   11.4881  -17.2912   25.9677 C   0  0  0  0  0  0  0  0  0  0  0  0
   10.6578  -17.8858   25.0488 O   0  0  0  0  0  0  0  0  0  0  0  0
   12.3916  -17.9626   26.4911 O   0  0  0  0  0  0  0  0  0  0  0  0
  2  3  1  0
  2  1  1  6
  4  3  1  0
  5  4  1  0
  5  6  1  0
  6  7  1  0
  8  9  2  0
  8  2  1  0
 10 11  1  0
 11 12  1  0
 12 13  1  0
 14 13  1  1
 14 15  1  0
 15  8  1  0
 16 17  2  0
 16 14  1  0
 18 19  1  0
 19 20  2  0
 21 19  1  0
 21 22  1  0
 23 22  1  1
 23 24  1  0
 24 16  1  0
 25 23  1  0
 26 25  1  0
 27 25  2  0
M  END
$$$$
