KMQ.pdb
     RDKit          3D

 27 26  0  0  1  0  0  0  0  0999 V2000
    7.0254  -16.3329   20.8812 N   0  0  0  0  0  0  0  0  0  0  0  0
    8.2398  -15.5783   20.7399 C   0  0  1  0  0  0  0  0  0  0  0  0
    8.1422  -14.3999   19.8349 C   0  0  0  0  0  0  0  0  0  0  0  0
    8.0017  -14.7375   18.3933 C   0  0  0  0  0  0  0  0  0  0  0  0
    8.1858  -13.6149   17.4341 C   0  0  0  0  0  0  0  0  0  0  0  0
    7.9526  -14.1588   16.0206 C   0  0  0  0  0  0  0  0  0  0  0  0
    8.1028  -13.0379   15.1127 N   0  0  0  0  0  0  0  0  0  0  0  0
    8.6657  -15.1355   22.1001 C   0  0  0  0  0  0  0  0  0  0  0  0
    9.8067  -14.6044   22.1946 O   0  0  0  0  0  0  0  0  0  0  0  0
    6.8525  -11.4467   27.4237 C   0  0  0  0  0  0  0  0  0  0  0  0
    5.8666  -12.0031   26.0252 S   0  0  0  0  0  0  0  0  0  0  0  0
    6.9028  -12.9229   24.8541 C   0  0  0  0  0  0  0  0  0  0  0  0
    7.1868  -14.3155   25.3538 C   0  0  0  0  0  0  0  0  0  0  0  0
    8.2427  -15.0214   24.5446 C   0  0  2  0  0  0  0  0  0  0  0  0
    7.8112  -15.3158   23.2068 N   0  0  0  0  0  0  0  0  0  0  0  0
    8.6774  -16.2974   25.2166 C   0  0  0  0  0  0  0  0  0  0  0  0
    7.8776  -17.2455   25.3871 O   0  0  0  0  0  0  0  0  0  0  0  0
   14.4113  -18.6181   24.9598 N   0  0  0  0  0  0  0  0  0  0  0  0
   13.8435  -19.4339   25.9724 C   0  0  0  0  0  0  0  0  0  0  0  0
   14.5576  -20.3663   26.4438 O   0  0  0  0  0  0  0  0  0  0  0  0
   12.4616  -19.1939   26.4522 C   0  0  0  0  0  0  0  0  0  0  0  0
   11.8020  -18.0443   25.7884 C   0  0  0  0  0  0  0  0  0  0  0  0
   10.3790  -17.7696   26.2288 C   0  0  2  0  0  0  0  0  0  0  0  0
    9.9989  -16.4664   25.6756 N   0  0  0  0  0  0  0  0  0  0  0  0
   10.3287  -17.6311   27.6957 C   0  0  0  0  0  0  0  0  0  0  0  0
   10.4320  -18.7390   28.5015 O   0  0  0  0  0  0  0  0  0  0  0  0
   10.1918  -16.5132   28.2176 O   0  0  0  0  0  0  0  0  0  0  0  0
  2  3  1  0
  2  1  1  1
  4  3  1  0
  5  4  1  0
  5  6  1  0
  6  7  1  0
  8  9  2  0
  8  2  1  0
 10 11  1  0
 11 12  1  0
 12 13  1  0
 14 13  1  1
 14 15  1  0
 15  8  1  0
 16 17  2  0
 16 14  1  0
 18 19  1  0
 19 20  2  0
 21 19  1  0
 21 22  1  0
 23 22  1  1
 23 24  1  0
 24 16  1  0
 25 23  1  0
 26 25  1  0
 27 25  2  0
M  END
$$$$
