KMQ.pdb
     RDKit          3D

 27 26  0  0  1  0  0  0  0  0999 V2000
    7.3076  -15.7866   20.4160 N   0  0  0  0  0  0  0  0  0  0  0  0
    8.4110  -14.8679   20.4663 C   0  0  1  0  0  0  0  0  0  0  0  0
    8.1806  -13.5746   19.7654 C   0  0  0  0  0  0  0  0  0  0  0  0
    8.6119  -13.5572   18.3421 C   0  0  0  0  0  0  0  0  0  0  0  0
    7.5761  -13.9179   17.3366 C   0  0  0  0  0  0  0  0  0  0  0  0
    8.2262  -13.8661   15.9500 C   0  0  0  0  0  0  0  0  0  0  0  0
    7.2399  -14.3603   15.0086 N   0  0  0  0  0  0  0  0  0  0  0  0
    8.7310  -14.6133   21.9018 C   0  0  0  0  0  0  0  0  0  0  0  0
    9.8406  -14.0651   22.1492 O   0  0  0  0  0  0  0  0  0  0  0  0
    6.8787  -11.6474   27.5303 C   0  0  0  0  0  0  0  0  0  0  0  0
    5.8770  -12.0365   26.0872 S   0  0  0  0  0  0  0  0  0  0  0  0
    6.8897  -12.8530   24.8227 C   0  0  0  0  0  0  0  0  0  0  0  0
    7.1159  -14.3042   25.1581 C   0  0  0  0  0  0  0  0  0  0  0  0
    8.1761  -14.9426   24.3000 C   0  0  2  0  0  0  0  0  0  0  0  0
    7.8162  -14.9795   22.9101 N   0  0  0  0  0  0  0  0  0  0  0  0
    8.4835  -16.3406   24.7689 C   0  0  0  0  0  0  0  0  0  0  0  0
    7.8421  -17.3252   24.3369 O   0  0  0  0  0  0  0  0  0  0  0  0
   12.3367  -17.7869   21.8129 N   0  0  0  0  0  0  0  0  0  0  0  0
   12.6856  -18.7916   22.7523 C   0  0  0  0  0  0  0  0  0  0  0  0
   13.5585  -19.6401   22.4068 O   0  0  0  0  0  0  0  0  0  0  0  0
   12.0427  -18.8363   24.0873 C   0  0  0  0  0  0  0  0  0  0  0  0
   11.0597  -17.7475   24.3012 C   0  0  0  0  0  0  0  0  0  0  0  0
   10.2701  -17.8303   25.5912 C   0  0  2  0  0  0  0  0  0  0  0  0
    9.5034  -16.5866   25.7097 N   0  0  0  0  0  0  0  0  0  0  0  0
   11.1934  -17.8626   26.7401 C   0  0  0  0  0  0  0  0  0  0  0  0
   11.2042  -16.8343   27.6512 O   0  0  0  0  0  0  0  0  0  0  0  0
   11.9707  -18.8179   26.8958 O   0  0  0  0  0  0  0  0  0  0  0  0
  2  3  1  0
  2  1  1  1
  4  3  1  0
  5  4  1  0
  5  6  1  0
  6  7  1  0
  8  9  2  0
  8  2  1  0
 10 11  1  0
 11 12  1  0
 12 13  1  0
 14 13  1  1
 14 15  1  0
 15  8  1  0
 16 17  2  0
 16 14  1  0
 18 19  1  0
 19 20  2  0
 21 19  1  0
 21 22  1  0
 23 22  1  6
 23 24  1  0
 24 16  1  0
 25 23  1  0
 26 25  1  0
 27 25  2  0
M  END
$$$$
