KMQ.pdb
     RDKit          3D

 27 26  0  0  1  0  0  0  0  0999 V2000
    7.8699  -16.9435   20.4000 N   0  0  0  0  0  0  0  0  0  0  0  0
    9.0911  -16.1923   20.3082 C   0  0  1  0  0  0  0  0  0  0  0  0
    9.1215  -15.1791   19.2174 C   0  0  0  0  0  0  0  0  0  0  0  0
    9.5468  -15.7079   17.8940 C   0  0  0  0  0  0  0  0  0  0  0  0
    8.4571  -16.0278   16.9326 C   0  0  0  0  0  0  0  0  0  0  0  0
    9.0882  -16.7078   15.7131 C   0  0  0  0  0  0  0  0  0  0  0  0
    7.9948  -17.1287   14.8583 N   0  0  0  0  0  0  0  0  0  0  0  0
    9.3188  -15.5242   21.6233 C   0  0  0  0  0  0  0  0  0  0  0  0
   10.3868  -14.8636   21.7489 O   0  0  0  0  0  0  0  0  0  0  0  0
    6.7223  -11.8856   27.9642 C   0  0  0  0  0  0  0  0  0  0  0  0
    6.3852  -12.5610   26.3310 S   0  0  0  0  0  0  0  0  0  0  0  0
    7.6908  -13.7263   25.8527 C   0  0  0  0  0  0  0  0  0  0  0  0
    7.4537  -14.2735   24.4692 C   0  0  0  0  0  0  0  0  0  0  0  0
    8.6058  -15.1017   23.9644 C   0  0  2  0  0  0  0  0  0  0  0  0
    8.3670  -15.6445   22.6564 N   0  0  0  0  0  0  0  0  0  0  0  0
    8.9233  -16.2253   24.9160 C   0  0  0  0  0  0  0  0  0  0  0  0
    8.0467  -17.0498   25.2614 O   0  0  0  0  0  0  0  0  0  0  0  0
   11.9817  -20.7917   24.6352 N   0  0  0  0  0  0  0  0  0  0  0  0
   11.5678  -19.5180   24.1662 C   0  0  0  0  0  0  0  0  0  0  0  0
   10.6446  -19.4828   23.3013 O   0  0  0  0  0  0  0  0  0  0  0  0
   12.2025  -18.2797   24.6774 C   0  0  0  0  0  0  0  0  0  0  0  0
   11.8749  -17.9952   26.0948 C   0  0  0  0  0  0  0  0  0  0  0  0
   10.4609  -17.5158   26.3505 C   0  0  2  0  0  0  0  0  0  0  0  0
   10.2178  -16.3856   25.4492 N   0  0  0  0  0  0  0  0  0  0  0  0
   10.3540  -16.9864   27.7222 C   0  0  0  0  0  0  0  0  0  0  0  0
   10.3714  -17.8395   28.7990 O   0  0  0  0  0  0  0  0  0  0  0  0
   10.2465  -15.7653   27.9186 O   0  0  0  0  0  0  0  0  0  0  0  0
  2  3  1  0
  2  1  1  1
  4  3  1  0
  5  4  1  0
  5  6  1  0
  6  7  1  0
  8  9  2  0
  8  2  1  0
 10 11  1  0
 11 12  1  0
 12 13  1  0
 14 13  1  1
 14 15  1  0
 15  8  1  0
 16 17  2  0
 16 14  1  0
 18 19  1  0
 19 20  2  0
 21 19  1  0
 21 22  1  0
 23 22  1  6
 23 24  1  0
 24 16  1  0
 25 23  1  0
 26 25  1  0
 27 25  2  0
M  END
$$$$
