KMQ.pdb
     RDKit          3D

 27 26  0  0  1  0  0  0  0  0999 V2000
    6.4432  -16.8159   20.5178 N   0  0  0  0  0  0  0  0  0  0  0  0
    7.8493  -16.7714   20.2261 C   0  0  1  0  0  0  0  0  0  0  0  0
    8.1960  -16.1711   18.9084 C   0  0  0  0  0  0  0  0  0  0  0  0
    7.4007  -16.6903   17.7639 C   0  0  0  0  0  0  0  0  0  0  0  0
    8.1103  -16.7858   16.4595 C   0  0  0  0  0  0  0  0  0  0  0  0
    7.3752  -15.8913   15.4558 C   0  0  0  0  0  0  0  0  0  0  0  0
    8.1259  -15.9513   14.2163 N   0  0  0  0  0  0  0  0  0  0  0  0
    8.5208  -16.0093   21.3197 C   0  0  0  0  0  0  0  0  0  0  0  0
    9.7802  -15.9390   21.2744 O   0  0  0  0  0  0  0  0  0  0  0  0
    6.0374  -12.3981   27.1787 C   0  0  0  0  0  0  0  0  0  0  0  0
    6.9066  -11.6319   25.8022 S   0  0  0  0  0  0  0  0  0  0  0  0
    8.0833  -12.8045   25.0729 C   0  0  0  0  0  0  0  0  0  0  0  0
    7.4240  -13.6539   24.0177 C   0  0  0  0  0  0  0  0  0  0  0  0
    8.3723  -14.6379   23.3849 C   0  0  2  0  0  0  0  0  0  0  0  0
    7.7567  -15.4079   22.3406 N   0  0  0  0  0  0  0  0  0  0  0  0
    8.9495  -15.5732   24.4149 C   0  0  0  0  0  0  0  0  0  0  0  0
    8.2940  -16.5499   24.8437 O   0  0  0  0  0  0  0  0  0  0  0  0
   15.7458  -18.0383   24.1347 N   0  0  0  0  0  0  0  0  0  0  0  0
   14.7986  -17.0091   24.3733 C   0  0  0  0  0  0  0  0  0  0  0  0
   15.1342  -15.8240   24.0831 O   0  0  0  0  0  0  0  0  0  0  0  0
   13.4668  -17.3229   24.9439 C   0  0  0  0  0  0  0  0  0  0  0  0
   12.4349  -16.3109   24.6147 C   0  0  0  0  0  0  0  0  0  0  0  0
   11.0650  -16.5637   25.2095 C   0  0  2  0  0  0  0  0  0  0  0  0
   10.2469  -15.3800   24.9300 N   0  0  0  0  0  0  0  0  0  0  0  0
   11.1687  -16.6625   26.6768 C   0  0  0  0  0  0  0  0  0  0  0  0
   10.6279  -15.6865   27.4783 O   0  0  0  0  0  0  0  0  0  0  0  0
   11.7460  -17.6273   27.2030 O   0  0  0  0  0  0  0  0  0  0  0  0
  2  3  1  0
  2  1  1  1
  4  3  1  0
  5  4  1  0
  5  6  1  0
  6  7  1  0
  8  9  2  0
  8  2  1  0
 10 11  1  0
 11 12  1  0
 12 13  1  0
 14 13  1  1
 14 15  1  0
 15  8  1  0
 16 17  2  0
 16 14  1  0
 18 19  1  0
 19 20  2  0
 21 19  1  0
 21 22  1  0
 23 22  1  6
 23 24  1  0
 24 16  1  0
 25 23  1  0
 26 25  1  0
 27 25  2  0
M  END
$$$$
