KMQ.pdb
     RDKit          3D

 27 26  0  0  1  0  0  0  0  0999 V2000
    7.3367  -17.5711   21.0861 N   0  0  0  0  0  0  0  0  0  0  0  0
    8.7380  -17.2742   20.9760 C   0  0  1  0  0  0  0  0  0  0  0  0
    9.1435  -16.6371   19.6927 C   0  0  0  0  0  0  0  0  0  0  0  0
    8.7007  -17.3653   18.4739 C   0  0  0  0  0  0  0  0  0  0  0  0
    9.0979  -16.7679   17.1702 C   0  0  0  0  0  0  0  0  0  0  0  0
    8.5599  -17.6697   16.0543 C   0  0  0  0  0  0  0  0  0  0  0  0
    8.8749  -17.0135   14.7999 N   0  0  0  0  0  0  0  0  0  0  0  0
    9.1106  -16.3888   22.1183 C   0  0  0  0  0  0  0  0  0  0  0  0
   10.3210  -16.0404   22.1974 O   0  0  0  0  0  0  0  0  0  0  0  0
    6.8066  -11.1375   27.5004 C   0  0  0  0  0  0  0  0  0  0  0  0
    6.3301  -12.2231   26.1470 S   0  0  0  0  0  0  0  0  0  0  0  0
    7.6790  -13.3733   25.7612 C   0  0  0  0  0  0  0  0  0  0  0  0
    7.3327  -14.2446   24.5820 C   0  0  0  0  0  0  0  0  0  0  0  0
    8.4669  -15.1453   24.1695 C   0  0  2  0  0  0  0  0  0  0  0  0
    8.1335  -15.9783   23.0481 N   0  0  0  0  0  0  0  0  0  0  0  0
    8.9132  -16.0143   25.3160 C   0  0  0  0  0  0  0  0  0  0  0  0
    8.1512  -16.8746   25.8126 O   0  0  0  0  0  0  0  0  0  0  0  0
   14.4372  -16.6558   25.0832 N   0  0  0  0  0  0  0  0  0  0  0  0
   13.5995  -17.7139   24.6447 C   0  0  0  0  0  0  0  0  0  0  0  0
   13.9358  -18.3306   23.5920 O   0  0  0  0  0  0  0  0  0  0  0  0
   12.3760  -18.0740   25.4001 C   0  0  0  0  0  0  0  0  0  0  0  0
   12.1100  -17.1748   26.5481 C   0  0  0  0  0  0  0  0  0  0  0  0
   10.6477  -16.8991   26.8313 C   0  0  2  0  0  0  0  0  0  0  0  0
   10.2037  -15.8876   25.8678 N   0  0  0  0  0  0  0  0  0  0  0  0
   10.5039  -16.2940   28.1680 C   0  0  0  0  0  0  0  0  0  0  0  0
   10.6574  -17.0609   29.2975 O   0  0  0  0  0  0  0  0  0  0  0  0
   10.2420  -15.0863   28.2869 O   0  0  0  0  0  0  0  0  0  0  0  0
  2  3  1  0
  2  1  1  6
  4  3  1  0
  5  4  1  0
  5  6  1  0
  6  7  1  0
  8  9  2  0
  8  2  1  0
 10 11  1  0
 11 12  1  0
 12 13  1  0
 14 13  1  1
 14 15  1  0
 15  8  1  0
 16 17  2  0
 16 14  1  0
 18 19  1  0
 19 20  2  0
 21 19  1  0
 21 22  1  0
 23 22  1  6
 23 24  1  0
 24 16  1  0
 25 23  1  0
 26 25  1  0
 27 25  2  0
M  END
$$$$
