KMQ.pdb
     RDKit          3D

 27 26  0  0  1  0  0  0  0  0999 V2000
    7.8028  -16.5518   20.3649 N   0  0  0  0  0  0  0  0  0  0  0  0
    9.1526  -16.0669   20.4480 C   0  0  1  0  0  0  0  0  0  0  0  0
    9.5293  -15.0824   19.3964 C   0  0  0  0  0  0  0  0  0  0  0  0
    8.5202  -14.9141   18.3169 C   0  0  0  0  0  0  0  0  0  0  0  0
    8.8812  -13.9762   17.2196 C   0  0  0  0  0  0  0  0  0  0  0  0
    7.6748  -13.8601   16.2820 C   0  0  0  0  0  0  0  0  0  0  0  0
    8.0600  -12.9535   15.2176 N   0  0  0  0  0  0  0  0  0  0  0  0
    9.3394  -15.4587   21.7981 C   0  0  0  0  0  0  0  0  0  0  0  0
   10.4550  -14.9152   22.0283 O   0  0  0  0  0  0  0  0  0  0  0  0
    7.0970  -11.1113   27.5909 C   0  0  0  0  0  0  0  0  0  0  0  0
    6.7011  -11.8942   26.0200 S   0  0  0  0  0  0  0  0  0  0  0  0
    7.5931  -13.4659   25.8604 C   0  0  0  0  0  0  0  0  0  0  0  0
    7.3508  -14.0965   24.5138 C   0  0  0  0  0  0  0  0  0  0  0  0
    8.4769  -14.9978   24.0810 C   0  0  2  0  0  0  0  0  0  0  0  0
    8.2998  -15.5056   22.7493 N   0  0  0  0  0  0  0  0  0  0  0  0
    8.6429  -16.1531   25.0331 C   0  0  0  0  0  0  0  0  0  0  0  0
    7.7280  -16.9910   25.2018 O   0  0  0  0  0  0  0  0  0  0  0  0
   13.2392  -19.4898   23.1729 N   0  0  0  0  0  0  0  0  0  0  0  0
   12.9220  -18.9763   24.4571 C   0  0  0  0  0  0  0  0  0  0  0  0
   13.8374  -18.9745   25.3308 O   0  0  0  0  0  0  0  0  0  0  0  0
   11.5628  -18.4641   24.7533 C   0  0  0  0  0  0  0  0  0  0  0  0
   11.3608  -18.1310   26.1836 C   0  0  0  0  0  0  0  0  0  0  0  0
    9.9988  -17.5674   26.5326 C   0  0  2  0  0  0  0  0  0  0  0  0
    9.8337  -16.3291   25.7658 N   0  0  0  0  0  0  0  0  0  0  0  0
    9.9672  -17.1844   27.9559 C   0  0  0  0  0  0  0  0  0  0  0  0
    9.9580  -18.1488   28.9343 O   0  0  0  0  0  0  0  0  0  0  0  0
    9.9478  -15.9876   28.2850 O   0  0  0  0  0  0  0  0  0  0  0  0
  2  3  1  0
  2  1  1  6
  4  3  1  0
  5  4  1  0
  5  6  1  0
  6  7  1  0
  8  9  2  0
  8  2  1  0
 10 11  1  0
 11 12  1  0
 12 13  1  0
 14 13  1  1
 14 15  1  0
 15  8  1  0
 16 17  2  0
 16 14  1  0
 18 19  1  0
 19 20  2  0
 21 19  1  0
 21 22  1  0
 23 22  1  6
 23 24  1  0
 24 16  1  0
 25 23  1  0
 26 25  1  0
 27 25  2  0
M  END
$$$$
