KMQ.pdb
     RDKit          3D

 27 26  0  0  1  0  0  0  0  0999 V2000
    7.2351  -15.2667   20.3618 N   0  0  0  0  0  0  0  0  0  0  0  0
    8.5207  -14.6253   20.3587 C   0  0  1  0  0  0  0  0  0  0  0  0
    8.5504  -13.2869   19.7070 C   0  0  0  0  0  0  0  0  0  0  0  0
    7.8878  -13.2322   18.3766 C   0  0  0  0  0  0  0  0  0  0  0  0
    8.6848  -13.7323   17.2239 C   0  0  0  0  0  0  0  0  0  0  0  0
    7.8124  -13.6325   15.9681 C   0  0  0  0  0  0  0  0  0  0  0  0
    8.5484  -14.2764   14.8971 N   0  0  0  0  0  0  0  0  0  0  0  0
    8.9777  -14.5068   21.7747 C   0  0  0  0  0  0  0  0  0  0  0  0
   10.1517  -14.0825   21.9604 O   0  0  0  0  0  0  0  0  0  0  0  0
    6.8502  -11.3583   27.4080 C   0  0  0  0  0  0  0  0  0  0  0  0
    5.9425  -12.2154   26.1123 S   0  0  0  0  0  0  0  0  0  0  0  0
    7.0888  -12.8441   24.8545 C   0  0  0  0  0  0  0  0  0  0  0  0
    7.4539  -14.2816   25.1189 C   0  0  0  0  0  0  0  0  0  0  0  0
    8.5377  -14.7859   24.2029 C   0  0  2  0  0  0  0  0  0  0  0  0
    8.1151  -14.8601   22.8324 N   0  0  0  0  0  0  0  0  0  0  0  0
    9.0324  -16.1390   24.6423 C   0  0  0  0  0  0  0  0  0  0  0  0
    8.3701  -17.1769   24.4148 O   0  0  0  0  0  0  0  0  0  0  0  0
   13.7083  -20.7687   24.2457 N   0  0  0  0  0  0  0  0  0  0  0  0
   13.7724  -19.4153   24.6673 C   0  0  0  0  0  0  0  0  0  0  0  0
   14.5929  -18.6548   24.0758 O   0  0  0  0  0  0  0  0  0  0  0  0
   12.9052  -18.9217   25.7635 C   0  0  0  0  0  0  0  0  0  0  0  0
   12.2301  -17.6408   25.4453 C   0  0  0  0  0  0  0  0  0  0  0  0
   10.7267  -17.6363   25.6297 C   0  0  2  0  0  0  0  0  0  0  0  0
   10.2574  -16.2817   25.3240 N   0  0  0  0  0  0  0  0  0  0  0  0
   10.3969  -17.8828   27.0453 C   0  0  0  0  0  0  0  0  0  0  0  0
   10.6235  -19.1162   27.6064 O   0  0  0  0  0  0  0  0  0  0  0  0
    9.9108  -16.9795   27.7445 O   0  0  0  0  0  0  0  0  0  0  0  0
  2  3  1  0
  2  1  1  1
  4  3  1  0
  5  4  1  0
  5  6  1  0
  6  7  1  0
  8  9  2  0
  8  2  1  0
 10 11  1  0
 11 12  1  0
 12 13  1  0
 14 13  1  1
 14 15  1  0
 15  8  1  0
 16 17  2  0
 16 14  1  0
 18 19  1  0
 19 20  2  0
 21 19  1  0
 21 22  1  0
 23 22  1  1
 23 24  1  0
 24 16  1  0
 25 23  1  0
 26 25  1  0
 27 25  2  0
M  END
$$$$
