KMQ.pdb
     RDKit          3D

 27 26  0  0  1  0  0  0  0  0999 V2000
    9.1086  -15.9348   19.3816 N   0  0  0  0  0  0  0  0  0  0  0  0
    8.1479  -16.2391   20.4056 C   0  0  1  0  0  0  0  0  0  0  0  0
    7.8700  -17.6901   20.5912 C   0  0  0  0  0  0  0  0  0  0  0  0
    7.5844  -18.4308   19.3335 C   0  0  0  0  0  0  0  0  0  0  0  0
    7.2094  -19.8628   19.4843 C   0  0  0  0  0  0  0  0  0  0  0  0
    6.9836  -20.4416   18.0836 C   0  0  0  0  0  0  0  0  0  0  0  0
    6.6268  -21.8360   18.2614 N   0  0  0  0  0  0  0  0  0  0  0  0
    8.6410  -15.6523   21.6863 C   0  0  0  0  0  0  0  0  0  0  0  0
    9.8826  -15.7197   21.9027 O   0  0  0  0  0  0  0  0  0  0  0  0
    6.8579  -11.3848   28.1355 C   0  0  0  0  0  0  0  0  0  0  0  0
    6.2977  -12.0286   26.5515 S   0  0  0  0  0  0  0  0  0  0  0  0
    7.5548  -13.1271   25.8413 C   0  0  0  0  0  0  0  0  0  0  0  0
    7.1652  -13.5799   24.4583 C   0  0  0  0  0  0  0  0  0  0  0  0
    8.1799  -14.5053   23.8402 C   0  0  2  0  0  0  0  0  0  0  0  0
    7.7374  -15.0580   22.5908 N   0  0  0  0  0  0  0  0  0  0  0  0
    8.5332  -15.6277   24.7805 C   0  0  0  0  0  0  0  0  0  0  0  0
    7.7654  -16.6031   24.9434 O   0  0  0  0  0  0  0  0  0  0  0  0
   13.8187  -17.9612   23.8845 N   0  0  0  0  0  0  0  0  0  0  0  0
   13.5020  -18.6766   25.0683 C   0  0  0  0  0  0  0  0  0  0  0  0
   14.3398  -19.5315   25.4790 O   0  0  0  0  0  0  0  0  0  0  0  0
   12.2314  -18.4240   25.7889 C   0  0  0  0  0  0  0  0  0  0  0  0
   11.5164  -17.2167   25.3108 C   0  0  0  0  0  0  0  0  0  0  0  0
   10.2349  -16.8869   26.0479 C   0  0  2  0  0  0  0  0  0  0  0  0
    9.7400  -15.6171   25.5082 N   0  0  0  0  0  0  0  0  0  0  0  0
   10.5263  -16.6492   27.4734 C   0  0  0  0  0  0  0  0  0  0  0  0
   10.8412  -17.6989   28.3020 O   0  0  0  0  0  0  0  0  0  0  0  0
   10.4896  -15.4994   27.9398 O   0  0  0  0  0  0  0  0  0  0  0  0
  2  3  1  0
  2  1  1  6
  4  3  1  0
  5  4  1  0
  5  6  1  0
  6  7  1  0
  8  9  2  0
  8  2  1  0
 10 11  1  0
 11 12  1  0
 12 13  1  0
 14 13  1  1
 14 15  1  0
 15  8  1  0
 16 17  2  0
 16 14  1  0
 18 19  1  0
 19 20  2  0
 21 19  1  0
 21 22  1  0
 23 22  1  6
 23 24  1  0
 24 16  1  0
 25 23  1  0
 26 25  1  0
 27 25  2  0
M  END
$$$$
