KMQ.pdb
     RDKit          3D

 27 26  0  0  1  0  0  0  0  0999 V2000
    7.1732  -16.0776   20.3219 N   0  0  0  0  0  0  0  0  0  0  0  0
    8.5497  -15.6752   20.4090 C   0  0  1  0  0  0  0  0  0  0  0  0
    8.9316  -14.5531   19.5079 C   0  0  0  0  0  0  0  0  0  0  0  0
    7.9917  -14.3190   18.3793 C   0  0  0  0  0  0  0  0  0  0  0  0
    8.5844  -13.7564   17.1358 C   0  0  0  0  0  0  0  0  0  0  0  0
    7.4482  -13.5265   16.1336 C   0  0  0  0  0  0  0  0  0  0  0  0
    8.0657  -13.0863   14.8974 N   0  0  0  0  0  0  0  0  0  0  0  0
    8.8294  -15.3011   21.8266 C   0  0  0  0  0  0  0  0  0  0  0  0
   10.0347  -15.0826   22.1305 O   0  0  0  0  0  0  0  0  0  0  0  0
    7.8086  -11.5045   27.9687 C   0  0  0  0  0  0  0  0  0  0  0  0
    7.5048  -11.9954   26.2646 S   0  0  0  0  0  0  0  0  0  0  0  0
    7.0720  -13.7555   26.1868 C   0  0  0  0  0  0  0  0  0  0  0  0
    6.8108  -14.1910   24.7684 C   0  0  0  0  0  0  0  0  0  0  0  0
    8.0124  -14.8305   24.1241 C   0  0  2  0  0  0  0  0  0  0  0  0
    7.7754  -15.2046   22.7580 N   0  0  0  0  0  0  0  0  0  0  0  0
    8.4617  -16.0420   24.8982 C   0  0  0  0  0  0  0  0  0  0  0  0
    7.7878  -17.0971   24.8998 O   0  0  0  0  0  0  0  0  0  0  0  0
   13.5065  -18.4048   23.6130 N   0  0  0  0  0  0  0  0  0  0  0  0
   13.3124  -19.1294   24.8174 C   0  0  0  0  0  0  0  0  0  0  0  0
   14.1339  -20.0542   25.0847 O   0  0  0  0  0  0  0  0  0  0  0  0
   12.1832  -18.8065   25.7220 C   0  0  0  0  0  0  0  0  0  0  0  0
   11.3596  -17.6687   25.2482 C   0  0  0  0  0  0  0  0  0  0  0  0
   10.1843  -17.3059   26.1322 C   0  0  2  0  0  0  0  0  0  0  0  0
    9.6558  -16.0279   25.6463 N   0  0  0  0  0  0  0  0  0  0  0  0
   10.6512  -17.0677   27.5102 C   0  0  0  0  0  0  0  0  0  0  0  0
   11.0628  -18.1176   28.2949 O   0  0  0  0  0  0  0  0  0  0  0  0
   10.6767  -15.9172   27.9757 O   0  0  0  0  0  0  0  0  0  0  0  0
  2  3  1  0
  2  1  1  1
  4  3  1  0
  5  4  1  0
  5  6  1  0
  6  7  1  0
  8  9  2  0
  8  2  1  0
 10 11  1  0
 11 12  1  0
 12 13  1  0
 14 13  1  1
 14 15  1  0
 15  8  1  0
 16 17  2  0
 16 14  1  0
 18 19  1  0
 19 20  2  0
 21 19  1  0
 21 22  1  0
 23 22  1  6
 23 24  1  0
 24 16  1  0
 25 23  1  0
 26 25  1  0
 27 25  2  0
M  END
$$$$
