KMQ.pdb
     RDKit          3D

 27 26  0  0  1  0  0  0  0  0999 V2000
    7.3110  -15.8523   20.2169 N   0  0  0  0  0  0  0  0  0  0  0  0
    8.5369  -15.1041   20.2537 C   0  0  1  0  0  0  0  0  0  0  0  0
    8.5272  -13.8478   19.4544 C   0  0  0  0  0  0  0  0  0  0  0  0
    7.8599  -13.9627   18.1302 C   0  0  0  0  0  0  0  0  0  0  0  0
    8.7486  -13.8999   16.9384 C   0  0  0  0  0  0  0  0  0  0  0  0
    7.8694  -14.0072   15.6880 C   0  0  0  0  0  0  0  0  0  0  0  0
    8.7664  -14.0313   14.5486 N   0  0  0  0  0  0  0  0  0  0  0  0
    8.8408  -14.7911   21.6811 C   0  0  0  0  0  0  0  0  0  0  0  0
   10.0594  -14.7265   22.0028 O   0  0  0  0  0  0  0  0  0  0  0  0
    6.2359  -11.8088   28.5118 C   0  0  0  0  0  0  0  0  0  0  0  0
    5.9025  -12.1397   26.7750 S   0  0  0  0  0  0  0  0  0  0  0  0
    7.2215  -13.1649   26.0675 C   0  0  0  0  0  0  0  0  0  0  0  0
    6.9866  -13.4211   24.6017 C   0  0  0  0  0  0  0  0  0  0  0  0
    8.0558  -14.2813   23.9814 C   0  0  2  0  0  0  0  0  0  0  0  0
    7.7938  -14.5829   22.6020 N   0  0  0  0  0  0  0  0  0  0  0  0
    8.2269  -15.5681   24.7455 C   0  0  0  0  0  0  0  0  0  0  0  0
    7.4020  -16.5034   24.6334 O   0  0  0  0  0  0  0  0  0  0  0  0
   11.9897  -19.3261   23.4915 N   0  0  0  0  0  0  0  0  0  0  0  0
   12.5407  -18.1726   24.1073 C   0  0  0  0  0  0  0  0  0  0  0  0
   13.7202  -17.8438   23.7879 O   0  0  0  0  0  0  0  0  0  0  0  0
   11.7536  -17.3892   25.0893 C   0  0  0  0  0  0  0  0  0  0  0  0
   10.3700  -17.8913   25.2656 C   0  0  0  0  0  0  0  0  0  0  0  0
    9.5034  -17.0867   26.2123 C   0  0  2  0  0  0  0  0  0  0  0  0
    9.3212  -15.7620   25.6119 N   0  0  0  0  0  0  0  0  0  0  0  0
   10.2183  -16.8739   27.4840 C   0  0  0  0  0  0  0  0  0  0  0  0
   10.4761  -17.9323   28.3211 O   0  0  0  0  0  0  0  0  0  0  0  0
   10.5938  -15.7370   27.8119 O   0  0  0  0  0  0  0  0  0  0  0  0
  2  3  1  0
  2  1  1  1
  4  3  1  0
  5  4  1  0
  5  6  1  0
  6  7  1  0
  8  9  2  0
  8  2  1  0
 10 11  1  0
 11 12  1  0
 12 13  1  0
 14 13  1  1
 14 15  1  0
 15  8  1  0
 16 17  2  0
 16 14  1  0
 18 19  1  0
 19 20  2  0
 21 19  1  0
 21 22  1  0
 23 22  1  6
 23 24  1  0
 24 16  1  0
 25 23  1  0
 26 25  1  0
 27 25  2  0
M  END
$$$$
