KMQ.pdb
     RDKit          3D

 27 26  0  0  1  0  0  0  0  0999 V2000
    7.1740  -16.8383   20.3522 N   0  0  0  0  0  0  0  0  0  0  0  0
    8.5505  -16.4525   20.2088 C   0  0  1  0  0  0  0  0  0  0  0  0
    8.8427  -15.6089   19.0172 C   0  0  0  0  0  0  0  0  0  0  0  0
    8.5639  -16.2647   17.7118 C   0  0  0  0  0  0  0  0  0  0  0  0
    9.6980  -17.0002   17.0898 C   0  0  0  0  0  0  0  0  0  0  0  0
    9.1701  -17.7119   15.8396 C   0  0  0  0  0  0  0  0  0  0  0  0
   10.3039  -18.3802   15.2305 N   0  0  0  0  0  0  0  0  0  0  0  0
    8.9562  -15.7297   21.4500 C   0  0  0  0  0  0  0  0  0  0  0  0
   10.1657  -15.3791   21.5351 O   0  0  0  0  0  0  0  0  0  0  0  0
    6.8127  -11.7836   27.9412 C   0  0  0  0  0  0  0  0  0  0  0  0
    6.2964  -12.5383   26.3917 S   0  0  0  0  0  0  0  0  0  0  0  0
    7.6526  -13.5168   25.6884 C   0  0  0  0  0  0  0  0  0  0  0  0
    7.2897  -14.0541   24.3285 C   0  0  0  0  0  0  0  0  0  0  0  0
    8.3925  -14.8737   23.7121 C   0  0  2  0  0  0  0  0  0  0  0  0
    8.0098  -15.4662   22.4611 N   0  0  0  0  0  0  0  0  0  0  0  0
    8.8532  -15.9565   24.6522 C   0  0  0  0  0  0  0  0  0  0  0  0
    8.0901  -16.8898   24.9902 O   0  0  0  0  0  0  0  0  0  0  0  0
   14.6123  -18.1660   24.7243 N   0  0  0  0  0  0  0  0  0  0  0  0
   13.5645  -18.2394   23.7702 C   0  0  0  0  0  0  0  0  0  0  0  0
   13.8805  -18.4835   22.5693 O   0  0  0  0  0  0  0  0  0  0  0  0
   12.1539  -18.0344   24.1771 C   0  0  0  0  0  0  0  0  0  0  0  0
   12.0140  -17.4361   25.5262 C   0  0  0  0  0  0  0  0  0  0  0  0
   10.5949  -17.1231   25.9534 C   0  0  2  0  0  0  0  0  0  0  0  0
   10.1588  -15.9550   25.1827 N   0  0  0  0  0  0  0  0  0  0  0  0
   10.5785  -16.7179   27.3708 C   0  0  0  0  0  0  0  0  0  0  0  0
   10.4662  -15.3920   27.7126 O   0  0  0  0  0  0  0  0  0  0  0  0
   10.6667  -17.5697   28.2696 O   0  0  0  0  0  0  0  0  0  0  0  0
  2  3  1  0
  2  1  1  1
  4  3  1  0
  5  4  1  0
  5  6  1  0
  6  7  1  0
  8  9  2  0
  8  2  1  0
 10 11  1  0
 11 12  1  0
 12 13  1  0
 14 13  1  1
 14 15  1  0
 15  8  1  0
 16 17  2  0
 16 14  1  0
 18 19  1  0
 19 20  2  0
 21 19  1  0
 21 22  1  0
 23 22  1  6
 23 24  1  0
 24 16  1  0
 25 23  1  0
 26 25  1  0
 27 25  2  0
M  END
$$$$
