IHE.pdb
     RDKit          3D

 28 28  0  0  1  0  0  0  0  0999 V2000
    6.9612  -11.0823   27.7877 C   0  0  0  0  0  0  0  0  0  0  0  0
    6.1911  -12.1505   27.0979 C   0  0  0  0  0  0  0  0  0  0  0  0
    7.0376  -13.0777   26.2822 C   0  0  2  0  0  0  0  0  0  0  0  0
    7.9230  -12.2696   25.3800 C   0  0  0  0  0  0  0  0  0  0  0  0
    6.1576  -14.0733   25.5584 C   0  0  2  0  0  0  0  0  0  0  0  0
    5.6219  -14.9627   26.6311 N   0  0  0  0  0  0  0  0  0  0  0  0
    7.0065  -14.9776   24.7462 C   0  0  0  0  0  0  0  0  0  0  0  0
    7.5239  -15.9703   25.2468 O   0  0  0  0  0  0  0  0  0  0  0  0
    7.2793  -14.7786   23.3552 N   0  0  0  0  0  0  0  0  0  0  0  0
    8.0248  -15.6300   22.5146 C   0  0  1  0  0  0  0  0  0  0  0  0
    7.9928  -15.3775   21.0535 C   0  0  0  0  0  0  0  0  0  0  0  0
    8.7867  -16.4141   20.3165 C   0  0  0  0  0  0  0  0  0  0  0  0
    8.3568  -17.6776   19.9584 C   0  0  0  0  0  0  0  0  0  0  0  0
    9.3246  -18.3466   19.3060 N   0  0  0  0  0  0  0  0  0  0  0  0
   10.3947  -17.5045   19.2418 C   0  0  0  0  0  0  0  0  0  0  0  0
   10.0635  -16.3433   19.8521 N   0  0  0  0  0  0  0  0  0  0  0  0
    9.4243  -15.7334   22.9888 C   0  0  0  0  0  0  0  0  0  0  0  0
   10.1676  -14.7641   23.2097 O   0  0  0  0  0  0  0  0  0  0  0  0
    9.9956  -17.0290   23.2199 N   0  0  0  0  0  0  0  0  0  0  0  0
   11.3416  -17.2044   23.7991 C   0  0  1  0  0  0  0  0  0  0  0  0
   11.2142  -18.2994   24.8146 C   0  0  0  0  0  0  0  0  0  0  0  0
   11.2520  -17.9453   26.2408 C   0  0  0  0  0  0  0  0  0  0  0  0
   11.6161  -19.0311   27.1427 C   0  0  0  0  0  0  0  0  0  0  0  0
   11.8550  -20.1865   26.6890 O   0  0  0  0  0  0  0  0  0  0  0  0
   12.3615  -17.3027   22.7865 C   0  0  0  0  0  0  0  0  0  0  0  0
   12.0432  -17.5886   21.5889 O   0  0  0  0  0  0  0  0  0  0  0  0
   11.7151  -18.8244   28.5140 O   0  0  0  0  0  0  0  0  0  0  0  0
   13.7069  -17.0918   23.0353 O   0  0  0  0  0  0  0  0  0  0  0  0
  2  1  1  0
  3  2  1  0
  3  4  1  6
  5  7  1  0
  5  3  1  0
  5  6  1  1
  7  8  2  0
  9 10  1  0
  9  7  1  0
 10 11  1  6
 11 12  1  0
 12 13  2  0
 13 14  1  0
 15 14  1  0
 16 12  1  0
 16 15  2  0
 17 19  1  0
 17 10  1  0
 18 17  2  0
 20 19  1  0
 20 21  1  6
 22 21  1  0
 22 23  1  0
 23 24  2  0
 25 20  1  0
 26 25  2  0
 27 23  1  0
 28 25  1  0
M  END
$$$$
