IHE.pdb
     RDKit          3D

 28 28  0  0  1  0  0  0  0  0999 V2000
    6.3779  -11.5539   27.2694 C   0  0  0  0  0  0  0  0  0  0  0  0
    5.9418  -12.6784   26.4006 C   0  0  0  0  0  0  0  0  0  0  0  0
    7.0725  -13.4653   25.8141 C   0  0  2  0  0  0  0  0  0  0  0  0
    8.1359  -12.5191   25.3399 C   0  0  0  0  0  0  0  0  0  0  0  0
    6.5486  -14.3969   24.7431 C   0  0  2  0  0  0  0  0  0  0  0  0
    5.7258  -15.4025   25.4784 N   0  0  0  0  0  0  0  0  0  0  0  0
    7.6715  -15.1963   24.1971 C   0  0  0  0  0  0  0  0  0  0  0  0
    8.1039  -16.1688   24.8060 O   0  0  0  0  0  0  0  0  0  0  0  0
    8.3194  -14.9137   22.9523 N   0  0  0  0  0  0  0  0  0  0  0  0
    9.3690  -15.6490   22.3650 C   0  0  1  0  0  0  0  0  0  0  0  0
    9.7989  -15.2850   20.9931 C   0  0  0  0  0  0  0  0  0  0  0  0
    8.6372  -14.7895   20.1849 C   0  0  0  0  0  0  0  0  0  0  0  0
    7.3161  -14.7437   20.5872 C   0  0  0  0  0  0  0  0  0  0  0  0
    6.5353  -14.2414   19.6137 N   0  0  0  0  0  0  0  0  0  0  0  0
    7.3627  -13.9590   18.5678 C   0  0  0  0  0  0  0  0  0  0  0  0
    8.6262  -14.2916   18.9189 N   0  0  0  0  0  0  0  0  0  0  0  0
   10.5377  -15.7032   23.2736 C   0  0  0  0  0  0  0  0  0  0  0  0
   10.7967  -14.8538   24.1409 O   0  0  0  0  0  0  0  0  0  0  0  0
   11.4573  -16.7997   23.1733 N   0  0  0  0  0  0  0  0  0  0  0  0
   12.1716  -17.3385   24.3470 C   0  0  1  0  0  0  0  0  0  0  0  0
   11.1134  -17.6885   25.3492 C   0  0  0  0  0  0  0  0  0  0  0  0
   11.5245  -18.2821   26.6296 C   0  0  0  0  0  0  0  0  0  0  0  0
   10.4334  -18.6725   27.5140 C   0  0  0  0  0  0  0  0  0  0  0  0
   10.5217  -18.4829   28.7607 O   0  0  0  0  0  0  0  0  0  0  0  0
   13.1471  -18.3333   23.9812 C   0  0  0  0  0  0  0  0  0  0  0  0
   12.9086  -19.1364   23.0245 O   0  0  0  0  0  0  0  0  0  0  0  0
    9.2742  -19.2535   27.0126 O   0  0  0  0  0  0  0  0  0  0  0  0
   14.3696  -18.4731   24.6158 O   0  0  0  0  0  0  0  0  0  0  0  0
  2  1  1  0
  3  2  1  0
  3  4  1  6
  5  7  1  0
  5  3  1  0
  5  6  1  1
  7  8  2  0
  9 10  1  0
  9  7  1  0
 10 11  1  6
 11 12  1  0
 12 13  2  0
 13 14  1  0
 15 14  1  0
 16 12  1  0
 16 15  2  0
 17 19  1  0
 17 10  1  0
 18 17  2  0
 20 19  1  0
 20 21  1  1
 22 21  1  0
 22 23  1  0
 23 24  2  0
 25 20  1  0
 26 25  2  0
 27 23  1  0
 28 25  1  0
M  END
$$$$
