IHE.pdb
     RDKit          3D

 28 28  0  0  1  0  0  0  0  0999 V2000
    8.2388  -13.4663   21.8900 C   0  0  0  0  0  0  0  0  0  0  0  0
    8.6585  -14.1086   20.6168 C   0  0  0  0  0  0  0  0  0  0  0  0
    8.8474  -13.1461   19.4856 C   0  0  2  0  0  0  0  0  0  0  0  0
    7.5898  -12.3484   19.3037 C   0  0  0  0  0  0  0  0  0  0  0  0
    9.2941  -13.8913   18.2468 C   0  0  2  0  0  0  0  0  0  0  0  0
    8.2173  -14.8937   17.9928 N   0  0  0  0  0  0  0  0  0  0  0  0
   10.4760  -14.7238   18.5754 C   0  0  0  0  0  0  0  0  0  0  0  0
   10.3533  -15.9190   18.8199 O   0  0  0  0  0  0  0  0  0  0  0  0
   11.8153  -14.2210   18.6270 N   0  0  0  0  0  0  0  0  0  0  0  0
   12.9793  -14.9589   18.9233 C   0  0  1  0  0  0  0  0  0  0  0  0
   14.1779  -14.7494   18.0754 C   0  0  0  0  0  0  0  0  0  0  0  0
   14.0427  -15.4791   16.7726 C   0  0  0  0  0  0  0  0  0  0  0  0
   13.6941  -16.8058   16.6060 C   0  0  0  0  0  0  0  0  0  0  0  0
   13.6660  -17.1343   15.3017 N   0  0  0  0  0  0  0  0  0  0  0  0
   14.0014  -16.0049   14.6160 C   0  0  0  0  0  0  0  0  0  0  0  0
   14.2268  -15.0129   15.5079 N   0  0  0  0  0  0  0  0  0  0  0  0
   13.3313  -14.8215   20.3557 C   0  0  0  0  0  0  0  0  0  0  0  0
   13.5111  -13.7397   20.9371 O   0  0  0  0  0  0  0  0  0  0  0  0
   13.4840  -16.0000   21.1593 N   0  0  0  0  0  0  0  0  0  0  0  0
   13.8691  -15.9383   22.5827 C   0  0  1  0  0  0  0  0  0  0  0  0
   13.3007  -17.1713   23.2178 C   0  0  0  0  0  0  0  0  0  0  0  0
   13.5254  -17.3917   24.6536 C   0  0  0  0  0  0  0  0  0  0  0  0
   13.0731  -18.6800   25.1643 C   0  0  0  0  0  0  0  0  0  0  0  0
   11.8427  -18.9700   25.1685 O   0  0  0  0  0  0  0  0  0  0  0  0
   15.2681  -15.6419   22.7559 C   0  0  0  0  0  0  0  0  0  0  0  0
   16.0864  -15.8589   21.8070 O   0  0  0  0  0  0  0  0  0  0  0  0
   13.9766  -19.6181   25.6506 O   0  0  0  0  0  0  0  0  0  0  0  0
   15.7975  -15.1118   23.9201 O   0  0  0  0  0  0  0  0  0  0  0  0
  2  1  1  0
  3  2  1  0
  3  4  1  6
  5  7  1  0
  5  3  1  0
  5  6  1  1
  7  8  2  0
  9 10  1  0
  9  7  1  0
 10 11  1  6
 11 12  1  0
 12 13  2  0
 13 14  1  0
 15 14  1  0
 16 12  1  0
 16 15  2  0
 17 19  1  0
 17 10  1  0
 18 17  2  0
 20 19  1  0
 20 21  1  6
 22 21  1  0
 22 23  1  0
 23 24  2  0
 25 20  1  0
 26 25  2  0
 27 23  1  0
 28 25  1  0
M  END
$$$$
