IHE.pdb
     RDKit          3D

 28 28  0  0  1  0  0  0  0  0999 V2000
    6.4786  -11.5070   27.4438 C   0  0  0  0  0  0  0  0  0  0  0  0
    5.9924  -12.5177   26.4682 C   0  0  0  0  0  0  0  0  0  0  0  0
    7.0795  -13.3571   25.8721 C   0  0  2  0  0  0  0  0  0  0  0  0
    8.2055  -12.4664   25.4366 C   0  0  0  0  0  0  0  0  0  0  0  0
    6.5123  -14.2243   24.7694 C   0  0  2  0  0  0  0  0  0  0  0  0
    5.5842  -15.1667   25.4615 N   0  0  0  0  0  0  0  0  0  0  0  0
    7.5799  -15.1084   24.2435 C   0  0  0  0  0  0  0  0  0  0  0  0
    7.8852  -16.1410   24.8301 O   0  0  0  0  0  0  0  0  0  0  0  0
    8.3150  -14.8436   23.0441 N   0  0  0  0  0  0  0  0  0  0  0  0
    9.3229  -15.6519   22.4801 C   0  0  1  0  0  0  0  0  0  0  0  0
    9.8663  -15.2724   21.1534 C   0  0  0  0  0  0  0  0  0  0  0  0
    8.7614  -14.8884   20.2154 C   0  0  0  0  0  0  0  0  0  0  0  0
    7.6210  -15.6204   19.9452 C   0  0  0  0  0  0  0  0  0  0  0  0
    6.8402  -14.9811   19.0556 N   0  0  0  0  0  0  0  0  0  0  0  0
    7.4846  -13.8204   18.7463 C   0  0  0  0  0  0  0  0  0  0  0  0
    8.6402  -13.7715   19.4481 N   0  0  0  0  0  0  0  0  0  0  0  0
   10.4249  -15.8595   23.4479 C   0  0  0  0  0  0  0  0  0  0  0  0
   11.0922  -14.9484   23.9629 O   0  0  0  0  0  0  0  0  0  0  0  0
   10.7745  -17.1941   23.8412 N   0  0  0  0  0  0  0  0  0  0  0  0
   11.8245  -17.4713   24.8406 C   0  0  1  0  0  0  0  0  0  0  0  0
   11.2723  -18.5414   25.7332 C   0  0  0  0  0  0  0  0  0  0  0  0
   10.9003  -18.1873   27.1105 C   0  0  0  0  0  0  0  0  0  0  0  0
   10.8405  -19.3036   28.0461 C   0  0  0  0  0  0  0  0  0  0  0  0
   10.6537  -20.4810   27.6258 O   0  0  0  0  0  0  0  0  0  0  0  0
   13.1169  -17.6625   24.2339 C   0  0  0  0  0  0  0  0  0  0  0  0
   13.2068  -17.8816   22.9845 O   0  0  0  0  0  0  0  0  0  0  0  0
   10.9920  -19.1045   29.4137 O   0  0  0  0  0  0  0  0  0  0  0  0
   14.3065  -17.6138   24.9404 O   0  0  0  0  0  0  0  0  0  0  0  0
  2  1  1  0
  3  2  1  0
  3  4  1  6
  5  7  1  0
  5  3  1  0
  5  6  1  1
  7  8  2  0
  9 10  1  0
  9  7  1  0
 10 11  1  6
 11 12  1  0
 12 13  2  0
 13 14  1  0
 15 14  1  0
 16 12  1  0
 16 15  2  0
 17 19  1  0
 17 10  1  0
 18 17  2  0
 20 19  1  0
 20 21  1  6
 22 21  1  0
 22 23  1  0
 23 24  2  0
 25 20  1  0
 26 25  2  0
 27 23  1  0
 28 25  1  0
M  END
$$$$
