IHE.pdb
     RDKit          3D

 28 28  0  0  1  0  0  0  0  0999 V2000
   10.0205  -20.2720   19.1995 C   0  0  0  0  0  0  0  0  0  0  0  0
    9.6885  -18.8242   19.1427 C   0  0  0  0  0  0  0  0  0  0  0  0
    9.6194  -18.1648   20.4851 C   0  0  2  0  0  0  0  0  0  0  0  0
    8.7255  -18.9691   21.3824 C   0  0  0  0  0  0  0  0  0  0  0  0
    9.2007  -16.7195   20.3262 C   0  0  2  0  0  0  0  0  0  0  0  0
   10.2906  -16.0904   19.5231 N   0  0  0  0  0  0  0  0  0  0  0  0
    9.2942  -16.0354   21.6383 C   0  0  0  0  0  0  0  0  0  0  0  0
   10.3690  -15.9396   22.2208 O   0  0  0  0  0  0  0  0  0  0  0  0
    8.1771  -15.4438   22.3099 N   0  0  0  0  0  0  0  0  0  0  0  0
    8.1952  -14.7979   23.5628 C   0  0  1  0  0  0  0  0  0  0  0  0
    7.0525  -13.9215   23.9171 C   0  0  0  0  0  0  0  0  0  0  0  0
    7.2414  -13.3252   25.2798 C   0  0  0  0  0  0  0  0  0  0  0  0
    6.2842  -13.2201   26.2709 C   0  0  0  0  0  0  0  0  0  0  0  0
    6.7932  -12.6330   27.3691 N   0  0  0  0  0  0  0  0  0  0  0  0
    8.0969  -12.3545   27.0840 C   0  0  0  0  0  0  0  0  0  0  0  0
    8.3593  -12.7739   25.8248 N   0  0  0  0  0  0  0  0  0  0  0  0
    8.4513  -15.7741   24.6471 C   0  0  0  0  0  0  0  0  0  0  0  0
    7.6857  -16.7005   24.9572 O   0  0  0  0  0  0  0  0  0  0  0  0
    9.6588  -15.6728   25.4150 N   0  0  0  0  0  0  0  0  0  0  0  0
   10.0103  -16.6509   26.4628 C   0  0  1  0  0  0  0  0  0  0  0  0
   11.2129  -17.3866   25.9538 C   0  0  0  0  0  0  0  0  0  0  0  0
   11.8320  -18.4051   26.8141 C   0  0  0  0  0  0  0  0  0  0  0  0
   13.0439  -19.0164   26.2825 C   0  0  0  0  0  0  0  0  0  0  0  0
   13.4872  -18.6766   25.1486 O   0  0  0  0  0  0  0  0  0  0  0  0
   10.0569  -16.0527   27.7724 C   0  0  0  0  0  0  0  0  0  0  0  0
   10.0987  -14.7874   27.8926 O   0  0  0  0  0  0  0  0  0  0  0  0
   13.7414  -19.9772   27.0058 O   0  0  0  0  0  0  0  0  0  0  0  0
   10.0506  -16.7855   28.9469 O   0  0  0  0  0  0  0  0  0  0  0  0
  2  1  1  0
  3  2  1  0
  3  4  1  1
  5  7  1  0
  5  3  1  0
  5  6  1  6
  7  8  2  0
  9 10  1  0
  9  7  1  0
 10 11  1  1
 11 12  1  0
 12 13  2  0
 13 14  1  0
 15 14  1  0
 16 12  1  0
 16 15  2  0
 17 19  1  0
 17 10  1  0
 18 17  2  0
 20 19  1  0
 20 21  1  6
 22 21  1  0
 22 23  1  0
 23 24  2  0
 25 20  1  0
 26 25  2  0
 27 23  1  0
 28 25  1  0
M  END
$$$$
