IHE.pdb
     RDKit          3D

 28 28  0  0  1  0  0  0  0  0999 V2000
    7.0060  -12.2072   20.7317 C   0  0  0  0  0  0  0  0  0  0  0  0
    7.4412  -13.3567   19.8956 C   0  0  0  0  0  0  0  0  0  0  0  0
    8.9275  -13.4862   19.7694 C   0  0  2  0  0  0  0  0  0  0  0  0
    9.4743  -12.2538   19.1114 C   0  0  0  0  0  0  0  0  0  0  0  0
    9.2717  -14.7753   19.0557 C   0  0  2  0  0  0  0  0  0  0  0  0
    8.1827  -15.7246   19.4316 N   0  0  0  0  0  0  0  0  0  0  0  0
   10.4816  -15.3691   19.6734 C   0  0  0  0  0  0  0  0  0  0  0  0
   10.6351  -15.3577   20.8899 O   0  0  0  0  0  0  0  0  0  0  0  0
   11.5338  -15.9905   18.9278 N   0  0  0  0  0  0  0  0  0  0  0  0
   12.8368  -15.4885   18.7344 C   0  0  1  0  0  0  0  0  0  0  0  0
   13.0536  -14.4971   17.6528 C   0  0  0  0  0  0  0  0  0  0  0  0
   13.0967  -15.1707   16.3140 C   0  0  0  0  0  0  0  0  0  0  0  0
   14.0811  -16.0249   15.8550 C   0  0  0  0  0  0  0  0  0  0  0  0
   13.8051  -16.4493   14.6086 N   0  0  0  0  0  0  0  0  0  0  0  0
   12.6266  -15.8613   14.2570 C   0  0  0  0  0  0  0  0  0  0  0  0
   12.2063  -15.0932   15.2883 N   0  0  0  0  0  0  0  0  0  0  0  0
   13.3960  -14.9881   20.0115 C   0  0  0  0  0  0  0  0  0  0  0  0
   13.5069  -13.7886   20.3109 O   0  0  0  0  0  0  0  0  0  0  0  0
   13.8522  -15.9264   20.9961 N   0  0  0  0  0  0  0  0  0  0  0  0
   14.4397  -15.4976   22.2803 C   0  0  1  0  0  0  0  0  0  0  0  0
   13.4833  -15.9486   23.3426 C   0  0  0  0  0  0  0  0  0  0  0  0
   13.1133  -17.3700   23.3999 C   0  0  0  0  0  0  0  0  0  0  0  0
   12.2333  -17.7407   24.5014 C   0  0  0  0  0  0  0  0  0  0  0  0
   11.0078  -17.9691   24.2919 O   0  0  0  0  0  0  0  0  0  0  0  0
   15.8301  -15.8577   22.3901 C   0  0  0  0  0  0  0  0  0  0  0  0
   16.3612  -16.6171   21.5192 O   0  0  0  0  0  0  0  0  0  0  0  0
   12.7165  -17.8574   25.7997 O   0  0  0  0  0  0  0  0  0  0  0  0
   16.6559  -15.4119   23.4079 O   0  0  0  0  0  0  0  0  0  0  0  0
  2  1  1  0
  3  2  1  0
  3  4  1  6
  5  7  1  0
  5  3  1  0
  5  6  1  1
  7  8  2  0
  9 10  1  0
  9  7  1  0
 10 11  1  6
 11 12  1  0
 12 13  2  0
 13 14  1  0
 15 14  1  0
 16 12  1  0
 16 15  2  0
 17 19  1  0
 17 10  1  0
 18 17  2  0
 20 19  1  0
 20 21  1  1
 22 21  1  0
 22 23  1  0
 23 24  2  0
 25 20  1  0
 26 25  2  0
 27 23  1  0
 28 25  1  0
M  END
$$$$
