IHE.pdb
     RDKit          3D

 28 28  0  0  1  0  0  0  0  0999 V2000
    6.7358  -12.3761   18.5478 C   0  0  0  0  0  0  0  0  0  0  0  0
    7.1457  -13.7013   19.0822 C   0  0  0  0  0  0  0  0  0  0  0  0
    7.9404  -13.6248   20.3488 C   0  0  2  0  0  0  0  0  0  0  0  0
    9.1809  -12.8177   20.1029 C   0  0  0  0  0  0  0  0  0  0  0  0
    8.2017  -15.0189   20.8759 C   0  0  2  0  0  0  0  0  0  0  0  0
    6.8473  -15.5928   21.1310 N   0  0  0  0  0  0  0  0  0  0  0  0
    8.8024  -14.9267   22.2282 C   0  0  0  0  0  0  0  0  0  0  0  0
    9.9761  -14.6023   22.3726 O   0  0  0  0  0  0  0  0  0  0  0  0
    8.0858  -15.1931   23.4383 N   0  0  0  0  0  0  0  0  0  0  0  0
    8.6151  -15.1983   24.7449 C   0  0  1  0  0  0  0  0  0  0  0  0
    7.7807  -14.6514   25.8423 C   0  0  0  0  0  0  0  0  0  0  0  0
    8.5631  -14.5755   27.1190 C   0  0  0  0  0  0  0  0  0  0  0  0
    8.9398  -15.6391   27.9167 C   0  0  0  0  0  0  0  0  0  0  0  0
    9.6335  -15.2134   28.9878 N   0  0  0  0  0  0  0  0  0  0  0  0
    9.7060  -13.8563   28.8814 C   0  0  0  0  0  0  0  0  0  0  0  0
    9.0595  -13.4796   27.7542 N   0  0  0  0  0  0  0  0  0  0  0  0
    9.1118  -16.5481   25.0991 C   0  0  0  0  0  0  0  0  0  0  0  0
    8.5080  -17.6064   24.8621 O   0  0  0  0  0  0  0  0  0  0  0  0
   10.3759  -16.6811   25.7643 N   0  0  0  0  0  0  0  0  0  0  0  0
   11.1082  -17.9614   25.8156 C   0  0  1  0  0  0  0  0  0  0  0  0
   11.8901  -18.0409   24.5393 C   0  0  0  0  0  0  0  0  0  0  0  0
   12.7785  -19.1927   24.3281 C   0  0  0  0  0  0  0  0  0  0  0  0
   13.5205  -19.1852   23.0733 C   0  0  0  0  0  0  0  0  0  0  0  0
   13.1987  -19.9692   22.1354 O   0  0  0  0  0  0  0  0  0  0  0  0
   11.7923  -18.1475   27.0696 C   0  0  0  0  0  0  0  0  0  0  0  0
   12.3311  -19.2671   27.3401 O   0  0  0  0  0  0  0  0  0  0  0  0
   14.5891  -18.3183   22.8750 O   0  0  0  0  0  0  0  0  0  0  0  0
   11.9140  -17.1551   28.0272 O   0  0  0  0  0  0  0  0  0  0  0  0
  2  1  1  0
  3  2  1  0
  3  4  1  6
  5  7  1  0
  5  3  1  0
  5  6  1  1
  7  8  2  0
  9 10  1  0
  9  7  1  0
 10 11  1  1
 11 12  1  0
 12 13  2  0
 13 14  1  0
 15 14  1  0
 16 12  1  0
 16 15  2  0
 17 19  1  0
 17 10  1  0
 18 17  2  0
 20 19  1  0
 20 21  1  6
 22 21  1  0
 22 23  1  0
 23 24  2  0
 25 20  1  0
 26 25  2  0
 27 23  1  0
 28 25  1  0
M  END
$$$$
