IHE.pdb
     RDKit          3D

 28 28  0  0  1  0  0  0  0  0999 V2000
   10.9374  -15.0834   16.5485 C   0  0  0  0  0  0  0  0  0  0  0  0
   10.1403  -14.1609   17.3990 C   0  0  0  0  0  0  0  0  0  0  0  0
    8.6613  -14.3729   17.3023 C   0  0  2  0  0  0  0  0  0  0  0  0
    8.2424  -14.2673   15.8656 C   0  0  0  0  0  0  0  0  0  0  0  0
    7.9439  -13.4163   18.2296 C   0  0  2  0  0  0  0  0  0  0  0  0
    8.5099  -12.0729   17.9077 N   0  0  0  0  0  0  0  0  0  0  0  0
    8.3892  -13.6583   19.6229 C   0  0  0  0  0  0  0  0  0  0  0  0
    9.4626  -13.2214   20.0235 O   0  0  0  0  0  0  0  0  0  0  0  0
    7.6267  -14.3918   20.5871 N   0  0  0  0  0  0  0  0  0  0  0  0
    8.0326  -14.7396   21.8915 C   0  0  1  0  0  0  0  0  0  0  0  0
    6.9928  -15.1627   22.8607 C   0  0  0  0  0  0  0  0  0  0  0  0
    7.5969  -15.4309   24.2065 C   0  0  0  0  0  0  0  0  0  0  0  0
    7.9419  -14.4874   25.1553 C   0  0  0  0  0  0  0  0  0  0  0  0
    8.4588  -15.0746   26.2498 N   0  0  0  0  0  0  0  0  0  0  0  0
    8.4482  -16.4156   26.0051 C   0  0  0  0  0  0  0  0  0  0  0  0
    7.9282  -16.6224   24.7734 N   0  0  0  0  0  0  0  0  0  0  0  0
    9.1299  -15.7336   21.8468 C   0  0  0  0  0  0  0  0  0  0  0  0
    9.2454  -16.6182   20.9837 O   0  0  0  0  0  0  0  0  0  0  0  0
   10.1493  -15.7029   22.8557 N   0  0  0  0  0  0  0  0  0  0  0  0
   11.2493  -16.6861   22.8942 C   0  0  1  0  0  0  0  0  0  0  0  0
   12.1014  -16.3990   21.6950 C   0  0  0  0  0  0  0  0  0  0  0  0
   13.0075  -15.2422   21.7354 C   0  0  0  0  0  0  0  0  0  0  0  0
   13.8403  -15.0617   20.5527 C   0  0  0  0  0  0  0  0  0  0  0  0
   13.5030  -14.2414   19.6520 O   0  0  0  0  0  0  0  0  0  0  0  0
   11.8685  -16.7597   24.1928 C   0  0  0  0  0  0  0  0  0  0  0  0
   12.7900  -17.6086   24.4108 O   0  0  0  0  0  0  0  0  0  0  0  0
   15.0209  -15.7772   20.3886 O   0  0  0  0  0  0  0  0  0  0  0  0
   11.5230  -15.9366   25.2509 O   0  0  0  0  0  0  0  0  0  0  0  0
  2  1  1  0
  3  2  1  0
  3  4  1  6
  5  7  1  0
  5  3  1  0
  5  6  1  6
  7  8  2  0
  9 10  1  0
  9  7  1  0
 10 11  1  1
 11 12  1  0
 12 13  2  0
 13 14  1  0
 15 14  1  0
 16 12  1  0
 16 15  2  0
 17 19  1  0
 17 10  1  0
 18 17  2  0
 20 19  1  0
 20 21  1  6
 22 21  1  0
 22 23  1  0
 23 24  2  0
 25 20  1  0
 26 25  2  0
 27 23  1  0
 28 25  1  0
M  END
$$$$
