IHE.pdb
     RDKit          3D

 28 28  0  0  1  0  0  0  0  0999 V2000
    6.7867  -11.9083   28.1783 C   0  0  0  0  0  0  0  0  0  0  0  0
    6.1847  -13.0315   27.4129 C   0  0  0  0  0  0  0  0  0  0  0  0
    6.9127  -13.3615   26.1469 C   0  0  2  0  0  0  0  0  0  0  0  0
    7.0728  -12.1122   25.3319 C   0  0  0  0  0  0  0  0  0  0  0  0
    6.2034  -14.4865   25.4252 C   0  0  2  0  0  0  0  0  0  0  0  0
    6.2885  -15.6521   26.3540 N   0  0  0  0  0  0  0  0  0  0  0  0
    7.0154  -14.9090   24.2589 C   0  0  0  0  0  0  0  0  0  0  0  0
    7.9350  -15.7092   24.3914 O   0  0  0  0  0  0  0  0  0  0  0  0
    6.7978  -14.4394   22.9243 N   0  0  0  0  0  0  0  0  0  0  0  0
    7.6533  -14.6223   21.8189 C   0  0  1  0  0  0  0  0  0  0  0  0
    7.6138  -13.6190   20.7274 C   0  0  0  0  0  0  0  0  0  0  0  0
    8.0809  -14.2192   19.4352 C   0  0  0  0  0  0  0  0  0  0  0  0
    8.5315  -15.5116   19.2447 C   0  0  0  0  0  0  0  0  0  0  0  0
    8.8712  -15.7165   17.9593 N   0  0  0  0  0  0  0  0  0  0  0  0
    8.6375  -14.5409   17.3101 C   0  0  0  0  0  0  0  0  0  0  0  0
    8.1620  -13.6444   18.2049 N   0  0  0  0  0  0  0  0  0  0  0  0
    9.0475  -14.8374   22.2705 C   0  0  0  0  0  0  0  0  0  0  0  0
    9.7634  -13.9658   22.7887 O   0  0  0  0  0  0  0  0  0  0  0  0
    9.6467  -16.1314   22.1138 N   0  0  0  0  0  0  0  0  0  0  0  0
   11.0791  -16.3731   22.3745 C   0  0  1  0  0  0  0  0  0  0  0  0
   11.1347  -17.5055   23.3550 C   0  0  0  0  0  0  0  0  0  0  0  0
   10.5115  -17.3263   24.6741 C   0  0  0  0  0  0  0  0  0  0  0  0
   10.6382  -18.4597   25.5820 C   0  0  0  0  0  0  0  0  0  0  0  0
    9.8848  -19.4670   25.4565 O   0  0  0  0  0  0  0  0  0  0  0  0
   11.8467  -16.4602   21.1587 C   0  0  0  0  0  0  0  0  0  0  0  0
   11.2694  -16.7401   20.0607 O   0  0  0  0  0  0  0  0  0  0  0  0
   11.5874  -18.4649   26.5978 O   0  0  0  0  0  0  0  0  0  0  0  0
   13.2130  -16.2446   21.1016 O   0  0  0  0  0  0  0  0  0  0  0  0
  2  1  1  0
  3  2  1  0
  3  4  1  6
  5  7  1  0
  5  3  1  0
  5  6  1  1
  7  8  2  0
  9 10  1  0
  9  7  1  0
 10 11  1  6
 11 12  1  0
 12 13  2  0
 13 14  1  0
 15 14  1  0
 16 12  1  0
 16 15  2  0
 17 19  1  0
 17 10  1  0
 18 17  2  0
 20 19  1  0
 20 21  1  6
 22 21  1  0
 22 23  1  0
 23 24  2  0
 25 20  1  0
 26 25  2  0
 27 23  1  0
 28 25  1  0
M  END
$$$$
