IHE.pdb
     RDKit          3D

 28 28  0  0  1  0  0  0  0  0999 V2000
   16.8232  -17.3077   15.5525 C   0  0  0  0  0  0  0  0  0  0  0  0
   16.1004  -16.0089   15.5324 C   0  0  0  0  0  0  0  0  0  0  0  0
   15.1143  -15.8465   16.6473 C   0  0  2  0  0  0  0  0  0  0  0  0
   14.2892  -17.0946   16.7595 C   0  0  0  0  0  0  0  0  0  0  0  0
   14.3056  -14.5849   16.4377 C   0  0  2  0  0  0  0  0  0  0  0  0
   15.2864  -13.4702   16.5931 N   0  0  0  0  0  0  0  0  0  0  0  0
   13.3818  -14.3995   17.5824 C   0  0  0  0  0  0  0  0  0  0  0  0
   13.7984  -14.4245   18.7354 O   0  0  0  0  0  0  0  0  0  0  0  0
   11.9746  -14.1770   17.4429 N   0  0  0  0  0  0  0  0  0  0  0  0
   11.0238  -14.1304   18.4825 C   0  0  1  0  0  0  0  0  0  0  0  0
    9.5873  -14.0756   18.1178 C   0  0  0  0  0  0  0  0  0  0  0  0
    8.7413  -13.8039   19.3255 C   0  0  0  0  0  0  0  0  0  0  0  0
    9.1918  -13.6032   20.6163 C   0  0  0  0  0  0  0  0  0  0  0  0
    8.1629  -13.3847   21.4550 N   0  0  0  0  0  0  0  0  0  0  0  0
    7.0319  -13.4453   20.6962 C   0  0  0  0  0  0  0  0  0  0  0  0
    7.3880  -13.6980   19.4157 N   0  0  0  0  0  0  0  0  0  0  0  0
   11.2664  -15.2184   19.4580 C   0  0  0  0  0  0  0  0  0  0  0  0
   11.2968  -16.4263   19.1740 O   0  0  0  0  0  0  0  0  0  0  0  0
   11.4853  -14.8913   20.8375 N   0  0  0  0  0  0  0  0  0  0  0  0
   11.8263  -15.9144   21.8451 C   0  0  1  0  0  0  0  0  0  0  0  0
   13.2683  -15.6911   22.1881 C   0  0  0  0  0  0  0  0  0  0  0  0
   13.9064  -16.5846   23.1655 C   0  0  0  0  0  0  0  0  0  0  0  0
   15.3177  -16.3231   23.4198 C   0  0  0  0  0  0  0  0  0  0  0  0
   16.0904  -16.0054   22.4711 O   0  0  0  0  0  0  0  0  0  0  0  0
   10.8549  -15.9780   22.9069 C   0  0  0  0  0  0  0  0  0  0  0  0
   10.9887  -16.8302   23.8412 O   0  0  0  0  0  0  0  0  0  0  0  0
   15.8453  -16.4101   24.7031 O   0  0  0  0  0  0  0  0  0  0  0  0
    9.7547  -15.1414   22.9858 O   0  0  0  0  0  0  0  0  0  0  0  0
  2  1  1  0
  3  2  1  0
  3  4  1  6
  5  7  1  0
  5  3  1  0
  5  6  1  1
  7  8  2  0
  9 10  1  0
  9  7  1  0
 10 11  1  6
 11 12  1  0
 12 13  2  0
 13 14  1  0
 15 14  1  0
 16 12  1  0
 16 15  2  0
 17 19  1  0
 17 10  1  0
 18 17  2  0
 20 19  1  0
 20 21  1  1
 22 21  1  0
 22 23  1  0
 23 24  2  0
 25 20  1  0
 26 25  2  0
 27 23  1  0
 28 25  1  0
M  END
$$$$
