IHE.pdb
     RDKit          3D

 28 28  0  0  1  0  0  0  0  0999 V2000
    7.5443  -11.7748   19.7757 C   0  0  0  0  0  0  0  0  0  0  0  0
    8.1448  -13.0975   19.4599 C   0  0  0  0  0  0  0  0  0  0  0  0
    8.2934  -13.9953   20.6488 C   0  0  2  0  0  0  0  0  0  0  0  0
    9.0065  -13.2523   21.7398 C   0  0  0  0  0  0  0  0  0  0  0  0
    8.9652  -15.2868   20.2360 C   0  0  2  0  0  0  0  0  0  0  0  0
    7.9686  -15.9760   19.3640 N   0  0  0  0  0  0  0  0  0  0  0  0
    9.0752  -16.1799   21.4143 C   0  0  0  0  0  0  0  0  0  0  0  0
    8.0791  -16.7072   21.8973 O   0  0  0  0  0  0  0  0  0  0  0  0
   10.3121  -16.4964   22.0615 N   0  0  0  0  0  0  0  0  0  0  0  0
   10.4886  -17.3620   23.1601 C   0  0  1  0  0  0  0  0  0  0  0  0
   11.2061  -18.6408   22.9379 C   0  0  0  0  0  0  0  0  0  0  0  0
   10.4749  -19.4963   21.9471 C   0  0  0  0  0  0  0  0  0  0  0  0
    9.3912  -20.3129   22.2081 C   0  0  0  0  0  0  0  0  0  0  0  0
    8.9816  -20.9384   21.0898 N   0  0  0  0  0  0  0  0  0  0  0  0
    9.8118  -20.5209   20.0924 C   0  0  0  0  0  0  0  0  0  0  0  0
   10.7081  -19.6531   20.6160 N   0  0  0  0  0  0  0  0  0  0  0  0
   11.0786  -16.6329   24.3067 C   0  0  0  0  0  0  0  0  0  0  0  0
   12.1711  -16.0444   24.2815 O   0  0  0  0  0  0  0  0  0  0  0  0
   10.3660  -16.5823   25.5508 N   0  0  0  0  0  0  0  0  0  0  0  0
   10.9369  -15.9592   26.7608 C   0  0  1  0  0  0  0  0  0  0  0  0
    9.9202  -14.9631   27.2307 C   0  0  0  0  0  0  0  0  0  0  0  0
    9.1385  -14.2273   26.2266 C   0  0  0  0  0  0  0  0  0  0  0  0
    8.1882  -13.2607   26.7630 C   0  0  0  0  0  0  0  0  0  0  0  0
    8.0930  -13.0821   28.0107 O   0  0  0  0  0  0  0  0  0  0  0  0
   11.4418  -16.9371   27.6902 C   0  0  0  0  0  0  0  0  0  0  0  0
   12.0914  -16.5625   28.7173 O   0  0  0  0  0  0  0  0  0  0  0  0
    7.3725  -12.5118   25.9224 O   0  0  0  0  0  0  0  0  0  0  0  0
   11.2544  -18.3006   27.5403 O   0  0  0  0  0  0  0  0  0  0  0  0
  2  1  1  0
  3  2  1  0
  3  4  1  1
  5  7  1  0
  5  3  1  0
  5  6  1  6
  7  8  2  0
  9 10  1  0
  9  7  1  0
 10 11  1  6
 11 12  1  0
 12 13  2  0
 13 14  1  0
 15 14  1  0
 16 12  1  0
 16 15  2  0
 17 19  1  0
 17 10  1  0
 18 17  2  0
 20 19  1  0
 20 21  1  1
 22 21  1  0
 22 23  1  0
 23 24  2  0
 25 20  1  0
 26 25  2  0
 27 23  1  0
 28 25  1  0
M  END
$$$$
