IHE.pdb
     RDKit          3D

 28 28  0  0  1  0  0  0  0  0999 V2000
    8.2748  -11.9392   20.7227 C   0  0  0  0  0  0  0  0  0  0  0  0
    9.0104  -12.4734   19.5466 C   0  0  0  0  0  0  0  0  0  0  0  0
    8.3582  -13.6626   18.9125 C   0  0  2  0  0  0  0  0  0  0  0  0
    8.0806  -14.6920   19.9680 C   0  0  0  0  0  0  0  0  0  0  0  0
    9.2086  -14.1637   17.7656 C   0  0  2  0  0  0  0  0  0  0  0  0
    8.4138  -15.2692   17.1532 N   0  0  0  0  0  0  0  0  0  0  0  0
   10.4049  -14.8519   18.3071 C   0  0  0  0  0  0  0  0  0  0  0  0
   10.3490  -16.0260   18.6565 O   0  0  0  0  0  0  0  0  0  0  0  0
   11.6841  -14.2272   18.4567 N   0  0  0  0  0  0  0  0  0  0  0  0
   12.8897  -14.8580   18.8254 C   0  0  1  0  0  0  0  0  0  0  0  0
   14.1291  -14.4790   18.1044 C   0  0  0  0  0  0  0  0  0  0  0  0
   14.3898  -15.4172   16.9643 C   0  0  0  0  0  0  0  0  0  0  0  0
   13.5080  -15.7465   15.9527 C   0  0  0  0  0  0  0  0  0  0  0  0
   14.0675  -16.6171   15.0931 N   0  0  0  0  0  0  0  0  0  0  0  0
   15.3278  -16.8541   15.5555 C   0  0  0  0  0  0  0  0  0  0  0  0
   15.5146  -16.1286   16.6820 N   0  0  0  0  0  0  0  0  0  0  0  0
   13.0973  -14.7673   20.2893 C   0  0  0  0  0  0  0  0  0  0  0  0
   13.0032  -13.7217   20.9515 O   0  0  0  0  0  0  0  0  0  0  0  0
   13.4324  -15.9508   21.0275 N   0  0  0  0  0  0  0  0  0  0  0  0
   13.6026  -15.9430   22.4935 C   0  0  1  0  0  0  0  0  0  0  0  0
   12.8723  -17.1500   23.0001 C   0  0  0  0  0  0  0  0  0  0  0  0
   12.9273  -17.4551   24.4369 C   0  0  0  0  0  0  0  0  0  0  0  0
   12.2840  -18.7014   24.8342 C   0  0  0  0  0  0  0  0  0  0  0  0
   12.4891  -19.7637   24.1805 O   0  0  0  0  0  0  0  0  0  0  0  0
   14.9750  -15.7401   22.8813 C   0  0  0  0  0  0  0  0  0  0  0  0
   15.2594  -15.4526   24.0870 O   0  0  0  0  0  0  0  0  0  0  0  0
   11.4393  -18.7548   25.9372 O   0  0  0  0  0  0  0  0  0  0  0  0
   16.0401  -15.8488   22.0036 O   0  0  0  0  0  0  0  0  0  0  0  0
  2  1  1  0
  3  2  1  0
  3  4  1  1
  5  7  1  0
  5  3  1  0
  5  6  1  1
  7  8  2  0
  9 10  1  0
  9  7  1  0
 10 11  1  6
 11 12  1  0
 12 13  2  0
 13 14  1  0
 15 14  1  0
 16 12  1  0
 16 15  2  0
 17 19  1  0
 17 10  1  0
 18 17  2  0
 20 19  1  0
 20 21  1  6
 22 21  1  0
 22 23  1  0
 23 24  2  0
 25 20  1  0
 26 25  2  0
 27 23  1  0
 28 25  1  0
M  END
$$$$
