RWK.pdb
     RDKit          3D

 35 36  0  0  1  0  0  0  0  0999 V2000
   31.6022  -23.9648  -15.0343 N   0  0  0  0  0  0  0  0  0  0  0  0
   32.1816  -23.8539  -16.3277 C   0  0  0  0  0  0  0  0  0  0  0  0
   33.0459  -24.6986  -16.7631 N   0  0  0  0  0  0  0  0  0  0  0  0
   31.8037  -22.7727  -17.1879 N   0  0  0  0  0  0  0  0  0  0  0  0
   30.6890  -21.9040  -16.9872 C   0  0  0  0  0  0  0  0  0  0  0  0
   29.4047  -22.6500  -17.0585 C   0  0  0  0  0  0  0  0  0  0  0  0
   28.1896  -22.0138  -16.5241 C   0  0  0  0  0  0  0  0  0  0  0  0
   28.2642  -21.2681  -15.2481 C   0  0  2  0  0  0  0  0  0  0  0  0
   29.3123  -21.5593  -14.3541 N   0  0  0  0  0  0  0  0  0  0  0  0
   26.9438  -21.2662  -14.5348 C   0  0  0  0  0  0  0  0  0  0  0  0
   25.8711  -21.2197  -15.2213 O   0  0  0  0  0  0  0  0  0  0  0  0
   33.4601  -24.5845  -17.6981 N   0  0  0  0  0  0  0  0  0  0  0  0
   26.8890  -21.3142  -13.1212 C   0  0  1  0  0  0  0  0  0  0  0  0
   25.7757  -21.7940  -12.3916 C   0  0  0  0  0  0  0  0  0  0  0  0
   26.0867  -22.3968  -11.0651 C   0  0  0  0  0  0  0  0  0  0  0  0
   26.4491  -21.4070  -10.0353 C   0  0  0  0  0  0  0  0  0  0  0  0
   25.5953  -20.4424   -9.5268 N   0  0  0  0  0  0  0  0  0  0  0  0
   26.2530  -19.7281   -8.5842 C   0  0  0  0  0  0  0  0  0  0  0  0
   27.5048  -20.1886   -8.4572 C   0  0  0  0  0  0  0  0  0  0  0  0
   28.5262  -19.7835   -7.6435 C   0  0  0  0  0  0  0  0  0  0  0  0
   29.7314  -20.4581   -7.7403 C   0  0  0  0  0  0  0  0  0  0  0  0
   29.9120  -21.4954   -8.6134 C   0  0  0  0  0  0  0  0  0  0  0  0
   28.8400  -21.8699   -9.4202 C   0  0  0  0  0  0  0  0  0  0  0  0
   27.6291  -21.2383   -9.3643 C   0  0  0  0  0  0  0  0  0  0  0  0
   24.6352  -20.8263  -12.3764 O   0  0  0  0  0  0  0  0  0  0  0  0
   24.7876  -19.6327  -12.0160 N   0  0  0  0  0  0  0  0  0  0  0  0
   23.3389  -21.2043  -12.7648 C   0  0  1  0  0  0  0  0  0  0  0  0
   22.2686  -20.1377  -13.0118 C   0  0  0  0  0  0  0  0  0  0  0  0
   21.8105  -20.3147  -14.3970 C   0  0  0  0  0  0  0  0  0  0  0  0
   20.7603  -19.5609  -15.0432 C   0  0  0  0  0  0  0  0  0  0  0  0
   20.2130  -19.7453  -16.3741 C   0  0  0  0  0  0  0  0  0  0  0  0
   19.1792  -18.7386  -16.8368 N   0  0  0  0  0  0  0  0  0  0  0  0
   18.7048  -19.0312  -18.1705 C   0  0  0  0  0  0  0  0  0  0  0  0
   21.2250  -20.5099  -11.9883 O   0  0  0  0  0  0  0  0  0  0  0  0
   21.1911  -21.8556  -11.5666 O   0  0  0  0  0  0  0  0  0  0  0  0
  2  1  1  0
  3  2  2  0
  4  2  1  0
  5  4  1  0
  6  5  1  0
  7  6  1  0
  8 10  1  0
  8  7  1  0
  8  9  1  1
 10 12  1  0
 11 10  2  0
 12 13  1  0
 13 24  1  0
 14 15  1  0
 13 14  1  1
 15 23  1  0
 16 15  2  0
 16 17  1  0
 17 18  1  0
 18 19  1  0
 19 20  2  0
 21 20  1  0
 22 21  2  0
 23 18  2  0
 23 22  1  0
 24 26  1  0
 24 25  2  0
 26 27  1  0
 27 28  1  1
 27 33  1  0
 29 30  1  0
 29 28  1  0
 31 32  1  0
 31 30  1  0
 33 34  1  0
 35 33  2  0
M  END
$$$$
