RWK.pdb
     RDKit          3D

 35 36  0  0  1  0  0  0  0  0999 V2000
   24.7492  -25.3584  -21.0622 N   0  0  0  0  0  0  0  0  0  0  0  0
   24.1566  -25.3765  -19.7702 C   0  0  0  0  0  0  0  0  0  0  0  0
   22.9539  -25.7843  -19.5767 N   0  0  0  0  0  0  0  0  0  0  0  0
   24.9073  -24.9294  -18.6352 N   0  0  0  0  0  0  0  0  0  0  0  0
   26.2929  -24.5867  -18.6399 C   0  0  0  0  0  0  0  0  0  0  0  0
   26.4874  -23.1256  -18.4439 C   0  0  0  0  0  0  0  0  0  0  0  0
   26.1620  -22.5410  -17.1328 C   0  0  0  0  0  0  0  0  0  0  0  0
   27.0734  -22.7734  -15.9902 C   0  0  2  0  0  0  0  0  0  0  0  0
   27.8436  -23.9519  -15.9676 N   0  0  0  0  0  0  0  0  0  0  0  0
   26.3723  -22.5726  -14.6786 C   0  0  0  0  0  0  0  0  0  0  0  0
   25.9706  -23.5936  -14.0304 O   0  0  0  0  0  0  0  0  0  0  0  0
   22.5581  -25.8060  -18.6271 N   0  0  0  0  0  0  0  0  0  0  0  0
   26.1588  -21.2695  -14.1686 C   0  0  1  0  0  0  0  0  0  0  0  0
   25.5476  -21.0022  -12.9208 C   0  0  0  0  0  0  0  0  0  0  0  0
   26.2014  -19.9472  -12.0966 C   0  0  0  0  0  0  0  0  0  0  0  0
   27.2456  -20.4634  -11.1940 C   0  0  0  0  0  0  0  0  0  0  0  0
   28.4548  -20.9995  -11.6043 N   0  0  0  0  0  0  0  0  0  0  0  0
   29.1740  -21.3460  -10.5116 C   0  0  0  0  0  0  0  0  0  0  0  0
   28.4808  -21.0572   -9.4020 C   0  0  0  0  0  0  0  0  0  0  0  0
   28.7958  -21.2305   -8.0828 C   0  0  0  0  0  0  0  0  0  0  0  0
   27.8608  -20.8351   -7.1413 C   0  0  0  0  0  0  0  0  0  0  0  0
   26.6593  -20.2886   -7.4997 C   0  0  0  0  0  0  0  0  0  0  0  0
   26.3867  -20.1328   -8.8569 C   0  0  0  0  0  0  0  0  0  0  0  0
   27.2745  -20.5056   -9.8271 C   0  0  0  0  0  0  0  0  0  0  0  0
   24.0610  -20.8712  -13.0227 O   0  0  0  0  0  0  0  0  0  0  0  0
   23.5204  -20.1591  -13.9050 N   0  0  0  0  0  0  0  0  0  0  0  0
   23.1971  -21.5381  -12.1378 C   0  0  1  0  0  0  0  0  0  0  0  0
   21.6823  -21.3470  -12.2518 C   0  0  0  0  0  0  0  0  0  0  0  0
   21.0626  -22.4204  -11.4620 C   0  0  0  0  0  0  0  0  0  0  0  0
   19.6461  -22.6917  -11.3687 C   0  0  0  0  0  0  0  0  0  0  0  0
   18.9795  -23.7210  -10.5934 C   0  0  0  0  0  0  0  0  0  0  0  0
   17.4643  -23.6983  -10.5814 N   0  0  0  0  0  0  0  0  0  0  0  0
   16.9172  -24.8086   -9.8349 C   0  0  0  0  0  0  0  0  0  0  0  0
   21.5006  -19.9794  -11.6420 O   0  0  0  0  0  0  0  0  0  0  0  0
   20.4032  -19.2164  -12.0929 O   0  0  0  0  0  0  0  0  0  0  0  0
  2  1  1  0
  3  2  2  0
  4  2  1  0
  5  4  1  0
  6  5  1  0
  7  6  1  0
  8 10  1  0
  8  7  1  0
  8  9  1  1
 10 12  1  0
 11 10  2  0
 12 13  1  0
 13 24  1  0
 14 15  1  0
 13 14  1  1
 15 23  1  0
 16 15  2  0
 16 17  1  0
 17 18  1  0
 18 19  1  0
 19 20  2  0
 21 20  1  0
 22 21  2  0
 23 18  2  0
 23 22  1  0
 24 26  1  0
 24 25  2  0
 26 27  1  0
 27 28  1  1
 27 33  1  0
 29 30  1  0
 29 28  1  0
 31 32  1  0
 31 30  1  0
 33 34  1  0
 35 33  2  0
M  END
$$$$
