RWK.pdb
     RDKit          3D

 35 36  0  0  1  0  0  0  0  0999 V2000
   32.6231  -23.7932  -18.2548 N   0  0  0  0  0  0  0  0  0  0  0  0
   31.7527  -23.8699  -19.3760 C   0  0  0  0  0  0  0  0  0  0  0  0
   32.1144  -24.4072  -20.4853 N   0  0  0  0  0  0  0  0  0  0  0  0
   30.4263  -23.3365  -19.2868 N   0  0  0  0  0  0  0  0  0  0  0  0
   29.8264  -22.7984  -18.1086 C   0  0  0  0  0  0  0  0  0  0  0  0
   29.2294  -23.8712  -17.2697 C   0  0  0  0  0  0  0  0  0  0  0  0
   27.9308  -23.6203  -16.6237 C   0  0  0  0  0  0  0  0  0  0  0  0
   27.6186  -22.2606  -16.1300 C   0  0  2  0  0  0  0  0  0  0  0  0
   28.6220  -21.2742  -16.1827 N   0  0  0  0  0  0  0  0  0  0  0  0
   26.9861  -22.3019  -14.7696 C   0  0  0  0  0  0  0  0  0  0  0  0
   25.9917  -23.0744  -14.5741 O   0  0  0  0  0  0  0  0  0  0  0  0
   31.4477  -24.4921  -21.2645 N   0  0  0  0  0  0  0  0  0  0  0  0
   27.4848  -21.4947  -13.7191 C   0  0  1  0  0  0  0  0  0  0  0  0
   26.8843  -21.4054  -12.4411 C   0  0  0  0  0  0  0  0  0  0  0  0
   27.7972  -21.0277  -11.3259 C   0  0  0  0  0  0  0  0  0  0  0  0
   27.0984  -20.7350  -10.0620 C   0  0  0  0  0  0  0  0  0  0  0  0
   25.7228  -20.6833   -9.9097 N   0  0  0  0  0  0  0  0  0  0  0  0
   25.4350  -20.4158   -8.6147 C   0  0  0  0  0  0  0  0  0  0  0  0
   26.5703  -20.2901   -7.9143 C   0  0  0  0  0  0  0  0  0  0  0  0
   26.7761  -20.0201   -6.5898 C   0  0  0  0  0  0  0  0  0  0  0  0
   28.0852  -19.9437   -6.1453 C   0  0  0  0  0  0  0  0  0  0  0  0
   29.1473  -20.1287   -6.9870 C   0  0  0  0  0  0  0  0  0  0  0  0
   28.8841  -20.4018   -8.3273 C   0  0  0  0  0  0  0  0  0  0  0  0
   27.6113  -20.4889   -8.8181 C   0  0  0  0  0  0  0  0  0  0  0  0
   25.5924  -20.6515  -12.4618 O   0  0  0  0  0  0  0  0  0  0  0  0
   25.5612  -19.3982  -12.5385 N   0  0  0  0  0  0  0  0  0  0  0  0
   24.3518  -21.3077  -12.3974 C   0  0  1  0  0  0  0  0  0  0  0  0
   23.0691  -20.5669  -12.7849 C   0  0  0  0  0  0  0  0  0  0  0  0
   22.3765  -21.4115  -13.7681 C   0  0  0  0  0  0  0  0  0  0  0  0
   22.0924  -21.0537  -15.1393 C   0  0  0  0  0  0  0  0  0  0  0  0
   22.6035  -21.6676  -16.3504 C   0  0  0  0  0  0  0  0  0  0  0  0
   22.1854  -21.0424  -17.6660 N   0  0  0  0  0  0  0  0  0  0  0  0
   22.6566  -21.8085  -18.7976 C   0  0  0  0  0  0  0  0  0  0  0  0
   22.3517  -20.4858  -11.4606 O   0  0  0  0  0  0  0  0  0  0  0  0
   21.2981  -19.5536  -11.3575 O   0  0  0  0  0  0  0  0  0  0  0  0
  2  1  1  0
  3  2  2  0
  4  2  1  0
  5  4  1  0
  6  5  1  0
  7  6  1  0
  8 10  1  0
  8  7  1  0
  8  9  1  1
 10 12  1  0
 11 10  2  0
 12 13  1  0
 13 24  1  0
 14 15  1  0
 13 14  1  1
 15 23  1  0
 16 15  2  0
 16 17  1  0
 17 18  1  0
 18 19  1  0
 19 20  2  0
 21 20  1  0
 22 21  2  0
 23 18  2  0
 23 22  1  0
 24 26  1  0
 24 25  2  0
 26 27  1  0
 27 28  1  1
 27 33  1  0
 29 30  1  0
 29 28  1  0
 31 32  1  0
 31 30  1  0
 33 34  1  0
 35 33  2  0
M  END
$$$$
