RWK.pdb
     RDKit          3D

 35 36  0  0  1  0  0  0  0  0999 V2000
   29.3989  -18.7632  -18.3964 N   0  0  0  0  0  0  0  0  0  0  0  0
   30.3275  -19.6365  -19.0255 C   0  0  0  0  0  0  0  0  0  0  0  0
   31.4818  -19.2350  -19.4213 N   0  0  0  0  0  0  0  0  0  0  0  0
   29.9842  -21.0113  -19.2348 N   0  0  0  0  0  0  0  0  0  0  0  0
   28.7188  -21.6038  -18.9431 C   0  0  0  0  0  0  0  0  0  0  0  0
   28.8311  -22.6024  -17.8470 C   0  0  0  0  0  0  0  0  0  0  0  0
   27.8193  -22.5922  -16.7780 C   0  0  0  0  0  0  0  0  0  0  0  0
   27.5097  -21.3211  -16.0864 C   0  0  2  0  0  0  0  0  0  0  0  0
   28.5019  -20.3239  -16.0264 N   0  0  0  0  0  0  0  0  0  0  0  0
   26.9191  -21.5643  -14.7283 C   0  0  0  0  0  0  0  0  0  0  0  0
   26.0958  -22.5250  -14.5759 O   0  0  0  0  0  0  0  0  0  0  0  0
   32.1078  -19.8724  -19.9317 N   0  0  0  0  0  0  0  0  0  0  0  0
   27.2694  -20.7393  -13.6327 C   0  0  1  0  0  0  0  0  0  0  0  0
   26.6795  -20.8396  -12.3506 C   0  0  0  0  0  0  0  0  0  0  0  0
   27.5222  -20.3692  -11.2156 C   0  0  0  0  0  0  0  0  0  0  0  0
   26.8464  -20.4385   -9.9079 C   0  0  0  0  0  0  0  0  0  0  0  0
   25.4919  -20.6625   -9.7259 N   0  0  0  0  0  0  0  0  0  0  0  0
   25.2263  -20.6881   -8.3992 C   0  0  0  0  0  0  0  0  0  0  0  0
   26.3558  -20.4888   -7.7065 C   0  0  0  0  0  0  0  0  0  0  0  0
   26.5768  -20.4287   -6.3585 C   0  0  0  0  0  0  0  0  0  0  0  0
   27.8731  -20.2000   -5.9293 C   0  0  0  0  0  0  0  0  0  0  0  0
   28.9085  -20.0374   -6.8082 C   0  0  0  0  0  0  0  0  0  0  0  0
   28.6308  -20.1078   -8.1714 C   0  0  0  0  0  0  0  0  0  0  0  0
   27.3697  -20.3321   -8.6486 C   0  0  0  0  0  0  0  0  0  0  0  0
   25.2712  -20.3359  -12.3223 O   0  0  0  0  0  0  0  0  0  0  0  0
   25.0074  -19.1102  -12.3974 N   0  0  0  0  0  0  0  0  0  0  0  0
   24.1755  -21.2084  -12.2112 C   0  0  1  0  0  0  0  0  0  0  0  0
   22.7491  -20.6756  -12.3713 C   0  0  0  0  0  0  0  0  0  0  0  0
   22.0287  -21.6471  -13.2062 C   0  0  0  0  0  0  0  0  0  0  0  0
   20.6371  -21.5663  -13.5880 C   0  0  0  0  0  0  0  0  0  0  0  0
   19.9022  -22.4359  -14.4872 C   0  0  0  0  0  0  0  0  0  0  0  0
   18.4428  -22.1033  -14.7236 N   0  0  0  0  0  0  0  0  0  0  0  0
   17.8282  -23.0198  -15.6572 C   0  0  0  0  0  0  0  0  0  0  0  0
   22.2705  -20.6502  -10.9412 O   0  0  0  0  0  0  0  0  0  0  0  0
   21.5482  -19.5119  -10.5263 O   0  0  0  0  0  0  0  0  0  0  0  0
  2  1  1  0
  3  2  2  0
  4  2  1  0
  5  4  1  0
  6  5  1  0
  7  6  1  0
  8 10  1  0
  8  7  1  0
  8  9  1  1
 10 12  1  0
 11 10  2  0
 12 13  1  0
 13 24  1  0
 14 15  1  0
 13 14  1  1
 15 23  1  0
 16 15  2  0
 16 17  1  0
 17 18  1  0
 18 19  1  0
 19 20  2  0
 21 20  1  0
 22 21  2  0
 23 18  2  0
 23 22  1  0
 24 26  1  0
 24 25  2  0
 26 27  1  0
 27 28  1  1
 27 33  1  0
 29 30  1  0
 29 28  1  0
 31 32  1  0
 31 30  1  0
 33 34  1  0
 35 33  2  0
M  END
$$$$
