RWK.pdb
     RDKit          3D

 35 36  0  0  1  0  0  0  0  0999 V2000
   22.7606  -26.0479  -13.9651 N   0  0  0  0  0  0  0  0  0  0  0  0
   23.5887  -25.1445  -14.6854 C   0  0  0  0  0  0  0  0  0  0  0  0
   24.7724  -25.4624  -15.0702 N   0  0  0  0  0  0  0  0  0  0  0  0
   23.1069  -23.8332  -15.0017 N   0  0  0  0  0  0  0  0  0  0  0  0
   23.3726  -22.6486  -14.2509 C   0  0  0  0  0  0  0  0  0  0  0  0
   22.5220  -22.5804  -13.0331 C   0  0  0  0  0  0  0  0  0  0  0  0
   23.1668  -22.3128  -11.7372 C   0  0  0  0  0  0  0  0  0  0  0  0
   23.2388  -20.9215  -11.2380 C   0  0  2  0  0  0  0  0  0  0  0  0
   22.2904  -19.9876  -11.6973 N   0  0  0  0  0  0  0  0  0  0  0  0
   24.6286  -20.3673  -11.3545 C   0  0  0  0  0  0  0  0  0  0  0  0
   24.8173  -19.3135  -12.0459 O   0  0  0  0  0  0  0  0  0  0  0  0
   25.3257  -24.8115  -15.6438 N   0  0  0  0  0  0  0  0  0  0  0  0
   25.7144  -21.0048  -10.7078 C   0  0  2  0  0  0  0  0  0  0  0  0
   27.0694  -20.6506  -10.9093 C   0  0  0  0  0  0  0  0  0  0  0  0
   27.9667  -20.8443   -9.7358 C   0  0  0  0  0  0  0  0  0  0  0  0
   27.4392  -20.2691   -8.4858 C   0  0  0  0  0  0  0  0  0  0  0  0
   26.1606  -19.7621   -8.3235 N   0  0  0  0  0  0  0  0  0  0  0  0
   26.0142  -19.3435   -7.0450 C   0  0  0  0  0  0  0  0  0  0  0  0
   27.1488  -19.5570   -6.3650 C   0  0  0  0  0  0  0  0  0  0  0  0
   27.4705  -19.2957   -5.0620 C   0  0  0  0  0  0  0  0  0  0  0  0
   28.7456  -19.6269   -4.6360 C   0  0  0  0  0  0  0  0  0  0  0  0
   29.6641  -20.1957   -5.4749 C   0  0  0  0  0  0  0  0  0  0  0  0
   29.2866  -20.4420   -6.7929 C   0  0  0  0  0  0  0  0  0  0  0  0
   28.0409  -20.1353   -7.2648 C   0  0  0  0  0  0  0  0  0  0  0  0
   27.6180  -21.1768  -12.1976 O   0  0  0  0  0  0  0  0  0  0  0  0
   27.9103  -22.3896  -12.3437 N   0  0  0  0  0  0  0  0  0  0  0  0
   27.8323  -20.3412  -13.3067 C   0  0  1  0  0  0  0  0  0  0  0  0
   28.0673  -20.9481  -14.6925 C   0  0  0  0  0  0  0  0  0  0  0  0
   26.8639  -21.7252  -15.0207 C   0  0  0  0  0  0  0  0  0  0  0  0
   26.7004  -22.5858  -16.1703 C   0  0  0  0  0  0  0  0  0  0  0  0
   25.5210  -23.3280  -16.5742 C   0  0  0  0  0  0  0  0  0  0  0  0
   25.5957  -24.0707  -17.8930 N   0  0  0  0  0  0  0  0  0  0  0  0
   24.4075  -24.8582  -18.1330 C   0  0  0  0  0  0  0  0  0  0  0  0
   28.2279  -19.7130  -15.5433 O   0  0  0  0  0  0  0  0  0  0  0  0
   27.4236  -18.6008  -15.2180 O   0  0  0  0  0  0  0  0  0  0  0  0
  2  1  1  0
  3  2  2  0
  4  2  1  0
  5  4  1  0
  6  5  1  0
  7  6  1  0
  8 10  1  0
  8  7  1  0
  8  9  1  6
 10 12  1  0
 11 10  2  0
 12 13  1  0
 13 24  1  0
 14 15  1  0
 13 14  1  1
 15 23  1  0
 16 15  2  0
 16 17  1  0
 17 18  1  0
 18 19  1  0
 19 20  2  0
 21 20  1  0
 22 21  2  0
 23 18  2  0
 23 22  1  0
 24 26  1  0
 24 25  2  0
 26 27  1  0
 27 28  1  6
 27 33  1  0
 29 30  1  0
 29 28  1  0
 31 32  1  0
 31 30  1  0
 33 34  1  0
 35 33  2  0
M  END
$$$$
