RWK.pdb
     RDKit          3D

 35 36  0  0  1  0  0  0  0  0999 V2000
   31.7947  -24.2963  -17.9535 N   0  0  0  0  0  0  0  0  0  0  0  0
   30.7654  -25.2715  -17.8522 C   0  0  0  0  0  0  0  0  0  0  0  0
   30.9839  -26.5192  -18.0660 N   0  0  0  0  0  0  0  0  0  0  0  0
   29.4354  -24.8708  -17.5026 N   0  0  0  0  0  0  0  0  0  0  0  0
   29.0269  -23.5409  -17.1830 C   0  0  0  0  0  0  0  0  0  0  0  0
   29.5985  -23.0993  -15.8832 C   0  0  0  0  0  0  0  0  0  0  0  0
   28.6900  -22.9169  -14.7395 C   0  0  0  0  0  0  0  0  0  0  0  0
   27.7082  -21.8100  -14.7641 C   0  0  2  0  0  0  0  0  0  0  0  0
   28.1813  -20.4877  -14.8651 N   0  0  0  0  0  0  0  0  0  0  0  0
   26.7129  -21.9335  -13.6478 C   0  0  0  0  0  0  0  0  0  0  0  0
   26.0634  -23.0222  -13.5171 O   0  0  0  0  0  0  0  0  0  0  0  0
   30.2226  -27.2049  -17.9704 N   0  0  0  0  0  0  0  0  0  0  0  0
   26.4968  -20.8577  -12.7536 C   0  0  1  0  0  0  0  0  0  0  0  0
   25.5294  -20.8735  -11.7211 C   0  0  0  0  0  0  0  0  0  0  0  0
   25.9102  -20.1577  -10.4712 C   0  0  0  0  0  0  0  0  0  0  0  0
   27.1360  -20.6786   -9.8406 C   0  0  0  0  0  0  0  0  0  0  0  0
   28.0511  -21.5156  -10.4571 N   0  0  0  0  0  0  0  0  0  0  0  0
   29.0621  -21.7709   -9.5945 C   0  0  0  0  0  0  0  0  0  0  0  0
   28.8427  -21.1329   -8.4369 C   0  0  0  0  0  0  0  0  0  0  0  0
   29.5785  -21.0963   -7.2851 C   0  0  0  0  0  0  0  0  0  0  0  0
   29.0881  -20.3417   -6.2328 C   0  0  0  0  0  0  0  0  0  0  0  0
   27.9111  -19.6510   -6.3243 C   0  0  0  0  0  0  0  0  0  0  0  0
   27.1993  -19.7206   -7.5196 C   0  0  0  0  0  0  0  0  0  0  0  0
   27.6384  -20.4498   -8.5891 C   0  0  0  0  0  0  0  0  0  0  0  0
   24.1527  -20.5602  -12.2153 O   0  0  0  0  0  0  0  0  0  0  0  0
   23.9104  -19.5213  -12.8783 N   0  0  0  0  0  0  0  0  0  0  0  0
   23.0644  -21.4123  -11.9632 C   0  0  1  0  0  0  0  0  0  0  0  0
   21.6600  -21.0257  -12.4344 C   0  0  0  0  0  0  0  0  0  0  0  0
   21.0994  -22.2095  -13.1009 C   0  0  0  0  0  0  0  0  0  0  0  0
   20.1516  -22.1963  -14.1919 C   0  0  0  0  0  0  0  0  0  0  0  0
   20.3106  -21.6127  -15.5106 C   0  0  0  0  0  0  0  0  0  0  0  0
   19.1520  -21.7691  -16.4747 N   0  0  0  0  0  0  0  0  0  0  0  0
   19.3605  -21.0158  -17.6906 C   0  0  0  0  0  0  0  0  0  0  0  0
   20.9788  -20.7003  -11.1286 O   0  0  0  0  0  0  0  0  0  0  0  0
   19.8202  -19.8981  -11.1916 O   0  0  0  0  0  0  0  0  0  0  0  0
  2  1  1  0
  3  2  2  0
  4  2  1  0
  5  4  1  0
  6  5  1  0
  7  6  1  0
  8 10  1  0
  8  7  1  0
  8  9  1  1
 10 12  1  0
 11 10  2  0
 12 13  1  0
 13 24  1  0
 14 15  1  0
 13 14  1  1
 15 23  1  0
 16 15  2  0
 16 17  1  0
 17 18  1  0
 18 19  1  0
 19 20  2  0
 21 20  1  0
 22 21  2  0
 23 18  2  0
 23 22  1  0
 24 26  1  0
 24 25  2  0
 26 27  1  0
 27 28  1  1
 27 33  1  0
 29 30  1  0
 29 28  1  0
 31 32  1  0
 31 30  1  0
 33 34  1  0
 35 33  2  0
M  END
$$$$
