RWK.pdb
     RDKit          3D

 35 36  0  0  1  0  0  0  0  0999 V2000
   31.8361  -24.7299  -15.1674 N   0  0  0  0  0  0  0  0  0  0  0  0
   32.2171  -24.5556  -16.5257 C   0  0  0  0  0  0  0  0  0  0  0  0
   33.0849  -25.3135  -17.0938 N   0  0  0  0  0  0  0  0  0  0  0  0
   31.6268  -23.5071  -17.3029 N   0  0  0  0  0  0  0  0  0  0  0  0
   30.6505  -22.5769  -16.8349 C   0  0  0  0  0  0  0  0  0  0  0  0
   29.2900  -23.1769  -16.8369 C   0  0  0  0  0  0  0  0  0  0  0  0
   28.2685  -22.6101  -15.9413 C   0  0  0  0  0  0  0  0  0  0  0  0
   28.6786  -21.6546  -14.8884 C   0  0  2  0  0  0  0  0  0  0  0  0
   30.0317  -21.6135  -14.5012 N   0  0  0  0  0  0  0  0  0  0  0  0
   27.7853  -21.7454  -13.6859 C   0  0  0  0  0  0  0  0  0  0  0  0
   26.5985  -22.1867  -13.8301 O   0  0  0  0  0  0  0  0  0  0  0  0
   33.3731  -25.1372  -18.0657 N   0  0  0  0  0  0  0  0  0  0  0  0
   28.2521  -21.3464  -12.4105 C   0  0  1  0  0  0  0  0  0  0  0  0
   27.4475  -21.3299  -11.2467 C   0  0  0  0  0  0  0  0  0  0  0  0
   28.1846  -21.2301   -9.9559 C   0  0  0  0  0  0  0  0  0  0  0  0
   27.3213  -20.9152   -8.8039 C   0  0  0  0  0  0  0  0  0  0  0  0
   25.9381  -20.9847   -8.8067 N   0  0  0  0  0  0  0  0  0  0  0  0
   25.4802  -20.6532   -7.5772 C   0  0  0  0  0  0  0  0  0  0  0  0
   26.5114  -20.3691   -6.7704 C   0  0  0  0  0  0  0  0  0  0  0  0
   26.5382  -19.9857   -5.4582 C   0  0  0  0  0  0  0  0  0  0  0  0
   27.7753  -19.7524   -4.8819 C   0  0  0  0  0  0  0  0  0  0  0  0
   28.9398  -19.8951   -5.5850 C   0  0  0  0  0  0  0  0  0  0  0  0
   28.8583  -20.2882   -6.9189 C   0  0  0  0  0  0  0  0  0  0  0  0
   27.6634  -20.5320   -7.5362 C   0  0  0  0  0  0  0  0  0  0  0  0
   26.2820  -20.3996  -11.3641 O   0  0  0  0  0  0  0  0  0  0  0  0
   26.4364  -19.1558  -11.4462 N   0  0  0  0  0  0  0  0  0  0  0  0
   24.9587  -20.8710  -11.3890 C   0  0  1  0  0  0  0  0  0  0  0  0
   23.8147  -19.9306  -11.7777 C   0  0  0  0  0  0  0  0  0  0  0  0
   23.9044  -19.7381  -13.2319 C   0  0  0  0  0  0  0  0  0  0  0  0
   22.9362  -19.0498  -14.0551 C   0  0  0  0  0  0  0  0  0  0  0  0
   22.9755  -18.8258  -15.4880 C   0  0  0  0  0  0  0  0  0  0  0  0
   21.7990  -18.0929  -16.1006 N   0  0  0  0  0  0  0  0  0  0  0  0
   22.0544  -17.7221  -17.4742 C   0  0  0  0  0  0  0  0  0  0  0  0
   22.6065  -20.7297  -11.3571 O   0  0  0  0  0  0  0  0  0  0  0  0
   21.4738  -20.0045  -10.9318 O   0  0  0  0  0  0  0  0  0  0  0  0
  2  1  1  0
  3  2  2  0
  4  2  1  0
  5  4  1  0
  6  5  1  0
  7  6  1  0
  8 10  1  0
  8  7  1  0
  8  9  1  1
 10 12  1  0
 11 10  2  0
 12 13  1  0
 13 24  1  0
 14 15  1  0
 13 14  1  1
 15 23  1  0
 16 15  2  0
 16 17  1  0
 17 18  1  0
 18 19  1  0
 19 20  2  0
 21 20  1  0
 22 21  2  0
 23 18  2  0
 23 22  1  0
 24 26  1  0
 24 25  2  0
 26 27  1  0
 27 28  1  1
 27 33  1  0
 29 30  1  0
 29 28  1  0
 31 32  1  0
 31 30  1  0
 33 34  1  0
 35 33  2  0
M  END
$$$$
