RWK.pdb
     RDKit          3D

 35 36  0  0  1  0  0  0  0  0999 V2000
   27.7745  -20.7751  -20.3846 N   0  0  0  0  0  0  0  0  0  0  0  0
   26.9438  -19.6933  -19.9842 C   0  0  0  0  0  0  0  0  0  0  0  0
   25.9228  -19.3259  -20.6718 N   0  0  0  0  0  0  0  0  0  0  0  0
   27.2378  -18.9766  -18.7793 N   0  0  0  0  0  0  0  0  0  0  0  0
   28.2108  -19.3548  -17.8058 C   0  0  0  0  0  0  0  0  0  0  0  0
   28.3169  -20.8340  -17.6963 C   0  0  0  0  0  0  0  0  0  0  0  0
   27.9938  -21.4703  -16.4090 C   0  0  0  0  0  0  0  0  0  0  0  0
   27.9166  -20.6368  -15.1886 C   0  0  2  0  0  0  0  0  0  0  0  0
   29.1100  -20.3029  -14.5202 N   0  0  0  0  0  0  0  0  0  0  0  0
   26.8989  -21.1697  -14.2229 C   0  0  0  0  0  0  0  0  0  0  0  0
   25.7666  -21.5507  -14.6666 O   0  0  0  0  0  0  0  0  0  0  0  0
   25.3555  -18.5215  -20.3721 N   0  0  0  0  0  0  0  0  0  0  0  0
   27.1903  -21.2474  -12.8399 C   0  0  2  0  0  0  0  0  0  0  0  0
   26.2715  -21.7039  -11.8655 C   0  0  0  0  0  0  0  0  0  0  0  0
   26.8658  -22.1131  -10.5621 C   0  0  0  0  0  0  0  0  0  0  0  0
   26.8105  -21.0625   -9.5302 C   0  0  0  0  0  0  0  0  0  0  0  0
   25.7275  -20.2295   -9.3036 N   0  0  0  0  0  0  0  0  0  0  0  0
   26.0159  -19.4080   -8.2676 C   0  0  0  0  0  0  0  0  0  0  0  0
   27.2465  -19.6719   -7.8082 C   0  0  0  0  0  0  0  0  0  0  0  0
   27.9595  -19.1032   -6.7895 C   0  0  0  0  0  0  0  0  0  0  0  0
   29.2329  -19.5895   -6.5465 C   0  0  0  0  0  0  0  0  0  0  0  0
   29.7747  -20.6023   -7.2891 C   0  0  0  0  0  0  0  0  0  0  0  0
   29.0072  -21.1482   -8.3155 C   0  0  0  0  0  0  0  0  0  0  0  0
   27.7449  -20.7060   -8.5971 C   0  0  0  0  0  0  0  0  0  0  0  0
   25.0714  -20.8191  -11.7446 O   0  0  0  0  0  0  0  0  0  0  0  0
   25.1801  -19.5831  -11.5491 N   0  0  0  0  0  0  0  0  0  0  0  0
   23.7650  -21.3265  -11.8446 C   0  0  1  0  0  0  0  0  0  0  0  0
   22.6001  -20.3906  -12.1779 C   0  0  0  0  0  0  0  0  0  0  0  0
   22.5764  -20.2535  -13.6410 C   0  0  0  0  0  0  0  0  0  0  0  0
   21.5963  -19.5160  -14.4054 C   0  0  0  0  0  0  0  0  0  0  0  0
   21.5017  -19.3787  -15.8466 C   0  0  0  0  0  0  0  0  0  0  0  0
   20.3434  -18.5623  -16.3838 N   0  0  0  0  0  0  0  0  0  0  0  0
   20.2781  -18.6089  -17.8270 C   0  0  0  0  0  0  0  0  0  0  0  0
   21.4237  -21.1619  -11.6339 O   0  0  0  0  0  0  0  0  0  0  0  0
   20.3406  -20.4107  -11.1316 O   0  0  0  0  0  0  0  0  0  0  0  0
  2  1  1  0
  3  2  2  0
  4  2  1  0
  5  4  1  0
  6  5  1  0
  7  6  1  0
  8 10  1  0
  8  7  1  0
  8  9  1  1
 10 12  1  0
 11 10  2  0
 12 13  1  0
 13 24  1  0
 14 15  1  0
 13 14  1  6
 15 23  1  0
 16 15  2  0
 16 17  1  0
 17 18  1  0
 18 19  1  0
 19 20  2  0
 21 20  1  0
 22 21  2  0
 23 18  2  0
 23 22  1  0
 24 26  1  0
 24 25  2  0
 26 27  1  0
 27 28  1  1
 27 33  1  0
 29 30  1  0
 29 28  1  0
 31 32  1  0
 31 30  1  0
 33 34  1  0
 35 33  2  0
M  END
$$$$
