RWK.pdb
     RDKit          3D

 35 36  0  0  1  0  0  0  0  0999 V2000
   30.8254  -26.3213  -16.6825 N   0  0  0  0  0  0  0  0  0  0  0  0
   29.6124  -27.0575  -16.7677 C   0  0  0  0  0  0  0  0  0  0  0  0
   29.4695  -28.2046  -16.2076 N   0  0  0  0  0  0  0  0  0  0  0  0
   28.5026  -26.5210  -17.4973 N   0  0  0  0  0  0  0  0  0  0  0  0
   28.3973  -25.1821  -17.9809 C   0  0  0  0  0  0  0  0  0  0  0  0
   28.5797  -24.1966  -16.8825 C   0  0  0  0  0  0  0  0  0  0  0  0
   27.5187  -24.0645  -15.8707 C   0  0  0  0  0  0  0  0  0  0  0  0
   26.4552  -23.0540  -16.0646 C   0  0  2  0  0  0  0  0  0  0  0  0
   26.7639  -21.8721  -16.7649 N   0  0  0  0  0  0  0  0  0  0  0  0
   25.7550  -22.7390  -14.7751 C   0  0  0  0  0  0  0  0  0  0  0  0
   25.3663  -23.6992  -14.0329 O   0  0  0  0  0  0  0  0  0  0  0  0
   28.5531  -28.6727  -16.2062 N   0  0  0  0  0  0  0  0  0  0  0  0
   25.5281  -21.3963  -14.3884 C   0  0  1  0  0  0  0  0  0  0  0  0
   24.9277  -21.0198  -13.1638 C   0  0  0  0  0  0  0  0  0  0  0  0
   25.6232  -19.9382  -12.4115 C   0  0  0  0  0  0  0  0  0  0  0  0
   26.7756  -20.4112  -11.6243 C   0  0  0  0  0  0  0  0  0  0  0  0
   27.9803  -20.8369  -12.1587 N   0  0  0  0  0  0  0  0  0  0  0  0
   28.8139  -21.1733  -11.1471 C   0  0  0  0  0  0  0  0  0  0  0  0
   28.2000  -20.9842   -9.9713 C   0  0  0  0  0  0  0  0  0  0  0  0
   28.6391  -21.1881   -8.6926 C   0  0  0  0  0  0  0  0  0  0  0  0
   27.7628  -20.9039   -7.6590 C   0  0  0  0  0  0  0  0  0  0  0  0
   26.4987  -20.4353   -7.8901 C   0  0  0  0  0  0  0  0  0  0  0  0
   26.0997  -20.2441   -9.2110 C   0  0  0  0  0  0  0  0  0  0  0  0
   26.9251  -20.5081  -10.2681 C   0  0  0  0  0  0  0  0  0  0  0  0
   23.4476  -20.8363  -13.2791 O   0  0  0  0  0  0  0  0  0  0  0  0
   22.9380  -20.1448  -14.1955 N   0  0  0  0  0  0  0  0  0  0  0  0
   22.5555  -21.4287  -12.3695 C   0  0  1  0  0  0  0  0  0  0  0  0
   21.0471  -21.2161  -12.5228 C   0  0  0  0  0  0  0  0  0  0  0  0
   20.3921  -22.2417  -11.6988 C   0  0  0  0  0  0  0  0  0  0  0  0
   18.9678  -22.4676  -11.6039 C   0  0  0  0  0  0  0  0  0  0  0  0
   18.2714  -23.5008  -10.8606 C   0  0  0  0  0  0  0  0  0  0  0  0
   16.7602  -23.5251  -10.9704 N   0  0  0  0  0  0  0  0  0  0  0  0
   16.1882  -24.6420  -10.2529 C   0  0  0  0  0  0  0  0  0  0  0  0
   20.8789  -19.8194  -11.9786 O   0  0  0  0  0  0  0  0  0  0  0  0
   19.8530  -19.0310  -12.5405 O   0  0  0  0  0  0  0  0  0  0  0  0
  2  1  1  0
  3  2  2  0
  4  2  1  0
  5  4  1  0
  6  5  1  0
  7  6  1  0
  8 10  1  0
  8  7  1  0
  8  9  1  1
 10 12  1  0
 11 10  2  0
 12 13  1  0
 13 24  1  0
 14 15  1  0
 13 14  1  1
 15 23  1  0
 16 15  2  0
 16 17  1  0
 17 18  1  0
 18 19  1  0
 19 20  2  0
 21 20  1  0
 22 21  2  0
 23 18  2  0
 23 22  1  0
 24 26  1  0
 24 25  2  0
 26 27  1  0
 27 28  1  1
 27 33  1  0
 29 30  1  0
 29 28  1  0
 31 32  1  0
 31 30  1  0
 33 34  1  0
 35 33  2  0
M  END
$$$$
