RWK.pdb
     RDKit          3D

 35 36  0  0  1  0  0  0  0  0999 V2000
   26.5778  -20.8954  -20.1905 N   0  0  0  0  0  0  0  0  0  0  0  0
   27.4674  -19.7988  -20.0271 C   0  0  0  0  0  0  0  0  0  0  0  0
   27.5168  -18.8289  -20.8681 N   0  0  0  0  0  0  0  0  0  0  0  0
   28.3452  -19.7550  -18.8961 N   0  0  0  0  0  0  0  0  0  0  0  0
   28.2136  -20.5431  -17.7132 C   0  0  0  0  0  0  0  0  0  0  0  0
   26.8054  -20.9737  -17.5064 C   0  0  0  0  0  0  0  0  0  0  0  0
   26.2904  -21.0620  -16.1303 C   0  0  0  0  0  0  0  0  0  0  0  0
   26.8911  -22.0376  -15.1937 C   0  0  2  0  0  0  0  0  0  0  0  0
   27.1931  -23.3299  -15.6640 N   0  0  0  0  0  0  0  0  0  0  0  0
   26.1232  -22.1077  -13.9062 C   0  0  0  0  0  0  0  0  0  0  0  0
   25.4798  -23.1719  -13.6280 O   0  0  0  0  0  0  0  0  0  0  0  0
   28.1827  -18.0562  -20.7330 N   0  0  0  0  0  0  0  0  0  0  0  0
   26.1119  -21.0087  -13.0140 C   0  0  2  0  0  0  0  0  0  0  0  0
   25.2654  -20.9202  -11.8837 C   0  0  0  0  0  0  0  0  0  0  0  0
   25.7682  -20.0708  -10.7678 C   0  0  0  0  0  0  0  0  0  0  0  0
   27.0262  -20.5570  -10.1741 C   0  0  0  0  0  0  0  0  0  0  0  0
   27.9636  -21.3372  -10.8303 N   0  0  0  0  0  0  0  0  0  0  0  0
   29.0003  -21.5737   -9.9932 C   0  0  0  0  0  0  0  0  0  0  0  0
   28.7762  -20.9781   -8.8141 C   0  0  0  0  0  0  0  0  0  0  0  0
   29.5313  -20.9427   -7.6748 C   0  0  0  0  0  0  0  0  0  0  0  0
   29.0297  -20.2392   -6.5928 C   0  0  0  0  0  0  0  0  0  0  0  0
   27.8235  -19.5965   -6.6438 C   0  0  0  0  0  0  0  0  0  0  0  0
   27.0929  -19.6625   -7.8280 C   0  0  0  0  0  0  0  0  0  0  0  0
   27.5420  -20.3423   -8.9255 C   0  0  0  0  0  0  0  0  0  0  0  0
   23.8365  -20.6727  -12.2507 O   0  0  0  0  0  0  0  0  0  0  0  0
   23.4985  -19.6959  -12.9644 N   0  0  0  0  0  0  0  0  0  0  0  0
   22.8035  -21.5202  -11.8163 C   0  0  2  0  0  0  0  0  0  0  0  0
   21.3575  -21.2499  -12.2408 C   0  0  0  0  0  0  0  0  0  0  0  0
   20.6124  -22.4958  -12.0119 C   0  0  0  0  0  0  0  0  0  0  0  0
   19.2162  -22.7140  -12.3151 C   0  0  0  0  0  0  0  0  0  0  0  0
   18.4316  -23.9170  -12.1101 C   0  0  0  0  0  0  0  0  0  0  0  0
   16.9802  -23.8720  -12.5435 N   0  0  0  0  0  0  0  0  0  0  0  0
   16.2769  -22.7584  -11.9480 C   0  0  0  0  0  0  0  0  0  0  0  0
   20.9649  -20.1404  -11.2975 O   0  0  0  0  0  0  0  0  0  0  0  0
   20.0100  -19.2115  -11.7614 O   0  0  0  0  0  0  0  0  0  0  0  0
  2  1  1  0
  3  2  2  0
  4  2  1  0
  5  4  1  0
  6  5  1  0
  7  6  1  0
  8 10  1  0
  8  7  1  0
  8  9  1  6
 10 12  1  0
 11 10  2  0
 12 13  1  0
 13 24  1  0
 14 15  1  0
 13 14  1  6
 15 23  1  0
 16 15  2  0
 16 17  1  0
 17 18  1  0
 18 19  1  0
 19 20  2  0
 21 20  1  0
 22 21  2  0
 23 18  2  0
 23 22  1  0
 24 26  1  0
 24 25  2  0
 26 27  1  0
 27 28  1  1
 27 33  1  0
 29 30  1  0
 29 28  1  0
 31 32  1  0
 31 30  1  0
 33 34  1  0
 35 33  2  0
M  END
$$$$
