RWK.pdb
     RDKit          3D

 35 36  0  0  1  0  0  0  0  0999 V2000
   27.7590  -16.2667  -17.9243 N   0  0  0  0  0  0  0  0  0  0  0  0
   27.5515  -15.7423  -16.6194 C   0  0  0  0  0  0  0  0  0  0  0  0
   26.9711  -14.6135  -16.4218 N   0  0  0  0  0  0  0  0  0  0  0  0
   27.9971  -16.4801  -15.4753 N   0  0  0  0  0  0  0  0  0  0  0  0
   28.7025  -17.7205  -15.5116 C   0  0  0  0  0  0  0  0  0  0  0  0
   27.8523  -18.8080  -16.0644 C   0  0  0  0  0  0  0  0  0  0  0  0
   27.1342  -19.6866  -15.1269 C   0  0  0  0  0  0  0  0  0  0  0  0
   27.8009  -20.9085  -14.6246 C   0  0  2  0  0  0  0  0  0  0  0  0
   28.0116  -21.9792  -15.5144 N   0  0  0  0  0  0  0  0  0  0  0  0
   27.1726  -21.3931  -13.3508 C   0  0  0  0  0  0  0  0  0  0  0  0
   26.1178  -22.1054  -13.4145 O   0  0  0  0  0  0  0  0  0  0  0  0
   26.8482  -14.2515  -15.4665 N   0  0  0  0  0  0  0  0  0  0  0  0
   27.7411  -21.0639  -12.0970 C   0  0  2  0  0  0  0  0  0  0  0  0
   27.0132  -21.0393  -10.8839 C   0  0  0  0  0  0  0  0  0  0  0  0
   27.8016  -20.6975   -9.6668 C   0  0  0  0  0  0  0  0  0  0  0  0
   26.9962  -20.6495   -8.4338 C   0  0  0  0  0  0  0  0  0  0  0  0
   25.6543  -20.9818   -8.3493 N   0  0  0  0  0  0  0  0  0  0  0  0
   25.2494  -20.8465   -7.0652 C   0  0  0  0  0  0  0  0  0  0  0  0
   26.2754  -20.4380   -6.3065 C   0  0  0  0  0  0  0  0  0  0  0  0
   26.3426  -20.1661   -4.9682 C   0  0  0  0  0  0  0  0  0  0  0  0
   27.5600  -19.7489   -4.4574 C   0  0  0  0  0  0  0  0  0  0  0  0
   28.6668  -19.6079   -5.2486 C   0  0  0  0  0  0  0  0  0  0  0  0
   28.5460  -19.8979   -6.6057 C   0  0  0  0  0  0  0  0  0  0  0  0
   27.3683  -20.3139   -7.1611 C   0  0  0  0  0  0  0  0  0  0  0  0
   25.7160  -20.3039  -11.0041 O   0  0  0  0  0  0  0  0  0  0  0  0
   25.6686  -19.0490  -11.0243 N   0  0  0  0  0  0  0  0  0  0  0  0
   24.4884  -20.9803  -11.1011 C   0  0  1  0  0  0  0  0  0  0  0  0
   23.1873  -20.1915  -11.2721 C   0  0  0  0  0  0  0  0  0  0  0  0
   22.6523  -20.5447  -12.5946 C   0  0  0  0  0  0  0  0  0  0  0  0
   23.1516  -20.0667  -13.8639 C   0  0  0  0  0  0  0  0  0  0  0  0
   22.6525  -20.3647  -15.1932 C   0  0  0  0  0  0  0  0  0  0  0  0
   23.3487  -19.6863  -16.3558 N   0  0  0  0  0  0  0  0  0  0  0  0
   22.7144  -19.9981  -17.6167 C   0  0  0  0  0  0  0  0  0  0  0  0
   22.3553  -20.7244  -10.1325 O   0  0  0  0  0  0  0  0  0  0  0  0
   21.2593  -19.9399   -9.7164 O   0  0  0  0  0  0  0  0  0  0  0  0
  2  1  1  0
  3  2  2  0
  4  2  1  0
  5  4  1  0
  6  5  1  0
  7  6  1  0
  8 10  1  0
  8  7  1  0
  8  9  1  6
 10 12  1  0
 11 10  2  0
 12 13  1  0
 13 24  1  0
 14 15  1  0
 13 14  1  1
 15 23  1  0
 16 15  2  0
 16 17  1  0
 17 18  1  0
 18 19  1  0
 19 20  2  0
 21 20  1  0
 22 21  2  0
 23 18  2  0
 23 22  1  0
 24 26  1  0
 24 25  2  0
 26 27  1  0
 27 28  1  1
 27 33  1  0
 29 30  1  0
 29 28  1  0
 31 32  1  0
 31 30  1  0
 33 34  1  0
 35 33  2  0
M  END
$$$$
