RWK.pdb
     RDKit          3D

 35 36  0  0  1  0  0  0  0  0999 V2000
   27.0940  -21.3566  -19.4715 N   0  0  0  0  0  0  0  0  0  0  0  0
   28.3871  -20.8748  -19.8128 C   0  0  0  0  0  0  0  0  0  0  0  0
   28.7118  -20.5894  -21.0225 N   0  0  0  0  0  0  0  0  0  0  0  0
   29.3740  -20.6954  -18.7902 N   0  0  0  0  0  0  0  0  0  0  0  0
   29.3127  -21.2429  -17.4734 C   0  0  0  0  0  0  0  0  0  0  0  0
   27.9852  -21.8574  -17.2065 C   0  0  0  0  0  0  0  0  0  0  0  0
   27.3013  -21.5364  -15.9432 C   0  0  0  0  0  0  0  0  0  0  0  0
   28.1062  -21.2960  -14.7249 C   0  0  2  0  0  0  0  0  0  0  0  0
   29.3468  -21.9489  -14.5935 N   0  0  0  0  0  0  0  0  0  0  0  0
   27.2838  -21.4641  -13.4810 C   0  0  0  0  0  0  0  0  0  0  0  0
   26.0400  -21.7185  -13.5926 O   0  0  0  0  0  0  0  0  0  0  0  0
   29.6691  -20.2861  -21.2468 N   0  0  0  0  0  0  0  0  0  0  0  0
   27.8788  -21.3413  -12.2024 C   0  0  2  0  0  0  0  0  0  0  0  0
   27.1499  -21.3538  -10.9897 C   0  0  0  0  0  0  0  0  0  0  0  0
   27.9688  -21.3053   -9.7460 C   0  0  0  0  0  0  0  0  0  0  0  0
   27.2269  -20.8246   -8.5671 C   0  0  0  0  0  0  0  0  0  0  0  0
   25.8473  -20.8206   -8.4454 N   0  0  0  0  0  0  0  0  0  0  0  0
   25.5164  -20.3368   -7.2257 C   0  0  0  0  0  0  0  0  0  0  0  0
   26.6272  -20.0238   -6.5451 C   0  0  0  0  0  0  0  0  0  0  0  0
   26.7883  -19.5053   -5.2902 C   0  0  0  0  0  0  0  0  0  0  0  0
   28.0811  -19.2781   -4.8497 C   0  0  0  0  0  0  0  0  0  0  0  0
   29.1705  -19.5562   -5.6286 C   0  0  0  0  0  0  0  0  0  0  0  0
   28.9527  -20.0836   -6.8993 C   0  0  0  0  0  0  0  0  0  0  0  0
   27.6977  -20.3278   -7.3828 C   0  0  0  0  0  0  0  0  0  0  0  0
   25.9922  -20.4066  -11.0024 O   0  0  0  0  0  0  0  0  0  0  0  0
   26.1557  -19.1666  -11.1176 N   0  0  0  0  0  0  0  0  0  0  0  0
   24.6664  -20.8571  -10.8870 C   0  0  1  0  0  0  0  0  0  0  0  0
   23.5119  -19.9858  -11.3889 C   0  0  0  0  0  0  0  0  0  0  0  0
   23.6780  -19.8653  -12.8442 C   0  0  0  0  0  0  0  0  0  0  0  0
   22.7501  -19.2291  -13.7514 C   0  0  0  0  0  0  0  0  0  0  0  0
   22.8963  -19.0149  -15.1789 C   0  0  0  0  0  0  0  0  0  0  0  0
   21.7334  -18.3607  -15.8974 N   0  0  0  0  0  0  0  0  0  0  0  0
   22.0593  -18.0468  -17.2702 C   0  0  0  0  0  0  0  0  0  0  0  0
   22.3127  -20.8110  -10.9938 O   0  0  0  0  0  0  0  0  0  0  0  0
   21.2070  -20.1196  -10.4560 O   0  0  0  0  0  0  0  0  0  0  0  0
  2  1  1  0
  3  2  2  0
  4  2  1  0
  5  4  1  0
  6  5  1  0
  7  6  1  0
  8 10  1  0
  8  7  1  0
  8  9  1  1
 10 12  1  0
 11 10  2  0
 12 13  1  0
 13 24  1  0
 14 15  1  0
 13 14  1  1
 15 23  1  0
 16 15  2  0
 16 17  1  0
 17 18  1  0
 18 19  1  0
 19 20  2  0
 21 20  1  0
 22 21  2  0
 23 18  2  0
 23 22  1  0
 24 26  1  0
 24 25  2  0
 26 27  1  0
 27 28  1  1
 27 33  1  0
 29 30  1  0
 29 28  1  0
 31 32  1  0
 31 30  1  0
 33 34  1  0
 35 33  2  0
M  END
$$$$
