MKH.pdb
     RDKit          3D

 28 28  0  0  1  0  0  0  0  0999 V2000
   30.8688  -34.9382  -15.4217 C   0  0  0  0  0  0  0  0  0  0  0  0
   29.4131  -34.2115  -16.1957 S   0  0  0  0  0  0  0  0  0  0  0  0
   29.5068  -34.6030  -17.9860 C   0  0  0  0  0  0  0  0  0  0  0  0
   30.6410  -33.7866  -18.5403 C   0  0  0  0  0  0  0  0  0  0  0  0
   30.3088  -32.3179  -18.6734 C   0  0  2  0  0  0  0  0  0  0  0  0
   29.1834  -32.0720  -19.5181 N   0  0  0  0  0  0  0  0  0  0  0  0
   31.5298  -31.6046  -19.1071 C   0  0  0  0  0  0  0  0  0  0  0  0
   31.7871  -31.5480  -20.3290 O   0  0  0  0  0  0  0  0  0  0  0  0
   32.4405  -30.9688  -18.1681 N   0  0  0  0  0  0  0  0  0  0  0  0
   33.6182  -30.3134  -18.5985 C   0  0  1  0  0  0  0  0  0  0  0  0
   34.0057  -29.0059  -18.0789 C   0  0  0  0  0  0  0  0  0  0  0  0
   33.0267  -28.1651  -17.3903 C   0  0  0  0  0  0  0  0  0  0  0  0
   32.8588  -26.7909  -17.8996 C   0  0  0  0  0  0  0  0  0  0  0  0
   32.4966  -25.8431  -16.7688 C   0  0  0  0  0  0  0  0  0  0  0  0
   32.4469  -24.4729  -17.2203 N   0  0  0  0  0  0  0  0  0  0  0  0
   34.7720  -31.2601  -18.3892 C   0  0  0  0  0  0  0  0  0  0  0  0
   34.7692  -32.0463  -17.3967 O   0  0  0  0  0  0  0  0  0  0  0  0
   35.8852  -31.3361  -19.2423 N   0  0  0  0  0  0  0  0  0  0  0  0
   36.3735  -32.6278  -19.7269 C   0  0  1  0  0  0  0  0  0  0  0  0
   35.2699  -33.3715  -20.4253 C   0  0  0  0  0  0  0  0  0  0  0  0
   35.7412  -34.6601  -20.9666 C   0  0  0  0  0  0  0  0  0  0  0  0
   37.0061  -35.1779  -20.8056 C   0  0  0  0  0  0  0  0  0  0  0  0
   37.0740  -36.3551  -21.4296 N   0  0  0  0  0  0  0  0  0  0  0  0
   35.8747  -36.5733  -21.9726 C   0  0  0  0  0  0  0  0  0  0  0  0
   35.0482  -35.5308  -21.6902 N   0  0  0  0  0  0  0  0  0  0  0  0
   37.5442  -32.4324  -20.6256 C   0  0  0  0  0  0  0  0  0  0  0  0
   38.5299  -33.2346  -20.5801 O   0  0  0  0  0  0  0  0  0  0  0  0
   37.6159  -31.3985  -21.5286 O   0  0  0  0  0  0  0  0  0  0  0  0
  1  2  1  0
  3  4  1  0
  3  2  1  0
  5  4  1  0
  5  6  1  6
  7  5  1  0
  8  7  2  0
  9  7  1  0
 10  9  1  0
 11 12  1  0
 10 11  1  1
 13 12  1  0
 14 13  1  0
 15 14  1  0
 16 10  1  0
 16 18  1  0
 17 16  2  0
 19 18  1  0
 19 20  1  6
 21 20  1  0
 21 25  1  0
 22 23  1  0
 22 21  2  0
 23 24  1  0
 24 25  2  0
 26 19  1  0
 27 26  2  0
 28 26  1  0
M  END
$$$$
