MKH.pdb
     RDKit          3D

 28 28  0  0  1  0  0  0  0  0999 V2000
   24.8799  -21.5966   -8.3300 C   0  0  0  0  0  0  0  0  0  0  0  0
   24.8811  -21.7852  -10.1218 S   0  0  0  0  0  0  0  0  0  0  0  0
   26.2933  -20.8042  -10.7626 C   0  0  0  0  0  0  0  0  0  0  0  0
   26.2183  -20.8817  -12.2621 C   0  0  0  0  0  0  0  0  0  0  0  0
   24.9871  -20.2153  -12.8326 C   0  0  2  0  0  0  0  0  0  0  0  0
   23.7746  -20.8854  -12.4840 N   0  0  0  0  0  0  0  0  0  0  0  0
   25.1736  -20.0704  -14.2927 C   0  0  0  0  0  0  0  0  0  0  0  0
   26.2182  -19.5261  -14.7110 O   0  0  0  0  0  0  0  0  0  0  0  0
   24.1898  -20.5354  -15.2578 N   0  0  0  0  0  0  0  0  0  0  0  0
   24.3653  -20.3516  -16.6496 C   0  0  1  0  0  0  0  0  0  0  0  0
   23.9870  -21.3777  -17.6158 C   0  0  0  0  0  0  0  0  0  0  0  0
   24.8842  -22.4998  -17.8908 C   0  0  0  0  0  0  0  0  0  0  0  0
   25.1619  -23.4164  -16.7689 C   0  0  0  0  0  0  0  0  0  0  0  0
   26.0595  -24.5561  -17.2204 C   0  0  0  0  0  0  0  0  0  0  0  0
   26.8701  -25.0549  -16.1351 N   0  0  0  0  0  0  0  0  0  0  0  0
   23.6717  -19.0699  -17.0335 C   0  0  0  0  0  0  0  0  0  0  0  0
   22.5630  -18.7700  -16.5006 O   0  0  0  0  0  0  0  0  0  0  0  0
   24.1822  -18.1549  -17.9688 N   0  0  0  0  0  0  0  0  0  0  0  0
   23.4770  -16.9060  -18.2600 C   0  0  1  0  0  0  0  0  0  0  0  0
   24.4541  -15.8426  -18.6764 C   0  0  0  0  0  0  0  0  0  0  0  0
   25.2474  -15.3557  -17.5323 C   0  0  0  0  0  0  0  0  0  0  0  0
   24.9577  -15.5841  -16.2063 C   0  0  0  0  0  0  0  0  0  0  0  0
   25.8875  -14.9944  -15.4529 N   0  0  0  0  0  0  0  0  0  0  0  0
   26.7454  -14.4066  -16.2892 C   0  0  0  0  0  0  0  0  0  0  0  0
   26.3555  -14.6261  -17.5735 N   0  0  0  0  0  0  0  0  0  0  0  0
   22.4443  -17.1292  -19.3089 C   0  0  0  0  0  0  0  0  0  0  0  0
   22.5849  -18.0632  -20.1604 O   0  0  0  0  0  0  0  0  0  0  0  0
   21.3132  -16.3541  -19.4064 O   0  0  0  0  0  0  0  0  0  0  0  0
  1  2  1  0
  3  4  1  0
  3  2  1  0
  5  4  1  0
  5  6  1  6
  7  5  1  0
  8  7  2  0
  9  7  1  0
 10  9  1  0
 11 12  1  0
 10 11  1  6
 13 12  1  0
 14 13  1  0
 15 14  1  0
 16 10  1  0
 16 18  1  0
 17 16  2  0
 19 18  1  0
 19 20  1  6
 21 20  1  0
 21 25  1  0
 22 23  1  0
 22 21  2  0
 23 24  1  0
 24 25  2  0
 26 19  1  0
 27 26  2  0
 28 26  1  0
M  END
$$$$
