MKH.pdb
     RDKit          3D

 28 28  0  0  1  0  0  0  0  0999 V2000
   29.6864  -20.3309   -7.4047 C   0  0  0  0  0  0  0  0  0  0  0  0
   28.2430  -20.5859   -6.3569 S   0  0  0  0  0  0  0  0  0  0  0  0
   26.8053  -19.8660   -7.2413 C   0  0  0  0  0  0  0  0  0  0  0  0
   26.5935  -20.7116   -8.4662 C   0  0  0  0  0  0  0  0  0  0  0  0
   25.4233  -20.2576   -9.3087 C   0  0  2  0  0  0  0  0  0  0  0  0
   24.1599  -20.6561   -8.7744 N   0  0  0  0  0  0  0  0  0  0  0  0
   25.6428  -20.7238  -10.6952 C   0  0  0  0  0  0  0  0  0  0  0  0
   24.7931  -21.4800  -11.2134 O   0  0  0  0  0  0  0  0  0  0  0  0
   26.8073  -20.3373  -11.4762 N   0  0  0  0  0  0  0  0  0  0  0  0
   26.7343  -20.1358  -12.8747 C   0  0  1  0  0  0  0  0  0  0  0  0
   27.9249  -19.8824  -13.6795 C   0  0  0  0  0  0  0  0  0  0  0  0
   27.8080  -19.6542  -15.1196 C   0  0  0  0  0  0  0  0  0  0  0  0
   28.2471  -18.3377  -15.6196 C   0  0  0  0  0  0  0  0  0  0  0  0
   28.1036  -18.2655  -17.1304 C   0  0  0  0  0  0  0  0  0  0  0  0
   28.4845  -16.9691  -17.6382 N   0  0  0  0  0  0  0  0  0  0  0  0
   26.0100  -21.3156  -13.4703 C   0  0  0  0  0  0  0  0  0  0  0  0
   26.0440  -22.4371  -12.8834 O   0  0  0  0  0  0  0  0  0  0  0  0
   25.2768  -21.2596  -14.6669 N   0  0  0  0  0  0  0  0  0  0  0  0
   23.9063  -21.7687  -14.7327 C   0  0  1  0  0  0  0  0  0  0  0  0
   23.0500  -21.0904  -13.7005 C   0  0  0  0  0  0  0  0  0  0  0  0
   21.6438  -21.5264  -13.7896 C   0  0  0  0  0  0  0  0  0  0  0  0
   21.1499  -22.4483  -14.6842 C   0  0  0  0  0  0  0  0  0  0  0  0
   19.8401  -22.5934  -14.4766 N   0  0  0  0  0  0  0  0  0  0  0  0
   19.5166  -21.7783  -13.4707 C   0  0  0  0  0  0  0  0  0  0  0  0
   20.6255  -21.1174  -13.0429 N   0  0  0  0  0  0  0  0  0  0  0  0
   23.3512  -21.5805  -16.1013 C   0  0  0  0  0  0  0  0  0  0  0  0
   23.3803  -20.4357  -16.6544 O   0  0  0  0  0  0  0  0  0  0  0  0
   22.7925  -22.6116  -16.8184 O   0  0  0  0  0  0  0  0  0  0  0  0
  1  2  1  0
  3  4  1  0
  3  2  1  0
  5  4  1  0
  5  6  1  1
  7  5  1  0
  8  7  2  0
  9  7  1  0
 10  9  1  0
 11 12  1  0
 10 11  1  6
 13 12  1  0
 14 13  1  0
 15 14  1  0
 16 10  1  0
 16 18  1  0
 17 16  2  0
 19 18  1  0
 19 20  1  1
 21 20  1  0
 21 25  1  0
 22 23  1  0
 22 21  2  0
 23 24  1  0
 24 25  2  0
 26 19  1  0
 27 26  2  0
 28 26  1  0
M  END
$$$$
