MKH.pdb
     RDKit          3D

 28 28  0  0  1  0  0  0  0  0999 V2000
   24.2021  -18.0166  -15.8358 C   0  0  0  0  0  0  0  0  0  0  0  0
   22.8756  -16.8677  -15.4276 S   0  0  0  0  0  0  0  0  0  0  0  0
   22.2017  -16.2417  -17.0155 C   0  0  0  0  0  0  0  0  0  0  0  0
   20.9731  -15.4467  -16.6712 C   0  0  0  0  0  0  0  0  0  0  0  0
   20.2895  -14.8523  -17.8814 C   0  0  2  0  0  0  0  0  0  0  0  0
   20.5047  -15.6079  -19.0744 N   0  0  0  0  0  0  0  0  0  0  0  0
   20.7096  -13.4393  -18.0029 C   0  0  0  0  0  0  0  0  0  0  0  0
   21.7766  -13.1820  -18.6010 O   0  0  0  0  0  0  0  0  0  0  0  0
   19.9306  -12.3407  -17.4535 N   0  0  0  0  0  0  0  0  0  0  0  0
   20.2291  -10.9909  -17.7544 C   0  0  1  0  0  0  0  0  0  0  0  0
   19.2514  -10.1071  -18.3809 C   0  0  0  0  0  0  0  0  0  0  0  0
   18.5139  -10.5438  -19.5662 C   0  0  0  0  0  0  0  0  0  0  0  0
   17.5464   -9.5863  -20.1348 C   0  0  0  0  0  0  0  0  0  0  0  0
   16.8358  -10.1932  -21.3326 C   0  0  0  0  0  0  0  0  0  0  0  0
   15.7375   -9.3663  -21.7729 N   0  0  0  0  0  0  0  0  0  0  0  0
   20.7075  -10.3336  -16.4854 C   0  0  0  0  0  0  0  0  0  0  0  0
   20.1303  -10.5891  -15.3877 O   0  0  0  0  0  0  0  0  0  0  0  0
   21.7812   -9.4298  -16.4301 N   0  0  0  0  0  0  0  0  0  0  0  0
   22.1616   -8.7913  -15.1694 C   0  0  1  0  0  0  0  0  0  0  0  0
   23.6408   -8.5264  -15.1469 C   0  0  0  0  0  0  0  0  0  0  0  0
   24.4176   -9.7800  -15.1688 C   0  0  0  0  0  0  0  0  0  0  0  0
   23.8847  -11.0473  -15.2335 C   0  0  0  0  0  0  0  0  0  0  0  0
   24.8802  -11.9354  -15.2330 N   0  0  0  0  0  0  0  0  0  0  0  0
   26.0173  -11.2398  -15.1692 C   0  0  0  0  0  0  0  0  0  0  0  0
   25.7381   -9.9094  -15.1293 N   0  0  0  0  0  0  0  0  0  0  0  0
   21.3864   -7.5356  -14.9727 C   0  0  0  0  0  0  0  0  0  0  0  0
   20.8259   -6.9650  -15.9614 O   0  0  0  0  0  0  0  0  0  0  0  0
   21.2413   -6.9443  -13.7402 O   0  0  0  0  0  0  0  0  0  0  0  0
  1  2  1  0
  3  4  1  0
  3  2  1  0
  5  4  1  0
  5  6  1  6
  7  5  1  0
  8  7  2  0
  9  7  1  0
 10  9  1  0
 11 12  1  0
 10 11  1  1
 13 12  1  0
 14 13  1  0
 15 14  1  0
 16 10  1  0
 16 18  1  0
 17 16  2  0
 19 18  1  0
 19 20  1  6
 21 20  1  0
 21 25  1  0
 22 23  1  0
 22 21  2  0
 23 24  1  0
 24 25  2  0
 26 19  1  0
 27 26  2  0
 28 26  1  0
M  END
$$$$
