MKH.pdb
     RDKit          3D

 28 28  0  0  1  0  0  0  0  0999 V2000
   28.7449  -13.6428  -14.8582 C   0  0  0  0  0  0  0  0  0  0  0  0
   27.9411  -12.3768  -15.8568 S   0  0  0  0  0  0  0  0  0  0  0  0
   27.1715  -13.2313  -17.2868 C   0  0  0  0  0  0  0  0  0  0  0  0
   25.9089  -12.4785  -17.6019 C   0  0  0  0  0  0  0  0  0  0  0  0
   25.0557  -12.2092  -16.3833 C   0  0  2  0  0  0  0  0  0  0  0  0
   24.7671  -13.3877  -15.6295 N   0  0  0  0  0  0  0  0  0  0  0  0
   23.8422  -11.4843  -16.8189 C   0  0  0  0  0  0  0  0  0  0  0  0
   23.9791  -10.4222  -17.4636 O   0  0  0  0  0  0  0  0  0  0  0  0
   22.4990  -11.9589  -16.5255 N   0  0  0  0  0  0  0  0  0  0  0  0
   21.3490  -11.2493  -16.9445 C   0  0  1  0  0  0  0  0  0  0  0  0
   20.0163  -11.8414  -16.8901 C   0  0  0  0  0  0  0  0  0  0  0  0
   18.8502  -11.0777  -17.3333 C   0  0  0  0  0  0  0  0  0  0  0  0
   17.5382  -11.7406  -17.2104 C   0  0  0  0  0  0  0  0  0  0  0  0
   16.4357  -10.8475  -17.7538 C   0  0  0  0  0  0  0  0  0  0  0  0
   15.1706  -11.5404  -17.8094 N   0  0  0  0  0  0  0  0  0  0  0  0
   21.3129   -9.9470  -16.1869 C   0  0  0  0  0  0  0  0  0  0  0  0
   21.6362   -9.9215  -14.9629 O   0  0  0  0  0  0  0  0  0  0  0  0
   20.9351   -8.7208  -16.7581 N   0  0  0  0  0  0  0  0  0  0  0  0
   20.9021   -7.4969  -15.9563 C   0  0  1  0  0  0  0  0  0  0  0  0
   22.2598   -6.8527  -15.9355 C   0  0  0  0  0  0  0  0  0  0  0  0
   22.2169   -5.5150  -15.3158 C   0  0  0  0  0  0  0  0  0  0  0  0
   22.1946   -4.3202  -15.9986 C   0  0  0  0  0  0  0  0  0  0  0  0
   22.1588   -3.3193  -15.1173 N   0  0  0  0  0  0  0  0  0  0  0  0
   22.1585   -3.8741  -13.9036 C   0  0  0  0  0  0  0  0  0  0  0  0
   22.1943   -5.2286  -14.0199 N   0  0  0  0  0  0  0  0  0  0  0  0
   19.8704   -6.5623  -16.4838 C   0  0  0  0  0  0  0  0  0  0  0  0
   19.5230   -6.6124  -17.7062 O   0  0  0  0  0  0  0  0  0  0  0  0
   19.2560   -5.6201  -15.6935 O   0  0  0  0  0  0  0  0  0  0  0  0
  1  2  1  0
  3  4  1  0
  3  2  1  0
  5  4  1  0
  5  6  1  6
  7  5  1  0
  8  7  2  0
  9  7  1  0
 10  9  1  0
 11 12  1  0
 10 11  1  1
 13 12  1  0
 14 13  1  0
 15 14  1  0
 16 10  1  0
 16 18  1  0
 17 16  2  0
 19 18  1  0
 19 20  1  6
 21 20  1  0
 21 25  1  0
 22 23  1  0
 22 21  2  0
 23 24  1  0
 24 25  2  0
 26 19  1  0
 27 26  2  0
 28 26  1  0
M  END
$$$$
