MKH.pdb
     RDKit          3D

 28 28  0  0  1  0  0  0  0  0999 V2000
   16.4008  -24.8145    5.8255 C   0  0  0  0  0  0  0  0  0  0  0  0
   16.9917  -25.3003    4.1942 S   0  0  0  0  0  0  0  0  0  0  0  0
   16.3137  -24.0871    2.9959 C   0  0  0  0  0  0  0  0  0  0  0  0
   16.6336  -22.7244    3.5445 C   0  0  0  0  0  0  0  0  0  0  0  0
   16.0706  -21.5980    2.7081 C   0  0  2  0  0  0  0  0  0  0  0  0
   16.1736  -21.8372    1.3036 N   0  0  0  0  0  0  0  0  0  0  0  0
   16.7175  -20.3377    3.1335 C   0  0  0  0  0  0  0  0  0  0  0  0
   17.6929  -19.9147    2.4762 O   0  0  0  0  0  0  0  0  0  0  0  0
   16.2632  -19.5742    4.2851 N   0  0  0  0  0  0  0  0  0  0  0  0
   16.7709  -18.2855    4.5732 C   0  0  1  0  0  0  0  0  0  0  0  0
   15.8903  -17.1474    4.8161 C   0  0  0  0  0  0  0  0  0  0  0  0
   16.4500  -15.8126    5.0276 C   0  0  0  0  0  0  0  0  0  0  0  0
   15.4917  -14.7326    5.3296 C   0  0  0  0  0  0  0  0  0  0  0  0
   16.2139  -13.4041    5.4777 C   0  0  0  0  0  0  0  0  0  0  0  0
   15.2893  -12.3211    5.7144 N   0  0  0  0  0  0  0  0  0  0  0  0
   17.7046  -18.4132    5.7493 C   0  0  0  0  0  0  0  0  0  0  0  0
   17.4804  -19.2855    6.6393 O   0  0  0  0  0  0  0  0  0  0  0  0
   18.8414  -17.6097    5.9355 N   0  0  0  0  0  0  0  0  0  0  0  0
   19.6571  -17.7307    7.1446 C   0  0  1  0  0  0  0  0  0  0  0  0
   21.1133  -17.8158    6.7826 C   0  0  0  0  0  0  0  0  0  0  0  0
   21.9694  -17.8635    7.9826 C   0  0  0  0  0  0  0  0  0  0  0  0
   21.7772  -18.6889    9.0670 C   0  0  0  0  0  0  0  0  0  0  0  0
   22.7402  -18.4591    9.9613 N   0  0  0  0  0  0  0  0  0  0  0  0
   23.5229  -17.5075    9.4490 C   0  0  0  0  0  0  0  0  0  0  0  0
   23.0522  -17.1361    8.2283 N   0  0  0  0  0  0  0  0  0  0  0  0
   19.3955  -16.5861    8.0599 C   0  0  0  0  0  0  0  0  0  0  0  0
   18.9467  -15.4875    7.6027 O   0  0  0  0  0  0  0  0  0  0  0  0
   19.6211  -16.6585    9.4139 O   0  0  0  0  0  0  0  0  0  0  0  0
  1  2  1  0
  3  4  1  0
  3  2  1  0
  5  4  1  0
  5  6  1  6
  7  5  1  0
  8  7  2  0
  9  7  1  0
 10  9  1  0
 11 12  1  0
 10 11  1  1
 13 12  1  0
 14 13  1  0
 15 14  1  0
 16 10  1  0
 16 18  1  0
 17 16  2  0
 19 18  1  0
 19 20  1  6
 21 20  1  0
 21 25  1  0
 22 23  1  0
 22 21  2  0
 23 24  1  0
 24 25  2  0
 26 19  1  0
 27 26  2  0
 28 26  1  0
M  END
$$$$
