MKH.pdb
     RDKit          3D

 28 28  0  0  1  0  0  0  0  0999 V2000
   22.4087  -26.3535  -16.9895 C   0  0  0  0  0  0  0  0  0  0  0  0
   21.8578  -26.8960  -18.6169 S   0  0  0  0  0  0  0  0  0  0  0  0
   23.3611  -27.3436  -19.5695 C   0  0  0  0  0  0  0  0  0  0  0  0
   23.7259  -28.7417  -19.1546 C   0  0  0  0  0  0  0  0  0  0  0  0
   25.1353  -28.8562  -18.6201 C   0  0  2  0  0  0  0  0  0  0  0  0
   26.1325  -28.5823  -19.6055 N   0  0  0  0  0  0  0  0  0  0  0  0
   25.2859  -30.1873  -17.9930 C   0  0  0  0  0  0  0  0  0  0  0  0
   24.9229  -31.1958  -18.6362 O   0  0  0  0  0  0  0  0  0  0  0  0
   25.8382  -30.3668  -16.6595 N   0  0  0  0  0  0  0  0  0  0  0  0
   26.0490  -31.6517  -16.1061 C   0  0  1  0  0  0  0  0  0  0  0  0
   27.1806  -31.9366  -15.2298 C   0  0  0  0  0  0  0  0  0  0  0  0
   28.4582  -32.3741  -15.7920 C   0  0  0  0  0  0  0  0  0  0  0  0
   29.4082  -31.3149  -16.1811 C   0  0  0  0  0  0  0  0  0  0  0  0
   30.6128  -31.9120  -16.8889 C   0  0  0  0  0  0  0  0  0  0  0  0
   31.5790  -30.8981  -17.2387 N   0  0  0  0  0  0  0  0  0  0  0  0
   24.7875  -32.0529  -15.3857 C   0  0  0  0  0  0  0  0  0  0  0  0
   24.1771  -31.2079  -14.6670 O   0  0  0  0  0  0  0  0  0  0  0  0
   24.2220  -33.3366  -15.4561 N   0  0  0  0  0  0  0  0  0  0  0  0
   22.9944  -33.6578  -14.7268 C   0  0  1  0  0  0  0  0  0  0  0  0
   22.1518  -34.6137  -15.5236 C   0  0  0  0  0  0  0  0  0  0  0  0
   21.5488  -33.9568  -16.6986 C   0  0  0  0  0  0  0  0  0  0  0  0
   20.9920  -32.6983  -16.7103 C   0  0  0  0  0  0  0  0  0  0  0  0
   20.5456  -32.4345  -17.9395 N   0  0  0  0  0  0  0  0  0  0  0  0
   20.8167  -33.5066  -18.6864 C   0  0  0  0  0  0  0  0  0  0  0  0
   21.4356  -34.4491  -17.9261 N   0  0  0  0  0  0  0  0  0  0  0  0
   23.3220  -34.2168  -13.3865 C   0  0  0  0  0  0  0  0  0  0  0  0
   22.3935  -34.5144  -12.5701 O   0  0  0  0  0  0  0  0  0  0  0  0
   24.6153  -34.4341  -12.9745 O   0  0  0  0  0  0  0  0  0  0  0  0
  1  2  1  0
  3  4  1  0
  3  2  1  0
  5  4  1  0
  5  6  1  6
  7  5  1  0
  8  7  2  0
  9  7  1  0
 10  9  1  0
 11 12  1  0
 10 11  1  1
 13 12  1  0
 14 13  1  0
 15 14  1  0
 16 10  1  0
 16 18  1  0
 17 16  2  0
 19 18  1  0
 19 20  1  6
 21 20  1  0
 21 25  1  0
 22 23  1  0
 22 21  2  0
 23 24  1  0
 24 25  2  0
 26 19  1  0
 27 26  2  0
 28 26  1  0
M  END
$$$$
