MKH.pdb
     RDKit          3D

 28 28  0  0  1  0  0  0  0  0999 V2000
   24.1110  -23.1699  -20.1090 C   0  0  0  0  0  0  0  0  0  0  0  0
   25.4246  -22.8717  -21.3057 S   0  0  0  0  0  0  0  0  0  0  0  0
   26.8876  -22.2922  -20.3616 C   0  0  0  0  0  0  0  0  0  0  0  0
   26.5305  -22.4169  -18.9066 C   0  0  0  0  0  0  0  0  0  0  0  0
   26.3831  -21.0821  -18.2125 C   0  0  2  0  0  0  0  0  0  0  0  0
   27.6029  -20.3408  -18.1583 N   0  0  0  0  0  0  0  0  0  0  0  0
   25.7841  -21.3166  -16.8806 C   0  0  0  0  0  0  0  0  0  0  0  0
   24.8315  -22.1204  -16.7865 O   0  0  0  0  0  0  0  0  0  0  0  0
   26.2597  -20.6484  -15.6794 N   0  0  0  0  0  0  0  0  0  0  0  0
   25.6085  -20.8020  -14.4328 C   0  0  1  0  0  0  0  0  0  0  0  0
   26.1492  -20.2268  -13.2054 C   0  0  0  0  0  0  0  0  0  0  0  0
   25.3732  -20.2681  -11.9662 C   0  0  0  0  0  0  0  0  0  0  0  0
   25.9314  -21.0704  -10.8614 C   0  0  0  0  0  0  0  0  0  0  0  0
   25.0362  -20.9880   -9.6365 C   0  0  0  0  0  0  0  0  0  0  0  0
   25.5597  -21.7717   -8.5431 N   0  0  0  0  0  0  0  0  0  0  0  0
   24.1916  -20.3141  -14.5929 C   0  0  0  0  0  0  0  0  0  0  0  0
   23.9740  -19.1274  -14.9772 O   0  0  0  0  0  0  0  0  0  0  0  0
   23.0592  -21.1052  -14.3389 N   0  0  0  0  0  0  0  0  0  0  0  0
   21.7109  -20.5518  -14.4717 C   0  0  1  0  0  0  0  0  0  0  0  0
   20.7657  -21.6032  -14.9814 C   0  0  0  0  0  0  0  0  0  0  0  0
   20.6726  -21.5825  -16.4533 C   0  0  0  0  0  0  0  0  0  0  0  0
   21.0393  -20.5300  -17.2607 C   0  0  0  0  0  0  0  0  0  0  0  0
   20.8163  -20.8631  -18.5331 N   0  0  0  0  0  0  0  0  0  0  0  0
   20.3188  -22.1014  -18.5259 C   0  0  0  0  0  0  0  0  0  0  0  0
   20.2280  -22.5503  -17.2454 N   0  0  0  0  0  0  0  0  0  0  0  0
   21.2497  -19.9989  -13.1687 C   0  0  0  0  0  0  0  0  0  0  0  0
   21.5826  -20.5617  -12.0780 O   0  0  0  0  0  0  0  0  0  0  0  0
   20.4591  -18.8777  -13.0821 O   0  0  0  0  0  0  0  0  0  0  0  0
  1  2  1  0
  3  4  1  0
  3  2  1  0
  5  4  1  0
  5  6  1  1
  7  5  1  0
  8  7  2  0
  9  7  1  0
 10  9  1  0
 11 12  1  0
 10 11  1  1
 13 12  1  0
 14 13  1  0
 15 14  1  0
 16 10  1  0
 16 18  1  0
 17 16  2  0
 19 18  1  0
 19 20  1  1
 21 20  1  0
 21 25  1  0
 22 23  1  0
 22 21  2  0
 23 24  1  0
 24 25  2  0
 26 19  1  0
 27 26  2  0
 28 26  1  0
M  END
$$$$
