MKH.pdb
     RDKit          3D

 28 28  0  0  1  0  0  0  0  0999 V2000
   18.3820  -28.2894   -0.7264 C   0  0  0  0  0  0  0  0  0  0  0  0
   17.3507  -28.4902   -2.1902 S   0  0  0  0  0  0  0  0  0  0  0  0
   18.4040  -28.1090   -3.6437 C   0  0  0  0  0  0  0  0  0  0  0  0
   18.3148  -26.6231   -3.8545 C   0  0  0  0  0  0  0  0  0  0  0  0
   17.2989  -26.2298   -4.9026 C   0  0  2  0  0  0  0  0  0  0  0  0
   17.8602  -26.1111   -6.2108 N   0  0  0  0  0  0  0  0  0  0  0  0
   16.6170  -24.9988   -4.4473 C   0  0  0  0  0  0  0  0  0  0  0  0
   17.3068  -23.9803   -4.2253 O   0  0  0  0  0  0  0  0  0  0  0  0
   15.1779  -24.9288   -4.2478 N   0  0  0  0  0  0  0  0  0  0  0  0
   14.5308  -23.7194   -3.9010 C   0  0  1  0  0  0  0  0  0  0  0  0
   13.2145  -23.3721   -4.4267 C   0  0  0  0  0  0  0  0  0  0  0  0
   12.6264  -22.0639   -4.1398 C   0  0  0  0  0  0  0  0  0  0  0  0
   11.3114  -21.7814   -4.7455 C   0  0  0  0  0  0  0  0  0  0  0  0
   10.8823  -20.3545   -4.4485 C   0  0  0  0  0  0  0  0  0  0  0  0
    9.6134  -20.0434   -5.0623 N   0  0  0  0  0  0  0  0  0  0  0  0
   14.4668  -23.6490   -2.3970 C   0  0  0  0  0  0  0  0  0  0  0  0
   14.3335  -24.7119   -1.7220 O   0  0  0  0  0  0  0  0  0  0  0  0
   14.5471  -22.4520   -1.6666 N   0  0  0  0  0  0  0  0  0  0  0  0
   14.6417  -22.4679   -0.2062 C   0  0  1  0  0  0  0  0  0  0  0  0
   15.5555  -21.3726    0.2671 C   0  0  0  0  0  0  0  0  0  0  0  0
   15.6187  -21.3163    1.7396 C   0  0  0  0  0  0  0  0  0  0  0  0
   14.9694  -22.1730    2.5990 C   0  0  0  0  0  0  0  0  0  0  0  0
   15.2538  -21.8235    3.8547 N   0  0  0  0  0  0  0  0  0  0  0  0
   16.0664  -20.7672    3.7862 C   0  0  0  0  0  0  0  0  0  0  0  0
   16.2950  -20.4497    2.4837 N   0  0  0  0  0  0  0  0  0  0  0  0
   13.2880  -22.3396    0.3998 C   0  0  0  0  0  0  0  0  0  0  0  0
   12.3565  -21.7443   -0.2288 O   0  0  0  0  0  0  0  0  0  0  0  0
   12.9848  -22.8470    1.6409 O   0  0  0  0  0  0  0  0  0  0  0  0
  1  2  1  0
  3  4  1  0
  3  2  1  0
  5  4  1  0
  5  6  1  6
  7  5  1  0
  8  7  2  0
  9  7  1  0
 10  9  1  0
 11 12  1  0
 10 11  1  6
 13 12  1  0
 14 13  1  0
 15 14  1  0
 16 10  1  0
 16 18  1  0
 17 16  2  0
 19 18  1  0
 19 20  1  1
 21 20  1  0
 21 25  1  0
 22 23  1  0
 22 21  2  0
 23 24  1  0
 24 25  2  0
 26 19  1  0
 27 26  2  0
 28 26  1  0
M  END
$$$$
