MKH.pdb
     RDKit          3D

 28 28  0  0  1  0  0  0  0  0999 V2000
   19.9899  -26.7370  -10.6678 C   0  0  0  0  0  0  0  0  0  0  0  0
   18.2393  -27.0821  -10.4173 S   0  0  0  0  0  0  0  0  0  0  0  0
   17.8375  -28.5666  -11.4184 C   0  0  0  0  0  0  0  0  0  0  0  0
   18.8230  -29.6287  -11.0171 C   0  0  0  0  0  0  0  0  0  0  0  0
   18.6584  -30.9172  -11.7904 C   0  0  2  0  0  0  0  0  0  0  0  0
   17.4672  -31.6277  -11.4489 N   0  0  0  0  0  0  0  0  0  0  0  0
   19.8871  -31.7219  -11.6159 C   0  0  0  0  0  0  0  0  0  0  0  0
   19.9166  -32.5789  -10.7065 O   0  0  0  0  0  0  0  0  0  0  0  0
   21.0598  -31.5537  -12.4598 N   0  0  0  0  0  0  0  0  0  0  0  0
   22.1963  -32.3867  -12.3324 C   0  0  1  0  0  0  0  0  0  0  0  0
   23.2508  -32.4102  -13.3408 C   0  0  0  0  0  0  0  0  0  0  0  0
   24.3954  -33.3088  -13.1917 C   0  0  0  0  0  0  0  0  0  0  0  0
   25.3347  -33.3793  -14.3268 C   0  0  0  0  0  0  0  0  0  0  0  0
   26.3973  -34.4358  -14.0756 C   0  0  0  0  0  0  0  0  0  0  0  0
   27.2642  -34.5986  -15.2182 N   0  0  0  0  0  0  0  0  0  0  0  0
   22.8322  -32.0931  -10.9980 C   0  0  0  0  0  0  0  0  0  0  0  0
   23.0280  -30.8932  -10.6442 O   0  0  0  0  0  0  0  0  0  0  0  0
   23.2360  -33.0852  -10.0895 N   0  0  0  0  0  0  0  0  0  0  0  0
   23.8935  -32.7292   -8.8315 C   0  0  1  0  0  0  0  0  0  0  0  0
   23.0420  -33.1444   -7.6647 C   0  0  0  0  0  0  0  0  0  0  0  0
   23.7872  -33.0682   -6.3941 C   0  0  0  0  0  0  0  0  0  0  0  0
   25.0440  -32.5294   -6.2377 C   0  0  0  0  0  0  0  0  0  0  0  0
   25.4024  -32.6329   -4.9569 N   0  0  0  0  0  0  0  0  0  0  0  0
   24.3904  -33.2254   -4.3200 C   0  0  0  0  0  0  0  0  0  0  0  0
   23.3910  -33.4963   -5.2017 N   0  0  0  0  0  0  0  0  0  0  0  0
   25.2441  -33.3515   -8.7612 C   0  0  0  0  0  0  0  0  0  0  0  0
   26.0531  -33.0279   -7.8349 O   0  0  0  0  0  0  0  0  0  0  0  0
   25.6737  -34.2857   -9.6735 O   0  0  0  0  0  0  0  0  0  0  0  0
  1  2  1  0
  3  4  1  0
  3  2  1  0
  5  4  1  0
  5  6  1  1
  7  5  1  0
  8  7  2  0
  9  7  1  0
 10  9  1  0
 11 12  1  0
 10 11  1  6
 13 12  1  0
 14 13  1  0
 15 14  1  0
 16 10  1  0
 16 18  1  0
 17 16  2  0
 19 18  1  0
 19 20  1  1
 21 20  1  0
 21 25  1  0
 22 23  1  0
 22 21  2  0
 23 24  1  0
 24 25  2  0
 26 19  1  0
 27 26  2  0
 28 26  1  0
M  END
$$$$
