MKH.pdb
     RDKit          3D

 28 28  0  0  1  0  0  0  0  0999 V2000
   17.6233  -17.3265  -13.3479 C   0  0  0  0  0  0  0  0  0  0  0  0
   19.0955  -16.8303  -12.4354 S   0  0  0  0  0  0  0  0  0  0  0  0
   20.5367  -17.1673  -13.5201 C   0  0  0  0  0  0  0  0  0  0  0  0
   20.0956  -16.8519  -14.9223 C   0  0  0  0  0  0  0  0  0  0  0  0
   21.1297  -17.2067  -15.9664 C   0  0  2  0  0  0  0  0  0  0  0  0
   21.9818  -18.2820  -15.5687 N   0  0  0  0  0  0  0  0  0  0  0  0
   21.8707  -15.9766  -16.3207 C   0  0  0  0  0  0  0  0  0  0  0  0
   22.8723  -15.6651  -15.6409 O   0  0  0  0  0  0  0  0  0  0  0  0
   21.4785  -15.1174  -17.4269 N   0  0  0  0  0  0  0  0  0  0  0  0
   22.2710  -14.0189  -17.8355 C   0  0  1  0  0  0  0  0  0  0  0  0
   22.5229  -13.7327  -19.2442 C   0  0  0  0  0  0  0  0  0  0  0  0
   23.8187  -14.0527  -19.8425 C   0  0  0  0  0  0  0  0  0  0  0  0
   24.3793  -15.3825  -19.5369 C   0  0  0  0  0  0  0  0  0  0  0  0
   25.7046  -15.5805  -20.2529 C   0  0  0  0  0  0  0  0  0  0  0  0
   26.2567  -16.8890  -19.9948 N   0  0  0  0  0  0  0  0  0  0  0  0
   21.6957  -12.7782  -17.2022 C   0  0  0  0  0  0  0  0  0  0  0  0
   20.4423  -12.6663  -17.0618 O   0  0  0  0  0  0  0  0  0  0  0  0
   22.4736  -11.7033  -16.7416 N   0  0  0  0  0  0  0  0  0  0  0  0
   21.8462  -10.5224  -16.1469 C   0  0  1  0  0  0  0  0  0  0  0  0
   22.8490   -9.7573  -15.3298 C   0  0  0  0  0  0  0  0  0  0  0  0
   22.2652   -8.5246  -14.7685 C   0  0  0  0  0  0  0  0  0  0  0  0
   21.5228   -8.4487  -13.6121 C   0  0  0  0  0  0  0  0  0  0  0  0
   21.1593   -7.1804  -13.4142 N   0  0  0  0  0  0  0  0  0  0  0  0
   21.6635   -6.4724  -14.4268 C   0  0  0  0  0  0  0  0  0  0  0  0
   22.3469   -7.2965  -15.2655 N   0  0  0  0  0  0  0  0  0  0  0  0
   21.2498   -9.6656  -17.2083 C   0  0  0  0  0  0  0  0  0  0  0  0
   21.8540   -9.4996  -18.3149 O   0  0  0  0  0  0  0  0  0  0  0  0
   20.0437   -9.0259  -17.0481 O   0  0  0  0  0  0  0  0  0  0  0  0
  1  2  1  0
  3  4  1  0
  3  2  1  0
  5  4  1  0
  5  6  1  1
  7  5  1  0
  8  7  2  0
  9  7  1  0
 10  9  1  0
 11 12  1  0
 10 11  1  6
 13 12  1  0
 14 13  1  0
 15 14  1  0
 16 10  1  0
 16 18  1  0
 17 16  2  0
 19 18  1  0
 19 20  1  6
 21 20  1  0
 21 25  1  0
 22 23  1  0
 22 21  2  0
 23 24  1  0
 24 25  2  0
 26 19  1  0
 27 26  2  0
 28 26  1  0
M  END
$$$$
