MKH.pdb
     RDKit          3D

 28 28  0  0  1  0  0  0  0  0999 V2000
   22.4069  -11.1306  -17.4171 C   0  0  0  0  0  0  0  0  0  0  0  0
   22.9020  -12.7387  -16.7726 S   0  0  0  0  0  0  0  0  0  0  0  0
   24.3131  -12.4486  -15.6359 C   0  0  0  0  0  0  0  0  0  0  0  0
   24.7540  -13.8022  -15.1525 C   0  0  0  0  0  0  0  0  0  0  0  0
   26.0940  -14.2264  -15.7089 C   0  0  2  0  0  0  0  0  0  0  0  0
   26.4043  -13.6060  -16.9576 N   0  0  0  0  0  0  0  0  0  0  0  0
   26.1233  -15.7040  -15.7693 C   0  0  0  0  0  0  0  0  0  0  0  0
   26.0433  -16.2586  -16.8866 O   0  0  0  0  0  0  0  0  0  0  0  0
   26.2405  -16.5341  -14.5807 N   0  0  0  0  0  0  0  0  0  0  0  0
   26.2772  -17.9463  -14.6577 C   0  0  1  0  0  0  0  0  0  0  0  0
   27.1545  -18.7416  -13.8048 C   0  0  0  0  0  0  0  0  0  0  0  0
   27.2375  -20.1916  -13.9786 C   0  0  0  0  0  0  0  0  0  0  0  0
   27.5465  -20.6795  -15.3360 C   0  0  0  0  0  0  0  0  0  0  0  0
   27.6174  -22.1971  -15.3544 C   0  0  0  0  0  0  0  0  0  0  0  0
   27.8309  -22.7021  -16.6897 N   0  0  0  0  0  0  0  0  0  0  0  0
   24.8685  -18.4516  -14.4794 C   0  0  0  0  0  0  0  0  0  0  0  0
   24.2985  -18.3432  -13.3539 O   0  0  0  0  0  0  0  0  0  0  0  0
   24.1184  -19.0527  -15.5034 N   0  0  0  0  0  0  0  0  0  0  0  0
   22.7758  -19.5742  -15.2442 C   0  0  1  0  0  0  0  0  0  0  0  0
   21.8819  -19.3175  -16.4248 C   0  0  0  0  0  0  0  0  0  0  0  0
   21.2332  -17.9958  -16.3377 C   0  0  0  0  0  0  0  0  0  0  0  0
   21.3373  -17.1247  -15.2772 C   0  0  0  0  0  0  0  0  0  0  0  0
   20.6197  -16.0319  -15.5433 N   0  0  0  0  0  0  0  0  0  0  0  0
   20.0748  -16.2125  -16.7480 C   0  0  0  0  0  0  0  0  0  0  0  0
   20.4498  -17.4224  -17.2429 N   0  0  0  0  0  0  0  0  0  0  0  0
   22.8397  -21.0264  -14.9226 C   0  0  0  0  0  0  0  0  0  0  0  0
   23.6702  -21.7810  -15.5210 O   0  0  0  0  0  0  0  0  0  0  0  0
   22.0225  -21.6102  -13.9839 O   0  0  0  0  0  0  0  0  0  0  0  0
  1  2  1  0
  3  4  1  0
  3  2  1  0
  5  4  1  0
  5  6  1  6
  7  5  1  0
  8  7  2  0
  9  7  1  0
 10  9  1  0
 11 12  1  0
 10 11  1  1
 13 12  1  0
 14 13  1  0
 15 14  1  0
 16 10  1  0
 16 18  1  0
 17 16  2  0
 19 18  1  0
 19 20  1  6
 21 20  1  0
 21 25  1  0
 22 23  1  0
 22 21  2  0
 23 24  1  0
 24 25  2  0
 26 19  1  0
 27 26  2  0
 28 26  1  0
M  END
$$$$
