MKH.pdb
     RDKit          3D

 28 28  0  0  1  0  0  0  0  0999 V2000
   24.2366  -20.5763   -8.7459 C   0  0  0  0  0  0  0  0  0  0  0  0
   25.4070  -21.7810   -9.3979 S   0  0  0  0  0  0  0  0  0  0  0  0
   26.5378  -20.8741  -10.5232 C   0  0  0  0  0  0  0  0  0  0  0  0
   25.6848  -20.3335  -11.6369 C   0  0  0  0  0  0  0  0  0  0  0  0
   25.9769  -20.9727  -12.9753 C   0  0  2  0  0  0  0  0  0  0  0  0
   27.3686  -20.9895  -13.2968 N   0  0  0  0  0  0  0  0  0  0  0  0
   25.1502  -20.2990  -14.0003 C   0  0  0  0  0  0  0  0  0  0  0  0
   24.8408  -19.1005  -13.8259 O   0  0  0  0  0  0  0  0  0  0  0  0
   24.6841  -20.9767  -15.1999 N   0  0  0  0  0  0  0  0  0  0  0  0
   23.9598  -20.2966  -16.2071 C   0  0  1  0  0  0  0  0  0  0  0  0
   24.5864  -19.8781  -17.4569 C   0  0  0  0  0  0  0  0  0  0  0  0
   23.8261  -19.1116  -18.4438 C   0  0  0  0  0  0  0  0  0  0  0  0
   24.5631  -18.6504  -19.6355 C   0  0  0  0  0  0  0  0  0  0  0  0
   23.6444  -17.8747  -20.5642 C   0  0  0  0  0  0  0  0  0  0  0  0
   24.3772  -17.2668  -21.6492 N   0  0  0  0  0  0  0  0  0  0  0  0
   22.7525  -21.1322  -16.5467 C   0  0  0  0  0  0  0  0  0  0  0  0
   22.8836  -22.3754  -16.7479 O   0  0  0  0  0  0  0  0  0  0  0  0
   21.4512  -20.6157  -16.6596 N   0  0  0  0  0  0  0  0  0  0  0  0
   20.3323  -21.2368  -15.9496 C   0  0  1  0  0  0  0  0  0  0  0  0
   20.6120  -21.2777  -14.4735 C   0  0  0  0  0  0  0  0  0  0  0  0
   19.5197  -21.9348  -13.7316 C   0  0  0  0  0  0  0  0  0  0  0  0
   19.3227  -23.2939  -13.6400 C   0  0  0  0  0  0  0  0  0  0  0  0
   18.2415  -23.5246  -12.8934 N   0  0  0  0  0  0  0  0  0  0  0  0
   17.7676  -22.3335  -12.5226 C   0  0  0  0  0  0  0  0  0  0  0  0
   18.5522  -21.3489  -13.0369 N   0  0  0  0  0  0  0  0  0  0  0  0
   19.0683  -20.5050  -16.2383 C   0  0  0  0  0  0  0  0  0  0  0  0
   18.9153  -19.3062  -15.8426 O   0  0  0  0  0  0  0  0  0  0  0  0
   18.0277  -21.0762  -16.9315 O   0  0  0  0  0  0  0  0  0  0  0  0
  1  2  1  0
  3  4  1  0
  3  2  1  0
  5  4  1  0
  5  6  1  6
  7  5  1  0
  8  7  2  0
  9  7  1  0
 10  9  1  0
 11 12  1  0
 10 11  1  6
 13 12  1  0
 14 13  1  0
 15 14  1  0
 16 10  1  0
 16 18  1  0
 17 16  2  0
 19 18  1  0
 19 20  1  1
 21 20  1  0
 21 25  1  0
 22 23  1  0
 22 21  2  0
 23 24  1  0
 24 25  2  0
 26 19  1  0
 27 26  2  0
 28 26  1  0
M  END
$$$$
