MWS.pdb
     RDKit          3D

 29 30  0  0  1  0  0  0  0  0999 V2000
    7.5390  -11.6703   19.9341 C   0  0  0  0  0  0  0  0  0  0  0  0
    7.6674  -13.0198   18.7461 S   0  0  0  0  0  0  0  0  0  0  0  0
    6.9805  -14.5235   19.4900 C   0  0  0  0  0  0  0  0  0  0  0  0
    7.4426  -14.6984   20.9219 C   0  0  0  0  0  0  0  0  0  0  0  0
    8.3019  -15.9369   21.0755 C   0  0  2  0  0  0  0  0  0  0  0  0
    7.4895  -17.1189   21.3062 N   0  0  0  0  0  0  0  0  0  0  0  0
    9.2171  -15.7021   22.2243 C   0  0  0  0  0  0  0  0  0  0  0  0
   10.1588  -14.8793   22.0537 O   0  0  0  0  0  0  0  0  0  0  0  0
    9.0585  -16.3616   23.4674 N   0  0  0  0  0  0  0  0  0  0  0  0
    9.9864  -16.0428   24.5841 C   0  0  1  0  0  0  0  0  0  0  0  0
    9.2377  -16.2681   25.8486 C   0  0  0  0  0  0  0  0  0  0  0  0
    7.9522  -15.5698   25.9205 C   0  0  0  0  0  0  0  0  0  0  0  0
    6.6708  -16.0772   25.7675 C   0  0  0  0  0  0  0  0  0  0  0  0
    5.7885  -15.0760   25.8723 N   0  0  0  0  0  0  0  0  0  0  0  0
    6.4656  -13.9301   26.0895 C   0  0  0  0  0  0  0  0  0  0  0  0
    5.9972  -12.6466   26.2607 C   0  0  0  0  0  0  0  0  0  0  0  0
    6.9362  -11.6338   26.4708 C   0  0  0  0  0  0  0  0  0  0  0  0
    8.2738  -11.8944   26.5074 C   0  0  0  0  0  0  0  0  0  0  0  0
    8.7442  -13.2008   26.3328 C   0  0  0  0  0  0  0  0  0  0  0  0
    7.8082  -14.2092   26.1237 C   0  0  0  0  0  0  0  0  0  0  0  0
   11.1859  -16.8699   24.4569 C   0  0  0  0  0  0  0  0  0  0  0  0
   11.0697  -18.1288   24.2699 O   0  0  0  0  0  0  0  0  0  0  0  0
   15.0422  -15.4178   24.2304 O   0  0  0  0  0  0  0  0  0  0  0  0
   14.7707  -16.6344   23.5973 C   0  0  0  0  0  0  0  0  0  0  0  0
   13.6526  -17.2839   24.3979 C   0  0  2  0  0  0  0  0  0  0  0  0
   12.5099  -16.4035   24.5125 N   0  0  0  0  0  0  0  0  0  0  0  0
   14.1576  -17.7929   25.6696 C   0  0  0  0  0  0  0  0  0  0  0  0
   15.2331  -18.6603   25.6930 O   0  0  0  0  0  0  0  0  0  0  0  0
   13.5952  -17.4295   26.7610 O   0  0  0  0  0  0  0  0  0  0  0  0
  2  1  1  0
  3  2  1  0
  4  3  1  0
  4  5  1  0
  5  7  1  0
  5  6  1  1
  7  8  2  0
  9 10  1  0
  9  7  1  0
 10 11  1  1
 12 11  1  0
 13 12  2  0
 14 13  1  0
 15 14  1  0
 15 20  2  0
 16 15  1  0
 17 16  2  0
 17 18  1  0
 18 19  2  0
 19 20  1  0
 20 12  1  0
 21 22  2  0
 21 10  1  0
 23 24  1  0
 25 24  1  1
 25 27  1  0
 25 26  1  0
 26 21  1  0
 27 28  1  0
 29 27  2  0
M  END
$$$$
