MWS.pdb
     RDKit          3D

 29 30  0  0  1  0  0  0  0  0999 V2000
    8.0045  -11.9140   20.7700 C   0  0  0  0  0  0  0  0  0  0  0  0
    7.4342  -12.5040   19.1651 S   0  0  0  0  0  0  0  0  0  0  0  0
    7.3655  -14.3152   19.1966 C   0  0  0  0  0  0  0  0  0  0  0  0
    7.0692  -14.8379   20.5871 C   0  0  0  0  0  0  0  0  0  0  0  0
    7.8894  -16.0738   20.8967 C   0  0  2  0  0  0  0  0  0  0  0  0
    7.0387  -17.2030   21.2311 N   0  0  0  0  0  0  0  0  0  0  0  0
    8.7822  -15.7389   22.0383 C   0  0  0  0  0  0  0  0  0  0  0  0
    9.6079  -14.7994   21.8695 O   0  0  0  0  0  0  0  0  0  0  0  0
    8.7267  -16.4305   23.2729 N   0  0  0  0  0  0  0  0  0  0  0  0
    9.6715  -16.0587   24.3585 C   0  0  1  0  0  0  0  0  0  0  0  0
    8.9575  -16.2671   25.6459 C   0  0  0  0  0  0  0  0  0  0  0  0
    7.7084  -15.5126   25.7712 C   0  0  0  0  0  0  0  0  0  0  0  0
    6.4023  -15.9487   25.6077 C   0  0  0  0  0  0  0  0  0  0  0  0
    5.5709  -14.9132   25.7769 N   0  0  0  0  0  0  0  0  0  0  0  0
    6.3053  -13.8147   26.0462 C   0  0  0  0  0  0  0  0  0  0  0  0
    5.9019  -12.5211   26.2915 C   0  0  0  0  0  0  0  0  0  0  0  0
    6.8912  -11.5676   26.5434 C   0  0  0  0  0  0  0  0  0  0  0  0
    8.2148  -11.8938   26.5490 C   0  0  0  0  0  0  0  0  0  0  0  0
    8.6192  -13.2101   26.2991 C   0  0  0  0  0  0  0  0  0  0  0  0
    7.6329  -14.1595   26.0484 C   0  0  0  0  0  0  0  0  0  0  0  0
   10.8879  -16.8599   24.2257 C   0  0  0  0  0  0  0  0  0  0  0  0
   10.8940  -18.0727   24.6288 O   0  0  0  0  0  0  0  0  0  0  0  0
   14.4481  -15.5132   22.5872 O   0  0  0  0  0  0  0  0  0  0  0  0
   14.1268  -16.8554   22.3638 C   0  0  0  0  0  0  0  0  0  0  0  0
   13.2560  -17.2795   23.5363 C   0  0  2  0  0  0  0  0  0  0  0  0
   12.1001  -16.4191   23.6692 N   0  0  0  0  0  0  0  0  0  0  0  0
   14.0558  -17.4147   24.7500 C   0  0  0  0  0  0  0  0  0  0  0  0
   15.1854  -18.2108   24.7528 O   0  0  0  0  0  0  0  0  0  0  0  0
   13.7011  -16.7907   25.8103 O   0  0  0  0  0  0  0  0  0  0  0  0
  2  1  1  0
  3  2  1  0
  4  3  1  0
  4  5  1  0
  5  7  1  0
  5  6  1  1
  7  8  2  0
  9 10  1  0
  9  7  1  0
 10 11  1  1
 12 11  1  0
 13 12  2  0
 14 13  1  0
 15 14  1  0
 15 20  2  0
 16 15  1  0
 17 16  2  0
 17 18  1  0
 18 19  2  0
 19 20  1  0
 20 12  1  0
 21 22  2  0
 21 10  1  0
 23 24  1  0
 25 24  1  6
 25 27  1  0
 25 26  1  0
 26 21  1  0
 27 28  1  0
 29 27  2  0
M  END
$$$$
