MWS.pdb
     RDKit          3D

 29 30  0  0  1  0  0  0  0  0999 V2000
    8.4725  -11.6945   19.3328 C   0  0  0  0  0  0  0  0  0  0  0  0
    7.7011  -12.9485   18.2929 S   0  0  0  0  0  0  0  0  0  0  0  0
    7.7672  -14.5440   19.1512 C   0  0  0  0  0  0  0  0  0  0  0  0
    7.2647  -14.4320   20.5758 C   0  0  0  0  0  0  0  0  0  0  0  0
    7.4803  -15.7234   21.3385 C   0  0  2  0  0  0  0  0  0  0  0  0
    6.2163  -16.3349   21.7110 N   0  0  0  0  0  0  0  0  0  0  0  0
    8.2767  -15.3948   22.5510 C   0  0  0  0  0  0  0  0  0  0  0  0
    8.4483  -14.1727   22.8155 O   0  0  0  0  0  0  0  0  0  0  0  0
    8.8289  -16.3935   23.3895 N   0  0  0  0  0  0  0  0  0  0  0  0
    9.7846  -16.0002   24.4579 C   0  0  1  0  0  0  0  0  0  0  0  0
    9.1489  -16.3440   25.7572 C   0  0  0  0  0  0  0  0  0  0  0  0
    7.8847  -15.6498   26.0120 C   0  0  0  0  0  0  0  0  0  0  0  0
    6.5907  -16.1470   25.9777 C   0  0  0  0  0  0  0  0  0  0  0  0
    5.7328  -15.1524   26.2360 N   0  0  0  0  0  0  0  0  0  0  0  0
    6.4382  -14.0207   26.4373 C   0  0  0  0  0  0  0  0  0  0  0  0
    6.0011  -12.7481   26.7301 C   0  0  0  0  0  0  0  0  0  0  0  0
    6.9649  -11.7491   26.8874 C   0  0  0  0  0  0  0  0  0  0  0  0
    8.2962  -12.0123   26.7581 C   0  0  0  0  0  0  0  0  0  0  0  0
    8.7348  -13.3076   26.4605 C   0  0  0  0  0  0  0  0  0  0  0  0
    7.7740  -14.3022   26.3040 C   0  0  0  0  0  0  0  0  0  0  0  0
   11.0592  -16.6801   24.2300 C   0  0  0  0  0  0  0  0  0  0  0  0
   11.1203  -17.9541   24.3112 O   0  0  0  0  0  0  0  0  0  0  0  0
   13.8008  -15.7371   21.6753 O   0  0  0  0  0  0  0  0  0  0  0  0
   14.4878  -16.0219   22.8592 C   0  0  0  0  0  0  0  0  0  0  0  0
   13.5101  -16.7859   23.7386 C   0  0  2  0  0  0  0  0  0  0  0  0
   12.2743  -16.0525   23.9088 N   0  0  0  0  0  0  0  0  0  0  0  0
   14.1499  -17.1961   24.9850 C   0  0  0  0  0  0  0  0  0  0  0  0
   13.5691  -16.8844   26.1996 O   0  0  0  0  0  0  0  0  0  0  0  0
   15.2528  -17.8453   24.9424 O   0  0  0  0  0  0  0  0  0  0  0  0
  2  1  1  0
  3  2  1  0
  4  3  1  0
  4  5  1  0
  5  7  1  0
  5  6  1  1
  7  8  2  0
  9 10  1  0
  9  7  1  0
 10 11  1  1
 12 11  1  0
 13 12  2  0
 14 13  1  0
 15 14  1  0
 15 20  2  0
 16 15  1  0
 17 16  2  0
 17 18  1  0
 18 19  2  0
 19 20  1  0
 20 12  1  0
 21 22  2  0
 21 10  1  0
 23 24  1  0
 25 24  1  1
 25 27  1  0
 25 26  1  0
 26 21  1  0
 27 28  1  0
 29 27  2  0
M  END
$$$$
