MWS.pdb
     RDKit          3D

 29 30  0  0  1  0  0  0  0  0999 V2000
    8.7010  -11.7303   19.0124 C   0  0  0  0  0  0  0  0  0  0  0  0
    7.6044  -12.8814   18.1629 S   0  0  0  0  0  0  0  0  0  0  0  0
    7.5979  -14.4563   19.0608 C   0  0  0  0  0  0  0  0  0  0  0  0
    7.5074  -14.2442   20.5579 C   0  0  0  0  0  0  0  0  0  0  0  0
    7.5835  -15.5600   21.3056 C   0  0  2  0  0  0  0  0  0  0  0  0
    6.2588  -16.0887   21.5816 N   0  0  0  0  0  0  0  0  0  0  0  0
    8.3176  -15.3073   22.5742 C   0  0  0  0  0  0  0  0  0  0  0  0
    8.4317  -14.1066   22.9463 O   0  0  0  0  0  0  0  0  0  0  0  0
    8.8738  -16.3534   23.3500 N   0  0  0  0  0  0  0  0  0  0  0  0
    9.7883  -16.0196   24.4733 C   0  0  1  0  0  0  0  0  0  0  0  0
    9.0697  -16.3518   25.7318 C   0  0  0  0  0  0  0  0  0  0  0  0
    7.8224  -15.6095   25.9274 C   0  0  0  0  0  0  0  0  0  0  0  0
    6.5140  -16.0364   25.7579 C   0  0  0  0  0  0  0  0  0  0  0  0
    5.6849  -15.0159   26.0087 N   0  0  0  0  0  0  0  0  0  0  0  0
    6.4229  -13.9359   26.3370 C   0  0  0  0  0  0  0  0  0  0  0  0
    6.0226  -12.6620   26.6734 C   0  0  0  0  0  0  0  0  0  0  0  0
    7.0154  -11.7251   26.9705 C   0  0  0  0  0  0  0  0  0  0  0  0
    8.3391  -12.0485   26.9323 C   0  0  0  0  0  0  0  0  0  0  0  0
    8.7402  -13.3448   26.5897 C   0  0  0  0  0  0  0  0  0  0  0  0
    7.7506  -14.2776   26.2941 C   0  0  0  0  0  0  0  0  0  0  0  0
   11.0411  -16.7544   24.3013 C   0  0  0  0  0  0  0  0  0  0  0  0
   11.0232  -18.0310   24.2431 O   0  0  0  0  0  0  0  0  0  0  0  0
   14.7826  -15.0126   23.8468 O   0  0  0  0  0  0  0  0  0  0  0  0
   14.5307  -16.1867   23.1308 C   0  0  0  0  0  0  0  0  0  0  0  0
   13.5086  -16.9643   23.9456 C   0  0  2  0  0  0  0  0  0  0  0  0
   12.3165  -16.1781   24.1793 N   0  0  0  0  0  0  0  0  0  0  0  0
   14.1209  -17.5132   25.1519 C   0  0  0  0  0  0  0  0  0  0  0  0
   15.2521  -18.3016   25.0599 O   0  0  0  0  0  0  0  0  0  0  0  0
   13.6004  -17.2586   26.2937 O   0  0  0  0  0  0  0  0  0  0  0  0
  2  1  1  0
  3  2  1  0
  4  3  1  0
  4  5  1  0
  5  7  1  0
  5  6  1  1
  7  8  2  0
  9 10  1  0
  9  7  1  0
 10 11  1  1
 12 11  1  0
 13 12  2  0
 14 13  1  0
 15 14  1  0
 15 20  2  0
 16 15  1  0
 17 16  2  0
 17 18  1  0
 18 19  2  0
 19 20  1  0
 20 12  1  0
 21 22  2  0
 21 10  1  0
 23 24  1  0
 25 24  1  1
 25 27  1  0
 25 26  1  0
 26 21  1  0
 27 28  1  0
 29 27  2  0
M  END
$$$$
