MWS.pdb
     RDKit          3D

 29 30  0  0  1  0  0  0  0  0999 V2000
    7.7135  -12.0912   18.1757 C   0  0  0  0  0  0  0  0  0  0  0  0
    8.2502  -13.0785   19.5851 S   0  0  0  0  0  0  0  0  0  0  0  0
    6.7889  -13.7550   20.4178 C   0  0  0  0  0  0  0  0  0  0  0  0
    7.1403  -14.3481   21.7666 C   0  0  0  0  0  0  0  0  0  0  0  0
    8.2132  -15.4104   21.6379 C   0  0  2  0  0  0  0  0  0  0  0  0
    7.6383  -16.7075   21.3257 N   0  0  0  0  0  0  0  0  0  0  0  0
    8.9430  -15.4628   22.9329 C   0  0  0  0  0  0  0  0  0  0  0  0
    9.7078  -14.4961   23.2044 O   0  0  0  0  0  0  0  0  0  0  0  0
    8.8018  -16.5410   23.8400 N   0  0  0  0  0  0  0  0  0  0  0  0
    9.5006  -16.4857   25.1508 C   0  0  1  0  0  0  0  0  0  0  0  0
    8.4526  -16.5371   26.2042 C   0  0  0  0  0  0  0  0  0  0  0  0
    7.4038  -15.5249   26.0606 C   0  0  0  0  0  0  0  0  0  0  0  0
    6.0752  -15.6865   25.6975 C   0  0  0  0  0  0  0  0  0  0  0  0
    5.4848  -14.4859   25.6531 N   0  0  0  0  0  0  0  0  0  0  0  0
    6.3976  -13.5480   25.9784 C   0  0  0  0  0  0  0  0  0  0  0  0
    6.2650  -12.1803   26.0678 C   0  0  0  0  0  0  0  0  0  0  0  0
    7.3926  -11.4394   26.4298 C   0  0  0  0  0  0  0  0  0  0  0  0
    8.5897  -12.0383   26.6884 C   0  0  0  0  0  0  0  0  0  0  0  0
    8.7187  -13.4287   26.5960 C   0  0  0  0  0  0  0  0  0  0  0  0
    7.5949  -14.1660   26.2354 C   0  0  0  0  0  0  0  0  0  0  0  0
   10.4614  -17.5859   25.2247 C   0  0  0  0  0  0  0  0  0  0  0  0
   10.0677  -18.7466   25.5869 O   0  0  0  0  0  0  0  0  0  0  0  0
   14.4637  -17.1236   24.6145 O   0  0  0  0  0  0  0  0  0  0  0  0
   14.0093  -18.3940   24.2481 C   0  0  0  0  0  0  0  0  0  0  0  0
   12.7292  -18.6254   25.0360 C   0  0  2  0  0  0  0  0  0  0  0  0
   11.8294  -17.4984   24.9174 N   0  0  0  0  0  0  0  0  0  0  0  0
   13.0329  -19.0187   26.4088 C   0  0  0  0  0  0  0  0  0  0  0  0
   12.4478  -18.3517   27.4683 O   0  0  0  0  0  0  0  0  0  0  0  0
   13.8457  -19.9849   26.6215 O   0  0  0  0  0  0  0  0  0  0  0  0
  2  1  1  0
  3  2  1  0
  4  3  1  0
  4  5  1  0
  5  7  1  0
  5  6  1  1
  7  8  2  0
  9 10  1  0
  9  7  1  0
 10 11  1  1
 12 11  1  0
 13 12  2  0
 14 13  1  0
 15 14  1  0
 15 20  2  0
 16 15  1  0
 17 16  2  0
 17 18  1  0
 18 19  2  0
 19 20  1  0
 20 12  1  0
 21 22  2  0
 21 10  1  0
 23 24  1  0
 25 24  1  1
 25 27  1  0
 25 26  1  0
 26 21  1  0
 27 28  1  0
 29 27  2  0
M  END
$$$$
