MWS.pdb
     RDKit          3D

 29 30  0  0  1  0  0  0  0  0999 V2000
   13.2263  -20.4539   21.4547 C   0  0  0  0  0  0  0  0  0  0  0  0
   13.3150  -19.2790   20.0907 S   0  0  0  0  0  0  0  0  0  0  0  0
   11.8804  -18.1737   20.1744 C   0  0  0  0  0  0  0  0  0  0  0  0
   11.3492  -18.0557   21.5881 C   0  0  0  0  0  0  0  0  0  0  0  0
   10.1235  -17.1666   21.6429 C   0  0  2  0  0  0  0  0  0  0  0  0
   10.1823  -16.1223   20.6346 N   0  0  0  0  0  0  0  0  0  0  0  0
   10.0674  -16.5721   23.0051 C   0  0  0  0  0  0  0  0  0  0  0  0
   10.6587  -15.4707   23.1795 O   0  0  0  0  0  0  0  0  0  0  0  0
    9.3850  -17.1962   24.0776 N   0  0  0  0  0  0  0  0  0  0  0  0
    9.3871  -16.5499   25.4162 C   0  0  1  0  0  0  0  0  0  0  0  0
    8.0178  -16.7036   25.9747 C   0  0  0  0  0  0  0  0  0  0  0  0
    7.0816  -15.6513   25.5733 C   0  0  0  0  0  0  0  0  0  0  0  0
    5.9012  -15.7578   24.8534 C   0  0  0  0  0  0  0  0  0  0  0  0
    5.3836  -14.5357   24.6786 N   0  0  0  0  0  0  0  0  0  0  0  0
    6.1992  -13.6375   25.2676 C   0  0  0  0  0  0  0  0  0  0  0  0
    6.0893  -12.2675   25.3522 C   0  0  0  0  0  0  0  0  0  0  0  0
    7.0949  -11.5747   26.0306 C   0  0  0  0  0  0  0  0  0  0  0  0
    8.1544  -12.2214   26.5942 C   0  0  0  0  0  0  0  0  0  0  0  0
    8.2610  -13.6140   26.5051 C   0  0  0  0  0  0  0  0  0  0  0  0
    7.2587  -14.3034   25.8292 C   0  0  0  0  0  0  0  0  0  0  0  0
   10.4289  -17.1634   26.2392 C   0  0  0  0  0  0  0  0  0  0  0  0
   10.8468  -18.3383   25.9591 O   0  0  0  0  0  0  0  0  0  0  0  0
   11.1972  -15.9720   30.0005 O   0  0  0  0  0  0  0  0  0  0  0  0
   12.3749  -16.4346   29.4057 C   0  0  0  0  0  0  0  0  0  0  0  0
   11.9411  -17.2936   28.2281 C   0  0  2  0  0  0  0  0  0  0  0  0
   11.0515  -16.5667   27.3482 N   0  0  0  0  0  0  0  0  0  0  0  0
   11.4232  -18.5780   28.6901 C   0  0  0  0  0  0  0  0  0  0  0  0
   10.1086  -18.9261   28.4445 O   0  0  0  0  0  0  0  0  0  0  0  0
   12.1967  -19.3771   29.3246 O   0  0  0  0  0  0  0  0  0  0  0  0
  2  1  1  0
  3  2  1  0
  4  3  1  0
  4  5  1  0
  5  7  1  0
  5  6  1  6
  7  8  2  0
  9 10  1  0
  9  7  1  0
 10 11  1  1
 12 11  1  0
 13 12  2  0
 14 13  1  0
 15 14  1  0
 15 20  2  0
 16 15  1  0
 17 16  2  0
 17 18  1  0
 18 19  2  0
 19 20  1  0
 20 12  1  0
 21 22  2  0
 21 10  1  0
 23 24  1  0
 25 24  1  1
 25 27  1  0
 25 26  1  0
 26 21  1  0
 27 28  1  0
 29 27  2  0
M  END
$$$$
