MWS.pdb
     RDKit          3D

 29 30  0  0  1  0  0  0  0  0999 V2000
    7.3997  -11.7103   18.8901 C   0  0  0  0  0  0  0  0  0  0  0  0
    7.8089  -12.9350   20.1477 S   0  0  0  0  0  0  0  0  0  0  0  0
    6.4376  -14.1124   20.2879 C   0  0  0  0  0  0  0  0  0  0  0  0
    6.6450  -15.0755   21.4385 C   0  0  0  0  0  0  0  0  0  0  0  0
    7.9163  -15.8804   21.2600 C   0  0  2  0  0  0  0  0  0  0  0  0
    7.6392  -17.3061   21.2259 N   0  0  0  0  0  0  0  0  0  0  0  0
    8.8131  -15.5518   22.4002 C   0  0  0  0  0  0  0  0  0  0  0  0
    9.4373  -14.4561   22.3469 O   0  0  0  0  0  0  0  0  0  0  0  0
    8.9760  -16.4155   23.5105 N   0  0  0  0  0  0  0  0  0  0  0  0
    9.9282  -16.0427   24.5893 C   0  0  1  0  0  0  0  0  0  0  0  0
    9.2168  -16.2319   25.8810 C   0  0  0  0  0  0  0  0  0  0  0  0
    7.9449  -15.5126   25.9796 C   0  0  0  0  0  0  0  0  0  0  0  0
    6.6525  -15.9975   25.8469 C   0  0  0  0  0  0  0  0  0  0  0  0
    5.7893  -14.9821   25.9728 N   0  0  0  0  0  0  0  0  0  0  0  0
    6.4895  -13.8490   26.1839 C   0  0  0  0  0  0  0  0  0  0  0  0
    6.0460  -12.5588   26.3702 C   0  0  0  0  0  0  0  0  0  0  0  0
    7.0056  -11.5631   26.5688 C   0  0  0  0  0  0  0  0  0  0  0  0
    8.3390  -11.8463   26.5800 C   0  0  0  0  0  0  0  0  0  0  0  0
    8.7841  -13.1595   26.3901 C   0  0  0  0  0  0  0  0  0  0  0  0
    7.8275  -14.1508   26.1925 C   0  0  0  0  0  0  0  0  0  0  0  0
   11.1364  -16.8567   24.4598 C   0  0  0  0  0  0  0  0  0  0  0  0
   11.0352  -18.1255   24.3445 O   0  0  0  0  0  0  0  0  0  0  0  0
   14.5448  -15.1666   23.8203 O   0  0  0  0  0  0  0  0  0  0  0  0
   14.7699  -16.5373   23.6611 C   0  0  0  0  0  0  0  0  0  0  0  0
   13.6067  -17.2364   24.3474 C   0  0  2  0  0  0  0  0  0  0  0  0
   12.4531  -16.3676   24.4394 N   0  0  0  0  0  0  0  0  0  0  0  0
   14.0318  -17.8186   25.6169 C   0  0  0  0  0  0  0  0  0  0  0  0
   15.1112  -18.6804   25.6593 O   0  0  0  0  0  0  0  0  0  0  0  0
   13.3957  -17.5246   26.6886 O   0  0  0  0  0  0  0  0  0  0  0  0
  2  1  1  0
  3  2  1  0
  4  3  1  0
  4  5  1  0
  5  7  1  0
  5  6  1  1
  7  8  2  0
  9 10  1  0
  9  7  1  0
 10 11  1  1
 12 11  1  0
 13 12  2  0
 14 13  1  0
 15 14  1  0
 15 20  2  0
 16 15  1  0
 17 16  2  0
 17 18  1  0
 18 19  2  0
 19 20  1  0
 20 12  1  0
 21 22  2  0
 21 10  1  0
 23 24  1  0
 25 24  1  1
 25 27  1  0
 25 26  1  0
 26 21  1  0
 27 28  1  0
 29 27  2  0
M  END
$$$$
