MWS.pdb
     RDKit          3D

 29 30  0  0  1  0  0  0  0  0999 V2000
    7.2746  -11.5533   20.3881 C   0  0  0  0  0  0  0  0  0  0  0  0
    7.4245  -12.7333   19.0338 S   0  0  0  0  0  0  0  0  0  0  0  0
    7.0545  -14.3941   19.6593 C   0  0  0  0  0  0  0  0  0  0  0  0
    7.4915  -14.5574   21.1004 C   0  0  0  0  0  0  0  0  0  0  0  0
    8.3893  -15.7662   21.2696 C   0  0  2  0  0  0  0  0  0  0  0  0
    7.6183  -16.9970   21.3033 N   0  0  0  0  0  0  0  0  0  0  0  0
    9.1393  -15.5871   22.5415 C   0  0  0  0  0  0  0  0  0  0  0  0
    9.9589  -14.6290   22.5988 O   0  0  0  0  0  0  0  0  0  0  0  0
    8.9584  -16.4424   23.6557 N   0  0  0  0  0  0  0  0  0  0  0  0
    9.8450  -16.2932   24.8394 C   0  0  1  0  0  0  0  0  0  0  0  0
    8.9894  -16.4495   26.0452 C   0  0  0  0  0  0  0  0  0  0  0  0
    7.8064  -15.5863   26.0607 C   0  0  0  0  0  0  0  0  0  0  0  0
    6.4980  -15.8882   25.7143 C   0  0  0  0  0  0  0  0  0  0  0  0
    5.7469  -14.7873   25.8404 N   0  0  0  0  0  0  0  0  0  0  0  0
    6.5357  -13.7772   26.2603 C   0  0  0  0  0  0  0  0  0  0  0  0
    6.2205  -12.4639   26.5289 C   0  0  0  0  0  0  0  0  0  0  0  0
    7.2505  -11.6214   26.9541 C   0  0  0  0  0  0  0  0  0  0  0  0
    8.5286  -12.0719   27.1022 C   0  0  0  0  0  0  0  0  0  0  0  0
    8.8432  -13.4077   26.8278 C   0  0  0  0  0  0  0  0  0  0  0  0
    7.8165  -14.2464   26.4044 C   0  0  0  0  0  0  0  0  0  0  0  0
   10.9233  -17.2776   24.7532 C   0  0  0  0  0  0  0  0  0  0  0  0
   10.6513  -18.5234   24.8395 O   0  0  0  0  0  0  0  0  0  0  0  0
   14.8917  -16.3452   24.1342 O   0  0  0  0  0  0  0  0  0  0  0  0
   14.4711  -17.5835   23.6398 C   0  0  0  0  0  0  0  0  0  0  0  0
   13.3035  -18.0106   24.5158 C   0  0  2  0  0  0  0  0  0  0  0  0
   12.2847  -16.9844   24.5688 N   0  0  0  0  0  0  0  0  0  0  0  0
   13.7767  -18.4652   25.8199 C   0  0  0  0  0  0  0  0  0  0  0  0
   14.6605  -19.5240   25.9079 O   0  0  0  0  0  0  0  0  0  0  0  0
   13.3654  -17.8755   26.8793 O   0  0  0  0  0  0  0  0  0  0  0  0
  2  1  1  0
  3  2  1  0
  4  3  1  0
  4  5  1  0
  5  7  1  0
  5  6  1  1
  7  8  2  0
  9 10  1  0
  9  7  1  0
 10 11  1  1
 12 11  1  0
 13 12  2  0
 14 13  1  0
 15 14  1  0
 15 20  2  0
 16 15  1  0
 17 16  2  0
 17 18  1  0
 18 19  2  0
 19 20  1  0
 20 12  1  0
 21 22  2  0
 21 10  1  0
 23 24  1  0
 25 24  1  6
 25 27  1  0
 25 26  1  0
 26 21  1  0
 27 28  1  0
 29 27  2  0
M  END
$$$$
