MWS.pdb
     RDKit          3D

 29 30  0  0  1  0  0  0  0  0999 V2000
   10.2498  -17.9630   17.6057 C   0  0  0  0  0  0  0  0  0  0  0  0
    8.6731  -17.3736   16.9610 S   0  0  0  0  0  0  0  0  0  0  0  0
    7.5652  -17.0219   18.3522 C   0  0  0  0  0  0  0  0  0  0  0  0
    8.2959  -16.3340   19.4868 C   0  0  0  0  0  0  0  0  0  0  0  0
    7.4477  -16.2912   20.7417 C   0  0  2  0  0  0  0  0  0  0  0  0
    6.3119  -15.3997   20.5821 N   0  0  0  0  0  0  0  0  0  0  0  0
    8.3217  -15.8269   21.8521 C   0  0  0  0  0  0  0  0  0  0  0  0
    8.7958  -14.6604   21.7648 O   0  0  0  0  0  0  0  0  0  0  0  0
    8.6234  -16.6407   22.9711 N   0  0  0  0  0  0  0  0  0  0  0  0
    9.5328  -16.1204   24.0255 C   0  0  1  0  0  0  0  0  0  0  0  0
    8.8477  -16.3244   25.3292 C   0  0  0  0  0  0  0  0  0  0  0  0
    7.6433  -15.5111   25.5107 C   0  0  0  0  0  0  0  0  0  0  0  0
    6.3143  -15.8623   25.3284 C   0  0  0  0  0  0  0  0  0  0  0  0
    5.5428  -14.7952   25.5689 N   0  0  0  0  0  0  0  0  0  0  0  0
    6.3384  -13.7588   25.9032 C   0  0  0  0  0  0  0  0  0  0  0  0
    6.0088  -12.4632   26.2334 C   0  0  0  0  0  0  0  0  0  0  0  0
    7.0507  -11.5844   26.5392 C   0  0  0  0  0  0  0  0  0  0  0  0
    8.3540  -11.9836   26.5152 C   0  0  0  0  0  0  0  0  0  0  0  0
    8.6832  -13.3016   26.1788 C   0  0  0  0  0  0  0  0  0  0  0  0
    7.6446  -14.1765   25.8745 C   0  0  0  0  0  0  0  0  0  0  0  0
   10.8200  -16.8075   23.9251 C   0  0  0  0  0  0  0  0  0  0  0  0
   10.8509  -18.0799   23.8091 O   0  0  0  0  0  0  0  0  0  0  0  0
   14.4093  -14.8809   24.0762 O   0  0  0  0  0  0  0  0  0  0  0  0
   14.4624  -16.0867   23.3706 C   0  0  0  0  0  0  0  0  0  0  0  0
   13.3185  -16.9356   23.9032 C   0  0  2  0  0  0  0  0  0  0  0  0
   12.0804  -16.1872   23.9345 N   0  0  0  0  0  0  0  0  0  0  0  0
   13.6852  -17.5571   25.1723 C   0  0  0  0  0  0  0  0  0  0  0  0
   14.8052  -18.3625   25.2536 O   0  0  0  0  0  0  0  0  0  0  0  0
   12.9603  -17.3500   26.2072 O   0  0  0  0  0  0  0  0  0  0  0  0
  2  1  1  0
  3  2  1  0
  4  3  1  0
  4  5  1  0
  5  7  1  0
  5  6  1  6
  7  8  2  0
  9 10  1  0
  9  7  1  0
 10 11  1  1
 12 11  1  0
 13 12  2  0
 14 13  1  0
 15 14  1  0
 15 20  2  0
 16 15  1  0
 17 16  2  0
 17 18  1  0
 18 19  2  0
 19 20  1  0
 20 12  1  0
 21 22  2  0
 21 10  1  0
 23 24  1  0
 25 24  1  1
 25 27  1  0
 25 26  1  0
 26 21  1  0
 27 28  1  0
 29 27  2  0
M  END
$$$$
