MWS.pdb
     RDKit          3D

 29 30  0  0  1  0  0  0  0  0999 V2000
    7.5339  -11.6129   20.1994 C   0  0  0  0  0  0  0  0  0  0  0  0
    7.0540  -12.7864   18.9181 S   0  0  0  0  0  0  0  0  0  0  0  0
    7.2876  -14.4703   19.5477 C   0  0  0  0  0  0  0  0  0  0  0  0
    8.2617  -14.5019   20.7073 C   0  0  0  0  0  0  0  0  0  0  0  0
    8.5445  -15.9233   21.1497 C   0  0  2  0  0  0  0  0  0  0  0  0
    7.3140  -16.6650   21.3646 N   0  0  0  0  0  0  0  0  0  0  0  0
    9.3329  -15.8473   22.4087 C   0  0  0  0  0  0  0  0  0  0  0  0
   10.3971  -15.1692   22.3837 O   0  0  0  0  0  0  0  0  0  0  0  0
    8.9269  -16.4994   23.5984 N   0  0  0  0  0  0  0  0  0  0  0  0
    9.7744  -16.3889   24.8146 C   0  0  1  0  0  0  0  0  0  0  0  0
    8.8690  -16.5124   25.9875 C   0  0  0  0  0  0  0  0  0  0  0  0
    7.6902  -15.6449   25.9327 C   0  0  0  0  0  0  0  0  0  0  0  0
    6.3898  -15.9574   25.5664 C   0  0  0  0  0  0  0  0  0  0  0  0
    5.6412  -14.8491   25.6226 N   0  0  0  0  0  0  0  0  0  0  0  0
    6.4238  -13.8238   26.0166 C   0  0  0  0  0  0  0  0  0  0  0  0
    6.1083  -12.4985   26.2169 C   0  0  0  0  0  0  0  0  0  0  0  0
    7.1310  -11.6414   26.6301 C   0  0  0  0  0  0  0  0  0  0  0  0
    8.4026  -12.0895   26.8319 C   0  0  0  0  0  0  0  0  0  0  0  0
    8.7176  -13.4376   26.6268 C   0  0  0  0  0  0  0  0  0  0  0  0
    7.6981  -14.2908   26.2153 C   0  0  0  0  0  0  0  0  0  0  0  0
   10.8140  -17.4165   24.7649 C   0  0  0  0  0  0  0  0  0  0  0  0
   10.4997  -18.6435   24.9350 O   0  0  0  0  0  0  0  0  0  0  0  0
   14.6438  -16.5308   23.9910 O   0  0  0  0  0  0  0  0  0  0  0  0
   14.3771  -17.8698   23.6899 C   0  0  0  0  0  0  0  0  0  0  0  0
   13.1592  -18.2517   24.5169 C   0  0  2  0  0  0  0  0  0  0  0  0
   12.1800  -17.1864   24.5310 N   0  0  0  0  0  0  0  0  0  0  0  0
   13.5612  -18.7253   25.8380 C   0  0  0  0  0  0  0  0  0  0  0  0
   14.4765  -19.7536   25.9587 O   0  0  0  0  0  0  0  0  0  0  0  0
   13.0580  -18.1807   26.8819 O   0  0  0  0  0  0  0  0  0  0  0  0
  2  1  1  0
  3  2  1  0
  4  3  1  0
  4  5  1  0
  5  7  1  0
  5  6  1  1
  7  8  2  0
  9 10  1  0
  9  7  1  0
 10 11  1  1
 12 11  1  0
 13 12  2  0
 14 13  1  0
 15 14  1  0
 15 20  2  0
 16 15  1  0
 17 16  2  0
 17 18  1  0
 18 19  2  0
 19 20  1  0
 20 12  1  0
 21 22  2  0
 21 10  1  0
 23 24  1  0
 25 24  1  1
 25 27  1  0
 25 26  1  0
 26 21  1  0
 27 28  1  0
 29 27  2  0
M  END
$$$$
