QEM.pdb
     RDKit          3D

 27 26  0  0  1  0  0  0  0  0999 V2000
    7.5451  -12.6137   16.3677 N   0  0  0  0  0  0  0  0  0  0  0  0
    7.7826  -13.9243   15.8994 C   0  0  0  0  0  0  0  0  0  0  0  0
    7.6705  -14.1793   14.6855 O   0  0  0  0  0  0  0  0  0  0  0  0
    8.1603  -14.9793   16.8471 C   0  0  0  0  0  0  0  0  0  0  0  0
    8.0915  -14.6053   18.2842 C   0  0  0  0  0  0  0  0  0  0  0  0
    9.3566  -14.8315   19.0710 C   0  0  2  0  0  0  0  0  0  0  0  0
   10.1551  -15.7604   18.2513 N   0  0  0  0  0  0  0  0  0  0  0  0
    9.0189  -15.4558   20.3762 C   0  0  0  0  0  0  0  0  0  0  0  0
    8.0614  -14.9849   21.0417 O   0  0  0  0  0  0  0  0  0  0  0  0
    9.7085  -16.5507   20.9207 N   0  0  0  0  0  0  0  0  0  0  0  0
    9.2440  -17.1499   22.1831 C   0  0  1  0  0  0  0  0  0  0  0  0
   10.0543  -18.4124   22.3346 C   0  0  0  0  0  0  0  0  0  0  0  0
    9.7876  -19.4665   21.3215 C   0  0  0  0  0  0  0  0  0  0  0  0
   10.7010  -20.6161   21.5791 C   0  0  0  0  0  0  0  0  0  0  0  0
   11.9223  -20.4813   21.4632 O   0  0  0  0  0  0  0  0  0  0  0  0
    9.4469  -16.1977   23.3041 C   0  0  0  0  0  0  0  0  0  0  0  0
   10.5204  -15.5653   23.3468 O   0  0  0  0  0  0  0  0  0  0  0  0
   10.1448  -21.8239   21.9474 O   0  0  0  0  0  0  0  0  0  0  0  0
    6.2969  -10.9127   27.9236 C   0  0  0  0  0  0  0  0  0  0  0  0
    5.9612  -12.1950   26.6891 S   0  0  0  0  0  0  0  0  0  0  0  0
    7.4433  -13.2287   26.5401 C   0  0  0  0  0  0  0  0  0  0  0  0
    7.3661  -14.1479   25.3693 C   0  0  0  0  0  0  0  0  0  0  0  0
    8.5791  -15.0154   25.2885 C   0  0  2  0  0  0  0  0  0  0  0  0
    8.4408  -16.0425   24.2637 N   0  0  0  0  0  0  0  0  0  0  0  0
    8.8594  -15.6521   26.5882 C   0  0  0  0  0  0  0  0  0  0  0  0
    8.6216  -16.8379   26.8982 O   0  0  0  0  0  0  0  0  0  0  0  0
    9.4552  -14.8910   27.6252 O   0  0  0  0  0  0  0  0  0  0  0  0
  1  2  1  0
  2  4  1  0
  2  3  2  0
  4  5  1  0
  5  6  1  0
  6  7  1  6
  8  6  1  0
  8 10  1  0
  9  8  2  0
 10 11  1  0
 11 16  1  0
 11 12  1  1
 13 12  1  0
 13 14  1  0
 14 15  2  0
 16 17  2  0
 16 24  1  0
 18 14  1  0
 19 20  1  0
 20 21  1  0
 22 21  1  0
 23 22  1  1
 23 25  1  0
 24 23  1  0
 25 26  2  0
 25 27  1  0
M  END
$$$$
