QEM.pdb
     RDKit          3D

 27 26  0  0  1  0  0  0  0  0999 V2000
   10.1729  -12.5799   18.5636 N   0  0  0  0  0  0  0  0  0  0  0  0
    8.8977  -13.0989   18.2506 C   0  0  0  0  0  0  0  0  0  0  0  0
    8.7190  -13.6983   17.1736 O   0  0  0  0  0  0  0  0  0  0  0  0
    7.7893  -12.9283   19.1973 C   0  0  0  0  0  0  0  0  0  0  0  0
    7.8882  -13.7216   20.4505 C   0  0  0  0  0  0  0  0  0  0  0  0
    8.0768  -15.2048   20.2619 C   0  0  2  0  0  0  0  0  0  0  0  0
    6.7797  -15.6941   19.7613 N   0  0  0  0  0  0  0  0  0  0  0  0
    8.3930  -15.8307   21.5718 C   0  0  0  0  0  0  0  0  0  0  0  0
    7.4693  -15.9706   22.4134 O   0  0  0  0  0  0  0  0  0  0  0  0
    9.6723  -16.2811   21.9343 N   0  0  0  0  0  0  0  0  0  0  0  0
    9.8823  -16.8897   23.2588 C   0  0  1  0  0  0  0  0  0  0  0  0
   11.0942  -17.7713   23.0927 C   0  0  0  0  0  0  0  0  0  0  0  0
   11.5342  -18.4877   24.3183 C   0  0  0  0  0  0  0  0  0  0  0  0
   12.7272  -19.3161   23.9830 C   0  0  0  0  0  0  0  0  0  0  0  0
   12.7256  -20.5307   24.2022 O   0  0  0  0  0  0  0  0  0  0  0  0
   10.0767  -15.8307   24.2811 C   0  0  0  0  0  0  0  0  0  0  0  0
   10.6886  -14.7982   23.9442 O   0  0  0  0  0  0  0  0  0  0  0  0
   13.8229  -18.6898   23.4254 O   0  0  0  0  0  0  0  0  0  0  0  0
    5.9786  -12.5173   26.5221 C   0  0  0  0  0  0  0  0  0  0  0  0
    6.9915  -12.2381   27.9976 S   0  0  0  0  0  0  0  0  0  0  0  0
    8.5109  -13.2121   27.8247 C   0  0  0  0  0  0  0  0  0  0  0  0
    8.4228  -14.1873   26.7009 C   0  0  0  0  0  0  0  0  0  0  0  0
    9.6961  -14.9541   26.5561 C   0  0  2  0  0  0  0  0  0  0  0  0
    9.5737  -16.0226   25.5724 N   0  0  0  0  0  0  0  0  0  0  0  0
   10.1195  -15.5221   27.8490 C   0  0  0  0  0  0  0  0  0  0  0  0
   10.1103  -16.7298   28.1656 O   0  0  0  0  0  0  0  0  0  0  0  0
   10.5907  -14.6595   28.8704 O   0  0  0  0  0  0  0  0  0  0  0  0
  1  2  1  0
  2  4  1  0
  2  3  2  0
  4  5  1  0
  5  6  1  0
  6  7  1  1
  8  6  1  0
  8 10  1  0
  9  8  2  0
 10 11  1  0
 11 16  1  0
 11 12  1  6
 13 12  1  0
 13 14  1  0
 14 15  2  0
 16 17  2  0
 16 24  1  0
 18 14  1  0
 19 20  1  0
 20 21  1  0
 22 21  1  0
 23 22  1  1
 23 25  1  0
 24 23  1  0
 25 26  2  0
 25 27  1  0
M  END
$$$$
