QEM.pdb
     RDKit          3D

 27 26  0  0  1  0  0  0  0  0999 V2000
    8.5613  -13.2823   15.2398 N   0  0  0  0  0  0  0  0  0  0  0  0
    7.9579  -14.4863   15.6638 C   0  0  0  0  0  0  0  0  0  0  0  0
    7.7863  -15.4141   14.8510 O   0  0  0  0  0  0  0  0  0  0  0  0
    7.5359  -14.6369   17.0613 C   0  0  0  0  0  0  0  0  0  0  0  0
    7.5630  -13.3945   17.8771 C   0  0  0  0  0  0  0  0  0  0  0  0
    8.6386  -13.3380   18.9310 C   0  0  2  0  0  0  0  0  0  0  0  0
    9.9028  -13.5261   18.1969 N   0  0  0  0  0  0  0  0  0  0  0  0
    8.4358  -14.4456   19.9004 C   0  0  0  0  0  0  0  0  0  0  0  0
    7.3197  -14.5539   20.4694 O   0  0  0  0  0  0  0  0  0  0  0  0
    9.4223  -15.3900   20.2256 N   0  0  0  0  0  0  0  0  0  0  0  0
    9.1688  -16.3693   21.2959 C   0  0  1  0  0  0  0  0  0  0  0  0
   10.0596  -17.5410   20.9684 C   0  0  0  0  0  0  0  0  0  0  0  0
   10.0347  -18.6551   21.9518 C   0  0  0  0  0  0  0  0  0  0  0  0
   11.0166  -19.6911   21.5221 C   0  0  0  0  0  0  0  0  0  0  0  0
   10.6593  -20.8614   21.3612 O   0  0  0  0  0  0  0  0  0  0  0  0
    9.4720  -15.7679   22.6191 C   0  0  0  0  0  0  0  0  0  0  0  0
   10.5924  -15.2459   22.7811 O   0  0  0  0  0  0  0  0  0  0  0  0
   12.3246  -19.3056   21.3119 O   0  0  0  0  0  0  0  0  0  0  0  0
    7.0257  -10.9453   27.4522 C   0  0  0  0  0  0  0  0  0  0  0  0
    6.3584  -12.5869   27.0767 S   0  0  0  0  0  0  0  0  0  0  0  0
    7.7439  -13.6605   26.6129 C   0  0  0  0  0  0  0  0  0  0  0  0
    7.5784  -14.2231   25.2426 C   0  0  0  0  0  0  0  0  0  0  0  0
    8.7389  -15.0882   24.8750 C   0  0  2  0  0  0  0  0  0  0  0  0
    8.5039  -15.8056   23.6283 N   0  0  0  0  0  0  0  0  0  0  0  0
    9.0381  -16.0531   25.9487 C   0  0  0  0  0  0  0  0  0  0  0  0
    8.8679  -17.2891   25.9018 O   0  0  0  0  0  0  0  0  0  0  0  0
    9.5715  -15.5885   27.1772 O   0  0  0  0  0  0  0  0  0  0  0  0
  1  2  1  0
  2  4  1  0
  2  3  2  0
  4  5  1  0
  5  6  1  0
  6  7  1  6
  8  6  1  0
  8 10  1  0
  9  8  2  0
 10 11  1  0
 11 16  1  0
 11 12  1  6
 13 12  1  0
 13 14  1  0
 14 15  2  0
 16 17  2  0
 16 24  1  0
 18 14  1  0
 19 20  1  0
 20 21  1  0
 22 21  1  0
 23 22  1  1
 23 25  1  0
 24 23  1  0
 25 26  2  0
 25 27  1  0
M  END
$$$$
