QEM.pdb
     RDKit          3D

 27 26  0  0  1  0  0  0  0  0999 V2000
    8.6868  -12.8408   17.0952 N   0  0  0  0  0  0  0  0  0  0  0  0
    8.1835  -14.0931   16.6808 C   0  0  0  0  0  0  0  0  0  0  0  0
    8.3318  -14.4616   15.5004 O   0  0  0  0  0  0  0  0  0  0  0  0
    7.4876  -14.9537   17.6446 C   0  0  0  0  0  0  0  0  0  0  0  0
    7.1801  -14.3284   18.9576 C   0  0  0  0  0  0  0  0  0  0  0  0
    8.3768  -14.0072   19.8153 C   0  0  2  0  0  0  0  0  0  0  0  0
    9.5394  -14.1649   18.9232 N   0  0  0  0  0  0  0  0  0  0  0  0
    8.4526  -14.9783   20.9372 C   0  0  0  0  0  0  0  0  0  0  0  0
    7.4178  -15.1984   21.6170 O   0  0  0  0  0  0  0  0  0  0  0  0
    9.6194  -15.6740   21.2913 N   0  0  0  0  0  0  0  0  0  0  0  0
    9.5895  -16.6205   22.4191 C   0  0  1  0  0  0  0  0  0  0  0  0
   10.7194  -17.5817   22.1488 C   0  0  0  0  0  0  0  0  0  0  0  0
   10.4218  -18.6548   21.1647 C   0  0  0  0  0  0  0  0  0  0  0  0
   11.6363  -19.5043   21.0051 C   0  0  0  0  0  0  0  0  0  0  0  0
   11.8865  -20.3955   21.8214 O   0  0  0  0  0  0  0  0  0  0  0  0
    9.7497  -15.8899   23.7017 C   0  0  0  0  0  0  0  0  0  0  0  0
   10.8029  -15.2476   23.8811 O   0  0  0  0  0  0  0  0  0  0  0  0
   12.4642  -19.2664   19.9273 O   0  0  0  0  0  0  0  0  0  0  0  0
    5.6419  -11.7688   26.5281 C   0  0  0  0  0  0  0  0  0  0  0  0
    7.2679  -11.8838   27.3180 S   0  0  0  0  0  0  0  0  0  0  0  0
    7.7072  -13.6387   27.4392 C   0  0  0  0  0  0  0  0  0  0  0  0
    7.6314  -14.3246   26.1181 C   0  0  0  0  0  0  0  0  0  0  0  0
    8.8448  -15.1617   25.8788 C   0  0  2  0  0  0  0  0  0  0  0  0
    8.7275  -15.9450   24.6553 N   0  0  0  0  0  0  0  0  0  0  0  0
    9.0963  -16.0633   27.0177 C   0  0  0  0  0  0  0  0  0  0  0  0
    8.9826  -17.3066   27.0168 O   0  0  0  0  0  0  0  0  0  0  0  0
    9.5084  -15.5207   28.2609 O   0  0  0  0  0  0  0  0  0  0  0  0
  1  2  1  0
  2  4  1  0
  2  3  2  0
  4  5  1  0
  5  6  1  0
  6  7  1  6
  8  6  1  0
  8 10  1  0
  9  8  2  0
 10 11  1  0
 11 16  1  0
 11 12  1  6
 13 12  1  0
 13 14  1  0
 14 15  2  0
 16 17  2  0
 16 24  1  0
 18 14  1  0
 19 20  1  0
 20 21  1  0
 22 21  1  0
 23 22  1  1
 23 25  1  0
 24 23  1  0
 25 26  2  0
 25 27  1  0
M  END
$$$$
