QEM.pdb
     RDKit          3D

 27 26  0  0  1  0  0  0  0  0999 V2000
    8.7366  -13.6969   15.5337 N   0  0  0  0  0  0  0  0  0  0  0  0
    7.7792  -13.6099   16.5678 C   0  0  0  0  0  0  0  0  0  0  0  0
    6.5650  -13.6594   16.2949 O   0  0  0  0  0  0  0  0  0  0  0  0
    8.2213  -13.4613   17.9593 C   0  0  0  0  0  0  0  0  0  0  0  0
    9.6926  -13.4000   18.1618 C   0  0  0  0  0  0  0  0  0  0  0  0
   10.1402  -13.2068   19.5877 C   0  0  2  0  0  0  0  0  0  0  0  0
   11.6095  -13.1143   19.5176 N   0  0  0  0  0  0  0  0  0  0  0  0
    9.7360  -14.3874   20.3942 C   0  0  0  0  0  0  0  0  0  0  0  0
    8.5168  -14.5533   20.6537 O   0  0  0  0  0  0  0  0  0  0  0  0
   10.6388  -15.3408   20.8911 N   0  0  0  0  0  0  0  0  0  0  0  0
   10.1747  -16.3486   21.8593 C   0  0  1  0  0  0  0  0  0  0  0  0
   11.0969  -17.5257   21.6660 C   0  0  0  0  0  0  0  0  0  0  0  0
   10.8812  -18.3067   20.4200 C   0  0  0  0  0  0  0  0  0  0  0  0
   11.8446  -19.4440   20.3983 C   0  0  0  0  0  0  0  0  0  0  0  0
   11.5064  -20.5565   20.8121 O   0  0  0  0  0  0  0  0  0  0  0  0
   10.2286  -15.7953   23.2360 C   0  0  0  0  0  0  0  0  0  0  0  0
   11.1996  -15.0746   23.5389 O   0  0  0  0  0  0  0  0  0  0  0  0
   13.1135  -19.2174   19.9064 O   0  0  0  0  0  0  0  0  0  0  0  0
    5.2266  -12.6189   27.1100 C   0  0  0  0  0  0  0  0  0  0  0  0
    6.8586  -12.1212   26.5019 S   0  0  0  0  0  0  0  0  0  0  0  0
    7.9589  -13.5578   26.6149 C   0  0  0  0  0  0  0  0  0  0  0  0
    8.0895  -14.2638   25.3086 C   0  0  0  0  0  0  0  0  0  0  0  0
    9.1058  -15.3551   25.3888 C   0  0  2  0  0  0  0  0  0  0  0  0
    9.2018  -16.0962   24.1375 N   0  0  0  0  0  0  0  0  0  0  0  0
    8.7943  -16.2858   26.4888 C   0  0  0  0  0  0  0  0  0  0  0  0
    8.6127  -15.9823   27.6863 O   0  0  0  0  0  0  0  0  0  0  0  0
    8.6790  -17.6727   26.2194 O   0  0  0  0  0  0  0  0  0  0  0  0
  1  2  1  0
  2  4  1  0
  2  3  2  0
  4  5  1  0
  5  6  1  0
  6  7  1  6
  8  6  1  0
  8 10  1  0
  9  8  2  0
 10 11  1  0
 11 16  1  0
 11 12  1  1
 13 12  1  0
 13 14  1  0
 14 15  2  0
 16 17  2  0
 16 24  1  0
 18 14  1  0
 19 20  1  0
 20 21  1  0
 22 21  1  0
 23 22  1  6
 23 25  1  0
 24 23  1  0
 25 26  2  0
 25 27  1  0
M  END
$$$$
