QEM.pdb
     RDKit          3D

 27 26  0  0  1  0  0  0  0  0999 V2000
    7.1967  -15.1546   15.5825 N   0  0  0  0  0  0  0  0  0  0  0  0
    8.2242  -14.2766   15.9911 C   0  0  0  0  0  0  0  0  0  0  0  0
    9.3925  -14.4656   15.6033 O   0  0  0  0  0  0  0  0  0  0  0  0
    7.9087  -13.1457   16.8716 C   0  0  0  0  0  0  0  0  0  0  0  0
    7.6042  -13.4973   18.2834 C   0  0  0  0  0  0  0  0  0  0  0  0
    8.7712  -13.4198   19.2337 C   0  0  2  0  0  0  0  0  0  0  0  0
    9.9471  -13.7889   18.4252 N   0  0  0  0  0  0  0  0  0  0  0  0
    8.5749  -14.3982   20.3344 C   0  0  0  0  0  0  0  0  0  0  0  0
    7.5659  -14.2798   21.0754 O   0  0  0  0  0  0  0  0  0  0  0  0
    9.4542  -15.4590   20.6034 N   0  0  0  0  0  0  0  0  0  0  0  0
    9.1485  -16.4004   21.6937 C   0  0  1  0  0  0  0  0  0  0  0  0
   10.0888  -17.5596   21.4805 C   0  0  0  0  0  0  0  0  0  0  0  0
   10.0496  -18.6134   22.5278 C   0  0  0  0  0  0  0  0  0  0  0  0
   11.0477  -19.6653   22.1822 C   0  0  0  0  0  0  0  0  0  0  0  0
   11.2300  -20.6249   22.9367 O   0  0  0  0  0  0  0  0  0  0  0  0
    9.3409  -15.7375   23.0082 C   0  0  0  0  0  0  0  0  0  0  0  0
   10.3918  -15.0917   23.1890 O   0  0  0  0  0  0  0  0  0  0  0  0
   11.7547  -19.5348   21.0047 O   0  0  0  0  0  0  0  0  0  0  0  0
    6.9100  -10.9394   27.0111 C   0  0  0  0  0  0  0  0  0  0  0  0
    6.2662  -12.5815   27.4235 S   0  0  0  0  0  0  0  0  0  0  0  0
    7.5474  -13.8005   27.0237 C   0  0  0  0  0  0  0  0  0  0  0  0
    7.4482  -14.2707   25.6128 C   0  0  0  0  0  0  0  0  0  0  0  0
    8.5479  -15.2277   25.2886 C   0  0  2  0  0  0  0  0  0  0  0  0
    8.3502  -15.8569   23.9889 N   0  0  0  0  0  0  0  0  0  0  0  0
    8.6640  -16.2685   26.3262 C   0  0  0  0  0  0  0  0  0  0  0  0
    8.2137  -17.4313   26.2620 O   0  0  0  0  0  0  0  0  0  0  0  0
    9.3416  -15.9763   27.5365 O   0  0  0  0  0  0  0  0  0  0  0  0
  1  2  1  0
  2  4  1  0
  2  3  2  0
  4  5  1  0
  5  6  1  0
  6  7  1  6
  8  6  1  0
  8 10  1  0
  9  8  2  0
 10 11  1  0
 11 16  1  0
 11 12  1  1
 13 12  1  0
 13 14  1  0
 14 15  2  0
 16 17  2  0
 16 24  1  0
 18 14  1  0
 19 20  1  0
 20 21  1  0
 22 21  1  0
 23 22  1  1
 23 25  1  0
 24 23  1  0
 25 26  2  0
 25 27  1  0
M  END
$$$$
