QEM.pdb
     RDKit          3D

 27 26  0  0  1  0  0  0  0  0999 V2000
   10.1843  -12.3619   18.5723 N   0  0  0  0  0  0  0  0  0  0  0  0
    9.0462  -12.7838   17.8511 C   0  0  0  0  0  0  0  0  0  0  0  0
    9.1229  -12.9649   16.6213 O   0  0  0  0  0  0  0  0  0  0  0  0
    7.7784  -13.0064   18.5559 C   0  0  0  0  0  0  0  0  0  0  0  0
    7.8450  -13.9278   19.7206 C   0  0  0  0  0  0  0  0  0  0  0  0
    8.3228  -15.3234   19.4127 C   0  0  2  0  0  0  0  0  0  0  0  0
    7.2119  -15.9536   18.6769 N   0  0  0  0  0  0  0  0  0  0  0  0
    8.5755  -16.0484   20.6847 C   0  0  0  0  0  0  0  0  0  0  0  0
    7.5917  -16.4490   21.3577 O   0  0  0  0  0  0  0  0  0  0  0  0
    9.8575  -16.3181   21.1892 N   0  0  0  0  0  0  0  0  0  0  0  0
   10.0019  -17.0573   22.4547 C   0  0  1  0  0  0  0  0  0  0  0  0
   11.3311  -17.7605   22.3436 C   0  0  0  0  0  0  0  0  0  0  0  0
   11.7763  -18.4791   23.5660 C   0  0  0  0  0  0  0  0  0  0  0  0
   13.0734  -19.1539   23.2756 C   0  0  0  0  0  0  0  0  0  0  0  0
   14.0543  -18.9590   23.9989 O   0  0  0  0  0  0  0  0  0  0  0  0
    9.9418  -16.1182   23.6031 C   0  0  0  0  0  0  0  0  0  0  0  0
   10.6154  -15.0713   23.5380 O   0  0  0  0  0  0  0  0  0  0  0  0
   13.1434  -19.9949   22.1840 O   0  0  0  0  0  0  0  0  0  0  0  0
    7.0167  -11.0198   27.3031 C   0  0  0  0  0  0  0  0  0  0  0  0
    6.4270  -12.7203   27.0995 S   0  0  0  0  0  0  0  0  0  0  0  0
    7.8724  -13.8148   27.0842 C   0  0  0  0  0  0  0  0  0  0  0  0
    7.9154  -14.6640   25.8600 C   0  0  0  0  0  0  0  0  0  0  0  0
    9.1243  -15.5408   25.8585 C   0  0  2  0  0  0  0  0  0  0  0  0
    9.1420  -16.4337   24.7067 N   0  0  0  0  0  0  0  0  0  0  0  0
    9.2008  -16.3354   27.0979 C   0  0  0  0  0  0  0  0  0  0  0  0
    8.9759  -17.5585   27.2082 O   0  0  0  0  0  0  0  0  0  0  0  0
    9.5586  -15.7008   28.3140 O   0  0  0  0  0  0  0  0  0  0  0  0
  1  2  1  0
  2  4  1  0
  2  3  2  0
  4  5  1  0
  5  6  1  0
  6  7  1  1
  8  6  1  0
  8 10  1  0
  9  8  2  0
 10 11  1  0
 11 16  1  0
 11 12  1  6
 13 12  1  0
 13 14  1  0
 14 15  2  0
 16 17  2  0
 16 24  1  0
 18 14  1  0
 19 20  1  0
 20 21  1  0
 22 21  1  0
 23 22  1  1
 23 25  1  0
 24 23  1  0
 25 26  2  0
 25 27  1  0
M  END
$$$$
