QEM.pdb
     RDKit          3D

 27 26  0  0  1  0  0  0  0  0999 V2000
   10.1384  -13.3464   19.2288 N   0  0  0  0  0  0  0  0  0  0  0  0
    8.9297  -13.0867   18.5469 C   0  0  0  0  0  0  0  0  0  0  0  0
    8.9497  -12.4895   17.4543 O   0  0  0  0  0  0  0  0  0  0  0  0
    7.6557  -13.5225   19.1308 C   0  0  0  0  0  0  0  0  0  0  0  0
    7.7581  -14.2529   20.4215 C   0  0  0  0  0  0  0  0  0  0  0  0
    8.2983  -15.6565   20.3274 C   0  0  2  0  0  0  0  0  0  0  0  0
    7.2955  -16.3999   19.5437 N   0  0  0  0  0  0  0  0  0  0  0  0
    8.4147  -16.2311   21.6926 C   0  0  0  0  0  0  0  0  0  0  0  0
    7.5001  -16.9861   22.1106 O   0  0  0  0  0  0  0  0  0  0  0  0
    9.4932  -15.9821   22.5562 N   0  0  0  0  0  0  0  0  0  0  0  0
    9.5967  -16.7221   23.8251 C   0  0  1  0  0  0  0  0  0  0  0  0
   10.5782  -17.8326   23.5476 C   0  0  0  0  0  0  0  0  0  0  0  0
   10.9364  -18.6743   24.7190 C   0  0  0  0  0  0  0  0  0  0  0  0
   11.9489  -19.6807   24.2900 C   0  0  0  0  0  0  0  0  0  0  0  0
   11.7397  -20.3969   23.3068 O   0  0  0  0  0  0  0  0  0  0  0  0
   10.0470  -15.8135   24.9096 C   0  0  0  0  0  0  0  0  0  0  0  0
   11.1214  -15.2014   24.7510 O   0  0  0  0  0  0  0  0  0  0  0  0
   13.1160  -19.7863   25.0184 O   0  0  0  0  0  0  0  0  0  0  0  0
    6.2763  -10.5915   25.7844 C   0  0  0  0  0  0  0  0  0  0  0  0
    6.5810  -11.8769   27.0237 S   0  0  0  0  0  0  0  0  0  0  0  0
    8.0543  -12.8040   26.5165 C   0  0  0  0  0  0  0  0  0  0  0  0
    8.3881  -13.8907   27.4804 C   0  0  0  0  0  0  0  0  0  0  0  0
    9.5969  -14.6474   27.0371 C   0  0  2  0  0  0  0  0  0  0  0  0
    9.2620  -15.6750   26.0593 N   0  0  0  0  0  0  0  0  0  0  0  0
   10.2821  -15.2665   28.1862 C   0  0  0  0  0  0  0  0  0  0  0  0
   10.9078  -14.6677   29.0855 O   0  0  0  0  0  0  0  0  0  0  0  0
   10.2626  -16.6762   28.3349 O   0  0  0  0  0  0  0  0  0  0  0  0
  1  2  1  0
  2  4  1  0
  2  3  2  0
  4  5  1  0
  5  6  1  0
  6  7  1  6
  8  6  1  0
  8 10  1  0
  9  8  2  0
 10 11  1  0
 11 16  1  0
 11 12  1  6
 13 12  1  0
 13 14  1  0
 14 15  2  0
 16 17  2  0
 16 24  1  0
 18 14  1  0
 19 20  1  0
 20 21  1  0
 22 21  1  0
 23 22  1  1
 23 25  1  0
 24 23  1  0
 25 26  2  0
 25 27  1  0
M  END
$$$$
