QEM.pdb
     RDKit          3D

 27 26  0  0  1  0  0  0  0  0999 V2000
    7.6430  -15.4310   16.2353 N   0  0  0  0  0  0  0  0  0  0  0  0
    7.7199  -14.0354   16.0358 C   0  0  0  0  0  0  0  0  0  0  0  0
    7.8158  -13.5780   14.8814 O   0  0  0  0  0  0  0  0  0  0  0  0
    7.6866  -13.1314   17.1914 C   0  0  0  0  0  0  0  0  0  0  0  0
    7.5304  -13.7885   18.5156 C   0  0  0  0  0  0  0  0  0  0  0  0
    8.6464  -13.5370   19.4964 C   0  0  2  0  0  0  0  0  0  0  0  0
    9.8857  -13.7209   18.7200 N   0  0  0  0  0  0  0  0  0  0  0  0
    8.5720  -14.5368   20.5929 C   0  0  0  0  0  0  0  0  0  0  0  0
    7.5614  -14.5389   21.3413 O   0  0  0  0  0  0  0  0  0  0  0  0
    9.5696  -15.4905   20.8501 N   0  0  0  0  0  0  0  0  0  0  0  0
    9.3601  -16.4982   21.9033 C   0  0  1  0  0  0  0  0  0  0  0  0
   10.3925  -17.5631   21.6321 C   0  0  0  0  0  0  0  0  0  0  0  0
   10.4753  -18.6443   22.6485 C   0  0  0  0  0  0  0  0  0  0  0  0
   11.5266  -19.6138   22.2275 C   0  0  0  0  0  0  0  0  0  0  0  0
   11.6045  -19.9783   21.0509 O   0  0  0  0  0  0  0  0  0  0  0  0
    9.5137  -15.8753   23.2423 C   0  0  0  0  0  0  0  0  0  0  0  0
   10.5409  -15.2034   23.4601 O   0  0  0  0  0  0  0  0  0  0  0  0
   12.4014  -20.0866   23.1839 O   0  0  0  0  0  0  0  0  0  0  0  0
    7.2876  -10.6689   27.3937 C   0  0  0  0  0  0  0  0  0  0  0  0
    6.6127  -12.2614   26.8558 S   0  0  0  0  0  0  0  0  0  0  0  0
    8.0008  -13.3180   26.3614 C   0  0  0  0  0  0  0  0  0  0  0  0
    7.5507  -14.6867   25.9796 C   0  0  0  0  0  0  0  0  0  0  0  0
    8.7056  -15.5294   25.5480 C   0  0  2  0  0  0  0  0  0  0  0  0
    8.5144  -16.0597   24.2039 N   0  0  0  0  0  0  0  0  0  0  0  0
    8.9268  -16.6426   26.4889 C   0  0  0  0  0  0  0  0  0  0  0  0
    9.2722  -16.5436   27.6846 O   0  0  0  0  0  0  0  0  0  0  0  0
    8.7457  -17.9774   26.0474 O   0  0  0  0  0  0  0  0  0  0  0  0
  1  2  1  0
  2  4  1  0
  2  3  2  0
  4  5  1  0
  5  6  1  0
  6  7  1  6
  8  6  1  0
  8 10  1  0
  9  8  2  0
 10 11  1  0
 11 16  1  0
 11 12  1  6
 13 12  1  0
 13 14  1  0
 14 15  2  0
 16 17  2  0
 16 24  1  0
 18 14  1  0
 19 20  1  0
 20 21  1  0
 22 21  1  0
 23 22  1  1
 23 25  1  0
 24 23  1  0
 25 26  2  0
 25 27  1  0
M  END
$$$$
