QEM.pdb
     RDKit          3D

 27 26  0  0  1  0  0  0  0  0999 V2000
   10.3026  -13.6391   19.4637 N   0  0  0  0  0  0  0  0  0  0  0  0
    9.3934  -12.8764   18.6986 C   0  0  0  0  0  0  0  0  0  0  0  0
    9.8194  -12.0193   17.9018 O   0  0  0  0  0  0  0  0  0  0  0  0
    7.9504  -13.0986   18.8476 C   0  0  0  0  0  0  0  0  0  0  0  0
    7.5581  -14.1002   19.8736 C   0  0  0  0  0  0  0  0  0  0  0  0
    8.0651  -15.4993   19.6363 C   0  0  2  0  0  0  0  0  0  0  0  0
    6.9627  -16.1930   18.9463 N   0  0  0  0  0  0  0  0  0  0  0  0
    8.3452  -16.1490   20.9428 C   0  0  0  0  0  0  0  0  0  0  0  0
    7.3771  -16.5479   21.6392 O   0  0  0  0  0  0  0  0  0  0  0  0
    9.6367  -16.3484   21.4557 N   0  0  0  0  0  0  0  0  0  0  0  0
    9.8150  -17.1017   22.7084 C   0  0  1  0  0  0  0  0  0  0  0  0
   11.0846  -17.8904   22.5094 C   0  0  0  0  0  0  0  0  0  0  0  0
   11.0683  -18.8486   21.3734 C   0  0  0  0  0  0  0  0  0  0  0  0
   12.2667  -18.5987   20.5227 C   0  0  0  0  0  0  0  0  0  0  0  0
   12.1541  -18.5066   19.2971 O   0  0  0  0  0  0  0  0  0  0  0  0
    9.8930  -16.1663   23.8588 C   0  0  0  0  0  0  0  0  0  0  0  0
   10.9030  -15.4421   23.9560 O   0  0  0  0  0  0  0  0  0  0  0  0
   13.4938  -18.4747   21.1412 O   0  0  0  0  0  0  0  0  0  0  0  0
    6.1324  -10.9343   26.0080 C   0  0  0  0  0  0  0  0  0  0  0  0
    6.1313  -12.6405   26.6161 S   0  0  0  0  0  0  0  0  0  0  0  0
    7.6364  -13.4503   26.0109 C   0  0  0  0  0  0  0  0  0  0  0  0
    7.7885  -14.8268   26.5618 C   0  0  0  0  0  0  0  0  0  0  0  0
    9.0445  -15.4659   26.0675 C   0  0  2  0  0  0  0  0  0  0  0  0
    8.8447  -16.1278   24.7845 N   0  0  0  0  0  0  0  0  0  0  0  0
    9.5622  -16.4383   27.0472 C   0  0  0  0  0  0  0  0  0  0  0  0
    9.3400  -17.6668   27.0592 O   0  0  0  0  0  0  0  0  0  0  0  0
   10.3978  -15.9910   28.1013 O   0  0  0  0  0  0  0  0  0  0  0  0
  1  2  1  0
  2  4  1  0
  2  3  2  0
  4  5  1  0
  5  6  1  0
  6  7  1  1
  8  6  1  0
  8 10  1  0
  9  8  2  0
 10 11  1  0
 11 16  1  0
 11 12  1  6
 13 12  1  0
 13 14  1  0
 14 15  2  0
 16 17  2  0
 16 24  1  0
 18 14  1  0
 19 20  1  0
 20 21  1  0
 22 21  1  0
 23 22  1  1
 23 25  1  0
 24 23  1  0
 25 26  2  0
 25 27  1  0
M  END
$$$$
