LAD.pdb
     RDKit          3D

 22 21  0  0  1  0  0  0  0  0999 V2000
   22.8741  -32.9419   -4.1032 C   0  0  0  0  0  0  0  0  0  0  0  0
   23.8458  -34.0648   -4.4225 C   0  0  2  0  0  0  0  0  0  0  0  0
   23.0692  -35.2909   -4.8342 C   0  0  0  0  0  0  0  0  0  0  0  0
   24.7821  -34.3287   -3.2857 C   0  0  0  0  0  0  0  0  0  0  0  0
   25.5847  -33.1457   -2.8760 C   0  0  2  0  0  0  0  0  0  0  0  0
   26.4091  -32.6294   -3.9566 N   0  0  0  0  0  0  0  0  0  0  0  0
   26.4651  -33.3576   -1.7100 C   0  0  0  0  0  0  0  0  0  0  0  0
   27.5806  -33.9159   -1.7912 O   0  0  0  0  0  0  0  0  0  0  0  0
   26.3679  -32.4462    1.9991 C   0  0  0  0  0  0  0  0  0  0  0  0
   26.8904  -33.1272    0.7824 C   0  0  2  0  0  0  0  0  0  0  0  0
   26.0955  -32.9315   -0.3877 N   0  0  0  0  0  0  0  0  0  0  0  0
   27.1585  -34.5524    1.0767 C   0  0  0  0  0  0  0  0  0  0  0  0
   26.4023  -35.4845    0.7372 O   0  0  0  0  0  0  0  0  0  0  0  0
   28.3465  -34.8751    1.7870 N   0  0  0  0  0  0  0  0  0  0  0  0
   28.6918  -36.2027    2.2129 C   0  0  1  0  0  0  0  0  0  0  0  0
   30.1734  -36.3665    2.3323 C   0  0  0  0  0  0  0  0  0  0  0  0
   30.5853  -37.7299    2.6873 C   0  0  0  0  0  0  0  0  0  0  0  0
   29.6970  -38.6249    2.7093 O   0  0  0  0  0  0  0  0  0  0  0  0
   27.9476  -36.6748    3.3736 C   0  0  0  0  0  0  0  0  0  0  0  0
   27.4975  -37.9727    3.4172 O   0  0  0  0  0  0  0  0  0  0  0  0
   31.8713  -38.0752    2.9931 O   0  0  0  0  0  0  0  0  0  0  0  0
   27.7131  -35.9160    4.3291 O   0  0  0  0  0  0  0  0  0  0  0  0
  2  3  1  1
  2  1  1  0
  4  2  1  0
  4  5  1  0
  5  7  1  0
  5  6  1  6
  7  8  2  0
 10  9  1  1
 10 12  1  0
 11  7  1  0
 11 10  1  0
 12 13  2  0
 14 12  1  0
 14 15  1  0
 15 19  1  0
 16 17  1  0
 15 16  1  1
 17 21  1  0
 17 18  2  0
 19 22  2  0
 19 20  1  0
M  END
$$$$
