LAD.pdb
     RDKit          3D

 22 21  0  0  1  0  0  0  0  0999 V2000
   25.7733  -20.7074   -6.9133 C   0  0  0  0  0  0  0  0  0  0  0  0
   26.9543  -20.3628   -7.8040 C   0  0  2  0  0  0  0  0  0  0  0  0
   27.8802  -19.4311   -7.0620 C   0  0  0  0  0  0  0  0  0  0  0  0
   26.5126  -19.8096   -9.1221 C   0  0  0  0  0  0  0  0  0  0  0  0
   25.7489  -20.7740   -9.9576 C   0  0  2  0  0  0  0  0  0  0  0  0
   26.3720  -22.0868  -10.0048 N   0  0  0  0  0  0  0  0  0  0  0  0
   25.5108  -20.3468  -11.3506 C   0  0  0  0  0  0  0  0  0  0  0  0
   25.1475  -19.1903  -11.6558 O   0  0  0  0  0  0  0  0  0  0  0  0
   26.2645  -21.6733  -14.8040 C   0  0  0  0  0  0  0  0  0  0  0  0
   25.4515  -20.8954  -13.8288 C   0  0  2  0  0  0  0  0  0  0  0  0
   25.6827  -21.2414  -12.4628 N   0  0  0  0  0  0  0  0  0  0  0  0
   24.0228  -20.9419  -14.2111 C   0  0  0  0  0  0  0  0  0  0  0  0
   23.5981  -20.6384  -15.3440 O   0  0  0  0  0  0  0  0  0  0  0  0
   23.0824  -21.3566  -13.2294 N   0  0  0  0  0  0  0  0  0  0  0  0
   21.6608  -21.3694  -13.4341 C   0  0  1  0  0  0  0  0  0  0  0  0
   21.1091  -22.7551  -13.3253 C   0  0  0  0  0  0  0  0  0  0  0  0
   20.6373  -23.2998  -14.6041 C   0  0  0  0  0  0  0  0  0  0  0  0
   20.6863  -22.5489  -15.6162 O   0  0  0  0  0  0  0  0  0  0  0  0
   20.9316  -20.3780  -12.6536 C   0  0  0  0  0  0  0  0  0  0  0  0
   19.6474  -20.0381  -13.0061 O   0  0  0  0  0  0  0  0  0  0  0  0
   20.1514  -24.5680  -14.7519 O   0  0  0  0  0  0  0  0  0  0  0  0
   21.4578  -19.8329  -11.6689 O   0  0  0  0  0  0  0  0  0  0  0  0
  2  3  1  1
  2  1  1  0
  4  2  1  0
  4  5  1  0
  5  7  1  0
  5  6  1  6
  7  8  2  0
 10  9  1  6
 10 12  1  0
 11  7  1  0
 11 10  1  0
 12 13  2  0
 14 12  1  0
 14 15  1  0
 15 19  1  0
 16 17  1  0
 15 16  1  1
 17 21  1  0
 17 18  2  0
 19 22  2  0
 19 20  1  0
M  END
$$$$
