LAD.pdb
     RDKit          3D

 22 21  0  0  1  0  0  0  0  0999 V2000
   19.1411  -19.0849  -17.6630 C   0  0  0  0  0  0  0  0  0  0  0  0
   19.3292  -19.1314  -16.1565 C   0  0  2  0  0  0  0  0  0  0  0  0
   17.9901  -19.3456  -15.4956 C   0  0  0  0  0  0  0  0  0  0  0  0
   20.0367  -17.9152  -15.6476 C   0  0  0  0  0  0  0  0  0  0  0  0
   21.3248  -17.6327  -16.3349 C   0  0  2  0  0  0  0  0  0  0  0  0
   22.4124  -18.4643  -15.8455 N   0  0  0  0  0  0  0  0  0  0  0  0
   21.7768  -16.2289  -16.2691 C   0  0  0  0  0  0  0  0  0  0  0  0
   22.2453  -15.7119  -15.2319 O   0  0  0  0  0  0  0  0  0  0  0  0
   22.7155  -13.5858  -18.7751 C   0  0  0  0  0  0  0  0  0  0  0  0
   22.2235  -14.0199  -17.4384 C   0  0  2  0  0  0  0  0  0  0  0  0
   21.7084  -15.3514  -17.4059 N   0  0  0  0  0  0  0  0  0  0  0  0
   21.2834  -13.0147  -16.8950 C   0  0  0  0  0  0  0  0  0  0  0  0
   20.0435  -13.1518  -16.8988 O   0  0  0  0  0  0  0  0  0  0  0  0
   21.8267  -11.8258  -16.3371 N   0  0  0  0  0  0  0  0  0  0  0  0
   21.0334  -10.7562  -15.7986 C   0  0  1  0  0  0  0  0  0  0  0  0
   21.8860   -9.7495  -15.0943 C   0  0  0  0  0  0  0  0  0  0  0  0
   21.1234   -8.6321  -14.5247 C   0  0  0  0  0  0  0  0  0  0  0  0
   19.8673   -8.6622  -14.6336 O   0  0  0  0  0  0  0  0  0  0  0  0
   20.0869  -10.1752  -16.7422 C   0  0  0  0  0  0  0  0  0  0  0  0
   20.5479   -9.5086  -17.8522 O   0  0  0  0  0  0  0  0  0  0  0  0
   21.7008   -7.5699  -13.8885 O   0  0  0  0  0  0  0  0  0  0  0  0
   18.8625  -10.2748  -16.5560 O   0  0  0  0  0  0  0  0  0  0  0  0
  2  3  1  1
  2  1  1  0
  4  2  1  0
  4  5  1  0
  5  7  1  0
  5  6  1  1
  7  8  2  0
 10  9  1  6
 10 12  1  0
 11  7  1  0
 11 10  1  0
 12 13  2  0
 14 12  1  0
 14 15  1  0
 15 19  1  0
 16 17  1  0
 15 16  1  6
 17 21  1  0
 17 18  2  0
 19 22  2  0
 19 20  1  0
M  END
$$$$
