LAD.pdb
     RDKit          3D

 22 21  0  0  1  0  0  0  0  0999 V2000
   17.1037  -14.4802  -18.2901 C   0  0  0  0  0  0  0  0  0  0  0  0
   16.7202  -14.6941  -16.8360 C   0  0  2  0  0  0  0  0  0  0  0  0
   15.5606  -15.6566  -16.7652 C   0  0  0  0  0  0  0  0  0  0  0  0
   16.4400  -13.3998  -16.1397 C   0  0  0  0  0  0  0  0  0  0  0  0
   17.5578  -12.4213  -16.2089 C   0  0  2  0  0  0  0  0  0  0  0  0
   18.7786  -12.9251  -15.6008 N   0  0  0  0  0  0  0  0  0  0  0  0
   17.2757  -11.1025  -15.6084 C   0  0  0  0  0  0  0  0  0  0  0  0
   16.2827  -10.4102  -15.9202 O   0  0  0  0  0  0  0  0  0  0  0  0
   18.7062   -9.0312  -12.7514 C   0  0  0  0  0  0  0  0  0  0  0  0
   17.9149   -9.2505  -13.9935 C   0  0  2  0  0  0  0  0  0  0  0  0
   18.1332  -10.5185  -14.6132 N   0  0  0  0  0  0  0  0  0  0  0  0
   18.0966   -8.1085  -14.9168 C   0  0  0  0  0  0  0  0  0  0  0  0
   18.8206   -8.1461  -15.9319 O   0  0  0  0  0  0  0  0  0  0  0  0
   17.4056   -6.9005  -14.6282 N   0  0  0  0  0  0  0  0  0  0  0  0
   17.4208   -5.7437  -15.4795 C   0  0  1  0  0  0  0  0  0  0  0  0
   16.1637   -4.9468  -15.3350 C   0  0  0  0  0  0  0  0  0  0  0  0
   14.9608   -5.6661  -15.7711 C   0  0  0  0  0  0  0  0  0  0  0  0
   15.0477   -6.3835  -16.8047 O   0  0  0  0  0  0  0  0  0  0  0  0
   18.6396   -4.9494  -15.3934 C   0  0  0  0  0  0  0  0  0  0  0  0
   19.5694   -5.2250  -14.4194 O   0  0  0  0  0  0  0  0  0  0  0  0
   13.7619   -5.5978  -15.1197 O   0  0  0  0  0  0  0  0  0  0  0  0
   18.8507   -4.0217  -16.1924 O   0  0  0  0  0  0  0  0  0  0  0  0
  2  3  1  6
  2  1  1  0
  4  2  1  0
  4  5  1  0
  5  7  1  0
  5  6  1  1
  7  8  2  0
 10  9  1  1
 10 12  1  0
 11  7  1  0
 11 10  1  0
 12 13  2  0
 14 12  1  0
 14 15  1  0
 15 19  1  0
 16 17  1  0
 15 16  1  1
 17 21  1  0
 17 18  2  0
 19 22  2  0
 19 20  1  0
M  END
$$$$
