LAD.pdb
     RDKit          3D

 22 21  0  0  1  0  0  0  0  0999 V2000
   24.4336  -16.0104  -15.5081 C   0  0  0  0  0  0  0  0  0  0  0  0
   25.6714  -15.2958  -16.0223 C   0  0  2  0  0  0  0  0  0  0  0  0
   26.8851  -15.8216  -15.2970 C   0  0  0  0  0  0  0  0  0  0  0  0
   25.5364  -13.8092  -15.9204 C   0  0  0  0  0  0  0  0  0  0  0  0
   24.3183  -13.2658  -16.5779 C   0  0  2  0  0  0  0  0  0  0  0  0
   24.0599  -13.8812  -17.8696 N   0  0  0  0  0  0  0  0  0  0  0  0
   24.3109  -11.8028  -16.7752 C   0  0  0  0  0  0  0  0  0  0  0  0
   24.5746  -10.9909  -15.8621 O   0  0  0  0  0  0  0  0  0  0  0  0
   23.8290   -9.4423  -19.7382 C   0  0  0  0  0  0  0  0  0  0  0  0
   23.9746   -9.8011  -18.3005 C   0  0  2  0  0  0  0  0  0  0  0  0
   23.9968  -11.2059  -18.0448 N   0  0  0  0  0  0  0  0  0  0  0  0
   22.9688   -9.0748  -17.4939 C   0  0  0  0  0  0  0  0  0  0  0  0
   21.8160   -9.4992  -17.2776 O   0  0  0  0  0  0  0  0  0  0  0  0
   23.3401   -7.8221  -16.9347 N   0  0  0  0  0  0  0  0  0  0  0  0
   22.4728   -7.0179  -16.1197 C   0  0  1  0  0  0  0  0  0  0  0  0
   23.2002   -6.4619  -14.9373 C   0  0  0  0  0  0  0  0  0  0  0  0
   22.3566   -5.6344  -14.0666 C   0  0  0  0  0  0  0  0  0  0  0  0
   21.1110   -5.6555  -14.2631 O   0  0  0  0  0  0  0  0  0  0  0  0
   21.6992   -6.0286  -16.8589 C   0  0  0  0  0  0  0  0  0  0  0  0
   20.4057   -5.7519  -16.4855 O   0  0  0  0  0  0  0  0  0  0  0  0
   22.8486   -4.8487  -13.0630 O   0  0  0  0  0  0  0  0  0  0  0  0
   22.1955   -5.4286  -17.8272 O   0  0  0  0  0  0  0  0  0  0  0  0
  2  3  1  1
  2  1  1  0
  4  2  1  0
  4  5  1  0
  5  7  1  0
  5  6  1  6
  7  8  2  0
 10  9  1  6
 10 12  1  0
 11  7  1  0
 11 10  1  0
 12 13  2  0
 14 12  1  0
 14 15  1  0
 15 19  1  0
 16 17  1  0
 15 16  1  1
 17 21  1  0
 17 18  2  0
 19 22  2  0
 19 20  1  0
M  END
$$$$
