LAD.pdb
     RDKit          3D

 22 21  0  0  1  0  0  0  0  0999 V2000
   16.8955  -13.4791  -18.4656 C   0  0  0  0  0  0  0  0  0  0  0  0
   18.0292  -12.4814  -18.6286 C   0  0  2  0  0  0  0  0  0  0  0  0
   19.0555  -13.0475  -19.5784 C   0  0  0  0  0  0  0  0  0  0  0  0
   18.6169  -12.0887  -17.3099 C   0  0  0  0  0  0  0  0  0  0  0  0
   19.4383  -10.8500  -17.3584 C   0  0  2  0  0  0  0  0  0  0  0  0
   20.6553  -11.0177  -18.1362 N   0  0  0  0  0  0  0  0  0  0  0  0
   19.8253  -10.3015  -16.0436 C   0  0  0  0  0  0  0  0  0  0  0  0
   19.0136  -10.1413  -15.1065 O   0  0  0  0  0  0  0  0  0  0  0  0
   23.0344   -9.7313  -14.1597 C   0  0  0  0  0  0  0  0  0  0  0  0
   21.6203   -9.4020  -14.4895 C   0  0  2  0  0  0  0  0  0  0  0  0
   21.1767   -9.9101  -15.7483 N   0  0  0  0  0  0  0  0  0  0  0  0
   21.3894   -7.9491  -14.3302 C   0  0  0  0  0  0  0  0  0  0  0  0
   21.6434   -7.3173  -13.2850 O   0  0  0  0  0  0  0  0  0  0  0  0
   20.8469   -7.2347  -15.4326 N   0  0  0  0  0  0  0  0  0  0  0  0
   20.5604   -5.8273  -15.4148 C   0  0  1  0  0  0  0  0  0  0  0  0
   21.3173   -5.1056  -16.4837 C   0  0  0  0  0  0  0  0  0  0  0  0
   22.7693   -5.0968  -16.2689 C   0  0  0  0  0  0  0  0  0  0  0  0
   23.1949   -4.7084  -15.1471 O   0  0  0  0  0  0  0  0  0  0  0  0
   19.1403   -5.5030  -15.3719 C   0  0  0  0  0  0  0  0  0  0  0  0
   18.6861   -4.5266  -14.5180 O   0  0  0  0  0  0  0  0  0  0  0  0
   23.6754   -5.4842  -17.2152 O   0  0  0  0  0  0  0  0  0  0  0  0
   18.3302   -6.1004  -16.1005 O   0  0  0  0  0  0  0  0  0  0  0  0
  2  3  1  6
  2  1  1  0
  4  2  1  0
  4  5  1  0
  5  7  1  0
  5  6  1  6
  7  8  2  0
 10  9  1  6
 10 12  1  0
 11  7  1  0
 11 10  1  0
 12 13  2  0
 14 12  1  0
 14 15  1  0
 15 19  1  0
 16 17  1  0
 15 16  1  6
 17 21  1  0
 17 18  2  0
 19 22  2  0
 19 20  1  0
M  END
$$$$
