LAD.pdb
     RDKit          3D

 22 21  0  0  1  0  0  0  0  0999 V2000
   18.8801  -16.2081  -15.8578 C   0  0  0  0  0  0  0  0  0  0  0  0
   17.4620  -15.9721  -16.3484 C   0  0  2  0  0  0  0  0  0  0  0  0
   17.2019  -16.8438  -17.5519 C   0  0  0  0  0  0  0  0  0  0  0  0
   17.2015  -14.5235  -16.6171 C   0  0  0  0  0  0  0  0  0  0  0  0
   17.1960  -13.6734  -15.3969 C   0  0  2  0  0  0  0  0  0  0  0  0
   16.4173  -14.2547  -14.3154 N   0  0  0  0  0  0  0  0  0  0  0  0
   16.7144  -12.2922  -15.5963 C   0  0  0  0  0  0  0  0  0  0  0  0
   17.0957  -11.5673  -16.5406 O   0  0  0  0  0  0  0  0  0  0  0  0
   14.1428  -10.0152  -13.9292 C   0  0  0  0  0  0  0  0  0  0  0  0
   15.2876  -10.3389  -14.8246 C   0  0  2  0  0  0  0  0  0  0  0  0
   15.7635  -11.6803  -14.7084 N   0  0  0  0  0  0  0  0  0  0  0  0
   16.3531   -9.3239  -14.6698 C   0  0  0  0  0  0  0  0  0  0  0  0
   17.5220   -9.5927  -14.3270 O   0  0  0  0  0  0  0  0  0  0  0  0
   16.0233   -7.9656  -14.9270 N   0  0  0  0  0  0  0  0  0  0  0  0
   16.9774   -6.8918  -14.9164 C   0  0  1  0  0  0  0  0  0  0  0  0
   18.1586   -7.2067  -15.7777 C   0  0  0  0  0  0  0  0  0  0  0  0
   19.1004   -6.0887  -15.9116 C   0  0  0  0  0  0  0  0  0  0  0  0
   19.1055   -5.4522  -17.0003 O   0  0  0  0  0  0  0  0  0  0  0  0
   16.4028   -5.5742  -15.1565 C   0  0  0  0  0  0  0  0  0  0  0  0
   15.1040   -5.4623  -15.5919 O   0  0  0  0  0  0  0  0  0  0  0  0
   19.9648   -5.7068  -14.9250 O   0  0  0  0  0  0  0  0  0  0  0  0
   17.0746   -4.5454  -14.9720 O   0  0  0  0  0  0  0  0  0  0  0  0
  2  3  1  6
  2  1  1  0
  4  2  1  0
  4  5  1  0
  5  7  1  0
  5  6  1  1
  7  8  2  0
 10  9  1  1
 10 12  1  0
 11  7  1  0
 11 10  1  0
 12 13  2  0
 14 12  1  0
 14 15  1  0
 15 19  1  0
 16 17  1  0
 15 16  1  6
 17 21  1  0
 17 18  2  0
 19 22  2  0
 19 20  1  0
M  END
$$$$
