LAD.pdb
     RDKit          3D

 22 21  0  0  1  0  0  0  0  0999 V2000
   23.0640  -15.2808  -15.4147 C   0  0  0  0  0  0  0  0  0  0  0  0
   24.1869  -14.4208  -15.9687 C   0  0  2  0  0  0  0  0  0  0  0  0
   25.3937  -14.5424  -15.0717 C   0  0  0  0  0  0  0  0  0  0  0  0
   23.7540  -13.0022  -16.1657 C   0  0  0  0  0  0  0  0  0  0  0  0
   22.5829  -12.8469  -17.0688 C   0  0  2  0  0  0  0  0  0  0  0  0
   22.8178  -13.4096  -18.3888 N   0  0  0  0  0  0  0  0  0  0  0  0
   22.1140  -11.4596  -17.2561 C   0  0  0  0  0  0  0  0  0  0  0  0
   22.8263  -10.5612  -17.7542 O   0  0  0  0  0  0  0  0  0  0  0  0
   18.8152   -9.6551  -17.2888 C   0  0  0  0  0  0  0  0  0  0  0  0
   20.2798   -9.7191  -17.0280 C   0  0  2  0  0  0  0  0  0  0  0  0
   20.7920  -11.0432  -16.8744 N   0  0  0  0  0  0  0  0  0  0  0  0
   20.6331   -8.8207  -15.9065 C   0  0  0  0  0  0  0  0  0  0  0  0
   20.8233   -9.2127  -14.7377 O   0  0  0  0  0  0  0  0  0  0  0  0
   20.7627   -7.4318  -16.1794 N   0  0  0  0  0  0  0  0  0  0  0  0
   21.0500   -6.4407  -15.1802 C   0  0  1  0  0  0  0  0  0  0  0  0
   22.0466   -5.4424  -15.6767 C   0  0  0  0  0  0  0  0  0  0  0  0
   22.3802   -4.4077  -14.6905 C   0  0  0  0  0  0  0  0  0  0  0  0
   21.8770   -4.5099  -13.5386 O   0  0  0  0  0  0  0  0  0  0  0  0
   19.8698   -5.8455  -14.5665 C   0  0  0  0  0  0  0  0  0  0  0  0
   19.8210   -5.6697  -13.2043 O   0  0  0  0  0  0  0  0  0  0  0  0
   23.2009   -3.3481  -14.9554 O   0  0  0  0  0  0  0  0  0  0  0  0
   18.9020   -5.4930  -15.2615 O   0  0  0  0  0  0  0  0  0  0  0  0
  2  3  1  1
  2  1  1  0
  4  2  1  0
  4  5  1  0
  5  7  1  0
  5  6  1  6
  7  8  2  0
 10  9  1  1
 10 12  1  0
 11  7  1  0
 11 10  1  0
 12 13  2  0
 14 12  1  0
 14 15  1  0
 15 19  1  0
 16 17  1  0
 15 16  1  6
 17 21  1  0
 17 18  2  0
 19 22  2  0
 19 20  1  0
M  END
$$$$
