LAD.pdb
     RDKit          3D

 22 21  0  0  1  0  0  0  0  0999 V2000
   34.6652  -37.7693   -5.4896 C   0  0  0  0  0  0  0  0  0  0  0  0
   34.6760  -36.2975   -5.8652 C   0  0  2  0  0  0  0  0  0  0  0  0
   36.1006  -35.8017   -5.8878 C   0  0  0  0  0  0  0  0  0  0  0  0
   33.7968  -35.4884   -4.9646 C   0  0  0  0  0  0  0  0  0  0  0  0
   32.3869  -35.9584   -4.9138 C   0  0  2  0  0  0  0  0  0  0  0  0
   31.7545  -35.9683   -6.2230 N   0  0  0  0  0  0  0  0  0  0  0  0
   31.5056  -35.2022   -4.0022 C   0  0  0  0  0  0  0  0  0  0  0  0
   31.8291  -34.9062   -2.8316 O   0  0  0  0  0  0  0  0  0  0  0  0
   28.1313  -33.4445   -4.2690 C   0  0  0  0  0  0  0  0  0  0  0  0
   29.2806  -34.0644   -3.5536 C   0  0  2  0  0  0  0  0  0  0  0  0
   30.2013  -34.7498   -4.4033 N   0  0  0  0  0  0  0  0  0  0  0  0
   28.7891  -34.8951   -2.4319 C   0  0  0  0  0  0  0  0  0  0  0  0
   28.6037  -36.1262   -2.5103 O   0  0  0  0  0  0  0  0  0  0  0  0
   28.5132  -34.2510   -1.1954 N   0  0  0  0  0  0  0  0  0  0  0  0
   27.9827  -34.9219   -0.0414 C   0  0  1  0  0  0  0  0  0  0  0  0
   28.2988  -34.1740    1.2144 C   0  0  0  0  0  0  0  0  0  0  0  0
   27.8323  -34.8492    2.4314 C   0  0  0  0  0  0  0  0  0  0  0  0
   27.2811  -35.9763    2.3033 O   0  0  0  0  0  0  0  0  0  0  0  0
   26.5841  -35.3127   -0.1627 C   0  0  0  0  0  0  0  0  0  0  0  0
   26.2080  -36.6060    0.1107 O   0  0  0  0  0  0  0  0  0  0  0  0
   27.9635  -34.3225    3.6851 O   0  0  0  0  0  0  0  0  0  0  0  0
   25.7224  -34.4883   -0.5119 O   0  0  0  0  0  0  0  0  0  0  0  0
  2  3  1  1
  2  1  1  0
  4  2  1  0
  4  5  1  0
  5  7  1  0
  5  6  1  6
  7  8  2  0
 10  9  1  6
 10 12  1  0
 11  7  1  0
 11 10  1  0
 12 13  2  0
 14 12  1  0
 14 15  1  0
 15 19  1  0
 16 17  1  0
 15 16  1  1
 17 21  1  0
 17 18  2  0
 19 22  2  0
 19 20  1  0
M  END
$$$$
