LAD.pdb
     RDKit          3D

 22 21  0  0  1  0  0  0  0  0999 V2000
   28.2385  -20.6021   -4.3932 C   0  0  0  0  0  0  0  0  0  0  0  0
   28.3741  -19.5494   -5.4798 C   0  0  2  0  0  0  0  0  0  0  0  0
   28.6571  -18.2118   -4.8422 C   0  0  0  0  0  0  0  0  0  0  0  0
   27.1769  -19.5203   -6.3767 C   0  0  0  0  0  0  0  0  0  0  0  0
   27.0964  -20.6704   -7.3159 C   0  0  2  0  0  0  0  0  0  0  0  0
   28.3496  -21.4016   -7.4113 N   0  0  0  0  0  0  0  0  0  0  0  0
   26.6765  -20.3308   -8.6899 C   0  0  0  0  0  0  0  0  0  0  0  0
   25.7430  -19.5382   -8.9407 O   0  0  0  0  0  0  0  0  0  0  0  0
   28.0435  -20.7568  -12.1828 C   0  0  0  0  0  0  0  0  0  0  0  0
   26.9340  -20.6405  -11.1967 C   0  0  2  0  0  0  0  0  0  0  0  0
   27.3197  -20.8946   -9.8454 N   0  0  0  0  0  0  0  0  0  0  0  0
   25.7782  -21.4522  -11.6383 C   0  0  0  0  0  0  0  0  0  0  0  0
   25.7329  -22.6961  -11.5561 O   0  0  0  0  0  0  0  0  0  0  0  0
   24.6567  -20.7733  -12.1872 N   0  0  0  0  0  0  0  0  0  0  0  0
   23.4790  -21.4338  -12.6769 C   0  0  1  0  0  0  0  0  0  0  0  0
   22.5157  -21.7184  -11.5690 C   0  0  0  0  0  0  0  0  0  0  0  0
   21.5417  -20.6424  -11.3490 C   0  0  0  0  0  0  0  0  0  0  0  0
   21.6763  -19.5823  -12.0186 O   0  0  0  0  0  0  0  0  0  0  0  0
   22.8735  -20.7994  -13.8408 C   0  0  0  0  0  0  0  0  0  0  0  0
   23.4128  -19.6414  -14.3478 O   0  0  0  0  0  0  0  0  0  0  0  0
   20.5061  -20.7306  -10.4624 O   0  0  0  0  0  0  0  0  0  0  0  0
   21.8711  -21.2935  -14.3838 O   0  0  0  0  0  0  0  0  0  0  0  0
  2  3  1  1
  2  1  1  0
  4  2  1  0
  4  5  1  0
  5  7  1  0
  5  6  1  6
  7  8  2  0
 10  9  1  6
 10 12  1  0
 11  7  1  0
 11 10  1  0
 12 13  2  0
 14 12  1  0
 14 15  1  0
 15 19  1  0
 16 17  1  0
 15 16  1  1
 17 21  1  0
 17 18  2  0
 19 22  2  0
 19 20  1  0
M  END
$$$$
