FCM.pdb
     RDKit          3D

 26 26  0  0  1  0  0  0  0  0999 V2000
   24.9365  -18.1385  -15.6650 N   0  0  0  0  0  0  0  0  0  0  0  0
   25.9885  -18.5080  -14.7262 C   0  0  1  0  0  0  0  0  0  0  0  0
   26.7540  -17.2736  -14.3006 C   0  0  0  0  0  0  0  0  0  0  0  0
   27.5696  -16.6832  -15.3642 C   0  0  0  0  0  0  0  0  0  0  0  0
   27.2759  -15.4828  -15.9644 C   0  0  0  0  0  0  0  0  0  0  0  0
   28.0837  -15.0086  -16.9489 C   0  0  0  0  0  0  0  0  0  0  0  0
   29.1882  -15.7120  -17.3503 C   0  0  0  0  0  0  0  0  0  0  0  0
   29.4964  -16.9155  -16.7598 C   0  0  0  0  0  0  0  0  0  0  0  0
   28.6933  -17.3939  -15.7766 C   0  0  0  0  0  0  0  0  0  0  0  0
   25.3087  -19.0134  -13.5006 C   0  0  0  0  0  0  0  0  0  0  0  0
   24.2008  -18.5370  -13.0950 O   0  0  0  0  0  0  0  0  0  0  0  0
   25.9343  -20.0790  -12.7522 N   0  0  0  0  0  0  0  0  0  0  0  0
   25.2444  -20.6224  -11.5971 C   0  0  1  0  0  0  0  0  0  0  0  0
   24.6534  -21.9473  -12.0686 C   0  0  0  0  0  0  0  0  0  0  0  0
   26.0267  -22.8429  -12.8792 S   0  0  0  0  0  0  0  0  0  0  0  0
   26.2527  -20.8423  -10.5303 C   0  0  0  0  0  0  0  0  0  0  0  0
   27.3096  -21.4556  -10.7747 O   0  0  0  0  0  0  0  0  0  0  0  0
   28.3847  -17.4812   -5.7387 C   0  0  0  0  0  0  0  0  0  0  0  0
   29.1431  -19.1075   -5.4903 S   0  0  0  0  0  0  0  0  0  0  0  0
   28.0552  -20.4348   -6.0895 C   0  0  0  0  0  0  0  0  0  0  0  0
   27.5084  -20.0010   -7.4093 C   0  0  0  0  0  0  0  0  0  0  0  0
   26.5147  -20.9764   -8.0168 C   0  0  2  0  0  0  0  0  0  0  0  0
   25.9886  -20.3427   -9.2300 N   0  0  0  0  0  0  0  0  0  0  0  0
   25.3379  -21.2113   -7.1497 C   0  0  0  0  0  0  0  0  0  0  0  0
   24.2207  -20.7860   -7.5290 O   0  0  0  0  0  0  0  0  0  0  0  0
   25.3918  -21.8777   -5.9350 O   0  0  0  0  0  0  0  0  0  0  0  0
  2  1  1  6
  3  2  1  0
  3  4  1  0
  4  9  2  0
  5  6  2  0
  5  4  1  0
  6  7  1  0
  7  8  2  0
  9  8  1  0
 10  2  1  0
 10 11  2  0
 12 10  1  0
 13 16  1  0
 13 12  1  0
 13 14  1  6
 15 14  1  0
 16 23  1  0
 17 16  2  0
 18 19  1  0
 19 20  1  0
 20 21  1  0
 22 21  1  1
 22 24  1  0
 23 22  1  0
 24 25  2  0
 24 26  1  0
M  END
$$$$
