FCM.pdb
     RDKit          3D

 26 26  0  0  1  0  0  0  0  0999 V2000
   23.8469  -21.7829  -15.5575 N   0  0  0  0  0  0  0  0  0  0  0  0
   24.3997  -20.6791  -14.7824 C   0  0  1  0  0  0  0  0  0  0  0  0
   23.3383  -20.1154  -13.8623 C   0  0  0  0  0  0  0  0  0  0  0  0
   22.3218  -19.3139  -14.5472 C   0  0  0  0  0  0  0  0  0  0  0  0
   21.0947  -19.8067  -14.9199 C   0  0  0  0  0  0  0  0  0  0  0  0
   20.2104  -18.9955  -15.5574 C   0  0  0  0  0  0  0  0  0  0  0  0
   20.5264  -17.6916  -15.8328 C   0  0  0  0  0  0  0  0  0  0  0  0
   21.7506  -17.1825  -15.4664 C   0  0  0  0  0  0  0  0  0  0  0  0
   22.6376  -17.9879  -14.8300 C   0  0  0  0  0  0  0  0  0  0  0  0
   25.4455  -21.2618  -13.8957 C   0  0  0  0  0  0  0  0  0  0  0  0
   25.4052  -22.4721  -13.5050 O   0  0  0  0  0  0  0  0  0  0  0  0
   26.5381  -20.4189  -13.4683 N   0  0  0  0  0  0  0  0  0  0  0  0
   27.4639  -20.9238  -12.4715 C   0  0  1  0  0  0  0  0  0  0  0  0
   28.6786  -20.0044  -12.5492 C   0  0  0  0  0  0  0  0  0  0  0  0
   29.8933  -20.6855  -11.3635 S   0  0  0  0  0  0  0  0  0  0  0  0
   26.8037  -20.8178  -11.1464 C   0  0  0  0  0  0  0  0  0  0  0  0
   25.7341  -20.1911  -11.0202 O   0  0  0  0  0  0  0  0  0  0  0  0
   28.7483  -18.3664   -5.5047 C   0  0  0  0  0  0  0  0  0  0  0  0
   28.5469  -20.1528   -5.2810 S   0  0  0  0  0  0  0  0  0  0  0  0
   27.2109  -20.7970   -6.3318 C   0  0  0  0  0  0  0  0  0  0  0  0
   27.7650  -20.9571   -7.7090 C   0  0  0  0  0  0  0  0  0  0  0  0
   26.7711  -21.5143   -8.7137 C   0  0  2  0  0  0  0  0  0  0  0  0
   27.4145  -21.4416  -10.0293 N   0  0  0  0  0  0  0  0  0  0  0  0
   25.5455  -20.6913   -8.8255 C   0  0  0  0  0  0  0  0  0  0  0  0
   25.6216  -19.5798   -9.4012 O   0  0  0  0  0  0  0  0  0  0  0  0
   24.3080  -21.0741   -8.3309 O   0  0  0  0  0  0  0  0  0  0  0  0
  2  1  1  6
  3  2  1  0
  3  4  1  0
  4  9  2  0
  5  6  2  0
  5  4  1  0
  6  7  1  0
  7  8  2  0
  9  8  1  0
 10  2  1  0
 10 11  2  0
 12 10  1  0
 13 16  1  0
 13 12  1  0
 13 14  1  1
 15 14  1  0
 16 23  1  0
 17 16  2  0
 18 19  1  0
 19 20  1  0
 20 21  1  0
 22 21  1  1
 22 24  1  0
 23 22  1  0
 24 25  2  0
 24 26  1  0
M  END
$$$$
