FCM.pdb
     RDKit          3D

 26 26  0  0  1  0  0  0  0  0999 V2000
   28.0294  -20.0837  -15.8583 N   0  0  0  0  0  0  0  0  0  0  0  0
   27.4648  -19.3507  -14.7321 C   0  0  1  0  0  0  0  0  0  0  0  0
   26.4417  -18.3524  -15.2299 C   0  0  0  0  0  0  0  0  0  0  0  0
   27.0239  -17.1145  -15.7528 C   0  0  0  0  0  0  0  0  0  0  0  0
   27.2663  -16.0064  -14.9776 C   0  0  0  0  0  0  0  0  0  0  0  0
   27.8048  -14.8949  -15.5443 C   0  0  0  0  0  0  0  0  0  0  0  0
   28.1101  -14.8652  -16.8792 C   0  0  0  0  0  0  0  0  0  0  0  0
   27.8737  -15.9660  -17.6693 C   0  0  0  0  0  0  0  0  0  0  0  0
   27.3359  -17.0784  -17.1090 C   0  0  0  0  0  0  0  0  0  0  0  0
   26.7095  -20.3406  -13.9141 C   0  0  0  0  0  0  0  0  0  0  0  0
   26.0811  -21.3146  -14.4388 O   0  0  0  0  0  0  0  0  0  0  0  0
   26.6934  -20.1826  -12.4782 N   0  0  0  0  0  0  0  0  0  0  0  0
   25.6939  -20.8972  -11.7060 C   0  0  1  0  0  0  0  0  0  0  0  0
   25.9676  -20.5249  -10.2522 C   0  0  0  0  0  0  0  0  0  0  0  0
   24.6034  -21.2656   -9.2849 S   0  0  0  0  0  0  0  0  0  0  0  0
   24.3586  -20.4111  -12.1346 C   0  0  0  0  0  0  0  0  0  0  0  0
   24.1082  -19.1908  -12.1632 O   0  0  0  0  0  0  0  0  0  0  0  0
   22.1819  -20.8815  -17.4260 C   0  0  0  0  0  0  0  0  0  0  0  0
   20.6013  -21.4253  -16.7276 S   0  0  0  0  0  0  0  0  0  0  0  0
   20.5241  -21.0877  -14.9432 C   0  0  0  0  0  0  0  0  0  0  0  0
   21.9002  -21.2736  -14.3945 C   0  0  0  0  0  0  0  0  0  0  0  0
   22.0174  -20.9802  -12.9086 C   0  0  2  0  0  0  0  0  0  0  0  0
   23.3755  -21.3618  -12.5086 N   0  0  0  0  0  0  0  0  0  0  0  0
   21.1124  -21.8144  -12.0857 C   0  0  0  0  0  0  0  0  0  0  0  0
   20.0773  -21.2871  -11.6131 O   0  0  0  0  0  0  0  0  0  0  0  0
   21.3371  -23.1529  -11.8022 O   0  0  0  0  0  0  0  0  0  0  0  0
  2  1  1  6
  3  2  1  0
  3  4  1  0
  4  9  2  0
  5  6  2  0
  5  4  1  0
  6  7  1  0
  7  8  2  0
  9  8  1  0
 10  2  1  0
 10 11  2  0
 12 10  1  0
 13 16  1  0
 13 12  1  0
 13 14  1  1
 15 14  1  0
 16 23  1  0
 17 16  2  0
 18 19  1  0
 19 20  1  0
 20 21  1  0
 22 21  1  6
 22 24  1  0
 23 22  1  0
 24 25  2  0
 24 26  1  0
M  END
$$$$
