FCM.pdb
     RDKit          3D

 26 26  0  0  1  0  0  0  0  0999 V2000
   18.5699  -26.7924  -12.4463 N   0  0  0  0  0  0  0  0  0  0  0  0
   17.8064  -25.8313  -11.6601 C   0  0  1  0  0  0  0  0  0  0  0  0
   16.3390  -26.2021  -11.6796 C   0  0  0  0  0  0  0  0  0  0  0  0
   15.7187  -26.1062  -13.0027 C   0  0  0  0  0  0  0  0  0  0  0  0
   15.1905  -27.1846  -13.6703 C   0  0  0  0  0  0  0  0  0  0  0  0
   14.6372  -27.0088  -14.8989 C   0  0  0  0  0  0  0  0  0  0  0  0
   14.5985  -25.7694  -15.4806 C   0  0  0  0  0  0  0  0  0  0  0  0
   15.1228  -24.6793  -14.8257 C   0  0  0  0  0  0  0  0  0  0  0  0
   15.6768  -24.8490  -13.5990 C   0  0  0  0  0  0  0  0  0  0  0  0
   18.2512  -25.9867  -10.2468 C   0  0  0  0  0  0  0  0  0  0  0  0
   18.7747  -27.0633   -9.8156 O   0  0  0  0  0  0  0  0  0  0  0  0
   18.0786  -24.8745   -9.3411 N   0  0  0  0  0  0  0  0  0  0  0  0
   18.6496  -24.9600   -8.0098 C   0  0  1  0  0  0  0  0  0  0  0  0
   19.1170  -23.5456   -7.6815 C   0  0  0  0  0  0  0  0  0  0  0  0
   17.7731  -22.4369   -8.2382 S   0  0  0  0  0  0  0  0  0  0  0  0
   17.5732  -25.3903   -7.0829 C   0  0  0  0  0  0  0  0  0  0  0  0
   16.3762  -25.3008   -7.4175 O   0  0  0  0  0  0  0  0  0  0  0  0
   18.9133  -27.1254   -0.4257 C   0  0  0  0  0  0  0  0  0  0  0  0
   17.8725  -28.2798   -1.3561 S   0  0  0  0  0  0  0  0  0  0  0  0
   16.8168  -27.3971   -2.5437 C   0  0  0  0  0  0  0  0  0  0  0  0
   17.6871  -26.9622   -3.6762 C   0  0  0  0  0  0  0  0  0  0  0  0
   16.9445  -26.2269   -4.7787 C   0  0  2  0  0  0  0  0  0  0  0  0
   17.9340  -25.9027   -5.8111 N   0  0  0  0  0  0  0  0  0  0  0  0
   16.3959  -24.9261   -4.3326 C   0  0  0  0  0  0  0  0  0  0  0  0
   17.0823  -23.8927   -4.5161 O   0  0  0  0  0  0  0  0  0  0  0  0
   15.1610  -24.7756   -3.7203 O   0  0  0  0  0  0  0  0  0  0  0  0
  2  1  1  6
  3  2  1  0
  3  4  1  0
  4  9  2  0
  5  6  2  0
  5  4  1  0
  6  7  1  0
  7  8  2  0
  9  8  1  0
 10  2  1  0
 10 11  2  0
 12 10  1  0
 13 16  1  0
 13 12  1  0
 13 14  1  1
 15 14  1  0
 16 23  1  0
 17 16  2  0
 18 19  1  0
 19 20  1  0
 20 21  1  0
 22 21  1  1
 22 24  1  0
 23 22  1  0
 24 25  2  0
 24 26  1  0
M  END
$$$$
