FCM.pdb
     RDKit          3D

 26 26  0  0  1  0  0  0  0  0999 V2000
   28.4578  -29.2371  -18.5739 N   0  0  0  0  0  0  0  0  0  0  0  0
   28.3597  -29.5301  -17.1494 C   0  0  1  0  0  0  0  0  0  0  0  0
   27.6829  -28.3806  -16.4341 C   0  0  0  0  0  0  0  0  0  0  0  0
   28.4522  -27.1345  -16.4498 C   0  0  0  0  0  0  0  0  0  0  0  0
   29.6977  -27.0074  -15.8838 C   0  0  0  0  0  0  0  0  0  0  0  0
   30.3415  -25.8120  -15.9383 C   0  0  0  0  0  0  0  0  0  0  0  0
   29.7649  -24.7314  -16.5513 C   0  0  0  0  0  0  0  0  0  0  0  0
   28.5186  -24.8417  -17.1228 C   0  0  0  0  0  0  0  0  0  0  0  0
   27.8710  -26.0327  -17.0711 C   0  0  0  0  0  0  0  0  0  0  0  0
   27.4415  -30.6956  -17.0156 C   0  0  0  0  0  0  0  0  0  0  0  0
   26.4470  -30.8672  -17.7905 O   0  0  0  0  0  0  0  0  0  0  0  0
   27.6940  -31.6583  -15.9686 N   0  0  0  0  0  0  0  0  0  0  0  0
   26.8494  -32.8351  -15.8803 C   0  0  1  0  0  0  0  0  0  0  0  0
   27.7516  -33.9370  -15.3338 C   0  0  0  0  0  0  0  0  0  0  0  0
   28.5943  -33.2135  -13.8806 S   0  0  0  0  0  0  0  0  0  0  0  0
   25.7494  -32.5320  -14.9311 C   0  0  0  0  0  0  0  0  0  0  0  0
   25.8655  -31.6103  -14.1007 O   0  0  0  0  0  0  0  0  0  0  0  0
   19.4518  -32.6143  -16.6222 C   0  0  0  0  0  0  0  0  0  0  0  0
   19.5433  -33.7496  -15.2134 S   0  0  0  0  0  0  0  0  0  0  0  0
   20.9112  -33.3042  -14.1023 C   0  0  0  0  0  0  0  0  0  0  0  0
   22.1736  -33.3838  -14.8956 C   0  0  0  0  0  0  0  0  0  0  0  0
   23.4280  -33.0890  -14.0911 C   0  0  2  0  0  0  0  0  0  0  0  0
   24.5668  -33.3122  -14.9875 N   0  0  0  0  0  0  0  0  0  0  0  0
   23.6207  -34.0288  -12.9634 C   0  0  0  0  0  0  0  0  0  0  0  0
   24.1910  -35.1231  -13.1872 O   0  0  0  0  0  0  0  0  0  0  0  0
   23.2083  -33.7743  -11.6643 O   0  0  0  0  0  0  0  0  0  0  0  0
  2  1  1  6
  3  2  1  0
  3  4  1  0
  4  9  2  0
  5  6  2  0
  5  4  1  0
  6  7  1  0
  7  8  2  0
  9  8  1  0
 10  2  1  0
 10 11  2  0
 12 10  1  0
 13 16  1  0
 13 12  1  0
 13 14  1  1
 15 14  1  0
 16 23  1  0
 17 16  2  0
 18 19  1  0
 19 20  1  0
 20 21  1  0
 22 21  1  6
 22 24  1  0
 23 22  1  0
 24 25  2  0
 24 26  1  0
M  END
$$$$
