FCM.pdb
     RDKit          3D

 26 26  0  0  1  0  0  0  0  0999 V2000
   26.4195  -21.7073  -15.8538 N   0  0  0  0  0  0  0  0  0  0  0  0
   25.4948  -20.6904  -15.3686 C   0  0  1  0  0  0  0  0  0  0  0  0
   24.5164  -20.3217  -16.4630 C   0  0  0  0  0  0  0  0  0  0  0  0
   25.1151  -19.5692  -17.5676 C   0  0  0  0  0  0  0  0  0  0  0  0
   25.4638  -20.1378  -18.7687 C   0  0  0  0  0  0  0  0  0  0  0  0
   26.0201  -19.3676  -19.7402 C   0  0  0  0  0  0  0  0  0  0  0  0
   26.2371  -18.0306  -19.5378 C   0  0  0  0  0  0  0  0  0  0  0  0
   25.8939  -17.4456  -18.3411 C   0  0  0  0  0  0  0  0  0  0  0  0
   25.3384  -18.2098  -17.3674 C   0  0  0  0  0  0  0  0  0  0  0  0
   24.6864  -21.3276  -14.2916 C   0  0  0  0  0  0  0  0  0  0  0  0
   24.4563  -22.5787  -14.2672 O   0  0  0  0  0  0  0  0  0  0  0  0
   24.1480  -20.4911  -13.2440 N   0  0  0  0  0  0  0  0  0  0  0  0
   23.4903  -21.1200  -12.1137 C   0  0  1  0  0  0  0  0  0  0  0  0
   24.1540  -20.5203  -10.8781 C   0  0  0  0  0  0  0  0  0  0  0  0
   25.6034  -21.5801  -10.5294 S   0  0  0  0  0  0  0  0  0  0  0  0
   22.0516  -20.7593  -12.1696 C   0  0  0  0  0  0  0  0  0  0  0  0
   21.6970  -19.5649  -12.1481 O   0  0  0  0  0  0  0  0  0  0  0  0
   18.4302  -25.8502  -14.2081 C   0  0  0  0  0  0  0  0  0  0  0  0
   19.9317  -24.8751  -14.4847 S   0  0  0  0  0  0  0  0  0  0  0  0
   19.5765  -23.0938  -14.4165 C   0  0  0  0  0  0  0  0  0  0  0  0
   19.0635  -22.7938  -13.0468 C   0  0  0  0  0  0  0  0  0  0  0  0
   19.6587  -21.5422  -12.4248 C   0  0  2  0  0  0  0  0  0  0  0  0
   21.0912  -21.7994  -12.2462 N   0  0  0  0  0  0  0  0  0  0  0  0
   19.1324  -21.2695  -11.0680 C   0  0  0  0  0  0  0  0  0  0  0  0
   19.7566  -21.7267  -10.0811 O   0  0  0  0  0  0  0  0  0  0  0  0
   17.9842  -20.5342  -10.8163 O   0  0  0  0  0  0  0  0  0  0  0  0
  2  1  1  6
  3  2  1  0
  3  4  1  0
  4  9  2  0
  5  6  2  0
  5  4  1  0
  6  7  1  0
  7  8  2  0
  9  8  1  0
 10  2  1  0
 10 11  2  0
 12 10  1  0
 13 16  1  0
 13 12  1  0
 13 14  1  1
 15 14  1  0
 16 23  1  0
 17 16  2  0
 18 19  1  0
 19 20  1  0
 20 21  1  0
 22 21  1  1
 22 24  1  0
 23 22  1  0
 24 25  2  0
 24 26  1  0
M  END
$$$$
