FCM.pdb
     RDKit          3D

 26 26  0  0  1  0  0  0  0  0999 V2000
   11.7115  -13.9313  -12.6760 N   0  0  0  0  0  0  0  0  0  0  0  0
   12.4648  -14.7116  -11.7022 C   0  0  1  0  0  0  0  0  0  0  0  0
   11.9355  -14.4440  -10.3096 C   0  0  0  0  0  0  0  0  0  0  0  0
   11.7171  -13.0254  -10.0186 C   0  0  0  0  0  0  0  0  0  0  0  0
   10.4704  -12.4656   -9.8769 C   0  0  0  0  0  0  0  0  0  0  0  0
   10.3565  -11.1377   -9.6122 C   0  0  0  0  0  0  0  0  0  0  0  0
   11.4692  -10.3494   -9.4839 C   0  0  0  0  0  0  0  0  0  0  0  0
   12.7246  -10.8941   -9.6229 C   0  0  0  0  0  0  0  0  0  0  0  0
   12.8444  -12.2193   -9.8875 C   0  0  0  0  0  0  0  0  0  0  0  0
   12.1721  -16.1447  -11.9851 C   0  0  0  0  0  0  0  0  0  0  0  0
   11.0349  -16.5346  -12.4020 O   0  0  0  0  0  0  0  0  0  0  0  0
   13.2183  -17.1187  -11.7760 N   0  0  0  0  0  0  0  0  0  0  0  0
   12.9375  -18.5169  -12.0439 C   0  0  1  0  0  0  0  0  0  0  0  0
   13.7089  -18.8446  -13.3184 C   0  0  0  0  0  0  0  0  0  0  0  0
   15.4585  -18.4561  -12.9535 S   0  0  0  0  0  0  0  0  0  0  0  0
   13.4489  -19.3086  -10.8973 C   0  0  0  0  0  0  0  0  0  0  0  0
   14.4980  -18.9737  -10.3143 O   0  0  0  0  0  0  0  0  0  0  0  0
   10.9755  -25.3200   -6.2874 C   0  0  0  0  0  0  0  0  0  0  0  0
   10.7500  -24.1256   -7.6308 S   0  0  0  0  0  0  0  0  0  0  0  0
   12.2638  -23.1580   -7.9065 C   0  0  0  0  0  0  0  0  0  0  0  0
   11.9831  -22.1976   -9.0147 C   0  0  0  0  0  0  0  0  0  0  0  0
   13.1631  -21.3129   -9.3789 C   0  0  2  0  0  0  0  0  0  0  0  0
   12.7215  -20.4522  -10.4808 N   0  0  0  0  0  0  0  0  0  0  0  0
   14.3127  -22.0796   -9.9107 C   0  0  0  0  0  0  0  0  0  0  0  0
   15.1241  -22.5824   -9.0974 O   0  0  0  0  0  0  0  0  0  0  0  0
   14.5514  -22.2798  -11.2617 O   0  0  0  0  0  0  0  0  0  0  0  0
  2  1  1  6
  3  2  1  0
  3  4  1  0
  4  9  2  0
  5  6  2  0
  5  4  1  0
  6  7  1  0
  7  8  2  0
  9  8  1  0
 10  2  1  0
 10 11  2  0
 12 10  1  0
 13 16  1  0
 13 12  1  0
 13 14  1  6
 15 14  1  0
 16 23  1  0
 17 16  2  0
 18 19  1  0
 19 20  1  0
 20 21  1  0
 22 21  1  6
 22 24  1  0
 23 22  1  0
 24 25  2  0
 24 26  1  0
M  END
$$$$
