FCM.pdb
     RDKit          3D

 26 26  0  0  1  0  0  0  0  0999 V2000
   25.3011  -19.1505  -15.8852 N   0  0  0  0  0  0  0  0  0  0  0  0
   25.9846  -18.6587  -14.6954 C   0  0  1  0  0  0  0  0  0  0  0  0
   25.2888  -17.4176  -14.1794 C   0  0  0  0  0  0  0  0  0  0  0  0
   25.3653  -16.2714  -15.0878 C   0  0  0  0  0  0  0  0  0  0  0  0
   24.3170  -15.8580  -15.8738 C   0  0  0  0  0  0  0  0  0  0  0  0
   24.4743  -14.7862  -16.6941 C   0  0  0  0  0  0  0  0  0  0  0  0
   25.6651  -14.1116  -16.7472 C   0  0  0  0  0  0  0  0  0  0  0  0
   26.7246  -14.5125  -15.9669 C   0  0  0  0  0  0  0  0  0  0  0  0
   26.5733  -15.5822  -15.1461 C   0  0  0  0  0  0  0  0  0  0  0  0
   25.8084  -19.6973  -13.6420 C   0  0  0  0  0  0  0  0  0  0  0  0
   24.6983  -20.2900  -13.4538 O   0  0  0  0  0  0  0  0  0  0  0  0
   26.9391  -20.0369  -12.8095 N   0  0  0  0  0  0  0  0  0  0  0  0
   26.7988  -21.1076  -11.8401 C   0  0  1  0  0  0  0  0  0  0  0  0
   27.8944  -22.1104  -12.1877 C   0  0  0  0  0  0  0  0  0  0  0  0
   29.4730  -21.2059  -12.0004 S   0  0  0  0  0  0  0  0  0  0  0  0
   27.0199  -20.5284  -10.4915 C   0  0  0  0  0  0  0  0  0  0  0  0
   27.9336  -19.7034  -10.2987 O   0  0  0  0  0  0  0  0  0  0  0  0
   28.4149  -20.3804   -4.7858 C   0  0  0  0  0  0  0  0  0  0  0  0
   28.4394  -19.0052   -5.9648 S   0  0  0  0  0  0  0  0  0  0  0  0
   26.7615  -18.6052   -6.5380 C   0  0  0  0  0  0  0  0  0  0  0  0
   26.6333  -19.1184   -7.9342 C   0  0  0  0  0  0  0  0  0  0  0  0
   26.4618  -20.6251   -8.0250 C   0  0  2  0  0  0  0  0  0  0  0  0
   26.1728  -20.9334   -9.4291 N   0  0  0  0  0  0  0  0  0  0  0  0
   25.2920  -21.1165   -7.2621 C   0  0  0  0  0  0  0  0  0  0  0  0
   24.1797  -21.1674   -7.8391 O   0  0  0  0  0  0  0  0  0  0  0  0
   25.3478  -21.5285   -5.9393 O   0  0  0  0  0  0  0  0  0  0  0  0
  2  1  1  6
  3  2  1  0
  3  4  1  0
  4  9  2  0
  5  6  2  0
  5  4  1  0
  6  7  1  0
  7  8  2  0
  9  8  1  0
 10  2  1  0
 10 11  2  0
 12 10  1  0
 13 16  1  0
 13 12  1  0
 13 14  1  6
 15 14  1  0
 16 23  1  0
 17 16  2  0
 18 19  1  0
 19 20  1  0
 20 21  1  0
 22 21  1  6
 22 24  1  0
 23 22  1  0
 24 25  2  0
 24 26  1  0
M  END
$$$$
