FCM.pdb
     RDKit          3D

 26 26  0  0  1  0  0  0  0  0999 V2000
   26.9540  -19.7789  -19.0377 N   0  0  0  0  0  0  0  0  0  0  0  0
   27.1277  -18.9749  -17.8344 C   0  0  1  0  0  0  0  0  0  0  0  0
   26.0392  -17.9261  -17.7558 C   0  0  0  0  0  0  0  0  0  0  0  0
   26.0811  -16.9428  -18.8402 C   0  0  0  0  0  0  0  0  0  0  0  0
   25.0862  -16.8084  -19.7782 C   0  0  0  0  0  0  0  0  0  0  0  0
   25.2068  -15.8724  -20.7559 C   0  0  0  0  0  0  0  0  0  0  0  0
   26.3078  -15.0601  -20.8182 C   0  0  0  0  0  0  0  0  0  0  0  0
   27.3128  -15.1817  -19.8870 C   0  0  0  0  0  0  0  0  0  0  0  0
   27.1979  -16.1146  -18.9087 C   0  0  0  0  0  0  0  0  0  0  0  0
   26.9056  -19.8859  -16.6766 C   0  0  0  0  0  0  0  0  0  0  0  0
   25.9442  -20.7187  -16.6444 O   0  0  0  0  0  0  0  0  0  0  0  0
   27.8151  -19.8151  -15.5565 N   0  0  0  0  0  0  0  0  0  0  0  0
   27.5979  -20.6925  -14.4212 C   0  0  1  0  0  0  0  0  0  0  0  0
   28.9304  -20.7271  -13.6795 C   0  0  0  0  0  0  0  0  0  0  0  0
   29.0398  -19.1379  -12.7808 S   0  0  0  0  0  0  0  0  0  0  0  0
   26.5379  -20.0862  -13.5774 C   0  0  0  0  0  0  0  0  0  0  0  0
   26.2962  -18.8656  -13.6443 O   0  0  0  0  0  0  0  0  0  0  0  0
   21.3030  -22.6488  -13.5839 C   0  0  0  0  0  0  0  0  0  0  0  0
   20.7859  -21.3650  -12.4150 S   0  0  0  0  0  0  0  0  0  0  0  0
   22.2224  -20.6033  -11.6025 C   0  0  0  0  0  0  0  0  0  0  0  0
   23.4329  -20.9826  -12.3900 C   0  0  0  0  0  0  0  0  0  0  0  0
   24.7308  -20.4190  -11.8374 C   0  0  2  0  0  0  0  0  0  0  0  0
   25.8088  -20.9223  -12.6945 N   0  0  0  0  0  0  0  0  0  0  0  0
   25.0399  -20.9169  -10.4777 C   0  0  0  0  0  0  0  0  0  0  0  0
   25.7723  -21.9284  -10.3631 O   0  0  0  0  0  0  0  0  0  0  0  0
   24.5680  -20.3313   -9.3128 O   0  0  0  0  0  0  0  0  0  0  0  0
  2  1  1  6
  3  2  1  0
  3  4  1  0
  4  9  2  0
  5  6  2  0
  5  4  1  0
  6  7  1  0
  7  8  2  0
  9  8  1  0
 10  2  1  0
 10 11  2  0
 12 10  1  0
 13 16  1  0
 13 12  1  0
 13 14  1  1
 15 14  1  0
 16 23  1  0
 17 16  2  0
 18 19  1  0
 19 20  1  0
 20 21  1  0
 22 21  1  6
 22 24  1  0
 23 22  1  0
 24 25  2  0
 24 26  1  0
M  END
$$$$
