FCM.pdb
     RDKit          3D

 26 26  0  0  1  0  0  0  0  0999 V2000
   21.2788  -18.8397  -15.6967 N   0  0  0  0  0  0  0  0  0  0  0  0
   22.1587  -19.7067  -14.9230 C   0  0  1  0  0  0  0  0  0  0  0  0
   21.8584  -21.1563  -15.2383 C   0  0  0  0  0  0  0  0  0  0  0  0
   20.5414  -21.6042  -14.7804 C   0  0  0  0  0  0  0  0  0  0  0  0
   19.4150  -21.5686  -15.5664 C   0  0  0  0  0  0  0  0  0  0  0  0
   18.2293  -21.9990  -15.0610 C   0  0  0  0  0  0  0  0  0  0  0  0
   18.1425  -22.4690  -13.7775 C   0  0  0  0  0  0  0  0  0  0  0  0
   19.2606  -22.5113  -12.9774 C   0  0  0  0  0  0  0  0  0  0  0  0
   20.4470  -22.0826  -13.4766 C   0  0  0  0  0  0  0  0  0  0  0  0
   23.5431  -19.4573  -15.4138 C   0  0  0  0  0  0  0  0  0  0  0  0
   23.7946  -19.2125  -16.6369 O   0  0  0  0  0  0  0  0  0  0  0  0
   24.6312  -19.4972  -14.4645 N   0  0  0  0  0  0  0  0  0  0  0  0
   25.9943  -19.4370  -14.9583 C   0  0  1  0  0  0  0  0  0  0  0  0
   26.8087  -18.8346  -13.8178 C   0  0  0  0  0  0  0  0  0  0  0  0
   28.5354  -18.7753  -14.4180 S   0  0  0  0  0  0  0  0  0  0  0  0
   26.4328  -20.8256  -15.2460 C   0  0  0  0  0  0  0  0  0  0  0  0
   26.0670  -21.7687  -14.5184 O   0  0  0  0  0  0  0  0  0  0  0  0
   24.2987  -24.3959  -19.0973 C   0  0  0  0  0  0  0  0  0  0  0  0
   25.9868  -24.5990  -19.7223 S   0  0  0  0  0  0  0  0  0  0  0  0
   27.2116  -24.1905  -18.4428 C   0  0  0  0  0  0  0  0  0  0  0  0
   26.8552  -22.8470  -17.8976 C   0  0  0  0  0  0  0  0  0  0  0  0
   27.7348  -22.3954  -16.7443 C   0  0  2  0  0  0  0  0  0  0  0  0
   27.2759  -21.0561  -16.3624 N   0  0  0  0  0  0  0  0  0  0  0  0
   29.1537  -22.2323  -17.1344 C   0  0  0  0  0  0  0  0  0  0  0  0
   29.4996  -21.1693  -17.7028 O   0  0  0  0  0  0  0  0  0  0  0  0
   30.1333  -23.1873  -16.9090 O   0  0  0  0  0  0  0  0  0  0  0  0
  2  1  1  6
  3  2  1  0
  3  4  1  0
  4  9  2  0
  5  6  2  0
  5  4  1  0
  6  7  1  0
  7  8  2  0
  9  8  1  0
 10  2  1  0
 10 11  2  0
 12 10  1  0
 13 16  1  0
 13 12  1  0
 13 14  1  1
 15 14  1  0
 16 23  1  0
 17 16  2  0
 18 19  1  0
 19 20  1  0
 20 21  1  0
 22 21  1  6
 22 24  1  0
 23 22  1  0
 24 25  2  0
 24 26  1  0
M  END
$$$$
