KVF.pdb
     RDKit          3D

 28 28  0  0  1  0  0  0  0  0999 V2000
    8.4733  -19.2859   19.9958 N   0  0  0  0  0  0  0  0  0  0  0  0
    8.9998  -18.0592   20.4777 C   0  0  1  0  0  0  0  0  0  0  0  0
    9.0006  -16.9327   19.4886 C   0  0  0  0  0  0  0  0  0  0  0  0
    9.9600  -17.0389   18.3648 C   0  0  0  0  0  0  0  0  0  0  0  0
   10.9089  -15.9042   18.1896 C   0  0  0  0  0  0  0  0  0  0  0  0
   11.9986  -16.2260   17.1889 C   0  0  0  0  0  0  0  0  0  0  0  0
   12.7294  -15.0460   16.7796 N   0  0  0  0  0  0  0  0  0  0  0  0
    8.4820  -17.6261   21.8075 C   0  0  0  0  0  0  0  0  0  0  0  0
    7.7279  -16.6004   21.8965 O   0  0  0  0  0  0  0  0  0  0  0  0
    6.8027  -18.7129   26.2471 C   0  0  0  0  0  0  0  0  0  0  0  0
    7.4599  -19.1430   24.9359 C   0  0  1  0  0  0  0  0  0  0  0  0
    6.3978  -19.8113   24.1096 C   0  0  0  0  0  0  0  0  0  0  0  0
    8.0633  -17.9495   24.2644 C   0  0  2  0  0  0  0  0  0  0  0  0
    8.7579  -18.2660   23.0291 N   0  0  0  0  0  0  0  0  0  0  0  0
    8.9959  -17.2831   25.2331 C   0  0  0  0  0  0  0  0  0  0  0  0
   10.2153  -17.5823   25.2621 O   0  0  0  0  0  0  0  0  0  0  0  0
    8.5485  -16.2953   26.1502 N   0  0  0  0  0  0  0  0  0  0  0  0
    9.4480  -15.7241   27.1591 C   0  0  1  0  0  0  0  0  0  0  0  0
    8.8147  -14.4732   27.7628 C   0  0  0  0  0  0  0  0  0  0  0  0
    8.1299  -13.6784   26.7058 C   0  0  0  0  0  0  0  0  0  0  0  0
    8.8274  -13.2337   25.6089 C   0  0  0  0  0  0  0  0  0  0  0  0
    8.1965  -12.4954   24.6178 C   0  0  0  0  0  0  0  0  0  0  0  0
    6.8538  -12.1989   24.7250 C   0  0  0  0  0  0  0  0  0  0  0  0
    6.1368  -12.6466   25.8368 C   0  0  0  0  0  0  0  0  0  0  0  0
    6.7867  -13.3805   26.8112 C   0  0  0  0  0  0  0  0  0  0  0  0
    9.7892  -16.7086   28.1956 C   0  0  0  0  0  0  0  0  0  0  0  0
   10.6761  -16.4452   29.0416 O   0  0  0  0  0  0  0  0  0  0  0  0
    9.1555  -17.9351   28.2716 O   0  0  0  0  0  0  0  0  0  0  0  0
  2  1  1  6
  2  3  1  0
  4  3  1  0
  4  5  1  0
  6  5  1  0
  6  7  1  0
  8  2  1  0
  9  8  2  0
 11 10  1  1
 11 12  1  0
 11 13  1  0
 13 14  1  6
 14  8  1  0
 15 13  1  0
 15 16  2  0
 17 15  1  0
 18 17  1  0
 18 19  1  1
 20 19  1  0
 20 21  2  0
 22 21  1  0
 23 22  2  0
 24 25  2  0
 24 23  1  0
 25 20  1  0
 26 18  1  0
 27 26  2  0
 28 26  1  0
M  END
$$$$
