KVF.pdb
     RDKit          3D

 28 28  0  0  1  0  0  0  0  0999 V2000
    8.6440  -19.5669   19.3212 N   0  0  0  0  0  0  0  0  0  0  0  0
    7.9014  -18.6252   20.0804 C   0  0  1  0  0  0  0  0  0  0  0  0
    7.3501  -19.1419   21.3751 C   0  0  0  0  0  0  0  0  0  0  0  0
    6.9630  -20.5716   21.4064 C   0  0  0  0  0  0  0  0  0  0  0  0
    6.3776  -21.0754   22.6801 C   0  0  0  0  0  0  0  0  0  0  0  0
    5.9474  -22.5230   22.5725 C   0  0  0  0  0  0  0  0  0  0  0  0
    4.8812  -22.7054   21.6112 N   0  0  0  0  0  0  0  0  0  0  0  0
    8.5512  -17.2935   20.2491 C   0  0  0  0  0  0  0  0  0  0  0  0
    9.8048  -17.2184   20.4762 O   0  0  0  0  0  0  0  0  0  0  0  0
    6.4560  -13.5914   20.8639 C   0  0  0  0  0  0  0  0  0  0  0  0
    7.7175  -13.6008   20.0008 C   0  0  1  0  0  0  0  0  0  0  0  0
    8.4136  -12.2882   20.2244 C   0  0  0  0  0  0  0  0  0  0  0  0
    8.5610  -14.7829   20.3618 C   0  0  2  0  0  0  0  0  0  0  0  0
    7.8865  -16.0561   20.1812 N   0  0  0  0  0  0  0  0  0  0  0  0
    9.0104  -14.6261   21.7851 C   0  0  0  0  0  0  0  0  0  0  0  0
    9.8216  -13.7233   22.1082 O   0  0  0  0  0  0  0  0  0  0  0  0
    8.5449  -15.4803   22.8197 N   0  0  0  0  0  0  0  0  0  0  0  0
    8.3595  -14.9911   24.1907 C   0  0  1  0  0  0  0  0  0  0  0  0
    7.2988  -13.8935   24.2056 C   0  0  0  0  0  0  0  0  0  0  0  0
    7.1134  -13.3717   25.5881 C   0  0  0  0  0  0  0  0  0  0  0  0
    8.1762  -12.8431   26.2798 C   0  0  0  0  0  0  0  0  0  0  0  0
    8.0118  -12.3516   27.5669 C   0  0  0  0  0  0  0  0  0  0  0  0
    6.7712  -12.3893   28.1685 C   0  0  0  0  0  0  0  0  0  0  0  0
    5.6851  -12.9251   27.4729 C   0  0  0  0  0  0  0  0  0  0  0  0
    5.8732  -13.4086   26.1918 C   0  0  0  0  0  0  0  0  0  0  0  0
    8.0160  -16.0844   25.1108 C   0  0  0  0  0  0  0  0  0  0  0  0
    8.5427  -16.1351   26.2474 O   0  0  0  0  0  0  0  0  0  0  0  0
    7.1172  -17.0751   24.7610 O   0  0  0  0  0  0  0  0  0  0  0  0
  2  1  1  1
  2  3  1  0
  4  3  1  0
  4  5  1  0
  6  5  1  0
  6  7  1  0
  8  2  1  0
  9  8  2  0
 11 10  1  1
 11 12  1  0
 11 13  1  0
 13 14  1  1
 14  8  1  0
 15 13  1  0
 15 16  2  0
 17 15  1  0
 18 17  1  0
 18 19  1  6
 20 19  1  0
 20 21  2  0
 22 21  1  0
 23 22  2  0
 24 25  2  0
 24 23  1  0
 25 20  1  0
 26 18  1  0
 27 26  2  0
 28 26  1  0
M  END
$$$$
