KVF.pdb
     RDKit          3D

 28 28  0  0  1  0  0  0  0  0999 V2000
   11.7490  -17.6602   18.7670 N   0  0  0  0  0  0  0  0  0  0  0  0
   10.5726  -17.8353   19.5416 C   0  0  1  0  0  0  0  0  0  0  0  0
   10.4395  -19.1723   20.2064 C   0  0  0  0  0  0  0  0  0  0  0  0
   10.5817  -20.3621   19.3353 C   0  0  0  0  0  0  0  0  0  0  0  0
    9.5841  -21.4514   19.5275 C   0  0  0  0  0  0  0  0  0  0  0  0
    9.7943  -22.5909   18.5529 C   0  0  0  0  0  0  0  0  0  0  0  0
   10.9916  -23.3480   18.8485 N   0  0  0  0  0  0  0  0  0  0  0  0
   10.2589  -16.7187   20.4790 C   0  0  0  0  0  0  0  0  0  0  0  0
   11.1975  -16.1437   21.1248 O   0  0  0  0  0  0  0  0  0  0  0  0
    7.2761  -13.2828   22.4359 C   0  0  0  0  0  0  0  0  0  0  0  0
    7.4080  -14.4469   21.4542 C   0  0  1  0  0  0  0  0  0  0  0  0
    7.2826  -13.8729   20.0713 C   0  0  0  0  0  0  0  0  0  0  0  0
    8.7094  -15.1491   21.6838 C   0  0  2  0  0  0  0  0  0  0  0  0
    8.9704  -16.2159   20.7339 N   0  0  0  0  0  0  0  0  0  0  0  0
    8.7173  -15.6835   23.0861 C   0  0  0  0  0  0  0  0  0  0  0  0
    8.2818  -16.8342   23.3389 O   0  0  0  0  0  0  0  0  0  0  0  0
    9.2118  -14.9228   24.1786 N   0  0  0  0  0  0  0  0  0  0  0  0
    9.3891  -15.5183   25.5080 C   0  0  1  0  0  0  0  0  0  0  0  0
    9.4462  -14.4152   26.5616 C   0  0  0  0  0  0  0  0  0  0  0  0
    8.1947  -13.6084   26.5345 C   0  0  0  0  0  0  0  0  0  0  0  0
    7.2103  -13.8832   25.6165 C   0  0  0  0  0  0  0  0  0  0  0  0
    6.0398  -13.1387   25.5864 C   0  0  0  0  0  0  0  0  0  0  0  0
    5.8519  -12.1086   26.4840 C   0  0  0  0  0  0  0  0  0  0  0  0
    6.8475  -11.8218   27.4206 C   0  0  0  0  0  0  0  0  0  0  0  0
    8.0049  -12.5772   27.4315 C   0  0  0  0  0  0  0  0  0  0  0  0
    8.3312  -16.4938   25.8066 C   0  0  0  0  0  0  0  0  0  0  0  0
    8.4014  -17.1960   26.8428 O   0  0  0  0  0  0  0  0  0  0  0  0
    7.2432  -16.6666   24.9711 O   0  0  0  0  0  0  0  0  0  0  0  0
  2  1  1  1
  2  3  1  0
  4  3  1  0
  4  5  1  0
  6  5  1  0
  6  7  1  0
  8  2  1  0
  9  8  2  0
 11 10  1  1
 11 12  1  0
 11 13  1  0
 13 14  1  6
 14  8  1  0
 15 13  1  0
 15 16  2  0
 17 15  1  0
 18 17  1  0
 18 19  1  1
 20 19  1  0
 20 21  2  0
 22 21  1  0
 23 22  2  0
 24 25  2  0
 24 23  1  0
 25 20  1  0
 26 18  1  0
 27 26  2  0
 28 26  1  0
M  END
$$$$
