KVF.pdb
     RDKit          3D

 28 28  0  0  1  0  0  0  0  0999 V2000
    8.5511  -16.3546   20.0007 N   0  0  0  0  0  0  0  0  0  0  0  0
    8.1529  -15.3562   20.9275 C   0  0  1  0  0  0  0  0  0  0  0  0
    7.1151  -14.3976   20.4261 C   0  0  0  0  0  0  0  0  0  0  0  0
    7.5389  -13.4612   19.3592 C   0  0  0  0  0  0  0  0  0  0  0  0
    7.2020  -13.8482   17.9608 C   0  0  0  0  0  0  0  0  0  0  0  0
    7.8063  -12.8981   16.9487 C   0  0  0  0  0  0  0  0  0  0  0  0
    8.3446  -13.5945   15.8001 N   0  0  0  0  0  0  0  0  0  0  0  0
    7.8297  -15.8540   22.2956 C   0  0  0  0  0  0  0  0  0  0  0  0
    7.2107  -15.1015   23.1198 O   0  0  0  0  0  0  0  0  0  0  0  0
    7.2412  -19.4816   25.6175 C   0  0  0  0  0  0  0  0  0  0  0  0
    7.7811  -19.0880   24.2427 C   0  0  1  0  0  0  0  0  0  0  0  0
    6.9351  -19.7918   23.2196 C   0  0  0  0  0  0  0  0  0  0  0  0
    7.7548  -17.5983   24.1034 C   0  0  2  0  0  0  0  0  0  0  0  0
    8.1571  -17.1295   22.7892 N   0  0  0  0  0  0  0  0  0  0  0  0
    8.6394  -17.0087   25.1627 C   0  0  0  0  0  0  0  0  0  0  0  0
    9.8861  -16.9741   25.0142 O   0  0  0  0  0  0  0  0  0  0  0  0
    8.1145  -16.4690   26.3668 N   0  0  0  0  0  0  0  0  0  0  0  0
    8.9860  -15.8485   27.3713 C   0  0  1  0  0  0  0  0  0  0  0  0
    8.2408  -14.7118   28.0661 C   0  0  0  0  0  0  0  0  0  0  0  0
    7.7997  -13.6968   27.0695 C   0  0  0  0  0  0  0  0  0  0  0  0
    6.4820  -13.6242   26.6879 C   0  0  0  0  0  0  0  0  0  0  0  0
    6.0618  -12.6795   25.7625 C   0  0  0  0  0  0  0  0  0  0  0  0
    6.9693  -11.7982   25.2130 C   0  0  0  0  0  0  0  0  0  0  0  0
    8.3111  -11.8649   25.5948 C   0  0  0  0  0  0  0  0  0  0  0  0
    8.7061  -12.8143   26.5183 C   0  0  0  0  0  0  0  0  0  0  0  0
    9.4821  -16.8375   28.3386 C   0  0  0  0  0  0  0  0  0  0  0  0
    8.9145  -17.9504   28.4431 O   0  0  0  0  0  0  0  0  0  0  0  0
   10.5711  -16.5791   29.1503 O   0  0  0  0  0  0  0  0  0  0  0  0
  2  1  1  6
  2  3  1  0
  4  3  1  0
  4  5  1  0
  6  5  1  0
  6  7  1  0
  8  2  1  0
  9  8  2  0
 11 10  1  1
 11 12  1  0
 11 13  1  0
 13 14  1  6
 14  8  1  0
 15 13  1  0
 15 16  2  0
 17 15  1  0
 18 17  1  0
 18 19  1  1
 20 19  1  0
 20 21  2  0
 22 21  1  0
 23 22  2  0
 24 25  2  0
 24 23  1  0
 25 20  1  0
 26 18  1  0
 27 26  2  0
 28 26  1  0
M  END
$$$$
