KVF.pdb
     RDKit          3D

 28 28  0  0  1  0  0  0  0  0999 V2000
    6.0905  -17.0362   20.3501 N   0  0  0  0  0  0  0  0  0  0  0  0
    7.1164  -16.3200   21.0202 C   0  0  1  0  0  0  0  0  0  0  0  0
    7.0943  -14.8348   20.8182 C   0  0  0  0  0  0  0  0  0  0  0  0
    7.6097  -14.3350   19.5223 C   0  0  0  0  0  0  0  0  0  0  0  0
    8.5898  -13.2150   19.5826 C   0  0  0  0  0  0  0  0  0  0  0  0
    8.9804  -12.7288   18.2029 C   0  0  0  0  0  0  0  0  0  0  0  0
    7.8264  -12.4154   17.3879 N   0  0  0  0  0  0  0  0  0  0  0  0
    7.3070  -16.6795   22.4549 C   0  0  0  0  0  0  0  0  0  0  0  0
    6.3001  -16.7461   23.2362 O   0  0  0  0  0  0  0  0  0  0  0  0
    9.3491  -19.4857   25.7734 C   0  0  0  0  0  0  0  0  0  0  0  0
    9.3261  -18.9111   24.3572 C   0  0  1  0  0  0  0  0  0  0  0  0
    8.6140  -19.9091   23.4887 C   0  0  0  0  0  0  0  0  0  0  0  0
    8.6655  -17.5685   24.3734 C   0  0  2  0  0  0  0  0  0  0  0  0
    8.5449  -16.9633   23.0590 N   0  0  0  0  0  0  0  0  0  0  0  0
    9.4405  -16.6712   25.2935 C   0  0  0  0  0  0  0  0  0  0  0  0
   10.5381  -16.1762   24.9360 O   0  0  0  0  0  0  0  0  0  0  0  0
    8.9746  -16.3440   26.5945 N   0  0  0  0  0  0  0  0  0  0  0  0
    9.7660  -15.5061   27.5027 C   0  0  1  0  0  0  0  0  0  0  0  0
    8.8409  -14.5671   28.2725 C   0  0  0  0  0  0  0  0  0  0  0  0
    8.0943  -13.6886   27.3298 C   0  0  0  0  0  0  0  0  0  0  0  0
    8.7109  -12.6046   26.7535 C   0  0  0  0  0  0  0  0  0  0  0  0
    8.0237  -11.7828   25.8716 C   0  0  0  0  0  0  0  0  0  0  0  0
    6.7059  -12.0481   25.5628 C   0  0  0  0  0  0  0  0  0  0  0  0
    6.0709  -13.1477   26.1442 C   0  0  0  0  0  0  0  0  0  0  0  0
    6.7757  -13.9521   27.0198 C   0  0  0  0  0  0  0  0  0  0  0  0
   10.5839  -16.3210   28.4120 C   0  0  0  0  0  0  0  0  0  0  0  0
   10.3321  -17.5405   28.5575 O   0  0  0  0  0  0  0  0  0  0  0  0
   11.6389  -15.7808   29.1239 O   0  0  0  0  0  0  0  0  0  0  0  0
  2  1  1  1
  2  3  1  0
  4  3  1  0
  4  5  1  0
  6  5  1  0
  6  7  1  0
  8  2  1  0
  9  8  2  0
 11 10  1  1
 11 12  1  0
 11 13  1  0
 13 14  1  6
 14  8  1  0
 15 13  1  0
 15 16  2  0
 17 15  1  0
 18 17  1  0
 18 19  1  1
 20 19  1  0
 20 21  2  0
 22 21  1  0
 23 22  2  0
 24 25  2  0
 24 23  1  0
 25 20  1  0
 26 18  1  0
 27 26  2  0
 28 26  1  0
M  END
$$$$
