KVF.pdb
     RDKit          3D

 28 28  0  0  1  0  0  0  0  0999 V2000
    9.6236  -18.6298   18.6541 N   0  0  0  0  0  0  0  0  0  0  0  0
   10.7270  -18.0077   19.2944 C   0  0  1  0  0  0  0  0  0  0  0  0
   11.8609  -17.6309   18.3890 C   0  0  0  0  0  0  0  0  0  0  0  0
   13.2114  -18.0849   18.7948 C   0  0  0  0  0  0  0  0  0  0  0  0
   13.6584  -19.4029   18.2640 C   0  0  0  0  0  0  0  0  0  0  0  0
   15.0124  -19.8040   18.8099 C   0  0  0  0  0  0  0  0  0  0  0  0
   15.7336  -20.6679   17.9002 N   0  0  0  0  0  0  0  0  0  0  0  0
   10.3755  -16.9003   20.2294 C   0  0  0  0  0  0  0  0  0  0  0  0
   11.2981  -16.2433   20.8174 O   0  0  0  0  0  0  0  0  0  0  0  0
    7.1641  -13.6610   22.1975 C   0  0  0  0  0  0  0  0  0  0  0  0
    7.3995  -14.7964   21.2016 C   0  0  1  0  0  0  0  0  0  0  0  0
    7.1837  -14.2283   19.8274 C   0  0  0  0  0  0  0  0  0  0  0  0
    8.7734  -15.3561   21.3976 C   0  0  2  0  0  0  0  0  0  0  0  0
    9.0665  -16.4921   20.5419 N   0  0  0  0  0  0  0  0  0  0  0  0
    8.9281  -15.7349   22.8415 C   0  0  0  0  0  0  0  0  0  0  0  0
    8.4272  -16.7978   23.2852 O   0  0  0  0  0  0  0  0  0  0  0  0
    9.6393  -14.9197   23.7613 N   0  0  0  0  0  0  0  0  0  0  0  0
    9.6751  -15.2343   25.1942 C   0  0  1  0  0  0  0  0  0  0  0  0
   10.3052  -14.0735   25.9595 C   0  0  0  0  0  0  0  0  0  0  0  0
   10.3880  -14.3951   27.4113 C   0  0  0  0  0  0  0  0  0  0  0  0
   11.1714  -15.4352   27.8492 C   0  0  0  0  0  0  0  0  0  0  0  0
   11.2570  -15.7397   29.2003 C   0  0  0  0  0  0  0  0  0  0  0  0
   10.5515  -14.9959   30.1229 C   0  0  0  0  0  0  0  0  0  0  0  0
    9.7523  -13.9369   29.6868 C   0  0  0  0  0  0  0  0  0  0  0  0
    9.6829  -13.6524   28.3360 C   0  0  0  0  0  0  0  0  0  0  0  0
    8.3363  -15.5549   25.7088 C   0  0  0  0  0  0  0  0  0  0  0  0
    7.3556  -14.8420   25.3896 O   0  0  0  0  0  0  0  0  0  0  0  0
    8.1170  -16.6330   26.5461 O   0  0  0  0  0  0  0  0  0  0  0  0
  2  1  1  6
  2  3  1  0
  4  3  1  0
  4  5  1  0
  6  5  1  0
  6  7  1  0
  8  2  1  0
  9  8  2  0
 11 10  1  1
 11 12  1  0
 11 13  1  0
 13 14  1  6
 14  8  1  0
 15 13  1  0
 15 16  2  0
 17 15  1  0
 18 17  1  0
 18 19  1  1
 20 19  1  0
 20 21  2  0
 22 21  1  0
 23 22  2  0
 24 25  2  0
 24 23  1  0
 25 20  1  0
 26 18  1  0
 27 26  2  0
 28 26  1  0
M  END
$$$$
