KVF.pdb
     RDKit          3D

 28 28  0  0  1  0  0  0  0  0999 V2000
    8.2416  -19.3450   19.6111 N   0  0  0  0  0  0  0  0  0  0  0  0
    7.6225  -18.6421   20.6775 C   0  0  1  0  0  0  0  0  0  0  0  0
    7.3725  -19.4508   21.9148 C   0  0  0  0  0  0  0  0  0  0  0  0
    6.6869  -20.7508   21.7288 C   0  0  0  0  0  0  0  0  0  0  0  0
    5.4038  -20.9381   22.4619 C   0  0  0  0  0  0  0  0  0  0  0  0
    4.7438  -22.2573   22.1212 C   0  0  0  0  0  0  0  0  0  0  0  0
    3.4904  -22.4375   22.8217 N   0  0  0  0  0  0  0  0  0  0  0  0
    8.2255  -17.3160   20.9970 C   0  0  0  0  0  0  0  0  0  0  0  0
    9.4937  -17.1902   21.0641 O   0  0  0  0  0  0  0  0  0  0  0  0
    8.0063  -12.3841   21.4237 C   0  0  0  0  0  0  0  0  0  0  0  0
    7.2890  -13.6852   21.0643 C   0  0  1  0  0  0  0  0  0  0  0  0
    7.0190  -13.6453   19.5867 C   0  0  0  0  0  0  0  0  0  0  0  0
    8.1318  -14.8508   21.4768 C   0  0  2  0  0  0  0  0  0  0  0  0
    7.4995  -16.1372   21.2447 N   0  0  0  0  0  0  0  0  0  0  0  0
    8.4792  -14.6929   22.9283 C   0  0  0  0  0  0  0  0  0  0  0  0
    8.5170  -13.5561   23.4610 O   0  0  0  0  0  0  0  0  0  0  0  0
    8.7772  -15.8075   23.7563 N   0  0  0  0  0  0  0  0  0  0  0  0
    8.8917  -15.6700   25.2128 C   0  0  1  0  0  0  0  0  0  0  0  0
    7.5201  -15.3651   25.8095 C   0  0  0  0  0  0  0  0  0  0  0  0
    7.3956  -13.9105   26.1038 C   0  0  0  0  0  0  0  0  0  0  0  0
    6.1839  -13.2763   25.9738 C   0  0  0  0  0  0  0  0  0  0  0  0
    6.0582  -11.9221   26.2492 C   0  0  0  0  0  0  0  0  0  0  0  0
    7.1561  -11.1948   26.6590 C   0  0  0  0  0  0  0  0  0  0  0  0
    8.3919  -11.8312   26.7936 C   0  0  0  0  0  0  0  0  0  0  0  0
    8.4927  -13.1809   26.5137 C   0  0  0  0  0  0  0  0  0  0  0  0
    9.4897  -16.8666   25.8214 C   0  0  0  0  0  0  0  0  0  0  0  0
    9.6448  -17.9058   25.1376 O   0  0  0  0  0  0  0  0  0  0  0  0
    9.8941  -16.8864   27.1434 O   0  0  0  0  0  0  0  0  0  0  0  0
  2  1  1  6
  2  3  1  0
  4  3  1  0
  4  5  1  0
  6  5  1  0
  6  7  1  0
  8  2  1  0
  9  8  2  0
 11 10  1  6
 11 12  1  0
 11 13  1  0
 13 14  1  1
 14  8  1  0
 15 13  1  0
 15 16  2  0
 17 15  1  0
 18 17  1  0
 18 19  1  1
 20 19  1  0
 20 21  2  0
 22 21  1  0
 23 22  2  0
 24 25  2  0
 24 23  1  0
 25 20  1  0
 26 18  1  0
 27 26  2  0
 28 26  1  0
M  END
$$$$
