KVF.pdb
     RDKit          3D

 28 28  0  0  1  0  0  0  0  0999 V2000
   10.2117  -18.4796   18.4126 N   0  0  0  0  0  0  0  0  0  0  0  0
    9.1037  -18.0947   19.2117 C   0  0  1  0  0  0  0  0  0  0  0  0
    8.4721  -19.2010   20.0020 C   0  0  0  0  0  0  0  0  0  0  0  0
    8.5604  -20.5620   19.4237 C   0  0  0  0  0  0  0  0  0  0  0  0
    7.3100  -21.1184   18.8358 C   0  0  0  0  0  0  0  0  0  0  0  0
    7.4912  -22.5462   18.3659 C   0  0  0  0  0  0  0  0  0  0  0  0
    7.7789  -23.4485   19.4600 N   0  0  0  0  0  0  0  0  0  0  0  0
    9.3144  -16.8737   20.0417 C   0  0  0  0  0  0  0  0  0  0  0  0
   10.3887  -16.7378   20.7170 O   0  0  0  0  0  0  0  0  0  0  0  0
    7.9676  -12.4424   21.8455 C   0  0  0  0  0  0  0  0  0  0  0  0
    7.6396  -13.5734   20.8710 C   0  0  1  0  0  0  0  0  0  0  0  0
    7.7377  -13.0023   19.4847 C   0  0  0  0  0  0  0  0  0  0  0  0
    8.5740  -14.7191   21.1026 C   0  0  2  0  0  0  0  0  0  0  0  0
    8.4023  -15.8098   20.1594 N   0  0  0  0  0  0  0  0  0  0  0  0
    8.3831  -15.2082   22.5085 C   0  0  0  0  0  0  0  0  0  0  0  0
    7.4160  -15.9526   22.8053 O   0  0  0  0  0  0  0  0  0  0  0  0
    9.2762  -14.8567   23.5553 N   0  0  0  0  0  0  0  0  0  0  0  0
    9.0246  -15.2599   24.9437 C   0  0  1  0  0  0  0  0  0  0  0  0
    7.5208  -15.2989   25.2028 C   0  0  0  0  0  0  0  0  0  0  0  0
    7.0522  -13.9869   25.7292 C   0  0  0  0  0  0  0  0  0  0  0  0
    5.7161  -13.7689   25.9631 C   0  0  0  0  0  0  0  0  0  0  0  0
    5.2713  -12.5507   26.4566 C   0  0  0  0  0  0  0  0  0  0  0  0
    6.1723  -11.5400   26.7188 C   0  0  0  0  0  0  0  0  0  0  0  0
    7.5325  -11.7526   26.4837 C   0  0  0  0  0  0  0  0  0  0  0  0
    7.9520  -12.9743   25.9920 C   0  0  0  0  0  0  0  0  0  0  0  0
    9.6579  -16.5495   25.2532 C   0  0  0  0  0  0  0  0  0  0  0  0
    9.6048  -17.0094   26.4183 O   0  0  0  0  0  0  0  0  0  0  0  0
   10.3208  -17.2852   24.2885 O   0  0  0  0  0  0  0  0  0  0  0  0
  2  1  1  1
  2  3  1  0
  4  3  1  0
  4  5  1  0
  6  5  1  0
  6  7  1  0
  8  2  1  0
  9  8  2  0
 11 10  1  1
 11 12  1  0
 11 13  1  0
 13 14  1  6
 14  8  1  0
 15 13  1  0
 15 16  2  0
 17 15  1  0
 18 17  1  0
 18 19  1  6
 20 19  1  0
 20 21  2  0
 22 21  1  0
 23 22  2  0
 24 25  2  0
 24 23  1  0
 25 20  1  0
 26 18  1  0
 27 26  2  0
 28 26  1  0
M  END
$$$$
