KVF.pdb
     RDKit          3D

 28 28  0  0  1  0  0  0  0  0999 V2000
    8.6278  -17.5793   17.4170 N   0  0  0  0  0  0  0  0  0  0  0  0
    9.7269  -17.7432   18.2999 C   0  0  1  0  0  0  0  0  0  0  0  0
   11.0592  -17.9165   17.6349 C   0  0  0  0  0  0  0  0  0  0  0  0
   11.5574  -19.3054   17.5021 C   0  0  0  0  0  0  0  0  0  0  0  0
   12.3946  -19.6013   16.3062 C   0  0  0  0  0  0  0  0  0  0  0  0
   13.8147  -19.9654   16.6845 C   0  0  0  0  0  0  0  0  0  0  0  0
   13.8761  -21.1797   17.4692 N   0  0  0  0  0  0  0  0  0  0  0  0
    9.7923  -16.7606   19.4198 C   0  0  0  0  0  0  0  0  0  0  0  0
   10.9190  -16.2928   19.7944 O   0  0  0  0  0  0  0  0  0  0  0  0
    7.8508  -13.3473   22.3945 C   0  0  0  0  0  0  0  0  0  0  0  0
    7.6467  -14.3307   21.2423 C   0  0  1  0  0  0  0  0  0  0  0  0
    7.5105  -13.5160   19.9872 C   0  0  0  0  0  0  0  0  0  0  0  0
    8.7921  -15.2926   21.1976 C   0  0  2  0  0  0  0  0  0  0  0  0
    8.6829  -16.2787   20.1373 N   0  0  0  0  0  0  0  0  0  0  0  0
    8.8934  -15.9695   22.5332 C   0  0  0  0  0  0  0  0  0  0  0  0
    7.9090  -16.5759   23.0238 O   0  0  0  0  0  0  0  0  0  0  0  0
   10.0922  -15.9564   23.2946 N   0  0  0  0  0  0  0  0  0  0  0  0
   10.0713  -15.7875   24.7521 C   0  0  1  0  0  0  0  0  0  0  0  0
    9.8436  -14.3177   25.0958 C   0  0  0  0  0  0  0  0  0  0  0  0
    9.7131  -14.1449   26.5692 C   0  0  0  0  0  0  0  0  0  0  0  0
   10.7062  -14.5835   27.4112 C   0  0  0  0  0  0  0  0  0  0  0  0
   10.5943  -14.4236   28.7849 C   0  0  0  0  0  0  0  0  0  0  0  0
    9.4773  -13.8186   29.3222 C   0  0  0  0  0  0  0  0  0  0  0  0
    8.4626  -13.3700   28.4739 C   0  0  0  0  0  0  0  0  0  0  0  0
    8.5963  -13.5402   27.1088 C   0  0  0  0  0  0  0  0  0  0  0  0
    9.0605  -16.6500   25.3799 C   0  0  0  0  0  0  0  0  0  0  0  0
    7.8454  -16.4806   25.1219 O   0  0  0  0  0  0  0  0  0  0  0  0
    9.4086  -17.6586   26.2592 O   0  0  0  0  0  0  0  0  0  0  0  0
  2  1  1  6
  2  3  1  0
  4  3  1  0
  4  5  1  0
  6  5  1  0
  6  7  1  0
  8  2  1  0
  9  8  2  0
 11 10  1  1
 11 12  1  0
 11 13  1  0
 13 14  1  6
 14  8  1  0
 15 13  1  0
 15 16  2  0
 17 15  1  0
 18 17  1  0
 18 19  1  6
 20 19  1  0
 20 21  2  0
 22 21  1  0
 23 22  2  0
 24 25  2  0
 24 23  1  0
 25 20  1  0
 26 18  1  0
 27 26  2  0
 28 26  1  0
M  END
$$$$
