KVF.pdb
     RDKit          3D

 28 28  0  0  1  0  0  0  0  0999 V2000
    5.7076  -16.7443   20.1579 N   0  0  0  0  0  0  0  0  0  0  0  0
    6.6094  -16.1598   21.0850 C   0  0  1  0  0  0  0  0  0  0  0  0
    6.5727  -14.6627   21.1537 C   0  0  0  0  0  0  0  0  0  0  0  0
    6.7581  -13.9365   19.8759 C   0  0  0  0  0  0  0  0  0  0  0  0
    7.6870  -12.7723   19.9001 C   0  0  0  0  0  0  0  0  0  0  0  0
    8.6903  -12.8242   18.7674 C   0  0  0  0  0  0  0  0  0  0  0  0
    9.5773  -11.6808   18.7713 N   0  0  0  0  0  0  0  0  0  0  0  0
    6.6091  -16.7752   22.4434 C   0  0  0  0  0  0  0  0  0  0  0  0
    5.5495  -16.7540   23.1543 O   0  0  0  0  0  0  0  0  0  0  0  0
    7.9401  -19.8524   25.9323 C   0  0  0  0  0  0  0  0  0  0  0  0
    8.0194  -19.3900   24.4775 C   0  0  1  0  0  0  0  0  0  0  0  0
    7.0793  -20.2565   23.6883 C   0  0  0  0  0  0  0  0  0  0  0  0
    7.6846  -17.9337   24.3973 C   0  0  2  0  0  0  0  0  0  0  0  0
    7.7138  -17.4035   23.0457 N   0  0  0  0  0  0  0  0  0  0  0  0
    8.6396  -17.1798   25.2758 C   0  0  0  0  0  0  0  0  0  0  0  0
    9.7634  -16.8204   24.8452 O   0  0  0  0  0  0  0  0  0  0  0  0
    8.3208  -16.8417   26.6177 N   0  0  0  0  0  0  0  0  0  0  0  0
    9.2816  -16.1445   27.4804 C   0  0  1  0  0  0  0  0  0  0  0  0
    8.5539  -15.0951   28.3167 C   0  0  0  0  0  0  0  0  0  0  0  0
    7.9606  -14.0514   27.4354 C   0  0  0  0  0  0  0  0  0  0  0  0
    8.7388  -13.0305   26.9459 C   0  0  0  0  0  0  0  0  0  0  0  0
    8.1950  -12.0558   26.1215 C   0  0  0  0  0  0  0  0  0  0  0  0
    6.8587  -12.1029   25.7832 C   0  0  0  0  0  0  0  0  0  0  0  0
    6.0600  -13.1369   26.2764 C   0  0  0  0  0  0  0  0  0  0  0  0
    6.6240  -14.0965   27.0959 C   0  0  0  0  0  0  0  0  0  0  0  0
   10.0269  -17.0861   28.3276 C   0  0  0  0  0  0  0  0  0  0  0  0
    9.6107  -18.2594   28.4756 O   0  0  0  0  0  0  0  0  0  0  0  0
   11.1901  -16.7172   28.9774 O   0  0  0  0  0  0  0  0  0  0  0  0
  2  1  1  6
  2  3  1  0
  4  3  1  0
  4  5  1  0
  6  5  1  0
  6  7  1  0
  8  2  1  0
  9  8  2  0
 11 10  1  1
 11 12  1  0
 11 13  1  0
 13 14  1  6
 14  8  1  0
 15 13  1  0
 15 16  2  0
 17 15  1  0
 18 17  1  0
 18 19  1  1
 20 19  1  0
 20 21  2  0
 22 21  1  0
 23 22  2  0
 24 25  2  0
 24 23  1  0
 25 20  1  0
 26 18  1  0
 27 26  2  0
 28 26  1  0
M  END
$$$$
