KVF.pdb
     RDKit          3D

 28 28  0  0  1  0  0  0  0  0999 V2000
   11.9479  -18.9521   19.0616 N   0  0  0  0  0  0  0  0  0  0  0  0
   10.8678  -18.9083   19.9814 C   0  0  1  0  0  0  0  0  0  0  0  0
   11.0122  -19.7997   21.1781 C   0  0  0  0  0  0  0  0  0  0  0  0
   12.2949  -20.5291   21.3096 C   0  0  0  0  0  0  0  0  0  0  0  0
   12.4089  -21.4751   22.4544 C   0  0  0  0  0  0  0  0  0  0  0  0
   13.7428  -22.1912   22.4672 C   0  0  0  0  0  0  0  0  0  0  0  0
   14.6257  -21.6820   23.4944 N   0  0  0  0  0  0  0  0  0  0  0  0
   10.4160  -17.5395   20.3637 C   0  0  0  0  0  0  0  0  0  0  0  0
   11.2711  -16.6578   20.7101 O   0  0  0  0  0  0  0  0  0  0  0  0
    6.2760  -16.2573   20.5250 C   0  0  0  0  0  0  0  0  0  0  0  0
    7.4102  -15.3019   20.1550 C   0  0  1  0  0  0  0  0  0  0  0  0
    6.9952  -13.9302   20.6063 C   0  0  0  0  0  0  0  0  0  0  0  0
    8.6834  -15.7690   20.7876 C   0  0  2  0  0  0  0  0  0  0  0  0
    9.0781  -17.1063   20.3822 N   0  0  0  0  0  0  0  0  0  0  0  0
    8.5239  -15.6997   22.2782 C   0  0  0  0  0  0  0  0  0  0  0  0
    8.2284  -16.7241   22.9422 O   0  0  0  0  0  0  0  0  0  0  0  0
    8.6980  -14.4881   22.9982 N   0  0  0  0  0  0  0  0  0  0  0  0
    8.3137  -14.3746   24.4099 C   0  0  1  0  0  0  0  0  0  0  0  0
    7.9025  -12.9368   24.7164 C   0  0  0  0  0  0  0  0  0  0  0  0
    7.4559  -12.8169   26.1320 C   0  0  0  0  0  0  0  0  0  0  0  0
    8.3775  -12.6993   27.1440 C   0  0  0  0  0  0  0  0  0  0  0  0
    7.9702  -12.5837   28.4654 C   0  0  0  0  0  0  0  0  0  0  0  0
    6.6268  -12.5859   28.7778 C   0  0  0  0  0  0  0  0  0  0  0  0
    5.6828  -12.7053   27.7555 C   0  0  0  0  0  0  0  0  0  0  0  0
    6.1124  -12.8191   26.4468 C   0  0  0  0  0  0  0  0  0  0  0  0
    7.2473  -15.3250   24.7559 C   0  0  0  0  0  0  0  0  0  0  0  0
    6.2159  -15.3941   24.0466 O   0  0  0  0  0  0  0  0  0  0  0  0
    7.3439  -16.1593   25.8541 O   0  0  0  0  0  0  0  0  0  0  0  0
  2  1  1  1
  2  3  1  0
  4  3  1  0
  4  5  1  0
  6  5  1  0
  6  7  1  0
  8  2  1  0
  9  8  2  0
 11 10  1  1
 11 12  1  0
 11 13  1  0
 13 14  1  1
 14  8  1  0
 15 13  1  0
 15 16  2  0
 17 15  1  0
 18 17  1  0
 18 19  1  6
 20 19  1  0
 20 21  2  0
 22 21  1  0
 23 22  2  0
 24 25  2  0
 24 23  1  0
 25 20  1  0
 26 18  1  0
 27 26  2  0
 28 26  1  0
M  END
$$$$
