KVF.pdb
     RDKit          3D

 28 28  0  0  1  0  0  0  0  0999 V2000
    7.0011  -18.4063   20.1330 N   0  0  0  0  0  0  0  0  0  0  0  0
    8.3800  -18.1745   19.8894 C   0  0  1  0  0  0  0  0  0  0  0  0
    8.8430  -18.4844   18.4976 C   0  0  0  0  0  0  0  0  0  0  0  0
   10.0859  -19.2813   18.3753 C   0  0  0  0  0  0  0  0  0  0  0  0
    9.9203  -20.7337   18.0890 C   0  0  0  0  0  0  0  0  0  0  0  0
   11.2526  -21.4398   17.9522 C   0  0  0  0  0  0  0  0  0  0  0  0
   11.5762  -21.7319   16.5723 N   0  0  0  0  0  0  0  0  0  0  0  0
    8.8945  -16.8569   20.3620 C   0  0  0  0  0  0  0  0  0  0  0  0
    9.9718  -16.3788   19.8727 O   0  0  0  0  0  0  0  0  0  0  0  0
    8.4072  -12.3070   21.9097 C   0  0  0  0  0  0  0  0  0  0  0  0
    7.7902  -13.6402   21.4874 C   0  0  1  0  0  0  0  0  0  0  0  0
    7.3820  -13.5002   20.0482 C   0  0  0  0  0  0  0  0  0  0  0  0
    8.7774  -14.7417   21.7142 C   0  0  2  0  0  0  0  0  0  0  0  0
    8.2811  -16.0541   21.3403 N   0  0  0  0  0  0  0  0  0  0  0  0
    9.1789  -14.7266   23.1602 C   0  0  0  0  0  0  0  0  0  0  0  0
    9.9850  -13.8674   23.5954 O   0  0  0  0  0  0  0  0  0  0  0  0
    8.6720  -15.6710   24.0919 N   0  0  0  0  0  0  0  0  0  0  0  0
    9.3248  -15.8947   25.3870 C   0  0  1  0  0  0  0  0  0  0  0  0
    9.3196  -14.5998   26.1953 C   0  0  0  0  0  0  0  0  0  0  0  0
    7.9688  -13.9736   26.1607 C   0  0  0  0  0  0  0  0  0  0  0  0
    7.8315  -12.6310   25.9042 C   0  0  0  0  0  0  0  0  0  0  0  0
    6.5766  -12.0400   25.8668 C   0  0  0  0  0  0  0  0  0  0  0  0
    5.4473  -12.8001   26.0884 C   0  0  0  0  0  0  0  0  0  0  0  0
    5.5773  -14.1657   26.3503 C   0  0  0  0  0  0  0  0  0  0  0  0
    6.8377  -14.7321   26.3824 C   0  0  0  0  0  0  0  0  0  0  0  0
    8.6899  -16.9941   26.1273 C   0  0  0  0  0  0  0  0  0  0  0  0
    7.7456  -17.6351   25.6086 O   0  0  0  0  0  0  0  0  0  0  0  0
    9.1049  -17.3522   27.3966 O   0  0  0  0  0  0  0  0  0  0  0  0
  2  1  1  6
  2  3  1  0
  4  3  1  0
  4  5  1  0
  6  5  1  0
  6  7  1  0
  8  2  1  0
  9  8  2  0
 11 10  1  6
 11 12  1  0
 11 13  1  0
 13 14  1  1
 14  8  1  0
 15 13  1  0
 15 16  2  0
 17 15  1  0
 18 17  1  0
 18 19  1  1
 20 19  1  0
 20 21  2  0
 22 21  1  0
 23 22  2  0
 24 25  2  0
 24 23  1  0
 25 20  1  0
 26 18  1  0
 27 26  2  0
 28 26  1  0
M  END
$$$$
