KVF.pdb
     RDKit          3D

 28 28  0  0  1  0  0  0  0  0999 V2000
    7.5585  -18.6942   20.0678 N   0  0  0  0  0  0  0  0  0  0  0  0
    8.8800  -18.2742   19.7650 C   0  0  1  0  0  0  0  0  0  0  0  0
    9.3100  -18.4937   18.3458 C   0  0  0  0  0  0  0  0  0  0  0  0
    8.7788  -19.7015   17.6722 C   0  0  0  0  0  0  0  0  0  0  0  0
    9.7262  -20.4474   16.7976 C   0  0  0  0  0  0  0  0  0  0  0  0
    9.2348  -20.5266   15.3677 C   0  0  0  0  0  0  0  0  0  0  0  0
    9.9839  -19.6592   14.4844 N   0  0  0  0  0  0  0  0  0  0  0  0
    9.2365  -16.9079   20.2450 C   0  0  0  0  0  0  0  0  0  0  0  0
   10.4356  -16.4849   20.1359 O   0  0  0  0  0  0  0  0  0  0  0  0
    8.1192  -12.2848   21.5632 C   0  0  0  0  0  0  0  0  0  0  0  0
    7.6398  -13.6429   21.0512 C   0  0  1  0  0  0  0  0  0  0  0  0
    7.2501  -13.4581   19.6120 C   0  0  0  0  0  0  0  0  0  0  0  0
    8.7218  -14.6590   21.2418 C   0  0  2  0  0  0  0  0  0  0  0  0
    8.3395  -15.9994   20.8347 N   0  0  0  0  0  0  0  0  0  0  0  0
    9.1323  -14.6476   22.6852 C   0  0  0  0  0  0  0  0  0  0  0  0
    9.7845  -13.6855   23.1613 O   0  0  0  0  0  0  0  0  0  0  0  0
    8.8062  -15.7104   23.5688 N   0  0  0  0  0  0  0  0  0  0  0  0
    9.2157  -15.6875   24.9778 C   0  0  1  0  0  0  0  0  0  0  0  0
    7.9787  -15.6599   25.8719 C   0  0  0  0  0  0  0  0  0  0  0  0
    7.5277  -14.2572   26.0882 C   0  0  0  0  0  0  0  0  0  0  0  0
    6.2167  -13.9076   25.8729 C   0  0  0  0  0  0  0  0  0  0  0  0
    5.7872  -12.6037   26.0752 C   0  0  0  0  0  0  0  0  0  0  0  0
    6.6784  -11.6395   26.4973 C   0  0  0  0  0  0  0  0  0  0  0  0
    8.0132  -11.9858   26.7184 C   0  0  0  0  0  0  0  0  0  0  0  0
    8.4178  -13.2909   26.5102 C   0  0  0  0  0  0  0  0  0  0  0  0
   10.0900  -16.8230   25.3031 C   0  0  0  0  0  0  0  0  0  0  0  0
   10.5368  -16.9559   26.4670 O   0  0  0  0  0  0  0  0  0  0  0  0
   10.4425  -17.7655   24.3550 O   0  0  0  0  0  0  0  0  0  0  0  0
  2  1  1  6
  2  3  1  0
  4  3  1  0
  4  5  1  0
  6  5  1  0
  6  7  1  0
  8  2  1  0
  9  8  2  0
 11 10  1  6
 11 12  1  0
 11 13  1  0
 13 14  1  1
 14  8  1  0
 15 13  1  0
 15 16  2  0
 17 15  1  0
 18 17  1  0
 18 19  1  1
 20 19  1  0
 20 21  2  0
 22 21  1  0
 23 22  2  0
 24 25  2  0
 24 23  1  0
 25 20  1  0
 26 18  1  0
 27 26  2  0
 28 26  1  0
M  END
$$$$
