ETQ.pdb
     RDKit          3D

 26 25  0  0  1  0  0  0  0  0999 V2000
    9.7739  -14.7756   13.8738 N   0  0  0  0  0  0  0  0  0  0  0  0
    9.3586  -15.5551   15.0395 C   0  0  1  0  0  0  0  0  0  0  0  0
    9.9607  -16.9125   15.0233 C   0  0  0  0  0  0  0  0  0  0  0  0
   11.4601  -16.8422   14.9603 C   0  0  0  0  0  0  0  0  0  0  0  0
   12.0615  -18.2111   14.9006 C   0  0  0  0  0  0  0  0  0  0  0  0
   11.3278  -19.1894   15.0588 O   0  0  0  0  0  0  0  0  0  0  0  0
    9.7057  -14.8269   16.2723 C   0  0  0  0  0  0  0  0  0  0  0  0
   10.7628  -14.1632   16.4574 O   0  0  0  0  0  0  0  0  0  0  0  0
   13.3972  -18.3351   14.6740 O   0  0  0  0  0  0  0  0  0  0  0  0
    7.8476  -12.8260   20.3272 C   0  0  0  0  0  0  0  0  0  0  0  0
    7.6734  -13.7519   19.1534 C   0  0  1  0  0  0  0  0  0  0  0  0
    6.9359  -13.0837   18.1780 O   0  0  0  0  0  0  0  0  0  0  0  0
    9.0476  -14.0296   18.5299 C   0  0  2  0  0  0  0  0  0  0  0  0
    8.7705  -14.8688   17.3594 N   0  0  0  0  0  0  0  0  0  0  0  0
    9.8294  -14.8626   19.4788 C   0  0  0  0  0  0  0  0  0  0  0  0
    9.7008  -16.1266   19.4915 O   0  0  0  0  0  0  0  0  0  0  0  0
   14.6445  -13.9333   19.8744 N   0  0  0  0  0  0  0  0  0  0  0  0
   14.9468  -15.0226   20.7219 C   0  0  0  0  0  0  0  0  0  0  0  0
   15.9938  -15.6819   20.6257 O   0  0  0  0  0  0  0  0  0  0  0  0
   13.9523  -15.3903   21.7812 C   0  0  0  0  0  0  0  0  0  0  0  0
   12.7800  -14.4759   21.6919 C   0  0  0  0  0  0  0  0  0  0  0  0
   11.5296  -15.1804   21.2946 C   0  0  2  0  0  0  0  0  0  0  0  0
   10.7367  -14.3199   20.3983 N   0  0  0  0  0  0  0  0  0  0  0  0
   10.6989  -15.4981   22.4576 C   0  0  0  0  0  0  0  0  0  0  0  0
   11.0335  -16.3557   23.3068 O   0  0  0  0  0  0  0  0  0  0  0  0
    9.4754  -14.8005   22.6127 O   0  0  0  0  0  0  0  0  0  0  0  0
  2  1  1  6
  3  2  1  0
  4  3  1  0
  5  6  2  0
  5  4  1  0
  7  2  1  0
  8  7  2  0
  9  5  1  0
 11 10  1  1
 11 12  1  0
 13 11  1  0
 13 14  1  6
 14  7  1  0
 15 13  1  0
 16 15  2  0
 18 20  1  0
 18 17  1  0
 19 18  2  0
 21 20  1  0
 22 21  1  1
 22 23  1  0
 23 15  1  0
 24 26  1  0
 24 22  1  0
 25 24  2  0
M  END
$$$$
