ETQ.pdb
     RDKit          3D

 26 25  0  0  1  0  0  0  0  0999 V2000
   10.4484  -16.7800   18.1357 N   0  0  0  0  0  0  0  0  0  0  0  0
   11.1895  -17.1785   19.3319 C   0  0  1  0  0  0  0  0  0  0  0  0
   12.6392  -17.3246   19.0448 C   0  0  0  0  0  0  0  0  0  0  0  0
   12.8672  -17.9361   17.6915 C   0  0  0  0  0  0  0  0  0  0  0  0
   14.3185  -18.2240   17.4680 C   0  0  0  0  0  0  0  0  0  0  0  0
   14.8099  -17.9760   16.3647 O   0  0  0  0  0  0  0  0  0  0  0  0
   10.9500  -16.2046   20.4111 C   0  0  0  0  0  0  0  0  0  0  0  0
   11.5973  -15.1365   20.5901 O   0  0  0  0  0  0  0  0  0  0  0  0
   15.0509  -18.7497   18.4868 O   0  0  0  0  0  0  0  0  0  0  0  0
    7.6171  -14.6739   21.0289 C   0  0  0  0  0  0  0  0  0  0  0  0
    8.0385  -15.3472   22.3074 C   0  0  1  0  0  0  0  0  0  0  0  0
    7.5618  -16.6564   22.2871 O   0  0  0  0  0  0  0  0  0  0  0  0
    9.5690  -15.4535   22.3332 C   0  0  2  0  0  0  0  0  0  0  0  0
    9.8944  -16.4841   21.3416 N   0  0  0  0  0  0  0  0  0  0  0  0
    9.9761  -15.9892   23.6571 C   0  0  0  0  0  0  0  0  0  0  0  0
   10.5531  -17.1173   23.7517 O   0  0  0  0  0  0  0  0  0  0  0  0
    9.6360  -13.0046   29.1269 N   0  0  0  0  0  0  0  0  0  0  0  0
   10.3089  -14.1729   29.5494 C   0  0  0  0  0  0  0  0  0  0  0  0
   10.7021  -14.3410   30.7144 O   0  0  0  0  0  0  0  0  0  0  0  0
   10.5538  -15.2515   28.5380 C   0  0  0  0  0  0  0  0  0  0  0  0
   10.0720  -14.7929   27.2054 C   0  0  0  0  0  0  0  0  0  0  0  0
   10.2440  -15.8243   26.1451 C   0  0  2  0  0  0  0  0  0  0  0  0
    9.7546  -15.3006   24.8571 N   0  0  0  0  0  0  0  0  0  0  0  0
    9.4860  -17.0394   26.4492 C   0  0  0  0  0  0  0  0  0  0  0  0
    9.9150  -17.9199   27.2297 O   0  0  0  0  0  0  0  0  0  0  0  0
    8.2231  -17.2093   25.8295 O   0  0  0  0  0  0  0  0  0  0  0  0
  2  1  1  6
  3  2  1  0
  4  3  1  0
  5  6  2  0
  5  4  1  0
  7  2  1  0
  8  7  2  0
  9  5  1  0
 11 10  1  6
 11 12  1  0
 13 11  1  0
 13 14  1  6
 14  7  1  0
 15 13  1  0
 16 15  2  0
 18 20  1  0
 18 17  1  0
 19 18  2  0
 21 20  1  0
 22 21  1  1
 22 23  1  0
 23 15  1  0
 24 26  1  0
 24 22  1  0
 25 24  2  0
M  END
$$$$
