ETQ.pdb
     RDKit          3D

 26 25  0  0  1  0  0  0  0  0999 V2000
   12.1484  -17.0698   18.9317 N   0  0  0  0  0  0  0  0  0  0  0  0
   11.3977  -17.5145   20.1054 C   0  0  1  0  0  0  0  0  0  0  0  0
   12.2535  -18.3063   21.0251 C   0  0  0  0  0  0  0  0  0  0  0  0
   12.6359  -19.6243   20.4137 C   0  0  0  0  0  0  0  0  0  0  0  0
   13.2196  -20.5447   21.4390 C   0  0  0  0  0  0  0  0  0  0  0  0
   13.4286  -20.1123   22.5746 O   0  0  0  0  0  0  0  0  0  0  0  0
   10.8081  -16.3495   20.7877 C   0  0  0  0  0  0  0  0  0  0  0  0
   11.4107  -15.2723   21.0495 O   0  0  0  0  0  0  0  0  0  0  0  0
   13.5017  -21.8285   21.0882 O   0  0  0  0  0  0  0  0  0  0  0  0
    6.7771  -14.0352   22.1946 C   0  0  0  0  0  0  0  0  0  0  0  0
    7.4135  -15.2202   21.5191 C   0  0  1  0  0  0  0  0  0  0  0  0
    7.4422  -14.9755   20.1477 O   0  0  0  0  0  0  0  0  0  0  0  0
    8.8789  -15.3188   21.9631 C   0  0  2  0  0  0  0  0  0  0  0  0
    9.4344  -16.4361   21.1923 N   0  0  0  0  0  0  0  0  0  0  0  0
    8.9062  -15.7276   23.3906 C   0  0  0  0  0  0  0  0  0  0  0  0
    8.9656  -16.9551   23.7135 O   0  0  0  0  0  0  0  0  0  0  0  0
   10.7907  -15.7518   29.1783 N   0  0  0  0  0  0  0  0  0  0  0  0
   10.3329  -14.5187   28.6625 C   0  0  0  0  0  0  0  0  0  0  0  0
   11.0536  -13.5117   28.5823 O   0  0  0  0  0  0  0  0  0  0  0  0
    8.9118  -14.4333   28.1940 C   0  0  0  0  0  0  0  0  0  0  0  0
    8.8922  -14.0613   26.7519 C   0  0  0  0  0  0  0  0  0  0  0  0
    8.9489  -15.2458   25.8512 C   0  0  2  0  0  0  0  0  0  0  0  0
    8.8692  -14.8072   24.4463 N   0  0  0  0  0  0  0  0  0  0  0  0
    7.8332  -16.1614   26.0964 C   0  0  0  0  0  0  0  0  0  0  0  0
    6.6708  -15.9253   25.6944 O   0  0  0  0  0  0  0  0  0  0  0  0
    8.0955  -17.3535   26.8161 O   0  0  0  0  0  0  0  0  0  0  0  0
  2  1  1  6
  3  2  1  0
  4  3  1  0
  5  6  2  0
  5  4  1  0
  7  2  1  0
  8  7  2  0
  9  5  1  0
 11 10  1  1
 11 12  1  0
 13 11  1  0
 13 14  1  6
 14  7  1  0
 15 13  1  0
 16 15  2  0
 18 20  1  0
 18 17  1  0
 19 18  2  0
 21 20  1  0
 22 21  1  1
 22 23  1  0
 23 15  1  0
 24 26  1  0
 24 22  1  0
 25 24  2  0
M  END
$$$$
