ETQ.pdb
     RDKit          3D

 26 25  0  0  1  0  0  0  0  0999 V2000
    8.2162  -17.7115   17.3472 N   0  0  0  0  0  0  0  0  0  0  0  0
    9.6140  -17.2818   17.3677 C   0  0  1  0  0  0  0  0  0  0  0  0
   10.0445  -16.7821   16.0371 C   0  0  0  0  0  0  0  0  0  0  0  0
    8.9189  -16.8399   15.0437 C   0  0  0  0  0  0  0  0  0  0  0  0
    9.3245  -16.2394   13.7345 C   0  0  0  0  0  0  0  0  0  0  0  0
    8.7815  -15.1954   13.3665 O   0  0  0  0  0  0  0  0  0  0  0  0
    9.8037  -16.2612   18.4131 C   0  0  0  0  0  0  0  0  0  0  0  0
   10.8591  -15.5967   18.6044 O   0  0  0  0  0  0  0  0  0  0  0  0
   10.2784  -16.8622   12.9908 O   0  0  0  0  0  0  0  0  0  0  0  0
    7.6577  -13.3206   19.2509 C   0  0  0  0  0  0  0  0  0  0  0  0
    7.6906  -14.1920   20.4777 C   0  0  1  0  0  0  0  0  0  0  0  0
    6.5968  -15.0538   20.4284 O   0  0  0  0  0  0  0  0  0  0  0  0
    8.9370  -15.0851   20.4209 C   0  0  2  0  0  0  0  0  0  0  0  0
    8.7026  -15.9923   19.2926 N   0  0  0  0  0  0  0  0  0  0  0  0
    8.9648  -15.9238   21.6462 C   0  0  0  0  0  0  0  0  0  0  0  0
    8.6484  -17.1534   21.5988 O   0  0  0  0  0  0  0  0  0  0  0  0
   12.7904  -18.9692   22.7397 N   0  0  0  0  0  0  0  0  0  0  0  0
   12.6874  -18.7130   24.1254 C   0  0  0  0  0  0  0  0  0  0  0  0
   13.5633  -19.0443   24.9396 O   0  0  0  0  0  0  0  0  0  0  0  0
   11.4618  -18.0090   24.6240 C   0  0  0  0  0  0  0  0  0  0  0  0
   11.0197  -17.0143   23.6075 C   0  0  0  0  0  0  0  0  0  0  0  0
    9.7593  -16.3204   23.9915 C   0  0  2  0  0  0  0  0  0  0  0  0
    9.3329  -15.4236   22.9022 N   0  0  0  0  0  0  0  0  0  0  0  0
    9.9392  -15.5060   25.1947 C   0  0  0  0  0  0  0  0  0  0  0  0
   10.1887  -14.2797   25.1437 O   0  0  0  0  0  0  0  0  0  0  0  0
    9.8234  -16.1443   26.4545 O   0  0  0  0  0  0  0  0  0  0  0  0
  2  1  1  6
  3  2  1  0
  4  3  1  0
  5  6  2  0
  5  4  1  0
  7  2  1  0
  8  7  2  0
  9  5  1  0
 11 10  1  6
 11 12  1  0
 13 11  1  0
 13 14  1  6
 14  7  1  0
 15 13  1  0
 16 15  2  0
 18 20  1  0
 18 17  1  0
 19 18  2  0
 21 20  1  0
 22 21  1  6
 22 23  1  0
 23 15  1  0
 24 26  1  0
 24 22  1  0
 25 24  2  0
M  END
$$$$
