ETQ.pdb
     RDKit          3D

 26 25  0  0  1  0  0  0  0  0999 V2000
    9.6828  -16.3526   17.5005 N   0  0  0  0  0  0  0  0  0  0  0  0
   10.2220  -16.8380   18.7703 C   0  0  1  0  0  0  0  0  0  0  0  0
   11.6732  -17.1342   18.6622 C   0  0  0  0  0  0  0  0  0  0  0  0
   11.9147  -18.3973   17.8854 C   0  0  0  0  0  0  0  0  0  0  0  0
   13.3786  -18.6794   17.7571 C   0  0  0  0  0  0  0  0  0  0  0  0
   13.9156  -19.4188   18.5849 O   0  0  0  0  0  0  0  0  0  0  0  0
    9.9511  -15.8540   19.8327 C   0  0  0  0  0  0  0  0  0  0  0  0
   10.2570  -14.6305   19.7925 O   0  0  0  0  0  0  0  0  0  0  0  0
   14.0719  -18.1127   16.7329 O   0  0  0  0  0  0  0  0  0  0  0  0
    7.4941  -14.0292   20.5089 C   0  0  0  0  0  0  0  0  0  0  0  0
    7.5014  -14.9070   21.7316 C   0  0  1  0  0  0  0  0  0  0  0  0
    6.8217  -16.0843   21.4258 O   0  0  0  0  0  0  0  0  0  0  0  0
    8.9468  -15.3196   22.0398 C   0  0  2  0  0  0  0  0  0  0  0  0
    9.2837  -16.3145   21.0162 N   0  0  0  0  0  0  0  0  0  0  0  0
    8.9604  -16.0270   23.3455 C   0  0  0  0  0  0  0  0  0  0  0  0
    9.2366  -17.2655   23.4103 O   0  0  0  0  0  0  0  0  0  0  0  0
    8.6985  -13.3334   28.9172 N   0  0  0  0  0  0  0  0  0  0  0  0
    9.9716  -13.8664   28.6146 C   0  0  0  0  0  0  0  0  0  0  0  0
   11.0011  -13.5438   29.2278 O   0  0  0  0  0  0  0  0  0  0  0  0
   10.0725  -14.8651   27.5016 C   0  0  0  0  0  0  0  0  0  0  0  0
    8.7098  -15.1476   26.9709 C   0  0  0  0  0  0  0  0  0  0  0  0
    8.7220  -16.1166   25.8403 C   0  0  2  0  0  0  0  0  0  0  0  0
    8.6764  -15.3882   24.5598 N   0  0  0  0  0  0  0  0  0  0  0  0
    7.5635  -17.0107   25.8861 C   0  0  0  0  0  0  0  0  0  0  0  0
    6.4830  -16.7384   25.3144 O   0  0  0  0  0  0  0  0  0  0  0  0
    7.6866  -18.2239   26.6078 O   0  0  0  0  0  0  0  0  0  0  0  0
  2  1  1  6
  3  2  1  0
  4  3  1  0
  5  6  2  0
  5  4  1  0
  7  2  1  0
  8  7  2  0
  9  5  1  0
 11 10  1  6
 11 12  1  0
 13 11  1  0
 13 14  1  6
 14  7  1  0
 15 13  1  0
 16 15  2  0
 18 20  1  0
 18 17  1  0
 19 18  2  0
 21 20  1  0
 22 21  1  1
 22 23  1  0
 23 15  1  0
 24 26  1  0
 24 22  1  0
 25 24  2  0
M  END
$$$$
