ETQ.pdb
     RDKit          3D

 26 25  0  0  1  0  0  0  0  0999 V2000
   13.3713  -13.8886   18.1477 N   0  0  0  0  0  0  0  0  0  0  0  0
   12.5144  -14.9393   18.6959 C   0  0  1  0  0  0  0  0  0  0  0  0
   13.3022  -16.1465   19.0530 C   0  0  0  0  0  0  0  0  0  0  0  0
   14.5996  -15.7743   19.7129 C   0  0  0  0  0  0  0  0  0  0  0  0
   15.4285  -16.9879   19.9942 C   0  0  0  0  0  0  0  0  0  0  0  0
   15.2565  -17.5915   21.0555 O   0  0  0  0  0  0  0  0  0  0  0  0
   11.7719  -14.4183   19.8568 C   0  0  0  0  0  0  0  0  0  0  0  0
   12.2592  -13.7077   20.7785 O   0  0  0  0  0  0  0  0  0  0  0  0
   16.3453  -17.3883   19.0723 O   0  0  0  0  0  0  0  0  0  0  0  0
    7.2836  -13.6230   21.6949 C   0  0  0  0  0  0  0  0  0  0  0  0
    8.1548  -14.1739   20.5981 C   0  0  1  0  0  0  0  0  0  0  0  0
    8.0764  -13.3120   19.5060 O   0  0  0  0  0  0  0  0  0  0  0  0
    9.6176  -14.1410   21.0601 C   0  0  2  0  0  0  0  0  0  0  0  0
   10.3773  -14.7394   19.9573 N   0  0  0  0  0  0  0  0  0  0  0  0
    9.7591  -15.0542   22.2227 C   0  0  0  0  0  0  0  0  0  0  0  0
    9.9940  -16.2912   22.0520 O   0  0  0  0  0  0  0  0  0  0  0  0
   11.1569  -14.1596   28.3271 N   0  0  0  0  0  0  0  0  0  0  0  0
    9.7568  -14.0884   28.1512 C   0  0  0  0  0  0  0  0  0  0  0  0
    8.9827  -13.7143   29.0460 O   0  0  0  0  0  0  0  0  0  0  0  0
    9.1913  -14.4846   26.8209 C   0  0  0  0  0  0  0  0  0  0  0  0
   10.3086  -14.7627   25.8761 C   0  0  0  0  0  0  0  0  0  0  0  0
    9.8725  -15.5366   24.6809 C   0  0  2  0  0  0  0  0  0  0  0  0
    9.6452  -14.6194   23.5498 N   0  0  0  0  0  0  0  0  0  0  0  0
    8.6209  -16.2534   24.9322 C   0  0  0  0  0  0  0  0  0  0  0  0
    7.5121  -15.8262   24.5366 O   0  0  0  0  0  0  0  0  0  0  0  0
    8.6846  -17.4734   25.6501 O   0  0  0  0  0  0  0  0  0  0  0  0
  2  1  1  1
  3  2  1  0
  4  3  1  0
  5  6  2  0
  5  4  1  0
  7  2  1  0
  8  7  2  0
  9  5  1  0
 11 10  1  1
 11 12  1  0
 13 11  1  0
 13 14  1  6
 14  7  1  0
 15 13  1  0
 16 15  2  0
 18 20  1  0
 18 17  1  0
 19 18  2  0
 21 20  1  0
 22 21  1  1
 22 23  1  0
 23 15  1  0
 24 26  1  0
 24 22  1  0
 25 24  2  0
M  END
$$$$
