ETQ.pdb
     RDKit          3D

 26 25  0  0  1  0  0  0  0  0999 V2000
    9.7524  -16.8301   17.6596 N   0  0  0  0  0  0  0  0  0  0  0  0
   10.4679  -17.1517   18.8939 C   0  0  1  0  0  0  0  0  0  0  0  0
   11.9269  -17.2870   18.6523 C   0  0  0  0  0  0  0  0  0  0  0  0
   12.2094  -18.3015   17.5808 C   0  0  0  0  0  0  0  0  0  0  0  0
   13.6809  -18.4465   17.3507 C   0  0  0  0  0  0  0  0  0  0  0  0
   14.4471  -18.3167   18.3080 O   0  0  0  0  0  0  0  0  0  0  0  0
   10.1838  -16.1266   19.9132 C   0  0  0  0  0  0  0  0  0  0  0  0
   10.2192  -14.8792   19.7266 O   0  0  0  0  0  0  0  0  0  0  0  0
   14.1283  -18.7167   16.0947 O   0  0  0  0  0  0  0  0  0  0  0  0
    7.3304  -15.1205   21.0071 C   0  0  0  0  0  0  0  0  0  0  0  0
    7.9150  -15.6471   22.2902 C   0  0  1  0  0  0  0  0  0  0  0  0
    7.6132  -17.0044   22.3808 O   0  0  0  0  0  0  0  0  0  0  0  0
    9.4449  -15.5571   22.2143 C   0  0  2  0  0  0  0  0  0  0  0  0
    9.8364  -16.5730   21.2316 N   0  0  0  0  0  0  0  0  0  0  0  0
   10.0019  -15.9886   23.5217 C   0  0  0  0  0  0  0  0  0  0  0  0
   10.7713  -16.9968   23.5988 O   0  0  0  0  0  0  0  0  0  0  0  0
    9.2374  -13.1493   29.0438 N   0  0  0  0  0  0  0  0  0  0  0  0
   10.1952  -14.1228   29.4058 C   0  0  0  0  0  0  0  0  0  0  0  0
   10.7424  -14.1495   30.5193 O   0  0  0  0  0  0  0  0  0  0  0  0
   10.5597  -15.1656   28.3928 C   0  0  0  0  0  0  0  0  0  0  0  0
   10.0216  -14.7664   27.0626 C   0  0  0  0  0  0  0  0  0  0  0  0
   10.3067  -15.7714   26.0013 C   0  0  2  0  0  0  0  0  0  0  0  0
    9.7205  -15.3268   24.7242 N   0  0  0  0  0  0  0  0  0  0  0  0
    9.7279  -17.0761   26.3272 C   0  0  0  0  0  0  0  0  0  0  0  0
    8.5560  -17.3874   26.0135 O   0  0  0  0  0  0  0  0  0  0  0  0
   10.5367  -18.0087   27.0228 O   0  0  0  0  0  0  0  0  0  0  0  0
  2  1  1  6
  3  2  1  0
  4  3  1  0
  5  6  2  0
  5  4  1  0
  7  2  1  0
  8  7  2  0
  9  5  1  0
 11 10  1  6
 11 12  1  0
 13 11  1  0
 13 14  1  6
 14  7  1  0
 15 13  1  0
 16 15  2  0
 18 20  1  0
 18 17  1  0
 19 18  2  0
 21 20  1  0
 22 21  1  1
 22 23  1  0
 23 15  1  0
 24 26  1  0
 24 22  1  0
 25 24  2  0
M  END
$$$$
