ETQ.pdb
     RDKit          3D

 26 25  0  0  1  0  0  0  0  0999 V2000
   10.6018  -16.9812   17.4219 N   0  0  0  0  0  0  0  0  0  0  0  0
    9.5629  -17.2158   18.4243 C   0  0  1  0  0  0  0  0  0  0  0  0
    9.5226  -18.6420   18.8359 C   0  0  0  0  0  0  0  0  0  0  0  0
   10.6864  -19.4051   18.2699 C   0  0  0  0  0  0  0  0  0  0  0  0
   10.6156  -20.8520   18.6450 C   0  0  0  0  0  0  0  0  0  0  0  0
   10.6337  -21.1573   19.8395 O   0  0  0  0  0  0  0  0  0  0  0  0
    9.7792  -16.3279   19.5798 C   0  0  0  0  0  0  0  0  0  0  0  0
   10.8983  -15.8977   19.9730 O   0  0  0  0  0  0  0  0  0  0  0  0
   10.5336  -21.7855   17.6588 O   0  0  0  0  0  0  0  0  0  0  0  0
    7.6614  -13.1237   20.3421 C   0  0  0  0  0  0  0  0  0  0  0  0
    7.5900  -14.1051   21.4811 C   0  0  1  0  0  0  0  0  0  0  0  0
    6.5086  -14.9545   21.2563 O   0  0  0  0  0  0  0  0  0  0  0  0
    8.8405  -14.9938   21.4519 C   0  0  2  0  0  0  0  0  0  0  0  0
    8.6278  -15.9110   20.3274 N   0  0  0  0  0  0  0  0  0  0  0  0
    8.8515  -15.8223   22.6843 C   0  0  0  0  0  0  0  0  0  0  0  0
    8.5403  -17.0535   22.6419 O   0  0  0  0  0  0  0  0  0  0  0  0
   10.8998  -14.1166   28.3280 N   0  0  0  0  0  0  0  0  0  0  0  0
   10.2632  -15.3283   28.6787 C   0  0  0  0  0  0  0  0  0  0  0  0
   10.1928  -15.7397   29.8474 O   0  0  0  0  0  0  0  0  0  0  0  0
    9.6487  -16.1458   27.5831 C   0  0  0  0  0  0  0  0  0  0  0  0
    9.7743  -15.4114   26.2935 C   0  0  0  0  0  0  0  0  0  0  0  0
    9.1961  -16.1623   25.1449 C   0  0  2  0  0  0  0  0  0  0  0  0
    9.1976  -15.3107   23.9419 N   0  0  0  0  0  0  0  0  0  0  0  0
    7.8122  -16.5623   25.4062 C   0  0  0  0  0  0  0  0  0  0  0  0
    6.8339  -15.8679   25.0467 O   0  0  0  0  0  0  0  0  0  0  0  0
    7.5896  -17.7824   26.0915 O   0  0  0  0  0  0  0  0  0  0  0  0
  2  1  1  6
  3  2  1  0
  4  3  1  0
  5  6  2  0
  5  4  1  0
  7  2  1  0
  8  7  2  0
  9  5  1  0
 11 10  1  6
 11 12  1  0
 13 11  1  0
 13 14  1  6
 14  7  1  0
 15 13  1  0
 16 15  2  0
 18 20  1  0
 18 17  1  0
 19 18  2  0
 21 20  1  0
 22 21  1  1
 22 23  1  0
 23 15  1  0
 24 26  1  0
 24 22  1  0
 25 24  2  0
M  END
$$$$
