ETQ.pdb
     RDKit          3D

 26 25  0  0  1  0  0  0  0  0999 V2000
    8.6905  -16.5160   15.9858 N   0  0  0  0  0  0  0  0  0  0  0  0
    8.1650  -16.9287   17.2868 C   0  0  1  0  0  0  0  0  0  0  0  0
    8.2891  -18.3961   17.4779 C   0  0  0  0  0  0  0  0  0  0  0  0
    9.2592  -18.9926   16.4980 C   0  0  0  0  0  0  0  0  0  0  0  0
    9.6991  -20.3541   16.9363 C   0  0  0  0  0  0  0  0  0  0  0  0
   10.4755  -20.9872   16.2174 O   0  0  0  0  0  0  0  0  0  0  0  0
    8.8527  -16.1863   18.3575 C   0  0  0  0  0  0  0  0  0  0  0  0
   10.0985  -16.0034   18.4378 O   0  0  0  0  0  0  0  0  0  0  0  0
    9.2303  -20.8516   18.1125 O   0  0  0  0  0  0  0  0  0  0  0  0
    7.2451  -12.9529   20.1074 C   0  0  0  0  0  0  0  0  0  0  0  0
    7.6567  -14.0024   21.1047 C   0  0  1  0  0  0  0  0  0  0  0  0
    6.5620  -14.8317   21.3403 O   0  0  0  0  0  0  0  0  0  0  0  0
    8.7354  -14.8929   20.4739 C   0  0  2  0  0  0  0  0  0  0  0  0
    8.0479  -15.6194   19.4011 N   0  0  0  0  0  0  0  0  0  0  0  0
    9.1498  -15.9047   21.4790 C   0  0  0  0  0  0  0  0  0  0  0  0
    8.9725  -17.1443   21.2638 O   0  0  0  0  0  0  0  0  0  0  0  0
   11.1668  -19.8911   22.0631 N   0  0  0  0  0  0  0  0  0  0  0  0
   11.7018  -19.7872   23.3667 C   0  0  0  0  0  0  0  0  0  0  0  0
   12.0472  -20.7744   24.0347 O   0  0  0  0  0  0  0  0  0  0  0  0
   11.8549  -18.4195   23.9601 C   0  0  0  0  0  0  0  0  0  0  0  0
   11.2820  -17.4120   23.0247 C   0  0  0  0  0  0  0  0  0  0  0  0
   10.2022  -16.5972   23.6473 C   0  0  2  0  0  0  0  0  0  0  0  0
    9.7485  -15.5640   22.6991 N   0  0  0  0  0  0  0  0  0  0  0  0
   10.6709  -15.9176   24.8565 C   0  0  0  0  0  0  0  0  0  0  0  0
   10.8775  -16.5269   25.9310 O   0  0  0  0  0  0  0  0  0  0  0  0
   10.8940  -14.5199   24.7910 O   0  0  0  0  0  0  0  0  0  0  0  0
  2  1  1  6
  3  2  1  0
  4  3  1  0
  5  6  2  0
  5  4  1  0
  7  2  1  0
  8  7  2  0
  9  5  1  0
 11 10  1  6
 11 12  1  0
 13 11  1  0
 13 14  1  6
 14  7  1  0
 15 13  1  0
 16 15  2  0
 18 20  1  0
 18 17  1  0
 19 18  2  0
 21 20  1  0
 22 21  1  6
 22 23  1  0
 23 15  1  0
 24 26  1  0
 24 22  1  0
 25 24  2  0
M  END
$$$$
