ETQ.pdb
     RDKit          3D

 26 25  0  0  1  0  0  0  0  0999 V2000
    9.7938  -13.7307   17.5850 N   0  0  0  0  0  0  0  0  0  0  0  0
   10.4044  -14.6233   18.5695 C   0  0  1  0  0  0  0  0  0  0  0  0
   11.6847  -14.0696   19.0790 C   0  0  0  0  0  0  0  0  0  0  0  0
   12.8629  -14.7958   18.4944 C   0  0  0  0  0  0  0  0  0  0  0  0
   14.1501  -14.2575   19.0353 C   0  0  0  0  0  0  0  0  0  0  0  0
   14.5463  -14.6570   20.1325 O   0  0  0  0  0  0  0  0  0  0  0  0
    9.4535  -14.8771   19.6658 C   0  0  0  0  0  0  0  0  0  0  0  0
    8.5791  -14.0666   20.0786 O   0  0  0  0  0  0  0  0  0  0  0  0
   14.8432  -13.3453   18.3018 O   0  0  0  0  0  0  0  0  0  0  0  0
    7.0760  -18.2793   22.1505 C   0  0  0  0  0  0  0  0  0  0  0  0
    8.0465  -17.8634   21.0778 C   0  0  1  0  0  0  0  0  0  0  0  0
    7.3593  -17.8091   19.8668 O   0  0  0  0  0  0  0  0  0  0  0  0
    8.5190  -16.4315   21.3617 C   0  0  2  0  0  0  0  0  0  0  0  0
    9.5182  -16.1493   20.3258 N   0  0  0  0  0  0  0  0  0  0  0  0
    9.2370  -16.4275   22.6618 C   0  0  0  0  0  0  0  0  0  0  0  0
   10.4845  -16.6623   22.7153 O   0  0  0  0  0  0  0  0  0  0  0  0
    7.0934  -13.6071   27.5806 N   0  0  0  0  0  0  0  0  0  0  0  0
    8.1472  -12.9531   26.9038 C   0  0  0  0  0  0  0  0  0  0  0  0
    8.3512  -11.7323   26.9930 O   0  0  0  0  0  0  0  0  0  0  0  0
    9.0533  -13.7794   26.0422 C   0  0  0  0  0  0  0  0  0  0  0  0
    8.6245  -15.2044   26.1047 C   0  0  0  0  0  0  0  0  0  0  0  0
    9.3596  -16.0694   25.1407 C   0  0  2  0  0  0  0  0  0  0  0  0
    8.5989  -16.1707   23.8824 N   0  0  0  0  0  0  0  0  0  0  0  0
    9.5390  -17.4250   25.6637 C   0  0  0  0  0  0  0  0  0  0  0  0
    8.7867  -18.3732   25.3419 O   0  0  0  0  0  0  0  0  0  0  0  0
   10.6076  -17.6552   26.5653 O   0  0  0  0  0  0  0  0  0  0  0  0
  2  1  1  6
  3  2  1  0
  4  3  1  0
  5  6  2  0
  5  4  1  0
  7  2  1  0
  8  7  2  0
  9  5  1  0
 11 10  1  1
 11 12  1  0
 13 11  1  0
 13 14  1  6
 14  7  1  0
 15 13  1  0
 16 15  2  0
 18 20  1  0
 18 17  1  0
 19 18  2  0
 21 20  1  0
 22 21  1  1
 22 23  1  0
 23 15  1  0
 24 26  1  0
 24 22  1  0
 25 24  2  0
M  END
$$$$
