ETQ.pdb
     RDKit          3D

 26 25  0  0  1  0  0  0  0  0999 V2000
    9.3565  -15.2558   13.4865 N   0  0  0  0  0  0  0  0  0  0  0  0
    9.1451  -15.8735   14.7952 C   0  0  1  0  0  0  0  0  0  0  0  0
    9.8446  -17.1797   14.8946 C   0  0  0  0  0  0  0  0  0  0  0  0
    9.9712  -17.8333   13.5478 C   0  0  0  0  0  0  0  0  0  0  0  0
   10.6523  -19.1614   13.6554 C   0  0  0  0  0  0  0  0  0  0  0  0
   11.7702  -19.2151   14.1730 O   0  0  0  0  0  0  0  0  0  0  0  0
    9.5792  -14.9482   15.8563 C   0  0  0  0  0  0  0  0  0  0  0  0
   10.5716  -14.1719   15.7896 O   0  0  0  0  0  0  0  0  0  0  0  0
   10.0191  -20.2675   13.1798 O   0  0  0  0  0  0  0  0  0  0  0  0
    8.3771  -12.5751   19.9256 C   0  0  0  0  0  0  0  0  0  0  0  0
    8.0021  -13.5417   18.8345 C   0  0  1  0  0  0  0  0  0  0  0  0
    7.2876  -12.8446   17.8624 O   0  0  0  0  0  0  0  0  0  0  0  0
    9.2813  -14.0371   18.1468 C   0  0  2  0  0  0  0  0  0  0  0  0
    8.8165  -14.9190   17.0710 N   0  0  0  0  0  0  0  0  0  0  0  0
   10.0260  -14.8898   19.1080 C   0  0  0  0  0  0  0  0  0  0  0  0
    9.6772  -16.0942   19.3131 O   0  0  0  0  0  0  0  0  0  0  0  0
   16.0224  -14.9226   23.2330 N   0  0  0  0  0  0  0  0  0  0  0  0
   15.4843  -14.9591   21.9271 C   0  0  0  0  0  0  0  0  0  0  0  0
   16.0593  -14.4617   20.9464 O   0  0  0  0  0  0  0  0  0  0  0  0
   14.1593  -15.6308   21.7280 C   0  0  0  0  0  0  0  0  0  0  0  0
   13.2726  -14.7395   20.9295 C   0  0  0  0  0  0  0  0  0  0  0  0
   11.9351  -15.3408   20.6702 C   0  0  2  0  0  0  0  0  0  0  0  0
   11.1341  -14.4306   19.8322 N   0  0  0  0  0  0  0  0  0  0  0  0
   11.1971  -15.5668   21.9143 C   0  0  0  0  0  0  0  0  0  0  0  0
   10.3444  -14.7570   22.3450 O   0  0  0  0  0  0  0  0  0  0  0  0
   11.4697  -16.7498   22.6450 O   0  0  0  0  0  0  0  0  0  0  0  0
  2  1  1  6
  3  2  1  0
  4  3  1  0
  5  6  2  0
  5  4  1  0
  7  2  1  0
  8  7  2  0
  9  5  1  0
 11 10  1  1
 11 12  1  0
 13 11  1  0
 13 14  1  6
 14  7  1  0
 15 13  1  0
 16 15  2  0
 18 20  1  0
 18 17  1  0
 19 18  2  0
 21 20  1  0
 22 21  1  1
 22 23  1  0
 23 15  1  0
 24 26  1  0
 24 22  1  0
 25 24  2  0
M  END
$$$$
