EQI.pdb
     RDKit          3D

 27 26  0  0  1  0  0  0  0  0999 V2000
   18.5069   -9.6678  -11.9336 N   0  0  0  0  0  0  0  0  0  0  0  0
   18.1292   -8.5028  -12.6809 C   0  0  1  0  0  0  0  0  0  0  0  0
   17.5915   -8.7682  -14.0369 C   0  0  0  0  0  0  0  0  0  0  0  0
   18.4995   -9.5401  -14.9424 C   0  0  0  0  0  0  0  0  0  0  0  0
   18.2132  -10.9692  -15.0355 C   0  0  0  0  0  0  0  0  0  0  0  0
   17.3118  -11.5148  -14.3880 O   0  0  0  0  0  0  0  0  0  0  0  0
   17.1687   -7.6483  -11.8780 C   0  0  0  0  0  0  0  0  0  0  0  0
   16.7624   -6.5965  -12.4161 O   0  0  0  0  0  0  0  0  0  0  0  0
   18.9910  -11.7609  -15.8924 O   0  0  0  0  0  0  0  0  0  0  0  0
   13.1642   -9.6692   -7.6513 N   0  0  0  0  0  0  0  0  0  0  0  0
   13.0349   -9.8437   -9.0611 C   0  0  0  0  0  0  0  0  0  0  0  0
   12.1793  -10.6146   -9.5153 O   0  0  0  0  0  0  0  0  0  0  0  0
   13.9955   -9.0310   -9.8989 C   0  0  0  0  0  0  0  0  0  0  0  0
   14.8395   -8.1922   -9.0022 C   0  0  0  0  0  0  0  0  0  0  0  0
   15.7963   -7.3561   -9.8007 C   0  0  2  0  0  0  0  0  0  0  0  0
   16.7679   -8.0522  -10.5838 N   0  0  0  0  0  0  0  0  0  0  0  0
   16.3306   -6.1801   -9.0663 C   0  0  0  0  0  0  0  0  0  0  0  0
   17.3640   -6.3877   -8.4143 O   0  0  0  0  0  0  0  0  0  0  0  0
   18.2681   -0.7139   -8.8395 C   0  0  0  0  0  0  0  0  0  0  0  0
   17.2408   -1.6361   -8.2355 C   0  0  0  0  0  0  0  0  0  0  0  0
   16.9825   -2.8731   -9.0883 C   0  0  2  0  0  0  0  0  0  0  0  0
   16.5794   -2.5093  -10.4837 C   0  0  0  0  0  0  0  0  0  0  0  0
   15.8684   -3.7119   -8.4822 C   0  0  2  0  0  0  0  0  0  0  0  0
   15.6765   -4.9468   -9.1400 N   0  0  0  0  0  0  0  0  0  0  0  0
   14.7034   -2.8847   -8.1266 C   0  0  0  0  0  0  0  0  0  0  0  0
   14.7336   -2.1338   -6.9226 O   0  0  0  0  0  0  0  0  0  0  0  0
   13.6872   -2.7850   -8.7895 O   0  0  0  0  0  0  0  0  0  0  0  0
  2  1  1  1
  2  3  1  0
  3  4  1  0
  4  5  1  0
  5  6  2  0
  7  8  2  0
  7  2  1  0
  9  5  1  0
 10 11  1  0
 11 13  1  0
 12 11  2  0
 13 14  1  0
 15 14  1  1
 15 16  1  0
 16  7  1  0
 17 18  2  0
 17 15  1  0
 20 19  1  0
 21 20  1  0
 21 22  1  6
 23 24  1  6
 23 21  1  0
 24 17  1  0
 25 23  1  0
 26 25  1  0
 27 25  2  0
M  END
$$$$
