EQI.pdb
     RDKit          3D

 27 26  0  0  1  0  0  0  0  0999 V2000
   26.7303  -20.6740  -15.1087 N   0  0  0  0  0  0  0  0  0  0  0  0
   27.5424  -20.0701  -14.0918 C   0  0  1  0  0  0  0  0  0  0  0  0
   28.3680  -18.9231  -14.5401 C   0  0  0  0  0  0  0  0  0  0  0  0
   28.7056  -18.9126  -15.9982 C   0  0  0  0  0  0  0  0  0  0  0  0
   27.7639  -18.1874  -16.8471 C   0  0  0  0  0  0  0  0  0  0  0  0
   27.0675  -18.7456  -17.7031 O   0  0  0  0  0  0  0  0  0  0  0  0
   26.6940  -19.6883  -12.8952 C   0  0  0  0  0  0  0  0  0  0  0  0
   25.8677  -18.7657  -13.0592 O   0  0  0  0  0  0  0  0  0  0  0  0
   27.6414  -16.7994  -16.6900 O   0  0  0  0  0  0  0  0  0  0  0  0
   22.0677  -21.6634  -11.9111 N   0  0  0  0  0  0  0  0  0  0  0  0
   22.1416  -20.2758  -11.5888 C   0  0  0  0  0  0  0  0  0  0  0  0
   21.1241  -19.5722  -11.6375 O   0  0  0  0  0  0  0  0  0  0  0  0
   23.5152  -19.7801  -11.1982 C   0  0  0  0  0  0  0  0  0  0  0  0
   24.4656  -20.9275  -11.1871 C   0  0  0  0  0  0  0  0  0  0  0  0
   25.8147  -20.4962  -10.6910 C   0  0  2  0  0  0  0  0  0  0  0  0
   26.8524  -20.3665  -11.6648 N   0  0  0  0  0  0  0  0  0  0  0  0
   26.2373  -21.1611   -9.4312 C   0  0  0  0  0  0  0  0  0  0  0  0
   26.4216  -22.3839   -9.5138 O   0  0  0  0  0  0  0  0  0  0  0  0
   29.4551  -19.7050   -4.4045 C   0  0  0  0  0  0  0  0  0  0  0  0
   28.3486  -20.5099   -5.0359 C   0  0  0  0  0  0  0  0  0  0  0  0
   27.8854  -19.9341   -6.3694 C   0  0  2  0  0  0  0  0  0  0  0  0
   27.4090  -18.5217   -6.2270 C   0  0  0  0  0  0  0  0  0  0  0  0
   26.7407  -20.7601   -6.9346 C   0  0  2  0  0  0  0  0  0  0  0  0
   26.4027  -20.4137   -8.2614 N   0  0  0  0  0  0  0  0  0  0  0  0
   25.6758  -20.9591   -5.9375 C   0  0  0  0  0  0  0  0  0  0  0  0
   24.3342  -20.6638   -6.2944 O   0  0  0  0  0  0  0  0  0  0  0  0
   25.8467  -21.3637   -4.8021 O   0  0  0  0  0  0  0  0  0  0  0  0
  2  1  1  6
  2  3  1  0
  3  4  1  0
  4  5  1  0
  5  6  2  0
  7  8  2  0
  7  2  1  0
  9  5  1  0
 10 11  1  0
 11 13  1  0
 12 11  2  0
 13 14  1  0
 15 14  1  6
 15 16  1  0
 16  7  1  0
 17 18  2  0
 17 15  1  0
 20 19  1  0
 21 20  1  0
 21 22  1  1
 23 24  1  6
 23 21  1  0
 24 17  1  0
 25 23  1  0
 26 25  1  0
 27 25  2  0
M  END
$$$$
