EQI.pdb
     RDKit          3D

 27 26  0  0  1  0  0  0  0  0999 V2000
   18.1486  -21.8776  -13.6088 N   0  0  0  0  0  0  0  0  0  0  0  0
   19.1365  -20.9785  -13.0854 C   0  0  1  0  0  0  0  0  0  0  0  0
   18.9686  -20.6161  -11.6576 C   0  0  0  0  0  0  0  0  0  0  0  0
   18.2626  -19.3201  -11.4081 C   0  0  0  0  0  0  0  0  0  0  0  0
   16.8448  -19.3093  -11.7589 C   0  0  0  0  0  0  0  0  0  0  0  0
   16.2861  -18.3250  -12.2571 O   0  0  0  0  0  0  0  0  0  0  0  0
   20.5301  -21.5152  -13.3449 C   0  0  0  0  0  0  0  0  0  0  0  0
   20.6149  -22.6889  -13.7643 O   0  0  0  0  0  0  0  0  0  0  0  0
   16.0801  -20.4604  -11.5216 O   0  0  0  0  0  0  0  0  0  0  0  0
   22.5500  -20.4461  -17.9382 N   0  0  0  0  0  0  0  0  0  0  0  0
   23.8738  -20.7706  -17.5173 C   0  0  0  0  0  0  0  0  0  0  0  0
   24.7978  -20.7982  -18.3408 O   0  0  0  0  0  0  0  0  0  0  0  0
   24.0253  -21.0575  -16.0409 C   0  0  0  0  0  0  0  0  0  0  0  0
   22.6979  -20.9263  -15.3772 C   0  0  0  0  0  0  0  0  0  0  0  0
   22.8582  -20.7649  -13.8937 C   0  0  2  0  0  0  0  0  0  0  0  0
   21.6613  -20.6987  -13.1159 N   0  0  0  0  0  0  0  0  0  0  0  0
   23.8987  -19.7795  -13.5011 C   0  0  0  0  0  0  0  0  0  0  0  0
   23.7762  -18.6524  -14.0017 O   0  0  0  0  0  0  0  0  0  0  0  0
   28.9717  -21.0821  -10.3978 C   0  0  0  0  0  0  0  0  0  0  0  0
   28.5097  -20.9463  -11.8256 C   0  0  0  0  0  0  0  0  0  0  0  0
   27.0242  -21.2432  -11.9971 C   0  0  2  0  0  0  0  0  0  0  0  0
   26.7971  -22.4838  -12.8042 C   0  0  0  0  0  0  0  0  0  0  0  0
   26.3313  -20.0898  -12.7056 C   0  0  2  0  0  0  0  0  0  0  0  0
   24.9226  -20.1482  -12.6236 N   0  0  0  0  0  0  0  0  0  0  0  0
   26.9762  -19.7825  -13.9930 C   0  0  0  0  0  0  0  0  0  0  0  0
   27.8801  -18.6909  -14.0673 O   0  0  0  0  0  0  0  0  0  0  0  0
   26.7980  -20.3961  -15.0293 O   0  0  0  0  0  0  0  0  0  0  0  0
  2  1  1  1
  2  3  1  0
  3  4  1  0
  4  5  1  0
  5  6  2  0
  7  8  2  0
  7  2  1  0
  9  5  1  0
 10 11  1  0
 11 13  1  0
 12 11  2  0
 13 14  1  0
 15 14  1  6
 15 16  1  0
 16  7  1  0
 17 18  2  0
 17 15  1  0
 20 19  1  0
 21 20  1  0
 21 22  1  6
 23 24  1  6
 23 21  1  0
 24 17  1  0
 25 23  1  0
 26 25  1  0
 27 25  2  0
M  END
$$$$
