EQI.pdb
     RDKit          3D

 27 26  0  0  1  0  0  0  0  0999 V2000
   18.0574  -13.8976  -15.2653 N   0  0  0  0  0  0  0  0  0  0  0  0
   17.5799  -12.7678  -16.0096 C   0  0  1  0  0  0  0  0  0  0  0  0
   16.1049  -12.6322  -16.0762 C   0  0  0  0  0  0  0  0  0  0  0  0
   15.3913  -13.7607  -16.7525 C   0  0  0  0  0  0  0  0  0  0  0  0
   13.9523  -13.5735  -16.9179 C   0  0  0  0  0  0  0  0  0  0  0  0
   13.4209  -12.4570  -16.9414 O   0  0  0  0  0  0  0  0  0  0  0  0
   18.2160  -11.4907  -15.4982 C   0  0  0  0  0  0  0  0  0  0  0  0
   18.0452  -11.2180  -14.2910 O   0  0  0  0  0  0  0  0  0  0  0  0
   13.1340  -14.7039  -17.0548 O   0  0  0  0  0  0  0  0  0  0  0  0
   23.4142   -8.6128  -16.9955 N   0  0  0  0  0  0  0  0  0  0  0  0
   22.8471   -7.6261  -16.1355 C   0  0  0  0  0  0  0  0  0  0  0  0
   23.5428   -6.6890  -15.7223 O   0  0  0  0  0  0  0  0  0  0  0  0
   21.3867   -7.8286  -15.8018 C   0  0  0  0  0  0  0  0  0  0  0  0
   20.9275   -9.1240  -16.3771 C   0  0  0  0  0  0  0  0  0  0  0  0
   19.5007   -9.3976  -16.0006 C   0  0  2  0  0  0  0  0  0  0  0  0
   18.9648  -10.6691  -16.3717 N   0  0  0  0  0  0  0  0  0  0  0  0
   18.5824   -8.2536  -16.2368 C   0  0  0  0  0  0  0  0  0  0  0  0
   18.2704   -8.0609  -17.4207 O   0  0  0  0  0  0  0  0  0  0  0  0
   13.9259   -7.7460  -14.2081 C   0  0  0  0  0  0  0  0  0  0  0  0
   15.1891   -7.4750  -14.9837 C   0  0  0  0  0  0  0  0  0  0  0  0
   16.0812   -6.4345  -14.3160 C   0  0  2  0  0  0  0  0  0  0  0  0
   15.4200   -5.0922  -14.2601 C   0  0  0  0  0  0  0  0  0  0  0  0
   17.3852   -6.2830  -15.0835 C   0  0  2  0  0  0  0  0  0  0  0  0
   18.1295   -7.4806  -15.1638 N   0  0  0  0  0  0  0  0  0  0  0  0
   18.0652   -5.0212  -14.7472 C   0  0  0  0  0  0  0  0  0  0  0  0
   17.7907   -3.8634  -15.5207 O   0  0  0  0  0  0  0  0  0  0  0  0
   18.8656   -4.8773  -13.8412 O   0  0  0  0  0  0  0  0  0  0  0  0
  2  1  1  1
  2  3  1  0
  3  4  1  0
  4  5  1  0
  5  6  2  0
  7  8  2  0
  7  2  1  0
  9  5  1  0
 10 11  1  0
 11 13  1  0
 12 11  2  0
 13 14  1  0
 15 14  1  6
 15 16  1  0
 16  7  1  0
 17 18  2  0
 17 15  1  0
 20 19  1  0
 21 20  1  0
 21 22  1  6
 23 24  1  1
 23 21  1  0
 24 17  1  0
 25 23  1  0
 26 25  1  0
 27 25  2  0
M  END
$$$$
