EQI.pdb
     RDKit          3D

 27 26  0  0  1  0  0  0  0  0999 V2000
   16.9274  -12.2942  -13.9869 N   0  0  0  0  0  0  0  0  0  0  0  0
   16.5916  -10.9279  -14.2676 C   0  0  1  0  0  0  0  0  0  0  0  0
   15.1923  -10.6967  -14.7000 C   0  0  0  0  0  0  0  0  0  0  0  0
   14.7907  -11.3978  -15.9598 C   0  0  0  0  0  0  0  0  0  0  0  0
   13.4734  -11.0367  -16.4771 C   0  0  0  0  0  0  0  0  0  0  0  0
   12.7183  -11.8549  -17.0153 O   0  0  0  0  0  0  0  0  0  0  0  0
   16.9443  -10.0438  -13.0882 C   0  0  0  0  0  0  0  0  0  0  0  0
   16.7601  -10.5213  -11.9486 O   0  0  0  0  0  0  0  0  0  0  0  0
   13.0424   -9.7073  -16.3624 O   0  0  0  0  0  0  0  0  0  0  0  0
   20.9318   -6.3928  -14.0971 N   0  0  0  0  0  0  0  0  0  0  0  0
   21.2565   -7.6300  -13.4656 C   0  0  0  0  0  0  0  0  0  0  0  0
   22.3031   -8.2217  -13.7608 O   0  0  0  0  0  0  0  0  0  0  0  0
   20.2477   -8.1162  -12.4502 C   0  0  0  0  0  0  0  0  0  0  0  0
   19.1271   -7.1379  -12.3652 C   0  0  0  0  0  0  0  0  0  0  0  0
   17.8096   -7.8468  -12.2464 C   0  0  2  0  0  0  0  0  0  0  0  0
   17.4591   -8.7444  -13.3015 N   0  0  0  0  0  0  0  0  0  0  0  0
   16.6951   -6.9792  -11.7851 C   0  0  0  0  0  0  0  0  0  0  0  0
   16.0317   -6.4456  -12.6858 O   0  0  0  0  0  0  0  0  0  0  0  0
   12.3129   -6.8383   -8.1529 C   0  0  0  0  0  0  0  0  0  0  0  0
   13.6068   -6.0709   -8.0670 C   0  0  0  0  0  0  0  0  0  0  0  0
   14.7959   -6.8537   -8.6125 C   0  0  2  0  0  0  0  0  0  0  0  0
   15.7918   -7.1671   -7.5391 C   0  0  0  0  0  0  0  0  0  0  0  0
   15.5070   -6.0537   -9.6926 C   0  0  2  0  0  0  0  0  0  0  0  0
   16.4524   -6.8110  -10.4187 N   0  0  0  0  0  0  0  0  0  0  0  0
   15.8591   -4.7044   -9.2202 C   0  0  0  0  0  0  0  0  0  0  0  0
   14.9094   -3.6582   -9.3541 O   0  0  0  0  0  0  0  0  0  0  0  0
   16.9216   -4.3956   -8.7125 O   0  0  0  0  0  0  0  0  0  0  0  0
  2  1  1  1
  2  3  1  0
  3  4  1  0
  4  5  1  0
  5  6  2  0
  7  8  2  0
  7  2  1  0
  9  5  1  0
 10 11  1  0
 11 13  1  0
 12 11  2  0
 13 14  1  0
 15 14  1  6
 15 16  1  0
 16  7  1  0
 17 18  2  0
 17 15  1  0
 20 19  1  0
 21 20  1  0
 21 22  1  1
 23 24  1  1
 23 21  1  0
 24 17  1  0
 25 23  1  0
 26 25  1  0
 27 25  2  0
M  END
$$$$
