EQI.pdb
     RDKit          3D

 27 26  0  0  1  0  0  0  0  0999 V2000
   19.5236  -10.5985  -18.3761 N   0  0  0  0  0  0  0  0  0  0  0  0
   19.3779  -10.4802  -16.9538 C   0  0  1  0  0  0  0  0  0  0  0  0
   19.2219  -11.7622  -16.2253 C   0  0  0  0  0  0  0  0  0  0  0  0
   17.8214  -12.2840  -16.1469 C   0  0  0  0  0  0  0  0  0  0  0  0
   17.6682  -13.5407  -15.4185 C   0  0  0  0  0  0  0  0  0  0  0  0
   18.6235  -14.1429  -14.9145 O   0  0  0  0  0  0  0  0  0  0  0  0
   20.5151   -9.6646  -16.3718 C   0  0  0  0  0  0  0  0  0  0  0  0
   20.5057   -9.4826  -15.1359 O   0  0  0  0  0  0  0  0  0  0  0  0
   16.3863  -14.0927  -15.2834 O   0  0  0  0  0  0  0  0  0  0  0  0
   25.9529   -8.2944  -19.0382 N   0  0  0  0  0  0  0  0  0  0  0  0
   25.5542   -9.5888  -18.5907 C   0  0  0  0  0  0  0  0  0  0  0  0
   26.1980  -10.5895  -18.9327 O   0  0  0  0  0  0  0  0  0  0  0  0
   24.3328   -9.6118  -17.7003 C   0  0  0  0  0  0  0  0  0  0  0  0
   23.8240   -8.2218  -17.5300 C   0  0  0  0  0  0  0  0  0  0  0  0
   22.5215   -8.2194  -16.7845 C   0  0  2  0  0  0  0  0  0  0  0  0
   21.5264   -9.1500  -17.2153 N   0  0  0  0  0  0  0  0  0  0  0  0
   21.9997   -6.8615  -16.4822 C   0  0  0  0  0  0  0  0  0  0  0  0
   21.3734   -6.3177  -17.4032 O   0  0  0  0  0  0  0  0  0  0  0  0
   18.5377   -3.0378  -14.5748 C   0  0  0  0  0  0  0  0  0  0  0  0
   19.9910   -3.3787  -14.3686 C   0  0  0  0  0  0  0  0  0  0  0  0
   20.3199   -4.8186  -14.7466 C   0  0  2  0  0  0  0  0  0  0  0  0
   19.6263   -5.7983  -13.8516 C   0  0  0  0  0  0  0  0  0  0  0  0
   21.8166   -5.0657  -14.6414 C   0  0  2  0  0  0  0  0  0  0  0  0
   22.2254   -6.2827  -15.2299 N   0  0  0  0  0  0  0  0  0  0  0  0
   22.3341   -4.6845  -13.3168 C   0  0  0  0  0  0  0  0  0  0  0  0
   22.8310   -5.6960  -12.4542 O   0  0  0  0  0  0  0  0  0  0  0  0
   22.3741   -3.5483  -12.8814 O   0  0  0  0  0  0  0  0  0  0  0  0
  2  1  1  6
  2  3  1  0
  3  4  1  0
  4  5  1  0
  5  6  2  0
  7  8  2  0
  7  2  1  0
  9  5  1  0
 10 11  1  0
 11 13  1  0
 12 11  2  0
 13 14  1  0
 15 14  1  6
 15 16  1  0
 16  7  1  0
 17 18  2  0
 17 15  1  0
 20 19  1  0
 21 20  1  0
 21 22  1  1
 23 24  1  1
 23 21  1  0
 24 17  1  0
 25 23  1  0
 26 25  1  0
 27 25  2  0
M  END
$$$$
