EQI.pdb
     RDKit          3D

 27 26  0  0  1  0  0  0  0  0999 V2000
   23.3441  -21.1652  -16.7127 N   0  0  0  0  0  0  0  0  0  0  0  0
   24.2629  -20.1987  -16.1838 C   0  0  1  0  0  0  0  0  0  0  0  0
   24.4614  -18.9908  -17.0205 C   0  0  0  0  0  0  0  0  0  0  0  0
   25.2535  -19.2060  -18.2721 C   0  0  0  0  0  0  0  0  0  0  0  0
   26.5446  -19.8621  -18.0831 C   0  0  0  0  0  0  0  0  0  0  0  0
   27.4377  -19.3893  -17.3702 O   0  0  0  0  0  0  0  0  0  0  0  0
   23.8725  -19.8166  -14.7699 C   0  0  0  0  0  0  0  0  0  0  0  0
   22.9697  -18.9624  -14.6439 O   0  0  0  0  0  0  0  0  0  0  0  0
   26.7877  -21.0787  -18.7365 O   0  0  0  0  0  0  0  0  0  0  0  0
   20.1934  -20.1374  -11.2809 N   0  0  0  0  0  0  0  0  0  0  0  0
   20.5169  -21.1480  -12.2343 C   0  0  0  0  0  0  0  0  0  0  0  0
   19.6420  -21.9278  -12.6334 O   0  0  0  0  0  0  0  0  0  0  0  0
   21.9593  -21.1654  -12.6863 C   0  0  0  0  0  0  0  0  0  0  0  0
   22.7094  -20.0936  -11.9734 C   0  0  0  0  0  0  0  0  0  0  0  0
   24.1718  -20.1571  -12.3044 C   0  0  2  0  0  0  0  0  0  0  0  0
   24.5174  -20.4199  -13.6658 N   0  0  0  0  0  0  0  0  0  0  0  0
   24.9853  -20.9050  -11.3111 C   0  0  0  0  0  0  0  0  0  0  0  0
   24.8805  -22.1389  -11.3622 O   0  0  0  0  0  0  0  0  0  0  0  0
   29.8516  -21.3728  -11.2288 C   0  0  0  0  0  0  0  0  0  0  0  0
   28.3813  -21.3444  -10.9002 C   0  0  0  0  0  0  0  0  0  0  0  0
   28.0801  -20.6062   -9.6007 C   0  0  2  0  0  0  0  0  0  0  0  0
   28.7879  -21.2254   -8.4354 C   0  0  0  0  0  0  0  0  0  0  0  0
   26.5877  -20.6318   -9.3100 C   0  0  2  0  0  0  0  0  0  0  0  0
   25.7974  -20.2173  -10.4046 N   0  0  0  0  0  0  0  0  0  0  0  0
   26.2925  -20.1216   -7.9608 C   0  0  0  0  0  0  0  0  0  0  0  0
   25.5789  -18.9021   -7.8265 O   0  0  0  0  0  0  0  0  0  0  0  0
   26.6156  -20.6653   -6.9206 O   0  0  0  0  0  0  0  0  0  0  0  0
  2  1  1  6
  2  3  1  0
  3  4  1  0
  4  5  1  0
  5  6  2  0
  7  8  2  0
  7  2  1  0
  9  5  1  0
 10 11  1  0
 11 13  1  0
 12 11  2  0
 13 14  1  0
 15 14  1  6
 15 16  1  0
 16  7  1  0
 17 18  2  0
 17 15  1  0
 20 19  1  0
 21 20  1  0
 21 22  1  1
 23 24  1  6
 23 21  1  0
 24 17  1  0
 25 23  1  0
 26 25  1  0
 27 25  2  0
M  END
$$$$
