EQI.pdb
     RDKit          3D

 27 26  0  0  1  0  0  0  0  0999 V2000
   27.9131  -22.0762  -17.1902 N   0  0  0  0  0  0  0  0  0  0  0  0
   28.0599  -20.6631  -16.9904 C   0  0  1  0  0  0  0  0  0  0  0  0
   27.9144  -19.8335  -18.2106 C   0  0  0  0  0  0  0  0  0  0  0  0
   27.5822  -20.5893  -19.4590 C   0  0  0  0  0  0  0  0  0  0  0  0
   26.2643  -20.3074  -20.0218 C   0  0  0  0  0  0  0  0  0  0  0  0
   25.4234  -21.1896  -20.2316 O   0  0  0  0  0  0  0  0  0  0  0  0
   27.1248  -20.1838  -15.8981 C   0  0  0  0  0  0  0  0  0  0  0  0
   27.1148  -18.9574  -15.6602 O   0  0  0  0  0  0  0  0  0  0  0  0
   25.9339  -18.9825  -20.3410 O   0  0  0  0  0  0  0  0  0  0  0  0
   21.5560  -21.7210  -14.4533 N   0  0  0  0  0  0  0  0  0  0  0  0
   21.7788  -20.8009  -13.3862 C   0  0  0  0  0  0  0  0  0  0  0  0
   20.8824  -20.5773  -12.5620 O   0  0  0  0  0  0  0  0  0  0  0  0
   23.1497  -20.1645  -13.3635 C   0  0  0  0  0  0  0  0  0  0  0  0
   23.9495  -20.6820  -14.5091 C   0  0  0  0  0  0  0  0  0  0  0  0
   25.4075  -20.7383  -14.1580 C   0  0  2  0  0  0  0  0  0  0  0  0
   26.3117  -21.1070  -15.2013 N   0  0  0  0  0  0  0  0  0  0  0  0
   25.6902  -21.3798  -12.8479 C   0  0  0  0  0  0  0  0  0  0  0  0
   25.4048  -22.5837  -12.7752 O   0  0  0  0  0  0  0  0  0  0  0  0
   30.3306  -20.7289  -10.4239 C   0  0  0  0  0  0  0  0  0  0  0  0
   28.9407  -21.1972  -10.7697 C   0  0  0  0  0  0  0  0  0  0  0  0
   27.8592  -20.4830   -9.9668 C   0  0  2  0  0  0  0  0  0  0  0  0
   27.9629  -20.7880   -8.5046 C   0  0  0  0  0  0  0  0  0  0  0  0
   26.4786  -20.9117  -10.4383 C   0  0  2  0  0  0  0  0  0  0  0  0
   26.2418  -20.6334  -11.8025 N   0  0  0  0  0  0  0  0  0  0  0  0
   25.4452  -20.5959   -9.4381 C   0  0  0  0  0  0  0  0  0  0  0  0
   25.0601  -21.5951   -8.5067 O   0  0  0  0  0  0  0  0  0  0  0  0
   24.8738  -19.5258   -9.3359 O   0  0  0  0  0  0  0  0  0  0  0  0
  2  1  1  6
  2  3  1  0
  3  4  1  0
  4  5  1  0
  5  6  2  0
  7  8  2  0
  7  2  1  0
  9  5  1  0
 10 11  1  0
 11 13  1  0
 12 11  2  0
 13 14  1  0
 15 14  1  6
 15 16  1  0
 16  7  1  0
 17 18  2  0
 17 15  1  0
 20 19  1  0
 21 20  1  0
 21 22  1  1
 23 24  1  6
 23 21  1  0
 24 17  1  0
 25 23  1  0
 26 25  1  0
 27 25  2  0
M  END
$$$$
