EQI.pdb
     RDKit          3D

 27 26  0  0  1  0  0  0  0  0999 V2000
   16.8670  -13.0011  -18.9561 N   0  0  0  0  0  0  0  0  0  0  0  0
   17.7665  -13.2438  -17.8652 C   0  0  1  0  0  0  0  0  0  0  0  0
   18.6100  -14.4558  -17.9987 C   0  0  0  0  0  0  0  0  0  0  0  0
   19.5850  -14.4314  -19.1340 C   0  0  0  0  0  0  0  0  0  0  0  0
   20.4300  -15.6169  -19.2508 C   0  0  0  0  0  0  0  0  0  0  0  0
   20.3701  -16.5625  -18.4560 O   0  0  0  0  0  0  0  0  0  0  0  0
   18.6202  -12.0195  -17.6014 C   0  0  0  0  0  0  0  0  0  0  0  0
   19.4032  -12.0748  -16.6296 O   0  0  0  0  0  0  0  0  0  0  0  0
   21.3508  -15.6906  -20.3058 O   0  0  0  0  0  0  0  0  0  0  0  0
   18.5339   -6.5118  -20.7546 N   0  0  0  0  0  0  0  0  0  0  0  0
   18.9573   -7.6877  -21.4421 C   0  0  0  0  0  0  0  0  0  0  0  0
   19.1012   -7.6700  -22.6716 O   0  0  0  0  0  0  0  0  0  0  0  0
   19.2032   -8.8919  -20.5620 C   0  0  0  0  0  0  0  0  0  0  0  0
   18.9346   -8.5252  -19.1431 C   0  0  0  0  0  0  0  0  0  0  0  0
   19.2448   -9.6741  -18.2287 C   0  0  2  0  0  0  0  0  0  0  0  0
   18.5140  -10.8841  -18.4373 N   0  0  0  0  0  0  0  0  0  0  0  0
   19.3955   -9.2883  -16.8018 C   0  0  0  0  0  0  0  0  0  0  0  0
   18.4174   -9.5329  -16.0810 O   0  0  0  0  0  0  0  0  0  0  0  0
   22.7263  -10.1574  -12.1260 C   0  0  0  0  0  0  0  0  0  0  0  0
   22.0110   -9.0760  -12.8939 C   0  0  0  0  0  0  0  0  0  0  0  0
   21.8020   -9.4325  -14.3614 C   0  0  2  0  0  0  0  0  0  0  0  0
   23.1038   -9.6367  -15.0724 C   0  0  0  0  0  0  0  0  0  0  0  0
   21.0475   -8.3215  -15.0747 C   0  0  2  0  0  0  0  0  0  0  0  0
   20.5793   -8.6949  -16.3537 N   0  0  0  0  0  0  0  0  0  0  0  0
   21.7061   -7.0177  -14.8896 C   0  0  0  0  0  0  0  0  0  0  0  0
   21.4956   -6.3053  -13.6802 O   0  0  0  0  0  0  0  0  0  0  0  0
   22.4339   -6.4793  -15.7035 O   0  0  0  0  0  0  0  0  0  0  0  0
  2  1  1  6
  2  3  1  0
  3  4  1  0
  4  5  1  0
  5  6  2  0
  7  8  2  0
  7  2  1  0
  9  5  1  0
 10 11  1  0
 11 13  1  0
 12 11  2  0
 13 14  1  0
 15 14  1  6
 15 16  1  0
 16  7  1  0
 17 18  2  0
 17 15  1  0
 20 19  1  0
 21 20  1  0
 21 22  1  6
 23 24  1  6
 23 21  1  0
 24 17  1  0
 25 23  1  0
 26 25  1  0
 27 25  2  0
M  END
$$$$
