EQI.pdb
     RDKit          3D

 27 26  0  0  1  0  0  0  0  0999 V2000
   27.5872  -19.8284  -17.7746 N   0  0  0  0  0  0  0  0  0  0  0  0
   26.7836  -18.8904  -17.0447 C   0  0  1  0  0  0  0  0  0  0  0  0
   25.9001  -18.0353  -17.8733 C   0  0  0  0  0  0  0  0  0  0  0  0
   26.6081  -17.0853  -18.7877 C   0  0  0  0  0  0  0  0  0  0  0  0
   25.7368  -16.2107  -19.5681 C   0  0  0  0  0  0  0  0  0  0  0  0
   25.0006  -15.3633  -19.0490 O   0  0  0  0  0  0  0  0  0  0  0  0
   25.9894  -19.6010  -15.9669 C   0  0  0  0  0  0  0  0  0  0  0  0
   25.5731  -20.7480  -16.2347 O   0  0  0  0  0  0  0  0  0  0  0  0
   25.7296  -16.3338  -20.9648 O   0  0  0  0  0  0  0  0  0  0  0  0
   25.5123  -21.8804  -11.4015 N   0  0  0  0  0  0  0  0  0  0  0  0
   26.8272  -21.4121  -11.6953 C   0  0  0  0  0  0  0  0  0  0  0  0
   27.8017  -22.1598  -11.5397 O   0  0  0  0  0  0  0  0  0  0  0  0
   26.9043  -19.9870  -12.1936 C   0  0  0  0  0  0  0  0  0  0  0  0
   25.5282  -19.4223  -12.2787 C   0  0  0  0  0  0  0  0  0  0  0  0
   24.9839  -19.5544  -13.6710 C   0  0  2  0  0  0  0  0  0  0  0  0
   25.7506  -18.9688  -14.7250 N   0  0  0  0  0  0  0  0  0  0  0  0
   23.5207  -19.3173  -13.7738 C   0  0  0  0  0  0  0  0  0  0  0  0
   23.1763  -18.1268  -13.7789 O   0  0  0  0  0  0  0  0  0  0  0  0
   18.7621  -20.3167  -16.3948 C   0  0  0  0  0  0  0  0  0  0  0  0
   19.2019  -21.1483  -15.2176 C   0  0  0  0  0  0  0  0  0  0  0  0
   20.7180  -21.2673  -15.1112 C   0  0  2  0  0  0  0  0  0  0  0  0
   21.1520  -22.6920  -14.9562 C   0  0  0  0  0  0  0  0  0  0  0  0
   21.2279  -20.4886  -13.9088 C   0  0  2  0  0  0  0  0  0  0  0  0
   22.6363  -20.3967  -13.8580 N   0  0  0  0  0  0  0  0  0  0  0  0
   20.4732  -20.8239  -12.6898 C   0  0  0  0  0  0  0  0  0  0  0  0
   19.2375  -20.1707  -12.4434 O   0  0  0  0  0  0  0  0  0  0  0  0
   20.8236  -21.6321  -11.8497 O   0  0  0  0  0  0  0  0  0  0  0  0
  2  1  1  6
  2  3  1  0
  3  4  1  0
  4  5  1  0
  5  6  2  0
  7  8  2  0
  7  2  1  0
  9  5  1  0
 10 11  1  0
 11 13  1  0
 12 11  2  0
 13 14  1  0
 15 14  1  1
 15 16  1  0
 16  7  1  0
 17 18  2  0
 17 15  1  0
 20 19  1  0
 21 20  1  0
 21 22  1  1
 23 24  1  1
 23 21  1  0
 24 17  1  0
 25 23  1  0
 26 25  1  0
 27 25  2  0
M  END
$$$$
