EQI.pdb
     RDKit          3D

 27 26  0  0  1  0  0  0  0  0999 V2000
   26.2368  -19.7917  -18.5717 N   0  0  0  0  0  0  0  0  0  0  0  0
   26.8432  -20.5247  -17.4978 C   0  0  1  0  0  0  0  0  0  0  0  0
   28.3211  -20.4314  -17.4239 C   0  0  0  0  0  0  0  0  0  0  0  0
   28.8726  -19.0400  -17.4303 C   0  0  0  0  0  0  0  0  0  0  0  0
   29.4139  -18.5938  -18.7114 C   0  0  0  0  0  0  0  0  0  0  0  0
   30.2928  -19.2159  -19.3197 O   0  0  0  0  0  0  0  0  0  0  0  0
   26.2122  -20.1420  -16.1740 C   0  0  0  0  0  0  0  0  0  0  0  0
   26.5810  -19.0636  -15.6625 O   0  0  0  0  0  0  0  0  0  0  0  0
   28.9209  -17.4103  -19.2792 O   0  0  0  0  0  0  0  0  0  0  0  0
   20.5006  -21.1020  -14.1991 N   0  0  0  0  0  0  0  0  0  0  0  0
   21.0163  -20.3431  -13.1069 C   0  0  0  0  0  0  0  0  0  0  0  0
   20.2508  -19.9111  -12.2349 O   0  0  0  0  0  0  0  0  0  0  0  0
   22.5135  -20.1352  -13.1203 C   0  0  0  0  0  0  0  0  0  0  0  0
   23.0731  -20.6823  -14.3881 C   0  0  0  0  0  0  0  0  0  0  0  0
   24.5735  -20.6766  -14.3537 C   0  0  2  0  0  0  0  0  0  0  0  0
   25.2509  -20.9869  -15.5730 N   0  0  0  0  0  0  0  0  0  0  0  0
   25.1537  -21.3246  -13.1491 C   0  0  0  0  0  0  0  0  0  0  0  0
   25.3995  -22.5338  -13.2648 O   0  0  0  0  0  0  0  0  0  0  0  0
   28.5090  -20.2085   -8.1496 C   0  0  0  0  0  0  0  0  0  0  0  0
   27.3347  -20.9006   -8.7919 C   0  0  0  0  0  0  0  0  0  0  0  0
   26.8794  -20.2213  -10.0786 C   0  0  2  0  0  0  0  0  0  0  0  0
   26.5090  -18.7890   -9.8473 C   0  0  0  0  0  0  0  0  0  0  0  0
   25.6643  -20.9328  -10.6525 C   0  0  2  0  0  0  0  0  0  0  0  0
   25.3882  -20.5772  -11.9912 N   0  0  0  0  0  0  0  0  0  0  0  0
   24.5668  -21.0006   -9.6733 C   0  0  0  0  0  0  0  0  0  0  0  0
   24.6036  -21.9994   -8.6657 O   0  0  0  0  0  0  0  0  0  0  0  0
   23.6027  -20.2577   -9.6500 O   0  0  0  0  0  0  0  0  0  0  0  0
  2  1  1  6
  2  3  1  0
  3  4  1  0
  4  5  1  0
  5  6  2  0
  7  8  2  0
  7  2  1  0
  9  5  1  0
 10 11  1  0
 11 13  1  0
 12 11  2  0
 13 14  1  0
 15 14  1  6
 15 16  1  0
 16  7  1  0
 17 18  2  0
 17 15  1  0
 20 19  1  0
 21 20  1  0
 21 22  1  1
 23 24  1  6
 23 21  1  0
 24 17  1  0
 25 23  1  0
 26 25  1  0
 27 25  2  0
M  END
$$$$
