EQI.pdb
     RDKit          3D

 27 26  0  0  1  0  0  0  0  0999 V2000
   27.3342  -23.6434  -16.6051 N   0  0  0  0  0  0  0  0  0  0  0  0
   27.0548  -22.2863  -16.2330 C   0  0  1  0  0  0  0  0  0  0  0  0
   26.5531  -21.4210  -17.3275 C   0  0  0  0  0  0  0  0  0  0  0  0
   27.5251  -21.1702  -18.4377 C   0  0  0  0  0  0  0  0  0  0  0  0
   28.6327  -20.2792  -18.1021 C   0  0  0  0  0  0  0  0  0  0  0  0
   28.4624  -19.1363  -17.6614 O   0  0  0  0  0  0  0  0  0  0  0  0
   26.1179  -22.2468  -15.0423 C   0  0  0  0  0  0  0  0  0  0  0  0
   25.0580  -22.9017  -15.1348 O   0  0  0  0  0  0  0  0  0  0  0  0
   29.9464  -20.7332  -18.2868 O   0  0  0  0  0  0  0  0  0  0  0  0
   27.2756  -20.6038   -9.0967 N   0  0  0  0  0  0  0  0  0  0  0  0
   25.8650  -20.8066   -9.0360 C   0  0  0  0  0  0  0  0  0  0  0  0
   25.2870  -20.8251   -7.9413 O   0  0  0  0  0  0  0  0  0  0  0  0
   25.1840  -20.9827  -10.3741 C   0  0  0  0  0  0  0  0  0  0  0  0
   26.2189  -21.0869  -11.4409 C   0  0  0  0  0  0  0  0  0  0  0  0
   25.5810  -21.3060  -12.7815 C   0  0  2  0  0  0  0  0  0  0  0  0
   26.4582  -21.4965  -13.8933 N   0  0  0  0  0  0  0  0  0  0  0  0
   24.4288  -20.4093  -13.0574 C   0  0  0  0  0  0  0  0  0  0  0  0
   24.7138  -19.2128  -13.2102 O   0  0  0  0  0  0  0  0  0  0  0  0
   20.2375  -19.7401  -16.9860 C   0  0  0  0  0  0  0  0  0  0  0  0
   20.4598  -19.7176  -15.4958 C   0  0  0  0  0  0  0  0  0  0  0  0
   21.6973  -20.5000  -15.0707 C   0  0  2  0  0  0  0  0  0  0  0  0
   21.5810  -21.9517  -15.4187 C   0  0  0  0  0  0  0  0  0  0  0  0
   21.9018  -20.3933  -13.5677 C   0  0  2  0  0  0  0  0  0  0  0  0
   23.1333  -20.9292  -13.1310 N   0  0  0  0  0  0  0  0  0  0  0  0
   20.6659  -20.7081  -12.8318 C   0  0  0  0  0  0  0  0  0  0  0  0
   19.5733  -19.8051  -12.9023 O   0  0  0  0  0  0  0  0  0  0  0  0
   20.4921  -21.7000  -12.1477 O   0  0  0  0  0  0  0  0  0  0  0  0
  2  1  1  6
  2  3  1  0
  3  4  1  0
  4  5  1  0
  5  6  2  0
  7  8  2  0
  7  2  1  0
  9  5  1  0
 10 11  1  0
 11 13  1  0
 12 11  2  0
 13 14  1  0
 15 14  1  1
 15 16  1  0
 16  7  1  0
 17 18  2  0
 17 15  1  0
 20 19  1  0
 21 20  1  0
 21 22  1  1
 23 24  1  1
 23 21  1  0
 24 17  1  0
 25 23  1  0
 26 25  1  0
 27 25  2  0
M  END
$$$$
