EQI.pdb
     RDKit          3D

 27 26  0  0  1  0  0  0  0  0999 V2000
   27.9647  -22.3710  -15.6224 N   0  0  0  0  0  0  0  0  0  0  0  0
   28.0407  -20.9431  -15.7394 C   0  0  1  0  0  0  0  0  0  0  0  0
   27.7106  -20.4000  -17.0790 C   0  0  0  0  0  0  0  0  0  0  0  0
   26.2953  -20.6074  -17.5194 C   0  0  0  0  0  0  0  0  0  0  0  0
   26.1370  -21.0959  -18.8867 C   0  0  0  0  0  0  0  0  0  0  0  0
   25.5022  -20.4774  -19.7491 O   0  0  0  0  0  0  0  0  0  0  0  0
   27.2005  -20.2792  -14.6668 C   0  0  0  0  0  0  0  0  0  0  0  0
   26.8889  -19.0837  -14.8518 O   0  0  0  0  0  0  0  0  0  0  0  0
   26.7263  -22.3178  -19.2413 O   0  0  0  0  0  0  0  0  0  0  0  0
   21.9416  -20.7549  -14.3916 N   0  0  0  0  0  0  0  0  0  0  0  0
   21.9521  -20.1478  -13.1008 C   0  0  0  0  0  0  0  0  0  0  0  0
   20.9023  -19.7093  -12.6124 O   0  0  0  0  0  0  0  0  0  0  0  0
   23.3034  -20.1010  -12.4248 C   0  0  0  0  0  0  0  0  0  0  0  0
   24.3403  -20.6099  -13.3660 C   0  0  0  0  0  0  0  0  0  0  0  0
   25.6864  -20.6504  -12.7036 C   0  0  2  0  0  0  0  0  0  0  0  0
   26.8013  -21.0078  -13.5228 N   0  0  0  0  0  0  0  0  0  0  0  0
   25.6820  -21.2903  -11.3626 C   0  0  0  0  0  0  0  0  0  0  0  0
   25.7028  -22.5295  -11.3671 O   0  0  0  0  0  0  0  0  0  0  0  0
   28.7048  -19.3294   -7.3748 C   0  0  0  0  0  0  0  0  0  0  0  0
   27.7980  -20.1938   -8.2123 C   0  0  0  0  0  0  0  0  0  0  0  0
   26.3210  -19.9691   -7.9088 C   0  0  2  0  0  0  0  0  0  0  0  0
   25.9809  -20.3492   -6.5010 C   0  0  0  0  0  0  0  0  0  0  0  0
   25.4554  -20.8019   -8.8413 C   0  0  2  0  0  0  0  0  0  0  0  0
   25.6573  -20.5040  -10.2070 N   0  0  0  0  0  0  0  0  0  0  0  0
   24.0863  -20.9471   -8.3197 C   0  0  0  0  0  0  0  0  0  0  0  0
   23.8515  -21.8373   -7.2396 O   0  0  0  0  0  0  0  0  0  0  0  0
   23.1093  -20.3576   -8.7441 O   0  0  0  0  0  0  0  0  0  0  0  0
  2  1  1  6
  2  3  1  0
  3  4  1  0
  4  5  1  0
  5  6  2  0
  7  8  2  0
  7  2  1  0
  9  5  1  0
 10 11  1  0
 11 13  1  0
 12 11  2  0
 13 14  1  0
 15 14  1  6
 15 16  1  0
 16  7  1  0
 17 18  2  0
 17 15  1  0
 20 19  1  0
 21 20  1  0
 21 22  1  1
 23 24  1  6
 23 21  1  0
 24 17  1  0
 25 23  1  0
 26 25  1  0
 27 25  2  0
M  END
$$$$
