EQI.pdb
     RDKit          3D

 27 26  0  0  1  0  0  0  0  0999 V2000
   27.8103  -22.5990  -16.7421 N   0  0  0  0  0  0  0  0  0  0  0  0
   27.7341  -21.4450  -15.8931 C   0  0  1  0  0  0  0  0  0  0  0  0
   27.8329  -20.1399  -16.5896 C   0  0  0  0  0  0  0  0  0  0  0  0
   27.8856  -20.2174  -18.0834 C   0  0  0  0  0  0  0  0  0  0  0  0
   28.1089  -18.9438  -18.7625 C   0  0  0  0  0  0  0  0  0  0  0  0
   28.3192  -17.8883  -18.1534 O   0  0  0  0  0  0  0  0  0  0  0  0
   26.4880  -21.5034  -15.0322 C   0  0  0  0  0  0  0  0  0  0  0  0
   25.4412  -21.9101  -15.5795 O   0  0  0  0  0  0  0  0  0  0  0  0
   28.0834  -18.9105  -20.1641 O   0  0  0  0  0  0  0  0  0  0  0  0
   26.0532  -20.8273   -8.7656 N   0  0  0  0  0  0  0  0  0  0  0  0
   24.6911  -21.0927   -9.0961 C   0  0  0  0  0  0  0  0  0  0  0  0
   23.8556  -21.2597   -8.1978 O   0  0  0  0  0  0  0  0  0  0  0  0
   24.3879  -21.1420  -10.5762 C   0  0  0  0  0  0  0  0  0  0  0  0
   25.6570  -20.9905  -11.3419 C   0  0  0  0  0  0  0  0  0  0  0  0
   25.3988  -21.0578  -12.8188 C   0  0  2  0  0  0  0  0  0  0  0  0
   26.5416  -21.1116  -13.6748 N   0  0  0  0  0  0  0  0  0  0  0  0
   24.3251  -20.1440  -13.2877 C   0  0  0  0  0  0  0  0  0  0  0  0
   24.6025  -18.9367  -13.2477 O   0  0  0  0  0  0  0  0  0  0  0  0
   20.2805  -19.4777  -17.6440 C   0  0  0  0  0  0  0  0  0  0  0  0
   20.5121  -19.3906  -16.1576 C   0  0  0  0  0  0  0  0  0  0  0  0
   21.6949  -20.2329  -15.6931 C   0  0  2  0  0  0  0  0  0  0  0  0
   21.4765  -21.6897  -15.9617 C   0  0  0  0  0  0  0  0  0  0  0  0
   21.9147  -20.0597  -14.1984 C   0  0  2  0  0  0  0  0  0  0  0  0
   23.1056  -20.6608  -13.7347 N   0  0  0  0  0  0  0  0  0  0  0  0
   20.6629  -20.2416  -13.4448 C   0  0  0  0  0  0  0  0  0  0  0  0
   20.5580  -21.3259  -12.5351 O   0  0  0  0  0  0  0  0  0  0  0  0
   19.6814  -19.5271  -13.5351 O   0  0  0  0  0  0  0  0  0  0  0  0
  2  1  1  6
  2  3  1  0
  3  4  1  0
  4  5  1  0
  5  6  2  0
  7  8  2  0
  7  2  1  0
  9  5  1  0
 10 11  1  0
 11 13  1  0
 12 11  2  0
 13 14  1  0
 15 14  1  1
 15 16  1  0
 16  7  1  0
 17 18  2  0
 17 15  1  0
 20 19  1  0
 21 20  1  0
 21 22  1  1
 23 24  1  1
 23 21  1  0
 24 17  1  0
 25 23  1  0
 26 25  1  0
 27 25  2  0
M  END
$$$$
