EQI.pdb
     RDKit          3D

 27 26  0  0  1  0  0  0  0  0999 V2000
   24.8406  -17.8678  -17.6573 N   0  0  0  0  0  0  0  0  0  0  0  0
   25.7347  -18.9436  -17.3388 C   0  0  1  0  0  0  0  0  0  0  0  0
   27.1609  -18.5615  -17.2031 C   0  0  0  0  0  0  0  0  0  0  0  0
   27.6496  -17.5593  -18.2015 C   0  0  0  0  0  0  0  0  0  0  0  0
   29.0827  -17.2820  -18.1506 C   0  0  0  0  0  0  0  0  0  0  0  0
   29.6155  -16.3877  -18.8183 O   0  0  0  0  0  0  0  0  0  0  0  0
   25.2549  -19.6821  -16.1052 C   0  0  0  0  0  0  0  0  0  0  0  0
   24.8741  -18.9848  -15.1412 O   0  0  0  0  0  0  0  0  0  0  0  0
   29.8933  -18.0605  -17.3121 O   0  0  0  0  0  0  0  0  0  0  0  0
   23.7043  -25.7663  -15.6204 N   0  0  0  0  0  0  0  0  0  0  0  0
   23.4166  -25.3246  -14.2949 C   0  0  0  0  0  0  0  0  0  0  0  0
   22.8971  -26.0997  -13.4812 O   0  0  0  0  0  0  0  0  0  0  0  0
   23.7950  -23.8910  -14.0002 C   0  0  0  0  0  0  0  0  0  0  0  0
   24.3777  -23.2759  -15.2257 C   0  0  0  0  0  0  0  0  0  0  0  0
   24.8183  -21.8668  -14.9559 C   0  0  2  0  0  0  0  0  0  0  0  0
   25.2480  -21.0957  -16.0796 N   0  0  0  0  0  0  0  0  0  0  0  0
   25.6738  -21.7205  -13.7499 C   0  0  0  0  0  0  0  0  0  0  0  0
   26.8379  -22.1273  -13.8741 O   0  0  0  0  0  0  0  0  0  0  0  0
   27.5331  -19.0162   -8.7980 C   0  0  0  0  0  0  0  0  0  0  0  0
   27.0388  -20.2907   -9.4320 C   0  0  0  0  0  0  0  0  0  0  0  0
   26.5145  -20.0819  -10.8483 C   0  0  2  0  0  0  0  0  0  0  0  0
   25.7859  -18.7807  -10.9827 C   0  0  0  0  0  0  0  0  0  0  0  0
   25.5543  -21.1981  -11.2281 C   0  0  2  0  0  0  0  0  0  0  0  0
   25.1539  -21.1553  -12.5818 N   0  0  0  0  0  0  0  0  0  0  0  0
   24.5499  -21.4265  -10.1760 C   0  0  0  0  0  0  0  0  0  0  0  0
   23.1764  -21.2442  -10.4838 O   0  0  0  0  0  0  0  0  0  0  0  0
   24.7978  -21.7654   -9.0333 O   0  0  0  0  0  0  0  0  0  0  0  0
  2  1  1  1
  2  3  1  0
  3  4  1  0
  4  5  1  0
  5  6  2  0
  7  8  2  0
  7  2  1  0
  9  5  1  0
 10 11  1  0
 11 13  1  0
 12 11  2  0
 13 14  1  0
 15 14  1  6
 15 16  1  0
 16  7  1  0
 17 18  2  0
 17 15  1  0
 20 19  1  0
 21 20  1  0
 21 22  1  1
 23 24  1  6
 23 21  1  0
 24 17  1  0
 25 23  1  0
 26 25  1  0
 27 25  2  0
M  END
$$$$
