EQI.pdb
     RDKit          3D

 27 26  0  0  1  0  0  0  0  0999 V2000
   18.7938  -13.6907  -18.9831 N   0  0  0  0  0  0  0  0  0  0  0  0
   17.9931  -12.5043  -18.8856 C   0  0  1  0  0  0  0  0  0  0  0  0
   16.9250  -12.5450  -17.8580 C   0  0  0  0  0  0  0  0  0  0  0  0
   15.9206  -13.6418  -18.0262 C   0  0  0  0  0  0  0  0  0  0  0  0
   14.7870  -13.5903  -17.1067 C   0  0  0  0  0  0  0  0  0  0  0  0
   14.6988  -14.3188  -16.1113 O   0  0  0  0  0  0  0  0  0  0  0  0
   18.8744  -11.2855  -18.6989 C   0  0  0  0  0  0  0  0  0  0  0  0
   20.0638  -11.4917  -18.3771 O   0  0  0  0  0  0  0  0  0  0  0  0
   13.7514  -12.6792  -17.3595 O   0  0  0  0  0  0  0  0  0  0  0  0
   17.7346   -5.3637  -20.4628 N   0  0  0  0  0  0  0  0  0  0  0  0
   18.9634   -5.1756  -19.7631 C   0  0  0  0  0  0  0  0  0  0  0  0
   19.4328   -4.0380  -19.6279 O   0  0  0  0  0  0  0  0  0  0  0  0
   19.5974   -6.4395  -19.2285 C   0  0  0  0  0  0  0  0  0  0  0  0
   18.7012   -7.5954  -19.5123 C   0  0  0  0  0  0  0  0  0  0  0  0
   19.0951   -8.7884  -18.6914 C   0  0  2  0  0  0  0  0  0  0  0  0
   18.3455   -9.9884  -18.8906 N   0  0  0  0  0  0  0  0  0  0  0  0
   19.3821   -8.4752  -17.2676 C   0  0  0  0  0  0  0  0  0  0  0  0
   18.4044   -8.5228  -16.5075 O   0  0  0  0  0  0  0  0  0  0  0  0
   23.0713  -10.4019  -13.1443 C   0  0  0  0  0  0  0  0  0  0  0  0
   22.3838   -9.1662  -13.6651 C   0  0  0  0  0  0  0  0  0  0  0  0
   22.0353   -9.2633  -15.1461 C   0  0  2  0  0  0  0  0  0  0  0  0
   23.2605   -9.4051  -15.9951 C   0  0  0  0  0  0  0  0  0  0  0  0
   21.2931   -8.0157  -15.5990 C   0  0  2  0  0  0  0  0  0  0  0  0
   20.6823   -8.1566  -16.8646 N   0  0  0  0  0  0  0  0  0  0  0  0
   22.0520   -6.7935  -15.2860 C   0  0  0  0  0  0  0  0  0  0  0  0
   22.0064   -6.2735  -13.9662 O   0  0  0  0  0  0  0  0  0  0  0  0
   22.7329   -6.1699  -16.0794 O   0  0  0  0  0  0  0  0  0  0  0  0
  2  1  1  1
  2  3  1  0
  3  4  1  0
  4  5  1  0
  5  6  2  0
  7  8  2  0
  7  2  1  0
  9  5  1  0
 10 11  1  0
 11 13  1  0
 12 11  2  0
 13 14  1  0
 15 14  1  1
 15 16  1  0
 16  7  1  0
 17 18  2  0
 17 15  1  0
 20 19  1  0
 21 20  1  0
 21 22  1  6
 23 24  1  6
 23 21  1  0
 24 17  1  0
 25 23  1  0
 26 25  1  0
 27 25  2  0
M  END
$$$$
