EQI.pdb
     RDKit          3D

 27 26  0  0  1  0  0  0  0  0999 V2000
   42.8216  -13.7327  -12.4648 N   0  0  0  0  0  0  0  0  0  0  0  0
   43.3248  -12.4686  -12.0098 C   0  0  1  0  0  0  0  0  0  0  0  0
   43.3424  -11.3913  -13.0284 C   0  0  0  0  0  0  0  0  0  0  0  0
   42.1662  -11.3704  -13.9537 C   0  0  0  0  0  0  0  0  0  0  0  0
   41.6973  -10.0393  -14.3298 C   0  0  0  0  0  0  0  0  0  0  0  0
   41.1762   -9.2604  -13.5228 O   0  0  0  0  0  0  0  0  0  0  0  0
   42.5840  -12.0216  -10.7653 C   0  0  0  0  0  0  0  0  0  0  0  0
   41.3890  -12.3709  -10.6626 O   0  0  0  0  0  0  0  0  0  0  0  0
   41.8401   -9.6224  -15.6610 O   0  0  0  0  0  0  0  0  0  0  0  0
   44.9631  -10.5762   -5.1938 N   0  0  0  0  0  0  0  0  0  0  0  0
   43.5850  -10.3061   -4.9435 C   0  0  0  0  0  0  0  0  0  0  0  0
   43.1909  -10.1107   -3.7862 O   0  0  0  0  0  0  0  0  0  0  0  0
   42.7031  -10.2801   -6.1709 C   0  0  0  0  0  0  0  0  0  0  0  0
   43.4893  -10.7414   -7.3494 C   0  0  0  0  0  0  0  0  0  0  0  0
   42.6249  -10.8036   -8.5746 C   0  0  2  0  0  0  0  0  0  0  0  0
   43.2444  -11.2483   -9.7831 N   0  0  0  0  0  0  0  0  0  0  0  0
   41.7274   -9.6314   -8.7423 C   0  0  0  0  0  0  0  0  0  0  0  0
   42.2358   -8.6515   -9.3055 O   0  0  0  0  0  0  0  0  0  0  0  0
   36.9644  -11.2636   -6.6125 C   0  0  0  0  0  0  0  0  0  0  0  0
   37.9634  -10.7029   -7.5914 C   0  0  0  0  0  0  0  0  0  0  0  0
   38.1569   -9.1980   -7.4421 C   0  0  2  0  0  0  0  0  0  0  0  0
   36.9606   -8.4358   -7.9215 C   0  0  0  0  0  0  0  0  0  0  0  0
   39.3609   -8.7358   -8.2477 C   0  0  2  0  0  0  0  0  0  0  0  0
   40.4088   -9.6820   -8.2805 N   0  0  0  0  0  0  0  0  0  0  0  0
   39.6650   -7.3172   -7.9967 C   0  0  0  0  0  0  0  0  0  0  0  0
   39.1407   -6.3344   -8.8761 O   0  0  0  0  0  0  0  0  0  0  0  0
   40.3461   -6.8992   -7.0783 O   0  0  0  0  0  0  0  0  0  0  0  0
  2  1  1  6
  2  3  1  0
  3  4  1  0
  4  5  1  0
  5  6  2  0
  7  8  2  0
  7  2  1  0
  9  5  1  0
 10 11  1  0
 11 13  1  0
 12 11  2  0
 13 14  1  0
 15 14  1  1
 15 16  1  0
 16  7  1  0
 17 18  2  0
 17 15  1  0
 20 19  1  0
 21 20  1  0
 21 22  1  6
 23 24  1  1
 23 21  1  0
 24 17  1  0
 25 23  1  0
 26 25  1  0
 27 25  2  0
M  END
$$$$
