EQI.pdb
     RDKit          3D

 27 26  0  0  1  0  0  0  0  0999 V2000
   15.2820  -10.5344  -17.9039 N   0  0  0  0  0  0  0  0  0  0  0  0
   15.8520  -10.2848  -16.6112 C   0  0  1  0  0  0  0  0  0  0  0  0
   16.5143  -11.4496  -15.9765 C   0  0  0  0  0  0  0  0  0  0  0  0
   15.6121  -12.6010  -15.6600 C   0  0  0  0  0  0  0  0  0  0  0  0
   16.2581  -13.7303  -14.9962 C   0  0  0  0  0  0  0  0  0  0  0  0
   17.4564  -13.7307  -14.6904 O   0  0  0  0  0  0  0  0  0  0  0  0
   16.7905   -9.0960  -16.6678 C   0  0  0  0  0  0  0  0  0  0  0  0
   17.4470   -8.9434  -17.7197 O   0  0  0  0  0  0  0  0  0  0  0  0
   15.4924  -14.8648  -14.6917 O   0  0  0  0  0  0  0  0  0  0  0  0
   15.5659   -3.4637  -15.7333 N   0  0  0  0  0  0  0  0  0  0  0  0
   16.9798   -3.2764  -15.7060 C   0  0  0  0  0  0  0  0  0  0  0  0
   17.4547   -2.1331  -15.7075 O   0  0  0  0  0  0  0  0  0  0  0  0
   17.7950   -4.5490  -15.6723 C   0  0  0  0  0  0  0  0  0  0  0  0
   16.8746   -5.7203  -15.6464 C   0  0  0  0  0  0  0  0  0  0  0  0
   17.6489   -7.0044  -15.5849 C   0  0  2  0  0  0  0  0  0  0  0  0
   16.8930   -8.2168  -15.5653 N   0  0  0  0  0  0  0  0  0  0  0  0
   18.7892   -6.9785  -14.6326 C   0  0  0  0  0  0  0  0  0  0  0  0
   18.4895   -7.1539  -13.4429 O   0  0  0  0  0  0  0  0  0  0  0  0
   23.4510   -9.3882  -13.7456 C   0  0  0  0  0  0  0  0  0  0  0  0
   23.5627   -8.0424  -14.4142 C   0  0  0  0  0  0  0  0  0  0  0  0
   22.3488   -7.7063  -15.2730 C   0  0  2  0  0  0  0  0  0  0  0  0
   22.7343   -6.9425  -16.5018 C   0  0  0  0  0  0  0  0  0  0  0  0
   21.3604   -6.8601  -14.4860 C   0  0  2  0  0  0  0  0  0  0  0  0
   20.0907   -6.7688  -15.0977 N   0  0  0  0  0  0  0  0  0  0  0  0
   21.9992   -5.6492  -13.9442 C   0  0  0  0  0  0  0  0  0  0  0  0
   21.4928   -4.3772  -14.3183 O   0  0  0  0  0  0  0  0  0  0  0  0
   22.9502   -5.6398  -13.1843 O   0  0  0  0  0  0  0  0  0  0  0  0
  2  1  1  6
  2  3  1  0
  3  4  1  0
  4  5  1  0
  5  6  2  0
  7  8  2  0
  7  2  1  0
  9  5  1  0
 10 11  1  0
 11 13  1  0
 12 11  2  0
 13 14  1  0
 15 14  1  1
 15 16  1  0
 16  7  1  0
 17 18  2  0
 17 15  1  0
 20 19  1  0
 21 20  1  0
 21 22  1  6
 23 24  1  6
 23 21  1  0
 24 17  1  0
 25 23  1  0
 26 25  1  0
 27 25  2  0
M  END
$$$$
