RRQ.pdb
     RDKit          3D

 32 31  0  0  1  0  0  0  0  0999 V2000
   18.9393  -25.2403   -7.2358 N   0  0  0  0  0  0  0  0  0  0  0  0
   17.5266  -25.2460   -7.3375 C   0  0  0  0  0  0  0  0  0  0  0  0
   16.7940  -25.5633   -6.3116 N   0  0  0  0  0  0  0  0  0  0  0  0
   16.8504  -24.9123   -8.5394 N   0  0  0  0  0  0  0  0  0  0  0  0
   17.5758  -24.4391   -9.7183 C   0  0  0  0  0  0  0  0  0  0  0  0
   18.0590  -23.0397   -9.3909 C   0  0  0  0  0  0  0  0  0  0  0  0
   18.6873  -22.5012  -10.6739 C   0  0  0  0  0  0  0  0  0  0  0  0
   19.2072  -21.0812  -10.4457 C   0  0  2  0  0  0  0  0  0  0  0  0
   18.1061  -20.1952  -10.1427 N   0  0  0  0  0  0  0  0  0  0  0  0
   19.8984  -20.6650  -11.6925 C   0  0  0  0  0  0  0  0  0  0  0  0
   19.2625  -20.1396  -12.6560 O   0  0  0  0  0  0  0  0  0  0  0  0
   15.7606  -25.5845   -6.4080 N   0  0  0  0  0  0  0  0  0  0  0  0
   27.2296  -21.4370  -17.2720 C   0  0  0  0  0  0  0  0  0  0  0  0
   26.6602  -21.7698  -16.0099 N   0  0  0  0  0  0  0  0  0  0  0  0
   26.2214  -22.9684  -15.7966 N   0  0  0  0  0  0  0  0  0  0  0  0
   26.5462  -20.8372  -14.9505 C   0  0  0  0  0  0  0  0  0  0  0  0
   25.6716  -21.0414  -13.8200 C   0  0  0  0  0  0  0  0  0  0  0  0
   24.2387  -20.7059  -14.1666 C   0  0  0  0  0  0  0  0  0  0  0  0
   23.4490  -20.8648  -12.8662 C   0  0  1  0  0  0  0  0  0  0  0  0
   21.9934  -20.5547  -13.0689 N   0  0  0  0  0  0  0  0  0  0  0  0
   21.3011  -20.8503  -11.8304 C   0  0  0  0  0  0  0  0  0  0  0  0
   21.4069  -21.2075  -14.2380 O   0  0  0  0  0  0  0  0  0  0  0  0
   21.1856  -22.4360  -14.2227 N   0  0  0  0  0  0  0  0  0  0  0  0
   25.8685  -23.2716  -14.8708 C   0  0  0  0  0  0  0  0  0  0  0  0
   16.4047  -19.5883  -17.1149 O   0  0  0  0  0  0  0  0  0  0  0  0
   16.6632  -20.4717  -16.0553 C   0  0  0  0  0  0  0  0  0  0  0  0
   15.7131  -20.8229  -15.3265 C   0  0  0  0  0  0  0  0  0  0  0  0
   18.0291  -20.9757  -15.8045 C   0  0  2  0  0  0  0  0  0  0  0  0
   19.0674  -20.4526  -16.7325 N   0  0  0  0  0  0  0  0  0  0  0  0
   20.4451  -20.9950  -16.5671 C   0  0  0  0  0  0  0  0  0  0  0  0
   21.0931  -20.4568  -15.3750 O   0  0  0  0  0  0  0  0  0  0  0  0
   21.2848  -20.6313  -17.7270 O   0  0  0  0  0  0  0  0  0  0  0  0
  2  1  1  0
  2  3  2  0
  4  2  1  0
  4  5  1  0
  6  5  1  0
  7  6  1  0
  8  7  1  0
  8  9  1  6
  8 10  1  0
 10 11  2  0
 13 12  1  0
 14 13  2  0
 15 13  1  0
 16 17  1  0
 16 15  1  0
 17 18  1  0
 19 18  1  1
 19 21  1  0
 20 10  1  0
 20 19  1  0
 21 29  1  0
 22 21  2  0
 24 25  2  0
 24 23  1  0
 26 24  1  0
 27 26  1  0
 28 27  1  6
 28 30  1  0
 29 28  1  0
 30 31  1  0
 32 30  2  0
M  END
$$$$
