RRQ.pdb
     RDKit          3D

 32 31  0  0  1  0  0  0  0  0999 V2000
   27.8347  -28.5986  -16.7619 N   0  0  0  0  0  0  0  0  0  0  0  0
   26.6586  -29.2302  -17.2352 C   0  0  0  0  0  0  0  0  0  0  0  0
   26.4129  -30.4716  -16.9382 N   0  0  0  0  0  0  0  0  0  0  0  0
   25.7061  -28.5551  -18.0415 N   0  0  0  0  0  0  0  0  0  0  0  0
   25.6257  -27.0947  -18.0688 C   0  0  0  0  0  0  0  0  0  0  0  0
   25.7024  -26.6344  -16.6261 C   0  0  0  0  0  0  0  0  0  0  0  0
   24.6329  -25.5560  -16.4716 C   0  0  0  0  0  0  0  0  0  0  0  0
   25.2763  -24.2407  -16.0303 C   0  0  2  0  0  0  0  0  0  0  0  0
   26.5145  -24.5062  -15.3335 N   0  0  0  0  0  0  0  0  0  0  0  0
   24.3020  -23.5556  -15.1431 C   0  0  0  0  0  0  0  0  0  0  0  0
   24.1886  -23.8702  -13.9196 O   0  0  0  0  0  0  0  0  0  0  0  0
   25.5487  -30.9218  -17.2962 N   0  0  0  0  0  0  0  0  0  0  0  0
   18.8726  -17.5040  -15.4788 C   0  0  0  0  0  0  0  0  0  0  0  0
   19.4383  -17.1123  -14.2321 N   0  0  0  0  0  0  0  0  0  0  0  0
   18.7363  -16.4180  -13.3955 N   0  0  0  0  0  0  0  0  0  0  0  0
   20.7591  -17.4503  -13.8495 C   0  0  0  0  0  0  0  0  0  0  0  0
   21.6311  -18.2519  -14.6752 C   0  0  0  0  0  0  0  0  0  0  0  0
   21.1898  -19.6978  -14.6979 C   0  0  0  0  0  0  0  0  0  0  0  0
   22.2980  -20.4587  -15.4279 C   0  0  1  0  0  0  0  0  0  0  0  0
   22.5320  -21.8084  -14.8118 N   0  0  0  0  0  0  0  0  0  0  0  0
   23.4694  -22.5233  -15.6549 C   0  0  0  0  0  0  0  0  0  0  0  0
   21.3049  -22.5538  -14.5371 O   0  0  0  0  0  0  0  0  0  0  0  0
   20.6303  -23.0168  -15.4799 N   0  0  0  0  0  0  0  0  0  0  0  0
   19.1014  -16.1357  -12.4678 C   0  0  0  0  0  0  0  0  0  0  0  0
   19.8063  -24.3118   -8.5982 O   0  0  0  0  0  0  0  0  0  0  0  0
   19.5883  -25.3865   -9.4742 C   0  0  0  0  0  0  0  0  0  0  0  0
   19.4536  -26.5300   -8.9931 C   0  0  0  0  0  0  0  0  0  0  0  0
   19.5204  -25.1725  -10.9343 C   0  0  1  0  0  0  0  0  0  0  0  0
   19.6607  -23.7555  -11.3646 N   0  0  0  0  0  0  0  0  0  0  0  0
   19.6964  -23.5038  -12.8326 C   0  0  0  0  0  0  0  0  0  0  0  0
   20.8851  -22.7493  -13.2178 O   0  0  0  0  0  0  0  0  0  0  0  0
   18.5193  -22.7138  -13.2488 O   0  0  0  0  0  0  0  0  0  0  0  0
  2  1  1  0
  2  3  2  0
  4  2  1  0
  4  5  1  0
  6  5  1  0
  7  6  1  0
  8  7  1  0
  8  9  1  1
  8 10  1  0
 10 11  2  0
 13 12  1  0
 14 13  2  0
 15 13  1  0
 16 17  1  0
 16 15  1  0
 17 18  1  0
 19 18  1  1
 19 21  1  0
 20 10  1  0
 20 19  1  0
 21 29  1  0
 22 21  2  0
 24 25  2  0
 24 23  1  0
 26 24  1  0
 27 26  1  0
 28 27  1  6
 28 30  1  0
 29 28  1  0
 30 31  1  0
 32 30  2  0
M  END
$$$$
