RRQ.pdb
     RDKit          3D

 32 31  0  0  1  0  0  0  0  0999 V2000
   11.6325  -20.3175   -2.8226 N   0  0  0  0  0  0  0  0  0  0  0  0
   10.7728  -21.3865   -2.4698 C   0  0  0  0  0  0  0  0  0  0  0  0
    9.9717  -21.9057   -3.3520 N   0  0  0  0  0  0  0  0  0  0  0  0
   10.7417  -21.9358   -1.1619 N   0  0  0  0  0  0  0  0  0  0  0  0
   11.8513  -21.7478   -0.2274 C   0  0  0  0  0  0  0  0  0  0  0  0
   12.9709  -22.6525   -0.7038 C   0  0  0  0  0  0  0  0  0  0  0  0
   14.1002  -22.4938    0.3111 C   0  0  0  0  0  0  0  0  0  0  0  0
   14.8390  -21.1768    0.0698 C   0  0  2  0  0  0  0  0  0  0  0  0
   15.5468  -21.2314   -1.1892 N   0  0  0  0  0  0  0  0  0  0  0  0
   15.7811  -20.9922    1.2031 C   0  0  0  0  0  0  0  0  0  0  0  0
   16.8130  -21.7189    1.3288 O   0  0  0  0  0  0  0  0  0  0  0  0
    9.3875  -22.7240   -3.0935 N   0  0  0  0  0  0  0  0  0  0  0  0
   16.6043  -13.1156    4.6354 C   0  0  0  0  0  0  0  0  0  0  0  0
   17.7018  -13.5703    3.8501 N   0  0  0  0  0  0  0  0  0  0  0  0
   18.6127  -12.7335    3.4697 N   0  0  0  0  0  0  0  0  0  0  0  0
   17.8535  -14.9214    3.4543 C   0  0  0  0  0  0  0  0  0  0  0  0
   16.8701  -15.9371    3.7477 C   0  0  0  0  0  0  0  0  0  0  0  0
   17.3372  -17.3014    3.2934 C   0  0  0  0  0  0  0  0  0  0  0  0
   16.2255  -18.2742    3.6903 C   0  0  2  0  0  0  0  0  0  0  0  0
   16.5152  -19.6646    3.2016 N   0  0  0  0  0  0  0  0  0  0  0  0
   15.5405  -19.9864    2.1784 C   0  0  0  0  0  0  0  0  0  0  0  0
   16.5960  -20.6614    4.2678 O   0  0  0  0  0  0  0  0  0  0  0  0
   15.5571  -21.2075    4.6931 N   0  0  0  0  0  0  0  0  0  0  0  0
   19.4185  -13.0210    2.8851 C   0  0  0  0  0  0  0  0  0  0  0  0
   20.2013  -25.4265    4.2810 O   0  0  0  0  0  0  0  0  0  0  0  0
   19.7211  -25.4920    5.5981 C   0  0  0  0  0  0  0  0  0  0  0  0
   19.9441  -26.5239    6.2635 C   0  0  0  0  0  0  0  0  0  0  0  0
   18.9667  -24.3665    6.1869 C   0  0  2  0  0  0  0  0  0  0  0  0
   18.6561  -23.2609    5.2413 N   0  0  0  0  0  0  0  0  0  0  0  0
   18.0377  -22.0374    5.8245 C   0  0  0  0  0  0  0  0  0  0  0  0
   17.8370  -21.0045    4.8128 O   0  0  0  0  0  0  0  0  0  0  0  0
   18.9118  -21.4662    6.8697 O   0  0  0  0  0  0  0  0  0  0  0  0
  2  1  1  0
  2  3  2  0
  4  2  1  0
  4  5  1  0
  6  5  1  0
  7  6  1  0
  8  7  1  0
  8  9  1  6
  8 10  1  0
 10 11  2  0
 13 12  1  0
 14 13  2  0
 15 13  1  0
 16 17  1  0
 16 15  1  0
 17 18  1  0
 19 18  1  6
 19 21  1  0
 20 10  1  0
 20 19  1  0
 21 29  1  0
 22 21  2  0
 24 25  2  0
 24 23  1  0
 26 24  1  0
 27 26  1  0
 28 27  1  1
 28 30  1  0
 29 28  1  0
 30 31  1  0
 32 30  2  0
M  END
$$$$
