RRQ.pdb
     RDKit          3D

 32 31  0  0  1  0  0  0  0  0999 V2000
   16.2444  -22.6441   -9.5462 N   0  0  0  0  0  0  0  0  0  0  0  0
   17.4872  -23.3072   -9.3980 C   0  0  0  0  0  0  0  0  0  0  0  0
   17.6361  -24.2332   -8.4980 N   0  0  0  0  0  0  0  0  0  0  0  0
   18.6118  -23.0023  -10.2077 N   0  0  0  0  0  0  0  0  0  0  0  0
   19.9566  -23.4521   -9.8487 C   0  0  0  0  0  0  0  0  0  0  0  0
   20.7211  -22.2158   -9.4173 C   0  0  0  0  0  0  0  0  0  0  0  0
   22.1550  -22.6751   -9.1649 C   0  0  0  0  0  0  0  0  0  0  0  0
   23.0308  -21.4769   -8.7962 C   0  0  2  0  0  0  0  0  0  0  0  0
   22.3529  -20.6509   -7.8228 N   0  0  0  0  0  0  0  0  0  0  0  0
   23.2863  -20.7224  -10.0497 C   0  0  0  0  0  0  0  0  0  0  0  0
   22.4458  -19.8859  -10.4996 O   0  0  0  0  0  0  0  0  0  0  0  0
   18.5565  -24.7021   -8.3940 N   0  0  0  0  0  0  0  0  0  0  0  0
   27.6652  -21.0876  -16.8324 C   0  0  0  0  0  0  0  0  0  0  0  0
   28.2230  -19.8222  -16.4930 N   0  0  0  0  0  0  0  0  0  0  0  0
   28.5390  -18.9853  -17.4281 N   0  0  0  0  0  0  0  0  0  0  0  0
   28.4555  -19.4208  -15.1551 C   0  0  0  0  0  0  0  0  0  0  0  0
   27.9555  -20.1591  -14.0194 C   0  0  0  0  0  0  0  0  0  0  0  0
   26.4928  -19.8652  -13.7742 C   0  0  0  0  0  0  0  0  0  0  0  0
   26.1568  -20.5207  -12.4335 C   0  0  2  0  0  0  0  0  0  0  0  0
   24.7108  -20.3264  -12.0769 N   0  0  0  0  0  0  0  0  0  0  0  0
   24.4911  -20.9266  -10.7760 C   0  0  0  0  0  0  0  0  0  0  0  0
   23.7806  -20.7947  -13.1027 O   0  0  0  0  0  0  0  0  0  0  0  0
   23.4400  -21.9953  -13.1366 N   0  0  0  0  0  0  0  0  0  0  0  0
   28.9154  -18.0421  -17.2223 C   0  0  0  0  0  0  0  0  0  0  0  0
   18.6193  -17.9559  -14.2041 O   0  0  0  0  0  0  0  0  0  0  0  0
   18.6492  -18.7824  -15.3380 C   0  0  0  0  0  0  0  0  0  0  0  0
   17.6618  -18.7838  -16.1011 C   0  0  0  0  0  0  0  0  0  0  0  0
   19.8218  -19.6341  -15.6246 C   0  0  2  0  0  0  0  0  0  0  0  0
   20.9462  -19.4928  -14.6610 N   0  0  0  0  0  0  0  0  0  0  0  0
   22.2063  -20.2141  -14.9947 C   0  0  0  0  0  0  0  0  0  0  0  0
   23.2710  -19.8987  -14.0473 O   0  0  0  0  0  0  0  0  0  0  0  0
   22.6826  -19.8250  -16.3381 O   0  0  0  0  0  0  0  0  0  0  0  0
  2  1  1  0
  2  3  2  0
  4  2  1  0
  4  5  1  0
  6  5  1  0
  7  6  1  0
  8  7  1  0
  8  9  1  1
  8 10  1  0
 10 11  2  0
 13 12  1  0
 14 13  2  0
 15 13  1  0
 16 17  1  0
 16 15  1  0
 17 18  1  0
 19 18  1  1
 19 21  1  0
 20 10  1  0
 20 19  1  0
 21 29  1  0
 22 21  2  0
 24 25  2  0
 24 23  1  0
 26 24  1  0
 27 26  1  0
 28 27  1  6
 28 30  1  0
 29 28  1  0
 30 31  1  0
 32 30  2  0
M  END
$$$$
