RRQ.pdb
     RDKit          3D

 32 31  0  0  1  0  0  0  0  0999 V2000
   20.8866  -15.8240  -18.6085 N   0  0  0  0  0  0  0  0  0  0  0  0
   21.7149  -14.7146  -18.3101 C   0  0  0  0  0  0  0  0  0  0  0  0
   21.2123  -13.5178  -18.2397 N   0  0  0  0  0  0  0  0  0  0  0  0
   23.1080  -14.8482  -18.0766 N   0  0  0  0  0  0  0  0  0  0  0  0
   23.7744  -16.1482  -18.1521 C   0  0  0  0  0  0  0  0  0  0  0  0
   22.8750  -17.1333  -17.4311 C   0  0  0  0  0  0  0  0  0  0  0  0
   23.7723  -17.8786  -16.4462 C   0  0  0  0  0  0  0  0  0  0  0  0
   24.2932  -19.1668  -17.0847 C   0  0  2  0  0  0  0  0  0  0  0  0
   23.2253  -19.8318  -17.7964 N   0  0  0  0  0  0  0  0  0  0  0  0
   24.8119  -20.0191  -15.9846 C   0  0  0  0  0  0  0  0  0  0  0  0
   24.0277  -20.6213  -15.1902 O   0  0  0  0  0  0  0  0  0  0  0  0
   21.8360  -12.7120  -18.0414 N   0  0  0  0  0  0  0  0  0  0  0  0
   30.9114  -25.1993  -15.3551 C   0  0  0  0  0  0  0  0  0  0  0  0
   30.5324  -24.7774  -16.6614 N   0  0  0  0  0  0  0  0  0  0  0  0
   30.4185  -25.6479  -17.6121 N   0  0  0  0  0  0  0  0  0  0  0  0
   30.2667  -23.4242  -16.9830 C   0  0  0  0  0  0  0  0  0  0  0  0
   29.9259  -22.4363  -15.9867 C   0  0  0  0  0  0  0  0  0  0  0  0
   28.4297  -22.2367  -15.9006 C   0  0  0  0  0  0  0  0  0  0  0  0
   28.2197  -21.0985  -14.9005 C   0  0  2  0  0  0  0  0  0  0  0  0
   26.7594  -20.8586  -14.6437 N   0  0  0  0  0  0  0  0  0  0  0  0
   26.2125  -20.1771  -15.8000 C   0  0  0  0  0  0  0  0  0  0  0  0
   26.4852  -20.1786  -13.3790 O   0  0  0  0  0  0  0  0  0  0  0  0
   26.9751  -19.0523  -13.1558 N   0  0  0  0  0  0  0  0  0  0  0  0
   30.1030  -25.3887  -18.5645 C   0  0  0  0  0  0  0  0  0  0  0  0
   21.5272  -20.0661  -12.3981 O   0  0  0  0  0  0  0  0  0  0  0  0
   21.6926  -20.7214  -11.1681 C   0  0  0  0  0  0  0  0  0  0  0  0
   20.7328  -21.3702  -10.7043 C   0  0  0  0  0  0  0  0  0  0  0  0
   22.9731  -20.6460  -10.4351 C   0  0  2  0  0  0  0  0  0  0  0  0
   23.9778  -19.7226  -11.0274 N   0  0  0  0  0  0  0  0  0  0  0  0
   25.3793  -20.2217  -11.1052 C   0  0  0  0  0  0  0  0  0  0  0  0
   25.6738  -20.7887  -12.4176 O   0  0  0  0  0  0  0  0  0  0  0  0
   25.6036  -21.2860  -10.1053 O   0  0  0  0  0  0  0  0  0  0  0  0
  2  1  1  0
  2  3  2  0
  4  2  1  0
  4  5  1  0
  6  5  1  0
  7  6  1  0
  8  7  1  0
  8  9  1  1
  8 10  1  0
 10 11  2  0
 13 12  1  0
 14 13  2  0
 15 13  1  0
 16 17  1  0
 16 15  1  0
 17 18  1  0
 19 18  1  6
 19 21  1  0
 20 10  1  0
 20 19  1  0
 21 29  1  0
 22 21  2  0
 24 25  2  0
 24 23  1  0
 26 24  1  0
 27 26  1  0
 28 27  1  6
 28 30  1  0
 29 28  1  0
 30 31  1  0
 32 30  2  0
M  END
$$$$
