RRQ.pdb
     RDKit          3D

 32 31  0  0  1  0  0  0  0  0999 V2000
   26.8943  -18.7529  -19.9799 N   0  0  0  0  0  0  0  0  0  0  0  0
   25.6636  -19.4505  -19.9099 C   0  0  0  0  0  0  0  0  0  0  0  0
   25.1177  -19.9322  -20.9868 N   0  0  0  0  0  0  0  0  0  0  0  0
   24.9761  -19.6564  -18.6859 N   0  0  0  0  0  0  0  0  0  0  0  0
   25.4818  -19.1145  -17.4248 C   0  0  0  0  0  0  0  0  0  0  0  0
   26.4688  -20.1318  -16.8864 C   0  0  0  0  0  0  0  0  0  0  0  0
   25.8776  -20.6366  -15.5725 C   0  0  0  0  0  0  0  0  0  0  0  0
   26.8136  -21.6669  -14.9394 C   0  0  2  0  0  0  0  0  0  0  0  0
   26.8577  -22.8601  -15.7540 N   0  0  0  0  0  0  0  0  0  0  0  0
   26.2806  -21.9654  -13.5857 C   0  0  0  0  0  0  0  0  0  0  0  0
   25.2848  -22.7339  -13.4229 O   0  0  0  0  0  0  0  0  0  0  0  0
   24.2177  -20.4450  -20.9186 N   0  0  0  0  0  0  0  0  0  0  0  0
   32.0662  -21.8542  -10.2621 C   0  0  0  0  0  0  0  0  0  0  0  0
   31.1367  -21.5330   -9.2323 N   0  0  0  0  0  0  0  0  0  0  0  0
   31.3117  -21.9991   -8.0378 N   0  0  0  0  0  0  0  0  0  0  0  0
   30.0046  -20.7109   -9.4505 C   0  0  0  0  0  0  0  0  0  0  0  0
   28.8205  -20.7765   -8.6270 C   0  0  0  0  0  0  0  0  0  0  0  0
   27.6951  -21.4922   -9.3394 C   0  0  0  0  0  0  0  0  0  0  0  0
   27.0493  -20.4467  -10.2503 C   0  0  2  0  0  0  0  0  0  0  0  0
   26.1189  -21.0851  -11.2416 N   0  0  0  0  0  0  0  0  0  0  0  0
   26.8836  -21.3885  -12.4349 C   0  0  0  0  0  0  0  0  0  0  0  0
   24.9091  -20.3072  -11.5032 O   0  0  0  0  0  0  0  0  0  0  0  0
   24.9947  -19.1705  -12.0120 N   0  0  0  0  0  0  0  0  0  0  0  0
   30.6307  -21.8340   -7.2744 C   0  0  0  0  0  0  0  0  0  0  0  0
   22.0094  -19.1023  -15.3731 O   0  0  0  0  0  0  0  0  0  0  0  0
   20.7844  -19.4963  -14.8126 C   0  0  0  0  0  0  0  0  0  0  0  0
   19.7299  -19.1675  -15.3931 C   0  0  0  0  0  0  0  0  0  0  0  0
   20.7407  -20.2821  -13.5624 C   0  0  1  0  0  0  0  0  0  0  0  0
   22.0706  -20.6851  -13.0317 N   0  0  0  0  0  0  0  0  0  0  0  0
   22.3839  -20.2755  -11.6340 C   0  0  0  0  0  0  0  0  0  0  0  0
   23.6546  -20.8354  -11.1838 O   0  0  0  0  0  0  0  0  0  0  0  0
   21.3378  -20.7579  -10.7089 O   0  0  0  0  0  0  0  0  0  0  0  0
  2  1  1  0
  2  3  2  0
  4  2  1  0
  4  5  1  0
  6  5  1  0
  7  6  1  0
  8  7  1  0
  8  9  1  6
  8 10  1  0
 10 11  2  0
 13 12  1  0
 14 13  2  0
 15 13  1  0
 16 17  1  0
 16 15  1  0
 17 18  1  0
 19 18  1  1
 19 21  1  0
 20 10  1  0
 20 19  1  0
 21 29  1  0
 22 21  2  0
 24 25  2  0
 24 23  1  0
 26 24  1  0
 27 26  1  0
 28 27  1  1
 28 30  1  0
 29 28  1  0
 30 31  1  0
 32 30  2  0
M  END
$$$$
