RRQ.pdb
     RDKit          3D

 32 31  0  0  1  0  0  0  0  0999 V2000
   31.9356  -24.5608  -15.7785 N   0  0  0  0  0  0  0  0  0  0  0  0
   30.9304  -24.9930  -16.6779 C   0  0  0  0  0  0  0  0  0  0  0  0
   31.1194  -26.0422  -17.4217 N   0  0  0  0  0  0  0  0  0  0  0  0
   29.6897  -24.3177  -16.8115 N   0  0  0  0  0  0  0  0  0  0  0  0
   28.9219  -23.8913  -15.6417 C   0  0  0  0  0  0  0  0  0  0  0  0
   28.5476  -22.4413  -15.8801 C   0  0  0  0  0  0  0  0  0  0  0  0
   27.0971  -22.4544  -16.3561 C   0  0  0  0  0  0  0  0  0  0  0  0
   26.2688  -23.3983  -15.4834 C   0  0  2  0  0  0  0  0  0  0  0  0
   26.2141  -24.7097  -16.0887 N   0  0  0  0  0  0  0  0  0  0  0  0
   24.9112  -22.8070  -15.3696 C   0  0  0  0  0  0  0  0  0  0  0  0
   24.1215  -22.7712  -16.3614 O   0  0  0  0  0  0  0  0  0  0  0  0
   30.3812  -26.3347  -18.0905 N   0  0  0  0  0  0  0  0  0  0  0  0
   19.9898  -23.5339   -8.6557 C   0  0  0  0  0  0  0  0  0  0  0  0
   19.8378  -24.0123   -9.9883 N   0  0  0  0  0  0  0  0  0  0  0  0
   19.2699  -25.1553  -10.2019 N   0  0  0  0  0  0  0  0  0  0  0  0
   20.2850  -23.2866  -11.1190 C   0  0  0  0  0  0  0  0  0  0  0  0
   20.8116  -21.9452  -11.0288 C   0  0  0  0  0  0  0  0  0  0  0  0
   21.2464  -21.4338  -12.3835 C   0  0  0  0  0  0  0  0  0  0  0  0
   22.6359  -22.0263  -12.6245 C   0  0  2  0  0  0  0  0  0  0  0  0
   23.1550  -21.6666  -13.9873 N   0  0  0  0  0  0  0  0  0  0  0  0
   24.4674  -22.2641  -14.1330 C   0  0  0  0  0  0  0  0  0  0  0  0
   23.1294  -20.2327  -14.2704 O   0  0  0  0  0  0  0  0  0  0  0  0
   24.0187  -19.4883  -13.8083 N   0  0  0  0  0  0  0  0  0  0  0  0
   19.1532  -25.5455  -11.1547 C   0  0  0  0  0  0  0  0  0  0  0  0
   25.8350  -19.0815  -18.2873 O   0  0  0  0  0  0  0  0  0  0  0  0
   24.8958  -18.1587  -18.7733 C   0  0  0  0  0  0  0  0  0  0  0  0
   25.2320  -17.4010  -19.7061 C   0  0  0  0  0  0  0  0  0  0  0  0
   23.5386  -18.0824  -18.1950 C   0  0  1  0  0  0  0  0  0  0  0  0
   23.2655  -19.0649  -17.1119 N   0  0  0  0  0  0  0  0  0  0  0  0
   22.3025  -18.6443  -16.0560 C   0  0  0  0  0  0  0  0  0  0  0  0
   22.1089  -19.6930  -15.0592 O   0  0  0  0  0  0  0  0  0  0  0  0
   20.9816  -18.3522  -16.6499 O   0  0  0  0  0  0  0  0  0  0  0  0
  2  1  1  0
  2  3  2  0
  4  2  1  0
  4  5  1  0
  6  5  1  0
  7  6  1  0
  8  7  1  0
  8  9  1  6
  8 10  1  0
 10 11  2  0
 13 12  1  0
 14 13  2  0
 15 13  1  0
 16 17  1  0
 16 15  1  0
 17 18  1  0
 19 18  1  6
 19 21  1  0
 20 10  1  0
 20 19  1  0
 21 29  1  0
 22 21  2  0
 24 25  2  0
 24 23  1  0
 26 24  1  0
 27 26  1  0
 28 27  1  6
 28 30  1  0
 29 28  1  0
 30 31  1  0
 32 30  2  0
M  END
$$$$
