RRQ.pdb
     RDKit          3D

 32 31  0  0  1  0  0  0  0  0999 V2000
   17.4526  -13.5330  -18.0171 N   0  0  0  0  0  0  0  0  0  0  0  0
   18.2298  -12.6091  -18.7577 C   0  0  0  0  0  0  0  0  0  0  0  0
   17.8932  -11.3545  -18.8049 N   0  0  0  0  0  0  0  0  0  0  0  0
   19.3931  -12.9962  -19.4721 N   0  0  0  0  0  0  0  0  0  0  0  0
   19.8053  -14.3970  -19.5598 C   0  0  0  0  0  0  0  0  0  0  0  0
   21.2496  -14.4482  -19.1012 C   0  0  0  0  0  0  0  0  0  0  0  0
   21.2037  -14.5606  -17.5794 C   0  0  0  0  0  0  0  0  0  0  0  0
   22.6243  -14.6169  -17.0160 C   0  0  2  0  0  0  0  0  0  0  0  0
   23.5519  -14.0297  -17.9562 N   0  0  0  0  0  0  0  0  0  0  0  0
   22.9416  -16.0481  -16.7778 C   0  0  0  0  0  0  0  0  0  0  0  0
   22.1875  -16.9722  -17.2091 O   0  0  0  0  0  0  0  0  0  0  0  0
   18.4845  -10.6858  -19.3349 N   0  0  0  0  0  0  0  0  0  0  0  0
   28.2528  -20.2037  -16.7900 C   0  0  0  0  0  0  0  0  0  0  0  0
   28.4603  -20.9464  -15.5928 N   0  0  0  0  0  0  0  0  0  0  0  0
   28.8697  -22.1723  -15.6576 N   0  0  0  0  0  0  0  0  0  0  0  0
   28.2378  -20.4020  -14.3047 C   0  0  0  0  0  0  0  0  0  0  0  0
   27.5303  -19.1615  -14.0919 C   0  0  0  0  0  0  0  0  0  0  0  0
   26.1110  -19.2434  -14.6065 C   0  0  0  0  0  0  0  0  0  0  0  0
   25.7703  -17.8398  -15.1100 C   0  0  1  0  0  0  0  0  0  0  0  0
   24.3856  -17.7877  -15.6894 N   0  0  0  0  0  0  0  0  0  0  0  0
   24.1095  -16.4122  -16.0536 C   0  0  0  0  0  0  0  0  0  0  0  0
   23.3627  -18.3830  -14.8313 O   0  0  0  0  0  0  0  0  0  0  0  0
   22.8078  -17.6946  -13.9500 N   0  0  0  0  0  0  0  0  0  0  0  0
   29.0254  -22.7489  -14.8108 C   0  0  0  0  0  0  0  0  0  0  0  0
   18.0229  -18.9042  -15.5694 O   0  0  0  0  0  0  0  0  0  0  0  0
   18.1995  -19.2455  -14.2196 C   0  0  0  0  0  0  0  0  0  0  0  0
   17.2253  -19.1436  -13.4464 C   0  0  0  0  0  0  0  0  0  0  0  0
   19.5089  -19.7144  -13.7212 C   0  0  2  0  0  0  0  0  0  0  0  0
   20.5791  -19.7874  -14.7518 N   0  0  0  0  0  0  0  0  0  0  0  0
   21.8817  -20.3685  -14.3217 C   0  0  0  0  0  0  0  0  0  0  0  0
   23.0044  -19.7244  -14.9965 O   0  0  0  0  0  0  0  0  0  0  0  0
   21.9375  -21.8079  -14.6503 O   0  0  0  0  0  0  0  0  0  0  0  0
  2  1  1  0
  2  3  2  0
  4  2  1  0
  4  5  1  0
  6  5  1  0
  7  6  1  0
  8  7  1  0
  8  9  1  6
  8 10  1  0
 10 11  2  0
 13 12  1  0
 14 13  2  0
 15 13  1  0
 16 17  1  0
 16 15  1  0
 17 18  1  0
 19 18  1  6
 19 21  1  0
 20 10  1  0
 20 19  1  0
 21 29  1  0
 22 21  2  0
 24 25  2  0
 24 23  1  0
 26 24  1  0
 27 26  1  0
 28 27  1  6
 28 30  1  0
 29 28  1  0
 30 31  1  0
 32 30  2  0
M  END
$$$$
