RRQ.pdb
     RDKit          3D

 32 31  0  0  1  0  0  0  0  0999 V2000
   23.1341  -29.8107   -9.7960 N   0  0  0  0  0  0  0  0  0  0  0  0
   22.5964  -31.1210   -9.8075 C   0  0  0  0  0  0  0  0  0  0  0  0
   23.3208  -32.1331   -9.4326 N   0  0  0  0  0  0  0  0  0  0  0  0
   21.2662  -31.3922  -10.2198 N   0  0  0  0  0  0  0  0  0  0  0  0
   20.1486  -30.5465   -9.8008 C   0  0  0  0  0  0  0  0  0  0  0  0
   19.9734  -29.5001  -10.8842 C   0  0  0  0  0  0  0  0  0  0  0  0
   18.8623  -28.5732  -10.3974 C   0  0  0  0  0  0  0  0  0  0  0  0
   19.4421  -27.2037  -10.0414 C   0  0  2  0  0  0  0  0  0  0  0  0
   20.5024  -27.3537   -9.0707 N   0  0  0  0  0  0  0  0  0  0  0  0
   18.3284  -26.3888   -9.4924 C   0  0  0  0  0  0  0  0  0  0  0  0
   17.2353  -26.2555  -10.1216 O   0  0  0  0  0  0  0  0  0  0  0  0
   22.8987  -33.0811   -9.4032 N   0  0  0  0  0  0  0  0  0  0  0  0
   16.5763  -26.1627   -0.9510 C   0  0  0  0  0  0  0  0  0  0  0  0
   17.0662  -27.1900   -1.8067 N   0  0  0  0  0  0  0  0  0  0  0  0
   17.6451  -28.2302   -1.2991 N   0  0  0  0  0  0  0  0  0  0  0  0
   16.9506  -27.1332   -3.2169 C   0  0  0  0  0  0  0  0  0  0  0  0
   17.4108  -26.0068   -3.9941 C   0  0  0  0  0  0  0  0  0  0  0  0
   17.1398  -26.2090   -5.4677 C   0  0  0  0  0  0  0  0  0  0  0  0
   17.6233  -24.9323   -6.1577 C   0  0  2  0  0  0  0  0  0  0  0  0
   17.3824  -24.9864   -7.6393 N   0  0  0  0  0  0  0  0  0  0  0  0
   18.4692  -25.7359   -8.2375 C   0  0  0  0  0  0  0  0  0  0  0  0
   17.1673  -23.6766   -8.2518 O   0  0  0  0  0  0  0  0  0  0  0  0
   18.1344  -22.9122   -8.4485 N   0  0  0  0  0  0  0  0  0  0  0  0
   17.9043  -29.0537   -1.8721 C   0  0  0  0  0  0  0  0  0  0  0  0
   17.1395  -23.2088  -13.5065 O   0  0  0  0  0  0  0  0  0  0  0  0
   16.4461  -21.9989  -13.3477 C   0  0  0  0  0  0  0  0  0  0  0  0
   16.2723  -21.2754  -14.3495 C   0  0  0  0  0  0  0  0  0  0  0  0
   15.9329  -21.5872  -12.0250 C   0  0  2  0  0  0  0  0  0  0  0  0
   16.1876  -22.5579  -10.9270 N   0  0  0  0  0  0  0  0  0  0  0  0
   15.5824  -22.2422   -9.6028 C   0  0  0  0  0  0  0  0  0  0  0  0
   15.8781  -23.2783   -8.6180 O   0  0  0  0  0  0  0  0  0  0  0  0
   14.1122  -22.1501   -9.7170 O   0  0  0  0  0  0  0  0  0  0  0  0
  2  1  1  0
  2  3  2  0
  4  2  1  0
  4  5  1  0
  6  5  1  0
  7  6  1  0
  8  7  1  0
  8  9  1  1
  8 10  1  0
 10 11  2  0
 13 12  1  0
 14 13  2  0
 15 13  1  0
 16 17  1  0
 16 15  1  0
 17 18  1  0
 19 18  1  1
 19 21  1  0
 20 10  1  0
 20 19  1  0
 21 29  1  0
 22 21  2  0
 24 25  2  0
 24 23  1  0
 26 24  1  0
 27 26  1  0
 28 27  1  6
 28 30  1  0
 29 28  1  0
 30 31  1  0
 32 30  2  0
M  END
$$$$
