RRQ.pdb
     RDKit          3D

 32 31  0  0  1  0  0  0  0  0999 V2000
   29.3179  -20.5787   -8.6190 N   0  0  0  0  0  0  0  0  0  0  0  0
   28.4363  -20.2389   -7.5639 C   0  0  0  0  0  0  0  0  0  0  0  0
   28.8291  -20.3161   -6.3271 N   0  0  0  0  0  0  0  0  0  0  0  0
   27.1055  -19.8051   -7.7963 N   0  0  0  0  0  0  0  0  0  0  0  0
   26.1906  -20.5672   -8.6460 C   0  0  0  0  0  0  0  0  0  0  0  0
   26.3170  -19.9863  -10.0409 C   0  0  0  0  0  0  0  0  0  0  0  0
   25.3516  -20.7814  -10.9164 C   0  0  0  0  0  0  0  0  0  0  0  0
   26.0892  -21.3411  -12.1334 C   0  0  2  0  0  0  0  0  0  0  0  0
   27.0788  -20.3919  -12.5905 N   0  0  0  0  0  0  0  0  0  0  0  0
   25.0689  -21.5940  -13.1825 C   0  0  0  0  0  0  0  0  0  0  0  0
   24.2606  -20.6880  -13.5493 O   0  0  0  0  0  0  0  0  0  0  0  0
   28.1612  -20.0953   -5.5637 N   0  0  0  0  0  0  0  0  0  0  0  0
   26.8136  -27.7758  -18.3919 C   0  0  0  0  0  0  0  0  0  0  0  0
   27.3476  -27.1995  -17.2042 N   0  0  0  0  0  0  0  0  0  0  0  0
   28.3276  -27.7802  -16.5902 N   0  0  0  0  0  0  0  0  0  0  0  0
   26.8520  -25.9961  -16.6461 C   0  0  0  0  0  0  0  0  0  0  0  0
   25.8676  -25.1741  -17.3094 C   0  0  0  0  0  0  0  0  0  0  0  0
   25.5400  -23.9439  -16.4938 C   0  0  0  0  0  0  0  0  0  0  0  0
   24.3859  -24.3498  -15.5756 C   0  0  2  0  0  0  0  0  0  0  0  0
   23.9205  -23.1931  -14.7381 N   0  0  0  0  0  0  0  0  0  0  0  0
   24.9786  -22.8705  -13.8016 C   0  0  0  0  0  0  0  0  0  0  0  0
   22.6214  -23.4076  -14.1030 O   0  0  0  0  0  0  0  0  0  0  0  0
   22.5604  -23.8711  -12.9454 N   0  0  0  0  0  0  0  0  0  0  0  0
   28.7155  -27.4175  -15.7005 C   0  0  0  0  0  0  0  0  0  0  0  0
   21.0776  -18.6768  -12.3657 O   0  0  0  0  0  0  0  0  0  0  0  0
   19.7702  -19.1822  -12.2934 C   0  0  0  0  0  0  0  0  0  0  0  0
   18.9072  -18.5184  -11.6836 C   0  0  0  0  0  0  0  0  0  0  0  0
   19.4202  -20.4720  -12.9231 C   0  0  1  0  0  0  0  0  0  0  0  0
   20.5649  -21.1987  -13.5350 N   0  0  0  0  0  0  0  0  0  0  0  0
   20.2588  -22.5089  -14.1748 C   0  0  0  0  0  0  0  0  0  0  0  0
   21.4455  -23.0941  -14.7912 O   0  0  0  0  0  0  0  0  0  0  0  0
   19.2480  -22.3392  -15.2389 O   0  0  0  0  0  0  0  0  0  0  0  0
  2  1  1  0
  2  3  2  0
  4  2  1  0
  4  5  1  0
  6  5  1  0
  7  6  1  0
  8  7  1  0
  8  9  1  6
  8 10  1  0
 10 11  2  0
 13 12  1  0
 14 13  2  0
 15 13  1  0
 16 17  1  0
 16 15  1  0
 17 18  1  0
 19 18  1  6
 19 21  1  0
 20 10  1  0
 20 19  1  0
 21 29  1  0
 22 21  2  0
 24 25  2  0
 24 23  1  0
 26 24  1  0
 27 26  1  0
 28 27  1  6
 28 30  1  0
 29 28  1  0
 30 31  1  0
 32 30  2  0
M  END
$$$$
