RRQ.pdb
     RDKit          3D

 32 31  0  0  1  0  0  0  0  0999 V2000
   29.8731  -25.6424  -17.2528 N   0  0  0  0  0  0  0  0  0  0  0  0
   28.4887  -25.9187  -17.3675 C   0  0  0  0  0  0  0  0  0  0  0  0
   27.9708  -26.9479  -16.7656 N   0  0  0  0  0  0  0  0  0  0  0  0
   27.6123  -25.1034  -18.1292 N   0  0  0  0  0  0  0  0  0  0  0  0
   28.1092  -23.9763  -18.9182 C   0  0  0  0  0  0  0  0  0  0  0  0
   27.6206  -22.7194  -18.2249 C   0  0  0  0  0  0  0  0  0  0  0  0
   26.1630  -22.9829  -17.8553 C   0  0  0  0  0  0  0  0  0  0  0  0
   25.4669  -21.6677  -17.5026 C   0  0  2  0  0  0  0  0  0  0  0  0
   26.4355  -20.5964  -17.4451 N   0  0  0  0  0  0  0  0  0  0  0  0
   24.8094  -21.8628  -16.1853 C   0  0  0  0  0  0  0  0  0  0  0  0
   23.8743  -22.7059  -16.0326 O   0  0  0  0  0  0  0  0  0  0  0  0
   26.9586  -27.1500  -16.8776 N   0  0  0  0  0  0  0  0  0  0  0  0
   23.9161  -19.3938   -9.1633 C   0  0  0  0  0  0  0  0  0  0  0  0
   24.2977  -20.5916   -8.4943 N   0  0  0  0  0  0  0  0  0  0  0  0
   23.8260  -20.8509   -7.3175 N   0  0  0  0  0  0  0  0  0  0  0  0
   25.1865  -21.5367   -9.0616 C   0  0  0  0  0  0  0  0  0  0  0  0
   25.8071  -21.3498  -10.3518 C   0  0  0  0  0  0  0  0  0  0  0  0
   24.8425  -20.7366  -11.3415 C   0  0  0  0  0  0  0  0  0  0  0  0
   25.5230  -20.8466  -12.7070 C   0  0  1  0  0  0  0  0  0  0  0  0
   24.5336  -21.1835  -13.7857 N   0  0  0  0  0  0  0  0  0  0  0  0
   25.2209  -21.0993  -15.0590 C   0  0  0  0  0  0  0  0  0  0  0  0
   23.3054  -20.3927  -13.7296 O   0  0  0  0  0  0  0  0  0  0  0  0
   23.3063  -19.2078  -14.1226 N   0  0  0  0  0  0  0  0  0  0  0  0
   24.0832  -21.7079   -6.7949 C   0  0  0  0  0  0  0  0  0  0  0  0
   19.7154  -17.8167  -16.6559 O   0  0  0  0  0  0  0  0  0  0  0  0
   19.5768  -19.1804  -16.9576 C   0  0  0  0  0  0  0  0  0  0  0  0
   19.0307  -19.5007  -18.0330 C   0  0  0  0  0  0  0  0  0  0  0  0
   20.0643  -20.2166  -16.0243 C   0  0  1  0  0  0  0  0  0  0  0  0
   20.8027  -19.6950  -14.8429 N   0  0  0  0  0  0  0  0  0  0  0  0
   20.7835  -20.5407  -13.6166 C   0  0  0  0  0  0  0  0  0  0  0  0
   22.1280  -20.9623  -13.2356 O   0  0  0  0  0  0  0  0  0  0  0  0
   19.9870  -21.7637  -13.8465 O   0  0  0  0  0  0  0  0  0  0  0  0
  2  1  1  0
  2  3  2  0
  4  2  1  0
  4  5  1  0
  6  5  1  0
  7  6  1  0
  8  7  1  0
  8  9  1  1
  8 10  1  0
 10 11  2  0
 13 12  1  0
 14 13  2  0
 15 13  1  0
 16 17  1  0
 16 15  1  0
 17 18  1  0
 19 18  1  1
 19 21  1  0
 20 10  1  0
 20 19  1  0
 21 29  1  0
 22 21  2  0
 24 25  2  0
 24 23  1  0
 26 24  1  0
 27 26  1  0
 28 27  1  6
 28 30  1  0
 29 28  1  0
 30 31  1  0
 32 30  2  0
M  END
$$$$
