RRQ.pdb
     RDKit          3D

 32 31  0  0  1  0  0  0  0  0999 V2000
   26.4831  -20.3993  -22.3026 N   0  0  0  0  0  0  0  0  0  0  0  0
   25.3789  -21.0198  -21.6687 C   0  0  0  0  0  0  0  0  0  0  0  0
   24.4433  -21.5803  -22.3760 N   0  0  0  0  0  0  0  0  0  0  0  0
   25.2389  -21.0620  -20.2574 N   0  0  0  0  0  0  0  0  0  0  0  0
   26.2082  -20.4147  -19.3735 C   0  0  0  0  0  0  0  0  0  0  0  0
   27.4783  -21.2391  -19.4536 C   0  0  0  0  0  0  0  0  0  0  0  0
   28.4321  -20.6428  -18.4214 C   0  0  0  0  0  0  0  0  0  0  0  0
   28.7285  -21.6703  -17.3282 C   0  0  2  0  0  0  0  0  0  0  0  0
   28.6125  -23.0079  -17.8633 N   0  0  0  0  0  0  0  0  0  0  0  0
   27.7434  -21.4445  -16.2399 C   0  0  0  0  0  0  0  0  0  0  0  0
   26.6242  -22.0412  -16.2284 O   0  0  0  0  0  0  0  0  0  0  0  0
   23.6347  -22.0212  -21.8970 N   0  0  0  0  0  0  0  0  0  0  0  0
   23.6636  -21.4882  -11.5841 C   0  0  0  0  0  0  0  0  0  0  0  0
   24.1704  -20.9001  -10.3904 N   0  0  0  0  0  0  0  0  0  0  0  0
   23.4039  -20.7819   -9.3544 N   0  0  0  0  0  0  0  0  0  0  0  0
   25.4999  -20.4269  -10.2734 C   0  0  0  0  0  0  0  0  0  0  0  0
   26.4705  -20.5524  -11.3349 C   0  0  0  0  0  0  0  0  0  0  0  0
   26.8769  -19.1981  -11.8704 C   0  0  0  0  0  0  0  0  0  0  0  0
   27.7963  -19.4809  -13.0597 C   0  0  2  0  0  0  0  0  0  0  0  0
   27.0846  -20.2614  -14.1276 N   0  0  0  0  0  0  0  0  0  0  0  0
   28.0403  -20.5453  -15.1797 C   0  0  0  0  0  0  0  0  0  0  0  0
   25.8581  -19.6262  -14.6062 O   0  0  0  0  0  0  0  0  0  0  0  0
   25.9091  -18.5133  -15.1695 N   0  0  0  0  0  0  0  0  0  0  0  0
   23.7446  -20.3947   -8.4556 C   0  0  0  0  0  0  0  0  0  0  0  0
   21.0019  -22.7359  -16.9316 O   0  0  0  0  0  0  0  0  0  0  0  0
   20.4724  -21.4410  -16.8195 C   0  0  0  0  0  0  0  0  0  0  0  0
   19.3377  -21.2181  -17.2887 C   0  0  0  0  0  0  0  0  0  0  0  0
   21.2391  -20.3627  -16.1622 C   0  0  2  0  0  0  0  0  0  0  0  0
   22.5827  -20.7652  -15.6666 N   0  0  0  0  0  0  0  0  0  0  0  0
   23.3498  -19.7379  -14.9078 C   0  0  0  0  0  0  0  0  0  0  0  0
   24.6260  -20.2644  -14.4338 O   0  0  0  0  0  0  0  0  0  0  0  0
   22.5872  -19.2974  -13.7214 O   0  0  0  0  0  0  0  0  0  0  0  0
  2  1  1  0
  2  3  2  0
  4  2  1  0
  4  5  1  0
  6  5  1  0
  7  6  1  0
  8  7  1  0
  8  9  1  6
  8 10  1  0
 10 11  2  0
 13 12  1  0
 14 13  2  0
 15 13  1  0
 16 17  1  0
 16 15  1  0
 17 18  1  0
 19 18  1  1
 19 21  1  0
 20 10  1  0
 20 19  1  0
 21 29  1  0
 22 21  2  0
 24 25  2  0
 24 23  1  0
 26 24  1  0
 27 26  1  0
 28 27  1  1
 28 30  1  0
 29 28  1  0
 30 31  1  0
 32 30  2  0
M  END
$$$$
