RRQ.pdb
     RDKit          3D

 32 31  0  0  1  0  0  0  0  0999 V2000
   22.9194  -24.2637  -19.0459 N   0  0  0  0  0  0  0  0  0  0  0  0
   22.0396  -23.1540  -19.0182 C   0  0  0  0  0  0  0  0  0  0  0  0
   21.5298  -22.6905  -20.1204 N   0  0  0  0  0  0  0  0  0  0  0  0
   21.6756  -22.5036  -17.8109 N   0  0  0  0  0  0  0  0  0  0  0  0
   22.2496  -22.9012  -16.5254 C   0  0  0  0  0  0  0  0  0  0  0  0
   21.1374  -23.5824  -15.7520 C   0  0  0  0  0  0  0  0  0  0  0  0
   21.7363  -23.9597  -14.3993 C   0  0  0  0  0  0  0  0  0  0  0  0
   21.2819  -25.3641  -13.9996 C   0  0  2  0  0  0  0  0  0  0  0  0
   21.1182  -26.1843  -15.1785 N   0  0  0  0  0  0  0  0  0  0  0  0
   19.9959  -25.2148  -13.2717 C   0  0  0  0  0  0  0  0  0  0  0  0
   18.9088  -25.0016  -13.8891 O   0  0  0  0  0  0  0  0  0  0  0  0
   20.8675  -21.8920  -20.0814 N   0  0  0  0  0  0  0  0  0  0  0  0
   18.1401  -25.4938   -4.3424 C   0  0  0  0  0  0  0  0  0  0  0  0
   17.1428  -26.1122   -5.1491 N   0  0  0  0  0  0  0  0  0  0  0  0
   16.3057  -26.9424   -4.6155 N   0  0  0  0  0  0  0  0  0  0  0  0
   17.0147  -25.8609   -6.5367 C   0  0  0  0  0  0  0  0  0  0  0  0
   18.1425  -25.8589   -7.4382 C   0  0  0  0  0  0  0  0  0  0  0  0
   17.7309  -25.4418   -8.8319 C   0  0  0  0  0  0  0  0  0  0  0  0
   19.0018  -25.5161   -9.6798 C   0  0  2  0  0  0  0  0  0  0  0  0
   18.7306  -25.1327  -11.1065 N   0  0  0  0  0  0  0  0  0  0  0  0
   19.9600  -25.3091  -11.8537 C   0  0  0  0  0  0  0  0  0  0  0  0
   18.1374  -23.8055  -11.2598 O   0  0  0  0  0  0  0  0  0  0  0  0
   18.8446  -22.7854  -11.1265 N   0  0  0  0  0  0  0  0  0  0  0  0
   15.5374  -27.3782   -5.1573 C   0  0  0  0  0  0  0  0  0  0  0  0
   14.7865  -21.9752  -15.8772 O   0  0  0  0  0  0  0  0  0  0  0  0
   14.4443  -20.9701  -14.9593 C   0  0  0  0  0  0  0  0  0  0  0  0
   13.7861  -19.9907  -15.3654 C   0  0  0  0  0  0  0  0  0  0  0  0
   14.8535  -21.0656  -13.5430 C   0  0  1  0  0  0  0  0  0  0  0  0
   15.6154  -22.2949  -13.1950 N   0  0  0  0  0  0  0  0  0  0  0  0
   16.0995  -22.4053  -11.7904 C   0  0  0  0  0  0  0  0  0  0  0  0
   16.7770  -23.6768  -11.5558 O   0  0  0  0  0  0  0  0  0  0  0  0
   14.9651  -22.3300  -10.8469 O   0  0  0  0  0  0  0  0  0  0  0  0
  2  1  1  0
  2  3  2  0
  4  2  1  0
  4  5  1  0
  6  5  1  0
  7  6  1  0
  8  7  1  0
  8  9  1  6
  8 10  1  0
 10 11  2  0
 13 12  1  0
 14 13  2  0
 15 13  1  0
 16 17  1  0
 16 15  1  0
 17 18  1  0
 19 18  1  6
 19 21  1  0
 20 10  1  0
 20 19  1  0
 21 29  1  0
 22 21  2  0
 24 25  2  0
 24 23  1  0
 26 24  1  0
 27 26  1  0
 28 27  1  1
 28 30  1  0
 29 28  1  0
 30 31  1  0
 32 30  2  0
M  END
$$$$
