RRQ.pdb
     RDKit          3D

 32 31  0  0  1  0  0  0  0  0999 V2000
   21.1262  -32.3959   -9.5522 N   0  0  0  0  0  0  0  0  0  0  0  0
   22.2533  -33.0611  -10.0937 C   0  0  0  0  0  0  0  0  0  0  0  0
   23.1484  -33.5844   -9.3097 N   0  0  0  0  0  0  0  0  0  0  0  0
   22.4603  -33.1891  -11.4915 N   0  0  0  0  0  0  0  0  0  0  0  0
   21.5534  -32.5704  -12.4583 C   0  0  0  0  0  0  0  0  0  0  0  0
   22.1631  -31.2303  -12.8210 C   0  0  0  0  0  0  0  0  0  0  0  0
   21.1872  -30.5743  -13.7946 C   0  0  0  0  0  0  0  0  0  0  0  0
   21.7635  -29.2514  -14.3010 C   0  0  2  0  0  0  0  0  0  0  0  0
   23.2059  -29.3286  -14.3519 N   0  0  0  0  0  0  0  0  0  0  0  0
   21.3195  -28.1937  -13.3576 C   0  0  0  0  0  0  0  0  0  0  0  0
   22.0538  -27.8178  -12.3941 O   0  0  0  0  0  0  0  0  0  0  0  0
   24.0031  -34.0073   -9.7199 N   0  0  0  0  0  0  0  0  0  0  0  0
   15.9989  -22.2828  -11.1928 C   0  0  0  0  0  0  0  0  0  0  0  0
   16.1813  -22.0410  -12.5842 N   0  0  0  0  0  0  0  0  0  0  0  0
   15.1573  -21.7895  -13.3344 N   0  0  0  0  0  0  0  0  0  0  0  0
   17.4537  -22.0609  -13.2054 C   0  0  0  0  0  0  0  0  0  0  0  0
   17.9982  -23.2410  -13.8342 C   0  0  0  0  0  0  0  0  0  0  0  0
   18.5513  -24.2042  -12.8084 C   0  0  0  0  0  0  0  0  0  0  0  0
   19.0745  -25.4018  -13.6033 C   0  0  1  0  0  0  0  0  0  0  0  0
   19.6307  -26.4605  -12.6946 N   0  0  0  0  0  0  0  0  0  0  0  0
   20.0492  -27.5766  -13.5192 C   0  0  0  0  0  0  0  0  0  0  0  0
   18.7296  -26.8404  -11.6080 O   0  0  0  0  0  0  0  0  0  0  0  0
   17.7092  -27.5177  -11.8500 N   0  0  0  0  0  0  0  0  0  0  0  0
   15.2414  -21.6557  -14.3585 C   0  0  0  0  0  0  0  0  0  0  0  0
   18.9647  -24.2227   -5.7626 O   0  0  0  0  0  0  0  0  0  0  0  0
   18.0391  -25.2659   -5.6052 C   0  0  0  0  0  0  0  0  0  0  0  0
   17.4696  -25.3964   -4.5025 C   0  0  0  0  0  0  0  0  0  0  0  0
   17.7438  -26.1918   -6.7179 C   0  0  2  0  0  0  0  0  0  0  0  0
   18.5240  -25.9437   -7.9599 N   0  0  0  0  0  0  0  0  0  0  0  0
   18.1942  -26.7953   -9.1370 C   0  0  0  0  0  0  0  0  0  0  0  0
   19.0094  -26.4457  -10.2962 O   0  0  0  0  0  0  0  0  0  0  0  0
   16.7795  -26.6154   -9.5230 O   0  0  0  0  0  0  0  0  0  0  0  0
  2  1  1  0
  2  3  2  0
  4  2  1  0
  4  5  1  0
  6  5  1  0
  7  6  1  0
  8  7  1  0
  8  9  1  1
  8 10  1  0
 10 11  2  0
 13 12  1  0
 14 13  2  0
 15 13  1  0
 16 17  1  0
 16 15  1  0
 17 18  1  0
 19 18  1  6
 19 21  1  0
 20 10  1  0
 20 19  1  0
 21 29  1  0
 22 21  2  0
 24 25  2  0
 24 23  1  0
 26 24  1  0
 27 26  1  0
 28 27  1  6
 28 30  1  0
 29 28  1  0
 30 31  1  0
 32 30  2  0
M  END
$$$$
