RRQ.pdb
     RDKit          3D

 32 31  0  0  1  0  0  0  0  0999 V2000
   30.1609  -31.4672  -16.7631 N   0  0  0  0  0  0  0  0  0  0  0  0
   29.8913  -30.9930  -18.0703 C   0  0  0  0  0  0  0  0  0  0  0  0
   30.6204  -31.3801  -19.0744 N   0  0  0  0  0  0  0  0  0  0  0  0
   28.8328  -30.0896  -18.3469 N   0  0  0  0  0  0  0  0  0  0  0  0
   27.9353  -29.6179  -17.2925 C   0  0  0  0  0  0  0  0  0  0  0  0
   26.5407  -30.0652  -17.6849 C   0  0  0  0  0  0  0  0  0  0  0  0
   25.6064  -29.5241  -16.6055 C   0  0  0  0  0  0  0  0  0  0  0  0
   24.1498  -29.7332  -17.0217 C   0  0  2  0  0  0  0  0  0  0  0  0
   23.8409  -28.9090  -18.1682 N   0  0  0  0  0  0  0  0  0  0  0  0
   23.3067  -29.3627  -15.8566 C   0  0  0  0  0  0  0  0  0  0  0  0
   22.9706  -28.1588  -15.6411 O   0  0  0  0  0  0  0  0  0  0  0  0
   30.4328  -30.9964  -20.0206 N   0  0  0  0  0  0  0  0  0  0  0  0
   19.3753  -26.1466  -10.4863 C   0  0  0  0  0  0  0  0  0  0  0  0
   19.5929  -25.4410  -11.7039 N   0  0  0  0  0  0  0  0  0  0  0  0
   19.3020  -24.1823  -11.7802 N   0  0  0  0  0  0  0  0  0  0  0  0
   20.1237  -26.0575  -12.8629 C   0  0  0  0  0  0  0  0  0  0  0  0
   20.2677  -27.4884  -12.9908 C   0  0  0  0  0  0  0  0  0  0  0  0
   20.8484  -27.8639  -14.3354 C   0  0  0  0  0  0  0  0  0  0  0  0
   20.7452  -29.3876  -14.4212 C   0  0  2  0  0  0  0  0  0  0  0  0
   21.9658  -30.0514  -13.8507 N   0  0  0  0  0  0  0  0  0  0  0  0
   22.8562  -30.3620  -14.9514 C   0  0  0  0  0  0  0  0  0  0  0  0
   21.6696  -31.1992  -12.9952 O   0  0  0  0  0  0  0  0  0  0  0  0
   21.1238  -32.2134  -13.4767 N   0  0  0  0  0  0  0  0  0  0  0  0
   19.4682  -23.6273  -12.6393 C   0  0  0  0  0  0  0  0  0  0  0  0
   25.2794  -32.1332   -7.9212 O   0  0  0  0  0  0  0  0  0  0  0  0
   24.4535  -33.2680   -7.9108 C   0  0  0  0  0  0  0  0  0  0  0  0
   24.6969  -34.1750   -7.0890 C   0  0  0  0  0  0  0  0  0  0  0  0
   23.3207  -33.3898   -8.8513 C   0  0  1  0  0  0  0  0  0  0  0  0
   23.1527  -32.2387   -9.7784 N   0  0  0  0  0  0  0  0  0  0  0  0
   22.0410  -32.3331  -10.7656 C   0  0  0  0  0  0  0  0  0  0  0  0
   21.9972  -31.1625  -11.6365 O   0  0  0  0  0  0  0  0  0  0  0  0
   20.7399  -32.4138  -10.0704 O   0  0  0  0  0  0  0  0  0  0  0  0
  2  1  1  0
  2  3  2  0
  4  2  1  0
  4  5  1  0
  6  5  1  0
  7  6  1  0
  8  7  1  0
  8  9  1  6
  8 10  1  0
 10 11  2  0
 13 12  1  0
 14 13  2  0
 15 13  1  0
 16 17  1  0
 16 15  1  0
 17 18  1  0
 19 18  1  1
 19 21  1  0
 20 10  1  0
 20 19  1  0
 21 29  1  0
 22 21  2  0
 24 25  2  0
 24 23  1  0
 26 24  1  0
 27 26  1  0
 28 27  1  1
 28 30  1  0
 29 28  1  0
 30 31  1  0
 32 30  2  0
M  END
$$$$
