HNE.pdb
     RDKit          3D

 28 28  0  0  1  0  0  0  0  0999 V2000
    8.9070  -16.2690   19.9391 N   0  0  0  0  0  0  0  0  0  0  0  0
    9.7145  -15.3418   20.7145 C   0  0  1  0  0  0  0  0  0  0  0  0
    9.4592  -13.9235   20.3282 C   0  0  0  0  0  0  0  0  0  0  0  0
    8.5884  -13.7633   19.1391 C   0  0  0  0  0  0  0  0  0  0  0  0
    8.0070  -14.7445   18.3525 C   0  0  0  0  0  0  0  0  0  0  0  0
    7.2888  -14.1852   17.3694 N   0  0  0  0  0  0  0  0  0  0  0  0
    7.4091  -12.8556   17.5250 C   0  0  0  0  0  0  0  0  0  0  0  0
    8.1991  -12.5955   18.6008 N   0  0  0  0  0  0  0  0  0  0  0  0
    9.6209  -15.6455   22.1443 C   0  0  0  0  0  0  0  0  0  0  0  0
   10.2423  -14.9348   22.9961 O   0  0  0  0  0  0  0  0  0  0  0  0
    8.3222  -17.5136   26.7697 N   0  0  0  0  0  0  0  0  0  0  0  0
    7.2360  -17.7937   25.8761 C   0  0  0  0  0  0  0  0  0  0  0  0
    6.1870  -18.2485   26.3889 O   0  0  0  0  0  0  0  0  0  0  0  0
    7.4345  -17.5279   24.4377 C   0  0  0  0  0  0  0  0  0  0  0  0
    8.8195  -17.0216   24.1049 C   0  0  2  0  0  0  0  0  0  0  0  0
    8.8521  -16.7223   22.6758 N   0  0  0  0  0  0  0  0  0  0  0  0
    9.8943  -17.9284   24.5364 C   0  0  0  0  0  0  0  0  0  0  0  0
    9.9436  -19.1212   24.1470 O   0  0  0  0  0  0  0  0  0  0  0  0
   10.9550  -17.5347   25.4217 N   0  0  0  0  0  0  0  0  0  0  0  0
   11.9781  -18.4668   25.8283 C   0  0  1  0  0  0  0  0  0  0  0  0
   13.3783  -18.0511   25.6067 C   0  0  0  0  0  0  0  0  0  0  0  0
   13.8148  -17.8510   24.1984 C   0  0  0  0  0  0  0  0  0  0  0  0
   14.8436  -16.8414   23.9707 C   0  0  0  0  0  0  0  0  0  0  0  0
   14.7704  -15.9962   23.0568 O   0  0  0  0  0  0  0  0  0  0  0  0
   11.8127  -18.7003   27.3152 C   0  0  0  0  0  0  0  0  0  0  0  0
   12.5865  -19.6267   27.9878 O   0  0  0  0  0  0  0  0  0  0  0  0
   15.9576  -16.8155   24.8062 O   0  0  0  0  0  0  0  0  0  0  0  0
   10.9475  -18.0195   27.9048 O   0  0  0  0  0  0  0  0  0  0  0  0
  2  1  1  6
  2  9  1  0
  3  2  1  0
  3  4  1  0
  4  5  2  0
  5  6  1  0
  7  6  1  0
  8  4  1  0
  8  7  2  0
  9 16  1  0
  9 10  2  0
 11 12  1  0
 12 13  2  0
 15 14  1  6
 14 12  1  0
 15 17  1  0
 16 15  1  0
 17 19  1  0
 18 17  2  0
 19 20  1  0
 20 21  1  1
 20 25  1  0
 21 22  1  0
 22 23  1  0
 23 24  2  0
 25 28  2  0
 25 26  1  0
 27 23  1  0
M  END
$$$$
