HNE.pdb
     RDKit          3D

 28 28  0  0  1  0  0  0  0  0999 V2000
    8.4027  -12.8664   17.9941 N   0  0  0  0  0  0  0  0  0  0  0  0
    8.6017  -14.2571   18.3673 C   0  0  1  0  0  0  0  0  0  0  0  0
    9.4364  -14.9875   17.3694 C   0  0  0  0  0  0  0  0  0  0  0  0
    8.7988  -15.1440   16.0400 C   0  0  0  0  0  0  0  0  0  0  0  0
    8.7313  -14.2325   14.9989 C   0  0  0  0  0  0  0  0  0  0  0  0
    8.0652  -14.7605   13.9632 N   0  0  0  0  0  0  0  0  0  0  0  0
    7.7088  -16.0010   14.3379 C   0  0  0  0  0  0  0  0  0  0  0  0
    8.1535  -16.2376   15.6010 N   0  0  0  0  0  0  0  0  0  0  0  0
    9.0313  -14.3613   19.7638 C   0  0  0  0  0  0  0  0  0  0  0  0
    9.9764  -13.6332   20.2033 O   0  0  0  0  0  0  0  0  0  0  0  0
    6.6526  -13.7020   23.0824 N   0  0  0  0  0  0  0  0  0  0  0  0
    6.5759  -15.1106   22.8234 C   0  0  0  0  0  0  0  0  0  0  0  0
    5.4489  -15.5676   22.5211 O   0  0  0  0  0  0  0  0  0  0  0  0
    7.8155  -15.9046   22.9314 C   0  0  0  0  0  0  0  0  0  0  0  0
    8.9440  -15.3780   22.0743 C   0  0  2  0  0  0  0  0  0  0  0  0
    8.4439  -15.2541   20.7077 N   0  0  0  0  0  0  0  0  0  0  0  0
   10.1770  -16.1738   22.1752 C   0  0  0  0  0  0  0  0  0  0  0  0
   10.2765  -17.3029   21.6347 O   0  0  0  0  0  0  0  0  0  0  0  0
   11.3461  -15.7363   22.8862 N   0  0  0  0  0  0  0  0  0  0  0  0
   12.5428  -16.5405   22.9300 C   0  0  1  0  0  0  0  0  0  0  0  0
   13.8249  -15.8144   23.0368 C   0  0  0  0  0  0  0  0  0  0  0  0
   15.0646  -16.6317   23.1332 C   0  0  0  0  0  0  0  0  0  0  0  0
   16.3060  -15.9865   22.7181 C   0  0  0  0  0  0  0  0  0  0  0  0
   16.4317  -15.4051   21.6221 O   0  0  0  0  0  0  0  0  0  0  0  0
   12.4387  -17.4416   24.1425 C   0  0  0  0  0  0  0  0  0  0  0  0
   13.2707  -18.5334   24.3002 O   0  0  0  0  0  0  0  0  0  0  0  0
   17.4011  -16.0182   23.5779 O   0  0  0  0  0  0  0  0  0  0  0  0
   11.5691  -17.1539   24.9915 O   0  0  0  0  0  0  0  0  0  0  0  0
  2  1  1  6
  2  9  1  0
  3  2  1  0
  3  4  1  0
  4  5  2  0
  5  6  1  0
  7  6  1  0
  8  4  1  0
  8  7  2  0
  9 16  1  0
  9 10  2  0
 11 12  1  0
 12 13  2  0
 15 14  1  1
 14 12  1  0
 15 17  1  0
 16 15  1  0
 17 19  1  0
 18 17  2  0
 19 20  1  0
 20 21  1  1
 20 25  1  0
 21 22  1  0
 22 23  1  0
 23 24  2  0
 25 28  2  0
 25 26  1  0
 27 23  1  0
M  END
$$$$
