HNE.pdb
     RDKit          3D

 28 28  0  0  1  0  0  0  0  0999 V2000
    8.6371  -16.0319   19.8934 N   0  0  0  0  0  0  0  0  0  0  0  0
    8.2298  -14.8813   20.6827 C   0  0  1  0  0  0  0  0  0  0  0  0
    7.0447  -14.1928   20.0930 C   0  0  0  0  0  0  0  0  0  0  0  0
    7.1937  -13.8439   18.6598 C   0  0  0  0  0  0  0  0  0  0  0  0
    7.7195  -12.6914   18.0988 C   0  0  0  0  0  0  0  0  0  0  0  0
    7.6751  -12.7649   16.7618 N   0  0  0  0  0  0  0  0  0  0  0  0
    7.1251  -13.9556   16.4683 C   0  0  0  0  0  0  0  0  0  0  0  0
    6.8310  -14.6146   17.6208 N   0  0  0  0  0  0  0  0  0  0  0  0
    8.1273  -15.2366   22.1000 C   0  0  0  0  0  0  0  0  0  0  0  0
    7.7832  -14.3653   22.9596 O   0  0  0  0  0  0  0  0  0  0  0  0
    6.8856  -16.7340   26.8478 N   0  0  0  0  0  0  0  0  0  0  0  0
    7.0549  -17.7774   25.8784 C   0  0  0  0  0  0  0  0  0  0  0  0
    7.1385  -18.9477   26.3186 O   0  0  0  0  0  0  0  0  0  0  0  0
    7.1168  -17.3974   24.4534 C   0  0  0  0  0  0  0  0  0  0  0  0
    8.4514  -16.8181   24.0426 C   0  0  2  0  0  0  0  0  0  0  0  0
    8.3939  -16.5413   22.6098 N   0  0  0  0  0  0  0  0  0  0  0  0
    9.5976  -17.6544   24.4305 C   0  0  0  0  0  0  0  0  0  0  0  0
    9.6611  -18.8686   24.1167 O   0  0  0  0  0  0  0  0  0  0  0  0
   10.7166  -17.1635   25.1859 N   0  0  0  0  0  0  0  0  0  0  0  0
   11.7991  -18.0337   25.5753 C   0  0  1  0  0  0  0  0  0  0  0  0
   13.1689  -17.5310   25.3434 C   0  0  0  0  0  0  0  0  0  0  0  0
   13.4839  -17.0145   23.9841 C   0  0  0  0  0  0  0  0  0  0  0  0
   14.7955  -16.3998   23.8069 C   0  0  0  0  0  0  0  0  0  0  0  0
   15.5914  -16.2219   24.7502 O   0  0  0  0  0  0  0  0  0  0  0  0
   11.6635  -18.2878   27.0618 C   0  0  0  0  0  0  0  0  0  0  0  0
   12.4840  -19.1873   27.7152 O   0  0  0  0  0  0  0  0  0  0  0  0
   15.1808  -15.9918   22.5322 O   0  0  0  0  0  0  0  0  0  0  0  0
   10.7788  -17.6490   27.6693 O   0  0  0  0  0  0  0  0  0  0  0  0
  2  1  1  6
  2  9  1  0
  3  2  1  0
  3  4  1  0
  4  5  2  0
  5  6  1  0
  7  6  1  0
  8  4  1  0
  8  7  2  0
  9 16  1  0
  9 10  2  0
 11 12  1  0
 12 13  2  0
 15 14  1  6
 14 12  1  0
 15 17  1  0
 16 15  1  0
 17 19  1  0
 18 17  2  0
 19 20  1  0
 20 21  1  1
 20 25  1  0
 21 22  1  0
 22 23  1  0
 23 24  2  0
 25 28  2  0
 25 26  1  0
 27 23  1  0
M  END
$$$$
