HNE.pdb
     RDKit          3D

 28 28  0  0  1  0  0  0  0  0999 V2000
    8.1299  -16.0976   19.1012 N   0  0  0  0  0  0  0  0  0  0  0  0
    8.3208  -14.7828   19.6909 C   0  0  1  0  0  0  0  0  0  0  0  0
    7.4133  -13.7643   19.0865 C   0  0  0  0  0  0  0  0  0  0  0  0
    7.4647  -13.7047   17.6061 C   0  0  0  0  0  0  0  0  0  0  0  0
    8.0203  -12.7267   16.7971 C   0  0  0  0  0  0  0  0  0  0  0  0
    7.8583  -13.0460   15.5061 N   0  0  0  0  0  0  0  0  0  0  0  0
    7.2038  -14.2198   15.4879 C   0  0  0  0  0  0  0  0  0  0  0  0
    6.9629  -14.6234   16.7639 N   0  0  0  0  0  0  0  0  0  0  0  0
    8.3106  -14.8657   21.1533 C   0  0  0  0  0  0  0  0  0  0  0  0
    8.5090  -13.8268   21.8590 O   0  0  0  0  0  0  0  0  0  0  0  0
    6.7246  -15.7786   26.3002 N   0  0  0  0  0  0  0  0  0  0  0  0
    7.0854  -16.8345   25.3992 C   0  0  0  0  0  0  0  0  0  0  0  0
    7.4645  -17.9114   25.9157 O   0  0  0  0  0  0  0  0  0  0  0  0
    6.9837  -16.5751   23.9496 C   0  0  0  0  0  0  0  0  0  0  0  0
    8.2952  -16.1674   23.3178 C   0  0  2  0  0  0  0  0  0  0  0  0
    8.0840  -16.0740   21.8757 N   0  0  0  0  0  0  0  0  0  0  0  0
    9.4202  -17.0398   23.6881 C   0  0  0  0  0  0  0  0  0  0  0  0
    9.5051  -18.2185   23.2636 O   0  0  0  0  0  0  0  0  0  0  0  0
   10.4932  -16.6261   24.5490 N   0  0  0  0  0  0  0  0  0  0  0  0
   11.7515  -17.3310   24.5718 C   0  0  1  0  0  0  0  0  0  0  0  0
   12.9459  -16.5671   24.1562 C   0  0  0  0  0  0  0  0  0  0  0  0
   14.2489  -17.2854   24.1593 C   0  0  0  0  0  0  0  0  0  0  0  0
   15.4220  -16.5118   23.7658 C   0  0  0  0  0  0  0  0  0  0  0  0
   16.4848  -16.5167   24.4182 O   0  0  0  0  0  0  0  0  0  0  0  0
   11.9886  -17.7884   25.9957 C   0  0  0  0  0  0  0  0  0  0  0  0
   12.9274  -18.7577   26.2924 O   0  0  0  0  0  0  0  0  0  0  0  0
   15.3584  -15.7320   22.6136 O   0  0  0  0  0  0  0  0  0  0  0  0
   11.2989  -17.2512   26.8876 O   0  0  0  0  0  0  0  0  0  0  0  0
  2  1  1  6
  2  9  1  0
  3  2  1  0
  3  4  1  0
  4  5  2  0
  5  6  1  0
  7  6  1  0
  8  4  1  0
  8  7  2  0
  9 16  1  0
  9 10  2  0
 11 12  1  0
 12 13  2  0
 15 14  1  1
 14 12  1  0
 15 17  1  0
 16 15  1  0
 17 19  1  0
 18 17  2  0
 19 20  1  0
 20 21  1  1
 20 25  1  0
 21 22  1  0
 22 23  1  0
 23 24  2  0
 25 28  2  0
 25 26  1  0
 27 23  1  0
M  END
$$$$
