HNE.pdb
     RDKit          3D

 28 28  0  0  1  0  0  0  0  0999 V2000
    6.5605  -13.5313   21.8090 N   0  0  0  0  0  0  0  0  0  0  0  0
    7.0190  -14.9024   21.6577 C   0  0  1  0  0  0  0  0  0  0  0  0
    8.2652  -14.9859   20.8415 C   0  0  0  0  0  0  0  0  0  0  0  0
    8.1376  -14.4238   19.4756 C   0  0  0  0  0  0  0  0  0  0  0  0
    7.4047  -13.3256   19.0556 C   0  0  0  0  0  0  0  0  0  0  0  0
    7.5540  -13.1459   17.7364 N   0  0  0  0  0  0  0  0  0  0  0  0
    8.3764  -14.1215   17.3142 C   0  0  0  0  0  0  0  0  0  0  0  0
    8.7333  -14.9008   18.3699 N   0  0  0  0  0  0  0  0  0  0  0  0
    7.0533  -15.5822   22.9546 C   0  0  0  0  0  0  0  0  0  0  0  0
    7.2990  -14.9298   24.0179 O   0  0  0  0  0  0  0  0  0  0  0  0
    6.5863  -20.9424   24.6705 N   0  0  0  0  0  0  0  0  0  0  0  0
    6.0230  -19.9025   23.8590 C   0  0  0  0  0  0  0  0  0  0  0  0
    5.8267  -20.1737   22.6515 O   0  0  0  0  0  0  0  0  0  0  0  0
    5.7212  -18.6079   24.5008 C   0  0  0  0  0  0  0  0  0  0  0  0
    6.8648  -17.6216   24.4329 C   0  0  2  0  0  0  0  0  0  0  0  0
    6.8207  -16.9790   23.1221 N   0  0  0  0  0  0  0  0  0  0  0  0
    8.1723  -18.2178   24.7474 C   0  0  0  0  0  0  0  0  0  0  0  0
    8.4844  -19.3662   24.3464 O   0  0  0  0  0  0  0  0  0  0  0  0
    9.1805  -17.5514   25.5240 N   0  0  0  0  0  0  0  0  0  0  0  0
   10.4217  -18.2044   25.8614 C   0  0  1  0  0  0  0  0  0  0  0  0
   11.6643  -17.4913   25.5008 C   0  0  0  0  0  0  0  0  0  0  0  0
   12.1122  -17.5768   24.0845 C   0  0  0  0  0  0  0  0  0  0  0  0
   12.8097  -16.4123   23.5487 C   0  0  0  0  0  0  0  0  0  0  0  0
   13.9291  -16.0471   23.9593 O   0  0  0  0  0  0  0  0  0  0  0  0
   10.4383  -18.3968   27.3633 C   0  0  0  0  0  0  0  0  0  0  0  0
    9.4247  -17.9036   28.1624 O   0  0  0  0  0  0  0  0  0  0  0  0
   12.2046  -15.6726   22.5357 O   0  0  0  0  0  0  0  0  0  0  0  0
   11.4070  -19.0200   27.8458 O   0  0  0  0  0  0  0  0  0  0  0  0
  2  1  1  1
  2  9  1  0
  3  2  1  0
  3  4  1  0
  4  5  2  0
  5  6  1  0
  7  6  1  0
  8  4  1  0
  8  7  2  0
  9 16  1  0
  9 10  2  0
 11 12  1  0
 12 13  2  0
 15 14  1  6
 14 12  1  0
 15 17  1  0
 16 15  1  0
 17 19  1  0
 18 17  2  0
 19 20  1  0
 20 21  1  1
 20 25  1  0
 21 22  1  0
 22 23  1  0
 23 24  2  0
 25 28  2  0
 25 26  1  0
 27 23  1  0
M  END
$$$$
