HNE.pdb
     RDKit          3D

 28 28  0  0  1  0  0  0  0  0999 V2000
    8.8466  -16.4396   21.1618 N   0  0  0  0  0  0  0  0  0  0  0  0
    7.9410  -15.6364   21.9667 C   0  0  1  0  0  0  0  0  0  0  0  0
    6.8696  -15.0081   21.1400 C   0  0  0  0  0  0  0  0  0  0  0  0
    7.3728  -14.1523   20.0389 C   0  0  0  0  0  0  0  0  0  0  0  0
    8.6838  -13.8683   19.6922 C   0  0  0  0  0  0  0  0  0  0  0  0
    8.7159  -13.0501   18.6318 N   0  0  0  0  0  0  0  0  0  0  0  0
    7.4351  -12.8117   18.3014 C   0  0  0  0  0  0  0  0  0  0  0  0
    6.6154  -13.4808   19.1555 N   0  0  0  0  0  0  0  0  0  0  0  0
    7.4900  -16.3864   23.1413 C   0  0  0  0  0  0  0  0  0  0  0  0
    6.7717  -15.8250   24.0276 O   0  0  0  0  0  0  0  0  0  0  0  0
    6.8574  -22.0037   25.3722 N   0  0  0  0  0  0  0  0  0  0  0  0
    6.5728  -20.6012   25.4666 C   0  0  0  0  0  0  0  0  0  0  0  0
    6.1107  -20.1918   26.5571 O   0  0  0  0  0  0  0  0  0  0  0  0
    6.8429  -19.7572   24.2860 C   0  0  0  0  0  0  0  0  0  0  0  0
    7.4754  -18.4276   24.6289 C   0  0  2  0  0  0  0  0  0  0  0  0
    7.8077  -17.7567   23.3750 N   0  0  0  0  0  0  0  0  0  0  0  0
    8.6163  -18.5418   25.5505 C   0  0  0  0  0  0  0  0  0  0  0  0
    9.7261  -18.9893   25.1699 O   0  0  0  0  0  0  0  0  0  0  0  0
    8.5580  -18.1601   26.9342 N   0  0  0  0  0  0  0  0  0  0  0  0
    9.7195  -17.6517   27.6221 C   0  0  1  0  0  0  0  0  0  0  0  0
    9.5361  -16.4113   28.4033 C   0  0  0  0  0  0  0  0  0  0  0  0
   10.7102  -15.9061   29.1649 C   0  0  0  0  0  0  0  0  0  0  0  0
   10.5162  -14.6740   29.9225 C   0  0  0  0  0  0  0  0  0  0  0  0
   10.4981  -14.6428   31.1690 O   0  0  0  0  0  0  0  0  0  0  0  0
   10.1783  -18.7232   28.5887 C   0  0  0  0  0  0  0  0  0  0  0  0
   11.4713  -18.7464   29.0753 O   0  0  0  0  0  0  0  0  0  0  0  0
   10.3430  -13.4782   29.2297 O   0  0  0  0  0  0  0  0  0  0  0  0
    9.3373  -19.5827   28.9256 O   0  0  0  0  0  0  0  0  0  0  0  0
  2  1  1  6
  2  9  1  0
  3  2  1  0
  3  4  1  0
  4  5  2  0
  5  6  1  0
  7  6  1  0
  8  4  1  0
  8  7  2  0
  9 16  1  0
  9 10  2  0
 11 12  1  0
 12 13  2  0
 15 14  1  6
 14 12  1  0
 15 17  1  0
 16 15  1  0
 17 19  1  0
 18 17  2  0
 19 20  1  0
 20 21  1  1
 20 25  1  0
 21 22  1  0
 22 23  1  0
 23 24  2  0
 25 28  2  0
 25 26  1  0
 27 23  1  0
M  END
$$$$
