HNE.pdb
     RDKit          3D

 28 28  0  0  1  0  0  0  0  0999 V2000
    7.8263  -13.0637   18.0701 N   0  0  0  0  0  0  0  0  0  0  0  0
    8.5321  -14.2843   18.4236 C   0  0  1  0  0  0  0  0  0  0  0  0
    9.6136  -14.6049   17.4472 C   0  0  0  0  0  0  0  0  0  0  0  0
    9.1318  -14.8748   16.0713 C   0  0  0  0  0  0  0  0  0  0  0  0
    8.0320  -14.3421   15.4184 C   0  0  0  0  0  0  0  0  0  0  0  0
    7.9403  -14.8443   14.1797 N   0  0  0  0  0  0  0  0  0  0  0  0
    8.9736  -15.6923   14.0399 C   0  0  0  0  0  0  0  0  0  0  0  0
    9.7005  -15.7132   15.1889 N   0  0  0  0  0  0  0  0  0  0  0  0
    8.9251  -14.2641   19.8345 C   0  0  0  0  0  0  0  0  0  0  0  0
   10.1483  -14.1465   20.1611 O   0  0  0  0  0  0  0  0  0  0  0  0
    7.4103  -12.9012   25.3581 N   0  0  0  0  0  0  0  0  0  0  0  0
    7.5280  -14.1251   24.6196 C   0  0  0  0  0  0  0  0  0  0  0  0
    7.8752  -15.1416   25.2648 O   0  0  0  0  0  0  0  0  0  0  0  0
    7.2344  -14.0940   23.1733 C   0  0  0  0  0  0  0  0  0  0  0  0
    8.4358  -14.4013   22.3087 C   0  0  2  0  0  0  0  0  0  0  0  0
    8.0006  -14.3693   20.9150 N   0  0  0  0  0  0  0  0  0  0  0  0
    9.1199  -15.6500   22.6785 C   0  0  0  0  0  0  0  0  0  0  0  0
    8.6649  -16.7720   22.3455 O   0  0  0  0  0  0  0  0  0  0  0  0
   10.3394  -15.6904   23.4366 N   0  0  0  0  0  0  0  0  0  0  0  0
   10.9956  -16.9394   23.7368 C   0  0  1  0  0  0  0  0  0  0  0  0
   12.3946  -17.0782   23.2828 C   0  0  0  0  0  0  0  0  0  0  0  0
   13.3361  -15.9802   23.6321 C   0  0  0  0  0  0  0  0  0  0  0  0
   14.6920  -16.0899   23.1039 C   0  0  0  0  0  0  0  0  0  0  0  0
   15.5735  -16.7871   23.6443 O   0  0  0  0  0  0  0  0  0  0  0  0
   10.9979  -17.0993   25.2425 C   0  0  0  0  0  0  0  0  0  0  0  0
   11.5002  -18.2374   25.8438 O   0  0  0  0  0  0  0  0  0  0  0  0
   15.0224  -15.3881   21.9471 O   0  0  0  0  0  0  0  0  0  0  0  0
   10.5265  -16.1583   25.9148 O   0  0  0  0  0  0  0  0  0  0  0  0
  2  1  1  6
  2  9  1  0
  3  2  1  0
  3  4  1  0
  4  5  2  0
  5  6  1  0
  7  6  1  0
  8  4  1  0
  8  7  2  0
  9 16  1  0
  9 10  2  0
 11 12  1  0
 12 13  2  0
 15 14  1  1
 14 12  1  0
 15 17  1  0
 16 15  1  0
 17 19  1  0
 18 17  2  0
 19 20  1  0
 20 21  1  1
 20 25  1  0
 21 22  1  0
 22 23  1  0
 23 24  2  0
 25 28  2  0
 25 26  1  0
 27 23  1  0
M  END
$$$$
