HNE.pdb
     RDKit          3D

 28 28  0  0  1  0  0  0  0  0999 V2000
    8.1826  -16.5630   18.2931 N   0  0  0  0  0  0  0  0  0  0  0  0
    9.1817  -15.5954   18.7158 C   0  0  1  0  0  0  0  0  0  0  0  0
    9.0067  -14.2801   18.0336 C   0  0  0  0  0  0  0  0  0  0  0  0
    8.6688  -14.3809   16.5936 C   0  0  0  0  0  0  0  0  0  0  0  0
    8.4810  -15.5185   15.8254 C   0  0  0  0  0  0  0  0  0  0  0  0
    8.1874  -15.1814   14.5623 N   0  0  0  0  0  0  0  0  0  0  0  0
    8.1869  -13.8380   14.5217 C   0  0  0  0  0  0  0  0  0  0  0  0
    8.4794  -13.3478   15.7558 N   0  0  0  0  0  0  0  0  0  0  0  0
    9.2759  -15.5542   20.1769 C   0  0  0  0  0  0  0  0  0  0  0  0
   10.2032  -14.8952   20.7446 O   0  0  0  0  0  0  0  0  0  0  0  0
    6.6201  -13.7856   22.6625 N   0  0  0  0  0  0  0  0  0  0  0  0
    6.3110  -15.1770   22.5021 C   0  0  0  0  0  0  0  0  0  0  0  0
    5.2970  -15.4542   21.8202 O   0  0  0  0  0  0  0  0  0  0  0  0
    7.2006  -16.1641   23.1449 C   0  0  0  0  0  0  0  0  0  0  0  0
    8.5618  -16.2607   22.4945 C   0  0  2  0  0  0  0  0  0  0  0  0
    8.3669  -16.2243   21.0475 N   0  0  0  0  0  0  0  0  0  0  0  0
    9.3477  -17.4182   22.9490 C   0  0  0  0  0  0  0  0  0  0  0  0
    8.9829  -18.5954   22.7086 O   0  0  0  0  0  0  0  0  0  0  0  0
   10.5720  -17.3019   23.6914 N   0  0  0  0  0  0  0  0  0  0  0  0
   11.6322  -18.2694   23.5470 C   0  0  1  0  0  0  0  0  0  0  0  0
   12.6117  -18.0223   22.4691 C   0  0  0  0  0  0  0  0  0  0  0  0
   13.6728  -19.0452   22.2653 C   0  0  0  0  0  0  0  0  0  0  0  0
   14.6642  -18.7610   21.2329 C   0  0  0  0  0  0  0  0  0  0  0  0
   14.4117  -18.0715   20.2250 O   0  0  0  0  0  0  0  0  0  0  0  0
   12.4018  -18.2957   24.8508 C   0  0  0  0  0  0  0  0  0  0  0  0
   13.2116  -19.3640   25.1860 O   0  0  0  0  0  0  0  0  0  0  0  0
   15.9493  -19.2793   21.3729 O   0  0  0  0  0  0  0  0  0  0  0  0
   12.2719  -17.3108   25.6076 O   0  0  0  0  0  0  0  0  0  0  0  0
  2  1  1  1
  2  9  1  0
  3  2  1  0
  3  4  1  0
  4  5  2  0
  5  6  1  0
  7  6  1  0
  8  4  1  0
  8  7  2  0
  9 16  1  0
  9 10  2  0
 11 12  1  0
 12 13  2  0
 15 14  1  1
 14 12  1  0
 15 17  1  0
 16 15  1  0
 17 19  1  0
 18 17  2  0
 19 20  1  0
 20 21  1  6
 20 25  1  0
 21 22  1  0
 22 23  1  0
 23 24  2  0
 25 28  2  0
 25 26  1  0
 27 23  1  0
M  END
$$$$
