HNE.pdb
     RDKit          3D

 28 28  0  0  1  0  0  0  0  0999 V2000
    5.5993  -15.5279   20.6738 N   0  0  0  0  0  0  0  0  0  0  0  0
    6.9677  -15.5045   21.1638 C   0  0  1  0  0  0  0  0  0  0  0  0
    7.5666  -14.1406   21.0780 C   0  0  0  0  0  0  0  0  0  0  0  0
    7.8089  -13.6676   19.6940 C   0  0  0  0  0  0  0  0  0  0  0  0
    7.6267  -14.3487   18.5013 C   0  0  0  0  0  0  0  0  0  0  0  0
    7.9613  -13.5672   17.4657 N   0  0  0  0  0  0  0  0  0  0  0  0
    8.3549  -12.3943   17.9909 C   0  0  0  0  0  0  0  0  0  0  0  0
    8.2634  -12.4520   19.3464 N   0  0  0  0  0  0  0  0  0  0  0  0
    7.0617  -16.1670   22.4667 C   0  0  0  0  0  0  0  0  0  0  0  0
    6.4191  -15.7160   23.4668 O   0  0  0  0  0  0  0  0  0  0  0  0
    6.1344  -20.4104   22.3688 N   0  0  0  0  0  0  0  0  0  0  0  0
    6.3886  -19.7517   23.6171 C   0  0  0  0  0  0  0  0  0  0  0  0
    5.3966  -19.5304   24.3500 O   0  0  0  0  0  0  0  0  0  0  0  0
    7.7828  -19.3892   23.9393 C   0  0  0  0  0  0  0  0  0  0  0  0
    8.0079  -17.8979   24.0442 C   0  0  2  0  0  0  0  0  0  0  0  0
    7.8514  -17.3295   22.7080 N   0  0  0  0  0  0  0  0  0  0  0  0
    9.2831  -17.5414   24.6850 C   0  0  0  0  0  0  0  0  0  0  0  0
   10.3633  -17.5435   24.0448 O   0  0  0  0  0  0  0  0  0  0  0  0
    9.3979  -17.1698   26.0679 N   0  0  0  0  0  0  0  0  0  0  0  0
   10.6589  -16.7528   26.6308 C   0  0  1  0  0  0  0  0  0  0  0  0
   10.5990  -15.7795   27.7405 C   0  0  0  0  0  0  0  0  0  0  0  0
   10.6340  -16.3225   29.1254 C   0  0  0  0  0  0  0  0  0  0  0  0
   10.4191  -15.3668   30.2071 C   0  0  0  0  0  0  0  0  0  0  0  0
   10.0958  -14.1794   30.0055 O   0  0  0  0  0  0  0  0  0  0  0  0
   11.3495  -17.9915   27.1614 C   0  0  0  0  0  0  0  0  0  0  0  0
   10.6623  -19.1768   27.3402 O   0  0  0  0  0  0  0  0  0  0  0  0
   10.5806  -15.7926   31.5233 O   0  0  0  0  0  0  0  0  0  0  0  0
   12.5653  -17.8937   27.4295 O   0  0  0  0  0  0  0  0  0  0  0  0
  2  1  1  1
  2  9  1  0
  3  2  1  0
  3  4  1  0
  4  5  2  0
  5  6  1  0
  7  6  1  0
  8  4  1  0
  8  7  2  0
  9 16  1  0
  9 10  2  0
 11 12  1  0
 12 13  2  0
 15 14  1  6
 14 12  1  0
 15 17  1  0
 16 15  1  0
 17 19  1  0
 18 17  2  0
 19 20  1  0
 20 21  1  1
 20 25  1  0
 21 22  1  0
 22 23  1  0
 23 24  2  0
 25 28  2  0
 25 26  1  0
 27 23  1  0
M  END
$$$$
