HNE.pdb
     RDKit          3D

 28 28  0  0  1  0  0  0  0  0999 V2000
   10.9366  -16.5317   14.9565 N   0  0  0  0  0  0  0  0  0  0  0  0
   12.1532  -16.0792   15.6109 C   0  0  1  0  0  0  0  0  0  0  0  0
   12.9906  -15.2364   14.7084 C   0  0  0  0  0  0  0  0  0  0  0  0
   13.3749  -15.8991   13.4392 C   0  0  0  0  0  0  0  0  0  0  0  0
   12.7709  -15.8063   12.1958 C   0  0  0  0  0  0  0  0  0  0  0  0
   13.4258  -16.5627   11.3048 N   0  0  0  0  0  0  0  0  0  0  0  0
   14.4419  -17.1359   11.9722 C   0  0  0  0  0  0  0  0  0  0  0  0
   14.4139  -16.7343   13.2710 N   0  0  0  0  0  0  0  0  0  0  0  0
   11.8515  -15.5091   16.9260 C   0  0  0  0  0  0  0  0  0  0  0  0
   12.7829  -15.0440   17.6558 O   0  0  0  0  0  0  0  0  0  0  0  0
    9.2208  -12.4343   19.0119 N   0  0  0  0  0  0  0  0  0  0  0  0
    8.2741  -13.5100   19.0722 C   0  0  0  0  0  0  0  0  0  0  0  0
    7.0649  -13.1927   19.1584 O   0  0  0  0  0  0  0  0  0  0  0  0
    8.7905  -14.8922   19.0287 C   0  0  0  0  0  0  0  0  0  0  0  0
   10.2878  -14.9693   18.8348 C   0  0  2  0  0  0  0  0  0  0  0  0
   10.5365  -15.4316   17.4719 N   0  0  0  0  0  0  0  0  0  0  0  0
   10.9705  -15.7751   19.8587 C   0  0  0  0  0  0  0  0  0  0  0  0
   10.9901  -17.0294   19.8025 O   0  0  0  0  0  0  0  0  0  0  0  0
   11.6569  -15.2073   20.9857 N   0  0  0  0  0  0  0  0  0  0  0  0
   12.3670  -16.0371   21.9280 C   0  0  1  0  0  0  0  0  0  0  0  0
   13.8425  -15.9953   21.8665 C   0  0  0  0  0  0  0  0  0  0  0  0
   14.4784  -14.6650   21.6666 C   0  0  0  0  0  0  0  0  0  0  0  0
   15.9100  -14.6615   21.3839 C   0  0  0  0  0  0  0  0  0  0  0  0
   16.7050  -13.8719   21.9313 O   0  0  0  0  0  0  0  0  0  0  0  0
   11.9661  -15.5891   23.3178 C   0  0  0  0  0  0  0  0  0  0  0  0
   11.1058  -14.5250   23.5097 O   0  0  0  0  0  0  0  0  0  0  0  0
   16.4166  -15.5763   20.4641 O   0  0  0  0  0  0  0  0  0  0  0  0
   12.4469  -16.2232   24.2803 O   0  0  0  0  0  0  0  0  0  0  0  0
  2  1  1  6
  2  9  1  0
  3  2  1  0
  3  4  1  0
  4  5  2  0
  5  6  1  0
  7  6  1  0
  8  4  1  0
  8  7  2  0
  9 16  1  0
  9 10  2  0
 11 12  1  0
 12 13  2  0
 15 14  1  1
 14 12  1  0
 15 17  1  0
 16 15  1  0
 17 19  1  0
 18 17  2  0
 19 20  1  0
 20 21  1  1
 20 25  1  0
 21 22  1  0
 22 23  1  0
 23 24  2  0
 25 28  2  0
 25 26  1  0
 27 23  1  0
M  END
$$$$
