HNE.pdb
     RDKit          3D

 28 28  0  0  1  0  0  0  0  0999 V2000
    6.7488  -14.9373   21.6494 N   0  0  0  0  0  0  0  0  0  0  0  0
    8.1030  -14.5617   22.0210 C   0  0  1  0  0  0  0  0  0  0  0  0
    8.3858  -14.8477   23.4578 C   0  0  0  0  0  0  0  0  0  0  0  0
    7.4300  -14.2223   24.4029 C   0  0  0  0  0  0  0  0  0  0  0  0
    6.7633  -13.0132   24.2877 C   0  0  0  0  0  0  0  0  0  0  0  0
    5.9863  -12.8085   25.3598 N   0  0  0  0  0  0  0  0  0  0  0  0
    6.1539  -13.8783   26.1560 C   0  0  0  0  0  0  0  0  0  0  0  0
    7.0316  -14.7404   25.5768 N   0  0  0  0  0  0  0  0  0  0  0  0
    9.0698  -15.0932   21.0575 C   0  0  0  0  0  0  0  0  0  0  0  0
    8.8603  -16.2075   20.4822 O   0  0  0  0  0  0  0  0  0  0  0  0
   12.6763  -14.3458   16.8555 N   0  0  0  0  0  0  0  0  0  0  0  0
   13.0836  -14.2584   18.2279 C   0  0  0  0  0  0  0  0  0  0  0  0
   14.2761  -14.5479   18.4815 O   0  0  0  0  0  0  0  0  0  0  0  0
   12.0789  -13.8390   19.2247 C   0  0  0  0  0  0  0  0  0  0  0  0
   11.2006  -14.9710   19.7068 C   0  0  2  0  0  0  0  0  0  0  0  0
   10.2784  -14.4265   20.6997 N   0  0  0  0  0  0  0  0  0  0  0  0
   11.9583  -16.1355   20.1901 C   0  0  0  0  0  0  0  0  0  0  0  0
   12.3039  -17.0619   19.4161 O   0  0  0  0  0  0  0  0  0  0  0  0
   12.3574  -16.3080   21.5593 N   0  0  0  0  0  0  0  0  0  0  0  0
   13.0073  -17.5162   22.0051 C   0  0  1  0  0  0  0  0  0  0  0  0
   14.1032  -17.3565   22.9829 C   0  0  0  0  0  0  0  0  0  0  0  0
   14.1197  -16.1061   23.7892 C   0  0  0  0  0  0  0  0  0  0  0  0
   15.1205  -15.1081   23.4261 C   0  0  0  0  0  0  0  0  0  0  0  0
   14.9887  -13.8947   23.6817 O   0  0  0  0  0  0  0  0  0  0  0  0
   11.9515  -18.3840   22.6572 C   0  0  0  0  0  0  0  0  0  0  0  0
   12.1433  -19.7414   22.8304 O   0  0  0  0  0  0  0  0  0  0  0  0
   16.2746  -15.5218   22.7652 O   0  0  0  0  0  0  0  0  0  0  0  0
   10.9022  -17.8189   23.0305 O   0  0  0  0  0  0  0  0  0  0  0  0
  2  1  1  6
  2  9  1  0
  3  2  1  0
  3  4  1  0
  4  5  2  0
  5  6  1  0
  7  6  1  0
  8  4  1  0
  8  7  2  0
  9 16  1  0
  9 10  2  0
 11 12  1  0
 12 13  2  0
 15 14  1  1
 14 12  1  0
 15 17  1  0
 16 15  1  0
 17 19  1  0
 18 17  2  0
 19 20  1  0
 20 21  1  1
 20 25  1  0
 21 22  1  0
 22 23  1  0
 23 24  2  0
 25 28  2  0
 25 26  1  0
 27 23  1  0
M  END
$$$$
