HNE.pdb
     RDKit          3D

 28 28  0  0  1  0  0  0  0  0999 V2000
   11.5680  -14.2089   18.8012 N   0  0  0  0  0  0  0  0  0  0  0  0
   12.4057  -14.9631   19.7190 C   0  0  1  0  0  0  0  0  0  0  0  0
   13.4839  -14.1186   20.3109 C   0  0  0  0  0  0  0  0  0  0  0  0
   14.5636  -13.7559   19.3619 C   0  0  0  0  0  0  0  0  0  0  0  0
   14.6929  -14.0967   18.0252 C   0  0  0  0  0  0  0  0  0  0  0  0
   15.8153  -13.5686   17.5188 N   0  0  0  0  0  0  0  0  0  0  0  0
   16.4008  -12.8946   18.5234 C   0  0  0  0  0  0  0  0  0  0  0  0
   15.6419  -13.0065   19.6461 N   0  0  0  0  0  0  0  0  0  0  0  0
   11.5837  -15.7155   20.6697 C   0  0  0  0  0  0  0  0  0  0  0  0
   10.6085  -15.1554   21.2628 O   0  0  0  0  0  0  0  0  0  0  0  0
    9.7946  -21.2655   22.2592 N   0  0  0  0  0  0  0  0  0  0  0  0
    9.6807  -19.8406   22.3763 C   0  0  0  0  0  0  0  0  0  0  0  0
    8.9542  -19.4073   23.3008 O   0  0  0  0  0  0  0  0  0  0  0  0
   10.4192  -19.0036   21.4104 C   0  0  0  0  0  0  0  0  0  0  0  0
   11.0375  -17.7717   22.0312 C   0  0  2  0  0  0  0  0  0  0  0  0
   11.8030  -17.0869   20.9929 N   0  0  0  0  0  0  0  0  0  0  0  0
   11.8216  -18.0567   23.2428 C   0  0  0  0  0  0  0  0  0  0  0  0
   13.0764  -18.0980   23.2189 O   0  0  0  0  0  0  0  0  0  0  0  0
   11.2305  -18.3076   24.5279 N   0  0  0  0  0  0  0  0  0  0  0  0
   12.0435  -18.5847   25.6868 C   0  0  1  0  0  0  0  0  0  0  0  0
   12.0910  -17.5377   26.7279 C   0  0  0  0  0  0  0  0  0  0  0  0
   11.1780  -17.6931   27.8924 C   0  0  0  0  0  0  0  0  0  0  0  0
   10.8795  -16.4847   28.6541 C   0  0  0  0  0  0  0  0  0  0  0  0
   11.3005  -15.3577   28.3258 O   0  0  0  0  0  0  0  0  0  0  0  0
   11.4922  -19.8357   26.3379 C   0  0  0  0  0  0  0  0  0  0  0  0
   10.2997  -20.3965   25.9224 O   0  0  0  0  0  0  0  0  0  0  0  0
   10.0916  -16.5875   29.7979 O   0  0  0  0  0  0  0  0  0  0  0  0
   12.1625  -20.3366   27.2650 O   0  0  0  0  0  0  0  0  0  0  0  0
  2  1  1  1
  2  9  1  0
  3  2  1  0
  3  4  1  0
  4  5  2  0
  5  6  1  0
  7  6  1  0
  8  4  1  0
  8  7  2  0
  9 16  1  0
  9 10  2  0
 11 12  1  0
 12 13  2  0
 15 14  1  6
 14 12  1  0
 15 17  1  0
 16 15  1  0
 17 19  1  0
 18 17  2  0
 19 20  1  0
 20 21  1  1
 20 25  1  0
 21 22  1  0
 22 23  1  0
 23 24  2  0
 25 28  2  0
 25 26  1  0
 27 23  1  0
M  END
$$$$
