TIE.pdb
     RDKit          3D

 25 24  0  0  1  0  0  0  0  0999 V2000
    6.6524  -16.8750   21.3987 C   0  0  0  0  0  0  0  0  0  0  0  0
    7.3290  -15.8641   20.5339 C   0  0  1  0  0  0  0  0  0  0  0  0
    6.8646  -15.8874   19.2149 O   0  0  0  0  0  0  0  0  0  0  0  0
    7.1097  -14.4325   21.0394 C   0  0  2  0  0  0  0  0  0  0  0  0
    7.6703  -13.5672   20.0044 N   0  0  0  0  0  0  0  0  0  0  0  0
    7.9081  -14.3261   22.2898 C   0  0  0  0  0  0  0  0  0  0  0  0
    9.1446  -14.1445   22.1802 O   0  0  0  0  0  0  0  0  0  0  0  0
    5.9160  -11.3372   26.1217 C   0  0  0  0  0  0  0  0  0  0  0  0
    6.8112  -12.1100   25.2283 C   0  0  0  0  0  0  0  0  0  0  0  0
    7.3429  -13.3927   25.7197 C   0  0  2  0  0  0  0  0  0  0  0  0
    7.8321  -13.3362   27.1574 C   0  0  0  0  0  0  0  0  0  0  0  0
    8.1726  -14.2366   24.8146 C   0  0  2  0  0  0  0  0  0  0  0  0
    7.3571  -14.4173   23.5767 N   0  0  0  0  0  0  0  0  0  0  0  0
    8.6475  -15.5272   25.2757 C   0  0  0  0  0  0  0  0  0  0  0  0
    7.7962  -16.4450   25.6119 O   0  0  0  0  0  0  0  0  0  0  0  0
    9.9899  -15.9709   25.4159 N   0  0  0  0  0  0  0  0  0  0  0  0
   10.3155  -17.3008   25.9429 C   0  0  1  0  0  0  0  0  0  0  0  0
   11.6214  -17.7562   25.3100 C   0  0  0  0  0  0  0  0  0  0  0  0
   11.6510  -17.6687   23.8285 C   0  0  0  0  0  0  0  0  0  0  0  0
   13.0011  -18.1303   23.3551 C   0  0  0  0  0  0  0  0  0  0  0  0
   13.5588  -17.5337   22.4032 O   0  0  0  0  0  0  0  0  0  0  0  0
   10.3372  -17.3464   27.4097 C   0  0  0  0  0  0  0  0  0  0  0  0
   10.4457  -18.5406   28.1306 O   0  0  0  0  0  0  0  0  0  0  0  0
   13.6585  -19.1994   23.9358 O   0  0  0  0  0  0  0  0  0  0  0  0
   10.2579  -16.3111   28.1083 O   0  0  0  0  0  0  0  0  0  0  0  0
  2  1  1  1
  3  2  1  0
  4  2  1  0
  4  6  1  0
  4  5  1  6
  6 13  1  0
  6  7  2  0
  9  8  1  0
 10  9  1  0
 10 11  1  1
 12 10  1  0
 12 13  1  6
 14 16  1  0
 14 12  1  0
 15 14  2  0
 17 22  1  0
 17 16  1  0
 17 18  1  6
 18 19  1  0
 19 20  1  0
 20 21  2  0
 22 23  1  0
 24 20  1  0
 25 22  2  0
M  END
$$$$
