TIE.pdb
     RDKit          3D

 25 24  0  0  1  0  0  0  0  0999 V2000
    6.1835  -16.8359   19.8953 C   0  0  0  0  0  0  0  0  0  0  0  0
    6.9726  -16.4579   21.1045 C   0  0  1  0  0  0  0  0  0  0  0  0
    8.2451  -17.0380   21.1193 O   0  0  0  0  0  0  0  0  0  0  0  0
    7.1920  -14.9428   21.2003 C   0  0  2  0  0  0  0  0  0  0  0  0
    8.0342  -14.6013   20.0565 N   0  0  0  0  0  0  0  0  0  0  0  0
    7.9350  -14.7287   22.4709 C   0  0  0  0  0  0  0  0  0  0  0  0
    9.1882  -14.7046   22.4185 O   0  0  0  0  0  0  0  0  0  0  0  0
    5.4396  -11.5845   25.9935 C   0  0  0  0  0  0  0  0  0  0  0  0
    6.5543  -12.2137   25.2464 C   0  0  0  0  0  0  0  0  0  0  0  0
    7.1636  -13.4325   25.8057 C   0  0  2  0  0  0  0  0  0  0  0  0
    7.6013  -13.2830   27.2533 C   0  0  0  0  0  0  0  0  0  0  0  0
    8.0817  -14.2465   24.9607 C   0  0  2  0  0  0  0  0  0  0  0  0
    7.3143  -14.5534   23.7169 N   0  0  0  0  0  0  0  0  0  0  0  0
    8.6498  -15.4696   25.4947 C   0  0  0  0  0  0  0  0  0  0  0  0
    7.8830  -16.4877   25.7298 O   0  0  0  0  0  0  0  0  0  0  0  0
   10.0075  -15.7428   25.8119 N   0  0  0  0  0  0  0  0  0  0  0  0
   10.4231  -17.0183   26.4056 C   0  0  1  0  0  0  0  0  0  0  0  0
   11.7904  -17.3801   25.8460 C   0  0  0  0  0  0  0  0  0  0  0  0
   11.7530  -18.1182   24.5586 C   0  0  0  0  0  0  0  0  0  0  0  0
   13.1675  -18.4021   24.1360 C   0  0  0  0  0  0  0  0  0  0  0  0
   13.6963  -19.4967   24.4450 O   0  0  0  0  0  0  0  0  0  0  0  0
   10.3835  -17.0074   27.8728 C   0  0  0  0  0  0  0  0  0  0  0  0
   10.5003  -18.1689   28.6440 O   0  0  0  0  0  0  0  0  0  0  0  0
   13.9157  -17.4923   23.4116 O   0  0  0  0  0  0  0  0  0  0  0  0
   10.2403  -15.9497   28.5261 O   0  0  0  0  0  0  0  0  0  0  0  0
  2  1  1  6
  3  2  1  0
  4  2  1  0
  4  6  1  0
  4  5  1  6
  6 13  1  0
  6  7  2  0
  9  8  1  0
 10  9  1  0
 10 11  1  1
 12 10  1  0
 12 13  1  6
 14 16  1  0
 14 12  1  0
 15 14  2  0
 17 22  1  0
 17 16  1  0
 17 18  1  1
 18 19  1  0
 19 20  1  0
 20 21  2  0
 22 23  1  0
 24 20  1  0
 25 22  2  0
M  END
$$$$
