TIE.pdb
     RDKit          3D

 25 24  0  0  1  0  0  0  0  0999 V2000
    6.0301  -17.1542   20.2310 C   0  0  0  0  0  0  0  0  0  0  0  0
    6.8457  -16.5864   21.3445 C   0  0  1  0  0  0  0  0  0  0  0  0
    8.1339  -17.1284   21.3983 O   0  0  0  0  0  0  0  0  0  0  0  0
    7.0253  -15.0687   21.2130 C   0  0  2  0  0  0  0  0  0  0  0  0
    7.7885  -14.8753   19.9823 N   0  0  0  0  0  0  0  0  0  0  0  0
    7.8349  -14.6609   22.3922 C   0  0  0  0  0  0  0  0  0  0  0  0
    9.0834  -14.6554   22.2706 O   0  0  0  0  0  0  0  0  0  0  0  0
    7.1012  -11.4832   27.6389 C   0  0  0  0  0  0  0  0  0  0  0  0
    7.9225  -12.4285   26.8461 C   0  0  0  0  0  0  0  0  0  0  0  0
    7.3315  -13.0078   25.6277 C   0  0  2  0  0  0  0  0  0  0  0  0
    5.8579  -13.3501   25.7714 C   0  0  0  0  0  0  0  0  0  0  0  0
    8.1197  -13.9836   24.8239 C   0  0  2  0  0  0  0  0  0  0  0  0
    7.2814  -14.2846   23.6252 N   0  0  0  0  0  0  0  0  0  0  0  0
    8.5577  -15.2246   25.4338 C   0  0  0  0  0  0  0  0  0  0  0  0
    7.7366  -16.2233   25.5248 O   0  0  0  0  0  0  0  0  0  0  0  0
    9.8344  -15.5358   25.9739 N   0  0  0  0  0  0  0  0  0  0  0  0
   10.1613  -16.8786   26.4662 C   0  0  1  0  0  0  0  0  0  0  0  0
   11.2733  -17.4458   25.5973 C   0  0  0  0  0  0  0  0  0  0  0  0
   11.7945  -18.7615   26.0457 C   0  0  0  0  0  0  0  0  0  0  0  0
   13.1679  -18.9484   25.4636 C   0  0  0  0  0  0  0  0  0  0  0  0
   13.2935  -19.1621   24.2340 O   0  0  0  0  0  0  0  0  0  0  0  0
   10.4782  -16.9023   27.8991 C   0  0  0  0  0  0  0  0  0  0  0  0
   10.5938  -15.7407   28.6704 O   0  0  0  0  0  0  0  0  0  0  0  0
   14.3104  -18.8931   26.2408 O   0  0  0  0  0  0  0  0  0  0  0  0
   10.6665  -17.9720   28.5207 O   0  0  0  0  0  0  0  0  0  0  0  0
  2  1  1  6
  3  2  1  0
  4  2  1  0
  4  6  1  0
  4  5  1  6
  6 13  1  0
  6  7  2  0
  9  8  1  0
 10  9  1  0
 10 11  1  1
 12 10  1  0
 12 13  1  6
 14 16  1  0
 14 12  1  0
 15 14  2  0
 17 22  1  0
 17 16  1  0
 17 18  1  6
 18 19  1  0
 19 20  1  0
 20 21  2  0
 22 23  1  0
 24 20  1  0
 25 22  2  0
M  END
$$$$
