TIE.pdb
     RDKit          3D

 25 24  0  0  1  0  0  0  0  0999 V2000
    6.0378  -16.9973   21.8701 C   0  0  0  0  0  0  0  0  0  0  0  0
    6.7657  -16.2808   20.7819 C   0  0  1  0  0  0  0  0  0  0  0  0
    6.1723  -16.4615   19.5283 O   0  0  0  0  0  0  0  0  0  0  0  0
    6.8125  -14.7660   21.0186 C   0  0  2  0  0  0  0  0  0  0  0  0
    7.3826  -14.2016   19.7976 N   0  0  0  0  0  0  0  0  0  0  0  0
    7.7442  -14.5712   22.1616 C   0  0  0  0  0  0  0  0  0  0  0  0
    8.9756  -14.6145   21.9261 O   0  0  0  0  0  0  0  0  0  0  0  0
    6.2091  -12.9167   27.5876 C   0  0  0  0  0  0  0  0  0  0  0  0
    6.3945  -13.4772   26.2282 C   0  0  0  0  0  0  0  0  0  0  0  0
    7.5708  -13.0451   25.4542 C   0  0  2  0  0  0  0  0  0  0  0  0
    7.4250  -11.6576   24.8518 C   0  0  0  0  0  0  0  0  0  0  0  0
    8.2771  -14.0278   24.5851 C   0  0  2  0  0  0  0  0  0  0  0  0
    7.3232  -14.3432   23.4803 N   0  0  0  0  0  0  0  0  0  0  0  0
    8.7782  -15.2613   25.1606 C   0  0  0  0  0  0  0  0  0  0  0  0
    8.0143  -16.3072   25.2090 O   0  0  0  0  0  0  0  0  0  0  0  0
   10.0646  -15.5173   25.7069 N   0  0  0  0  0  0  0  0  0  0  0  0
   10.5684  -16.8820   25.8966 C   0  0  1  0  0  0  0  0  0  0  0  0
   11.8492  -17.0323   25.0901 C   0  0  0  0  0  0  0  0  0  0  0  0
   12.5598  -18.3190   25.2975 C   0  0  0  0  0  0  0  0  0  0  0  0
   13.8182  -18.3011   24.4753 C   0  0  0  0  0  0  0  0  0  0  0  0
   14.7132  -17.4614   24.7345 O   0  0  0  0  0  0  0  0  0  0  0  0
   10.7298  -17.2420   27.3103 C   0  0  0  0  0  0  0  0  0  0  0  0
   10.9569  -18.5545   27.7382 O   0  0  0  0  0  0  0  0  0  0  0  0
   14.0287  -19.1849   23.4327 O   0  0  0  0  0  0  0  0  0  0  0  0
   10.6721  -16.3891   28.2242 O   0  0  0  0  0  0  0  0  0  0  0  0
  2  1  1  1
  3  2  1  0
  4  2  1  0
  4  6  1  0
  4  5  1  6
  6 13  1  0
  6  7  2  0
  9  8  1  0
 10  9  1  0
 10 11  1  6
 12 10  1  0
 12 13  1  6
 14 16  1  0
 14 12  1  0
 15 14  2  0
 17 22  1  0
 17 16  1  0
 17 18  1  6
 18 19  1  0
 19 20  1  0
 20 21  2  0
 22 23  1  0
 24 20  1  0
 25 22  2  0
M  END
$$$$
