TIE.pdb
     RDKit          3D

 25 24  0  0  1  0  0  0  0  0999 V2000
    6.9043  -17.3162   20.0471 C   0  0  0  0  0  0  0  0  0  0  0  0
    7.5199  -16.8227   21.3140 C   0  0  1  0  0  0  0  0  0  0  0  0
    8.6612  -17.5461   21.6749 O   0  0  0  0  0  0  0  0  0  0  0  0
    7.9580  -15.3564   21.2101 C   0  0  2  0  0  0  0  0  0  0  0  0
    9.0120  -15.3388   20.1986 N   0  0  0  0  0  0  0  0  0  0  0  0
    8.5174  -15.0135   22.5450 C   0  0  0  0  0  0  0  0  0  0  0  0
    9.7323  -15.2512   22.7484 O   0  0  0  0  0  0  0  0  0  0  0  0
    6.8482  -11.2824   27.2072 C   0  0  0  0  0  0  0  0  0  0  0  0
    7.7918  -12.2996   26.6861 C   0  0  0  0  0  0  0  0  0  0  0  0
    7.4286  -13.0142   25.4503 C   0  0  2  0  0  0  0  0  0  0  0  0
    5.9671  -13.4268   25.3948 C   0  0  0  0  0  0  0  0  0  0  0  0
    8.3765  -14.0086   24.8737 C   0  0  2  0  0  0  0  0  0  0  0  0
    7.7650  -14.4424   23.5822 N   0  0  0  0  0  0  0  0  0  0  0  0
    8.7492  -15.1755   25.6504 C   0  0  0  0  0  0  0  0  0  0  0  0
    7.9729  -16.2132   25.6679 O   0  0  0  0  0  0  0  0  0  0  0  0
    9.9149  -15.3709   26.4389 N   0  0  0  0  0  0  0  0  0  0  0  0
   10.2020  -16.6520   27.0935 C   0  0  1  0  0  0  0  0  0  0  0  0
   11.3919  -17.2884   26.3915 C   0  0  0  0  0  0  0  0  0  0  0  0
   11.8858  -18.5361   27.0261 C   0  0  0  0  0  0  0  0  0  0  0  0
   13.1283  -18.9742   26.3019 C   0  0  0  0  0  0  0  0  0  0  0  0
   14.0764  -18.1658   26.1577 O   0  0  0  0  0  0  0  0  0  0  0  0
   10.3863  -16.5258   28.5441 C   0  0  0  0  0  0  0  0  0  0  0  0
   10.4637  -17.6310   29.3985 O   0  0  0  0  0  0  0  0  0  0  0  0
   13.2669  -20.2486   25.7831 O   0  0  0  0  0  0  0  0  0  0  0  0
   10.4847  -15.4126   29.1073 O   0  0  0  0  0  0  0  0  0  0  0  0
  2  1  1  6
  3  2  1  0
  4  2  1  0
  4  6  1  0
  4  5  1  6
  6 13  1  0
  6  7  2  0
  9  8  1  0
 10  9  1  0
 10 11  1  1
 12 10  1  0
 12 13  1  6
 14 16  1  0
 14 12  1  0
 15 14  2  0
 17 22  1  0
 17 16  1  0
 17 18  1  6
 18 19  1  0
 19 20  1  0
 20 21  2  0
 22 23  1  0
 24 20  1  0
 25 22  2  0
M  END
$$$$
