TIE.pdb
     RDKit          3D

 25 24  0  0  1  0  0  0  0  0999 V2000
    6.4466  -15.1635   19.1745 C   0  0  0  0  0  0  0  0  0  0  0  0
    7.1390  -15.0106   20.4878 C   0  0  1  0  0  0  0  0  0  0  0  0
    8.4063  -15.6021   20.4997 O   0  0  0  0  0  0  0  0  0  0  0  0
    7.3507  -13.5379   20.8609 C   0  0  2  0  0  0  0  0  0  0  0  0
    8.2277  -12.9990   19.8243 N   0  0  0  0  0  0  0  0  0  0  0  0
    8.0524  -13.5574   22.1723 C   0  0  0  0  0  0  0  0  0  0  0  0
    9.2892  -13.3480   22.1767 O   0  0  0  0  0  0  0  0  0  0  0  0
    5.5041  -11.1889   26.2771 C   0  0  0  0  0  0  0  0  0  0  0  0
    6.5289  -11.7272   25.3516 C   0  0  0  0  0  0  0  0  0  0  0  0
    7.0845  -13.0621   25.6322 C   0  0  2  0  0  0  0  0  0  0  0  0
    7.3527  -13.3102   27.1073 C   0  0  0  0  0  0  0  0  0  0  0  0
    8.1023  -13.6404   24.7107 C   0  0  2  0  0  0  0  0  0  0  0  0
    7.4101  -13.7958   23.3966 N   0  0  0  0  0  0  0  0  0  0  0  0
    8.7613  -14.8838   25.0622 C   0  0  0  0  0  0  0  0  0  0  0  0
    9.4326  -14.9677   26.1677 O   0  0  0  0  0  0  0  0  0  0  0  0
    8.7772  -16.1056   24.3372 N   0  0  0  0  0  0  0  0  0  0  0  0
    9.4781  -17.2938   24.8362 C   0  0  1  0  0  0  0  0  0  0  0  0
   10.7533  -17.4689   24.0260 C   0  0  0  0  0  0  0  0  0  0  0  0
   10.5772  -17.3152   22.5601 C   0  0  0  0  0  0  0  0  0  0  0  0
   11.8907  -17.6146   21.8929 C   0  0  0  0  0  0  0  0  0  0  0  0
   12.2690  -16.9071   20.9287 O   0  0  0  0  0  0  0  0  0  0  0  0
    9.7141  -17.2540   26.2843 C   0  0  0  0  0  0  0  0  0  0  0  0
   10.1613  -18.3626   27.0114 O   0  0  0  0  0  0  0  0  0  0  0  0
   12.7065  -18.6519   22.3064 O   0  0  0  0  0  0  0  0  0  0  0  0
    9.5266  -16.2175   26.9601 O   0  0  0  0  0  0  0  0  0  0  0  0
  2  1  1  6
  3  2  1  0
  4  2  1  0
  4  6  1  0
  4  5  1  6
  6 13  1  0
  6  7  2  0
  9  8  1  0
 10  9  1  0
 10 11  1  1
 12 10  1  0
 12 13  1  6
 14 16  1  0
 14 12  1  0
 15 14  2  0
 17 22  1  0
 17 16  1  0
 17 18  1  6
 18 19  1  0
 19 20  1  0
 20 21  2  0
 22 23  1  0
 24 20  1  0
 25 22  2  0
M  END
$$$$
