TIE.pdb
     RDKit          3D

 25 24  0  0  1  0  0  0  0  0999 V2000
    6.7327  -16.6455   21.2394 C   0  0  0  0  0  0  0  0  0  0  0  0
    7.4199  -15.6418   20.3745 C   0  0  1  0  0  0  0  0  0  0  0  0
    7.0112  -15.7131   19.0389 O   0  0  0  0  0  0  0  0  0  0  0  0
    7.1451  -14.2030   20.8296 C   0  0  2  0  0  0  0  0  0  0  0  0
    7.7350  -13.3524   19.7987 N   0  0  0  0  0  0  0  0  0  0  0  0
    7.8806  -14.0450   22.1128 C   0  0  0  0  0  0  0  0  0  0  0  0
    9.1233  -13.8825   22.0582 O   0  0  0  0  0  0  0  0  0  0  0  0
    5.7091  -11.2638   26.1914 C   0  0  0  0  0  0  0  0  0  0  0  0
    6.6322  -11.9319   25.2436 C   0  0  0  0  0  0  0  0  0  0  0  0
    7.1545  -13.2610   25.6043 C   0  0  2  0  0  0  0  0  0  0  0  0
    7.5721  -13.3744   27.0610 C   0  0  0  0  0  0  0  0  0  0  0  0
    8.0374  -13.9854   24.6475 C   0  0  2  0  0  0  0  0  0  0  0  0
    7.2639  -14.0677   23.3727 N   0  0  0  0  0  0  0  0  0  0  0  0
    8.5421  -15.3002   24.9946 C   0  0  0  0  0  0  0  0  0  0  0  0
    7.7137  -16.2767   25.1947 O   0  0  0  0  0  0  0  0  0  0  0  0
    9.8936  -15.7098   25.1504 N   0  0  0  0  0  0  0  0  0  0  0  0
   10.2516  -17.0976   25.4634 C   0  0  1  0  0  0  0  0  0  0  0  0
   11.5109  -17.4505   24.6867 C   0  0  0  0  0  0  0  0  0  0  0  0
   12.0774  -18.7849   25.0060 C   0  0  0  0  0  0  0  0  0  0  0  0
   13.3073  -18.9889   24.1659 C   0  0  0  0  0  0  0  0  0  0  0  0
   14.2772  -18.2033   24.2902 O   0  0  0  0  0  0  0  0  0  0  0  0
   10.3724  -17.3472   26.9047 C   0  0  0  0  0  0  0  0  0  0  0  0
   10.3970  -16.3195   27.8537 O   0  0  0  0  0  0  0  0  0  0  0  0
   13.4110  -20.0211   23.2515 O   0  0  0  0  0  0  0  0  0  0  0  0
   10.4625  -18.5040   27.3737 O   0  0  0  0  0  0  0  0  0  0  0  0
  2  1  1  1
  3  2  1  0
  4  2  1  0
  4  6  1  0
  4  5  1  6
  6 13  1  0
  6  7  2  0
  9  8  1  0
 10  9  1  0
 10 11  1  1
 12 10  1  0
 12 13  1  6
 14 16  1  0
 14 12  1  0
 15 14  2  0
 17 22  1  0
 17 16  1  0
 17 18  1  6
 18 19  1  0
 19 20  1  0
 20 21  2  0
 22 23  1  0
 24 20  1  0
 25 22  2  0
M  END
$$$$
