TIE.pdb
     RDKit          3D

 25 24  0  0  1  0  0  0  0  0999 V2000
    7.1329  -16.3558   20.9745 C   0  0  0  0  0  0  0  0  0  0  0  0
    7.7304  -15.2886   20.1192 C   0  0  1  0  0  0  0  0  0  0  0  0
    7.3172  -15.3737   18.7857 O   0  0  0  0  0  0  0  0  0  0  0  0
    7.3460  -13.8827   20.5972 C   0  0  2  0  0  0  0  0  0  0  0  0
    7.8908  -12.9712   19.5939 N   0  0  0  0  0  0  0  0  0  0  0  0
    8.0469  -13.6995   21.8962 C   0  0  0  0  0  0  0  0  0  0  0  0
    9.2815  -13.4786   21.8684 O   0  0  0  0  0  0  0  0  0  0  0  0
    7.1525  -11.8317   27.6387 C   0  0  0  0  0  0  0  0  0  0  0  0
    7.9192  -12.7210   26.7343 C   0  0  0  0  0  0  0  0  0  0  0  0
    7.4217  -12.9092   25.3607 C   0  0  2  0  0  0  0  0  0  0  0  0
    5.9079  -13.0101   25.2719 C   0  0  0  0  0  0  0  0  0  0  0  0
    8.1593  -13.8105   24.4316 C   0  0  2  0  0  0  0  0  0  0  0  0
    7.4063  -13.7599   23.1429 N   0  0  0  0  0  0  0  0  0  0  0  0
    8.3874  -15.1930   24.8065 C   0  0  0  0  0  0  0  0  0  0  0  0
    7.4022  -16.0351   24.7948 O   0  0  0  0  0  0  0  0  0  0  0  0
    9.6062  -15.8068   25.2017 N   0  0  0  0  0  0  0  0  0  0  0  0
    9.7142  -17.2558   25.4043 C   0  0  1  0  0  0  0  0  0  0  0  0
   10.7316  -17.7998   24.4131 C   0  0  0  0  0  0  0  0  0  0  0  0
   12.1162  -17.3056   24.6184 C   0  0  0  0  0  0  0  0  0  0  0  0
   12.8622  -17.4382   23.3200 C   0  0  0  0  0  0  0  0  0  0  0  0
   12.8716  -18.5414   22.7232 O   0  0  0  0  0  0  0  0  0  0  0  0
   10.0104  -17.6196   26.7950 C   0  0  0  0  0  0  0  0  0  0  0  0
   10.2237  -16.6692   27.7994 O   0  0  0  0  0  0  0  0  0  0  0  0
   13.5458  -16.3785   22.7525 O   0  0  0  0  0  0  0  0  0  0  0  0
   10.0915  -18.8116   27.1674 O   0  0  0  0  0  0  0  0  0  0  0  0
  2  1  1  1
  3  2  1  0
  4  2  1  0
  4  6  1  0
  4  5  1  6
  6 13  1  0
  6  7  2  0
  9  8  1  0
 10  9  1  0
 10 11  1  1
 12 10  1  0
 12 13  1  6
 14 16  1  0
 14 12  1  0
 15 14  2  0
 17 22  1  0
 17 16  1  0
 17 18  1  6
 18 19  1  0
 19 20  1  0
 20 21  2  0
 22 23  1  0
 24 20  1  0
 25 22  2  0
M  END
$$$$
