TIE.pdb
     RDKit          3D

 25 24  0  0  1  0  0  0  0  0999 V2000
    6.8216  -16.3990   20.6046 C   0  0  0  0  0  0  0  0  0  0  0  0
    7.5907  -15.3503   19.8723 C   0  0  1  0  0  0  0  0  0  0  0  0
    7.2537  -15.2845   18.5165 O   0  0  0  0  0  0  0  0  0  0  0  0
    7.3430  -13.9483   20.4431 C   0  0  2  0  0  0  0  0  0  0  0  0
    7.9629  -13.0288   19.4920 N   0  0  0  0  0  0  0  0  0  0  0  0
    8.0679  -13.9144   21.7415 C   0  0  0  0  0  0  0  0  0  0  0  0
    9.3220  -13.9134   21.7111 O   0  0  0  0  0  0  0  0  0  0  0  0
    6.9393  -11.7309   27.3592 C   0  0  0  0  0  0  0  0  0  0  0  0
    7.8161  -12.5626   26.5012 C   0  0  0  0  0  0  0  0  0  0  0  0
    7.3093  -12.9697   25.1795 C   0  0  2  0  0  0  0  0  0  0  0  0
    5.8512  -13.3976   25.1939 C   0  0  0  0  0  0  0  0  0  0  0  0
    8.1819  -13.7698   24.2751 C   0  0  2  0  0  0  0  0  0  0  0  0
    7.4293  -13.8837   22.9903 N   0  0  0  0  0  0  0  0  0  0  0  0
    8.6309  -15.0843   24.6927 C   0  0  0  0  0  0  0  0  0  0  0  0
    7.8735  -16.1173   24.4950 O   0  0  0  0  0  0  0  0  0  0  0  0
    9.8571  -15.4366   25.3179 N   0  0  0  0  0  0  0  0  0  0  0  0
   10.2188  -16.8335   25.5824 C   0  0  1  0  0  0  0  0  0  0  0  0
   11.5361  -17.1247   24.8800 C   0  0  0  0  0  0  0  0  0  0  0  0
   12.0923  -18.4744   25.1496 C   0  0  0  0  0  0  0  0  0  0  0  0
   13.3975  -18.6025   24.4147 C   0  0  0  0  0  0  0  0  0  0  0  0
   13.4346  -18.3859   23.1798 O   0  0  0  0  0  0  0  0  0  0  0  0
   10.2428  -17.1581   27.0136 C   0  0  0  0  0  0  0  0  0  0  0  0
   10.3656  -18.4667   27.4932 O   0  0  0  0  0  0  0  0  0  0  0  0
   14.5714  -18.9539   25.0556 O   0  0  0  0  0  0  0  0  0  0  0  0
   10.1527  -16.2762   27.8969 O   0  0  0  0  0  0  0  0  0  0  0  0
  2  1  1  1
  3  2  1  0
  4  2  1  0
  4  6  1  0
  4  5  1  6
  6 13  1  0
  6  7  2  0
  9  8  1  0
 10  9  1  0
 10 11  1  1
 12 10  1  0
 12 13  1  6
 14 16  1  0
 14 12  1  0
 15 14  2  0
 17 22  1  0
 17 16  1  0
 17 18  1  1
 18 19  1  0
 19 20  1  0
 20 21  2  0
 22 23  1  0
 24 20  1  0
 25 22  2  0
M  END
$$$$
