TIE.pdb
     RDKit          3D

 25 24  0  0  1  0  0  0  0  0999 V2000
    7.2955  -17.3152   21.9308 C   0  0  0  0  0  0  0  0  0  0  0  0
    7.6596  -16.2238   20.9801 C   0  0  1  0  0  0  0  0  0  0  0  0
    7.1590  -16.4427   19.6926 O   0  0  0  0  0  0  0  0  0  0  0  0
    7.1113  -14.8625   21.4264 C   0  0  2  0  0  0  0  0  0  0  0  0
    7.3613  -13.9591   20.3059 N   0  0  0  0  0  0  0  0  0  0  0  0
    7.9344  -14.4686   22.6010 C   0  0  0  0  0  0  0  0  0  0  0  0
    9.1025  -14.0640   22.3871 O   0  0  0  0  0  0  0  0  0  0  0  0
    5.8872  -11.5764   26.5098 C   0  0  0  0  0  0  0  0  0  0  0  0
    6.8317  -12.2420   25.5816 C   0  0  0  0  0  0  0  0  0  0  0  0
    7.5224  -13.4565   26.0477 C   0  0  2  0  0  0  0  0  0  0  0  0
    8.1075  -13.3242   27.4440 C   0  0  0  0  0  0  0  0  0  0  0  0
    8.3631  -14.2328   25.0937 C   0  0  2  0  0  0  0  0  0  0  0  0
    7.4784  -14.5247   23.9265 N   0  0  0  0  0  0  0  0  0  0  0  0
    9.0025  -15.4572   25.5362 C   0  0  0  0  0  0  0  0  0  0  0  0
    8.2778  -16.4764   25.8767 O   0  0  0  0  0  0  0  0  0  0  0  0
   10.3918  -15.7308   25.6527 N   0  0  0  0  0  0  0  0  0  0  0  0
   10.8902  -17.0414   26.0840 C   0  0  1  0  0  0  0  0  0  0  0  0
   12.2644  -17.2538   25.4676 C   0  0  0  0  0  0  0  0  0  0  0  0
   12.3509  -16.9157   24.0248 C   0  0  0  0  0  0  0  0  0  0  0  0
   13.7703  -17.1237   23.5755 C   0  0  0  0  0  0  0  0  0  0  0  0
   14.7120  -16.7060   24.2911 O   0  0  0  0  0  0  0  0  0  0  0  0
   10.8788  -17.2074   27.5422 C   0  0  0  0  0  0  0  0  0  0  0  0
   11.1561  -18.4268   28.1697 O   0  0  0  0  0  0  0  0  0  0  0  0
   14.0805  -17.7650   22.3902 O   0  0  0  0  0  0  0  0  0  0  0  0
   10.6168  -16.2602   28.3170 O   0  0  0  0  0  0  0  0  0  0  0  0
  2  1  1  1
  3  2  1  0
  4  2  1  0
  4  6  1  0
  4  5  1  6
  6 13  1  0
  6  7  2  0
  9  8  1  0
 10  9  1  0
 10 11  1  1
 12 10  1  0
 12 13  1  6
 14 16  1  0
 14 12  1  0
 15 14  2  0
 17 22  1  0
 17 16  1  0
 17 18  1  1
 18 19  1  0
 19 20  1  0
 20 21  2  0
 22 23  1  0
 24 20  1  0
 25 22  2  0
M  END
$$$$
