TIE.pdb
     RDKit          3D

 25 24  0  0  1  0  0  0  0  0999 V2000
    5.9703  -15.6818   19.4587 C   0  0  0  0  0  0  0  0  0  0  0  0
    6.8493  -15.5393   20.6564 C   0  0  1  0  0  0  0  0  0  0  0  0
    8.1344  -16.0489   20.4442 O   0  0  0  0  0  0  0  0  0  0  0  0
    7.0331  -14.0727   21.0666 C   0  0  2  0  0  0  0  0  0  0  0  0
    7.8054  -13.4634   19.9865 N   0  0  0  0  0  0  0  0  0  0  0  0
    7.8350  -14.1080   22.3188 C   0  0  0  0  0  0  0  0  0  0  0  0
    9.0848  -14.0774   22.2137 O   0  0  0  0  0  0  0  0  0  0  0  0
    5.6642  -11.4637   26.4554 C   0  0  0  0  0  0  0  0  0  0  0  0
    6.5953  -12.0805   25.4811 C   0  0  0  0  0  0  0  0  0  0  0  0
    7.2194  -13.3665   25.8363 C   0  0  2  0  0  0  0  0  0  0  0  0
    7.7216  -13.4223   27.2695 C   0  0  0  0  0  0  0  0  0  0  0  0
    8.0931  -14.0552   24.8453 C   0  0  2  0  0  0  0  0  0  0  0  0
    7.2733  -14.1732   23.6027 N   0  0  0  0  0  0  0  0  0  0  0  0
    8.6667  -15.3466   25.1728 C   0  0  0  0  0  0  0  0  0  0  0  0
    7.8923  -16.3725   25.3392 O   0  0  0  0  0  0  0  0  0  0  0  0
   10.0368  -15.6824   25.3415 N   0  0  0  0  0  0  0  0  0  0  0  0
   10.4619  -17.0316   25.7303 C   0  0  1  0  0  0  0  0  0  0  0  0
   11.8572  -17.2694   25.1735 C   0  0  0  0  0  0  0  0  0  0  0  0
   11.9802  -17.0572   23.7095 C   0  0  0  0  0  0  0  0  0  0  0  0
   13.4009  -17.3423   23.3089 C   0  0  0  0  0  0  0  0  0  0  0  0
   14.2966  -16.5047   23.5723 O   0  0  0  0  0  0  0  0  0  0  0  0
   10.3684  -17.2677   27.1759 C   0  0  0  0  0  0  0  0  0  0  0  0
   10.4738  -18.5412   27.7455 O   0  0  0  0  0  0  0  0  0  0  0  0
   13.7615  -18.5056   22.6540 O   0  0  0  0  0  0  0  0  0  0  0  0
   10.1859  -16.3359   27.9911 O   0  0  0  0  0  0  0  0  0  0  0  0
  2  1  1  6
  3  2  1  0
  4  2  1  0
  4  6  1  0
  4  5  1  6
  6 13  1  0
  6  7  2  0
  9  8  1  0
 10  9  1  0
 10 11  1  1
 12 10  1  0
 12 13  1  6
 14 16  1  0
 14 12  1  0
 15 14  2  0
 17 22  1  0
 17 16  1  0
 17 18  1  1
 18 19  1  0
 19 20  1  0
 20 21  2  0
 22 23  1  0
 24 20  1  0
 25 22  2  0
M  END
$$$$
