TIE.pdb
     RDKit          3D

 25 24  0  0  1  0  0  0  0  0999 V2000
    6.4344  -17.1608   19.8438 C   0  0  0  0  0  0  0  0  0  0  0  0
    7.1934  -16.4218   20.8951 C   0  0  1  0  0  0  0  0  0  0  0  0
    8.5765  -16.4686   20.6931 O   0  0  0  0  0  0  0  0  0  0  0  0
    6.8179  -14.9352   20.9410 C   0  0  2  0  0  0  0  0  0  0  0  0
    7.2757  -14.3817   19.6689 N   0  0  0  0  0  0  0  0  0  0  0  0
    7.6033  -14.3617   22.0664 C   0  0  0  0  0  0  0  0  0  0  0  0
    8.7650  -13.9563   21.8217 O   0  0  0  0  0  0  0  0  0  0  0  0
    6.7798  -11.8174   27.6088 C   0  0  0  0  0  0  0  0  0  0  0  0
    7.6776  -12.5899   26.7179 C   0  0  0  0  0  0  0  0  0  0  0  0
    7.0986  -13.1982   25.5078 C   0  0  2  0  0  0  0  0  0  0  0  0
    5.7791  -13.9093   25.7576 C   0  0  0  0  0  0  0  0  0  0  0  0
    7.9938  -13.8769   24.5292 C   0  0  2  0  0  0  0  0  0  0  0  0
    7.1186  -14.2503   23.3782 N   0  0  0  0  0  0  0  0  0  0  0  0
    8.7654  -15.0319   24.9469 C   0  0  0  0  0  0  0  0  0  0  0  0
    8.2170  -16.2063   24.9515 O   0  0  0  0  0  0  0  0  0  0  0  0
   10.1207  -15.0769   25.3708 N   0  0  0  0  0  0  0  0  0  0  0  0
   10.8401  -16.3451   25.5334 C   0  0  1  0  0  0  0  0  0  0  0  0
   12.1468  -16.2529   24.7604 C   0  0  0  0  0  0  0  0  0  0  0  0
   13.0631  -17.4035   24.9608 C   0  0  0  0  0  0  0  0  0  0  0  0
   14.3197  -17.1484   24.1760 C   0  0  0  0  0  0  0  0  0  0  0  0
   14.8426  -16.0086   24.2011 O   0  0  0  0  0  0  0  0  0  0  0  0
   11.0257  -16.7225   26.9396 C   0  0  0  0  0  0  0  0  0  0  0  0
   11.4723  -17.9887   27.3332 O   0  0  0  0  0  0  0  0  0  0  0  0
   14.9275  -18.1336   23.4194 O   0  0  0  0  0  0  0  0  0  0  0  0
   10.7923  -15.9276   27.8776 O   0  0  0  0  0  0  0  0  0  0  0  0
  2  1  1  6
  3  2  1  0
  4  2  1  0
  4  6  1  0
  4  5  1  6
  6 13  1  0
  6  7  2  0
  9  8  1  0
 10  9  1  0
 10 11  1  1
 12 10  1  0
 12 13  1  6
 14 16  1  0
 14 12  1  0
 15 14  2  0
 17 22  1  0
 17 16  1  0
 17 18  1  1
 18 19  1  0
 19 20  1  0
 20 21  2  0
 22 23  1  0
 24 20  1  0
 25 22  2  0
M  END
$$$$
