TIE.pdb
     RDKit          3D

 25 24  0  0  1  0  0  0  0  0999 V2000
    6.4044  -16.6669   21.3980 C   0  0  0  0  0  0  0  0  0  0  0  0
    7.2333  -15.7987   20.5110 C   0  0  1  0  0  0  0  0  0  0  0  0
    6.8181  -15.8415   19.1761 O   0  0  0  0  0  0  0  0  0  0  0  0
    7.1765  -14.3241   20.9295 C   0  0  2  0  0  0  0  0  0  0  0  0
    7.9197  -13.6014   19.9001 N   0  0  0  0  0  0  0  0  0  0  0  0
    7.8937  -14.2526   22.2305 C   0  0  0  0  0  0  0  0  0  0  0  0
    9.1474  -14.2946   22.2101 O   0  0  0  0  0  0  0  0  0  0  0  0
    5.8129  -11.1178   26.0246 C   0  0  0  0  0  0  0  0  0  0  0  0
    6.7575  -11.8901   25.1831 C   0  0  0  0  0  0  0  0  0  0  0  0
    7.1847  -13.2170   25.6585 C   0  0  2  0  0  0  0  0  0  0  0  0
    7.6163  -13.2299   27.1156 C   0  0  0  0  0  0  0  0  0  0  0  0
    7.9953  -14.0897   24.7635 C   0  0  2  0  0  0  0  0  0  0  0  0
    7.2485  -14.1415   23.4713 N   0  0  0  0  0  0  0  0  0  0  0  0
    8.3270  -15.4369   25.1866 C   0  0  0  0  0  0  0  0  0  0  0  0
    7.3837  -16.3080   25.3630 O   0  0  0  0  0  0  0  0  0  0  0  0
    9.6118  -15.9855   25.4456 N   0  0  0  0  0  0  0  0  0  0  0  0
    9.7914  -17.3888   25.8338 C   0  0  1  0  0  0  0  0  0  0  0  0
   10.7710  -18.0291   24.8624 C   0  0  0  0  0  0  0  0  0  0  0  0
   12.1314  -17.4352   24.8790 C   0  0  0  0  0  0  0  0  0  0  0  0
   12.8903  -17.9607   23.6924 C   0  0  0  0  0  0  0  0  0  0  0  0
   12.4291  -18.9308   23.0448 O   0  0  0  0  0  0  0  0  0  0  0  0
   10.1828  -17.5490   27.2393 C   0  0  0  0  0  0  0  0  0  0  0  0
   10.3393  -18.8000   27.8459 O   0  0  0  0  0  0  0  0  0  0  0  0
   14.0907  -17.4091   23.2835 O   0  0  0  0  0  0  0  0  0  0  0  0
   10.4003  -16.5676   27.9848 O   0  0  0  0  0  0  0  0  0  0  0  0
  2  1  1  1
  3  2  1  0
  4  2  1  0
  4  6  1  0
  4  5  1  6
  6 13  1  0
  6  7  2  0
  9  8  1  0
 10  9  1  0
 10 11  1  1
 12 10  1  0
 12 13  1  6
 14 16  1  0
 14 12  1  0
 15 14  2  0
 17 22  1  0
 17 16  1  0
 17 18  1  6
 18 19  1  0
 19 20  1  0
 20 21  2  0
 22 23  1  0
 24 20  1  0
 25 22  2  0
M  END
$$$$
