TIE.pdb
     RDKit          3D

 25 24  0  0  1  0  0  0  0  0999 V2000
    6.8599  -16.8368   21.3943 C   0  0  0  0  0  0  0  0  0  0  0  0
    7.5293  -15.8636   20.4818 C   0  0  1  0  0  0  0  0  0  0  0  0
    7.1153  -16.0001   19.1529 O   0  0  0  0  0  0  0  0  0  0  0  0
    7.2371  -14.4097   20.8737 C   0  0  2  0  0  0  0  0  0  0  0  0
    7.8248  -13.5976   19.8110 N   0  0  0  0  0  0  0  0  0  0  0  0
    7.9629  -14.1897   22.1532 C   0  0  0  0  0  0  0  0  0  0  0  0
    9.2156  -14.1351   22.1128 O   0  0  0  0  0  0  0  0  0  0  0  0
    6.9375  -11.8612   27.7638 C   0  0  0  0  0  0  0  0  0  0  0  0
    7.7655  -12.7477   26.9123 C   0  0  0  0  0  0  0  0  0  0  0  0
    7.2732  -13.0705   25.5622 C   0  0  2  0  0  0  0  0  0  0  0  0
    5.7749  -13.3184   25.5055 C   0  0  0  0  0  0  0  0  0  0  0  0
    8.0827  -13.9571   24.6799 C   0  0  2  0  0  0  0  0  0  0  0  0
    7.3268  -14.0409   23.3947 N   0  0  0  0  0  0  0  0  0  0  0  0
    8.4260  -15.2928   25.1291 C   0  0  0  0  0  0  0  0  0  0  0  0
    7.5172  -16.2164   25.1593 O   0  0  0  0  0  0  0  0  0  0  0  0
    9.6901  -15.7772   25.5606 N   0  0  0  0  0  0  0  0  0  0  0  0
    9.8928  -17.1780   25.9462 C   0  0  1  0  0  0  0  0  0  0  0  0
   10.9174  -17.7876   25.0017 C   0  0  0  0  0  0  0  0  0  0  0  0
   12.2489  -17.1321   25.0318 C   0  0  0  0  0  0  0  0  0  0  0  0
   12.7933  -17.1045   23.6308 C   0  0  0  0  0  0  0  0  0  0  0  0
   12.1438  -17.6474   22.7052 O   0  0  0  0  0  0  0  0  0  0  0  0
   10.2450  -17.3376   27.3621 C   0  0  0  0  0  0  0  0  0  0  0  0
   10.4220  -16.2524   28.2273 O   0  0  0  0  0  0  0  0  0  0  0  0
   13.9960  -16.4967   23.3205 O   0  0  0  0  0  0  0  0  0  0  0  0
   10.4104  -18.4633   27.8832 O   0  0  0  0  0  0  0  0  0  0  0  0
  2  1  1  1
  3  2  1  0
  4  2  1  0
  4  6  1  0
  4  5  1  6
  6 13  1  0
  6  7  2  0
  9  8  1  0
 10  9  1  0
 10 11  1  1
 12 10  1  0
 12 13  1  6
 14 16  1  0
 14 12  1  0
 15 14  2  0
 17 22  1  0
 17 16  1  0
 17 18  1  6
 18 19  1  0
 19 20  1  0
 20 21  2  0
 22 23  1  0
 24 20  1  0
 25 22  2  0
M  END
$$$$
