TIE.pdb
     RDKit          3D

 25 24  0  0  1  0  0  0  0  0999 V2000
    7.2197  -16.2506   20.6487 C   0  0  0  0  0  0  0  0  0  0  0  0
    7.6773  -15.1012   19.8139 C   0  0  1  0  0  0  0  0  0  0  0  0
    7.1746  -15.1500   18.5096 O   0  0  0  0  0  0  0  0  0  0  0  0
    7.2319  -13.7528   20.3938 C   0  0  2  0  0  0  0  0  0  0  0  0
    7.6068  -12.7584   19.3914 N   0  0  0  0  0  0  0  0  0  0  0  0
    8.0363  -13.5675   21.6311 C   0  0  0  0  0  0  0  0  0  0  0  0
    9.2515  -13.2844   21.5015 O   0  0  0  0  0  0  0  0  0  0  0  0
    5.9049  -13.0176   27.0135 C   0  0  0  0  0  0  0  0  0  0  0  0
    6.3158  -13.3618   25.6317 C   0  0  0  0  0  0  0  0  0  0  0  0
    7.6246  -12.8810   25.1571 C   0  0  2  0  0  0  0  0  0  0  0  0
    7.6783  -11.3772   24.9445 C   0  0  0  0  0  0  0  0  0  0  0  0
    8.3751  -13.6778   24.1463 C   0  0  2  0  0  0  0  0  0  0  0  0
    7.5130  -13.6913   22.9269 N   0  0  0  0  0  0  0  0  0  0  0  0
    8.7868  -15.0317   24.4647 C   0  0  0  0  0  0  0  0  0  0  0  0
    7.9632  -16.0158   24.2823 O   0  0  0  0  0  0  0  0  0  0  0  0
   10.0388  -15.4736   24.9704 N   0  0  0  0  0  0  0  0  0  0  0  0
   10.3522  -16.8982   25.1269 C   0  0  1  0  0  0  0  0  0  0  0  0
   11.6773  -17.1726   24.4325 C   0  0  0  0  0  0  0  0  0  0  0  0
   12.1861  -18.5568   24.6021 C   0  0  0  0  0  0  0  0  0  0  0  0
   13.4971  -18.6701   23.8752 C   0  0  0  0  0  0  0  0  0  0  0  0
   14.5172  -18.1176   24.3519 O   0  0  0  0  0  0  0  0  0  0  0  0
   10.3309  -17.3393   26.5267 C   0  0  0  0  0  0  0  0  0  0  0  0
   10.3163  -18.6883   26.8974 O   0  0  0  0  0  0  0  0  0  0  0  0
   13.6223  -19.3681   22.6879 O   0  0  0  0  0  0  0  0  0  0  0  0
   10.3231  -16.5277   27.4793 O   0  0  0  0  0  0  0  0  0  0  0  0
  2  1  1  1
  3  2  1  0
  4  2  1  0
  4  6  1  0
  4  5  1  6
  6 13  1  0
  6  7  2  0
  9  8  1  0
 10  9  1  0
 10 11  1  6
 12 10  1  0
 12 13  1  6
 14 16  1  0
 14 12  1  0
 15 14  2  0
 17 22  1  0
 17 16  1  0
 17 18  1  1
 18 19  1  0
 19 20  1  0
 20 21  2  0
 22 23  1  0
 24 20  1  0
 25 22  2  0
M  END
$$$$
