DFV.pdb
     RDKit          3D

 27 27  0  0  1  0  0  0  0  0999 V2000
   11.2486  -16.6621   19.8261 N   0  0  0  0  0  0  0  0  0  0  0  0
   11.1920  -17.3748   21.0643 C   0  0  1  0  0  0  0  0  0  0  0  0
   12.4648  -18.1361   21.3581 C   0  0  0  0  0  0  0  0  0  0  0  0
   12.7271  -19.1871   20.3596 C   0  0  0  0  0  0  0  0  0  0  0  0
   13.8898  -19.5896   20.1740 O   0  0  0  0  0  0  0  0  0  0  0  0
   10.8504  -16.4307   22.1574 C   0  0  0  0  0  0  0  0  0  0  0  0
   11.6197  -15.5067   22.5026 O   0  0  0  0  0  0  0  0  0  0  0  0
   11.6905  -19.7238   19.6331 O   0  0  0  0  0  0  0  0  0  0  0  0
    9.6160  -16.5856   22.8252 N   0  0  0  0  0  0  0  0  0  0  0  0
    9.1230  -15.7012   23.8392 C   0  0  1  0  0  0  0  0  0  0  0  0
    7.6235  -15.5818   23.6991 C   0  0  0  0  0  0  0  0  0  0  0  0
    7.2149  -14.4375   24.5892 C   0  0  0  0  0  0  0  0  0  0  0  0
    6.4639  -14.6917   25.7144 C   0  0  0  0  0  0  0  0  0  0  0  0
    6.0733  -13.6509   26.5538 C   0  0  0  0  0  0  0  0  0  0  0  0
    6.4266  -12.3473   26.2807 C   0  0  0  0  0  0  0  0  0  0  0  0
    7.1840  -12.0983   25.1443 C   0  0  0  0  0  0  0  0  0  0  0  0
    7.5673  -13.1381   24.3168 C   0  0  0  0  0  0  0  0  0  0  0  0
    9.5629  -16.0409   25.1926 C   0  0  0  0  0  0  0  0  0  0  0  0
    9.6704  -17.2554   25.4999 O   0  0  0  0  0  0  0  0  0  0  0  0
   11.0093  -13.0087   27.8972 C   0  0  0  0  0  0  0  0  0  0  0  0
   10.2845  -14.2341   28.4150 C   0  0  2  0  0  0  0  0  0  0  0  0
   10.9471  -14.6266   29.7183 C   0  0  0  0  0  0  0  0  0  0  0  0
   10.3736  -15.3892   27.4417 C   0  0  2  0  0  0  0  0  0  0  0  0
    9.8633  -15.0441   26.1427 N   0  0  0  0  0  0  0  0  0  0  0  0
    9.5906  -16.5154   27.9834 C   0  0  0  0  0  0  0  0  0  0  0  0
    8.3584  -16.5677   27.7598 O   0  0  0  0  0  0  0  0  0  0  0  0
   10.1583  -17.5309   28.7369 O   0  0  0  0  0  0  0  0  0  0  0  0
  2  1  1  6
  2  3  1  0
  4  3  1  0
  4  8  1  0
  5  4  2  0
  6  2  1  0
  7  6  2  0
  9  6  1  0
 10  9  1  0
 10 11  1  1
 12 11  1  0
 12 13  2  0
 14 13  1  0
 15 14  2  0
 16 17  2  0
 16 15  1  0
 17 12  1  0
 18 10  1  0
 18 24  1  0
 19 18  2  0
 21 20  1  6
 21 23  1  0
 22 21  1  0
 23 24  1  6
 23 25  1  0
 25 27  1  0
 26 25  2  0
M  END
$$$$
