DFV.pdb
     RDKit          3D

 27 27  0  0  1  0  0  0  0  0999 V2000
   10.1187  -18.0146   20.7863 N   0  0  0  0  0  0  0  0  0  0  0  0
   11.2831  -17.3067   21.2191 C   0  0  1  0  0  0  0  0  0  0  0  0
   11.9501  -16.5406   20.0992 C   0  0  0  0  0  0  0  0  0  0  0  0
   12.8069  -17.4040   19.2682 C   0  0  0  0  0  0  0  0  0  0  0  0
   12.8739  -18.6236   19.5056 O   0  0  0  0  0  0  0  0  0  0  0  0
   10.9237  -16.4208   22.3544 C   0  0  0  0  0  0  0  0  0  0  0  0
   11.7357  -15.6051   22.8443 O   0  0  0  0  0  0  0  0  0  0  0  0
   13.5320  -16.8654   18.2317 O   0  0  0  0  0  0  0  0  0  0  0  0
    9.6218  -16.5061   22.8944 N   0  0  0  0  0  0  0  0  0  0  0  0
    9.1362  -15.7038   23.9778 C   0  0  1  0  0  0  0  0  0  0  0  0
    7.6342  -15.5866   23.8666 C   0  0  0  0  0  0  0  0  0  0  0  0
    7.2568  -14.3535   24.6450 C   0  0  0  0  0  0  0  0  0  0  0  0
    6.5005  -14.4813   25.7879 C   0  0  0  0  0  0  0  0  0  0  0  0
    6.1384  -13.3564   26.5255 C   0  0  0  0  0  0  0  0  0  0  0  0
    6.5258  -12.0940   26.1319 C   0  0  0  0  0  0  0  0  0  0  0  0
    7.2883  -11.9726   24.9783 C   0  0  0  0  0  0  0  0  0  0  0  0
    7.6431  -13.0951   24.2524 C   0  0  0  0  0  0  0  0  0  0  0  0
    9.5969  -16.1397   25.2964 C   0  0  0  0  0  0  0  0  0  0  0  0
    9.8118  -17.3648   25.4804 O   0  0  0  0  0  0  0  0  0  0  0  0
    9.0657  -14.2346   29.1381 C   0  0  0  0  0  0  0  0  0  0  0  0
   10.4530  -14.5192   28.6002 C   0  0  2  0  0  0  0  0  0  0  0  0
   10.9508  -13.2442   27.9535 C   0  0  0  0  0  0  0  0  0  0  0  0
   10.4369  -15.6280   27.5708 C   0  0  2  0  0  0  0  0  0  0  0  0
    9.8004  -15.2226   26.3471 N   0  0  0  0  0  0  0  0  0  0  0  0
    9.7059  -16.7772   28.1364 C   0  0  0  0  0  0  0  0  0  0  0  0
   10.2232  -17.4310   29.0724 O   0  0  0  0  0  0  0  0  0  0  0  0
    8.4596  -17.1739   27.6775 O   0  0  0  0  0  0  0  0  0  0  0  0
  2  1  1  6
  2  3  1  0
  4  3  1  0
  4  8  1  0
  5  4  2  0
  6  2  1  0
  7  6  2  0
  9  6  1  0
 10  9  1  0
 10 11  1  1
 12 11  1  0
 12 13  2  0
 14 13  1  0
 15 14  2  0
 16 17  2  0
 16 15  1  0
 17 12  1  0
 18 10  1  0
 18 24  1  0
 19 18  2  0
 21 20  1  6
 21 23  1  0
 22 21  1  0
 23 24  1  6
 23 25  1  0
 25 27  1  0
 26 25  2  0
M  END
$$$$
