DFV.pdb
     RDKit          3D

 27 27  0  0  1  0  0  0  0  0999 V2000
   11.0461  -16.6428   19.6880 N   0  0  0  0  0  0  0  0  0  0  0  0
   11.5244  -17.0898   20.9591 C   0  0  1  0  0  0  0  0  0  0  0  0
   13.0236  -17.2840   20.9830 C   0  0  0  0  0  0  0  0  0  0  0  0
   13.4245  -18.5871   20.4249 C   0  0  0  0  0  0  0  0  0  0  0  0
   14.5109  -18.6983   19.8285 O   0  0  0  0  0  0  0  0  0  0  0  0
   11.0748  -16.1446   22.0114 C   0  0  0  0  0  0  0  0  0  0  0  0
   11.7911  -15.1975   22.4046 O   0  0  0  0  0  0  0  0  0  0  0  0
   12.6013  -19.6797   20.5616 O   0  0  0  0  0  0  0  0  0  0  0  0
    9.7965  -16.3254   22.5831 N   0  0  0  0  0  0  0  0  0  0  0  0
    9.2569  -15.5223   23.6400 C   0  0  1  0  0  0  0  0  0  0  0  0
    7.7684  -15.3715   23.4306 C   0  0  0  0  0  0  0  0  0  0  0  0
    7.3460  -14.2075   24.2882 C   0  0  0  0  0  0  0  0  0  0  0  0
    6.5236  -14.4285   25.3696 C   0  0  0  0  0  0  0  0  0  0  0  0
    6.1188  -13.3688   26.1782 C   0  0  0  0  0  0  0  0  0  0  0  0
    6.5289  -12.0795   25.9175 C   0  0  0  0  0  0  0  0  0  0  0  0
    7.3581  -11.8640   24.8253 C   0  0  0  0  0  0  0  0  0  0  0  0
    7.7549  -12.9222   24.0281 C   0  0  0  0  0  0  0  0  0  0  0  0
    9.6196  -15.9796   24.9817 C   0  0  0  0  0  0  0  0  0  0  0  0
    9.9601  -17.1805   25.1329 O   0  0  0  0  0  0  0  0  0  0  0  0
   10.3567  -13.0632   28.0405 C   0  0  0  0  0  0  0  0  0  0  0  0
    9.9480  -14.4698   28.4271 C   0  0  2  0  0  0  0  0  0  0  0  0
   10.7438  -14.8425   29.6598 C   0  0  0  0  0  0  0  0  0  0  0  0
   10.2437  -15.4613   27.3231 C   0  0  2  0  0  0  0  0  0  0  0  0
    9.5938  -15.1093   26.0899 N   0  0  0  0  0  0  0  0  0  0  0  0
    9.7728  -16.7909   27.7535 C   0  0  0  0  0  0  0  0  0  0  0  0
   10.4366  -17.4296   28.6035 O   0  0  0  0  0  0  0  0  0  0  0  0
    8.6180  -17.3753   27.2576 O   0  0  0  0  0  0  0  0  0  0  0  0
  2  1  1  6
  2  3  1  0
  4  3  1  0
  4  8  1  0
  5  4  2  0
  6  2  1  0
  7  6  2  0
  9  6  1  0
 10  9  1  0
 10 11  1  1
 12 11  1  0
 12 13  2  0
 14 13  1  0
 15 14  2  0
 16 17  2  0
 16 15  1  0
 17 12  1  0
 18 10  1  0
 18 24  1  0
 19 18  2  0
 21 20  1  6
 21 23  1  0
 22 21  1  0
 23 24  1  6
 23 25  1  0
 25 27  1  0
 26 25  2  0
M  END
$$$$
