DFV.pdb
     RDKit          3D

 27 27  0  0  1  0  0  0  0  0999 V2000
   11.2348  -16.5693   19.8971 N   0  0  0  0  0  0  0  0  0  0  0  0
   11.0084  -17.3165   21.0949 C   0  0  1  0  0  0  0  0  0  0  0  0
   12.1737  -18.2102   21.4542 C   0  0  0  0  0  0  0  0  0  0  0  0
   12.4544  -19.2063   20.4058 C   0  0  0  0  0  0  0  0  0  0  0  0
   13.6246  -19.5754   20.1988 O   0  0  0  0  0  0  0  0  0  0  0  0
   10.6700  -16.3827   22.1978 C   0  0  0  0  0  0  0  0  0  0  0  0
   11.4856  -15.5368   22.6267 O   0  0  0  0  0  0  0  0  0  0  0  0
   11.4270  -19.7285   19.6562 O   0  0  0  0  0  0  0  0  0  0  0  0
    9.3846  -16.4564   22.7775 N   0  0  0  0  0  0  0  0  0  0  0  0
    8.9137  -15.5984   23.8240 C   0  0  1  0  0  0  0  0  0  0  0  0
    7.4201  -15.4233   23.6800 C   0  0  0  0  0  0  0  0  0  0  0  0
    7.0414  -14.3104   24.6218 C   0  0  0  0  0  0  0  0  0  0  0  0
    6.2987  -14.5988   25.7443 C   0  0  0  0  0  0  0  0  0  0  0  0
    5.9357  -13.5874   26.6308 C   0  0  0  0  0  0  0  0  0  0  0  0
    6.3088  -12.2798   26.4081 C   0  0  0  0  0  0  0  0  0  0  0  0
    7.0576  -11.9964   25.2742 C   0  0  0  0  0  0  0  0  0  0  0  0
    7.4134  -13.0069   24.3996 C   0  0  0  0  0  0  0  0  0  0  0  0
    9.3321  -16.0077   25.1649 C   0  0  0  0  0  0  0  0  0  0  0  0
    9.4072  -17.2368   25.4193 O   0  0  0  0  0  0  0  0  0  0  0  0
   10.9653  -13.1145   27.9293 C   0  0  0  0  0  0  0  0  0  0  0  0
   10.2562  -14.3577   28.4258 C   0  0  2  0  0  0  0  0  0  0  0  0
   10.9886  -14.8236   29.6660 C   0  0  0  0  0  0  0  0  0  0  0  0
   10.2732  -15.4618   27.3913 C   0  0  2  0  0  0  0  0  0  0  0  0
    9.6473  -15.0612   26.1605 N   0  0  0  0  0  0  0  0  0  0  0  0
    9.5539  -16.6257   27.9412 C   0  0  0  0  0  0  0  0  0  0  0  0
   10.1424  -17.3841   28.7472 O   0  0  0  0  0  0  0  0  0  0  0  0
    8.2427  -16.9252   27.6059 O   0  0  0  0  0  0  0  0  0  0  0  0
  2  1  1  6
  2  3  1  0
  4  3  1  0
  4  8  1  0
  5  4  2  0
  6  2  1  0
  7  6  2  0
  9  6  1  0
 10  9  1  0
 10 11  1  1
 12 11  1  0
 12 13  2  0
 14 13  1  0
 15 14  2  0
 16 17  2  0
 16 15  1  0
 17 12  1  0
 18 10  1  0
 18 24  1  0
 19 18  2  0
 21 20  1  6
 21 23  1  0
 22 21  1  0
 23 24  1  6
 23 25  1  0
 25 27  1  0
 26 25  2  0
M  END
$$$$
