DFV.pdb
     RDKit          3D

 27 27  0  0  1  0  0  0  0  0999 V2000
    9.7876  -16.3568   19.5850 N   0  0  0  0  0  0  0  0  0  0  0  0
    9.8162  -17.1799   20.7537 C   0  0  1  0  0  0  0  0  0  0  0  0
   10.9546  -18.1747   20.7390 C   0  0  0  0  0  0  0  0  0  0  0  0
   11.0537  -18.8875   19.4535 C   0  0  0  0  0  0  0  0  0  0  0  0
   10.0264  -19.3337   18.9114 O   0  0  0  0  0  0  0  0  0  0  0  0
    9.8553  -16.3161   21.9600 C   0  0  0  0  0  0  0  0  0  0  0  0
   10.8970  -15.7254   22.3214 O   0  0  0  0  0  0  0  0  0  0  0  0
   12.2778  -19.0604   18.8521 O   0  0  0  0  0  0  0  0  0  0  0  0
    8.6755  -16.1600   22.7199 N   0  0  0  0  0  0  0  0  0  0  0  0
    8.5699  -15.3583   23.9029 C   0  0  1  0  0  0  0  0  0  0  0  0
    7.2036  -14.7147   23.9388 C   0  0  0  0  0  0  0  0  0  0  0  0
    7.2181  -13.7791   25.1192 C   0  0  0  0  0  0  0  0  0  0  0  0
    6.5746  -14.1456   26.2796 C   0  0  0  0  0  0  0  0  0  0  0  0
    6.5734  -13.2982   27.3852 C   0  0  0  0  0  0  0  0  0  0  0  0
    7.2128  -12.0783   27.3459 C   0  0  0  0  0  0  0  0  0  0  0  0
    7.8596  -11.7152   26.1725 C   0  0  0  0  0  0  0  0  0  0  0  0
    7.8555  -12.5630   25.0798 C   0  0  0  0  0  0  0  0  0  0  0  0
    8.9211  -16.0640   25.1354 C   0  0  0  0  0  0  0  0  0  0  0  0
    8.2850  -17.1082   25.4292 O   0  0  0  0  0  0  0  0  0  0  0  0
   12.5465  -15.0628   27.2634 C   0  0  0  0  0  0  0  0  0  0  0  0
   11.9636  -16.4492   27.0808 C   0  0  2  0  0  0  0  0  0  0  0  0
   12.4788  -16.9791   25.7596 C   0  0  0  0  0  0  0  0  0  0  0  0
   10.4511  -16.4203   27.0518 C   0  0  2  0  0  0  0  0  0  0  0  0
    9.9449  -15.5996   25.9854 N   0  0  0  0  0  0  0  0  0  0  0  0
    9.9712  -15.8867   28.3400 C   0  0  0  0  0  0  0  0  0  0  0  0
   10.1314  -16.5656   29.3815 O   0  0  0  0  0  0  0  0  0  0  0  0
    9.3441  -14.6561   28.4563 O   0  0  0  0  0  0  0  0  0  0  0  0
  2  1  1  6
  2  3  1  0
  4  3  1  0
  4  8  1  0
  5  4  2  0
  6  2  1  0
  7  6  2  0
  9  6  1  0
 10  9  1  0
 10 11  1  1
 12 11  1  0
 12 13  2  0
 14 13  1  0
 15 14  2  0
 16 17  2  0
 16 15  1  0
 17 12  1  0
 18 10  1  0
 18 24  1  0
 19 18  2  0
 21 20  1  6
 21 23  1  0
 22 21  1  0
 23 24  1  6
 23 25  1  0
 25 27  1  0
 26 25  2  0
M  END
$$$$
