DFV.pdb
     RDKit          3D

 27 27  0  0  1  0  0  0  0  0999 V2000
   10.2244  -18.2140   20.8153 N   0  0  0  0  0  0  0  0  0  0  0  0
   11.3056  -17.3210   21.0940 C   0  0  1  0  0  0  0  0  0  0  0  0
   11.8231  -16.6267   19.8547 C   0  0  0  0  0  0  0  0  0  0  0  0
   12.7876  -17.4578   19.1134 C   0  0  0  0  0  0  0  0  0  0  0  0
   13.7143  -16.9183   18.4822 O   0  0  0  0  0  0  0  0  0  0  0  0
   10.8827  -16.3496   22.1334 C   0  0  0  0  0  0  0  0  0  0  0  0
   11.6306  -15.4262   22.5243 O   0  0  0  0  0  0  0  0  0  0  0  0
   12.6659  -18.8273   19.1178 O   0  0  0  0  0  0  0  0  0  0  0  0
    9.5936  -16.4769   22.6952 N   0  0  0  0  0  0  0  0  0  0  0  0
    9.0665  -15.6287   23.7229 C   0  0  1  0  0  0  0  0  0  0  0  0
    7.5706  -15.5147   23.5455 C   0  0  0  0  0  0  0  0  0  0  0  0
    7.1395  -14.3553   24.4051 C   0  0  0  0  0  0  0  0  0  0  0  0
    7.5759  -13.0867   24.0967 C   0  0  0  0  0  0  0  0  0  0  0  0
    7.1914  -11.9979   24.8759 C   0  0  0  0  0  0  0  0  0  0  0  0
    6.3689  -12.1619   25.9691 C   0  0  0  0  0  0  0  0  0  0  0  0
    5.9326  -13.4439   26.2741 C   0  0  0  0  0  0  0  0  0  0  0  0
    6.3195  -14.5190   25.4949 C   0  0  0  0  0  0  0  0  0  0  0  0
    9.4718  -16.0087   25.0764 C   0  0  0  0  0  0  0  0  0  0  0  0
    9.7348  -17.2168   25.3055 O   0  0  0  0  0  0  0  0  0  0  0  0
    9.8523  -13.0497   28.1849 C   0  0  0  0  0  0  0  0  0  0  0  0
    9.5953  -14.5094   28.4982 C   0  0  2  0  0  0  0  0  0  0  0  0
   10.3286  -14.8255   29.7843 C   0  0  0  0  0  0  0  0  0  0  0  0
   10.1036  -15.4152   27.3979 C   0  0  2  0  0  0  0  0  0  0  0  0
    9.5707  -15.0572   26.1115 N   0  0  0  0  0  0  0  0  0  0  0  0
    9.7077  -16.7999   27.7151 C   0  0  0  0  0  0  0  0  0  0  0  0
    8.5696  -17.2034   27.3786 O   0  0  0  0  0  0  0  0  0  0  0  0
   10.5432  -17.6873   28.3752 O   0  0  0  0  0  0  0  0  0  0  0  0
  2  1  1  6
  2  3  1  0
  4  3  1  0
  4  8  1  0
  5  4  2  0
  6  2  1  0
  7  6  2  0
  9  6  1  0
 10  9  1  0
 10 11  1  1
 12 11  1  0
 12 13  2  0
 14 13  1  0
 15 14  2  0
 16 17  2  0
 16 15  1  0
 17 12  1  0
 18 10  1  0
 18 24  1  0
 19 18  2  0
 21 20  1  6
 21 23  1  0
 22 21  1  0
 23 24  1  6
 23 25  1  0
 25 27  1  0
 26 25  2  0
M  END
$$$$
