DFV.pdb
     RDKit          3D

 27 27  0  0  1  0  0  0  0  0999 V2000
   11.5601  -16.4550   20.0074 N   0  0  0  0  0  0  0  0  0  0  0  0
   11.1760  -17.2019   21.1645 C   0  0  1  0  0  0  0  0  0  0  0  0
   12.2340  -18.1910   21.5983 C   0  0  0  0  0  0  0  0  0  0  0  0
   12.5730  -19.1469   20.5298 C   0  0  0  0  0  0  0  0  0  0  0  0
   11.6747  -19.6075   19.8023 O   0  0  0  0  0  0  0  0  0  0  0  0
   10.8191  -16.2628   22.2571 C   0  0  0  0  0  0  0  0  0  0  0  0
   11.6350  -15.4309   22.7119 O   0  0  0  0  0  0  0  0  0  0  0  0
   13.8787  -19.5306   20.3349 O   0  0  0  0  0  0  0  0  0  0  0  0
    9.5152  -16.3151   22.7963 N   0  0  0  0  0  0  0  0  0  0  0  0
    9.0307  -15.4590   23.8382 C   0  0  1  0  0  0  0  0  0  0  0  0
    7.5734  -15.1528   23.5835 C   0  0  0  0  0  0  0  0  0  0  0  0
    7.1765  -14.1371   24.6226 C   0  0  0  0  0  0  0  0  0  0  0  0
    6.4244  -14.5359   25.7043 C   0  0  0  0  0  0  0  0  0  0  0  0
    6.0445  -13.6159   26.6790 C   0  0  0  0  0  0  0  0  0  0  0  0
    6.4098  -12.2906   26.5857 C   0  0  0  0  0  0  0  0  0  0  0  0
    7.1682  -11.8956   25.4922 C   0  0  0  0  0  0  0  0  0  0  0  0
    7.5408  -12.8159   24.5295 C   0  0  0  0  0  0  0  0  0  0  0  0
    9.3017  -15.9509   25.1892 C   0  0  0  0  0  0  0  0  0  0  0  0
    9.3413  -17.1936   25.3769 O   0  0  0  0  0  0  0  0  0  0  0  0
   10.8858  -13.1928   28.0884 C   0  0  0  0  0  0  0  0  0  0  0  0
   10.1676  -14.4464   28.5440 C   0  0  2  0  0  0  0  0  0  0  0  0
   10.9038  -14.9649   29.7609 C   0  0  0  0  0  0  0  0  0  0  0  0
   10.1665  -15.5118   27.4695 C   0  0  2  0  0  0  0  0  0  0  0  0
    9.5158  -15.0680   26.2667 N   0  0  0  0  0  0  0  0  0  0  0  0
    9.4604  -16.6970   27.9902 C   0  0  0  0  0  0  0  0  0  0  0  0
    8.2543  -16.8694   27.6956 O   0  0  0  0  0  0  0  0  0  0  0  0
   10.0732  -17.6409   28.7994 O   0  0  0  0  0  0  0  0  0  0  0  0
  2  1  1  6
  2  3  1  0
  4  3  1  0
  4  8  1  0
  5  4  2  0
  6  2  1  0
  7  6  2  0
  9  6  1  0
 10  9  1  0
 10 11  1  6
 12 11  1  0
 12 13  2  0
 14 13  1  0
 15 14  2  0
 16 17  2  0
 16 15  1  0
 17 12  1  0
 18 10  1  0
 18 24  1  0
 19 18  2  0
 21 20  1  6
 21 23  1  0
 22 21  1  0
 23 24  1  6
 23 25  1  0
 25 27  1  0
 26 25  2  0
M  END
$$$$
