DFV.pdb
     RDKit          3D

 27 27  0  0  1  0  0  0  0  0999 V2000
    9.9954  -18.0068   20.7437 N   0  0  0  0  0  0  0  0  0  0  0  0
   11.1439  -17.2831   21.1925 C   0  0  1  0  0  0  0  0  0  0  0  0
   11.8918  -16.6154   20.0608 C   0  0  0  0  0  0  0  0  0  0  0  0
   12.2983  -17.5757   19.0202 C   0  0  0  0  0  0  0  0  0  0  0  0
   12.7274  -18.6975   19.3454 O   0  0  0  0  0  0  0  0  0  0  0  0
   10.7319  -16.3068   22.2318 C   0  0  0  0  0  0  0  0  0  0  0  0
   11.4998  -15.4086   22.6421 O   0  0  0  0  0  0  0  0  0  0  0  0
   12.2045  -17.2352   17.6915 O   0  0  0  0  0  0  0  0  0  0  0  0
    9.4302  -16.4000   22.7708 N   0  0  0  0  0  0  0  0  0  0  0  0
    8.9397  -15.6023   23.8555 C   0  0  1  0  0  0  0  0  0  0  0  0
    7.4387  -15.4809   23.7354 C   0  0  0  0  0  0  0  0  0  0  0  0
    7.0426  -14.3407   24.6365 C   0  0  0  0  0  0  0  0  0  0  0  0
    6.3746  -14.6077   25.8100 C   0  0  0  0  0  0  0  0  0  0  0  0
    5.9974  -13.5709   26.6604 C   0  0  0  0  0  0  0  0  0  0  0  0
    6.2817  -12.2588   26.3504 C   0  0  0  0  0  0  0  0  0  0  0  0
    6.9556  -11.9969   25.1654 C   0  0  0  0  0  0  0  0  0  0  0  0
    7.3262  -13.0327   24.3272 C   0  0  0  0  0  0  0  0  0  0  0  0
    9.3910  -16.0464   25.1745 C   0  0  0  0  0  0  0  0  0  0  0  0
    9.6243  -17.2699   25.3466 O   0  0  0  0  0  0  0  0  0  0  0  0
   10.5906  -13.1509   28.1442 C   0  0  0  0  0  0  0  0  0  0  0  0
   10.0767  -14.5166   28.5513 C   0  0  2  0  0  0  0  0  0  0  0  0
   10.8805  -14.9544   29.7571 C   0  0  0  0  0  0  0  0  0  0  0  0
   10.2472  -15.5315   27.4421 C   0  0  2  0  0  0  0  0  0  0  0  0
    9.5658  -15.1389   26.2386 N   0  0  0  0  0  0  0  0  0  0  0  0
    9.7036  -16.8219   27.9047 C   0  0  0  0  0  0  0  0  0  0  0  0
    8.4821  -17.0603   27.7555 O   0  0  0  0  0  0  0  0  0  0  0  0
   10.4875  -17.7957   28.5036 O   0  0  0  0  0  0  0  0  0  0  0  0
  2  1  1  6
  2  3  1  0
  4  3  1  0
  4  8  1  0
  5  4  2  0
  6  2  1  0
  7  6  2  0
  9  6  1  0
 10  9  1  0
 10 11  1  1
 12 11  1  0
 12 13  2  0
 14 13  1  0
 15 14  2  0
 16 17  2  0
 16 15  1  0
 17 12  1  0
 18 10  1  0
 18 24  1  0
 19 18  2  0
 21 20  1  6
 21 23  1  0
 22 21  1  0
 23 24  1  6
 23 25  1  0
 25 27  1  0
 26 25  2  0
M  END
$$$$
