DFV.pdb
     RDKit          3D

 27 27  0  0  1  0  0  0  0  0999 V2000
   10.5550  -16.3823   19.5916 N   0  0  0  0  0  0  0  0  0  0  0  0
    9.7768  -17.0313   20.6003 C   0  0  1  0  0  0  0  0  0  0  0  0
   10.1983  -18.4650   20.8301 C   0  0  0  0  0  0  0  0  0  0  0  0
    9.9172  -19.3208   19.6644 C   0  0  0  0  0  0  0  0  0  0  0  0
   10.7285  -19.3709   18.7223 O   0  0  0  0  0  0  0  0  0  0  0  0
    9.8330  -16.2337   21.8507 C   0  0  0  0  0  0  0  0  0  0  0  0
   10.9167  -15.8843   22.3685 O   0  0  0  0  0  0  0  0  0  0  0  0
    8.7614  -20.0637   19.6156 O   0  0  0  0  0  0  0  0  0  0  0  0
    8.6208  -15.8602   22.4710 N   0  0  0  0  0  0  0  0  0  0  0  0
    8.5271  -15.1208   23.6948 C   0  0  1  0  0  0  0  0  0  0  0  0
    7.2676  -14.2871   23.6690 C   0  0  0  0  0  0  0  0  0  0  0  0
    7.2501  -13.5239   24.9676 C   0  0  0  0  0  0  0  0  0  0  0  0
    8.0603  -12.4207   25.1137 C   0  0  0  0  0  0  0  0  0  0  0  0
    8.0625  -11.6980   26.3046 C   0  0  0  0  0  0  0  0  0  0  0  0
    7.2582  -12.0668   27.3608 C   0  0  0  0  0  0  0  0  0  0  0  0
    6.4438  -13.1803   27.2064 C   0  0  0  0  0  0  0  0  0  0  0  0
    6.4482  -13.8918   26.0204 C   0  0  0  0  0  0  0  0  0  0  0  0
    8.6667  -15.9398   24.8991 C   0  0  0  0  0  0  0  0  0  0  0  0
    7.8106  -16.8347   25.1169 O   0  0  0  0  0  0  0  0  0  0  0  0
   12.4499  -16.3993   26.6973 C   0  0  0  0  0  0  0  0  0  0  0  0
   11.2955  -17.3794   26.7381 C   0  0  2  0  0  0  0  0  0  0  0  0
   11.3170  -18.1484   25.4343 C   0  0  0  0  0  0  0  0  0  0  0  0
    9.9657  -16.6714   26.8785 C   0  0  2  0  0  0  0  0  0  0  0  0
    9.7288  -15.7449   25.8050 N   0  0  0  0  0  0  0  0  0  0  0  0
    9.9621  -15.9378   28.1578 C   0  0  0  0  0  0  0  0  0  0  0  0
    9.9425  -14.6845   28.1447 O   0  0  0  0  0  0  0  0  0  0  0  0
    9.9794  -16.5748   29.3887 O   0  0  0  0  0  0  0  0  0  0  0  0
  2  1  1  6
  2  3  1  0
  4  3  1  0
  4  8  1  0
  5  4  2  0
  6  2  1  0
  7  6  2  0
  9  6  1  0
 10  9  1  0
 10 11  1  1
 12 11  1  0
 12 13  2  0
 14 13  1  0
 15 14  2  0
 16 17  2  0
 16 15  1  0
 17 12  1  0
 18 10  1  0
 18 24  1  0
 19 18  2  0
 21 20  1  6
 21 23  1  0
 22 21  1  0
 23 24  1  6
 23 25  1  0
 25 27  1  0
 26 25  2  0
M  END
$$$$
