DFV.pdb
     RDKit          3D

 27 27  0  0  1  0  0  0  0  0999 V2000
   10.1825  -16.2424   19.1363 N   0  0  0  0  0  0  0  0  0  0  0  0
    9.2209  -16.7225   20.0793 C   0  0  1  0  0  0  0  0  0  0  0  0
    9.2785  -18.2226   20.2589 C   0  0  0  0  0  0  0  0  0  0  0  0
    8.9434  -18.9443   19.0191 C   0  0  0  0  0  0  0  0  0  0  0  0
    9.7770  -19.7109   18.5036 O   0  0  0  0  0  0  0  0  0  0  0  0
    9.3986  -16.0065   21.3672 C   0  0  0  0  0  0  0  0  0  0  0  0
   10.5269  -15.6750   21.7936 O   0  0  0  0  0  0  0  0  0  0  0  0
    7.7126  -18.7727   18.4310 O   0  0  0  0  0  0  0  0  0  0  0  0
    8.2535  -15.6922   22.1311 N   0  0  0  0  0  0  0  0  0  0  0  0
    8.2813  -15.0580   23.4157 C   0  0  1  0  0  0  0  0  0  0  0  0
    7.0143  -14.2549   23.5939 C   0  0  0  0  0  0  0  0  0  0  0  0
    7.1178  -13.6152   24.9536 C   0  0  0  0  0  0  0  0  0  0  0  0
    7.8404  -12.4528   25.1000 C   0  0  0  0  0  0  0  0  0  0  0  0
    7.9513  -11.8416   26.3469 C   0  0  0  0  0  0  0  0  0  0  0  0
    7.3439  -12.3820   27.4594 C   0  0  0  0  0  0  0  0  0  0  0  0
    6.6169  -13.5543   27.3044 C   0  0  0  0  0  0  0  0  0  0  0  0
    6.5122  -14.1541   26.0626 C   0  0  0  0  0  0  0  0  0  0  0  0
    8.5616  -15.9696   24.5253 C   0  0  0  0  0  0  0  0  0  0  0  0
    7.7765  -16.9318   24.7224 O   0  0  0  0  0  0  0  0  0  0  0  0
   11.8755  -17.7003   24.6407 C   0  0  0  0  0  0  0  0  0  0  0  0
   11.6032  -17.1529   26.0268 C   0  0  2  0  0  0  0  0  0  0  0  0
   12.0309  -18.2145   27.0176 C   0  0  0  0  0  0  0  0  0  0  0  0
   10.1356  -16.8444   26.2276 C   0  0  2  0  0  0  0  0  0  0  0  0
    9.6802  -15.7894   25.3636 N   0  0  0  0  0  0  0  0  0  0  0  0
    9.9332  -16.4393   27.6310 C   0  0  0  0  0  0  0  0  0  0  0  0
    9.9955  -15.2242   27.9324 O   0  0  0  0  0  0  0  0  0  0  0  0
    9.6743  -17.3481   28.6451 O   0  0  0  0  0  0  0  0  0  0  0  0
  2  1  1  6
  2  3  1  0
  4  3  1  0
  4  8  1  0
  5  4  2  0
  6  2  1  0
  7  6  2  0
  9  6  1  0
 10  9  1  0
 10 11  1  1
 12 11  1  0
 12 13  2  0
 14 13  1  0
 15 14  2  0
 16 17  2  0
 16 15  1  0
 17 12  1  0
 18 10  1  0
 18 24  1  0
 19 18  2  0
 21 20  1  6
 21 23  1  0
 22 21  1  0
 23 24  1  6
 23 25  1  0
 25 27  1  0
 26 25  2  0
M  END
$$$$
