DFV.pdb
     RDKit          3D

 27 27  0  0  1  0  0  0  0  0999 V2000
   10.2869  -17.7177   20.5782 N   0  0  0  0  0  0  0  0  0  0  0  0
   11.4386  -17.1935   21.2438 C   0  0  1  0  0  0  0  0  0  0  0  0
   12.3798  -16.4755   20.3033 C   0  0  0  0  0  0  0  0  0  0  0  0
   12.9566  -17.3816   19.2951 C   0  0  0  0  0  0  0  0  0  0  0  0
   12.5062  -18.5345   19.1678 O   0  0  0  0  0  0  0  0  0  0  0  0
   11.0025  -16.3184   22.3606 C   0  0  0  0  0  0  0  0  0  0  0  0
   11.7976  -15.5645   22.9641 O   0  0  0  0  0  0  0  0  0  0  0  0
   13.9908  -16.9563   18.4953 O   0  0  0  0  0  0  0  0  0  0  0  0
    9.6454  -16.3422   22.7496 N   0  0  0  0  0  0  0  0  0  0  0  0
    9.0893  -15.5559   23.8107 C   0  0  1  0  0  0  0  0  0  0  0  0
    7.6001  -15.4235   23.5945 C   0  0  0  0  0  0  0  0  0  0  0  0
    7.1476  -14.3106   24.5031 C   0  0  0  0  0  0  0  0  0  0  0  0
    7.6093  -13.0320   24.2868 C   0  0  0  0  0  0  0  0  0  0  0  0
    7.2058  -11.9854   25.1129 C   0  0  0  0  0  0  0  0  0  0  0  0
    6.3390  -12.2021   26.1618 C   0  0  0  0  0  0  0  0  0  0  0  0
    5.8775  -13.4939   26.3740 C   0  0  0  0  0  0  0  0  0  0  0  0
    6.2834  -14.5268   25.5487 C   0  0  0  0  0  0  0  0  0  0  0  0
    9.4510  -16.0201   25.1502 C   0  0  0  0  0  0  0  0  0  0  0  0
    9.6985  -17.2420   25.3136 O   0  0  0  0  0  0  0  0  0  0  0  0
   10.5718  -13.1339   28.0876 C   0  0  0  0  0  0  0  0  0  0  0  0
   10.0215  -14.4684   28.5473 C   0  0  2  0  0  0  0  0  0  0  0  0
   10.8211  -14.8856   29.7631 C   0  0  0  0  0  0  0  0  0  0  0  0
   10.1543  -15.5272   27.4746 C   0  0  2  0  0  0  0  0  0  0  0  0
    9.5254  -15.1334   26.2433 N   0  0  0  0  0  0  0  0  0  0  0  0
    9.5225  -16.7667   27.9636 C   0  0  0  0  0  0  0  0  0  0  0  0
    8.3132  -16.9783   27.7104 O   0  0  0  0  0  0  0  0  0  0  0  0
   10.2093  -17.7203   28.6985 O   0  0  0  0  0  0  0  0  0  0  0  0
  2  1  1  6
  2  3  1  0
  4  3  1  0
  4  8  1  0
  5  4  2  0
  6  2  1  0
  7  6  2  0
  9  6  1  0
 10  9  1  0
 10 11  1  1
 12 11  1  0
 12 13  2  0
 14 13  1  0
 15 14  2  0
 16 17  2  0
 16 15  1  0
 17 12  1  0
 18 10  1  0
 18 24  1  0
 19 18  2  0
 21 20  1  6
 21 23  1  0
 22 21  1  0
 23 24  1  6
 23 25  1  0
 25 27  1  0
 26 25  2  0
M  END
$$$$
