WPC.pdb
     RDKit          3D

 28 30  0  0  1  0  0  0  0  0999 V2000
   23.5915  -21.6038  -13.7920 N   0  0  0  0  0  0  0  0  0  0  0  0
   24.5935  -20.6819  -13.2502 C   0  0  1  0  0  0  0  0  0  0  0  0
   23.8735  -19.3775  -13.0348 C   0  0  0  0  0  0  0  0  0  0  0  0
   23.8803  -18.4505  -14.1687 C   0  0  0  0  0  0  0  0  0  0  0  0
   22.8398  -18.1967  -15.0166 C   0  0  0  0  0  0  0  0  0  0  0  0
   23.2215  -17.3200  -15.9581 N   0  0  0  0  0  0  0  0  0  0  0  0
   24.5172  -16.9994  -15.7230 C   0  0  0  0  0  0  0  0  0  0  0  0
   25.4089  -16.1615  -16.3369 C   0  0  0  0  0  0  0  0  0  0  0  0
   26.7026  -15.9668  -15.9160 C   0  0  0  0  0  0  0  0  0  0  0  0
   27.1120  -16.6716  -14.7982 C   0  0  0  0  0  0  0  0  0  0  0  0
   26.2594  -17.5172  -14.1553 C   0  0  0  0  0  0  0  0  0  0  0  0
   24.9476  -17.7000  -14.6025 C   0  0  0  0  0  0  0  0  0  0  0  0
   25.2048  -21.1709  -12.0051 C   0  0  0  0  0  0  0  0  0  0  0  0
   24.4354  -21.9424  -11.3248 O   0  0  0  0  0  0  0  0  0  0  0  0
   26.5012  -20.8698  -11.5341 N   0  0  0  0  0  0  0  0  0  0  0  0
   27.4086  -19.9365  -12.1271 C   0  0  0  0  0  0  0  0  0  0  0  0
   28.7596  -20.3769  -11.6858 C   0  0  0  0  0  0  0  0  0  0  0  0
   28.5435  -21.6433  -10.8769 C   0  0  0  0  0  0  0  0  0  0  0  0
   27.1170  -21.4518  -10.3753 C   0  0  1  0  0  0  0  0  0  0  0  0
   27.0698  -20.5969   -9.1800 C   0  0  0  0  0  0  0  0  0  0  0  0
   27.0978  -19.3478   -9.3019 O   0  0  0  0  0  0  0  0  0  0  0  0
   26.9923  -21.0882   -7.8512 N   0  0  0  0  0  0  0  0  0  0  0  0
   27.1007  -20.2513   -6.6745 C   0  0  1  0  0  0  0  0  0  0  0  0
   27.1450  -21.0705   -5.4007 C   0  0  0  0  0  0  0  0  0  0  0  0
   27.4234  -20.0291   -3.9601 S   0  0  0  0  0  0  0  0  0  0  0  0
   28.3634  -19.4823   -6.7593 C   0  0  0  0  0  0  0  0  0  0  0  0
   28.4911  -18.1685   -6.3215 O   0  0  0  0  0  0  0  0  0  0  0  0
   29.3891  -20.0128   -7.2457 O   0  0  0  0  0  0  0  0  0  0  0  0
  2  1  1  1
  3  4  1  0
  3  2  1  0
  4 12  1  0
  5  4  2  0
  5  6  1  0
  6  7  1  0
  7  8  1  0
  8  9  2  0
 10  9  1  0
 11 10  2  0
 12  7  2  0
 12 11  1  0
 13 15  1  0
 13  2  1  0
 14 13  2  0
 15 16  1  0
 17 16  1  0
 18 17  1  0
 19 18  1  0
 19 20  1  1
 19 15  1  0
 20 21  2  0
 22 23  1  0
 22 20  1  0
 23 26  1  0
 23 24  1  1
 25 24  1  0
 26 28  2  0
 26 27  1  0
M  END
$$$$
