WPC.pdb
     RDKit          3D

 28 30  0  0  1  0  0  0  0  0999 V2000
   27.1524  -22.6324  -11.9691 N   0  0  0  0  0  0  0  0  0  0  0  0
   26.2457  -21.7808  -11.1945 C   0  0  1  0  0  0  0  0  0  0  0  0
   27.0033  -20.5053  -10.9383 C   0  0  0  0  0  0  0  0  0  0  0  0
   28.0586  -20.5830   -9.9257 C   0  0  0  0  0  0  0  0  0  0  0  0
   29.3248  -21.0626  -10.1073 C   0  0  0  0  0  0  0  0  0  0  0  0
   30.0021  -21.0129   -8.9500 N   0  0  0  0  0  0  0  0  0  0  0  0
   29.1742  -20.4976   -8.0086 C   0  0  0  0  0  0  0  0  0  0  0  0
   29.3206  -20.2090   -6.6784 C   0  0  0  0  0  0  0  0  0  0  0  0
   28.3345  -19.6619   -5.8930 C   0  0  0  0  0  0  0  0  0  0  0  0
   27.1227  -19.3925   -6.5035 C   0  0  0  0  0  0  0  0  0  0  0  0
   26.9311  -19.6637   -7.8245 C   0  0  0  0  0  0  0  0  0  0  0  0
   27.9491  -20.2213   -8.6036 C   0  0  0  0  0  0  0  0  0  0  0  0
   24.9747  -21.5215  -11.8877 C   0  0  0  0  0  0  0  0  0  0  0  0
   25.0240  -21.7492  -13.1509 O   0  0  0  0  0  0  0  0  0  0  0  0
   23.7758  -21.0675  -11.2964 N   0  0  0  0  0  0  0  0  0  0  0  0
   23.6601  -20.4550  -10.0089 C   0  0  0  0  0  0  0  0  0  0  0  0
   22.2517  -20.6932   -9.5925 C   0  0  0  0  0  0  0  0  0  0  0  0
   21.6257  -21.5305  -10.6932 C   0  0  0  0  0  0  0  0  0  0  0  0
   22.4749  -21.1440  -11.8985 C   0  0  1  0  0  0  0  0  0  0  0  0
   22.0209  -19.8831  -12.5033 C   0  0  0  0  0  0  0  0  0  0  0  0
   22.1702  -18.8017  -11.8835 O   0  0  0  0  0  0  0  0  0  0  0  0
   21.4049  -19.7868  -13.7779 N   0  0  0  0  0  0  0  0  0  0  0  0
   21.0565  -18.5327  -14.4123 C   0  0  1  0  0  0  0  0  0  0  0  0
   21.9835  -18.2062  -15.5653 C   0  0  0  0  0  0  0  0  0  0  0  0
   21.4928  -16.6850  -16.3915 S   0  0  0  0  0  0  0  0  0  0  0  0
   19.6840  -18.6466  -14.9565 C   0  0  0  0  0  0  0  0  0  0  0  0
   18.7809  -17.5893  -14.9849 O   0  0  0  0  0  0  0  0  0  0  0  0
   19.2832  -19.7382  -15.4233 O   0  0  0  0  0  0  0  0  0  0  0  0
  2  1  1  6
  3  4  1  0
  3  2  1  0
  4 12  1  0
  5  4  2  0
  5  6  1  0
  6  7  1  0
  7  8  1  0
  8  9  2  0
 10  9  1  0
 11 10  2  0
 12  7  2  0
 12 11  1  0
 13 15  1  0
 13  2  1  0
 14 13  2  0
 15 16  1  0
 17 16  1  0
 18 17  1  0
 19 18  1  0
 19 20  1  1
 19 15  1  0
 20 21  2  0
 22 23  1  0
 22 20  1  0
 23 26  1  0
 23 24  1  6
 25 24  1  0
 26 28  2  0
 26 27  1  0
M  END
$$$$
