WPC.pdb
     RDKit          3D

 28 30  0  0  1  0  0  0  0  0999 V2000
   27.4002  -17.5744  -14.7017 N   0  0  0  0  0  0  0  0  0  0  0  0
   27.2305  -18.9833  -14.3362 C   0  0  1  0  0  0  0  0  0  0  0  0
   26.0039  -19.0338  -13.4648 C   0  0  0  0  0  0  0  0  0  0  0  0
   26.2281  -18.8110  -12.0347 C   0  0  0  0  0  0  0  0  0  0  0  0
   26.8029  -17.7108  -11.4644 C   0  0  0  0  0  0  0  0  0  0  0  0
   26.8763  -17.8719  -10.1342 N   0  0  0  0  0  0  0  0  0  0  0  0
   26.3462  -19.0828   -9.8349 C   0  0  0  0  0  0  0  0  0  0  0  0
   26.1464  -19.7626   -8.6635 C   0  0  0  0  0  0  0  0  0  0  0  0
   25.5623  -21.0038   -8.5799 C   0  0  0  0  0  0  0  0  0  0  0  0
   25.1566  -21.5880   -9.7664 C   0  0  0  0  0  0  0  0  0  0  0  0
   25.3358  -20.9491  -10.9560 C   0  0  0  0  0  0  0  0  0  0  0  0
   25.9334  -19.6868  -11.0165 C   0  0  0  0  0  0  0  0  0  0  0  0
   27.0957  -19.8642  -15.5062 C   0  0  0  0  0  0  0  0  0  0  0  0
   26.4396  -19.3334  -16.4746 O   0  0  0  0  0  0  0  0  0  0  0  0
   27.6073  -21.1740  -15.6317 N   0  0  0  0  0  0  0  0  0  0  0  0
   28.3113  -21.8957  -14.6169 C   0  0  0  0  0  0  0  0  0  0  0  0
   29.1241  -22.9024  -15.3516 C   0  0  0  0  0  0  0  0  0  0  0  0
   28.8778  -22.6432  -16.8270 C   0  0  0  0  0  0  0  0  0  0  0  0
   27.4974  -21.9971  -16.8027 C   0  0  1  0  0  0  0  0  0  0  0  0
   26.4267  -23.0021  -16.7289 C   0  0  0  0  0  0  0  0  0  0  0  0
   26.4327  -23.8574  -15.8100 O   0  0  0  0  0  0  0  0  0  0  0  0
   25.3476  -23.0859  -17.6463 N   0  0  0  0  0  0  0  0  0  0  0  0
   24.2187  -23.9780  -17.4841 C   0  0  1  0  0  0  0  0  0  0  0  0
   22.8978  -23.2483  -17.6195 C   0  0  0  0  0  0  0  0  0  0  0  0
   22.9492  -22.0397  -18.9514 S   0  0  0  0  0  0  0  0  0  0  0  0
   24.2759  -25.0067  -18.5477 C   0  0  0  0  0  0  0  0  0  0  0  0
   25.1134  -24.9188  -19.6545 O   0  0  0  0  0  0  0  0  0  0  0  0
   23.5447  -26.0219  -18.4780 O   0  0  0  0  0  0  0  0  0  0  0  0
  2  1  1  6
  3  4  1  0
  3  2  1  0
  4 12  1  0
  5  4  2  0
  5  6  1  0
  6  7  1  0
  7  8  1  0
  8  9  2  0
 10  9  1  0
 11 10  2  0
 12  7  2  0
 12 11  1  0
 13 15  1  0
 13  2  1  0
 14 13  2  0
 15 16  1  0
 17 16  1  0
 18 17  1  0
 19 18  1  0
 19 20  1  1
 19 15  1  0
 20 21  2  0
 22 23  1  0
 22 20  1  0
 23 26  1  0
 23 24  1  6
 25 24  1  0
 26 28  2  0
 26 27  1  0
M  END
$$$$
