WPC.pdb
     RDKit          3D

 28 30  0  0  1  0  0  0  0  0999 V2000
   25.5107  -22.1744  -14.0425 N   0  0  0  0  0  0  0  0  0  0  0  0
   24.9774  -21.3706  -12.9393 C   0  0  1  0  0  0  0  0  0  0  0  0
   23.8749  -22.1949  -12.3299 C   0  0  0  0  0  0  0  0  0  0  0  0
   22.6118  -22.2178  -13.0708 C   0  0  0  0  0  0  0  0  0  0  0  0
   22.2181  -23.1621  -13.9761 C   0  0  0  0  0  0  0  0  0  0  0  0
   21.0183  -22.8375  -14.4818 N   0  0  0  0  0  0  0  0  0  0  0  0
   20.6266  -21.6761  -13.9031 C   0  0  0  0  0  0  0  0  0  0  0  0
   19.5091  -20.8936  -14.0184 C   0  0  0  0  0  0  0  0  0  0  0  0
   19.3005  -19.7346  -13.3099 C   0  0  0  0  0  0  0  0  0  0  0  0
   20.2949  -19.3499  -12.4285 C   0  0  0  0  0  0  0  0  0  0  0  0
   21.4245  -20.0968  -12.2814 C   0  0  0  0  0  0  0  0  0  0  0  0
   21.6151  -21.2722  -13.0137 C   0  0  0  0  0  0  0  0  0  0  0  0
   26.0004  -21.0196  -11.9426 C   0  0  0  0  0  0  0  0  0  0  0  0
   26.9390  -21.8908  -11.8425 O   0  0  0  0  0  0  0  0  0  0  0  0
   26.0215  -19.8606  -11.1368 N   0  0  0  0  0  0  0  0  0  0  0  0
   24.9845  -18.8781  -11.0608 C   0  0  0  0  0  0  0  0  0  0  0  0
   25.6612  -17.6367  -10.5972 C   0  0  0  0  0  0  0  0  0  0  0  0
   27.1366  -17.9785  -10.4922 C   0  0  0  0  0  0  0  0  0  0  0  0
   27.0908  -19.4836  -10.2563 C   0  0  1  0  0  0  0  0  0  0  0  0
   26.8438  -19.8065   -8.8432 C   0  0  0  0  0  0  0  0  0  0  0  0
   25.6902  -20.1276   -8.4665 O   0  0  0  0  0  0  0  0  0  0  0  0
   27.8412  -19.7835   -7.8343 N   0  0  0  0  0  0  0  0  0  0  0  0
   27.8975  -20.7237   -6.7346 C   0  0  1  0  0  0  0  0  0  0  0  0
   29.3009  -20.8620   -6.1808 C   0  0  0  0  0  0  0  0  0  0  0  0
   29.9872  -19.2625   -5.7249 S   0  0  0  0  0  0  0  0  0  0  0  0
   27.0302  -20.2236   -5.6435 C   0  0  0  0  0  0  0  0  0  0  0  0
   26.7057  -20.9732   -4.5180 O   0  0  0  0  0  0  0  0  0  0  0  0
   26.5468  -19.0692   -5.7061 O   0  0  0  0  0  0  0  0  0  0  0  0
  2  1  1  6
  3  4  1  0
  3  2  1  0
  4 12  1  0
  5  4  2  0
  5  6  1  0
  6  7  1  0
  7  8  1  0
  8  9  2  0
 10  9  1  0
 11 10  2  0
 12  7  2  0
 12 11  1  0
 13 15  1  0
 13  2  1  0
 14 13  2  0
 15 16  1  0
 17 16  1  0
 18 17  1  0
 19 18  1  0
 19 20  1  1
 19 15  1  0
 20 21  2  0
 22 23  1  0
 22 20  1  0
 23 26  1  0
 23 24  1  1
 25 24  1  0
 26 28  2  0
 26 27  1  0
M  END
$$$$
