WPC.pdb
     RDKit          3D

 28 30  0  0  1  0  0  0  0  0999 V2000
   16.4678  -17.6178    2.1793 N   0  0  0  0  0  0  0  0  0  0  0  0
   17.4648  -18.4202    2.8931 C   0  0  1  0  0  0  0  0  0  0  0  0
   18.7986  -17.8109    2.5525 C   0  0  0  0  0  0  0  0  0  0  0  0
   19.4498  -18.3336    1.3493 C   0  0  0  0  0  0  0  0  0  0  0  0
   18.9363  -19.2577    0.4841 C   0  0  0  0  0  0  0  0  0  0  0  0
   19.8282  -19.5230   -0.4827 N   0  0  0  0  0  0  0  0  0  0  0  0
   20.9288  -18.7677   -0.2480 C   0  0  0  0  0  0  0  0  0  0  0  0
   22.1248  -18.6146   -0.8964 C   0  0  0  0  0  0  0  0  0  0  0  0
   23.1223  -17.7622   -0.4876 C   0  0  0  0  0  0  0  0  0  0  0  0
   22.8843  -17.0192    0.6548 C   0  0  0  0  0  0  0  0  0  0  0  0
   21.7091  -17.1392    1.3332 C   0  0  0  0  0  0  0  0  0  0  0  0
   20.7090  -18.0139    0.8987 C   0  0  0  0  0  0  0  0  0  0  0  0
   17.2412  -18.4472    4.3466 C   0  0  0  0  0  0  0  0  0  0  0  0
   16.6217  -17.4127    4.7892 O   0  0  0  0  0  0  0  0  0  0  0  0
   17.6360  -19.4702    5.2357 N   0  0  0  0  0  0  0  0  0  0  0  0
   18.2181  -20.7223    4.8616 C   0  0  0  0  0  0  0  0  0  0  0  0
   17.9165  -21.6419    5.9918 C   0  0  0  0  0  0  0  0  0  0  0  0
   17.0772  -20.8408    6.9708 C   0  0  0  0  0  0  0  0  0  0  0  0
   17.5204  -19.4147    6.6655 C   0  0  1  0  0  0  0  0  0  0  0  0
   18.7743  -19.0745    7.3541 C   0  0  0  0  0  0  0  0  0  0  0  0
   19.8747  -19.4193    6.8580 O   0  0  0  0  0  0  0  0  0  0  0  0
   18.8429  -18.3618    8.5790 N   0  0  0  0  0  0  0  0  0  0  0  0
   20.0545  -17.7598    9.0947 C   0  0  1  0  0  0  0  0  0  0  0  0
   19.7704  -16.4806    9.8554 C   0  0  0  0  0  0  0  0  0  0  0  0
   18.1509  -16.5283   10.6380 S   0  0  0  0  0  0  0  0  0  0  0  0
   20.6888  -18.7115   10.0354 C   0  0  0  0  0  0  0  0  0  0  0  0
   20.1343  -19.9421   10.3703 O   0  0  0  0  0  0  0  0  0  0  0  0
   21.7822  -18.4242   10.5757 O   0  0  0  0  0  0  0  0  0  0  0  0
  2  1  1  6
  3  4  1  0
  3  2  1  0
  4 12  1  0
  5  4  2  0
  5  6  1  0
  6  7  1  0
  7  8  1  0
  8  9  2  0
 10  9  1  0
 11 10  2  0
 12  7  2  0
 12 11  1  0
 13 15  1  0
 13  2  1  0
 14 13  2  0
 15 16  1  0
 17 16  1  0
 18 17  1  0
 19 18  1  0
 19 20  1  1
 19 15  1  0
 20 21  2  0
 22 23  1  0
 22 20  1  0
 23 26  1  0
 23 24  1  1
 25 24  1  0
 26 28  2  0
 26 27  1  0
M  END
$$$$
