WPC.pdb
     RDKit          3D

 28 30  0  0  1  0  0  0  0  0999 V2000
   24.7584  -22.0838  -13.7139 N   0  0  0  0  0  0  0  0  0  0  0  0
   25.5937  -21.0852  -13.0413 C   0  0  1  0  0  0  0  0  0  0  0  0
   24.6907  -19.9102  -12.7759 C   0  0  0  0  0  0  0  0  0  0  0  0
   24.4597  -19.0143  -13.9113 C   0  0  0  0  0  0  0  0  0  0  0  0
   23.2608  -18.7606  -14.5150 C   0  0  0  0  0  0  0  0  0  0  0  0
   23.4373  -17.9180  -15.5443 N   0  0  0  0  0  0  0  0  0  0  0  0
   24.7576  -17.6198  -15.6124 C   0  0  0  0  0  0  0  0  0  0  0  0
   25.5035  -16.8184  -16.4345 C   0  0  0  0  0  0  0  0  0  0  0  0
   26.8612  -16.6409  -16.3170 C   0  0  0  0  0  0  0  0  0  0  0  0
   27.4978  -17.3243  -15.2965 C   0  0  0  0  0  0  0  0  0  0  0  0
   26.7964  -18.1334  -14.4547 C   0  0  0  0  0  0  0  0  0  0  0  0
   25.4154  -18.2993  -14.5940 C   0  0  0  0  0  0  0  0  0  0  0  0
   26.1984  -21.5901  -11.7993 C   0  0  0  0  0  0  0  0  0  0  0  0
   25.5051  -22.5082  -11.2279 O   0  0  0  0  0  0  0  0  0  0  0  0
   27.4155  -21.1620  -11.2262 N   0  0  0  0  0  0  0  0  0  0  0  0
   28.2865  -20.1639  -11.7659 C   0  0  0  0  0  0  0  0  0  0  0  0
   29.6259  -20.4697  -11.1948 C   0  0  0  0  0  0  0  0  0  0  0  0
   29.4508  -21.7318  -10.3694 C   0  0  0  0  0  0  0  0  0  0  0  0
   27.9737  -21.6592  -10.0006 C   0  0  1  0  0  0  0  0  0  0  0  0
   27.7438  -20.7851   -8.8409 C   0  0  0  0  0  0  0  0  0  0  0  0
   27.6099  -19.5479   -9.0059 O   0  0  0  0  0  0  0  0  0  0  0  0
   27.6582  -21.2444   -7.5011 N   0  0  0  0  0  0  0  0  0  0  0  0
   27.4670  -20.3730   -6.3607 C   0  0  1  0  0  0  0  0  0  0  0  0
   27.4186  -21.1477   -5.0595 C   0  0  0  0  0  0  0  0  0  0  0  0
   27.3750  -20.0435   -3.6395 S   0  0  0  0  0  0  0  0  0  0  0  0
   28.6132  -19.4384   -6.2858 C   0  0  0  0  0  0  0  0  0  0  0  0
   29.9376  -19.8551   -6.2052 O   0  0  0  0  0  0  0  0  0  0  0  0
   28.4148  -18.2012   -6.2930 O   0  0  0  0  0  0  0  0  0  0  0  0
  2  1  1  1
  3  4  1  0
  3  2  1  0
  4 12  1  0
  5  4  2  0
  5  6  1  0
  6  7  1  0
  7  8  1  0
  8  9  2  0
 10  9  1  0
 11 10  2  0
 12  7  2  0
 12 11  1  0
 13 15  1  0
 13  2  1  0
 14 13  2  0
 15 16  1  0
 17 16  1  0
 18 17  1  0
 19 18  1  0
 19 20  1  1
 19 15  1  0
 20 21  2  0
 22 23  1  0
 22 20  1  0
 23 26  1  0
 23 24  1  1
 25 24  1  0
 26 28  2  0
 26 27  1  0
M  END
$$$$
