WPC.pdb
     RDKit          3D

 28 30  0  0  1  0  0  0  0  0999 V2000
   31.9504  -22.4653  -18.1116 N   0  0  0  0  0  0  0  0  0  0  0  0
   32.1389  -23.9057  -17.9190 C   0  0  1  0  0  0  0  0  0  0  0  0
   30.9854  -24.5662  -18.6258 C   0  0  0  0  0  0  0  0  0  0  0  0
   29.6793  -24.4330  -17.9765 C   0  0  0  0  0  0  0  0  0  0  0  0
   28.8870  -23.3202  -17.9662 C   0  0  0  0  0  0  0  0  0  0  0  0
   27.7811  -23.5539  -17.2429 N   0  0  0  0  0  0  0  0  0  0  0  0
   27.8516  -24.8256  -16.7796 C   0  0  0  0  0  0  0  0  0  0  0  0
   27.0205  -25.5993  -16.0148 C   0  0  0  0  0  0  0  0  0  0  0  0
   27.2819  -26.9025  -15.6653 C   0  0  0  0  0  0  0  0  0  0  0  0
   28.4659  -27.4505  -16.1251 C   0  0  0  0  0  0  0  0  0  0  0  0
   29.3239  -26.7180  -16.8884 C   0  0  0  0  0  0  0  0  0  0  0  0
   29.0371  -25.3934  -17.2308 C   0  0  0  0  0  0  0  0  0  0  0  0
   33.4306  -24.3859  -18.4329 C   0  0  0  0  0  0  0  0  0  0  0  0
   33.9244  -23.6407  -19.3553 O   0  0  0  0  0  0  0  0  0  0  0  0
   34.1243  -25.5397  -18.0079 N   0  0  0  0  0  0  0  0  0  0  0  0
   33.6968  -26.4397  -16.9814 C   0  0  0  0  0  0  0  0  0  0  0  0
   34.9419  -27.0970  -16.5003 C   0  0  0  0  0  0  0  0  0  0  0  0
   36.0799  -26.4543  -17.2727 C   0  0  0  0  0  0  0  0  0  0  0  0
   35.3739  -25.9992  -18.5446 C   0  0  1  0  0  0  0  0  0  0  0  0
   35.2407  -27.0951  -19.5158 C   0  0  0  0  0  0  0  0  0  0  0  0
   34.1141  -27.6027  -19.7368 O   0  0  0  0  0  0  0  0  0  0  0  0
   36.3230  -27.6453  -20.2501 N   0  0  0  0  0  0  0  0  0  0  0  0
   36.3386  -27.7685  -21.6927 C   0  0  1  0  0  0  0  0  0  0  0  0
   36.1130  -26.4352  -22.3761 C   0  0  0  0  0  0  0  0  0  0  0  0
   35.8175  -26.6428  -24.1388 S   0  0  0  0  0  0  0  0  0  0  0  0
   37.6697  -28.2675  -22.1075 C   0  0  0  0  0  0  0  0  0  0  0  0
   37.8501  -29.3576  -22.9521 O   0  0  0  0  0  0  0  0  0  0  0  0
   38.7082  -27.7013  -21.6942 O   0  0  0  0  0  0  0  0  0  0  0  0
  2  1  1  6
  3  4  1  0
  3  2  1  0
  4 12  1  0
  5  4  2  0
  5  6  1  0
  6  7  1  0
  7  8  1  0
  8  9  2  0
 10  9  1  0
 11 10  2  0
 12  7  2  0
 12 11  1  0
 13 15  1  0
 13  2  1  0
 14 13  2  0
 15 16  1  0
 17 16  1  0
 18 17  1  0
 19 18  1  0
 19 20  1  6
 19 15  1  0
 20 21  2  0
 22 23  1  0
 22 20  1  0
 23 26  1  0
 23 24  1  6
 25 24  1  0
 26 28  2  0
 26 27  1  0
M  END
$$$$
