WPC.pdb
     RDKit          3D

 28 30  0  0  1  0  0  0  0  0999 V2000
   25.0647  -21.2400  -15.2163 N   0  0  0  0  0  0  0  0  0  0  0  0
   26.0418  -20.4870  -14.4255 C   0  0  1  0  0  0  0  0  0  0  0  0
   25.4067  -19.1482  -14.1597 C   0  0  0  0  0  0  0  0  0  0  0  0
   25.1711  -18.3093  -15.3369 C   0  0  0  0  0  0  0  0  0  0  0  0
   23.9565  -17.9603  -15.8556 C   0  0  0  0  0  0  0  0  0  0  0  0
   24.1281  -17.2140  -16.9575 N   0  0  0  0  0  0  0  0  0  0  0  0
   25.4612  -17.0745  -17.1584 C   0  0  0  0  0  0  0  0  0  0  0  0
   26.2110  -16.4206  -18.0989 C   0  0  0  0  0  0  0  0  0  0  0  0
   27.5849  -16.3927  -18.1095 C   0  0  0  0  0  0  0  0  0  0  0  0
   28.2346  -17.0752  -17.0967 C   0  0  0  0  0  0  0  0  0  0  0  0
   27.5298  -17.7407  -16.1397 C   0  0  0  0  0  0  0  0  0  0  0  0
   26.1320  -17.7558  -16.1498 C   0  0  0  0  0  0  0  0  0  0  0  0
   26.4081  -21.1666  -13.1736 C   0  0  0  0  0  0  0  0  0  0  0  0
   25.5795  -22.0850  -12.8274 O   0  0  0  0  0  0  0  0  0  0  0  0
   27.5399  -20.8963  -12.3742 N   0  0  0  0  0  0  0  0  0  0  0  0
   28.5826  -19.9694  -12.6901 C   0  0  0  0  0  0  0  0  0  0  0  0
   29.7655  -20.4408  -11.9204 C   0  0  0  0  0  0  0  0  0  0  0  0
   29.3294  -21.7165  -11.2225 C   0  0  0  0  0  0  0  0  0  0  0  0
   27.8239  -21.5083  -11.1071 C   0  0  1  0  0  0  0  0  0  0  0  0
   27.4766  -20.6727   -9.9482 C   0  0  0  0  0  0  0  0  0  0  0  0
   27.5452  -19.4222  -10.0346 O   0  0  0  0  0  0  0  0  0  0  0  0
   27.0546  -21.1849   -8.6940 N   0  0  0  0  0  0  0  0  0  0  0  0
   26.4671  -20.3738   -7.6483 C   0  0  1  0  0  0  0  0  0  0  0  0
   25.3321  -21.0916   -6.9469 C   0  0  0  0  0  0  0  0  0  0  0  0
   23.9729  -21.4310   -8.0760 S   0  0  0  0  0  0  0  0  0  0  0  0
   27.5093  -20.0835   -6.6371 C   0  0  0  0  0  0  0  0  0  0  0  0
   27.3736  -19.1078   -5.6554 O   0  0  0  0  0  0  0  0  0  0  0  0
   28.5814  -20.7321   -6.6377 O   0  0  0  0  0  0  0  0  0  0  0  0
  2  1  1  1
  3  4  1  0
  3  2  1  0
  4 12  1  0
  5  4  2  0
  5  6  1  0
  6  7  1  0
  7  8  1  0
  8  9  2  0
 10  9  1  0
 11 10  2  0
 12  7  2  0
 12 11  1  0
 13 15  1  0
 13  2  1  0
 14 13  2  0
 15 16  1  0
 17 16  1  0
 18 17  1  0
 19 18  1  0
 19 20  1  1
 19 15  1  0
 20 21  2  0
 22 23  1  0
 22 20  1  0
 23 26  1  0
 23 24  1  1
 25 24  1  0
 26 28  2  0
 26 27  1  0
M  END
$$$$
