WPC.pdb
     RDKit          3D

 28 30  0  0  1  0  0  0  0  0999 V2000
   27.2716  -26.9010  -19.6860 N   0  0  0  0  0  0  0  0  0  0  0  0
   28.4288  -27.0561  -18.8004 C   0  0  1  0  0  0  0  0  0  0  0  0
   27.9107  -26.8188  -17.4070 C   0  0  0  0  0  0  0  0  0  0  0  0
   27.2786  -25.5182  -17.1746 C   0  0  0  0  0  0  0  0  0  0  0  0
   27.9170  -24.3192  -17.0292 C   0  0  0  0  0  0  0  0  0  0  0  0
   27.0195  -23.3498  -16.7940 N   0  0  0  0  0  0  0  0  0  0  0  0
   25.7893  -23.9186  -16.7867 C   0  0  0  0  0  0  0  0  0  0  0  0
   24.5231  -23.4277  -16.6135 C   0  0  0  0  0  0  0  0  0  0  0  0
   23.3835  -24.1944  -16.6610 C   0  0  0  0  0  0  0  0  0  0  0  0
   23.5464  -25.5472  -16.9003 C   0  0  0  0  0  0  0  0  0  0  0  0
   24.7873  -26.0801  -17.0780 C   0  0  0  0  0  0  0  0  0  0  0  0
   25.9326  -25.2803  -17.0245 C   0  0  0  0  0  0  0  0  0  0  0  0
   29.0658  -28.3764  -18.9198 C   0  0  0  0  0  0  0  0  0  0  0  0
   28.2637  -29.2988  -19.3142 O   0  0  0  0  0  0  0  0  0  0  0  0
   30.4170  -28.6818  -18.6478 N   0  0  0  0  0  0  0  0  0  0  0  0
   31.4003  -27.7609  -18.1668 C   0  0  0  0  0  0  0  0  0  0  0  0
   32.7068  -28.3357  -18.5871 C   0  0  0  0  0  0  0  0  0  0  0  0
   32.3774  -29.5847  -19.3847 C   0  0  0  0  0  0  0  0  0  0  0  0
   31.0219  -29.9740  -18.8065 C   0  0  1  0  0  0  0  0  0  0  0  0
   31.1609  -30.7274  -17.5515 C   0  0  0  0  0  0  0  0  0  0  0  0
   31.4348  -30.1236  -16.4855 O   0  0  0  0  0  0  0  0  0  0  0  0
   31.0046  -32.1336  -17.4446 N   0  0  0  0  0  0  0  0  0  0  0  0
   30.4432  -32.7967  -16.2862 C   0  0  1  0  0  0  0  0  0  0  0  0
   29.0281  -32.3359  -16.0020 C   0  0  0  0  0  0  0  0  0  0  0  0
   27.8506  -33.0989  -17.1284 S   0  0  0  0  0  0  0  0  0  0  0  0
   30.3974  -34.2523  -16.5541 C   0  0  0  0  0  0  0  0  0  0  0  0
   30.1784  -35.2066  -15.5663 O   0  0  0  0  0  0  0  0  0  0  0  0
   30.5607  -34.6807  -17.7202 O   0  0  0  0  0  0  0  0  0  0  0  0
  2  1  1  6
  3  4  1  0
  3  2  1  0
  4 12  1  0
  5  4  2  0
  5  6  1  0
  6  7  1  0
  7  8  1  0
  8  9  2  0
 10  9  1  0
 11 10  2  0
 12  7  2  0
 12 11  1  0
 13 15  1  0
 13  2  1  0
 14 13  2  0
 15 16  1  0
 17 16  1  0
 18 17  1  0
 19 18  1  0
 19 20  1  1
 19 15  1  0
 20 21  2  0
 22 23  1  0
 22 20  1  0
 23 26  1  0
 23 24  1  6
 25 24  1  0
 26 28  2  0
 26 27  1  0
M  END
$$$$
