WPC.pdb
     RDKit          3D

 28 30  0  0  1  0  0  0  0  0999 V2000
   24.6690  -20.5733  -15.4489 N   0  0  0  0  0  0  0  0  0  0  0  0
   25.7863  -19.9866  -14.7040 C   0  0  1  0  0  0  0  0  0  0  0  0
   25.3873  -18.5621  -14.4249 C   0  0  0  0  0  0  0  0  0  0  0  0
   25.5216  -17.6307  -15.5472 C   0  0  0  0  0  0  0  0  0  0  0  0
   24.5486  -16.8095  -16.0422 C   0  0  0  0  0  0  0  0  0  0  0  0
   25.0210  -16.1253  -17.0954 N   0  0  0  0  0  0  0  0  0  0  0  0
   26.3088  -16.5012  -17.2883 C   0  0  0  0  0  0  0  0  0  0  0  0
   27.2748  -16.1351  -18.1867 C   0  0  0  0  0  0  0  0  0  0  0  0
   28.5527  -16.6405  -18.1966 C   0  0  0  0  0  0  0  0  0  0  0  0
   28.8644  -17.5787  -17.2289 C   0  0  0  0  0  0  0  0  0  0  0  0
   27.9350  -17.9738  -16.3148 C   0  0  0  0  0  0  0  0  0  0  0  0
   26.6405  -17.4461  -16.3248 C   0  0  0  0  0  0  0  0  0  0  0  0
   26.0884  -20.7138  -13.4617 C   0  0  0  0  0  0  0  0  0  0  0  0
   25.1831  -21.5633  -13.1320 O   0  0  0  0  0  0  0  0  0  0  0  0
   27.2358  -20.5530  -12.6551 N   0  0  0  0  0  0  0  0  0  0  0  0
   28.3169  -19.6521  -12.9121 C   0  0  0  0  0  0  0  0  0  0  0  0
   29.4821  -20.2304  -12.1898 C   0  0  0  0  0  0  0  0  0  0  0  0
   28.9937  -21.5335  -11.5830 C   0  0  0  0  0  0  0  0  0  0  0  0
   27.4997  -21.2682  -11.4388 C   0  0  1  0  0  0  0  0  0  0  0  0
   27.1969  -20.5055  -10.2188 C   0  0  0  0  0  0  0  0  0  0  0  0
   27.3408  -19.2584  -10.2079 O   0  0  0  0  0  0  0  0  0  0  0  0
   26.7383  -21.0868   -9.0085 N   0  0  0  0  0  0  0  0  0  0  0  0
   26.1422  -20.3317   -7.9264 C   0  0  1  0  0  0  0  0  0  0  0  0
   24.8692  -20.9788   -7.4201 C   0  0  0  0  0  0  0  0  0  0  0  0
   23.6382  -21.1152   -8.7252 S   0  0  0  0  0  0  0  0  0  0  0  0
   27.1026  -20.2858   -6.8002 C   0  0  0  0  0  0  0  0  0  0  0  0
   26.9446  -19.4611   -5.6916 O   0  0  0  0  0  0  0  0  0  0  0  0
   28.1216  -21.0149   -6.8151 O   0  0  0  0  0  0  0  0  0  0  0  0
  2  1  1  1
  3  4  1  0
  3  2  1  0
  4 12  1  0
  5  4  2  0
  5  6  1  0
  6  7  1  0
  7  8  1  0
  8  9  2  0
 10  9  1  0
 11 10  2  0
 12  7  2  0
 12 11  1  0
 13 15  1  0
 13  2  1  0
 14 13  2  0
 15 16  1  0
 17 16  1  0
 18 17  1  0
 19 18  1  0
 19 20  1  1
 19 15  1  0
 20 21  2  0
 22 23  1  0
 22 20  1  0
 23 26  1  0
 23 24  1  1
 25 24  1  0
 26 28  2  0
 26 27  1  0
M  END
$$$$
