WPC.pdb
     RDKit          3D

 28 30  0  0  1  0  0  0  0  0999 V2000
   23.7857  -19.3499  -17.1393 N   0  0  0  0  0  0  0  0  0  0  0  0
   24.9017  -18.8252  -16.3478 C   0  0  1  0  0  0  0  0  0  0  0  0
   24.5025  -17.4274  -15.9565 C   0  0  0  0  0  0  0  0  0  0  0  0
   24.4908  -16.4410  -17.0391 C   0  0  0  0  0  0  0  0  0  0  0  0
   23.3867  -15.8688  -17.6047 C   0  0  0  0  0  0  0  0  0  0  0  0
   23.7576  -15.0395  -18.5923 N   0  0  0  0  0  0  0  0  0  0  0  0
   25.1103  -15.0700  -18.6711 C   0  0  0  0  0  0  0  0  0  0  0  0
   26.0245  -14.4313  -19.4653 C   0  0  0  0  0  0  0  0  0  0  0  0
   27.3850  -14.5979  -19.3660 C   0  0  0  0  0  0  0  0  0  0  0  0
   27.8413  -15.4715  -18.3951 C   0  0  0  0  0  0  0  0  0  0  0  0
   26.9685  -16.1297  -17.5826 C   0  0  0  0  0  0  0  0  0  0  0  0
   25.5881  -15.9448  -17.7027 C   0  0  0  0  0  0  0  0  0  0  0  0
   25.2012  -19.6494  -15.1670 C   0  0  0  0  0  0  0  0  0  0  0  0
   24.2085  -20.3648  -14.7761 O   0  0  0  0  0  0  0  0  0  0  0  0
   26.4306  -19.7061  -14.4753 N   0  0  0  0  0  0  0  0  0  0  0  0
   27.6147  -18.9800  -14.8172 C   0  0  0  0  0  0  0  0  0  0  0  0
   28.7332  -19.7652  -14.2288 C   0  0  0  0  0  0  0  0  0  0  0  0
   28.0989  -20.9966  -13.6077 C   0  0  0  0  0  0  0  0  0  0  0  0
   26.6884  -20.5022  -13.3089 C   0  0  1  0  0  0  0  0  0  0  0  0
   26.6305  -19.7500  -12.0468 C   0  0  0  0  0  0  0  0  0  0  0  0
   26.7326  -18.4989  -12.0582 O   0  0  0  0  0  0  0  0  0  0  0  0
   26.4624  -20.3464  -10.7704 N   0  0  0  0  0  0  0  0  0  0  0  0
   25.3297  -20.0930   -9.9049 C   0  0  1  0  0  0  0  0  0  0  0  0
   24.0188  -20.4682  -10.5654 C   0  0  0  0  0  0  0  0  0  0  0  0
   22.6344  -20.2767   -9.4322 S   0  0  0  0  0  0  0  0  0  0  0  0
   25.4738  -20.9228   -8.6869 C   0  0  0  0  0  0  0  0  0  0  0  0
   25.5814  -22.3092   -8.7127 O   0  0  0  0  0  0  0  0  0  0  0  0
   25.5036  -20.3797   -7.5581 O   0  0  0  0  0  0  0  0  0  0  0  0
  2  1  1  1
  3  4  1  0
  3  2  1  0
  4 12  1  0
  5  4  2  0
  5  6  1  0
  6  7  1  0
  7  8  1  0
  8  9  2  0
 10  9  1  0
 11 10  2  0
 12  7  2  0
 12 11  1  0
 13 15  1  0
 13  2  1  0
 14 13  2  0
 15 16  1  0
 17 16  1  0
 18 17  1  0
 19 18  1  0
 19 20  1  1
 19 15  1  0
 20 21  2  0
 22 23  1  0
 22 20  1  0
 23 26  1  0
 23 24  1  6
 25 24  1  0
 26 28  2  0
 26 27  1  0
M  END
$$$$
