IKA.pdb
     RDKit          3D

 23 22  0  0  1  0  0  0  0  0999 V2000
    6.4607  -11.2350   27.3511 C   0  0  0  0  0  0  0  0  0  0  0  0
    5.8722  -12.4828   26.7371 C   0  0  0  0  0  0  0  0  0  0  0  0
    6.9020  -13.3196   26.0338 C   0  0  2  0  0  0  0  0  0  0  0  0
    7.6660  -12.4854   25.0131 C   0  0  0  0  0  0  0  0  0  0  0  0
    6.3157  -14.5516   25.3808 C   0  0  2  0  0  0  0  0  0  0  0  0
    5.7936  -15.3784   26.5124 N   0  0  0  0  0  0  0  0  0  0  0  0
    7.2645  -15.4155   24.6904 C   0  0  0  0  0  0  0  0  0  0  0  0
    7.9614  -16.2580   25.3684 O   0  0  0  0  0  0  0  0  0  0  0  0
    7.5385  -15.4564   23.2892 N   0  0  0  0  0  0  0  0  0  0  0  0
    8.4429  -16.3196   22.6167 C   0  0  1  0  0  0  0  0  0  0  0  0
    8.4029  -16.3148   21.1217 C   0  0  0  0  0  0  0  0  0  0  0  0
    9.3308  -17.2735   20.4742 C   0  0  0  0  0  0  0  0  0  0  0  0
    9.2130  -17.1935   18.9834 C   0  0  0  0  0  0  0  0  0  0  0  0
   10.1739  -18.1152   18.2939 C   0  0  0  0  0  0  0  0  0  0  0  0
   10.0595  -17.8000   16.8594 N   0  0  0  0  0  0  0  0  0  0  0  0
    9.8345  -16.3364   23.0800 C   0  0  0  0  0  0  0  0  0  0  0  0
   10.4805  -15.2331   23.0078 O   0  0  0  0  0  0  0  0  0  0  0  0
   12.2238  -18.4462   25.0936 C   0  0  0  0  0  0  0  0  0  0  0  0
   11.9039  -17.3082   24.1524 C   0  0  2  0  0  0  0  0  0  0  0  0
   10.5671  -17.4220   23.5969 N   0  0  0  0  0  0  0  0  0  0  0  0
   12.8583  -17.3718   23.0140 C   0  0  0  0  0  0  0  0  0  0  0  0
   12.4288  -17.6414   21.7084 O   0  0  0  0  0  0  0  0  0  0  0  0
   14.0977  -17.1885   23.1557 O   0  0  0  0  0  0  0  0  0  0  0  0
  1  2  1  0
  3  2  1  0
  3  4  1  6
  5  3  1  0
  5  6  1  1
  7  5  1  0
  7  8  2  0
  9  7  1  0
 10  9  1  0
 10 11  1  6
 11 12  1  0
 12 13  1  0
 13 14  1  0
 14 15  1  0
 16 10  1  0
 17 16  2  0
 19 18  1  1
 19 21  1  0
 19 20  1  0
 20 16  1  0
 21 22  1  0
 23 21  2  0
M  END
$$$$
