IKA.pdb
     RDKit          3D

 23 22  0  0  1  0  0  0  0  0999 V2000
    7.7810  -12.0858   19.2522 C   0  0  0  0  0  0  0  0  0  0  0  0
    7.6806  -13.5825   19.4256 C   0  0  0  0  0  0  0  0  0  0  0  0
    7.6138  -13.9920   20.8689 C   0  0  2  0  0  0  0  0  0  0  0  0
    8.8521  -13.5179   21.6195 C   0  0  0  0  0  0  0  0  0  0  0  0
    7.4196  -15.4810   21.0516 C   0  0  2  0  0  0  0  0  0  0  0  0
    6.0831  -15.7741   20.4478 N   0  0  0  0  0  0  0  0  0  0  0  0
    7.3188  -15.9426   22.4300 C   0  0  0  0  0  0  0  0  0  0  0  0
    6.3994  -15.4632   23.1916 O   0  0  0  0  0  0  0  0  0  0  0  0
    8.1452  -16.9070   23.0835 N   0  0  0  0  0  0  0  0  0  0  0  0
    8.2679  -17.1259   24.4807 C   0  0  1  0  0  0  0  0  0  0  0  0
    8.7477  -18.4730   24.9183 C   0  0  0  0  0  0  0  0  0  0  0  0
    8.8370  -18.6514   26.3879 C   0  0  0  0  0  0  0  0  0  0  0  0
    7.7091  -19.5031   26.8832 C   0  0  0  0  0  0  0  0  0  0  0  0
    7.7598  -19.6931   28.3697 C   0  0  0  0  0  0  0  0  0  0  0  0
    6.6508  -20.6097   28.6864 N   0  0  0  0  0  0  0  0  0  0  0  0
    8.9204  -16.0797   25.2754 C   0  0  0  0  0  0  0  0  0  0  0  0
   10.1307  -15.7934   24.9704 O   0  0  0  0  0  0  0  0  0  0  0  0
    8.1506  -13.2806   27.6650 C   0  0  0  0  0  0  0  0  0  0  0  0
    9.0964  -14.2751   27.0330 C   0  0  2  0  0  0  0  0  0  0  0  0
    8.3864  -15.3408   26.3483 N   0  0  0  0  0  0  0  0  0  0  0  0
    9.8923  -14.9061   28.1189 C   0  0  0  0  0  0  0  0  0  0  0  0
   10.8123  -14.1720   28.8781 O   0  0  0  0  0  0  0  0  0  0  0  0
    9.7868  -16.1267   28.4171 O   0  0  0  0  0  0  0  0  0  0  0  0
  1  2  1  0
  3  2  1  0
  3  4  1  1
  5  3  1  0
  5  6  1  6
  7  5  1  0
  7  8  2  0
  9  7  1  0
 10  9  1  0
 10 11  1  6
 11 12  1  0
 12 13  1  0
 13 14  1  0
 14 15  1  0
 16 10  1  0
 17 16  2  0
 19 18  1  1
 19 21  1  0
 19 20  1  0
 20 16  1  0
 21 22  1  0
 23 21  2  0
M  END
$$$$
