IKA.pdb
     RDKit          3D

 23 22  0  0  1  0  0  0  0  0999 V2000
    7.2895  -12.0369   28.3621 C   0  0  0  0  0  0  0  0  0  0  0  0
    6.5132  -13.0789   27.5928 C   0  0  0  0  0  0  0  0  0  0  0  0
    7.2901  -13.6382   26.4356 C   0  0  2  0  0  0  0  0  0  0  0  0
    7.8189  -12.5158   25.5512 C   0  0  0  0  0  0  0  0  0  0  0  0
    6.4958  -14.6308   25.6160 C   0  0  2  0  0  0  0  0  0  0  0  0
    6.3188  -15.8170   26.5095 N   0  0  0  0  0  0  0  0  0  0  0  0
    7.1626  -15.1503   24.4291 C   0  0  0  0  0  0  0  0  0  0  0  0
    7.9548  -16.1580   24.5392 O   0  0  0  0  0  0  0  0  0  0  0  0
    7.0482  -14.6676   23.0897 N   0  0  0  0  0  0  0  0  0  0  0  0
    7.8520  -15.0275   21.9764 C   0  0  1  0  0  0  0  0  0  0  0  0
    7.7121  -14.1976   20.7402 C   0  0  0  0  0  0  0  0  0  0  0  0
    8.4977  -14.6797   19.5783 C   0  0  0  0  0  0  0  0  0  0  0  0
    8.1187  -13.9281   18.3396 C   0  0  0  0  0  0  0  0  0  0  0  0
    8.8590  -14.4238   17.1335 C   0  0  0  0  0  0  0  0  0  0  0  0
    8.5758  -13.4451   16.0694 N   0  0  0  0  0  0  0  0  0  0  0  0
    9.2682  -15.3152   22.2284 C   0  0  0  0  0  0  0  0  0  0  0  0
    9.9763  -14.3590   22.7015 O   0  0  0  0  0  0  0  0  0  0  0  0
   11.7071  -18.1846   22.4842 C   0  0  0  0  0  0  0  0  0  0  0  0
   11.3634  -16.7200   22.3427 C   0  0  2  0  0  0  0  0  0  0  0  0
    9.9639  -16.5198   22.0112 N   0  0  0  0  0  0  0  0  0  0  0  0
   12.1635  -16.1671   21.2180 C   0  0  0  0  0  0  0  0  0  0  0  0
   13.3751  -15.4991   21.4360 O   0  0  0  0  0  0  0  0  0  0  0  0
   11.8019  -16.2662   20.0141 O   0  0  0  0  0  0  0  0  0  0  0  0
  1  2  1  0
  3  2  1  0
  3  4  1  6
  5  3  1  0
  5  6  1  1
  7  5  1  0
  7  8  2  0
  9  7  1  0
 10  9  1  0
 10 11  1  6
 11 12  1  0
 12 13  1  0
 13 14  1  0
 14 15  1  0
 16 10  1  0
 17 16  2  0
 19 18  1  6
 19 21  1  0
 19 20  1  0
 20 16  1  0
 21 22  1  0
 23 21  2  0
M  END
$$$$
