IKA.pdb
     RDKit          3D

 23 22  0  0  1  0  0  0  0  0999 V2000
    6.6424  -12.0564   19.3642 C   0  0  0  0  0  0  0  0  0  0  0  0
    7.4750  -12.8393   18.3771 C   0  0  0  0  0  0  0  0  0  0  0  0
    8.6921  -13.4519   19.0084 C   0  0  2  0  0  0  0  0  0  0  0  0
    9.5511  -12.3809   19.6692 C   0  0  0  0  0  0  0  0  0  0  0  0
    9.5149  -14.2670   18.0353 C   0  0  2  0  0  0  0  0  0  0  0  0
    8.5646  -15.2778   17.4766 N   0  0  0  0  0  0  0  0  0  0  0  0
   10.5959  -15.0499   18.6197 C   0  0  0  0  0  0  0  0  0  0  0  0
   10.3207  -16.1420   19.2417 O   0  0  0  0  0  0  0  0  0  0  0  0
   11.9930  -14.7539   18.5926 N   0  0  0  0  0  0  0  0  0  0  0  0
   13.0414  -15.5085   19.1812 C   0  0  1  0  0  0  0  0  0  0  0  0
   14.3638  -15.4949   18.4829 C   0  0  0  0  0  0  0  0  0  0  0  0
   14.3520  -16.0852   17.1224 C   0  0  0  0  0  0  0  0  0  0  0  0
   15.2093  -15.2819   16.1936 C   0  0  0  0  0  0  0  0  0  0  0  0
   15.2681  -15.8840   14.8217 C   0  0  0  0  0  0  0  0  0  0  0  0
   16.0800  -14.9530   14.0188 N   0  0  0  0  0  0  0  0  0  0  0  0
   13.2387  -15.3792   20.6290 C   0  0  0  0  0  0  0  0  0  0  0  0
   13.3583  -14.1912   21.0916 O   0  0  0  0  0  0  0  0  0  0  0  0
   13.0726  -17.3355   23.8508 C   0  0  0  0  0  0  0  0  0  0  0  0
   13.5381  -16.1707   23.0082 C   0  0  2  0  0  0  0  0  0  0  0  0
   13.3202  -16.4035   21.5915 N   0  0  0  0  0  0  0  0  0  0  0  0
   15.0036  -16.0171   23.2066 C   0  0  0  0  0  0  0  0  0  0  0  0
   15.5393  -15.5857   24.4266 O   0  0  0  0  0  0  0  0  0  0  0  0
   15.8417  -16.2637   22.2973 O   0  0  0  0  0  0  0  0  0  0  0  0
  1  2  1  0
  3  2  1  0
  3  4  1  6
  5  3  1  0
  5  6  1  1
  7  5  1  0
  7  8  2  0
  9  7  1  0
 10  9  1  0
 10 11  1  6
 11 12  1  0
 12 13  1  0
 13 14  1  0
 14 15  1  0
 16 10  1  0
 17 16  2  0
 19 18  1  1
 19 21  1  0
 19 20  1  0
 20 16  1  0
 21 22  1  0
 23 21  2  0
M  END
$$$$
