IKA.pdb
     RDKit          3D

 23 22  0  0  1  0  0  0  0  0999 V2000
    6.4865  -11.4016   27.2844 C   0  0  0  0  0  0  0  0  0  0  0  0
    5.9102  -12.5981   26.5656 C   0  0  0  0  0  0  0  0  0  0  0  0
    6.9694  -13.4599   25.9405 C   0  0  2  0  0  0  0  0  0  0  0  0
    7.8689  -12.6310   25.0318 C   0  0  0  0  0  0  0  0  0  0  0  0
    6.4003  -14.6427   25.1889 C   0  0  2  0  0  0  0  0  0  0  0  0
    5.6427  -15.4248   26.2141 N   0  0  0  0  0  0  0  0  0  0  0  0
    7.3768  -15.5792   24.6477 C   0  0  0  0  0  0  0  0  0  0  0  0
    8.0364  -16.3385   25.4498 O   0  0  0  0  0  0  0  0  0  0  0  0
    7.7171  -15.7794   23.2750 N   0  0  0  0  0  0  0  0  0  0  0  0
    8.6846  -16.6776   22.7531 C   0  0  1  0  0  0  0  0  0  0  0  0
    8.8475  -16.7131   21.2670 C   0  0  0  0  0  0  0  0  0  0  0  0
    9.7610  -17.7701   20.7691 C   0  0  0  0  0  0  0  0  0  0  0  0
    9.8631  -17.7156   19.2759 C   0  0  0  0  0  0  0  0  0  0  0  0
   10.7804  -18.7723   18.7370 C   0  0  0  0  0  0  0  0  0  0  0  0
   10.8186  -18.5534   17.2806 N   0  0  0  0  0  0  0  0  0  0  0  0
   10.0000  -16.7079   23.4016 C   0  0  0  0  0  0  0  0  0  0  0  0
   10.7281  -15.6617   23.2796 O   0  0  0  0  0  0  0  0  0  0  0  0
   11.9118  -18.4420   26.0923 C   0  0  0  0  0  0  0  0  0  0  0  0
   11.8746  -17.6639   24.7976 C   0  0  2  0  0  0  0  0  0  0  0  0
   10.5791  -17.7522   24.1475 N   0  0  0  0  0  0  0  0  0  0  0  0
   12.8712  -18.2646   23.8719 C   0  0  0  0  0  0  0  0  0  0  0  0
   14.2480  -18.1658   24.1088 O   0  0  0  0  0  0  0  0  0  0  0  0
   12.5385  -18.8919   22.8299 O   0  0  0  0  0  0  0  0  0  0  0  0
  1  2  1  0
  3  2  1  0
  3  4  1  6
  5  3  1  0
  5  6  1  1
  7  5  1  0
  7  8  2  0
  9  7  1  0
 10  9  1  0
 10 11  1  6
 11 12  1  0
 12 13  1  0
 13 14  1  0
 14 15  1  0
 16 10  1  0
 17 16  2  0
 19 18  1  1
 19 21  1  0
 19 20  1  0
 20 16  1  0
 21 22  1  0
 23 21  2  0
M  END
$$$$
