IKA.pdb
     RDKit          3D

 23 22  0  0  1  0  0  0  0  0999 V2000
    6.7975  -11.9477   28.3223 C   0  0  0  0  0  0  0  0  0  0  0  0
    6.1656  -13.0801   27.5485 C   0  0  0  0  0  0  0  0  0  0  0  0
    7.0092  -13.5268   26.3891 C   0  0  2  0  0  0  0  0  0  0  0  0
    7.3812  -12.3412   25.5073 C   0  0  0  0  0  0  0  0  0  0  0  0
    6.3544  -14.6150   25.5674 C   0  0  2  0  0  0  0  0  0  0  0  0
    6.2833  -15.7987   26.4789 N   0  0  0  0  0  0  0  0  0  0  0  0
    7.1098  -15.0766   24.4100 C   0  0  0  0  0  0  0  0  0  0  0  0
    8.0054  -15.9875   24.5620 O   0  0  0  0  0  0  0  0  0  0  0  0
    6.9822  -14.6321   23.0586 N   0  0  0  0  0  0  0  0  0  0  0  0
    7.7616  -15.0396   21.9443 C   0  0  1  0  0  0  0  0  0  0  0  0
    7.6239  -14.2385   20.6889 C   0  0  0  0  0  0  0  0  0  0  0  0
    8.4056  -14.7516   19.5378 C   0  0  0  0  0  0  0  0  0  0  0  0
    8.1265  -13.9409   18.3100 C   0  0  0  0  0  0  0  0  0  0  0  0
    8.8248  -14.4916   17.1027 C   0  0  0  0  0  0  0  0  0  0  0  0
    8.4807  -13.5780   15.9994 N   0  0  0  0  0  0  0  0  0  0  0  0
    9.1740  -15.3546   22.1845 C   0  0  0  0  0  0  0  0  0  0  0  0
    9.9278  -14.3857   22.5489 O   0  0  0  0  0  0  0  0  0  0  0  0
   11.4568  -18.2591   22.8379 C   0  0  0  0  0  0  0  0  0  0  0  0
   11.2108  -16.8291   22.4158 C   0  0  2  0  0  0  0  0  0  0  0  0
    9.8218  -16.5985   22.0610 N   0  0  0  0  0  0  0  0  0  0  0  0
   12.0238  -16.5630   21.1996 C   0  0  0  0  0  0  0  0  0  0  0  0
   13.4227  -16.5137   21.2464 O   0  0  0  0  0  0  0  0  0  0  0  0
   11.5067  -16.3681   20.0663 O   0  0  0  0  0  0  0  0  0  0  0  0
  1  2  1  0
  3  2  1  0
  3  4  1  6
  5  3  1  0
  5  6  1  1
  7  5  1  0
  7  8  2  0
  9  7  1  0
 10  9  1  0
 10 11  1  6
 11 12  1  0
 12 13  1  0
 13 14  1  0
 14 15  1  0
 16 10  1  0
 17 16  2  0
 19 18  1  6
 19 21  1  0
 19 20  1  0
 20 16  1  0
 21 22  1  0
 23 21  2  0
M  END
$$$$
