IKA.pdb
     RDKit          3D

 23 22  0  0  1  0  0  0  0  0999 V2000
    6.9850  -11.6569   28.0779 C   0  0  0  0  0  0  0  0  0  0  0  0
    6.3284  -12.8530   27.4310 C   0  0  0  0  0  0  0  0  0  0  0  0
    7.1394  -13.4124   26.2975 C   0  0  2  0  0  0  0  0  0  0  0  0
    7.5276  -12.3102   25.3198 C   0  0  0  0  0  0  0  0  0  0  0  0
    6.4415  -14.5426   25.5738 C   0  0  2  0  0  0  0  0  0  0  0  0
    6.3421  -15.6441   26.5806 N   0  0  0  0  0  0  0  0  0  0  0  0
    7.1694  -15.1226   24.4527 C   0  0  0  0  0  0  0  0  0  0  0  0
    8.1434  -15.9311   24.6818 O   0  0  0  0  0  0  0  0  0  0  0  0
    6.9341  -14.9043   23.0608 N   0  0  0  0  0  0  0  0  0  0  0  0
    7.8220  -15.1775   21.9875 C   0  0  1  0  0  0  0  0  0  0  0  0
    7.6293  -14.3928   20.7291 C   0  0  0  0  0  0  0  0  0  0  0  0
    8.5344  -14.7727   19.6174 C   0  0  0  0  0  0  0  0  0  0  0  0
    8.1740  -14.0285   18.3687 C   0  0  0  0  0  0  0  0  0  0  0  0
    9.0118  -14.4536   17.2001 C   0  0  0  0  0  0  0  0  0  0  0  0
    8.7113  -13.4873   16.1294 N   0  0  0  0  0  0  0  0  0  0  0  0
    9.2516  -15.2787   22.3001 C   0  0  0  0  0  0  0  0  0  0  0  0
    9.8447  -14.1981   22.6468 O   0  0  0  0  0  0  0  0  0  0  0  0
   11.8658  -17.7998   23.2229 C   0  0  0  0  0  0  0  0  0  0  0  0
   11.4568  -16.4422   22.7006 C   0  0  2  0  0  0  0  0  0  0  0  0
   10.0719  -16.4225   22.2643 N   0  0  0  0  0  0  0  0  0  0  0  0
   12.2951  -16.1360   21.5113 C   0  0  0  0  0  0  0  0  0  0  0  0
   11.7429  -16.0370   20.2280 O   0  0  0  0  0  0  0  0  0  0  0  0
   13.5398  -15.9494   21.5876 O   0  0  0  0  0  0  0  0  0  0  0  0
  1  2  1  0
  3  2  1  0
  3  4  1  6
  5  3  1  0
  5  6  1  1
  7  5  1  0
  7  8  2  0
  9  7  1  0
 10  9  1  0
 10 11  1  6
 11 12  1  0
 12 13  1  0
 13 14  1  0
 14 15  1  0
 16 10  1  0
 17 16  2  0
 19 18  1  6
 19 21  1  0
 19 20  1  0
 20 16  1  0
 21 22  1  0
 23 21  2  0
M  END
$$$$
