IKA.pdb
     RDKit          3D

 23 22  0  0  1  0  0  0  0  0999 V2000
    5.6471  -10.5278   26.5859 C   0  0  0  0  0  0  0  0  0  0  0  0
    5.3163  -11.8838   26.0095 C   0  0  0  0  0  0  0  0  0  0  0  0
    6.5217  -12.7729   25.9003 C   0  0  2  0  0  0  0  0  0  0  0  0
    7.6208  -12.0911   25.0949 C   0  0  0  0  0  0  0  0  0  0  0  0
    6.2020  -14.1320   25.3182 C   0  0  2  0  0  0  0  0  0  0  0  0
    5.2061  -14.7316   26.2592 N   0  0  0  0  0  0  0  0  0  0  0  0
    7.3060  -15.0823   25.2834 C   0  0  0  0  0  0  0  0  0  0  0  0
    7.7295  -15.5998   26.3824 O   0  0  0  0  0  0  0  0  0  0  0  0
    8.0176  -15.5421   24.1334 N   0  0  0  0  0  0  0  0  0  0  0  0
    9.1647  -16.3781   24.1119 C   0  0  1  0  0  0  0  0  0  0  0  0
    9.7635  -16.6764   22.7744 C   0  0  0  0  0  0  0  0  0  0  0  0
   10.9049  -17.6229   22.8039 C   0  0  0  0  0  0  0  0  0  0  0  0
   11.3714  -17.9270   21.4137 C   0  0  0  0  0  0  0  0  0  0  0  0
   12.4982  -18.9161   21.4033 C   0  0  0  0  0  0  0  0  0  0  0  0
   12.9629  -18.9672   20.0062 N   0  0  0  0  0  0  0  0  0  0  0  0
   10.2265  -16.0963   25.0840 C   0  0  0  0  0  0  0  0  0  0  0  0
   11.2210  -15.4050   24.6685 O   0  0  0  0  0  0  0  0  0  0  0  0
   10.9801  -15.3050   28.4709 C   0  0  0  0  0  0  0  0  0  0  0  0
   11.4100  -16.1757   27.3132 C   0  0  2  0  0  0  0  0  0  0  0  0
   10.3008  -16.4951   26.4322 N   0  0  0  0  0  0  0  0  0  0  0  0
   11.9136  -17.4604   27.8671 C   0  0  0  0  0  0  0  0  0  0  0  0
   13.0325  -17.5105   28.7080 O   0  0  0  0  0  0  0  0  0  0  0  0
   11.3684  -18.5690   27.6147 O   0  0  0  0  0  0  0  0  0  0  0  0
  1  2  1  0
  3  2  1  0
  3  4  1  6
  5  3  1  0
  5  6  1  1
  7  5  1  0
  7  8  2  0
  9  7  1  0
 10  9  1  0
 10 11  1  6
 11 12  1  0
 12 13  1  0
 13 14  1  0
 14 15  1  0
 16 10  1  0
 17 16  2  0
 19 18  1  1
 19 21  1  0
 19 20  1  0
 20 16  1  0
 21 22  1  0
 23 21  2  0
M  END
$$$$
