IKA.pdb
     RDKit          3D

 23 22  0  0  1  0  0  0  0  0999 V2000
    8.2494  -12.0514   20.1135 C   0  0  0  0  0  0  0  0  0  0  0  0
    7.4915  -13.3022   20.4898 C   0  0  0  0  0  0  0  0  0  0  0  0
    8.1927  -14.5551   20.0494 C   0  0  2  0  0  0  0  0  0  0  0  0
    8.4032  -14.5506   18.5404 C   0  0  0  0  0  0  0  0  0  0  0  0
    7.4767  -15.8153   20.4820 C   0  0  2  0  0  0  0  0  0  0  0  0
    6.1366  -15.7454   19.8217 N   0  0  0  0  0  0  0  0  0  0  0  0
    7.1888  -15.9237   21.9063 C   0  0  0  0  0  0  0  0  0  0  0  0
    6.1922  -15.2777   22.4007 O   0  0  0  0  0  0  0  0  0  0  0  0
    7.9001  -16.6916   22.8782 N   0  0  0  0  0  0  0  0  0  0  0  0
    7.6660  -16.7331   24.2777 C   0  0  1  0  0  0  0  0  0  0  0  0
    7.8186  -18.0584   24.9536 C   0  0  0  0  0  0  0  0  0  0  0  0
    7.5456  -18.0454   26.4112 C   0  0  0  0  0  0  0  0  0  0  0  0
    7.7874  -19.3997   27.0032 C   0  0  0  0  0  0  0  0  0  0  0  0
    7.5507  -19.4157   28.4837 C   0  0  0  0  0  0  0  0  0  0  0  0
    7.9109  -20.7747   28.9241 N   0  0  0  0  0  0  0  0  0  0  0  0
    8.2747  -15.6801   25.0977 C   0  0  0  0  0  0  0  0  0  0  0  0
    9.5534  -15.6118   25.0936 O   0  0  0  0  0  0  0  0  0  0  0  0
    7.3950  -12.6453   27.1936 C   0  0  0  0  0  0  0  0  0  0  0  0
    8.3286  -13.7221   26.6914 C   0  0  2  0  0  0  0  0  0  0  0  0
    7.6304  -14.7232   25.9048 N   0  0  0  0  0  0  0  0  0  0  0  0
    8.9057  -14.4171   27.8725 C   0  0  0  0  0  0  0  0  0  0  0  0
    9.8351  -13.7911   28.7126 O   0  0  0  0  0  0  0  0  0  0  0  0
    8.5952  -15.5989   28.1838 O   0  0  0  0  0  0  0  0  0  0  0  0
  1  2  1  0
  3  2  1  0
  3  4  1  6
  5  3  1  0
  5  6  1  6
  7  5  1  0
  7  8  2  0
  9  7  1  0
 10  9  1  0
 10 11  1  1
 11 12  1  0
 12 13  1  0
 13 14  1  0
 14 15  1  0
 16 10  1  0
 17 16  2  0
 19 18  1  1
 19 21  1  0
 19 20  1  0
 20 16  1  0
 21 22  1  0
 23 21  2  0
M  END
$$$$
