IKA.pdb
     RDKit          3D

 23 22  0  0  1  0  0  0  0  0999 V2000
    6.4426  -11.0618   27.3593 C   0  0  0  0  0  0  0  0  0  0  0  0
    5.8636  -12.2776   26.6759 C   0  0  0  0  0  0  0  0  0  0  0  0
    6.9202  -13.1537   26.0663 C   0  0  2  0  0  0  0  0  0  0  0  0
    7.8147  -12.3465   25.1337 C   0  0  0  0  0  0  0  0  0  0  0  0
    6.3479  -14.3544   25.3460 C   0  0  2  0  0  0  0  0  0  0  0  0
    5.6665  -15.1554   26.4094 N   0  0  0  0  0  0  0  0  0  0  0  0
    7.3222  -15.2636   24.7567 C   0  0  0  0  0  0  0  0  0  0  0  0
    8.0550  -15.9897   25.5253 O   0  0  0  0  0  0  0  0  0  0  0  0
    7.5862  -15.4694   23.3681 N   0  0  0  0  0  0  0  0  0  0  0  0
    8.5228  -16.3705   22.7971 C   0  0  1  0  0  0  0  0  0  0  0  0
    8.7431  -16.2773   21.3209 C   0  0  0  0  0  0  0  0  0  0  0  0
    9.7147  -17.2566   20.7765 C   0  0  0  0  0  0  0  0  0  0  0  0
    9.0801  -18.0844   19.7018 C   0  0  0  0  0  0  0  0  0  0  0  0
   10.0438  -19.0676   19.1077 C   0  0  0  0  0  0  0  0  0  0  0  0
    9.2874  -19.7741   18.0593 N   0  0  0  0  0  0  0  0  0  0  0  0
    9.8074  -16.5382   23.4852 C   0  0  0  0  0  0  0  0  0  0  0  0
   10.5343  -15.4919   23.6139 O   0  0  0  0  0  0  0  0  0  0  0  0
   11.4760  -17.4695   26.2002 C   0  0  0  0  0  0  0  0  0  0  0  0
   11.6288  -17.7698   24.7271 C   0  0  2  0  0  0  0  0  0  0  0  0
   10.3579  -17.7154   24.0268 N   0  0  0  0  0  0  0  0  0  0  0  0
   12.1442  -19.1579   24.5924 C   0  0  0  0  0  0  0  0  0  0  0  0
   13.3746  -19.5420   25.1404 O   0  0  0  0  0  0  0  0  0  0  0  0
   11.5103  -20.0617   23.9831 O   0  0  0  0  0  0  0  0  0  0  0  0
  1  2  1  0
  3  2  1  0
  3  4  1  6
  5  3  1  0
  5  6  1  1
  7  5  1  0
  7  8  2  0
  9  7  1  0
 10  9  1  0
 10 11  1  6
 11 12  1  0
 12 13  1  0
 13 14  1  0
 14 15  1  0
 16 10  1  0
 17 16  2  0
 19 18  1  1
 19 21  1  0
 19 20  1  0
 20 16  1  0
 21 22  1  0
 23 21  2  0
M  END
$$$$
