IKA.pdb
     RDKit          3D

 23 22  0  0  1  0  0  0  0  0999 V2000
    6.5113  -11.3095   26.6184 C   0  0  0  0  0  0  0  0  0  0  0  0
    6.1838  -12.5452   25.8147 C   0  0  0  0  0  0  0  0  0  0  0  0
    6.3947  -13.8118   26.5936 C   0  0  2  0  0  0  0  0  0  0  0  0
    7.8008  -13.8545   27.1789 C   0  0  0  0  0  0  0  0  0  0  0  0
    6.1197  -15.0574   25.7807 C   0  0  2  0  0  0  0  0  0  0  0  0
    6.1537  -16.1798   26.7686 N   0  0  0  0  0  0  0  0  0  0  0  0
    7.1281  -15.4009   24.7865 C   0  0  0  0  0  0  0  0  0  0  0  0
    8.1889  -16.0295   25.1532 O   0  0  0  0  0  0  0  0  0  0  0  0
    7.0952  -15.1206   23.3863 N   0  0  0  0  0  0  0  0  0  0  0  0
    8.0229  -15.5532   22.4028 C   0  0  1  0  0  0  0  0  0  0  0  0
    7.8937  -14.9568   21.0374 C   0  0  0  0  0  0  0  0  0  0  0  0
    8.8518  -15.4865   20.0369 C   0  0  0  0  0  0  0  0  0  0  0  0
    8.1781  -16.4754   19.1364 C   0  0  0  0  0  0  0  0  0  0  0  0
    9.0948  -16.9668   18.0564 C   0  0  0  0  0  0  0  0  0  0  0  0
    8.3632  -18.0555   17.3857 N   0  0  0  0  0  0  0  0  0  0  0  0
    9.4367  -15.6198   22.7880 C   0  0  0  0  0  0  0  0  0  0  0  0
   10.0546  -14.5050   22.9118 O   0  0  0  0  0  0  0  0  0  0  0  0
   11.9230  -17.8358   24.4451 C   0  0  0  0  0  0  0  0  0  0  0  0
   11.6020  -16.7222   23.4756 C   0  0  2  0  0  0  0  0  0  0  0  0
   10.2178  -16.7640   23.0390 N   0  0  0  0  0  0  0  0  0  0  0  0
   12.4484  -16.9071   22.2672 C   0  0  0  0  0  0  0  0  0  0  0  0
   11.8947  -17.2466   21.0264 O   0  0  0  0  0  0  0  0  0  0  0  0
   13.7018  -16.7706   22.2884 O   0  0  0  0  0  0  0  0  0  0  0  0
  1  2  1  0
  3  2  1  0
  3  4  1  6
  5  3  1  0
  5  6  1  1
  7  5  1  0
  7  8  2  0
  9  7  1  0
 10  9  1  0
 10 11  1  6
 11 12  1  0
 12 13  1  0
 13 14  1  0
 14 15  1  0
 16 10  1  0
 17 16  2  0
 19 18  1  1
 19 21  1  0
 19 20  1  0
 20 16  1  0
 21 22  1  0
 23 21  2  0
M  END
$$$$
