IKA.pdb
     RDKit          3D

 23 22  0  0  1  0  0  0  0  0999 V2000
    6.3020  -11.4091   27.1179 C   0  0  0  0  0  0  0  0  0  0  0  0
    5.7987  -12.5840   26.3137 C   0  0  0  0  0  0  0  0  0  0  0  0
    6.9125  -13.4555   25.8082 C   0  0  2  0  0  0  0  0  0  0  0  0
    7.9048  -12.6383   24.9902 C   0  0  0  0  0  0  0  0  0  0  0  0
    6.4180  -14.6426   25.0118 C   0  0  2  0  0  0  0  0  0  0  0  0
    5.6380  -15.4655   25.9872 N   0  0  0  0  0  0  0  0  0  0  0  0
    7.4486  -15.5386   24.5036 C   0  0  0  0  0  0  0  0  0  0  0  0
    7.9010  -16.4754   25.2603 O   0  0  0  0  0  0  0  0  0  0  0  0
    8.0548  -15.5170   23.2104 N   0  0  0  0  0  0  0  0  0  0  0  0
    9.0130  -16.4298   22.6968 C   0  0  1  0  0  0  0  0  0  0  0  0
    9.2874  -16.3724   21.2278 C   0  0  0  0  0  0  0  0  0  0  0  0
    8.1607  -16.8121   20.3695 C   0  0  0  0  0  0  0  0  0  0  0  0
    8.5279  -16.6995   18.9220 C   0  0  0  0  0  0  0  0  0  0  0  0
    7.3846  -17.0635   18.0228 C   0  0  0  0  0  0  0  0  0  0  0  0
    7.8269  -16.7101   16.6627 N   0  0  0  0  0  0  0  0  0  0  0  0
   10.2716  -16.5777   23.4356 C   0  0  0  0  0  0  0  0  0  0  0  0
   10.9578  -15.5135   23.6260 O   0  0  0  0  0  0  0  0  0  0  0  0
   12.2115  -18.9807   25.5904 C   0  0  0  0  0  0  0  0  0  0  0  0
   12.1163  -17.8009   24.6511 C   0  0  2  0  0  0  0  0  0  0  0  0
   10.8363  -17.7528   23.9670 N   0  0  0  0  0  0  0  0  0  0  0  0
   13.1647  -17.9582   23.6084 C   0  0  0  0  0  0  0  0  0  0  0  0
   14.5259  -17.8204   23.9076 O   0  0  0  0  0  0  0  0  0  0  0  0
   12.8924  -18.2223   22.4059 O   0  0  0  0  0  0  0  0  0  0  0  0
  1  2  1  0
  3  2  1  0
  3  4  1  6
  5  3  1  0
  5  6  1  1
  7  5  1  0
  7  8  2  0
  9  7  1  0
 10  9  1  0
 10 11  1  6
 11 12  1  0
 12 13  1  0
 13 14  1  0
 14 15  1  0
 16 10  1  0
 17 16  2  0
 19 18  1  1
 19 21  1  0
 19 20  1  0
 20 16  1  0
 21 22  1  0
 23 21  2  0
M  END
$$$$
