IKA.pdb
     RDKit          3D

 23 22  0  0  1  0  0  0  0  0999 V2000
    7.5817  -12.3287   19.0972 C   0  0  0  0  0  0  0  0  0  0  0  0
    7.5862  -13.8162   19.3576 C   0  0  0  0  0  0  0  0  0  0  0  0
    7.7050  -14.1450   20.8181 C   0  0  2  0  0  0  0  0  0  0  0  0
    8.9714  -13.5339   21.4049 C   0  0  0  0  0  0  0  0  0  0  0  0
    7.6551  -15.6313   21.0945 C   0  0  2  0  0  0  0  0  0  0  0  0
    6.2767  -16.0532   20.6957 N   0  0  0  0  0  0  0  0  0  0  0  0
    7.7774  -16.0204   22.4933 C   0  0  0  0  0  0  0  0  0  0  0  0
    6.8320  -15.7287   23.3156 O   0  0  0  0  0  0  0  0  0  0  0  0
    8.8614  -16.7198   23.1066 N   0  0  0  0  0  0  0  0  0  0  0  0
    9.0619  -16.9448   24.4938 C   0  0  1  0  0  0  0  0  0  0  0  0
    9.6792  -18.2483   24.8889 C   0  0  0  0  0  0  0  0  0  0  0  0
    9.8801  -18.4216   26.3481 C   0  0  0  0  0  0  0  0  0  0  0  0
   10.3880  -19.7980   26.6487 C   0  0  0  0  0  0  0  0  0  0  0  0
   10.6382  -19.9965   28.1138 C   0  0  0  0  0  0  0  0  0  0  0  0
   11.1244  -21.3810   28.2449 N   0  0  0  0  0  0  0  0  0  0  0  0
    9.6503  -15.8541   25.2787 C   0  0  0  0  0  0  0  0  0  0  0  0
   10.8775  -15.5723   25.0461 O   0  0  0  0  0  0  0  0  0  0  0  0
    8.8231  -12.8555   27.3193 C   0  0  0  0  0  0  0  0  0  0  0  0
    9.7229  -14.0338   27.0274 C   0  0  2  0  0  0  0  0  0  0  0  0
    9.0371  -15.0673   26.2723 N   0  0  0  0  0  0  0  0  0  0  0  0
   10.1275  -14.6353   28.3256 C   0  0  0  0  0  0  0  0  0  0  0  0
    9.8267  -15.9652   28.6455 O   0  0  0  0  0  0  0  0  0  0  0  0
   10.7590  -13.9899   29.2058 O   0  0  0  0  0  0  0  0  0  0  0  0
  1  2  1  0
  3  2  1  0
  3  4  1  6
  5  3  1  0
  5  6  1  1
  7  5  1  0
  7  8  2  0
  9  7  1  0
 10  9  1  0
 10 11  1  6
 11 12  1  0
 12 13  1  0
 13 14  1  0
 14 15  1  0
 16 10  1  0
 17 16  2  0
 19 18  1  1
 19 21  1  0
 19 20  1  0
 20 16  1  0
 21 22  1  0
 23 21  2  0
M  END
$$$$
