IKA.pdb
     RDKit          3D

 23 22  0  0  1  0  0  0  0  0999 V2000
    5.6541  -10.7422   26.6328 C   0  0  0  0  0  0  0  0  0  0  0  0
    5.4221  -11.9788   25.7977 C   0  0  0  0  0  0  0  0  0  0  0  0
    6.6023  -12.9074   25.8032 C   0  0  2  0  0  0  0  0  0  0  0  0
    7.8358  -12.2115   25.2412 C   0  0  0  0  0  0  0  0  0  0  0  0
    6.3393  -14.2007   25.0642 C   0  0  2  0  0  0  0  0  0  0  0  0
    5.1047  -14.7625   25.6943 N   0  0  0  0  0  0  0  0  0  0  0  0
    7.3490  -15.2390   25.2244 C   0  0  0  0  0  0  0  0  0  0  0  0
    7.5394  -15.7620   26.3843 O   0  0  0  0  0  0  0  0  0  0  0  0
    8.1993  -15.7840   24.2144 N   0  0  0  0  0  0  0  0  0  0  0  0
    9.3148  -16.6415   24.4030 C   0  0  1  0  0  0  0  0  0  0  0  0
    9.9827  -17.1686   23.1731 C   0  0  0  0  0  0  0  0  0  0  0  0
   11.0955  -18.1148   23.4298 C   0  0  0  0  0  0  0  0  0  0  0  0
   11.6456  -18.6412   22.1401 C   0  0  0  0  0  0  0  0  0  0  0  0
   12.7543  -19.6257   22.3629 C   0  0  0  0  0  0  0  0  0  0  0  0
   13.1905  -20.0369   21.0171 N   0  0  0  0  0  0  0  0  0  0  0  0
   10.3250  -16.2326   25.3848 C   0  0  0  0  0  0  0  0  0  0  0  0
   11.3104  -15.5425   24.9462 O   0  0  0  0  0  0  0  0  0  0  0  0
   10.8960  -14.8712   28.5179 C   0  0  0  0  0  0  0  0  0  0  0  0
   11.3877  -16.0179   27.6654 C   0  0  2  0  0  0  0  0  0  0  0  0
   10.3582  -16.5064   26.7655 N   0  0  0  0  0  0  0  0  0  0  0  0
   11.7478  -17.1414   28.5704 C   0  0  0  0  0  0  0  0  0  0  0  0
   12.7595  -17.0168   29.5309 O   0  0  0  0  0  0  0  0  0  0  0  0
   11.1693  -18.2609   28.5266 O   0  0  0  0  0  0  0  0  0  0  0  0
  1  2  1  0
  3  2  1  0
  3  4  1  6
  5  3  1  0
  5  6  1  1
  7  5  1  0
  7  8  2  0
  9  7  1  0
 10  9  1  0
 10 11  1  6
 11 12  1  0
 12 13  1  0
 13 14  1  0
 14 15  1  0
 16 10  1  0
 17 16  2  0
 19 18  1  1
 19 21  1  0
 19 20  1  0
 20 16  1  0
 21 22  1  0
 23 21  2  0
M  END
$$$$
