IKA.pdb
     RDKit          3D

 23 22  0  0  1  0  0  0  0  0999 V2000
    6.5653  -11.3705   27.5529 C   0  0  0  0  0  0  0  0  0  0  0  0
    5.9058  -12.5226   26.8329 C   0  0  0  0  0  0  0  0  0  0  0  0
    6.8860  -13.3523   26.0544 C   0  0  2  0  0  0  0  0  0  0  0  0
    7.6905  -12.4785   25.1001 C   0  0  0  0  0  0  0  0  0  0  0  0
    6.2312  -14.4924   25.3064 C   0  0  2  0  0  0  0  0  0  0  0  0
    5.6313  -15.3582   26.3682 N   0  0  0  0  0  0  0  0  0  0  0  0
    7.1334  -15.3694   24.5715 C   0  0  0  0  0  0  0  0  0  0  0  0
    7.8027  -16.2648   25.2082 O   0  0  0  0  0  0  0  0  0  0  0  0
    7.3871  -15.3701   23.1658 N   0  0  0  0  0  0  0  0  0  0  0  0
    8.2956  -16.2004   22.4584 C   0  0  1  0  0  0  0  0  0  0  0  0
    8.2219  -16.1711   20.9651 C   0  0  0  0  0  0  0  0  0  0  0  0
    9.1432  -17.1105   20.2809 C   0  0  0  0  0  0  0  0  0  0  0  0
    8.8419  -17.1680   18.8150 C   0  0  0  0  0  0  0  0  0  0  0  0
    9.7065  -18.1646   18.1027 C   0  0  0  0  0  0  0  0  0  0  0  0
    9.3022  -18.0946   16.6877 N   0  0  0  0  0  0  0  0  0  0  0  0
    9.6974  -16.1927   22.8905 C   0  0  0  0  0  0  0  0  0  0  0  0
   10.3132  -15.0714   22.8330 O   0  0  0  0  0  0  0  0  0  0  0  0
   12.1509  -18.1539   24.9204 C   0  0  0  0  0  0  0  0  0  0  0  0
   11.8343  -17.1454   23.8407 C   0  0  2  0  0  0  0  0  0  0  0  0
   10.4689  -17.2716   23.3627 N   0  0  0  0  0  0  0  0  0  0  0  0
   12.7298  -17.4140   22.6845 C   0  0  0  0  0  0  0  0  0  0  0  0
   14.0576  -16.9690   22.6638 O   0  0  0  0  0  0  0  0  0  0  0  0
   12.3502  -18.0517   21.6651 O   0  0  0  0  0  0  0  0  0  0  0  0
  1  2  1  0
  3  2  1  0
  3  4  1  6
  5  3  1  0
  5  6  1  1
  7  5  1  0
  7  8  2  0
  9  7  1  0
 10  9  1  0
 10 11  1  6
 11 12  1  0
 12 13  1  0
 13 14  1  0
 14 15  1  0
 16 10  1  0
 17 16  2  0
 19 18  1  1
 19 21  1  0
 19 20  1  0
 20 16  1  0
 21 22  1  0
 23 21  2  0
M  END
$$$$
