IKA.pdb
     RDKit          3D

 23 22  0  0  1  0  0  0  0  0999 V2000
    7.0642  -11.7589   28.2709 C   0  0  0  0  0  0  0  0  0  0  0  0
    6.4229  -12.9925   27.6815 C   0  0  0  0  0  0  0  0  0  0  0  0
    7.1669  -13.5129   26.4852 C   0  0  2  0  0  0  0  0  0  0  0  0
    7.6311  -12.3632   25.5997 C   0  0  0  0  0  0  0  0  0  0  0  0
    6.3659  -14.5128   25.6810 C   0  0  2  0  0  0  0  0  0  0  0  0
    6.2628  -15.7206   26.5570 N   0  0  0  0  0  0  0  0  0  0  0  0
    6.9942  -14.9895   24.4558 C   0  0  0  0  0  0  0  0  0  0  0  0
    7.8625  -15.9367   24.5178 O   0  0  0  0  0  0  0  0  0  0  0  0
    6.7629  -14.5238   23.1254 N   0  0  0  0  0  0  0  0  0  0  0  0
    7.5445  -14.7976   21.9725 C   0  0  1  0  0  0  0  0  0  0  0  0
    7.3091  -13.9381   20.7716 C   0  0  0  0  0  0  0  0  0  0  0  0
    7.8519  -14.4832   19.5036 C   0  0  0  0  0  0  0  0  0  0  0  0
    8.6916  -13.4571   18.8074 C   0  0  0  0  0  0  0  0  0  0  0  0
    8.8567  -13.7625   17.3487 C   0  0  0  0  0  0  0  0  0  0  0  0
   10.0172  -14.6662   17.2657 N   0  0  0  0  0  0  0  0  0  0  0  0
    8.9838  -15.0065   22.1640 C   0  0  0  0  0  0  0  0  0  0  0  0
    9.6667  -13.9968   22.5560 O   0  0  0  0  0  0  0  0  0  0  0  0
   11.5961  -17.7300   22.3597 C   0  0  0  0  0  0  0  0  0  0  0  0
   11.1560  -16.2938   22.1958 C   0  0  2  0  0  0  0  0  0  0  0  0
    9.7262  -16.1864   21.9663 N   0  0  0  0  0  0  0  0  0  0  0  0
   11.8354  -15.7395   20.9950 C   0  0  0  0  0  0  0  0  0  0  0  0
   13.1158  -15.1767   21.0685 O   0  0  0  0  0  0  0  0  0  0  0  0
   11.3040  -15.7435   19.8515 O   0  0  0  0  0  0  0  0  0  0  0  0
  1  2  1  0
  3  2  1  0
  3  4  1  6
  5  3  1  0
  5  6  1  1
  7  5  1  0
  7  8  2  0
  9  7  1  0
 10  9  1  0
 10 11  1  6
 11 12  1  0
 12 13  1  0
 13 14  1  0
 14 15  1  0
 16 10  1  0
 17 16  2  0
 19 18  1  6
 19 21  1  0
 19 20  1  0
 20 16  1  0
 21 22  1  0
 23 21  2  0
M  END
$$$$
