HSP.pdb
     RDKit          3D

 24 25  0  0  1  0  0  0  0  0999 V2000
    8.4248  -15.7324   20.9311 N   0  0  0  0  0  0  0  0  0  0  0  0
    8.2863  -14.3637   21.3545 C   0  0  1  0  0  0  0  0  0  0  0  0
    7.1519  -13.6913   20.6320 C   0  0  0  0  0  0  0  0  0  0  0  0
    7.4077  -13.7633   19.1788 C   0  0  0  0  0  0  0  0  0  0  0  0
    8.1192  -12.8334   18.4515 C   0  0  0  0  0  0  0  0  0  0  0  0
    8.1554  -13.2092   17.1738 N   0  0  0  0  0  0  0  0  0  0  0  0
    7.4830  -14.3573   17.0709 C   0  0  0  0  0  0  0  0  0  0  0  0
    7.0150  -14.7141   18.2970 N   0  0  0  0  0  0  0  0  0  0  0  0
    8.0503  -14.2983   22.8414 C   0  0  0  0  0  0  0  0  0  0  0  0
    7.8871  -13.1957   23.4230 O   0  0  0  0  0  0  0  0  0  0  0  0
    7.1104  -17.7807   25.2059 O   0  0  0  0  0  0  0  0  0  0  0  0
    6.7986  -16.4736   25.4434 C   0  0  0  0  0  0  0  0  0  0  0  0
    7.8702  -15.4600   25.0847 C   0  0  2  0  0  0  0  0  0  0  0  0
    8.0076  -15.4729   23.6120 N   0  0  0  0  0  0  0  0  0  0  0  0
    9.1857  -15.7492   25.6780 C   0  0  0  0  0  0  0  0  0  0  0  0
   10.0149  -16.4195   24.9534 O   0  0  0  0  0  0  0  0  0  0  0  0
    9.6334  -15.3685   26.9489 N   0  0  0  0  0  0  0  0  0  0  0  0
    8.7863  -14.6162   27.8957 C   0  0  0  0  0  0  0  0  0  0  0  0
    9.6967  -14.2062   29.0139 C   0  0  0  0  0  0  0  0  0  0  0  0
   11.0690  -14.2602   28.3785 C   0  0  0  0  0  0  0  0  0  0  0  0
   10.9111  -15.5744   27.5795 C   0  0  1  0  0  0  0  0  0  0  0  0
   10.8107  -16.6207   28.6570 C   0  0  0  0  0  0  0  0  0  0  0  0
    9.7419  -17.1276   29.0189 O   0  0  0  0  0  0  0  0  0  0  0  0
   11.9906  -17.0262   29.2659 O   0  0  0  0  0  0  0  0  0  0  0  0
  2  1  1  6
  3  2  1  0
  4  3  1  0
  5  4  2  0
  6  7  1  0
  6  5  1  0
  7  8  2  0
  8  4  1  0
  9  2  1  0
  9 10  2  0
 11 12  1  0
 13 12  1  6
 13 14  1  0
 13 15  1  0
 14  9  1  0
 15 17  1  0
 16 15  2  0
 17 21  1  0
 17 18  1  0
 19 18  1  0
 20 19  1  0
 21 20  1  0
 21 22  1  1
 22 23  2  0
 22 24  1  0
M  END
$$$$
