HSP.pdb
     RDKit          3D

 24 25  0  0  1  0  0  0  0  0999 V2000
    7.5223  -16.0387   20.2363 N   0  0  0  0  0  0  0  0  0  0  0  0
    8.1431  -14.9181   20.8927 C   0  0  1  0  0  0  0  0  0  0  0  0
    7.7662  -13.6270   20.2205 C   0  0  0  0  0  0  0  0  0  0  0  0
    8.1026  -13.7250   18.7854 C   0  0  0  0  0  0  0  0  0  0  0  0
    7.1869  -13.7415   17.7553 C   0  0  0  0  0  0  0  0  0  0  0  0
    7.8334  -13.8382   16.5944 N   0  0  0  0  0  0  0  0  0  0  0  0
    9.1400  -13.8835   16.8618 C   0  0  0  0  0  0  0  0  0  0  0  0
    9.3248  -13.8149   18.2075 N   0  0  0  0  0  0  0  0  0  0  0  0
    7.7373  -14.8721   22.3433 C   0  0  0  0  0  0  0  0  0  0  0  0
    6.8517  -14.0741   22.7426 O   0  0  0  0  0  0  0  0  0  0  0  0
    6.7445  -17.3015   26.1815 O   0  0  0  0  0  0  0  0  0  0  0  0
    7.0718  -16.9926   24.8933 C   0  0  0  0  0  0  0  0  0  0  0  0
    7.9395  -15.7611   24.7061 C   0  0  2  0  0  0  0  0  0  0  0  0
    8.3426  -15.7234   23.2835 N   0  0  0  0  0  0  0  0  0  0  0  0
    9.1554  -15.7578   25.5354 C   0  0  0  0  0  0  0  0  0  0  0  0
   10.1978  -16.3320   25.0399 O   0  0  0  0  0  0  0  0  0  0  0  0
    9.3000  -15.1919   26.8079 N   0  0  0  0  0  0  0  0  0  0  0  0
    8.2227  -14.4210   27.4602 C   0  0  0  0  0  0  0  0  0  0  0  0
    8.8484  -13.7990   28.6722 C   0  0  0  0  0  0  0  0  0  0  0  0
   10.3233  -13.7929   28.3339 C   0  0  0  0  0  0  0  0  0  0  0  0
   10.4294  -15.1994   27.7007 C   0  0  1  0  0  0  0  0  0  0  0  0
   10.1812  -16.1195   28.8658 C   0  0  0  0  0  0  0  0  0  0  0  0
    9.1060  -16.6995   29.0607 O   0  0  0  0  0  0  0  0  0  0  0  0
   11.2257  -16.3157   29.7590 O   0  0  0  0  0  0  0  0  0  0  0  0
  2  1  1  6
  3  2  1  0
  4  3  1  0
  5  4  2  0
  6  7  1  0
  6  5  1  0
  7  8  2  0
  8  4  1  0
  9  2  1  0
  9 10  2  0
 11 12  1  0
 13 12  1  6
 13 14  1  0
 13 15  1  0
 14  9  1  0
 15 17  1  0
 16 15  2  0
 17 21  1  0
 17 18  1  0
 19 18  1  0
 20 19  1  0
 21 20  1  0
 21 22  1  1
 22 23  2  0
 22 24  1  0
M  END
$$$$
