HSP.pdb
     RDKit          3D

 24 25  0  0  1  0  0  0  0  0999 V2000
    8.0985  -16.1763   20.7238 N   0  0  0  0  0  0  0  0  0  0  0  0
    7.9975  -14.8491   21.2718 C   0  0  1  0  0  0  0  0  0  0  0  0
    7.0412  -14.0098   20.4705 C   0  0  0  0  0  0  0  0  0  0  0  0
    7.5097  -13.9652   19.0702 C   0  0  0  0  0  0  0  0  0  0  0  0
    8.4114  -13.0538   18.5640 C   0  0  0  0  0  0  0  0  0  0  0  0
    8.6074  -13.3022   17.2698 N   0  0  0  0  0  0  0  0  0  0  0  0
    7.8511  -14.3512   16.9404 C   0  0  0  0  0  0  0  0  0  0  0  0
    7.1674  -14.7731   18.0378 N   0  0  0  0  0  0  0  0  0  0  0  0
    7.5399  -14.9097   22.7063 C   0  0  0  0  0  0  0  0  0  0  0  0
    6.3251  -14.7824   23.0041 O   0  0  0  0  0  0  0  0  0  0  0  0
    7.3472  -17.5459   24.9869 O   0  0  0  0  0  0  0  0  0  0  0  0
    6.9668  -16.2610   25.2448 C   0  0  0  0  0  0  0  0  0  0  0  0
    8.0644  -15.2153   25.1651 C   0  0  2  0  0  0  0  0  0  0  0  0
    8.4650  -15.1105   23.7451 N   0  0  0  0  0  0  0  0  0  0  0  0
    9.2572  -15.5421   25.9629 C   0  0  0  0  0  0  0  0  0  0  0  0
   10.2339  -16.1095   25.3416 O   0  0  0  0  0  0  0  0  0  0  0  0
    9.4442  -15.2976   27.3289 N   0  0  0  0  0  0  0  0  0  0  0  0
    8.3902  -14.7124   28.1814 C   0  0  0  0  0  0  0  0  0  0  0  0
    9.0562  -14.3960   29.4867 C   0  0  0  0  0  0  0  0  0  0  0  0
   10.5193  -14.3001   29.1127 C   0  0  0  0  0  0  0  0  0  0  0  0
   10.6020  -15.5127   28.1570 C   0  0  1  0  0  0  0  0  0  0  0  0
   10.3900  -16.6871   29.0743 C   0  0  0  0  0  0  0  0  0  0  0  0
    9.3175  -17.2967   29.1661 O   0  0  0  0  0  0  0  0  0  0  0  0
   11.4664  -17.0938   29.8511 O   0  0  0  0  0  0  0  0  0  0  0  0
  2  1  1  6
  3  2  1  0
  4  3  1  0
  5  4  2  0
  6  7  1  0
  6  5  1  0
  7  8  2  0
  8  4  1  0
  9  2  1  0
  9 10  2  0
 11 12  1  0
 13 12  1  6
 13 14  1  0
 13 15  1  0
 14  9  1  0
 15 17  1  0
 16 15  2  0
 17 21  1  0
 17 18  1  0
 19 18  1  0
 20 19  1  0
 21 20  1  0
 21 22  1  1
 22 23  2  0
 22 24  1  0
M  END
$$$$
