HSP.pdb
     RDKit          3D

 24 25  0  0  1  0  0  0  0  0999 V2000
    8.7388  -16.0109   20.5520 N   0  0  0  0  0  0  0  0  0  0  0  0
    8.2726  -14.7242   20.9981 C   0  0  1  0  0  0  0  0  0  0  0  0
    7.2091  -14.1911   20.0784 C   0  0  0  0  0  0  0  0  0  0  0  0
    7.7347  -14.1902   18.6977 C   0  0  0  0  0  0  0  0  0  0  0  0
    8.4055  -13.1420   18.1050 C   0  0  0  0  0  0  0  0  0  0  0  0
    8.7357  -13.4801   16.8593 N   0  0  0  0  0  0  0  0  0  0  0  0
    8.2903  -14.7197   16.6453 C   0  0  0  0  0  0  0  0  0  0  0  0
    7.6706  -15.1734   17.7678 N   0  0  0  0  0  0  0  0  0  0  0  0
    7.7279  -14.8232   22.3997 C   0  0  0  0  0  0  0  0  0  0  0  0
    6.5179  -14.5832   22.6423 O   0  0  0  0  0  0  0  0  0  0  0  0
    7.4933  -17.6975   24.5963 O   0  0  0  0  0  0  0  0  0  0  0  0
    7.0287  -16.4387   24.8447 C   0  0  0  0  0  0  0  0  0  0  0  0
    8.0723  -15.3363   24.8558 C   0  0  2  0  0  0  0  0  0  0  0  0
    8.5643  -15.1872   23.4689 N   0  0  0  0  0  0  0  0  0  0  0  0
    9.2224  -15.6141   25.7310 C   0  0  0  0  0  0  0  0  0  0  0  0
   10.2430  -16.1827   25.1860 O   0  0  0  0  0  0  0  0  0  0  0  0
    9.3261  -15.3216   27.0964 N   0  0  0  0  0  0  0  0  0  0  0  0
    8.1996  -14.7730   27.8776 C   0  0  0  0  0  0  0  0  0  0  0  0
    8.7800  -14.3835   29.2038 C   0  0  0  0  0  0  0  0  0  0  0  0
   10.2529  -14.2161   28.8997 C   0  0  0  0  0  0  0  0  0  0  0  0
   10.4502  -15.4482   27.9867 C   0  0  1  0  0  0  0  0  0  0  0  0
   10.2563  -16.6068   28.9280 C   0  0  0  0  0  0  0  0  0  0  0  0
    9.2233  -17.2861   28.9707 O   0  0  0  0  0  0  0  0  0  0  0  0
   11.3030  -16.9148   29.7865 O   0  0  0  0  0  0  0  0  0  0  0  0
  2  1  1  6
  3  2  1  0
  4  3  1  0
  5  4  2  0
  6  7  1  0
  6  5  1  0
  7  8  2  0
  8  4  1  0
  9  2  1  0
  9 10  2  0
 11 12  1  0
 13 12  1  6
 13 14  1  0
 13 15  1  0
 14  9  1  0
 15 17  1  0
 16 15  2  0
 17 21  1  0
 17 18  1  0
 19 18  1  0
 20 19  1  0
 21 20  1  0
 21 22  1  1
 22 23  2  0
 22 24  1  0
M  END
$$$$
