HSP.pdb
     RDKit          3D

 24 25  0  0  1  0  0  0  0  0999 V2000
    7.3261  -16.2908   20.5563 N   0  0  0  0  0  0  0  0  0  0  0  0
    7.7355  -15.1035   21.2595 C   0  0  1  0  0  0  0  0  0  0  0  0
    7.1073  -13.8787   20.6543 C   0  0  0  0  0  0  0  0  0  0  0  0
    7.6138  -13.7192   19.2758 C   0  0  0  0  0  0  0  0  0  0  0  0
    8.5669  -12.8047   18.8816 C   0  0  0  0  0  0  0  0  0  0  0  0
    8.7858  -12.9345   17.5739 N   0  0  0  0  0  0  0  0  0  0  0  0
    7.9939  -13.9109   17.1263 C   0  0  0  0  0  0  0  0  0  0  0  0
    7.2641  -14.4063   18.1616 N   0  0  0  0  0  0  0  0  0  0  0  0
    7.3565  -15.2015   22.7147 C   0  0  0  0  0  0  0  0  0  0  0  0
    6.1531  -15.1515   23.0749 O   0  0  0  0  0  0  0  0  0  0  0  0
    7.5031  -17.9025   25.0734 O   0  0  0  0  0  0  0  0  0  0  0  0
    7.0116  -16.6412   25.2453 C   0  0  0  0  0  0  0  0  0  0  0  0
    8.0231  -15.5144   25.1380 C   0  0  2  0  0  0  0  0  0  0  0  0
    8.3442  -15.3514   23.7033 N   0  0  0  0  0  0  0  0  0  0  0  0
    9.2748  -15.7662   25.8700 C   0  0  0  0  0  0  0  0  0  0  0  0
   10.1976  -16.4083   25.2389 O   0  0  0  0  0  0  0  0  0  0  0  0
    9.5706  -15.3776   27.1822 N   0  0  0  0  0  0  0  0  0  0  0  0
    8.6072  -14.6462   28.0290 C   0  0  0  0  0  0  0  0  0  0  0  0
    9.3789  -14.2175   29.2406 C   0  0  0  0  0  0  0  0  0  0  0  0
   10.8139  -14.2394   28.7608 C   0  0  0  0  0  0  0  0  0  0  0  0
   10.7751  -15.5556   27.9504 C   0  0  1  0  0  0  0  0  0  0  0  0
   10.5801  -16.6056   29.0112 C   0  0  0  0  0  0  0  0  0  0  0  0
    9.4877  -17.1304   29.2595 O   0  0  0  0  0  0  0  0  0  0  0  0
   11.6966  -16.9933   29.7395 O   0  0  0  0  0  0  0  0  0  0  0  0
  2  1  1  6
  3  2  1  0
  4  3  1  0
  5  4  2  0
  6  7  1  0
  6  5  1  0
  7  8  2  0
  8  4  1  0
  9  2  1  0
  9 10  2  0
 11 12  1  0
 13 12  1  6
 13 14  1  0
 13 15  1  0
 14  9  1  0
 15 17  1  0
 16 15  2  0
 17 21  1  0
 17 18  1  0
 19 18  1  0
 20 19  1  0
 21 20  1  0
 21 22  1  1
 22 23  2  0
 22 24  1  0
M  END
$$$$
