HSP.pdb
     RDKit          3D

 24 25  0  0  1  0  0  0  0  0999 V2000
    8.1711  -15.8265   20.6456 N   0  0  0  0  0  0  0  0  0  0  0  0
    8.2957  -14.4833   21.1478 C   0  0  1  0  0  0  0  0  0  0  0  0
    7.4102  -13.5403   20.3813 C   0  0  0  0  0  0  0  0  0  0  0  0
    7.7961  -13.5822   18.9559 C   0  0  0  0  0  0  0  0  0  0  0  0
    8.9022  -12.9626   18.4150 C   0  0  0  0  0  0  0  0  0  0  0  0
    8.9462  -13.2066   17.1060 N   0  0  0  0  0  0  0  0  0  0  0  0
    7.8931  -13.9674   16.8010 C   0  0  0  0  0  0  0  0  0  0  0  0
    7.1729  -14.2090   17.9291 N   0  0  0  0  0  0  0  0  0  0  0  0
    7.9388  -14.4376   22.6112 C   0  0  0  0  0  0  0  0  0  0  0  0
    7.5580  -13.3682   23.1514 O   0  0  0  0  0  0  0  0  0  0  0  0
    7.0519  -17.8744   24.9070 O   0  0  0  0  0  0  0  0  0  0  0  0
    6.7841  -16.5751   25.2265 C   0  0  0  0  0  0  0  0  0  0  0  0
    7.8655  -15.5691   24.8758 C   0  0  2  0  0  0  0  0  0  0  0  0
    8.0244  -15.5939   23.4055 N   0  0  0  0  0  0  0  0  0  0  0  0
    9.1708  -15.8595   25.4907 C   0  0  0  0  0  0  0  0  0  0  0  0
   10.0112  -16.5305   24.7798 O   0  0  0  0  0  0  0  0  0  0  0  0
    9.5979  -15.4793   26.7688 N   0  0  0  0  0  0  0  0  0  0  0  0
    8.7773  -14.6363   27.6611 C   0  0  0  0  0  0  0  0  0  0  0  0
    9.6736  -14.2676   28.8049 C   0  0  0  0  0  0  0  0  0  0  0  0
   11.0607  -14.4472   28.2275 C   0  0  0  0  0  0  0  0  0  0  0  0
   10.8298  -15.7670   27.4560 C   0  0  1  0  0  0  0  0  0  0  0  0
   10.6049  -16.7713   28.5545 C   0  0  0  0  0  0  0  0  0  0  0  0
    9.4846  -17.1676   28.8982 O   0  0  0  0  0  0  0  0  0  0  0  0
   11.7259  -17.2682   29.2054 O   0  0  0  0  0  0  0  0  0  0  0  0
  2  1  1  6
  3  2  1  0
  4  3  1  0
  5  4  2  0
  6  7  1  0
  6  5  1  0
  7  8  2  0
  8  4  1  0
  9  2  1  0
  9 10  2  0
 11 12  1  0
 13 12  1  6
 13 14  1  0
 13 15  1  0
 14  9  1  0
 15 17  1  0
 16 15  2  0
 17 21  1  0
 17 18  1  0
 19 18  1  0
 20 19  1  0
 21 20  1  0
 21 22  1  1
 22 23  2  0
 22 24  1  0
M  END
$$$$
