HSP.pdb
     RDKit          3D

 24 25  0  0  1  0  0  0  0  0999 V2000
    8.1611  -15.8564   20.1039 N   0  0  0  0  0  0  0  0  0  0  0  0
    8.2334  -14.4832   20.5294 C   0  0  1  0  0  0  0  0  0  0  0  0
    7.4837  -13.5882   19.5817 C   0  0  0  0  0  0  0  0  0  0  0  0
    7.9253  -13.8832   18.2032 C   0  0  0  0  0  0  0  0  0  0  0  0
    7.1151  -13.8591   17.0883 C   0  0  0  0  0  0  0  0  0  0  0  0
    7.8370  -14.1740   16.0138 N   0  0  0  0  0  0  0  0  0  0  0  0
    9.0885  -14.3980   16.4189 C   0  0  0  0  0  0  0  0  0  0  0  0
    9.1618  -14.2233   17.7657 N   0  0  0  0  0  0  0  0  0  0  0  0
    7.6691  -14.3365   21.9190 C   0  0  0  0  0  0  0  0  0  0  0  0
    7.5524  -13.2049   22.4540 O   0  0  0  0  0  0  0  0  0  0  0  0
    7.0487  -17.7838   24.6122 O   0  0  0  0  0  0  0  0  0  0  0  0
    6.2145  -16.7206   24.4234 C   0  0  0  0  0  0  0  0  0  0  0  0
    6.8858  -15.4035   24.0782 C   0  0  2  0  0  0  0  0  0  0  0  0
    7.2600  -15.4660   22.6486 N   0  0  0  0  0  0  0  0  0  0  0  0
    8.0984  -15.1289   24.8658 C   0  0  0  0  0  0  0  0  0  0  0  0
    9.2158  -15.5451   24.3758 O   0  0  0  0  0  0  0  0  0  0  0  0
    8.1662  -14.4581   26.0930 N   0  0  0  0  0  0  0  0  0  0  0  0
    6.9740  -13.8894   26.7529 C   0  0  0  0  0  0  0  0  0  0  0  0
    7.4969  -13.0662   27.8914 C   0  0  0  0  0  0  0  0  0  0  0  0
    8.9223  -12.7715   27.4775 C   0  0  0  0  0  0  0  0  0  0  0  0
    9.3038  -14.1642   26.9249 C   0  0  1  0  0  0  0  0  0  0  0  0
    9.3031  -15.0327   28.1543 C   0  0  0  0  0  0  0  0  0  0  0  0
    8.3803  -15.8035   28.4451 O   0  0  0  0  0  0  0  0  0  0  0  0
   10.4049  -14.9511   28.9950 O   0  0  0  0  0  0  0  0  0  0  0  0
  2  1  1  6
  3  2  1  0
  4  3  1  0
  5  4  2  0
  6  7  1  0
  6  5  1  0
  7  8  2  0
  8  4  1  0
  9  2  1  0
  9 10  2  0
 11 12  1  0
 13 12  1  1
 13 14  1  0
 13 15  1  0
 14  9  1  0
 15 17  1  0
 16 15  2  0
 17 21  1  0
 17 18  1  0
 19 18  1  0
 20 19  1  0
 21 20  1  0
 21 22  1  1
 22 23  2  0
 22 24  1  0
M  END
$$$$
