HSP.pdb
     RDKit          3D

 24 25  0  0  1  0  0  0  0  0999 V2000
    7.8442  -16.3429   20.4875 N   0  0  0  0  0  0  0  0  0  0  0  0
    7.9517  -15.0305   21.0687 C   0  0  1  0  0  0  0  0  0  0  0  0
    7.1073  -14.0400   20.3158 C   0  0  0  0  0  0  0  0  0  0  0  0
    7.5711  -13.9921   18.9140 C   0  0  0  0  0  0  0  0  0  0  0  0
    8.3405  -12.9877   18.3669 C   0  0  0  0  0  0  0  0  0  0  0  0
    8.5745  -13.2626   17.0845 N   0  0  0  0  0  0  0  0  0  0  0  0
    7.9716  -14.4193   16.8025 C   0  0  0  0  0  0  0  0  0  0  0  0
    7.3480  -14.8835   17.9184 N   0  0  0  0  0  0  0  0  0  0  0  0
    7.5274  -15.0631   22.5144 C   0  0  0  0  0  0  0  0  0  0  0  0
    6.3266  -14.8841   22.8407 O   0  0  0  0  0  0  0  0  0  0  0  0
    7.5228  -17.8025   24.8364 O   0  0  0  0  0  0  0  0  0  0  0  0
    7.0589  -16.5362   25.0450 C   0  0  0  0  0  0  0  0  0  0  0  0
    8.0924  -15.4278   24.9561 C   0  0  2  0  0  0  0  0  0  0  0  0
    8.4688  -15.2952   23.5319 N   0  0  0  0  0  0  0  0  0  0  0  0
    9.3119  -15.6868   25.7383 C   0  0  0  0  0  0  0  0  0  0  0  0
   10.2850  -16.2658   25.1221 O   0  0  0  0  0  0  0  0  0  0  0  0
    9.5279  -15.3662   27.0841 N   0  0  0  0  0  0  0  0  0  0  0  0
    8.4784  -14.7722   27.9361 C   0  0  0  0  0  0  0  0  0  0  0  0
    9.1687  -14.3674   29.2038 C   0  0  0  0  0  0  0  0  0  0  0  0
   10.6170  -14.2436   28.7830 C   0  0  0  0  0  0  0  0  0  0  0  0
   10.7145  -15.5005   27.8880 C   0  0  1  0  0  0  0  0  0  0  0  0
   10.5676  -16.6323   28.8695 C   0  0  0  0  0  0  0  0  0  0  0  0
    9.5192  -17.2706   29.0234 O   0  0  0  0  0  0  0  0  0  0  0  0
   11.6781  -16.9634   29.6340 O   0  0  0  0  0  0  0  0  0  0  0  0
  2  1  1  6
  3  2  1  0
  4  3  1  0
  5  4  2  0
  6  7  1  0
  6  5  1  0
  7  8  2  0
  8  4  1  0
  9  2  1  0
  9 10  2  0
 11 12  1  0
 13 12  1  6
 13 14  1  0
 13 15  1  0
 14  9  1  0
 15 17  1  0
 16 15  2  0
 17 21  1  0
 17 18  1  0
 19 18  1  0
 20 19  1  0
 21 20  1  0
 21 22  1  1
 22 23  2  0
 22 24  1  0
M  END
$$$$
