HSP.pdb
     RDKit          3D

 24 25  0  0  1  0  0  0  0  0999 V2000
    8.4073  -15.9744   20.9393 N   0  0  0  0  0  0  0  0  0  0  0  0
    8.3044  -14.6144   21.3995 C   0  0  1  0  0  0  0  0  0  0  0  0
    7.2291  -13.8756   20.6519 C   0  0  0  0  0  0  0  0  0  0  0  0
    7.5377  -13.9247   19.2080 C   0  0  0  0  0  0  0  0  0  0  0  0
    8.1824  -12.9328   18.5004 C   0  0  0  0  0  0  0  0  0  0  0  0
    8.2951  -13.3047   17.2261 N   0  0  0  0  0  0  0  0  0  0  0  0
    7.7370  -14.5109   17.1061 C   0  0  0  0  0  0  0  0  0  0  0  0
    7.2647  -14.9089   18.3178 N   0  0  0  0  0  0  0  0  0  0  0  0
    8.0075  -14.5839   22.8766 C   0  0  0  0  0  0  0  0  0  0  0  0
    7.8207  -13.4952   23.4769 O   0  0  0  0  0  0  0  0  0  0  0  0
    7.3441  -18.2027   25.1693 O   0  0  0  0  0  0  0  0  0  0  0  0
    6.8528  -16.9551   25.4226 C   0  0  0  0  0  0  0  0  0  0  0  0
    7.7761  -15.7976   25.0874 C   0  0  2  0  0  0  0  0  0  0  0  0
    7.9331  -15.7763   23.6168 N   0  0  0  0  0  0  0  0  0  0  0  0
    9.1113  -15.9053   25.6971 C   0  0  0  0  0  0  0  0  0  0  0  0
   10.0268  -16.4782   24.9930 O   0  0  0  0  0  0  0  0  0  0  0  0
    9.4935  -15.4464   26.9635 N   0  0  0  0  0  0  0  0  0  0  0  0
    8.5450  -14.8000   27.8923 C   0  0  0  0  0  0  0  0  0  0  0  0
    9.3828  -14.2520   29.0082 C   0  0  0  0  0  0  0  0  0  0  0  0
   10.7547  -14.1305   28.3814 C   0  0  0  0  0  0  0  0  0  0  0  0
   10.7823  -15.4671   27.6047 C   0  0  1  0  0  0  0  0  0  0  0  0
   10.8158  -16.4992   28.6999 C   0  0  0  0  0  0  0  0  0  0  0  0
    9.8222  -17.1388   29.0658 O   0  0  0  0  0  0  0  0  0  0  0  0
   12.0353  -16.7324   29.3211 O   0  0  0  0  0  0  0  0  0  0  0  0
  2  1  1  6
  3  2  1  0
  4  3  1  0
  5  4  2  0
  6  7  1  0
  6  5  1  0
  7  8  2  0
  8  4  1  0
  9  2  1  0
  9 10  2  0
 11 12  1  0
 13 12  1  6
 13 14  1  0
 13 15  1  0
 14  9  1  0
 15 17  1  0
 16 15  2  0
 17 21  1  0
 17 18  1  0
 19 18  1  0
 20 19  1  0
 21 20  1  0
 21 22  1  1
 22 23  2  0
 22 24  1  0
M  END
$$$$
