HSP.pdb
     RDKit          3D

 24 25  0  0  1  0  0  0  0  0999 V2000
    7.6416  -16.2655   20.6387 N   0  0  0  0  0  0  0  0  0  0  0  0
    7.8736  -14.9653   21.2110 C   0  0  1  0  0  0  0  0  0  0  0  0
    7.1101  -13.9070   20.4642 C   0  0  0  0  0  0  0  0  0  0  0  0
    7.5728  -13.8910   19.0613 C   0  0  0  0  0  0  0  0  0  0  0  0
    8.5026  -13.0156   18.5425 C   0  0  0  0  0  0  0  0  0  0  0  0
    8.6835  -13.2821   17.2498 N   0  0  0  0  0  0  0  0  0  0  0  0
    7.8901  -14.3075   16.9335 C   0  0  0  0  0  0  0  0  0  0  0  0
    7.1979  -14.6959   18.0379 N   0  0  0  0  0  0  0  0  0  0  0  0
    7.4686  -14.9538   22.6625 C   0  0  0  0  0  0  0  0  0  0  0  0
    6.2766  -14.7398   23.0002 O   0  0  0  0  0  0  0  0  0  0  0  0
    7.3344  -17.6544   25.0206 O   0  0  0  0  0  0  0  0  0  0  0  0
    6.9475  -16.3558   25.1819 C   0  0  0  0  0  0  0  0  0  0  0  0
    8.0531  -15.3188   25.0996 C   0  0  2  0  0  0  0  0  0  0  0  0
    8.4184  -15.1828   23.6728 N   0  0  0  0  0  0  0  0  0  0  0  0
    9.2624  -15.6764   25.8583 C   0  0  0  0  0  0  0  0  0  0  0  0
   10.1714  -16.3358   25.2252 O   0  0  0  0  0  0  0  0  0  0  0  0
    9.5315  -15.3716   27.1982 N   0  0  0  0  0  0  0  0  0  0  0  0
    8.5405  -14.7199   28.0777 C   0  0  0  0  0  0  0  0  0  0  0  0
    9.2858  -14.3583   29.3272 C   0  0  0  0  0  0  0  0  0  0  0  0
   10.7273  -14.3173   28.8689 C   0  0  0  0  0  0  0  0  0  0  0  0
   10.7289  -15.5759   27.9708 C   0  0  1  0  0  0  0  0  0  0  0  0
   10.5425  -16.6994   28.9551 C   0  0  0  0  0  0  0  0  0  0  0  0
    9.4633  -17.2763   29.1362 O   0  0  0  0  0  0  0  0  0  0  0  0
   11.6517  -17.0959   29.6898 O   0  0  0  0  0  0  0  0  0  0  0  0
  2  1  1  6
  3  2  1  0
  4  3  1  0
  5  4  2  0
  6  7  1  0
  6  5  1  0
  7  8  2  0
  8  4  1  0
  9  2  1  0
  9 10  2  0
 11 12  1  0
 13 12  1  6
 13 14  1  0
 13 15  1  0
 14  9  1  0
 15 17  1  0
 16 15  2  0
 17 21  1  0
 17 18  1  0
 19 18  1  0
 20 19  1  0
 21 20  1  0
 21 22  1  1
 22 23  2  0
 22 24  1  0
M  END
$$$$
