HSP.pdb
     RDKit          3D

 24 25  0  0  1  0  0  0  0  0999 V2000
    8.3692  -16.1278   20.4471 N   0  0  0  0  0  0  0  0  0  0  0  0
    8.1407  -14.8449   21.0585 C   0  0  1  0  0  0  0  0  0  0  0  0
    7.1259  -14.0536   20.2807 C   0  0  0  0  0  0  0  0  0  0  0  0
    7.6040  -13.9079   18.8906 C   0  0  0  0  0  0  0  0  0  0  0  0
    8.4894  -12.9465   18.4528 C   0  0  0  0  0  0  0  0  0  0  0  0
    8.7006  -13.1059   17.1470 N   0  0  0  0  0  0  0  0  0  0  0  0
    7.9699  -14.1469   16.7433 C   0  0  0  0  0  0  0  0  0  0  0  0
    7.2872  -14.6539   17.8048 N   0  0  0  0  0  0  0  0  0  0  0  0
    7.6674  -15.0199   22.4785 C   0  0  0  0  0  0  0  0  0  0  0  0
    6.4598  -14.8501   22.7838 O   0  0  0  0  0  0  0  0  0  0  0  0
    6.1699  -16.6972   23.9624 O   0  0  0  0  0  0  0  0  0  0  0  0
    7.1727  -16.7684   24.8852 C   0  0  0  0  0  0  0  0  0  0  0  0
    8.1495  -15.6063   24.8947 C   0  0  2  0  0  0  0  0  0  0  0  0
    8.5696  -15.3779   23.4950 N   0  0  0  0  0  0  0  0  0  0  0  0
    9.3519  -15.8459   25.7089 C   0  0  0  0  0  0  0  0  0  0  0  0
   10.3064  -16.5110   25.1535 O   0  0  0  0  0  0  0  0  0  0  0  0
    9.5698  -15.4231   27.0258 N   0  0  0  0  0  0  0  0  0  0  0  0
    8.5613  -14.6643   27.7922 C   0  0  0  0  0  0  0  0  0  0  0  0
    9.2606  -14.2064   29.0367 C   0  0  0  0  0  0  0  0  0  0  0  0
   10.7219  -14.2483   28.6461 C   0  0  0  0  0  0  0  0  0  0  0  0
   10.7241  -15.5859   27.8706 C   0  0  1  0  0  0  0  0  0  0  0  0
   10.4581  -16.6056   28.9453 C   0  0  0  0  0  0  0  0  0  0  0  0
    9.3496  -17.1195   29.1395 O   0  0  0  0  0  0  0  0  0  0  0  0
   11.5251  -16.9772   29.7519 O   0  0  0  0  0  0  0  0  0  0  0  0
  2  1  1  6
  3  2  1  0
  4  3  1  0
  5  4  2  0
  6  7  1  0
  6  5  1  0
  7  8  2  0
  8  4  1  0
  9  2  1  0
  9 10  2  0
 11 12  1  0
 13 12  1  6
 13 14  1  0
 13 15  1  0
 14  9  1  0
 15 17  1  0
 16 15  2  0
 17 21  1  0
 17 18  1  0
 19 18  1  0
 20 19  1  0
 21 20  1  0
 21 22  1  1
 22 23  2  0
 22 24  1  0
M  END
$$$$
