HSP.pdb
     RDKit          3D

 24 25  0  0  1  0  0  0  0  0999 V2000
    8.5587  -15.7929   19.9176 N   0  0  0  0  0  0  0  0  0  0  0  0
    8.4979  -14.4388   20.4018 C   0  0  1  0  0  0  0  0  0  0  0  0
    7.7850  -13.5502   19.4204 C   0  0  0  0  0  0  0  0  0  0  0  0
    8.1080  -14.0022   18.0516 C   0  0  0  0  0  0  0  0  0  0  0  0
    9.0421  -14.9648   17.7337 C   0  0  0  0  0  0  0  0  0  0  0  0
    9.0763  -15.1240   16.4114 N   0  0  0  0  0  0  0  0  0  0  0  0
    8.1852  -14.2847   15.8800 C   0  0  0  0  0  0  0  0  0  0  0  0
    7.5787  -13.5850   16.8762 N   0  0  0  0  0  0  0  0  0  0  0  0
    7.7938  -14.3913   21.7333 C   0  0  0  0  0  0  0  0  0  0  0  0
    7.6847  -13.3125   22.3697 O   0  0  0  0  0  0  0  0  0  0  0  0
    6.2170  -17.3855   25.3047 O   0  0  0  0  0  0  0  0  0  0  0  0
    6.5314  -17.0958   24.0088 C   0  0  0  0  0  0  0  0  0  0  0  0
    6.7910  -15.6322   23.7002 C   0  0  2  0  0  0  0  0  0  0  0  0
    7.2424  -15.5563   22.2937 N   0  0  0  0  0  0  0  0  0  0  0  0
    7.8202  -15.0172   24.5538 C   0  0  0  0  0  0  0  0  0  0  0  0
    9.0483  -15.2037   24.2089 O   0  0  0  0  0  0  0  0  0  0  0  0
    7.6046  -14.2459   25.7024 N   0  0  0  0  0  0  0  0  0  0  0  0
    6.2536  -13.9711   26.2311 C   0  0  0  0  0  0  0  0  0  0  0  0
    6.4411  -12.9363   27.2995 C   0  0  0  0  0  0  0  0  0  0  0  0
    7.7635  -12.2984   26.9332 C   0  0  0  0  0  0  0  0  0  0  0  0
    8.5494  -13.5757   26.5572 C   0  0  1  0  0  0  0  0  0  0  0  0
    8.6820  -14.2960   27.8723 C   0  0  0  0  0  0  0  0  0  0  0  0
    9.4582  -13.9432   28.7686 O   0  0  0  0  0  0  0  0  0  0  0  0
    7.8829  -15.4135   28.0723 O   0  0  0  0  0  0  0  0  0  0  0  0
  2  1  1  6
  3  2  1  0
  4  3  1  0
  5  4  2  0
  6  7  1  0
  6  5  1  0
  7  8  2  0
  8  4  1  0
  9  2  1  0
  9 10  2  0
 11 12  1  0
 13 12  1  1
 13 14  1  0
 13 15  1  0
 14  9  1  0
 15 17  1  0
 16 15  2  0
 17 21  1  0
 17 18  1  0
 19 18  1  0
 20 19  1  0
 21 20  1  0
 21 22  1  1
 22 23  2  0
 22 24  1  0
M  END
$$$$
