HSP.pdb
     RDKit          3D

 24 25  0  0  1  0  0  0  0  0999 V2000
    8.4883  -16.1626   20.2721 N   0  0  0  0  0  0  0  0  0  0  0  0
    7.9550  -14.8968   20.7025 C   0  0  1  0  0  0  0  0  0  0  0  0
    6.9211  -14.3934   19.7338 C   0  0  0  0  0  0  0  0  0  0  0  0
    7.5423  -14.2733   18.3989 C   0  0  0  0  0  0  0  0  0  0  0  0
    8.3415  -13.2284   17.9869 C   0  0  0  0  0  0  0  0  0  0  0  0
    8.7297  -13.4413   16.7304 N   0  0  0  0  0  0  0  0  0  0  0  0
    8.1960  -14.5980   16.3328 C   0  0  0  0  0  0  0  0  0  0  0  0
    7.4608  -15.1250   17.3484 N   0  0  0  0  0  0  0  0  0  0  0  0
    7.3443  -15.0266   22.0741 C   0  0  0  0  0  0  0  0  0  0  0  0
    6.2706  -14.4398   22.3627 O   0  0  0  0  0  0  0  0  0  0  0  0
    8.0130  -18.1880   24.8274 O   0  0  0  0  0  0  0  0  0  0  0  0
    7.0436  -17.2287   24.7816 C   0  0  0  0  0  0  0  0  0  0  0  0
    7.5179  -15.8201   24.4729 C   0  0  2  0  0  0  0  0  0  0  0  0
    7.9647  -15.8092   23.0630 N   0  0  0  0  0  0  0  0  0  0  0  0
    8.6343  -15.3690   25.3192 C   0  0  0  0  0  0  0  0  0  0  0  0
    9.8185  -15.7299   24.9593 O   0  0  0  0  0  0  0  0  0  0  0  0
    8.5453  -14.5839   26.4751 N   0  0  0  0  0  0  0  0  0  0  0  0
    7.2687  -14.0143   26.9505 C   0  0  0  0  0  0  0  0  0  0  0  0
    7.6355  -13.0639   28.0504 C   0  0  0  0  0  0  0  0  0  0  0  0
    9.0844  -12.7406   27.7576 C   0  0  0  0  0  0  0  0  0  0  0  0
    9.5757  -14.1588   27.3862 C   0  0  1  0  0  0  0  0  0  0  0  0
    9.4774  -14.9075   28.6883 C   0  0  0  0  0  0  0  0  0  0  0  0
    8.5512  -15.6801   28.9633 O   0  0  0  0  0  0  0  0  0  0  0  0
   10.4888  -14.7080   29.6182 O   0  0  0  0  0  0  0  0  0  0  0  0
  2  1  1  6
  3  2  1  0
  4  3  1  0
  5  4  2  0
  6  7  1  0
  6  5  1  0
  7  8  2  0
  8  4  1  0
  9  2  1  0
  9 10  2  0
 11 12  1  0
 13 12  1  1
 13 14  1  0
 13 15  1  0
 14  9  1  0
 15 17  1  0
 16 15  2  0
 17 21  1  0
 17 18  1  0
 19 18  1  0
 20 19  1  0
 21 20  1  0
 21 22  1  1
 22 23  2  0
 22 24  1  0
M  END
$$$$
