YES.pdb
     RDKit          3D

 28 28  0  0  1  0  0  0  0  0999 V2000
    5.2815  -10.3572   27.1737 O   0  0  0  0  0  0  0  0  0  0  0  0
    5.9837  -11.4301   26.6241 C   0  0  0  0  0  0  0  0  0  0  0  0
    5.6648  -11.8727   25.3561 C   0  0  0  0  0  0  0  0  0  0  0  0
    6.3614  -12.9345   24.8151 C   0  0  0  0  0  0  0  0  0  0  0  0
    7.3588  -13.5287   25.5515 C   0  0  0  0  0  0  0  0  0  0  0  0
    8.1113  -14.6632   24.9880 C   0  0  0  0  0  0  0  0  0  0  0  0
    7.2440  -15.8708   24.7421 C   0  0  2  0  0  0  0  0  0  0  0  0
    6.7069  -16.4073   25.9800 N   0  0  0  0  0  0  0  0  0  0  0  0
    8.0836  -16.8889   24.0417 C   0  0  0  0  0  0  0  0  0  0  0  0
    8.6007  -17.8473   24.6683 O   0  0  0  0  0  0  0  0  0  0  0  0
    7.6591  -13.0720   26.8107 C   0  0  0  0  0  0  0  0  0  0  0  0
    6.9778  -12.0184   27.3645 C   0  0  0  0  0  0  0  0  0  0  0  0
    8.2952  -16.7665   22.6549 N   0  0  0  0  0  0  0  0  0  0  0  0
    9.0915  -17.6934   21.8813 C   0  0  1  0  0  0  0  0  0  0  0  0
    8.9496  -17.4300   20.4110 C   0  0  0  0  0  0  0  0  0  0  0  0
    9.7819  -18.3688   19.5972 C   0  0  0  0  0  0  0  0  0  0  0  0
    9.5795  -18.0860   18.1645 C   0  0  0  0  0  0  0  0  0  0  0  0
   10.3033  -18.6350   17.3176 O   0  0  0  0  0  0  0  0  0  0  0  0
   10.5480  -17.5609   22.2560 C   0  0  0  0  0  0  0  0  0  0  0  0
   11.0831  -16.4262   22.2851 O   0  0  0  0  0  0  0  0  0  0  0  0
    8.5935  -17.2144   17.7249 O   0  0  0  0  0  0  0  0  0  0  0  0
   12.5004  -20.9270   23.7903 O   0  0  0  0  0  0  0  0  0  0  0  0
   12.9920  -19.6726   24.0727 C   0  0  0  0  0  0  0  0  0  0  0  0
   12.6195  -18.6758   23.0279 C   0  0  2  0  0  0  0  0  0  0  0  0
   11.2698  -18.7433   22.5665 N   0  0  0  0  0  0  0  0  0  0  0  0
   13.6158  -18.6794   21.9229 C   0  0  0  0  0  0  0  0  0  0  0  0
   13.3611  -18.7887   20.7216 O   0  0  0  0  0  0  0  0  0  0  0  0
   14.9676  -18.5470   22.2743 O   0  0  0  0  0  0  0  0  0  0  0  0
  2  1  1  0
  2 12  2  0
  3  2  1  0
  4  3  2  0
  4  5  1  0
  5 11  2  0
  6  5  1  0
  7  8  1  1
  7  6  1  0
  9  7  1  0
 10  9  2  0
 11 12  1  0
 13  9  1  0
 14 13  1  0
 14 15  1  6
 15 16  1  0
 16 17  1  0
 17 21  1  0
 17 18  2  0
 19 14  1  0
 20 19  2  0
 22 23  1  0
 24 23  1  1
 24 26  1  0
 24 25  1  0
 25 19  1  0
 26 28  1  0
 27 26  2  0
M  END
$$$$
