YES.pdb
     RDKit          3D

 28 28  0  0  1  0  0  0  0  0999 V2000
    7.2294  -11.7460   18.0533 O   0  0  0  0  0  0  0  0  0  0  0  0
    7.6339  -12.6450   19.0405 C   0  0  0  0  0  0  0  0  0  0  0  0
    8.9785  -12.7930   19.3150 C   0  0  0  0  0  0  0  0  0  0  0  0
    9.3755  -13.6833   20.2923 C   0  0  0  0  0  0  0  0  0  0  0  0
    8.4221  -14.4041   20.9718 C   0  0  0  0  0  0  0  0  0  0  0  0
    8.8299  -15.3585   22.0175 C   0  0  0  0  0  0  0  0  0  0  0  0
    9.2295  -16.6990   21.4568 C   0  0  2  0  0  0  0  0  0  0  0  0
    8.1055  -17.3790   20.8381 N   0  0  0  0  0  0  0  0  0  0  0  0
    9.7847  -17.5073   22.5838 C   0  0  0  0  0  0  0  0  0  0  0  0
    9.0474  -18.2585   23.2699 O   0  0  0  0  0  0  0  0  0  0  0  0
    7.0903  -14.2408   20.6823 C   0  0  0  0  0  0  0  0  0  0  0  0
    6.6771  -13.3609   19.7147 C   0  0  0  0  0  0  0  0  0  0  0  0
   11.1593  -17.4214   22.8773 N   0  0  0  0  0  0  0  0  0  0  0  0
   11.8185  -18.2377   23.8726 C   0  0  1  0  0  0  0  0  0  0  0  0
   13.2983  -18.2931   23.6312 C   0  0  0  0  0  0  0  0  0  0  0  0
   13.6164  -18.5000   22.1848 C   0  0  0  0  0  0  0  0  0  0  0  0
   15.0784  -18.4783   21.9970 C   0  0  0  0  0  0  0  0  0  0  0  0
   15.6385  -17.4346   21.6233 O   0  0  0  0  0  0  0  0  0  0  0  0
   11.5760  -17.6691   25.2500 C   0  0  0  0  0  0  0  0  0  0  0  0
   12.1938  -16.6404   25.6170 O   0  0  0  0  0  0  0  0  0  0  0  0
   15.8605  -19.6011   22.2272 O   0  0  0  0  0  0  0  0  0  0  0  0
    8.2658  -18.7959   27.6394 O   0  0  0  0  0  0  0  0  0  0  0  0
    9.0634  -17.7008   27.8831 C   0  0  0  0  0  0  0  0  0  0  0  0
   10.4730  -17.9262   27.4517 C   0  0  2  0  0  0  0  0  0  0  0  0
   10.6435  -18.3296   26.0925 N   0  0  0  0  0  0  0  0  0  0  0  0
   11.1801  -18.8107   28.4169 C   0  0  0  0  0  0  0  0  0  0  0  0
   11.2338  -18.6496   29.6380 O   0  0  0  0  0  0  0  0  0  0  0  0
   11.8471  -19.9296   27.8956 O   0  0  0  0  0  0  0  0  0  0  0  0
  2  1  1  0
  2 12  2  0
  3  2  1  0
  4  3  2  0
  4  5  1  0
  5 11  2  0
  6  5  1  0
  7  8  1  1
  7  6  1  0
  9  7  1  0
 10  9  2  0
 11 12  1  0
 13  9  1  0
 14 13  1  0
 14 15  1  6
 15 16  1  0
 16 17  1  0
 17 21  1  0
 17 18  2  0
 19 14  1  0
 20 19  2  0
 22 23  1  0
 24 23  1  1
 24 26  1  0
 24 25  1  0
 25 19  1  0
 26 28  1  0
 27 26  2  0
M  END
$$$$
