YES.pdb
     RDKit          3D

 28 28  0  0  1  0  0  0  0  0999 V2000
    8.0073  -13.6352   15.5982 O   0  0  0  0  0  0  0  0  0  0  0  0
    7.7619  -13.8176   16.9594 C   0  0  0  0  0  0  0  0  0  0  0  0
    6.9090  -14.8233   17.3672 C   0  0  0  0  0  0  0  0  0  0  0  0
    6.6681  -15.0011   18.7147 C   0  0  0  0  0  0  0  0  0  0  0  0
    7.2836  -14.1718   19.6223 C   0  0  0  0  0  0  0  0  0  0  0  0
    7.0365  -14.3487   21.0639 C   0  0  0  0  0  0  0  0  0  0  0  0
    8.2229  -14.9290   21.7898 C   0  0  2  0  0  0  0  0  0  0  0  0
    8.6971  -16.1465   21.1562 N   0  0  0  0  0  0  0  0  0  0  0  0
    7.7999  -15.1929   23.1981 C   0  0  0  0  0  0  0  0  0  0  0  0
    7.2314  -14.3061   23.8830 O   0  0  0  0  0  0  0  0  0  0  0  0
    8.1282  -13.1780   19.1941 C   0  0  0  0  0  0  0  0  0  0  0  0
    8.3794  -12.9864   17.8595 C   0  0  0  0  0  0  0  0  0  0  0  0
    8.0454  -16.4597   23.7620 N   0  0  0  0  0  0  0  0  0  0  0  0
    7.7920  -16.7819   25.1489 C   0  0  1  0  0  0  0  0  0  0  0  0
    7.5369  -18.2500   25.3239 C   0  0  0  0  0  0  0  0  0  0  0  0
    7.3404  -18.6107   26.7618 C   0  0  0  0  0  0  0  0  0  0  0  0
    7.1538  -20.0683   26.8798 C   0  0  0  0  0  0  0  0  0  0  0  0
    7.1695  -20.7783   25.8609 O   0  0  0  0  0  0  0  0  0  0  0  0
    8.9816  -16.3954   25.9946 C   0  0  0  0  0  0  0  0  0  0  0  0
   10.1177  -16.8496   25.7162 O   0  0  0  0  0  0  0  0  0  0  0  0
    6.9582  -20.6818   28.1089 O   0  0  0  0  0  0  0  0  0  0  0  0
    8.6211  -13.1515   28.4695 O   0  0  0  0  0  0  0  0  0  0  0  0
    9.8841  -13.6656   28.2811 C   0  0  0  0  0  0  0  0  0  0  0  0
    9.8530  -15.1136   27.9252 C   0  0  2  0  0  0  0  0  0  0  0  0
    8.7675  -15.5188   27.0906 N   0  0  0  0  0  0  0  0  0  0  0  0
    9.9992  -15.9548   29.1437 C   0  0  0  0  0  0  0  0  0  0  0  0
    9.2855  -16.9125   29.4496 O   0  0  0  0  0  0  0  0  0  0  0  0
   11.0408  -15.6335   30.0269 O   0  0  0  0  0  0  0  0  0  0  0  0
  2  1  1  0
  2 12  2  0
  3  2  1  0
  4  3  2  0
  4  5  1  0
  5 11  2  0
  6  5  1  0
  7  8  1  6
  7  6  1  0
  9  7  1  0
 10  9  2  0
 11 12  1  0
 13  9  1  0
 14 13  1  0
 14 15  1  6
 15 16  1  0
 16 17  1  0
 17 21  1  0
 17 18  2  0
 19 14  1  0
 20 19  2  0
 22 23  1  0
 24 23  1  1
 24 26  1  0
 24 25  1  0
 25 19  1  0
 26 28  1  0
 27 26  2  0
M  END
$$$$
