YES.pdb
     RDKit          3D

 28 28  0  0  1  0  0  0  0  0999 V2000
    5.4076  -10.3972   26.5890 O   0  0  0  0  0  0  0  0  0  0  0  0
    6.1299  -11.5624   26.3307 C   0  0  0  0  0  0  0  0  0  0  0  0
    5.7888  -12.7314   26.9806 C   0  0  0  0  0  0  0  0  0  0  0  0
    6.5054  -13.8826   26.7229 C   0  0  0  0  0  0  0  0  0  0  0  0
    7.5444  -13.8400   25.8234 C   0  0  0  0  0  0  0  0  0  0  0  0
    8.3190  -15.0603   25.5378 C   0  0  0  0  0  0  0  0  0  0  0  0
    7.6450  -15.9531   24.5279 C   0  0  2  0  0  0  0  0  0  0  0  0
    6.4169  -16.5244   25.0513 N   0  0  0  0  0  0  0  0  0  0  0  0
    8.6170  -17.0271   24.1619 C   0  0  0  0  0  0  0  0  0  0  0  0
    8.5969  -18.1449   24.7352 O   0  0  0  0  0  0  0  0  0  0  0  0
    7.8661  -12.6663   25.1885 C   0  0  0  0  0  0  0  0  0  0  0  0
    7.1654  -11.5127   25.4320 C   0  0  0  0  0  0  0  0  0  0  0  0
    9.5697  -16.7758   23.1558 N   0  0  0  0  0  0  0  0  0  0  0  0
   10.6395  -17.6890   22.8197 C   0  0  1  0  0  0  0  0  0  0  0  0
   11.3677  -17.2372   21.5881 C   0  0  0  0  0  0  0  0  0  0  0  0
   10.5850  -17.5218   20.3461 C   0  0  0  0  0  0  0  0  0  0  0  0
   11.2492  -16.8876   19.1928 C   0  0  0  0  0  0  0  0  0  0  0  0
   10.6906  -15.9537   18.5941 O   0  0  0  0  0  0  0  0  0  0  0  0
   11.6260  -17.7709   23.9598 C   0  0  0  0  0  0  0  0  0  0  0  0
   12.0741  -16.7170   24.4727 O   0  0  0  0  0  0  0  0  0  0  0  0
   12.4953  -17.3054   18.7478 O   0  0  0  0  0  0  0  0  0  0  0  0
   11.5117  -20.7343   26.7215 O   0  0  0  0  0  0  0  0  0  0  0  0
   12.2347  -19.5673   26.8228 C   0  0  0  0  0  0  0  0  0  0  0  0
   12.8920  -19.2010   25.5352 C   0  0  2  0  0  0  0  0  0  0  0  0
   12.0163  -19.0572   24.4164 N   0  0  0  0  0  0  0  0  0  0  0  0
   14.0457  -20.1002   25.2627 C   0  0  0  0  0  0  0  0  0  0  0  0
   14.2263  -20.7502   24.2308 O   0  0  0  0  0  0  0  0  0  0  0  0
   15.0178  -20.2229   26.2669 O   0  0  0  0  0  0  0  0  0  0  0  0
  2  1  1  0
  2 12  2  0
  3  2  1  0
  4  3  2  0
  4  5  1  0
  5 11  2  0
  6  5  1  0
  7  8  1  1
  7  6  1  0
  9  7  1  0
 10  9  2  0
 11 12  1  0
 13  9  1  0
 14 13  1  0
 14 15  1  6
 15 16  1  0
 16 17  1  0
 17 21  1  0
 17 18  2  0
 19 14  1  0
 20 19  2  0
 22 23  1  0
 24 23  1  1
 24 26  1  0
 24 25  1  0
 25 19  1  0
 26 28  1  0
 27 26  2  0
M  END
$$$$
