YES.pdb
     RDKit          3D

 28 28  0  0  1  0  0  0  0  0999 V2000
    5.1862  -12.1979   18.9222 O   0  0  0  0  0  0  0  0  0  0  0  0
    6.4793  -12.6562   19.1759 C   0  0  0  0  0  0  0  0  0  0  0  0
    6.7462  -13.3168   20.3581 C   0  0  0  0  0  0  0  0  0  0  0  0
    8.0266  -13.7690   20.6062 C   0  0  0  0  0  0  0  0  0  0  0  0
    9.0091  -13.5515   19.6694 C   0  0  0  0  0  0  0  0  0  0  0  0
   10.3808  -14.0278   19.9196 C   0  0  0  0  0  0  0  0  0  0  0  0
   10.9236  -14.8576   18.7848 C   0  0  2  0  0  0  0  0  0  0  0  0
   10.0736  -16.0000   18.5004 N   0  0  0  0  0  0  0  0  0  0  0  0
   12.2969  -15.3003   19.1720 C   0  0  0  0  0  0  0  0  0  0  0  0
   12.4749  -16.3242   19.8781 O   0  0  0  0  0  0  0  0  0  0  0  0
    8.7210  -12.8921   18.5005 C   0  0  0  0  0  0  0  0  0  0  0  0
    7.4549  -12.4357   18.2367 C   0  0  0  0  0  0  0  0  0  0  0  0
   13.4072  -14.5527   18.7347 N   0  0  0  0  0  0  0  0  0  0  0  0
   14.7794  -14.9531   18.9546 C   0  0  1  0  0  0  0  0  0  0  0  0
   15.7161  -14.1719   18.0809 C   0  0  0  0  0  0  0  0  0  0  0  0
   17.1302  -14.6339   18.2324 C   0  0  0  0  0  0  0  0  0  0  0  0
   17.9959  -13.8696   17.3160 C   0  0  0  0  0  0  0  0  0  0  0  0
   18.2925  -14.3428   16.2066 O   0  0  0  0  0  0  0  0  0  0  0  0
   15.1602  -14.7216   20.3972 C   0  0  0  0  0  0  0  0  0  0  0  0
   15.0324  -13.5788   20.8995 O   0  0  0  0  0  0  0  0  0  0  0  0
   18.4974  -12.6215   17.6567 O   0  0  0  0  0  0  0  0  0  0  0  0
   15.1919  -17.8771   23.0387 O   0  0  0  0  0  0  0  0  0  0  0  0
   15.1905  -16.5643   23.4525 C   0  0  0  0  0  0  0  0  0  0  0  0
   15.9659  -15.6847   22.5309 C   0  0  2  0  0  0  0  0  0  0  0  0
   15.6566  -15.8224   21.1437 N   0  0  0  0  0  0  0  0  0  0  0  0
   17.4227  -15.7822   22.8175 C   0  0  0  0  0  0  0  0  0  0  0  0
   18.2994  -16.0856   22.0055 O   0  0  0  0  0  0  0  0  0  0  0  0
   17.8412  -15.5049   24.1275 O   0  0  0  0  0  0  0  0  0  0  0  0
  2  1  1  0
  2 12  2  0
  3  2  1  0
  4  3  2  0
  4  5  1  0
  5 11  2  0
  6  5  1  0
  7  8  1  1
  7  6  1  0
  9  7  1  0
 10  9  2  0
 11 12  1  0
 13  9  1  0
 14 13  1  0
 14 15  1  6
 15 16  1  0
 16 17  1  0
 17 21  1  0
 17 18  2  0
 19 14  1  0
 20 19  2  0
 22 23  1  0
 24 23  1  1
 24 26  1  0
 24 25  1  0
 25 19  1  0
 26 28  1  0
 27 26  2  0
M  END
$$$$
