YES.pdb
     RDKit          3D

 28 28  0  0  1  0  0  0  0  0999 V2000
    7.2301  -11.3265   18.5902 O   0  0  0  0  0  0  0  0  0  0  0  0
    7.7498  -12.3516   19.3810 C   0  0  0  0  0  0  0  0  0  0  0  0
    6.8893  -13.1663   20.0889 C   0  0  0  0  0  0  0  0  0  0  0  0
    7.4065  -14.1796   20.8706 C   0  0  0  0  0  0  0  0  0  0  0  0
    8.7689  -14.3557   20.9270 C   0  0  0  0  0  0  0  0  0  0  0  0
    9.3363  -15.4328   21.7570 C   0  0  0  0  0  0  0  0  0  0  0  0
    9.9472  -16.5387   20.9355 C   0  0  2  0  0  0  0  0  0  0  0  0
    8.9683  -17.1633   20.0635 N   0  0  0  0  0  0  0  0  0  0  0  0
   10.5241  -17.5357   21.8869 C   0  0  0  0  0  0  0  0  0  0  0  0
    9.7857  -18.3200   22.5335 O   0  0  0  0  0  0  0  0  0  0  0  0
    9.6059  -13.5336   20.2146 C   0  0  0  0  0  0  0  0  0  0  0  0
    9.1103  -12.5217   19.4327 C   0  0  0  0  0  0  0  0  0  0  0  0
   11.9208  -17.5923   22.0572 N   0  0  0  0  0  0  0  0  0  0  0  0
   12.5995  -18.6590   22.7595 C   0  0  1  0  0  0  0  0  0  0  0  0
   13.9753  -18.8811   22.2037 C   0  0  0  0  0  0  0  0  0  0  0  0
   14.6454  -20.0583   22.8372 C   0  0  0  0  0  0  0  0  0  0  0  0
   15.9743  -20.2512   22.2288 C   0  0  0  0  0  0  0  0  0  0  0  0
   16.8800  -20.7959   22.8811 O   0  0  0  0  0  0  0  0  0  0  0  0
   12.7214  -18.3169   24.2250 C   0  0  0  0  0  0  0  0  0  0  0  0
   13.0316  -17.1506   24.5688 O   0  0  0  0  0  0  0  0  0  0  0  0
   16.2506  -19.8385   20.9332 O   0  0  0  0  0  0  0  0  0  0  0  0
   10.5763  -20.3037   27.1195 O   0  0  0  0  0  0  0  0  0  0  0  0
   11.2333  -19.1069   27.2952 C   0  0  0  0  0  0  0  0  0  0  0  0
   12.5391  -19.0729   26.5755 C   0  0  2  0  0  0  0  0  0  0  0  0
   12.4769  -19.3434   25.1747 N   0  0  0  0  0  0  0  0  0  0  0  0
   13.5497  -19.9017   27.2865 C   0  0  0  0  0  0  0  0  0  0  0  0
   14.2098  -20.8176   26.7912 O   0  0  0  0  0  0  0  0  0  0  0  0
   13.7753  -19.6197   28.6423 O   0  0  0  0  0  0  0  0  0  0  0  0
  2  1  1  0
  2 12  2  0
  3  2  1  0
  4  3  2  0
  4  5  1  0
  5 11  2  0
  6  5  1  0
  7  8  1  1
  7  6  1  0
  9  7  1  0
 10  9  2  0
 11 12  1  0
 13  9  1  0
 14 13  1  0
 14 15  1  6
 15 16  1  0
 16 17  1  0
 17 21  1  0
 17 18  2  0
 19 14  1  0
 20 19  2  0
 22 23  1  0
 24 23  1  1
 24 26  1  0
 24 25  1  0
 25 19  1  0
 26 28  1  0
 27 26  2  0
M  END
$$$$
