YES.pdb
     RDKit          3D

 28 28  0  0  1  0  0  0  0  0999 V2000
    5.0029  -10.5349   27.4481 O   0  0  0  0  0  0  0  0  0  0  0  0
    5.8039  -11.5218   26.8730 C   0  0  0  0  0  0  0  0  0  0  0  0
    5.4492  -12.0584   25.6518 C   0  0  0  0  0  0  0  0  0  0  0  0
    6.2438  -13.0348   25.0854 C   0  0  0  0  0  0  0  0  0  0  0  0
    7.3724  -13.4519   25.7505 C   0  0  0  0  0  0  0  0  0  0  0  0
    8.2306  -14.4933   25.1592 C   0  0  0  0  0  0  0  0  0  0  0  0
    7.4584  -15.7236   24.7576 C   0  0  2  0  0  0  0  0  0  0  0  0
    6.8646  -16.3837   25.9066 N   0  0  0  0  0  0  0  0  0  0  0  0
    8.4076  -16.6365   24.0521 C   0  0  0  0  0  0  0  0  0  0  0  0
    8.9658  -17.5865   24.6559 O   0  0  0  0  0  0  0  0  0  0  0  0
    7.7060  -12.9042   26.9642 C   0  0  0  0  0  0  0  0  0  0  0  0
    6.9288  -11.9333   27.5423 C   0  0  0  0  0  0  0  0  0  0  0  0
    8.6772  -16.4231   22.6866 N   0  0  0  0  0  0  0  0  0  0  0  0
    9.6637  -17.1706   21.9385 C   0  0  1  0  0  0  0  0  0  0  0  0
    9.5749  -16.8644   20.4724 C   0  0  0  0  0  0  0  0  0  0  0  0
   10.5460  -17.6771   19.6768 C   0  0  0  0  0  0  0  0  0  0  0  0
   10.2427  -17.5350   18.2412 C   0  0  0  0  0  0  0  0  0  0  0  0
   11.0905  -17.0480   17.4753 O   0  0  0  0  0  0  0  0  0  0  0  0
   11.0511  -16.8211   22.4204 C   0  0  0  0  0  0  0  0  0  0  0  0
   11.3997  -15.6180   22.4964 O   0  0  0  0  0  0  0  0  0  0  0  0
    9.0242  -17.9327   17.7098 O   0  0  0  0  0  0  0  0  0  0  0  0
   13.2049  -19.6375   24.5689 O   0  0  0  0  0  0  0  0  0  0  0  0
   13.5345  -18.3014   24.6001 C   0  0  0  0  0  0  0  0  0  0  0  0
   13.2192  -17.6156   23.3139 C   0  0  2  0  0  0  0  0  0  0  0  0
   11.9239  -17.8831   22.7755 N   0  0  0  0  0  0  0  0  0  0  0  0
   14.3154  -17.8214   22.3291 C   0  0  0  0  0  0  0  0  0  0  0  0
   15.5180  -17.6528   22.5418 O   0  0  0  0  0  0  0  0  0  0  0  0
   13.9533  -18.2454   21.0417 O   0  0  0  0  0  0  0  0  0  0  0  0
  2  1  1  0
  2 12  2  0
  3  2  1  0
  4  3  2  0
  4  5  1  0
  5 11  2  0
  6  5  1  0
  7  8  1  1
  7  6  1  0
  9  7  1  0
 10  9  2  0
 11 12  1  0
 13  9  1  0
 14 13  1  0
 14 15  1  6
 15 16  1  0
 16 17  1  0
 17 21  1  0
 17 18  2  0
 19 14  1  0
 20 19  2  0
 22 23  1  0
 24 23  1  1
 24 26  1  0
 24 25  1  0
 25 19  1  0
 26 28  1  0
 27 26  2  0
M  END
$$$$
