YES.pdb
     RDKit          3D

 28 28  0  0  1  0  0  0  0  0999 V2000
    5.2248  -10.1382   26.4197 O   0  0  0  0  0  0  0  0  0  0  0  0
    5.9338  -11.3254   26.2347 C   0  0  0  0  0  0  0  0  0  0  0  0
    6.9532  -11.3701   25.3052 C   0  0  0  0  0  0  0  0  0  0  0  0
    7.6528  -12.5463   25.1245 C   0  0  0  0  0  0  0  0  0  0  0  0
    7.3187  -13.6487   25.8750 C   0  0  0  0  0  0  0  0  0  0  0  0
    8.0558  -14.9115   25.6936 C   0  0  0  0  0  0  0  0  0  0  0  0
    7.3564  -15.8632   24.7577 C   0  0  2  0  0  0  0  0  0  0  0  0
    6.1783  -16.4505   25.3706 N   0  0  0  0  0  0  0  0  0  0  0  0
    8.3409  -16.9207   24.3777 C   0  0  0  0  0  0  0  0  0  0  0  0
    8.4607  -17.9713   25.0564 O   0  0  0  0  0  0  0  0  0  0  0  0
    6.3011  -13.5814   26.7938 C   0  0  0  0  0  0  0  0  0  0  0  0
    5.5951  -12.4216   26.9871 C   0  0  0  0  0  0  0  0  0  0  0  0
    9.1457  -16.7307   23.2379 N   0  0  0  0  0  0  0  0  0  0  0  0
   10.1935  -17.6429   22.8361 C   0  0  1  0  0  0  0  0  0  0  0  0
   10.8409  -17.1925   21.5597 C   0  0  0  0  0  0  0  0  0  0  0  0
   11.9694  -18.0903   21.1639 C   0  0  0  0  0  0  0  0  0  0  0  0
   12.4488  -17.7118   19.8222 C   0  0  0  0  0  0  0  0  0  0  0  0
   12.1427  -18.4045   18.8379 O   0  0  0  0  0  0  0  0  0  0  0  0
   11.2507  -17.7210   23.9110 C   0  0  0  0  0  0  0  0  0  0  0  0
   11.8242  -16.6740   24.2980 O   0  0  0  0  0  0  0  0  0  0  0  0
   13.2420  -16.5914   19.6199 O   0  0  0  0  0  0  0  0  0  0  0  0
   11.4235  -20.7802   26.7652 O   0  0  0  0  0  0  0  0  0  0  0  0
   12.0483  -19.5544   26.8086 C   0  0  0  0  0  0  0  0  0  0  0  0
   12.5546  -19.1351   25.4699 C   0  0  2  0  0  0  0  0  0  0  0  0
   11.5621  -18.9958   24.4527 N   0  0  0  0  0  0  0  0  0  0  0  0
   13.7017  -19.9867   25.0545 C   0  0  0  0  0  0  0  0  0  0  0  0
   13.7900  -20.6128   23.9961 O   0  0  0  0  0  0  0  0  0  0  0  0
   14.7822  -20.0899   25.9435 O   0  0  0  0  0  0  0  0  0  0  0  0
  2  1  1  0
  2 12  2  0
  3  2  1  0
  4  3  2  0
  4  5  1  0
  5 11  2  0
  6  5  1  0
  7  8  1  1
  7  6  1  0
  9  7  1  0
 10  9  2  0
 11 12  1  0
 13  9  1  0
 14 13  1  0
 14 15  1  6
 15 16  1  0
 16 17  1  0
 17 21  1  0
 17 18  2  0
 19 14  1  0
 20 19  2  0
 22 23  1  0
 24 23  1  1
 24 26  1  0
 24 25  1  0
 25 19  1  0
 26 28  1  0
 27 26  2  0
M  END
$$$$
