YES.pdb
     RDKit          3D

 28 28  0  0  1  0  0  0  0  0999 V2000
    5.4766   -9.8413   26.3165 O   0  0  0  0  0  0  0  0  0  0  0  0
    6.0961  -11.0846   26.1873 C   0  0  0  0  0  0  0  0  0  0  0  0
    7.0374  -11.2749   25.1959 C   0  0  0  0  0  0  0  0  0  0  0  0
    7.6485  -12.5062   25.0705 C   0  0  0  0  0  0  0  0  0  0  0  0
    7.3059  -13.5175   25.9367 C   0  0  0  0  0  0  0  0  0  0  0  0
    7.9489  -14.8376   25.8156 C   0  0  0  0  0  0  0  0  0  0  0  0
    7.2933  -15.7101   24.7764 C   0  0  2  0  0  0  0  0  0  0  0  0
    5.9863  -16.1713   25.2095 N   0  0  0  0  0  0  0  0  0  0  0  0
    8.2066  -16.8645   24.5215 C   0  0  0  0  0  0  0  0  0  0  0  0
    8.1203  -17.9225   25.1937 O   0  0  0  0  0  0  0  0  0  0  0  0
    6.3669  -13.3059   26.9153 C   0  0  0  0  0  0  0  0  0  0  0  0
    5.7493  -12.0892   27.0550 C   0  0  0  0  0  0  0  0  0  0  0  0
    9.1791  -16.7588   23.5085 N   0  0  0  0  0  0  0  0  0  0  0  0
   10.2018  -17.7539   23.2730 C   0  0  1  0  0  0  0  0  0  0  0  0
   11.0209  -17.4101   22.0638 C   0  0  0  0  0  0  0  0  0  0  0  0
   12.0460  -18.4592   21.7724 C   0  0  0  0  0  0  0  0  0  0  0  0
   12.7610  -18.1134   20.5304 C   0  0  0  0  0  0  0  0  0  0  0  0
   12.5136  -18.7314   19.4819 O   0  0  0  0  0  0  0  0  0  0  0  0
   11.1205  -17.8432   24.4677 C   0  0  0  0  0  0  0  0  0  0  0  0
   11.8315  -16.8581   24.7819 O   0  0  0  0  0  0  0  0  0  0  0  0
   13.7147  -17.1062   20.4937 O   0  0  0  0  0  0  0  0  0  0  0  0
   10.0174  -19.8074   27.5407 O   0  0  0  0  0  0  0  0  0  0  0  0
   11.3868  -19.9408   27.4966 C   0  0  0  0  0  0  0  0  0  0  0  0
   11.9860  -19.1995   26.3496 C   0  0  2  0  0  0  0  0  0  0  0  0
   11.1467  -19.0574   25.2030 N   0  0  0  0  0  0  0  0  0  0  0  0
   13.3334  -19.7402   26.0242 C   0  0  0  0  0  0  0  0  0  0  0  0
   13.7326  -20.0564   24.9014 O   0  0  0  0  0  0  0  0  0  0  0  0
   14.2342  -19.9070   27.0869 O   0  0  0  0  0  0  0  0  0  0  0  0
  2  1  1  0
  2 12  2  0
  3  2  1  0
  4  3  2  0
  4  5  1  0
  5 11  2  0
  6  5  1  0
  7  8  1  1
  7  6  1  0
  9  7  1  0
 10  9  2  0
 11 12  1  0
 13  9  1  0
 14 13  1  0
 14 15  1  6
 15 16  1  0
 16 17  1  0
 17 21  1  0
 17 18  2  0
 19 14  1  0
 20 19  2  0
 22 23  1  0
 24 23  1  1
 24 26  1  0
 24 25  1  0
 25 19  1  0
 26 28  1  0
 27 26  2  0
M  END
$$$$
