YES.pdb
     RDKit          3D

 28 28  0  0  1  0  0  0  0  0999 V2000
    5.1888   -9.9594   26.5369 O   0  0  0  0  0  0  0  0  0  0  0  0
    5.8260  -11.1894   26.3715 C   0  0  0  0  0  0  0  0  0  0  0  0
    6.7210  -11.3567   25.3341 C   0  0  0  0  0  0  0  0  0  0  0  0
    7.3499  -12.5749   25.1730 C   0  0  0  0  0  0  0  0  0  0  0  0
    7.0709  -13.5961   26.0502 C   0  0  0  0  0  0  0  0  0  0  0  0
    7.7338  -14.9023   25.8914 C   0  0  0  0  0  0  0  0  0  0  0  0
    7.1668  -15.7066   24.7501 C   0  0  2  0  0  0  0  0  0  0  0  0
    5.9201  -16.3545   25.1169 N   0  0  0  0  0  0  0  0  0  0  0  0
    8.1961  -16.7169   24.3606 C   0  0  0  0  0  0  0  0  0  0  0  0
    8.2559  -17.8361   24.9284 O   0  0  0  0  0  0  0  0  0  0  0  0
    6.1772  -13.4073   27.0749 C   0  0  0  0  0  0  0  0  0  0  0  0
    5.5429  -12.2041   27.2505 C   0  0  0  0  0  0  0  0  0  0  0  0
    9.1125  -16.4031   23.3384 N   0  0  0  0  0  0  0  0  0  0  0  0
   10.1770  -17.2871   22.9179 C   0  0  1  0  0  0  0  0  0  0  0  0
   10.8232  -16.7922   21.6574 C   0  0  0  0  0  0  0  0  0  0  0  0
   11.9828  -17.6471   21.2567 C   0  0  0  0  0  0  0  0  0  0  0  0
   12.5051  -17.1859   19.9575 C   0  0  0  0  0  0  0  0  0  0  0  0
   11.8082  -17.2983   18.9357 O   0  0  0  0  0  0  0  0  0  0  0  0
   11.2301  -17.3768   23.9960 C   0  0  0  0  0  0  0  0  0  0  0  0
   11.8788  -16.3526   24.3199 O   0  0  0  0  0  0  0  0  0  0  0  0
   13.7675  -16.6226   19.8370 O   0  0  0  0  0  0  0  0  0  0  0  0
   11.2968  -20.4724   26.8146 O   0  0  0  0  0  0  0  0  0  0  0  0
   12.0107  -19.3006   26.9247 C   0  0  0  0  0  0  0  0  0  0  0  0
   12.4719  -18.7980   25.5985 C   0  0  2  0  0  0  0  0  0  0  0  0
   11.4512  -18.6361   24.6130 N   0  0  0  0  0  0  0  0  0  0  0  0
   13.6323  -19.5926   25.1129 C   0  0  0  0  0  0  0  0  0  0  0  0
   13.7294  -20.1261   24.0056 O   0  0  0  0  0  0  0  0  0  0  0  0
   14.7158  -19.7521   25.9899 O   0  0  0  0  0  0  0  0  0  0  0  0
  2  1  1  0
  2 12  2  0
  3  2  1  0
  4  3  2  0
  4  5  1  0
  5 11  2  0
  6  5  1  0
  7  8  1  1
  7  6  1  0
  9  7  1  0
 10  9  2  0
 11 12  1  0
 13  9  1  0
 14 13  1  0
 14 15  1  6
 15 16  1  0
 16 17  1  0
 17 21  1  0
 17 18  2  0
 19 14  1  0
 20 19  2  0
 22 23  1  0
 24 23  1  1
 24 26  1  0
 24 25  1  0
 25 19  1  0
 26 28  1  0
 27 26  2  0
M  END
$$$$
