YES.pdb
     RDKit          3D

 28 28  0  0  1  0  0  0  0  0999 V2000
    8.4883  -12.4389   17.4196 O   0  0  0  0  0  0  0  0  0  0  0  0
    8.2329  -12.9340   18.6987 C   0  0  0  0  0  0  0  0  0  0  0  0
    6.9479  -13.3059   19.0391 C   0  0  0  0  0  0  0  0  0  0  0  0
    6.6984  -13.7952   20.3055 C   0  0  0  0  0  0  0  0  0  0  0  0
    7.7361  -13.9018   21.2010 C   0  0  0  0  0  0  0  0  0  0  0  0
    7.4858  -14.4221   22.5566 C   0  0  0  0  0  0  0  0  0  0  0  0
    7.4502  -15.9279   22.6035 C   0  0  2  0  0  0  0  0  0  0  0  0
    6.0887  -16.4325   22.6218 N   0  0  0  0  0  0  0  0  0  0  0  0
    8.1915  -16.3545   23.8284 C   0  0  0  0  0  0  0  0  0  0  0  0
    7.6244  -16.4000   24.9486 O   0  0  0  0  0  0  0  0  0  0  0  0
    9.0062  -13.5259   20.8408 C   0  0  0  0  0  0  0  0  0  0  0  0
    9.2731  -13.0376   19.5873 C   0  0  0  0  0  0  0  0  0  0  0  0
    9.5495  -16.7107   23.7188 N   0  0  0  0  0  0  0  0  0  0  0  0
   10.3582  -17.1391   24.8386 C   0  0  1  0  0  0  0  0  0  0  0  0
   11.6328  -17.7775   24.3708 C   0  0  0  0  0  0  0  0  0  0  0  0
   12.4102  -18.3606   25.5074 C   0  0  0  0  0  0  0  0  0  0  0  0
   13.6268  -19.0099   24.9864 C   0  0  0  0  0  0  0  0  0  0  0  0
   14.5170  -19.3758   25.7714 O   0  0  0  0  0  0  0  0  0  0  0  0
   10.7037  -15.9550   25.7091 C   0  0  0  0  0  0  0  0  0  0  0  0
   11.4850  -15.0723   25.2788 O   0  0  0  0  0  0  0  0  0  0  0  0
   13.8130  -19.2287   23.6289 O   0  0  0  0  0  0  0  0  0  0  0  0
    8.4204  -13.9286   27.5298 O   0  0  0  0  0  0  0  0  0  0  0  0
    9.6601  -13.7134   28.0882 C   0  0  0  0  0  0  0  0  0  0  0  0
   10.5540  -14.8984   27.9432 C   0  0  2  0  0  0  0  0  0  0  0  0
   10.1231  -15.8827   27.0026 N   0  0  0  0  0  0  0  0  0  0  0  0
   10.8854  -15.4696   29.2765 C   0  0  0  0  0  0  0  0  0  0  0  0
   10.8205  -16.6607   29.5880 O   0  0  0  0  0  0  0  0  0  0  0  0
   11.3104  -14.5769   30.2719 O   0  0  0  0  0  0  0  0  0  0  0  0
  2  1  1  0
  2 12  2  0
  3  2  1  0
  4  3  2  0
  4  5  1  0
  5 11  2  0
  6  5  1  0
  7  8  1  1
  7  6  1  0
  9  7  1  0
 10  9  2  0
 11 12  1  0
 13  9  1  0
 14 13  1  0
 14 15  1  6
 15 16  1  0
 16 17  1  0
 17 21  1  0
 17 18  2  0
 19 14  1  0
 20 19  2  0
 22 23  1  0
 24 23  1  1
 24 26  1  0
 24 25  1  0
 25 19  1  0
 26 28  1  0
 27 26  2  0
M  END
$$$$
