YES.pdb
     RDKit          3D

 28 28  0  0  1  0  0  0  0  0999 V2000
    7.9417  -11.3422   18.5762 O   0  0  0  0  0  0  0  0  0  0  0  0
    8.0891  -12.4236   19.4453 C   0  0  0  0  0  0  0  0  0  0  0  0
    6.9799  -13.1625   19.8046 C   0  0  0  0  0  0  0  0  0  0  0  0
    7.1290  -14.2318   20.6646 C   0  0  0  0  0  0  0  0  0  0  0  0
    8.3802  -14.5380   21.1452 C   0  0  0  0  0  0  0  0  0  0  0  0
    8.5556  -15.6762   22.0642 C   0  0  0  0  0  0  0  0  0  0  0  0
    8.6482  -16.9962   21.3431 C   0  0  2  0  0  0  0  0  0  0  0  0
    7.3594  -17.6615   21.2732 N   0  0  0  0  0  0  0  0  0  0  0  0
    9.6413  -17.8374   22.0766 C   0  0  0  0  0  0  0  0  0  0  0  0
    9.2766  -18.6489   22.9638 O   0  0  0  0  0  0  0  0  0  0  0  0
    9.4694  -13.7894   20.7745 C   0  0  0  0  0  0  0  0  0  0  0  0
    9.3406  -12.7235   19.9210 C   0  0  0  0  0  0  0  0  0  0  0  0
   11.0087  -17.7140   21.7635 N   0  0  0  0  0  0  0  0  0  0  0  0
   12.0264  -18.6199   22.2483 C   0  0  1  0  0  0  0  0  0  0  0  0
   13.3163  -18.4296   21.5057 C   0  0  0  0  0  0  0  0  0  0  0  0
   14.3407  -19.4428   21.9060 C   0  0  0  0  0  0  0  0  0  0  0  0
   15.5543  -19.2610   21.0891 C   0  0  0  0  0  0  0  0  0  0  0  0
   16.4907  -18.5672   21.5186 O   0  0  0  0  0  0  0  0  0  0  0  0
   12.2761  -18.3779   23.7174 C   0  0  0  0  0  0  0  0  0  0  0  0
   12.6634  -17.2492   24.1059 O   0  0  0  0  0  0  0  0  0  0  0  0
   15.6870  -19.8476   19.8387 O   0  0  0  0  0  0  0  0  0  0  0  0
   10.6267  -20.9252   26.5157 O   0  0  0  0  0  0  0  0  0  0  0  0
   11.1562  -19.7148   26.9025 C   0  0  0  0  0  0  0  0  0  0  0  0
   12.2800  -19.2866   26.0205 C   0  0  2  0  0  0  0  0  0  0  0  0
   12.0602  -19.4528   24.6193 N   0  0  0  0  0  0  0  0  0  0  0  0
   13.5638  -19.8781   26.4850 C   0  0  0  0  0  0  0  0  0  0  0  0
   14.3793  -20.4771   25.7806 O   0  0  0  0  0  0  0  0  0  0  0  0
   13.8792  -19.7451   27.8456 O   0  0  0  0  0  0  0  0  0  0  0  0
  2  1  1  0
  2 12  2  0
  3  2  1  0
  4  3  2  0
  4  5  1  0
  5 11  2  0
  6  5  1  0
  7  8  1  1
  7  6  1  0
  9  7  1  0
 10  9  2  0
 11 12  1  0
 13  9  1  0
 14 13  1  0
 14 15  1  6
 15 16  1  0
 16 17  1  0
 17 21  1  0
 17 18  2  0
 19 14  1  0
 20 19  2  0
 22 23  1  0
 24 23  1  1
 24 26  1  0
 24 25  1  0
 25 19  1  0
 26 28  1  0
 27 26  2  0
M  END
$$$$
