YES.pdb
     RDKit          3D

 28 28  0  0  1  0  0  0  0  0999 V2000
    7.4297  -11.6993   18.4644 O   0  0  0  0  0  0  0  0  0  0  0  0
    7.9083  -12.6639   19.3514 C   0  0  0  0  0  0  0  0  0  0  0  0
    9.2606  -12.9373   19.3930 C   0  0  0  0  0  0  0  0  0  0  0  0
    9.7310  -13.8924   20.2717 C   0  0  0  0  0  0  0  0  0  0  0  0
    8.8415  -14.5511   21.0872 C   0  0  0  0  0  0  0  0  0  0  0  0
    9.3280  -15.5733   22.0302 C   0  0  0  0  0  0  0  0  0  0  0  0
    9.8023  -16.8245   21.3370 C   0  0  2  0  0  0  0  0  0  0  0  0
    8.7176  -17.5004   20.6475 N   0  0  0  0  0  0  0  0  0  0  0  0
   10.4046  -17.7111   22.3778 C   0  0  0  0  0  0  0  0  0  0  0  0
    9.7141  -18.5739   22.9755 O   0  0  0  0  0  0  0  0  0  0  0  0
    7.5007  -14.2631   21.0289 C   0  0  0  0  0  0  0  0  0  0  0  0
    7.0150  -13.3175   20.1623 C   0  0  0  0  0  0  0  0  0  0  0  0
   11.7708  -17.5723   22.6896 N   0  0  0  0  0  0  0  0  0  0  0  0
   12.4826  -18.4592   23.5830 C   0  0  1  0  0  0  0  0  0  0  0  0
   13.9555  -18.4449   23.2972 C   0  0  0  0  0  0  0  0  0  0  0  0
   14.5302  -19.8254   23.2811 C   0  0  0  0  0  0  0  0  0  0  0  0
   15.9655  -19.7543   22.9525 C   0  0  0  0  0  0  0  0  0  0  0  0
   16.5085  -20.6928   22.3468 O   0  0  0  0  0  0  0  0  0  0  0  0
   12.2656  -18.0331   25.0151 C   0  0  0  0  0  0  0  0  0  0  0  0
   12.5064  -16.8498   25.3563 O   0  0  0  0  0  0  0  0  0  0  0  0
   16.7409  -18.6581   23.3026 O   0  0  0  0  0  0  0  0  0  0  0  0
    9.7084  -20.1159   27.4294 O   0  0  0  0  0  0  0  0  0  0  0  0
   10.2197  -18.9058   27.8409 C   0  0  0  0  0  0  0  0  0  0  0  0
   11.5936  -18.6683   27.3118 C   0  0  2  0  0  0  0  0  0  0  0  0
   11.7898  -19.0020   25.9373 N   0  0  0  0  0  0  0  0  0  0  0  0
   12.6123  -19.2739   28.2115 C   0  0  0  0  0  0  0  0  0  0  0  0
   13.5125  -20.0432   27.8682 O   0  0  0  0  0  0  0  0  0  0  0  0
   12.5468  -18.9430   29.5733 O   0  0  0  0  0  0  0  0  0  0  0  0
  2  1  1  0
  2 12  2  0
  3  2  1  0
  4  3  2  0
  4  5  1  0
  5 11  2  0
  6  5  1  0
  7  8  1  1
  7  6  1  0
  9  7  1  0
 10  9  2  0
 11 12  1  0
 13  9  1  0
 14 13  1  0
 14 15  1  6
 15 16  1  0
 16 17  1  0
 17 21  1  0
 17 18  2  0
 19 14  1  0
 20 19  2  0
 22 23  1  0
 24 23  1  1
 24 26  1  0
 24 25  1  0
 25 19  1  0
 26 28  1  0
 27 26  2  0
M  END
$$$$
