YES.pdb
     RDKit          3D

 28 28  0  0  1  0  0  0  0  0999 V2000
    5.2931  -10.3045   27.4059 O   0  0  0  0  0  0  0  0  0  0  0  0
    6.0203  -11.3993   26.9381 C   0  0  0  0  0  0  0  0  0  0  0  0
    5.8754  -12.6252   27.5556 C   0  0  0  0  0  0  0  0  0  0  0  0
    6.5964  -13.7064   27.0905 C   0  0  0  0  0  0  0  0  0  0  0  0
    7.4440  -13.5388   26.0210 C   0  0  0  0  0  0  0  0  0  0  0  0
    8.2206  -14.6831   25.5129 C   0  0  0  0  0  0  0  0  0  0  0  0
    7.4138  -15.5757   24.6055 C   0  0  2  0  0  0  0  0  0  0  0  0
    6.4679  -16.3861   25.3519 N   0  0  0  0  0  0  0  0  0  0  0  0
    8.3763  -16.4378   23.8556 C   0  0  0  0  0  0  0  0  0  0  0  0
    8.7700  -17.5342   24.3262 O   0  0  0  0  0  0  0  0  0  0  0  0
    7.5724  -12.3104   25.4221 C   0  0  0  0  0  0  0  0  0  0  0  0
    6.8643  -11.2248   25.8704 C   0  0  0  0  0  0  0  0  0  0  0  0
    8.8468  -16.0083   22.5998 N   0  0  0  0  0  0  0  0  0  0  0  0
    9.9241  -16.6553   21.8839 C   0  0  1  0  0  0  0  0  0  0  0  0
    9.9392  -16.2409   20.4419 C   0  0  0  0  0  0  0  0  0  0  0  0
    8.8014  -16.8427   19.6806 C   0  0  0  0  0  0  0  0  0  0  0  0
    8.8428  -16.3710   18.2844 C   0  0  0  0  0  0  0  0  0  0  0  0
    7.8564  -15.7951   17.7967 O   0  0  0  0  0  0  0  0  0  0  0  0
   11.2505  -16.2881   22.5046 C   0  0  0  0  0  0  0  0  0  0  0  0
   11.3196  -15.3194   23.2992 O   0  0  0  0  0  0  0  0  0  0  0  0
    9.9631  -16.5520   17.4859 O   0  0  0  0  0  0  0  0  0  0  0  0
   13.2019  -19.1343   25.0788 O   0  0  0  0  0  0  0  0  0  0  0  0
   12.3956  -18.5808   24.1100 C   0  0  0  0  0  0  0  0  0  0  0  0
   13.1626  -17.7131   23.1703 C   0  0  2  0  0  0  0  0  0  0  0  0
   12.3884  -17.0644   22.1609 N   0  0  0  0  0  0  0  0  0  0  0  0
   14.3386  -18.4439   22.6256 C   0  0  0  0  0  0  0  0  0  0  0  0
   14.3098  -19.2970   21.7360 O   0  0  0  0  0  0  0  0  0  0  0  0
   15.5952  -18.1385   23.1697 O   0  0  0  0  0  0  0  0  0  0  0  0
  2  1  1  0
  2 12  2  0
  3  2  1  0
  4  3  2  0
  4  5  1  0
  5 11  2  0
  6  5  1  0
  7  8  1  1
  7  6  1  0
  9  7  1  0
 10  9  2  0
 11 12  1  0
 13  9  1  0
 14 13  1  0
 14 15  1  6
 15 16  1  0
 16 17  1  0
 17 21  1  0
 17 18  2  0
 19 14  1  0
 20 19  2  0
 22 23  1  0
 24 23  1  6
 24 26  1  0
 24 25  1  0
 25 19  1  0
 26 28  1  0
 27 26  2  0
M  END
$$$$
