GIA.pdb
     RDKit          3D

 18 17  0  0  1  0  0  0  0  0999 V2000
   22.7791  -10.0602  -18.2931 N   0  0  0  0  0  0  0  0  0  0  0  0
   23.2217   -8.7909  -17.7980 C   0  0  0  0  0  0  0  0  0  0  0  0
   22.3530   -8.2722  -16.7051 C   0  0  0  0  0  0  0  0  0  0  0  0
   21.1336   -8.3325  -16.8535 O   0  0  0  0  0  0  0  0  0  0  0  0
   22.4593   -9.8680  -11.8993 C   0  0  0  0  0  0  0  0  0  0  0  0
   22.0591   -9.2827  -13.2411 C   0  0  0  0  0  0  0  0  0  0  0  0
   22.1179   -7.7970  -13.1871 C   0  0  2  0  0  0  0  0  0  0  0  0
   21.0803   -7.1963  -12.2614 C   0  0  0  0  0  0  0  0  0  0  0  0
   22.1499   -7.0905  -14.4815 C   0  0  2  0  0  0  0  0  0  0  0  0
   22.9257   -7.7232  -15.5245 N   0  0  0  0  0  0  0  0  0  0  0  0
   22.2176   -5.6166  -14.4706 C   0  0  0  0  0  0  0  0  0  0  0  0
   23.1371   -4.9575  -13.9266 O   0  0  0  0  0  0  0  0  0  0  0  0
   20.5461   -2.8501  -16.3673 C   0  0  0  0  0  0  0  0  0  0  0  0
   21.2737   -3.3767  -15.1353 C   0  0  2  0  0  0  0  0  0  0  0  0
   21.2075   -4.8354  -15.0938 N   0  0  0  0  0  0  0  0  0  0  0  0
   20.7731   -2.7643  -13.9049 C   0  0  0  0  0  0  0  0  0  0  0  0
   19.8813   -3.3146  -13.2204 O   0  0  0  0  0  0  0  0  0  0  0  0
   21.2868   -1.5542  -13.4787 O   0  0  0  0  0  0  0  0  0  0  0  0
  1  2  1  0
  2  3  1  0
  3 10  1  0
  3  4  2  0
  6  7  1  0
  6  5  1  0
  7  8  1  6
  9  7  1  0
  9 10  1  6
 11  9  1  0
 11 15  1  0
 12 11  2  0
 14 13  1  6
 14 15  1  0
 14 16  1  0
 16 18  1  0
 17 16  2  0
M  END
$$$$
