GIA.pdb
     RDKit          3D

 18 17  0  0  1  0  0  0  0  0999 V2000
   21.9303  -13.2572  -18.9900 N   0  0  0  0  0  0  0  0  0  0  0  0
   21.7526  -11.8420  -19.1240 C   0  0  0  0  0  0  0  0  0  0  0  0
   22.1355  -11.1011  -17.8901 C   0  0  0  0  0  0  0  0  0  0  0  0
   21.4119  -11.2056  -16.9011 O   0  0  0  0  0  0  0  0  0  0  0  0
   26.9331  -11.4924  -15.7628 C   0  0  0  0  0  0  0  0  0  0  0  0
   25.4685  -11.3369  -16.1284 C   0  0  0  0  0  0  0  0  0  0  0  0
   25.1177   -9.8943  -16.2255 C   0  0  2  0  0  0  0  0  0  0  0  0
   25.4624   -9.1152  -14.9731 C   0  0  0  0  0  0  0  0  0  0  0  0
   23.7553   -9.5764  -16.6927 C   0  0  2  0  0  0  0  0  0  0  0  0
   23.3080  -10.2963  -17.8639 N   0  0  0  0  0  0  0  0  0  0  0  0
   23.3020   -8.1742  -16.6204 C   0  0  0  0  0  0  0  0  0  0  0  0
   23.7230   -7.2581  -17.3683 O   0  0  0  0  0  0  0  0  0  0  0  0
   20.3382   -6.3475  -15.6747 C   0  0  0  0  0  0  0  0  0  0  0  0
   21.8593   -6.3900  -15.5786 C   0  0  2  0  0  0  0  0  0  0  0  0
   22.3329   -7.7693  -15.6633 N   0  0  0  0  0  0  0  0  0  0  0  0
   22.3477   -5.7093  -14.3796 C   0  0  0  0  0  0  0  0  0  0  0  0
   22.6786   -6.3504  -13.3568 O   0  0  0  0  0  0  0  0  0  0  0  0
   22.4507   -4.3312  -14.3631 O   0  0  0  0  0  0  0  0  0  0  0  0
  1  2  1  0
  2  3  1  0
  3 10  1  0
  3  4  2  0
  6  7  1  0
  6  5  1  0
  7  8  1  1
  9  7  1  0
  9 10  1  6
 11  9  1  0
 11 15  1  0
 12 11  2  0
 14 13  1  1
 14 15  1  0
 14 16  1  0
 16 18  1  0
 17 16  2  0
M  END
$$$$
