GIA.pdb
     RDKit          3D

 18 17  0  0  1  0  0  0  0  0999 V2000
   17.8286  -11.9113  -17.0479 N   0  0  0  0  0  0  0  0  0  0  0  0
   18.3636  -10.6191  -17.3583 C   0  0  0  0  0  0  0  0  0  0  0  0
   19.3654  -10.1622  -16.3555 C   0  0  0  0  0  0  0  0  0  0  0  0
   18.9893   -9.9818  -15.1985 O   0  0  0  0  0  0  0  0  0  0  0  0
   23.9958  -12.3266  -15.0908 C   0  0  0  0  0  0  0  0  0  0  0  0
   22.6724  -11.5921  -15.2019 C   0  0  0  0  0  0  0  0  0  0  0  0
   22.9062  -10.1780  -15.6010 C   0  0  2  0  0  0  0  0  0  0  0  0
   23.8788   -9.4583  -14.6898 C   0  0  0  0  0  0  0  0  0  0  0  0
   21.7073   -9.3573  -15.8552 C   0  0  2  0  0  0  0  0  0  0  0  0
   20.7190   -9.9425  -16.7333 N   0  0  0  0  0  0  0  0  0  0  0  0
   21.8782   -7.8993  -16.0040 C   0  0  0  0  0  0  0  0  0  0  0  0
   22.0993   -7.3238  -17.0975 O   0  0  0  0  0  0  0  0  0  0  0  0
   20.6262   -4.9981  -15.5525 C   0  0  0  0  0  0  0  0  0  0  0  0
   21.9212   -5.5868  -15.0037 C   0  0  2  0  0  0  0  0  0  0  0  0
   21.8033   -7.0373  -14.8769 N   0  0  0  0  0  0  0  0  0  0  0  0
   22.3180   -4.9514  -13.7474 C   0  0  0  0  0  0  0  0  0  0  0  0
   22.3555   -5.5966  -12.6755 O   0  0  0  0  0  0  0  0  0  0  0  0
   22.6607   -3.6127  -13.7303 O   0  0  0  0  0  0  0  0  0  0  0  0
  1  2  1  0
  2  3  1  0
  3 10  1  0
  3  4  2  0
  6  7  1  0
  6  5  1  0
  7  8  1  1
  9  7  1  0
  9 10  1  6
 11  9  1  0
 11 15  1  0
 12 11  2  0
 14 13  1  1
 14 15  1  0
 14 16  1  0
 16 18  1  0
 17 16  2  0
M  END
$$$$
