GIA.pdb
     RDKit          3D

 18 17  0  0  1  0  0  0  0  0999 V2000
   28.4274  -28.9548  -16.1500 N   0  0  0  0  0  0  0  0  0  0  0  0
   28.6375  -27.9613  -17.1605 C   0  0  0  0  0  0  0  0  0  0  0  0
   28.1588  -26.6144  -16.7424 C   0  0  0  0  0  0  0  0  0  0  0  0
   27.7603  -26.4716  -15.5876 O   0  0  0  0  0  0  0  0  0  0  0  0
   30.7286  -21.7794  -18.0384 C   0  0  0  0  0  0  0  0  0  0  0  0
   29.6204  -22.7601  -18.3751 C   0  0  0  0  0  0  0  0  0  0  0  0
   28.9785  -23.2523  -17.1264 C   0  0  2  0  0  0  0  0  0  0  0  0
   29.9747  -23.7932  -16.1217 C   0  0  0  0  0  0  0  0  0  0  0  0
   27.8349  -24.1694  -17.2895 C   0  0  2  0  0  0  0  0  0  0  0  0
   28.1655  -25.5273  -17.6596 N   0  0  0  0  0  0  0  0  0  0  0  0
   26.6020  -23.6447  -17.9072 C   0  0  0  0  0  0  0  0  0  0  0  0
   26.3046  -23.7881  -19.1184 O   0  0  0  0  0  0  0  0  0  0  0  0
   24.8909  -21.4502  -18.9447 C   0  0  0  0  0  0  0  0  0  0  0  0
   24.4787  -22.2974  -17.7460 C   0  0  2  0  0  0  0  0  0  0  0  0
   25.6527  -22.9191  -17.1384 N   0  0  0  0  0  0  0  0  0  0  0  0
   23.4533  -23.2785  -18.1002 C   0  0  0  0  0  0  0  0  0  0  0  0
   23.6147  -24.4989  -17.8738 O   0  0  0  0  0  0  0  0  0  0  0  0
   22.2784  -22.8626  -18.6974 O   0  0  0  0  0  0  0  0  0  0  0  0
  1  2  1  0
  2  3  1  0
  3 10  1  0
  3  4  2  0
  6  7  1  0
  6  5  1  0
  7  8  1  1
  9  7  1  0
  9 10  1  6
 11  9  1  0
 11 15  1  0
 12 11  2  0
 14 13  1  6
 14 15  1  0
 14 16  1  0
 16 18  1  0
 17 16  2  0
M  END
$$$$
