GIA.pdb
     RDKit          3D

 18 17  0  0  1  0  0  0  0  0999 V2000
   23.5093  -13.7268  -19.8698 N   0  0  0  0  0  0  0  0  0  0  0  0
   23.0747  -12.3637  -19.9420 C   0  0  0  0  0  0  0  0  0  0  0  0
   22.9068  -11.7480  -18.5963 C   0  0  0  0  0  0  0  0  0  0  0  0
   21.9876  -12.1488  -17.8842 O   0  0  0  0  0  0  0  0  0  0  0  0
   26.8608  -11.1116  -15.2052 C   0  0  0  0  0  0  0  0  0  0  0  0
   25.5200  -11.3302  -15.8817 C   0  0  0  0  0  0  0  0  0  0  0  0
   24.7910  -10.0384  -15.9977 C   0  0  2  0  0  0  0  0  0  0  0  0
   24.4501   -9.4277  -14.6541 C   0  0  0  0  0  0  0  0  0  0  0  0
   23.6273  -10.0165  -16.9036 C   0  0  2  0  0  0  0  0  0  0  0  0
   23.7897  -10.7245  -18.1536 N   0  0  0  0  0  0  0  0  0  0  0  0
   22.8390   -8.7728  -16.9974 C   0  0  0  0  0  0  0  0  0  0  0  0
   23.2764   -7.6953  -17.4702 O   0  0  0  0  0  0  0  0  0  0  0  0
   19.2131   -7.9128  -16.9013 C   0  0  0  0  0  0  0  0  0  0  0  0
   20.6716   -7.5267  -16.6817 C   0  0  2  0  0  0  0  0  0  0  0  0
   21.4955   -8.7243  -16.5373 N   0  0  0  0  0  0  0  0  0  0  0  0
   20.8272   -6.6081  -15.5541 C   0  0  0  0  0  0  0  0  0  0  0  0
   21.3344   -6.9845  -14.4735 O   0  0  0  0  0  0  0  0  0  0  0  0
   20.4098   -5.2958  -15.6714 O   0  0  0  0  0  0  0  0  0  0  0  0
  1  2  1  0
  2  3  1  0
  3 10  1  0
  3  4  2  0
  6  7  1  0
  6  5  1  0
  7  8  1  1
  9  7  1  0
  9 10  1  6
 11  9  1  0
 11 15  1  0
 12 11  2  0
 14 13  1  1
 14 15  1  0
 14 16  1  0
 16 18  1  0
 17 16  2  0
M  END
$$$$
