GIA.pdb
     RDKit          3D

 18 17  0  0  1  0  0  0  0  0999 V2000
   27.1481  -10.6643  -20.9510 N   0  0  0  0  0  0  0  0  0  0  0  0
   26.2933   -9.5208  -20.8327 C   0  0  0  0  0  0  0  0  0  0  0  0
   25.3494   -9.6323  -19.6860 C   0  0  0  0  0  0  0  0  0  0  0  0
   24.3495  -10.3354  -19.8223 O   0  0  0  0  0  0  0  0  0  0  0  0
   27.3798  -10.9886  -15.4307 C   0  0  0  0  0  0  0  0  0  0  0  0
   26.1769  -10.9317  -16.3543 C   0  0  0  0  0  0  0  0  0  0  0  0
   25.4100   -9.6793  -16.1159 C   0  0  2  0  0  0  0  0  0  0  0  0
   24.4357   -9.7920  -14.9615 C   0  0  0  0  0  0  0  0  0  0  0  0
   24.7716   -9.0622  -17.2936 C   0  0  2  0  0  0  0  0  0  0  0  0
   25.6042   -8.9411  -18.4693 N   0  0  0  0  0  0  0  0  0  0  0  0
   23.8458   -7.9344  -17.0749 C   0  0  0  0  0  0  0  0  0  0  0  0
   24.2061   -6.7859  -16.7186 O   0  0  0  0  0  0  0  0  0  0  0  0
   20.3374   -7.1126  -18.0279 C   0  0  0  0  0  0  0  0  0  0  0  0
   21.5095   -6.9900  -17.0606 C   0  0  2  0  0  0  0  0  0  0  0  0
   22.4458   -8.0938  -17.2582 N   0  0  0  0  0  0  0  0  0  0  0  0
   21.0605   -6.8863  -15.6724 C   0  0  0  0  0  0  0  0  0  0  0  0
   21.0187   -7.8897  -14.9255 O   0  0  0  0  0  0  0  0  0  0  0  0
   20.6720   -5.6616  -15.1634 O   0  0  0  0  0  0  0  0  0  0  0  0
  1  2  1  0
  2  3  1  0
  3 10  1  0
  3  4  2  0
  6  7  1  0
  6  5  1  0
  7  8  1  1
  9  7  1  0
  9 10  1  6
 11  9  1  0
 11 15  1  0
 12 11  2  0
 14 13  1  6
 14 15  1  0
 14 16  1  0
 16 18  1  0
 17 16  2  0
M  END
$$$$
