GIA.pdb
     RDKit          3D

 18 17  0  0  1  0  0  0  0  0999 V2000
   13.5939  -19.7263    1.2062 N   0  0  0  0  0  0  0  0  0  0  0  0
   13.7075  -18.5970    2.0802 C   0  0  0  0  0  0  0  0  0  0  0  0
   15.0561  -18.4933    2.7035 C   0  0  0  0  0  0  0  0  0  0  0  0
   15.8765  -19.3779    2.4649 O   0  0  0  0  0  0  0  0  0  0  0  0
   17.5854  -13.7390    3.2710 C   0  0  0  0  0  0  0  0  0  0  0  0
   17.1680  -15.1767    3.0219 C   0  0  0  0  0  0  0  0  0  0  0  0
   17.2529  -15.9583    4.2850 C   0  0  2  0  0  0  0  0  0  0  0  0
   18.6565  -16.0178    4.8516 C   0  0  0  0  0  0  0  0  0  0  0  0
   16.6237  -17.2922    4.2792 C   0  0  2  0  0  0  0  0  0  0  0  0
   15.3792  -17.3975    3.5510 N   0  0  0  0  0  0  0  0  0  0  0  0
   16.6863  -18.0990    5.5130 C   0  0  0  0  0  0  0  0  0  0  0  0
   16.0351  -17.8438    6.5555 O   0  0  0  0  0  0  0  0  0  0  0  0
   18.0434  -21.4726    6.4716 C   0  0  0  0  0  0  0  0  0  0  0  0
   17.6185  -20.0479    6.8101 C   0  0  2  0  0  0  0  0  0  0  0  0
   17.5200  -19.2468    5.5925 N   0  0  0  0  0  0  0  0  0  0  0  0
   18.5018  -19.4386    7.8040 C   0  0  0  0  0  0  0  0  0  0  0  0
   19.3875  -18.6189    7.4718 O   0  0  0  0  0  0  0  0  0  0  0  0
   18.3661  -19.7661    9.1398 O   0  0  0  0  0  0  0  0  0  0  0  0
  1  2  1  0
  2  3  1  0
  3 10  1  0
  3  4  2  0
  6  7  1  0
  6  5  1  0
  7  8  1  6
  9  7  1  0
  9 10  1  1
 11  9  1  0
 11 15  1  0
 12 11  2  0
 14 13  1  6
 14 15  1  0
 14 16  1  0
 16 18  1  0
 17 16  2  0
M  END
$$$$
