GIA.pdb
     RDKit          3D

 18 17  0  0  1  0  0  0  0  0999 V2000
   17.7133  -11.8342  -17.6412 N   0  0  0  0  0  0  0  0  0  0  0  0
   18.3096  -10.5619  -17.9203 C   0  0  0  0  0  0  0  0  0  0  0  0
   19.0615  -10.0181  -16.7555 C   0  0  0  0  0  0  0  0  0  0  0  0
   18.4649   -9.8877  -15.6879 O   0  0  0  0  0  0  0  0  0  0  0  0
   23.3656  -11.8922  -14.5353 C   0  0  0  0  0  0  0  0  0  0  0  0
   22.0745  -11.2165  -14.9592 C   0  0  0  0  0  0  0  0  0  0  0  0
   22.3337   -9.7927  -15.3041 C   0  0  2  0  0  0  0  0  0  0  0  0
   23.0425   -9.0353  -14.2003 C   0  0  0  0  0  0  0  0  0  0  0  0
   21.1910   -9.0225  -15.8299 C   0  0  2  0  0  0  0  0  0  0  0  0
   20.4326   -9.6614  -16.8820 N   0  0  0  0  0  0  0  0  0  0  0  0
   21.3425   -7.5624  -15.9785 C   0  0  0  0  0  0  0  0  0  0  0  0
   22.0216   -7.0126  -16.8799 O   0  0  0  0  0  0  0  0  0  0  0  0
   19.5508   -4.5150  -14.9135 C   0  0  0  0  0  0  0  0  0  0  0  0
   20.8773   -5.2199  -15.1744 C   0  0  2  0  0  0  0  0  0  0  0  0
   20.7090   -6.6676  -15.0747 N   0  0  0  0  0  0  0  0  0  0  0  0
   21.9383   -4.7241  -14.2981 C   0  0  0  0  0  0  0  0  0  0  0  0
   22.2162   -5.3006  -13.2224 O   0  0  0  0  0  0  0  0  0  0  0  0
   22.6556   -3.5975  -14.6535 O   0  0  0  0  0  0  0  0  0  0  0  0
  1  2  1  0
  2  3  1  0
  3 10  1  0
  3  4  2  0
  6  7  1  0
  6  5  1  0
  7  8  1  1
  9  7  1  0
  9 10  1  6
 11  9  1  0
 11 15  1  0
 12 11  2  0
 14 13  1  1
 14 15  1  0
 14 16  1  0
 16 18  1  0
 17 16  2  0
M  END
$$$$
