GIA.pdb
     RDKit          3D

 18 17  0  0  1  0  0  0  0  0999 V2000
   12.8575  -10.4924    6.8227 N   0  0  0  0  0  0  0  0  0  0  0  0
   14.1320  -10.2077    7.4119 C   0  0  0  0  0  0  0  0  0  0  0  0
   15.1254  -11.2905    7.1697 C   0  0  0  0  0  0  0  0  0  0  0  0
   14.7374  -12.3255    6.6302 O   0  0  0  0  0  0  0  0  0  0  0  0
   21.1160  -12.0185    6.1201 C   0  0  0  0  0  0  0  0  0  0  0  0
   19.8115  -12.6809    6.5234 C   0  0  0  0  0  0  0  0  0  0  0  0
   18.8211  -11.6489    6.9329 C   0  0  2  0  0  0  0  0  0  0  0  0
   19.3823  -10.6493    7.9230 C   0  0  0  0  0  0  0  0  0  0  0  0
   17.4975  -12.1382    7.3619 C   0  0  2  0  0  0  0  0  0  0  0  0
   16.4845  -11.1249    7.5549 N   0  0  0  0  0  0  0  0  0  0  0  0
   17.4446  -13.2543    8.3255 C   0  0  0  0  0  0  0  0  0  0  0  0
   17.6172  -13.1261    9.5623 O   0  0  0  0  0  0  0  0  0  0  0  0
   15.7016  -16.3212    8.7622 C   0  0  0  0  0  0  0  0  0  0  0  0
   17.0916  -15.6983    8.8278 C   0  0  2  0  0  0  0  0  0  0  0  0
   17.1905  -14.5827    7.8899 N   0  0  0  0  0  0  0  0  0  0  0  0
   18.1437  -16.6927    8.6185 C   0  0  0  0  0  0  0  0  0  0  0  0
   18.9284  -16.6150    7.6464 O   0  0  0  0  0  0  0  0  0  0  0  0
   18.2846  -17.7439    9.5045 O   0  0  0  0  0  0  0  0  0  0  0  0
  1  2  1  0
  2  3  1  0
  3 10  1  0
  3  4  2  0
  6  7  1  0
  6  5  1  0
  7  8  1  1
  9  7  1  0
  9 10  1  1
 11  9  1  0
 11 15  1  0
 12 11  2  0
 14 13  1  6
 14 15  1  0
 14 16  1  0
 16 18  1  0
 17 16  2  0
M  END
$$$$
