GIA.pdb
     RDKit          3D

 18 17  0  0  1  0  0  0  0  0999 V2000
   26.7446  -15.5631  -15.9436 N   0  0  0  0  0  0  0  0  0  0  0  0
   26.4124  -14.4054  -15.1680 C   0  0  0  0  0  0  0  0  0  0  0  0
   25.1492  -13.7599  -15.6216 C   0  0  0  0  0  0  0  0  0  0  0  0
   24.9611  -13.6364  -16.8308 O   0  0  0  0  0  0  0  0  0  0  0  0
   21.9510  -15.8928  -14.3368 C   0  0  0  0  0  0  0  0  0  0  0  0
   21.6556  -14.8308  -15.3798 C   0  0  0  0  0  0  0  0  0  0  0  0
   21.7247  -13.4782  -14.7639 C   0  0  2  0  0  0  0  0  0  0  0  0
   20.4704  -12.6597  -14.9897 C   0  0  0  0  0  0  0  0  0  0  0  0
   22.9362  -12.6857  -15.0462 C   0  0  2  0  0  0  0  0  0  0  0  0
   24.1909  -13.3011  -14.6759 N   0  0  0  0  0  0  0  0  0  0  0  0
   22.8799  -11.2262  -14.8371 C   0  0  0  0  0  0  0  0  0  0  0  0
   23.0255  -10.6680  -13.7222 O   0  0  0  0  0  0  0  0  0  0  0  0
   22.4984   -8.1997  -17.1032 C   0  0  0  0  0  0  0  0  0  0  0  0
   22.6202   -8.8919  -15.7502 C   0  0  2  0  0  0  0  0  0  0  0  0
   22.6452  -10.3421  -15.9244 N   0  0  0  0  0  0  0  0  0  0  0  0
   21.5724   -8.4634  -14.8239 C   0  0  0  0  0  0  0  0  0  0  0  0
   21.7879   -7.5840  -13.9596 O   0  0  0  0  0  0  0  0  0  0  0  0
   20.3152   -9.0330  -14.8940 O   0  0  0  0  0  0  0  0  0  0  0  0
  1  2  1  0
  2  3  1  0
  3 10  1  0
  3  4  2  0
  6  7  1  0
  6  5  1  0
  7  8  1  6
  9  7  1  0
  9 10  1  1
 11  9  1  0
 11 15  1  0
 12 11  2  0
 14 13  1  6
 14 15  1  0
 14 16  1  0
 16 18  1  0
 17 16  2  0
M  END
$$$$
