GIA.pdb
     RDKit          3D

 18 17  0  0  1  0  0  0  0  0999 V2000
   20.6838  -15.0964  -17.4774 N   0  0  0  0  0  0  0  0  0  0  0  0
   20.9976  -13.9777  -16.6393 C   0  0  0  0  0  0  0  0  0  0  0  0
   19.9925  -12.8843  -16.7500 C   0  0  0  0  0  0  0  0  0  0  0  0
   19.6782  -12.4949  -17.8736 O   0  0  0  0  0  0  0  0  0  0  0  0
   16.3813  -13.9806  -14.6501 C   0  0  0  0  0  0  0  0  0  0  0  0
   16.4385  -12.8598  -15.6718 C   0  0  0  0  0  0  0  0  0  0  0  0
   17.0837  -11.6590  -15.0758 C   0  0  2  0  0  0  0  0  0  0  0  0
   16.1574  -10.4627  -15.0046 C   0  0  0  0  0  0  0  0  0  0  0  0
   18.4020  -11.2806  -15.6181 C   0  0  2  0  0  0  0  0  0  0  0  0
   19.4159  -12.3107  -15.5831 N   0  0  0  0  0  0  0  0  0  0  0  0
   18.8996   -9.9166  -15.3553 C   0  0  0  0  0  0  0  0  0  0  0  0
   19.3802   -9.5412  -14.2580 O   0  0  0  0  0  0  0  0  0  0  0  0
   19.5636   -6.8300  -17.4337 C   0  0  0  0  0  0  0  0  0  0  0  0
   19.2966   -7.5469  -16.1148 C   0  0  2  0  0  0  0  0  0  0  0  0
   18.8561   -8.9172  -16.3644 N   0  0  0  0  0  0  0  0  0  0  0  0
   18.3555   -6.8070  -15.2744 C   0  0  0  0  0  0  0  0  0  0  0  0
   17.1246   -7.0283  -15.3256 O   0  0  0  0  0  0  0  0  0  0  0  0
   18.8220   -5.8417  -14.4023 O   0  0  0  0  0  0  0  0  0  0  0  0
  1  2  1  0
  2  3  1  0
  3 10  1  0
  3  4  2  0
  6  7  1  0
  6  5  1  0
  7  8  1  6
  9  7  1  0
  9 10  1  1
 11  9  1  0
 11 15  1  0
 12 11  2  0
 14 13  1  6
 14 15  1  0
 14 16  1  0
 16 18  1  0
 17 16  2  0
M  END
$$$$
