GIA.pdb
     RDKit          3D

 18 17  0  0  1  0  0  0  0  0999 V2000
   21.9089  -13.1922  -18.1771 N   0  0  0  0  0  0  0  0  0  0  0  0
   22.5921  -12.3514  -17.2398 C   0  0  0  0  0  0  0  0  0  0  0  0
   21.9147  -11.0380  -17.0548 C   0  0  0  0  0  0  0  0  0  0  0  0
   21.9617  -10.2246  -17.9761 O   0  0  0  0  0  0  0  0  0  0  0  0
   17.7349  -11.5222  -15.5895 C   0  0  0  0  0  0  0  0  0  0  0  0
   18.2609  -10.2322  -16.1914 C   0  0  0  0  0  0  0  0  0  0  0  0
   19.1572   -9.5458  -15.2224 C   0  0  2  0  0  0  0  0  0  0  0  0
   18.6335   -8.1929  -14.7868 C   0  0  0  0  0  0  0  0  0  0  0  0
   20.5859   -9.4736  -15.5819 C   0  0  2  0  0  0  0  0  0  0  0  0
   21.2338  -10.7396  -15.8422 N   0  0  0  0  0  0  0  0  0  0  0  0
   21.4299   -8.4794  -14.8918 C   0  0  0  0  0  0  0  0  0  0  0  0
   21.8992   -8.6332  -13.7377 O   0  0  0  0  0  0  0  0  0  0  0  0
   23.1377   -5.2532  -15.8879 C   0  0  0  0  0  0  0  0  0  0  0  0
   22.6194   -6.2581  -14.8651 C   0  0  2  0  0  0  0  0  0  0  0  0
   21.7656   -7.2482  -15.5167 N   0  0  0  0  0  0  0  0  0  0  0  0
   21.9474   -5.5978  -13.7462 C   0  0  0  0  0  0  0  0  0  0  0  0
   20.7147   -5.3811  -13.7640 O   0  0  0  0  0  0  0  0  0  0  0  0
   22.6767   -5.2005  -12.6416 O   0  0  0  0  0  0  0  0  0  0  0  0
  1  2  1  0
  2  3  1  0
  3 10  1  0
  3  4  2  0
  6  7  1  0
  6  5  1  0
  7  8  1  6
  9  7  1  0
  9 10  1  1
 11  9  1  0
 11 15  1  0
 12 11  2  0
 14 13  1  6
 14 15  1  0
 14 16  1  0
 16 18  1  0
 17 16  2  0
M  END
$$$$
