GIA.pdb
     RDKit          3D

 18 17  0  0  1  0  0  0  0  0999 V2000
   15.7496   -8.0209   -8.7842 N   0  0  0  0  0  0  0  0  0  0  0  0
   15.6758   -7.4450  -10.0939 C   0  0  0  0  0  0  0  0  0  0  0  0
   16.8994   -7.7087  -10.9010 C   0  0  0  0  0  0  0  0  0  0  0  0
   17.9165   -8.0726  -10.3131 O   0  0  0  0  0  0  0  0  0  0  0  0
   16.0837  -10.3308  -14.3600 C   0  0  0  0  0  0  0  0  0  0  0  0
   17.4917  -10.0655  -13.8597 C   0  0  0  0  0  0  0  0  0  0  0  0
   17.9190   -8.6930  -14.2436 C   0  0  2  0  0  0  0  0  0  0  0  0
   19.1406   -8.6816  -15.1392 C   0  0  0  0  0  0  0  0  0  0  0  0
   18.0513   -7.7128  -13.1495 C   0  0  2  0  0  0  0  0  0  0  0  0
   16.8842   -7.5419  -12.3135 N   0  0  0  0  0  0  0  0  0  0  0  0
   18.8101   -6.4745  -13.4097 C   0  0  0  0  0  0  0  0  0  0  0  0
   18.3141   -5.4367  -13.9127 O   0  0  0  0  0  0  0  0  0  0  0  0
   22.3211   -5.2440  -12.6895 C   0  0  0  0  0  0  0  0  0  0  0  0
   20.9879   -5.2069  -13.4284 C   0  0  2  0  0  0  0  0  0  0  0  0
   20.1937   -6.3876  -13.0980 N   0  0  0  0  0  0  0  0  0  0  0  0
   21.1699   -5.0478  -14.8710 C   0  0  0  0  0  0  0  0  0  0  0  0
   21.2546   -6.0399  -15.6294 O   0  0  0  0  0  0  0  0  0  0  0  0
   21.2515   -3.7821  -15.4200 O   0  0  0  0  0  0  0  0  0  0  0  0
  1  2  1  0
  2  3  1  0
  3 10  1  0
  3  4  2  0
  6  7  1  0
  6  5  1  0
  7  8  1  1
  9  7  1  0
  9 10  1  6
 11  9  1  0
 11 15  1  0
 12 11  2  0
 14 13  1  1
 14 15  1  0
 14 16  1  0
 16 18  1  0
 17 16  2  0
M  END
$$$$
