GIA.pdb
     RDKit          3D

 18 17  0  0  1  0  0  0  0  0999 V2000
   18.1858  -11.7626  -18.0649 N   0  0  0  0  0  0  0  0  0  0  0  0
   18.8345  -10.4968  -18.2365 C   0  0  0  0  0  0  0  0  0  0  0  0
   19.4132   -9.9773  -16.9663 C   0  0  0  0  0  0  0  0  0  0  0  0
   18.6892   -9.9321  -15.9732 O   0  0  0  0  0  0  0  0  0  0  0  0
   23.5703  -11.7649  -14.5228 C   0  0  0  0  0  0  0  0  0  0  0  0
   22.2643  -11.1154  -14.9419 C   0  0  0  0  0  0  0  0  0  0  0  0
   22.4532   -9.6484  -15.1028 C   0  0  2  0  0  0  0  0  0  0  0  0
   22.8905   -8.9637  -13.8244 C   0  0  0  0  0  0  0  0  0  0  0  0
   21.3557   -8.9093  -15.7545 C   0  0  2  0  0  0  0  0  0  0  0  0
   20.7678   -9.5470  -16.9112 N   0  0  0  0  0  0  0  0  0  0  0  0
   21.4620   -7.4406  -15.8476 C   0  0  0  0  0  0  0  0  0  0  0  0
   22.2287   -6.8383  -16.6383 O   0  0  0  0  0  0  0  0  0  0  0  0
   19.4287   -4.5079  -14.7474 C   0  0  0  0  0  0  0  0  0  0  0  0
   20.7758   -5.1421  -15.0755 C   0  0  2  0  0  0  0  0  0  0  0  0
   20.6775   -6.5983  -15.0144 N   0  0  0  0  0  0  0  0  0  0  0  0
   21.8438   -4.6228  -14.2216 C   0  0  0  0  0  0  0  0  0  0  0  0
   22.2379   -5.2549  -13.2157 O   0  0  0  0  0  0  0  0  0  0  0  0
   22.4377   -3.4112  -14.5205 O   0  0  0  0  0  0  0  0  0  0  0  0
  1  2  1  0
  2  3  1  0
  3 10  1  0
  3  4  2  0
  6  7  1  0
  6  5  1  0
  7  8  1  1
  9  7  1  0
  9 10  1  6
 11  9  1  0
 11 15  1  0
 12 11  2  0
 14 13  1  1
 14 15  1  0
 14 16  1  0
 16 18  1  0
 17 16  2  0
M  END
$$$$
