GIA.pdb
     RDKit          3D

 18 17  0  0  1  0  0  0  0  0999 V2000
   18.6490  -16.2029  -19.8222 N   0  0  0  0  0  0  0  0  0  0  0  0
   19.9853  -16.3231  -19.3199 C   0  0  0  0  0  0  0  0  0  0  0  0
   20.1711  -17.5408  -18.4828 C   0  0  0  0  0  0  0  0  0  0  0  0
   20.1499  -18.6375  -19.0391 O   0  0  0  0  0  0  0  0  0  0  0  0
   23.5447  -19.5617  -16.5767 C   0  0  0  0  0  0  0  0  0  0  0  0
   23.0087  -18.2855  -15.9544 C   0  0  0  0  0  0  0  0  0  0  0  0
   21.6924  -18.5456  -15.3116 C   0  0  2  0  0  0  0  0  0  0  0  0
   21.7092  -19.7505  -14.3938 C   0  0  0  0  0  0  0  0  0  0  0  0
   20.5167  -18.5703  -16.2018 C   0  0  2  0  0  0  0  0  0  0  0  0
   20.3674  -17.4304  -17.0784 N   0  0  0  0  0  0  0  0  0  0  0  0
   19.2502  -19.1097  -15.6707 C   0  0  0  0  0  0  0  0  0  0  0  0
   18.5944  -18.5808  -14.7400 O   0  0  0  0  0  0  0  0  0  0  0  0
   16.6982  -21.6075  -16.7854 C   0  0  0  0  0  0  0  0  0  0  0  0
   17.4422  -20.8649  -15.6810 C   0  0  2  0  0  0  0  0  0  0  0  0
   18.6863  -20.3018  -16.1996 N   0  0  0  0  0  0  0  0  0  0  0  0
   17.6637  -21.7124  -14.5096 C   0  0  0  0  0  0  0  0  0  0  0  0
   18.7323  -22.3463  -14.3579 O   0  0  0  0  0  0  0  0  0  0  0  0
   16.6814  -21.8239  -13.5439 O   0  0  0  0  0  0  0  0  0  0  0  0
  1  2  1  0
  2  3  1  0
  3 10  1  0
  3  4  2  0
  6  7  1  0
  6  5  1  0
  7  8  1  6
  9  7  1  0
  9 10  1  1
 11  9  1  0
 11 15  1  0
 12 11  2  0
 14 13  1  6
 14 15  1  0
 14 16  1  0
 16 18  1  0
 17 16  2  0
M  END
$$$$
