GIA.pdb
     RDKit          3D

 18 17  0  0  1  0  0  0  0  0999 V2000
   16.6716  -10.1219  -17.6716 N   0  0  0  0  0  0  0  0  0  0  0  0
   17.9634  -10.7368  -17.7458 C   0  0  0  0  0  0  0  0  0  0  0  0
   18.8907  -10.2417  -16.6908 C   0  0  0  0  0  0  0  0  0  0  0  0
   18.4743  -10.1746  -15.5355 O   0  0  0  0  0  0  0  0  0  0  0  0
   24.2268  -11.1690  -14.4608 C   0  0  0  0  0  0  0  0  0  0  0  0
   23.1834  -10.0790  -14.6228 C   0  0  0  0  0  0  0  0  0  0  0  0
   22.2804  -10.4026  -15.7601 C   0  0  2  0  0  0  0  0  0  0  0  0
   23.0289  -10.7608  -17.0273 C   0  0  0  0  0  0  0  0  0  0  0  0
   21.1957   -9.4418  -16.0355 C   0  0  2  0  0  0  0  0  0  0  0  0
   20.2208   -9.8586  -17.0183 N   0  0  0  0  0  0  0  0  0  0  0  0
   21.5277   -8.0046  -16.0674 C   0  0  0  0  0  0  0  0  0  0  0  0
   22.2460   -7.4666  -16.9452 O   0  0  0  0  0  0  0  0  0  0  0  0
   20.0684   -4.8845  -15.3114 C   0  0  0  0  0  0  0  0  0  0  0  0
   21.3418   -5.6917  -15.0844 C   0  0  2  0  0  0  0  0  0  0  0  0
   21.0386   -7.1206  -15.0682 N   0  0  0  0  0  0  0  0  0  0  0  0
   22.0505   -5.2622  -13.8791 C   0  0  0  0  0  0  0  0  0  0  0  0
   22.6158   -4.1470  -13.8193 O   0  0  0  0  0  0  0  0  0  0  0  0
   22.1043   -6.0950  -12.7775 O   0  0  0  0  0  0  0  0  0  0  0  0
  1  2  1  0
  2  3  1  0
  3 10  1  0
  3  4  2  0
  6  7  1  0
  6  5  1  0
  7  8  1  6
  9  7  1  0
  9 10  1  6
 11  9  1  0
 11 15  1  0
 12 11  2  0
 14 13  1  1
 14 15  1  0
 14 16  1  0
 16 18  1  0
 17 16  2  0
M  END
$$$$
