TVH.pdb
     RDKit          3D

 25 25  0  0  1  0  0  0  0  0999 V2000
    7.4059  -19.0965   17.7298 C   0  0  0  0  0  0  0  0  0  0  0  0
    8.2453  -18.5419   16.6026 C   0  0  1  0  0  0  0  0  0  0  0  0
    7.9864  -19.1905   15.4050 O   0  0  0  0  0  0  0  0  0  0  0  0
    8.1941  -17.0583   16.5026 C   0  0  2  0  0  0  0  0  0  0  0  0
    8.8563  -16.6549   15.2698 N   0  0  0  0  0  0  0  0  0  0  0  0
    8.7157  -16.3309   17.6683 C   0  0  0  0  0  0  0  0  0  0  0  0
    9.9650  -16.3043   17.9242 O   0  0  0  0  0  0  0  0  0  0  0  0
    8.0705  -13.4403   21.6463 C   0  0  0  0  0  0  0  0  0  0  0  0
    7.4216  -14.0789   20.4366 C   0  0  1  0  0  0  0  0  0  0  0  0
    6.9454  -12.9539   19.5445 C   0  0  0  0  0  0  0  0  0  0  0  0
    8.4049  -14.9833   19.7665 C   0  0  2  0  0  0  0  0  0  0  0  0
    7.9046  -15.6187   18.5793 N   0  0  0  0  0  0  0  0  0  0  0  0
    8.8812  -15.9697   20.7777 C   0  0  0  0  0  0  0  0  0  0  0  0
    8.3308  -17.0901   20.9347 O   0  0  0  0  0  0  0  0  0  0  0  0
    9.9996  -15.6867   21.6279 N   0  0  0  0  0  0  0  0  0  0  0  0
   10.7229  -16.7555   22.3085 C   0  0  1  0  0  0  0  0  0  0  0  0
   11.8426  -17.2185   21.3895 C   0  0  0  0  0  0  0  0  0  0  0  0
   11.4851  -18.4906   20.7110 C   0  0  0  0  0  0  0  0  0  0  0  0
   10.3488  -19.2497   20.8407 C   0  0  0  0  0  0  0  0  0  0  0  0
   10.4753  -20.3139   20.0265 N   0  0  0  0  0  0  0  0  0  0  0  0
   11.6490  -20.2574   19.3858 C   0  0  0  0  0  0  0  0  0  0  0  0
   12.2614  -19.1464   19.8046 N   0  0  0  0  0  0  0  0  0  0  0  0
   11.2576  -16.2835   23.6088 C   0  0  0  0  0  0  0  0  0  0  0  0
   11.2038  -17.0646   24.7535 O   0  0  0  0  0  0  0  0  0  0  0  0
   11.7916  -15.1408   23.7405 O   0  0  0  0  0  0  0  0  0  0  0  0
  2  1  1  1
  2  3  1  0
  4  6  1  0
  4  2  1  0
  4  5  1  6
  6  7  2  0
  9  8  1  1
  9 10  1  0
 11  9  1  0
 12  6  1  0
 11 12  1  6
 13 11  1  0
 14 13  2  0
 15 13  1  0
 16 15  1  0
 16 17  1  6
 17 18  1  0
 18 22  1  0
 19 18  2  0
 19 20  1  0
 20 21  1  0
 22 21  2  0
 23 16  1  0
 23 24  1  0
 25 23  2  0
M  END
$$$$
