TVH.pdb
     RDKit          3D

 25 25  0  0  1  0  0  0  0  0999 V2000
    6.3818  -15.6019   20.5881 C   0  0  0  0  0  0  0  0  0  0  0  0
    7.3907  -14.6596   19.9742 C   0  0  1  0  0  0  0  0  0  0  0  0
    7.2062  -14.5333   18.6060 O   0  0  0  0  0  0  0  0  0  0  0  0
    7.4926  -13.3574   20.6867 C   0  0  2  0  0  0  0  0  0  0  0  0
    8.2822  -12.4448   19.8714 N   0  0  0  0  0  0  0  0  0  0  0  0
    7.9932  -13.4328   22.0664 C   0  0  0  0  0  0  0  0  0  0  0  0
    9.2429  -13.5070   22.3114 O   0  0  0  0  0  0  0  0  0  0  0  0
    7.4372  -13.2076   26.9554 C   0  0  0  0  0  0  0  0  0  0  0  0
    6.7898  -13.0031   25.6021 C   0  0  1  0  0  0  0  0  0  0  0  0
    6.6181  -11.5119   25.4146 C   0  0  0  0  0  0  0  0  0  0  0  0
    7.6392  -13.6336   24.5462 C   0  0  2  0  0  0  0  0  0  0  0  0
    7.1606  -13.4291   23.2073 N   0  0  0  0  0  0  0  0  0  0  0  0
    7.7848  -15.0792   24.8798 C   0  0  0  0  0  0  0  0  0  0  0  0
    7.1004  -15.9713   24.3155 O   0  0  0  0  0  0  0  0  0  0  0  0
    8.7203  -15.5268   25.8689 N   0  0  0  0  0  0  0  0  0  0  0  0
    9.5120  -16.7361   25.6700 C   0  0  1  0  0  0  0  0  0  0  0  0
   10.3613  -16.5371   24.4244 C   0  0  0  0  0  0  0  0  0  0  0  0
   11.2313  -17.7155   24.1773 C   0  0  0  0  0  0  0  0  0  0  0  0
   11.3959  -18.8437   24.9415 C   0  0  0  0  0  0  0  0  0  0  0  0
   12.2871  -19.6335   24.3142 N   0  0  0  0  0  0  0  0  0  0  0  0
   12.6932  -19.0479   23.1813 C   0  0  0  0  0  0  0  0  0  0  0  0
   12.0488  -17.8805   23.1008 N   0  0  0  0  0  0  0  0  0  0  0  0
   10.3575  -17.0122   26.8567 C   0  0  0  0  0  0  0  0  0  0  0  0
   10.6484  -16.0347   27.7963 O   0  0  0  0  0  0  0  0  0  0  0  0
   10.8581  -18.1572   27.0730 O   0  0  0  0  0  0  0  0  0  0  0  0
  2  1  1  1
  2  3  1  0
  4  6  1  0
  4  2  1  0
  4  5  1  6
  6  7  2  0
  9  8  1  1
  9 10  1  0
 11  9  1  0
 12  6  1  0
 11 12  1  6
 13 11  1  0
 14 13  2  0
 15 13  1  0
 16 15  1  0
 16 17  1  6
 17 18  1  0
 18 22  1  0
 19 18  2  0
 19 20  1  0
 20 21  1  0
 22 21  2  0
 23 16  1  0
 23 24  1  0
 25 23  2  0
M  END
$$$$
