TVH.pdb
     RDKit          3D

 25 25  0  0  1  0  0  0  0  0999 V2000
    7.6756  -19.0825   18.3961 C   0  0  0  0  0  0  0  0  0  0  0  0
    8.6115  -18.7413   17.2602 C   0  0  1  0  0  0  0  0  0  0  0  0
    8.4271  -19.5840   16.1749 O   0  0  0  0  0  0  0  0  0  0  0  0
    8.6057  -17.2968   16.9036 C   0  0  2  0  0  0  0  0  0  0  0  0
    9.4418  -17.1079   15.7261 N   0  0  0  0  0  0  0  0  0  0  0  0
    8.9746  -16.3792   17.9907 C   0  0  0  0  0  0  0  0  0  0  0  0
   10.1913  -16.2298   18.3434 O   0  0  0  0  0  0  0  0  0  0  0  0
    7.8201  -13.1121   21.5291 C   0  0  0  0  0  0  0  0  0  0  0  0
    7.4439  -13.7368   20.2023 C   0  0  1  0  0  0  0  0  0  0  0  0
    7.5027  -12.6385   19.1637 C   0  0  0  0  0  0  0  0  0  0  0  0
    8.3705  -14.8723   19.9090 C   0  0  2  0  0  0  0  0  0  0  0  0
    8.0432  -15.6052   18.7176 N   0  0  0  0  0  0  0  0  0  0  0  0
    8.4179  -15.7467   21.1154 C   0  0  0  0  0  0  0  0  0  0  0  0
    7.6265  -16.7110   21.2779 O   0  0  0  0  0  0  0  0  0  0  0  0
    9.3764  -15.5289   22.1583 N   0  0  0  0  0  0  0  0  0  0  0  0
   10.0446  -16.6457   22.8179 C   0  0  1  0  0  0  0  0  0  0  0  0
   10.7181  -17.4854   21.7438 C   0  0  0  0  0  0  0  0  0  0  0  0
   11.4301  -18.6446   22.3404 C   0  0  0  0  0  0  0  0  0  0  0  0
   11.5240  -19.0163   23.6584 C   0  0  0  0  0  0  0  0  0  0  0  0
   12.2721  -20.1337   23.7137 N   0  0  0  0  0  0  0  0  0  0  0  0
   12.6558  -20.4838   22.4802 C   0  0  0  0  0  0  0  0  0  0  0  0
   12.1417  -19.5755   21.6464 N   0  0  0  0  0  0  0  0  0  0  0  0
   11.0303  -16.1559   23.8118 C   0  0  0  0  0  0  0  0  0  0  0  0
   11.2288  -16.7938   25.0271 O   0  0  0  0  0  0  0  0  0  0  0  0
   11.7426  -15.1280   23.6011 O   0  0  0  0  0  0  0  0  0  0  0  0
  2  1  1  1
  2  3  1  0
  4  6  1  0
  4  2  1  0
  4  5  1  6
  6  7  2  0
  9  8  1  1
  9 10  1  0
 11  9  1  0
 12  6  1  0
 11 12  1  6
 13 11  1  0
 14 13  2  0
 15 13  1  0
 16 15  1  0
 16 17  1  6
 17 18  1  0
 18 22  1  0
 19 18  2  0
 19 20  1  0
 20 21  1  0
 22 21  2  0
 23 16  1  0
 23 24  1  0
 25 23  2  0
M  END
$$$$
