TVH.pdb
     RDKit          3D

 25 25  0  0  1  0  0  0  0  0999 V2000
    7.6910  -19.1836   15.8914 C   0  0  0  0  0  0  0  0  0  0  0  0
    8.1777  -18.4259   17.1045 C   0  0  1  0  0  0  0  0  0  0  0  0
    9.1315  -19.1451   17.8080 O   0  0  0  0  0  0  0  0  0  0  0  0
    8.5855  -17.0272   16.8028 C   0  0  2  0  0  0  0  0  0  0  0  0
    9.6389  -17.0592   15.7977 N   0  0  0  0  0  0  0  0  0  0  0  0
    8.9650  -16.2172   17.9689 C   0  0  0  0  0  0  0  0  0  0  0  0
   10.1873  -16.0800   18.3070 O   0  0  0  0  0  0  0  0  0  0  0  0
    7.7973  -13.3053   21.8128 C   0  0  0  0  0  0  0  0  0  0  0  0
    7.3313  -13.9334   20.5165 C   0  0  1  0  0  0  0  0  0  0  0  0
    6.9936  -12.8007   19.5724 C   0  0  0  0  0  0  0  0  0  0  0  0
    8.4002  -14.8364   19.9912 C   0  0  2  0  0  0  0  0  0  0  0  0
    8.0385  -15.5399   18.7922 N   0  0  0  0  0  0  0  0  0  0  0  0
    8.7983  -15.7610   21.0908 C   0  0  0  0  0  0  0  0  0  0  0  0
    8.0652  -16.7112   21.4682 O   0  0  0  0  0  0  0  0  0  0  0  0
   10.0471  -15.6108   21.7775 N   0  0  0  0  0  0  0  0  0  0  0  0
   10.3900  -16.4531   22.9184 C   0  0  1  0  0  0  0  0  0  0  0  0
   11.8711  -16.7846   22.8239 C   0  0  0  0  0  0  0  0  0  0  0  0
   12.1234  -17.8091   21.7783 C   0  0  0  0  0  0  0  0  0  0  0  0
   11.3751  -18.9121   21.4505 C   0  0  0  0  0  0  0  0  0  0  0  0
   12.0007  -19.5422   20.4391 N   0  0  0  0  0  0  0  0  0  0  0  0
   13.1172  -18.8798   20.1138 C   0  0  0  0  0  0  0  0  0  0  0  0
   13.1892  -17.8252   20.9308 N   0  0  0  0  0  0  0  0  0  0  0  0
   10.0753  -15.7646   24.1938 C   0  0  0  0  0  0  0  0  0  0  0  0
   10.0917  -16.4280   25.4115 O   0  0  0  0  0  0  0  0  0  0  0  0
    9.7749  -14.5332   24.2360 O   0  0  0  0  0  0  0  0  0  0  0  0
  2  1  1  6
  2  3  1  0
  4  6  1  0
  4  2  1  0
  4  5  1  6
  6  7  2  0
  9  8  1  1
  9 10  1  0
 11  9  1  0
 12  6  1  0
 11 12  1  6
 13 11  1  0
 14 13  2  0
 15 13  1  0
 16 15  1  0
 16 17  1  1
 17 18  1  0
 18 22  1  0
 19 18  2  0
 19 20  1  0
 20 21  1  0
 22 21  2  0
 23 16  1  0
 23 24  1  0
 25 23  2  0
M  END
$$$$
