TVH.pdb
     RDKit          3D

 25 25  0  0  1  0  0  0  0  0999 V2000
    7.7957  -19.1995   18.8139 C   0  0  0  0  0  0  0  0  0  0  0  0
    8.7055  -18.8469   17.6605 C   0  0  1  0  0  0  0  0  0  0  0  0
    8.5254  -19.7045   16.5862 O   0  0  0  0  0  0  0  0  0  0  0  0
    8.6590  -17.4065   17.2904 C   0  0  2  0  0  0  0  0  0  0  0  0
    9.4825  -17.2066   16.1059 N   0  0  0  0  0  0  0  0  0  0  0  0
    9.0097  -16.4689   18.3664 C   0  0  0  0  0  0  0  0  0  0  0  0
   10.2152  -16.3418   18.7635 O   0  0  0  0  0  0  0  0  0  0  0  0
    7.7191  -13.1462   21.8221 C   0  0  0  0  0  0  0  0  0  0  0  0
    7.3263  -13.8566   20.5441 C   0  0  1  0  0  0  0  0  0  0  0  0
    7.1162  -12.7904   19.4918 C   0  0  0  0  0  0  0  0  0  0  0  0
    8.3893  -14.8414   20.1779 C   0  0  2  0  0  0  0  0  0  0  0  0
    8.0719  -15.6508   19.0344 N   0  0  0  0  0  0  0  0  0  0  0  0
    8.6877  -15.6620   21.3861 C   0  0  0  0  0  0  0  0  0  0  0  0
    7.8718  -16.5018   21.8463 O   0  0  0  0  0  0  0  0  0  0  0  0
    9.9302  -15.5328   22.0885 N   0  0  0  0  0  0  0  0  0  0  0  0
   10.2070  -16.3160   23.2879 C   0  0  1  0  0  0  0  0  0  0  0  0
   11.7121  -16.5138   23.3777 C   0  0  0  0  0  0  0  0  0  0  0  0
   12.1902  -17.4563   22.3338 C   0  0  0  0  0  0  0  0  0  0  0  0
   11.4770  -18.3804   21.6116 C   0  0  0  0  0  0  0  0  0  0  0  0
   12.3373  -19.0019   20.7840 N   0  0  0  0  0  0  0  0  0  0  0  0
   13.5687  -18.5062   20.9547 C   0  0  0  0  0  0  0  0  0  0  0  0
   13.4759  -17.5655   21.8988 N   0  0  0  0  0  0  0  0  0  0  0  0
    9.6835  -15.6319   24.4952 C   0  0  0  0  0  0  0  0  0  0  0  0
    9.1871  -14.3378   24.4504 O   0  0  0  0  0  0  0  0  0  0  0  0
    9.6631  -16.1958   25.6309 O   0  0  0  0  0  0  0  0  0  0  0  0
  2  1  1  1
  2  3  1  0
  4  6  1  0
  4  2  1  0
  4  5  1  6
  6  7  2  0
  9  8  1  1
  9 10  1  0
 11  9  1  0
 12  6  1  0
 11 12  1  6
 13 11  1  0
 14 13  2  0
 15 13  1  0
 16 15  1  0
 16 17  1  1
 17 18  1  0
 18 22  1  0
 19 18  2  0
 19 20  1  0
 20 21  1  0
 22 21  2  0
 23 16  1  0
 23 24  1  0
 25 23  2  0
M  END
$$$$
