TVH.pdb
     RDKit          3D

 25 25  0  0  1  0  0  0  0  0999 V2000
    6.6884  -19.5482   16.5727 C   0  0  0  0  0  0  0  0  0  0  0  0
    7.4231  -18.8108   17.6677 C   0  0  1  0  0  0  0  0  0  0  0  0
    8.3980  -19.6036   18.2532 O   0  0  0  0  0  0  0  0  0  0  0  0
    7.9139  -17.4696   17.2501 C   0  0  2  0  0  0  0  0  0  0  0  0
    8.8103  -17.6383   16.1147 N   0  0  0  0  0  0  0  0  0  0  0  0
    8.5252  -16.6636   18.3161 C   0  0  0  0  0  0  0  0  0  0  0  0
    9.7853  -16.6776   18.5134 O   0  0  0  0  0  0  0  0  0  0  0  0
    8.2405  -13.3301   21.9713 C   0  0  0  0  0  0  0  0  0  0  0  0
    7.5091  -14.0322   20.8469 C   0  0  1  0  0  0  0  0  0  0  0  0
    7.1407  -12.9744   19.8303 C   0  0  0  0  0  0  0  0  0  0  0  0
    8.3810  -15.1083   20.2848 C   0  0  2  0  0  0  0  0  0  0  0  0
    7.7939  -15.8277   19.1888 N   0  0  0  0  0  0  0  0  0  0  0  0
    8.7754  -16.0088   21.4054 C   0  0  0  0  0  0  0  0  0  0  0  0
    8.3174  -17.1745   21.5238 O   0  0  0  0  0  0  0  0  0  0  0  0
    9.7042  -15.5861   22.4116 N   0  0  0  0  0  0  0  0  0  0  0  0
   10.5668  -16.5432   23.0960 C   0  0  1  0  0  0  0  0  0  0  0  0
   11.4101  -17.2456   22.0434 C   0  0  0  0  0  0  0  0  0  0  0  0
   10.9835  -18.6581   21.8725 C   0  0  0  0  0  0  0  0  0  0  0  0
   10.0195  -19.3584   22.5540 C   0  0  0  0  0  0  0  0  0  0  0  0
    9.9897  -20.6058   22.0496 N   0  0  0  0  0  0  0  0  0  0  0  0
   10.8987  -20.7221   21.0742 C   0  0  0  0  0  0  0  0  0  0  0  0
   11.5020  -19.5349   20.9687 N   0  0  0  0  0  0  0  0  0  0  0  0
   11.4203  -15.8594   24.0977 C   0  0  0  0  0  0  0  0  0  0  0  0
   11.6145  -16.3722   25.3715 O   0  0  0  0  0  0  0  0  0  0  0  0
   12.0166  -14.7701   23.8405 O   0  0  0  0  0  0  0  0  0  0  0  0
  2  1  1  6
  2  3  1  0
  4  6  1  0
  4  2  1  0
  4  5  1  6
  6  7  2  0
  9  8  1  1
  9 10  1  0
 11  9  1  0
 12  6  1  0
 11 12  1  6
 13 11  1  0
 14 13  2  0
 15 13  1  0
 16 15  1  0
 16 17  1  6
 17 18  1  0
 18 22  1  0
 19 18  2  0
 19 20  1  0
 20 21  1  0
 22 21  2  0
 23 16  1  0
 23 24  1  0
 25 23  2  0
M  END
$$$$
