TVH.pdb
     RDKit          3D

 25 25  0  0  1  0  0  0  0  0999 V2000
   10.7946  -14.0951   17.5916 C   0  0  0  0  0  0  0  0  0  0  0  0
   10.1219  -14.3852   18.9129 C   0  0  1  0  0  0  0  0  0  0  0  0
   10.7785  -13.7694   19.9673 O   0  0  0  0  0  0  0  0  0  0  0  0
    8.6548  -14.1379   18.8957 C   0  0  2  0  0  0  0  0  0  0  0  0
    8.4236  -12.7553   18.5004 N   0  0  0  0  0  0  0  0  0  0  0  0
    7.9447  -14.4794   20.1362 C   0  0  0  0  0  0  0  0  0  0  0  0
    7.5506  -13.5722   20.9417 O   0  0  0  0  0  0  0  0  0  0  0  0
    5.8175  -17.7234   23.2062 C   0  0  0  0  0  0  0  0  0  0  0  0
    6.3363  -17.4474   21.8109 C   0  0  1  0  0  0  0  0  0  0  0  0
    5.1421  -17.4678   20.8827 C   0  0  0  0  0  0  0  0  0  0  0  0
    7.0642  -16.1420   21.8023 C   0  0  2  0  0  0  0  0  0  0  0  0
    7.6448  -15.8013   20.5333 N   0  0  0  0  0  0  0  0  0  0  0  0
    8.0765  -16.1761   22.8962 C   0  0  0  0  0  0  0  0  0  0  0  0
    9.1488  -16.8268   22.7994 O   0  0  0  0  0  0  0  0  0  0  0  0
    7.8751  -15.4624   24.1225 N   0  0  0  0  0  0  0  0  0  0  0  0
    8.8237  -15.5699   25.2258 C   0  0  1  0  0  0  0  0  0  0  0  0
    8.4646  -14.5083   26.2537 C   0  0  0  0  0  0  0  0  0  0  0  0
    9.3205  -14.6240   27.4622 C   0  0  0  0  0  0  0  0  0  0  0  0
   10.3294  -15.5170   27.7247 C   0  0  0  0  0  0  0  0  0  0  0  0
   10.8158  -15.2336   28.9472 N   0  0  0  0  0  0  0  0  0  0  0  0
   10.1529  -14.1946   29.4690 C   0  0  0  0  0  0  0  0  0  0  0  0
    9.2434  -13.8257   28.5627 N   0  0  0  0  0  0  0  0  0  0  0  0
    8.7856  -16.9275   25.8216 C   0  0  0  0  0  0  0  0  0  0  0  0
    9.9345  -17.5754   26.2500 O   0  0  0  0  0  0  0  0  0  0  0  0
    7.6998  -17.5657   25.9699 O   0  0  0  0  0  0  0  0  0  0  0  0
  2  1  1  6
  2  3  1  0
  4  6  1  0
  4  2  1  0
  4  5  1  1
  6  7  2  0
  9  8  1  1
  9 10  1  0
 11  9  1  0
 12  6  1  0
 11 12  1  6
 13 11  1  0
 14 13  2  0
 15 13  1  0
 16 15  1  0
 16 17  1  1
 17 18  1  0
 18 22  1  0
 19 18  2  0
 19 20  1  0
 20 21  1  0
 22 21  2  0
 23 16  1  0
 23 24  1  0
 25 23  2  0
M  END
$$$$
