TVH.pdb
     RDKit          3D

 25 25  0  0  1  0  0  0  0  0999 V2000
    5.8118  -19.9043   17.9229 C   0  0  0  0  0  0  0  0  0  0  0  0
    6.6399  -18.9815   18.7862 C   0  0  1  0  0  0  0  0  0  0  0  0
    7.5407  -19.6859   19.5702 O   0  0  0  0  0  0  0  0  0  0  0  0
    7.2562  -17.8589   18.0288 C   0  0  2  0  0  0  0  0  0  0  0  0
    8.1114  -18.4164   16.9901 N   0  0  0  0  0  0  0  0  0  0  0  0
    7.9639  -16.8629   18.8454 C   0  0  0  0  0  0  0  0  0  0  0  0
    9.2260  -16.9286   19.0188 O   0  0  0  0  0  0  0  0  0  0  0  0
    8.2014  -12.5240   21.1704 C   0  0  0  0  0  0  0  0  0  0  0  0
    7.3475  -13.4774   20.3616 C   0  0  1  0  0  0  0  0  0  0  0  0
    7.1435  -12.8446   19.0029 C   0  0  0  0  0  0  0  0  0  0  0  0
    8.0213  -14.8098   20.2935 C   0  0  2  0  0  0  0  0  0  0  0  0
    7.3288  -15.7782   19.4896 N   0  0  0  0  0  0  0  0  0  0  0  0
    8.2369  -15.2848   21.6901 C   0  0  0  0  0  0  0  0  0  0  0  0
    7.2842  -15.6195   22.4405 O   0  0  0  0  0  0  0  0  0  0  0  0
    9.5521  -15.3840   22.2505 N   0  0  0  0  0  0  0  0  0  0  0  0
    9.8137  -16.2056   23.4274 C   0  0  1  0  0  0  0  0  0  0  0  0
    9.6142  -17.6607   23.0332 C   0  0  0  0  0  0  0  0  0  0  0  0
    8.2417  -18.1209   23.3663 C   0  0  0  0  0  0  0  0  0  0  0  0
    7.2590  -17.4705   24.0701 C   0  0  0  0  0  0  0  0  0  0  0  0
    6.1863  -18.2821   24.1157 N   0  0  0  0  0  0  0  0  0  0  0  0
    6.4526  -19.4222   23.4672 C   0  0  0  0  0  0  0  0  0  0  0  0
    7.7045  -19.3210   23.0122 N   0  0  0  0  0  0  0  0  0  0  0  0
   11.1866  -15.9719   23.9373 C   0  0  0  0  0  0  0  0  0  0  0  0
   12.2381  -15.6429   23.0951 O   0  0  0  0  0  0  0  0  0  0  0  0
   11.4694  -16.0612   25.1703 O   0  0  0  0  0  0  0  0  0  0  0  0
  2  1  1  6
  2  3  1  0
  4  6  1  0
  4  2  1  0
  4  5  1  6
  6  7  2  0
  9  8  1  1
  9 10  1  0
 11  9  1  0
 12  6  1  0
 11 12  1  6
 13 11  1  0
 14 13  2  0
 15 13  1  0
 16 15  1  0
 16 17  1  6
 17 18  1  0
 18 22  1  0
 19 18  2  0
 19 20  1  0
 20 21  1  0
 22 21  2  0
 23 16  1  0
 23 24  1  0
 25 23  2  0
M  END
$$$$
