TVH.pdb
     RDKit          3D

 25 25  0  0  1  0  0  0  0  0999 V2000
    7.1541  -19.0495   20.7542 C   0  0  0  0  0  0  0  0  0  0  0  0
    8.0985  -19.2413   19.5906 C   0  0  1  0  0  0  0  0  0  0  0  0
    7.7669  -20.3599   18.8417 O   0  0  0  0  0  0  0  0  0  0  0  0
    8.2894  -18.0110   18.7759 C   0  0  2  0  0  0  0  0  0  0  0  0
    9.1414  -18.3362   17.6403 N   0  0  0  0  0  0  0  0  0  0  0  0
    8.7820  -16.8388   19.5128 C   0  0  0  0  0  0  0  0  0  0  0  0
    9.9934  -16.7680   19.9058 O   0  0  0  0  0  0  0  0  0  0  0  0
    8.2215  -12.3271   21.4526 C   0  0  0  0  0  0  0  0  0  0  0  0
    7.6603  -13.3785   20.5188 C   0  0  1  0  0  0  0  0  0  0  0  0
    7.7660  -12.8253   19.1149 C   0  0  0  0  0  0  0  0  0  0  0  0
    8.4115  -14.6573   20.7040 C   0  0  2  0  0  0  0  0  0  0  0  0
    7.9822  -15.7215   19.8400 N   0  0  0  0  0  0  0  0  0  0  0  0
    8.3294  -15.0309   22.1449 C   0  0  0  0  0  0  0  0  0  0  0  0
    7.2886  -15.5217   22.6535 O   0  0  0  0  0  0  0  0  0  0  0  0
    9.4425  -14.8474   23.0286 N   0  0  0  0  0  0  0  0  0  0  0  0
    9.3885  -15.2924   24.4170 C   0  0  1  0  0  0  0  0  0  0  0  0
    7.9311  -15.5489   24.7674 C   0  0  0  0  0  0  0  0  0  0  0  0
    7.3230  -14.3633   25.4239 C   0  0  0  0  0  0  0  0  0  0  0  0
    7.8972  -13.1541   25.7277 C   0  0  0  0  0  0  0  0  0  0  0  0
    6.9564  -12.3936   26.3174 N   0  0  0  0  0  0  0  0  0  0  0  0
    5.8076  -13.0756   26.3985 C   0  0  0  0  0  0  0  0  0  0  0  0
    6.0340  -14.2742   25.8538 N   0  0  0  0  0  0  0  0  0  0  0  0
   10.2089  -16.5127   24.6104 C   0  0  0  0  0  0  0  0  0  0  0  0
   10.8957  -16.7582   25.7899 O   0  0  0  0  0  0  0  0  0  0  0  0
   10.3244  -17.3946   23.7064 O   0  0  0  0  0  0  0  0  0  0  0  0
  2  1  1  1
  2  3  1  0
  4  6  1  0
  4  2  1  0
  4  5  1  6
  6  7  2  0
  9  8  1  1
  9 10  1  0
 11  9  1  0
 12  6  1  0
 11 12  1  6
 13 11  1  0
 14 13  2  0
 15 13  1  0
 16 15  1  0
 16 17  1  6
 17 18  1  0
 18 22  1  0
 19 18  2  0
 19 20  1  0
 20 21  1  0
 22 21  2  0
 23 16  1  0
 23 24  1  0
 25 23  2  0
M  END
$$$$
