TVH.pdb
     RDKit          3D

 25 25  0  0  1  0  0  0  0  0999 V2000
    6.5176  -16.1452   21.1597 C   0  0  0  0  0  0  0  0  0  0  0  0
    7.3845  -15.1554   20.4170 C   0  0  1  0  0  0  0  0  0  0  0  0
    7.1457  -15.1899   19.0518 O   0  0  0  0  0  0  0  0  0  0  0  0
    7.3464  -13.7855   20.9965 C   0  0  2  0  0  0  0  0  0  0  0  0
    8.0240  -12.8774   20.0814 N   0  0  0  0  0  0  0  0  0  0  0  0
    7.8623  -13.6680   22.3676 C   0  0  0  0  0  0  0  0  0  0  0  0
    9.1143  -13.5820   22.5961 O   0  0  0  0  0  0  0  0  0  0  0  0
    7.2697  -13.1321   27.2417 C   0  0  0  0  0  0  0  0  0  0  0  0
    6.6146  -13.0906   25.8774 C   0  0  1  0  0  0  0  0  0  0  0  0
    6.2504  -11.6479   25.6052 C   0  0  0  0  0  0  0  0  0  0  0  0
    7.5501  -13.6616   24.8611 C   0  0  2  0  0  0  0  0  0  0  0  0
    7.0426  -13.6401   23.5175 N   0  0  0  0  0  0  0  0  0  0  0  0
    7.9214  -15.0360   25.3032 C   0  0  0  0  0  0  0  0  0  0  0  0
    7.0788  -15.9668   25.3829 O   0  0  0  0  0  0  0  0  0  0  0  0
    9.2689  -15.3666   25.6621 N   0  0  0  0  0  0  0  0  0  0  0  0
    9.6345  -16.7197   26.0671 C   0  0  1  0  0  0  0  0  0  0  0  0
   11.0461  -16.9892   25.5700 C   0  0  0  0  0  0  0  0  0  0  0  0
   11.0798  -17.0948   24.0887 C   0  0  0  0  0  0  0  0  0  0  0  0
   10.0414  -17.0271   23.1936 C   0  0  0  0  0  0  0  0  0  0  0  0
   10.5576  -17.1757   21.9596 N   0  0  0  0  0  0  0  0  0  0  0  0
   11.8841  -17.3349   22.0394 C   0  0  0  0  0  0  0  0  0  0  0  0
   12.1989  -17.2852   23.3367 N   0  0  0  0  0  0  0  0  0  0  0  0
    9.5472  -16.8695   27.5400 C   0  0  0  0  0  0  0  0  0  0  0  0
    9.5606  -18.1123   28.1552 O   0  0  0  0  0  0  0  0  0  0  0  0
    9.4559  -15.8681   28.3127 O   0  0  0  0  0  0  0  0  0  0  0  0
  2  1  1  1
  2  3  1  0
  4  6  1  0
  4  2  1  0
  4  5  1  6
  6  7  2  0
  9  8  1  1
  9 10  1  0
 11  9  1  0
 12  6  1  0
 11 12  1  6
 13 11  1  0
 14 13  2  0
 15 13  1  0
 16 15  1  0
 16 17  1  1
 17 18  1  0
 18 22  1  0
 19 18  2  0
 19 20  1  0
 20 21  1  0
 22 21  2  0
 23 16  1  0
 23 24  1  0
 25 23  2  0
M  END
$$$$
