WSY.pdb
     RDKit          3D

 33 35  0  0  1  0  0  0  0  0999 V2000
    7.1162  -17.6856   25.3423 N   0  0  0  0  0  0  0  0  0  0  0  0
    7.6520  -16.8536   24.3276 C   0  0  1  0  0  0  0  0  0  0  0  0
    8.2161  -15.5368   24.7788 C   0  0  0  0  0  0  0  0  0  0  0  0
    7.2252  -14.6216   25.3835 C   0  0  0  0  0  0  0  0  0  0  0  0
    6.2309  -14.9364   26.3020 C   0  0  0  0  0  0  0  0  0  0  0  0
    5.5696  -13.8288   26.6053 N   0  0  0  0  0  0  0  0  0  0  0  0
    6.0706  -12.7692   25.9314 C   0  0  0  0  0  0  0  0  0  0  0  0
    5.6788  -11.4382   25.9463 C   0  0  0  0  0  0  0  0  0  0  0  0
    6.3903  -10.5834   25.1330 C   0  0  0  0  0  0  0  0  0  0  0  0
    7.4314  -11.0469   24.3548 C   0  0  0  0  0  0  0  0  0  0  0  0
    7.8015  -12.3718   24.3572 C   0  0  0  0  0  0  0  0  0  0  0  0
    7.1064  -13.2587   25.1652 C   0  0  0  0  0  0  0  0  0  0  0  0
    8.7487  -17.5427   23.5565 C   0  0  0  0  0  0  0  0  0  0  0  0
    9.3281  -18.5444   24.0461 O   0  0  0  0  0  0  0  0  0  0  0  0
    9.7597  -15.7884   20.1778 O   0  0  0  0  0  0  0  0  0  0  0  0
   10.3252  -17.0675   20.1932 C   0  0  0  0  0  0  0  0  0  0  0  0
   10.3709  -17.5785   21.6345 C   0  0  2  0  0  0  0  0  0  0  0  0
    9.1581  -17.0928   22.2728 N   0  0  0  0  0  0  0  0  0  0  0  0
   11.5566  -16.9840   22.3028 C   0  0  0  0  0  0  0  0  0  0  0  0
   12.0311  -15.8974   21.8886 O   0  0  0  0  0  0  0  0  0  0  0  0
    9.4523  -16.9618   29.2191 O   0  0  0  0  0  0  0  0  0  0  0  0
   10.2297  -16.6188   28.1212 C   0  0  0  0  0  0  0  0  0  0  0  0
   11.1936  -17.4966   27.6755 C   0  0  0  0  0  0  0  0  0  0  0  0
   11.9637  -17.1385   26.5749 C   0  0  0  0  0  0  0  0  0  0  0  0
   11.7883  -15.9355   25.9228 C   0  0  0  0  0  0  0  0  0  0  0  0
   12.6544  -15.6180   24.7697 C   0  0  0  0  0  0  0  0  0  0  0  0
   13.2052  -16.8763   24.1768 C   0  0  2  0  0  0  0  0  0  0  0  0
   12.1950  -17.5958   23.4109 N   0  0  0  0  0  0  0  0  0  0  0  0
   13.7865  -17.8091   25.1576 C   0  0  0  0  0  0  0  0  0  0  0  0
   13.3497  -19.0038   25.2094 O   0  0  0  0  0  0  0  0  0  0  0  0
   10.8163  -15.0816   26.3945 C   0  0  0  0  0  0  0  0  0  0  0  0
   10.0378  -15.4122   27.4850 C   0  0  0  0  0  0  0  0  0  0  0  0
   14.7907  -17.5135   26.0561 O   0  0  0  0  0  0  0  0  0  0  0  0
  2  1  1  1
  2 13  1  0
  2  3  1  0
  4  5  2  0
  4  3  1  0
  6  5  1  0
  7 12  2  0
  7  6  1  0
  8  7  1  0
  9 10  1  0
  9  8  2  0
 10 11  2  0
 11 12  1  0
 12  4  1  0
 13 14  2  0
 16 15  1  0
 17 16  1  6
 18 17  1  0
 18 13  1  0
 19 20  2  0
 19 17  1  0
 21 22  1  0
 22 23  2  0
 23 24  1  0
 25 26  1  0
 25 24  2  0
 27 26  1  1
 27 28  1  0
 28 19  1  0
 29 27  1  0
 29 33  1  0
 30 29  2  0
 31 25  1  0
 32 31  2  0
 32 22  1  0
M  END
$$$$
