WSY.pdb
     RDKit          3D

 33 35  0  0  1  0  0  0  0  0999 V2000
    5.8897  -17.4001   23.5572 N   0  0  0  0  0  0  0  0  0  0  0  0
    6.7841  -16.7109   22.7006 C   0  0  1  0  0  0  0  0  0  0  0  0
    7.1062  -15.2938   23.0797 C   0  0  0  0  0  0  0  0  0  0  0  0
    6.8087  -14.9542   24.4873 C   0  0  0  0  0  0  0  0  0  0  0  0
    6.3196  -15.7979   25.4773 C   0  0  0  0  0  0  0  0  0  0  0  0
    6.2097  -15.1086   26.6038 N   0  0  0  0  0  0  0  0  0  0  0  0
    6.6033  -13.8276   26.4246 C   0  0  0  0  0  0  0  0  0  0  0  0
    6.6451  -12.7744   27.3269 C   0  0  0  0  0  0  0  0  0  0  0  0
    7.0939  -11.5677   26.8361 C   0  0  0  0  0  0  0  0  0  0  0  0
    7.4755  -11.4363   25.5165 C   0  0  0  0  0  0  0  0  0  0  0  0
    7.4253  -12.4958   24.6406 C   0  0  0  0  0  0  0  0  0  0  0  0
    6.9789  -13.7246   25.1025 C   0  0  0  0  0  0  0  0  0  0  0  0
    8.1047  -17.4264   22.5735 C   0  0  0  0  0  0  0  0  0  0  0  0
    8.1315  -18.6650   22.3636 O   0  0  0  0  0  0  0  0  0  0  0  0
   10.3466  -16.3574   20.1150 O   0  0  0  0  0  0  0  0  0  0  0  0
   10.4843  -17.5858   20.7692 C   0  0  0  0  0  0  0  0  0  0  0  0
   10.6009  -17.3421   22.2751 C   0  0  2  0  0  0  0  0  0  0  0  0
    9.3427  -16.7387   22.6841 N   0  0  0  0  0  0  0  0  0  0  0  0
   11.7108  -16.3830   22.5078 C   0  0  0  0  0  0  0  0  0  0  0  0
   11.5682  -15.1727   22.2041 O   0  0  0  0  0  0  0  0  0  0  0  0
    9.8561  -13.9630   29.0713 O   0  0  0  0  0  0  0  0  0  0  0  0
   10.5904  -14.7555   28.1995 C   0  0  0  0  0  0  0  0  0  0  0  0
   10.4556  -14.5690   26.8411 C   0  0  0  0  0  0  0  0  0  0  0  0
   11.1978  -15.3705   25.9812 C   0  0  0  0  0  0  0  0  0  0  0  0
   12.0595  -16.3404   26.4504 C   0  0  0  0  0  0  0  0  0  0  0  0
   12.8035  -17.1634   25.4760 C   0  0  0  0  0  0  0  0  0  0  0  0
   13.3554  -16.2992   24.3865 C   0  0  2  0  0  0  0  0  0  0  0  0
   12.9527  -16.7742   23.0686 N   0  0  0  0  0  0  0  0  0  0  0  0
   14.8226  -16.1673   24.3969 C   0  0  0  0  0  0  0  0  0  0  0  0
   15.3827  -15.5657   25.3692 O   0  0  0  0  0  0  0  0  0  0  0  0
   12.1701  -16.5003   27.8138 C   0  0  0  0  0  0  0  0  0  0  0  0
   11.4450  -15.7182   28.6897 C   0  0  0  0  0  0  0  0  0  0  0  0
   15.6830  -16.6451   23.4304 O   0  0  0  0  0  0  0  0  0  0  0  0
  2  1  1  1
  2 13  1  0
  2  3  1  0
  4  5  2  0
  4  3  1  0
  6  5  1  0
  7 12  2  0
  7  6  1  0
  8  7  1  0
  9 10  1  0
  9  8  2  0
 10 11  2  0
 11 12  1  0
 12  4  1  0
 13 14  2  0
 16 15  1  0
 17 16  1  6
 18 17  1  0
 18 13  1  0
 19 20  2  0
 19 17  1  0
 21 22  1  0
 22 23  2  0
 23 24  1  0
 25 26  1  0
 25 24  2  0
 27 26  1  1
 27 28  1  0
 28 19  1  0
 29 27  1  0
 29 33  1  0
 30 29  2  0
 31 25  1  0
 32 31  2  0
 32 22  1  0
M  END
$$$$
