WSY.pdb
     RDKit          3D

 33 35  0  0  1  0  0  0  0  0999 V2000
    6.3601  -17.9656   24.3889 N   0  0  0  0  0  0  0  0  0  0  0  0
    7.2575  -16.9203   24.0561 C   0  0  1  0  0  0  0  0  0  0  0  0
    7.8417  -16.1555   25.2091 C   0  0  0  0  0  0  0  0  0  0  0  0
    7.0053  -15.0337   25.6859 C   0  0  0  0  0  0  0  0  0  0  0  0
    5.9129  -15.0957   26.5427 C   0  0  0  0  0  0  0  0  0  0  0  0
    5.4551  -13.8668   26.7335 N   0  0  0  0  0  0  0  0  0  0  0  0
    6.1896  -12.9667   26.0419 C   0  0  0  0  0  0  0  0  0  0  0  0
    6.0564  -11.5884   25.9536 C   0  0  0  0  0  0  0  0  0  0  0  0
    6.9672  -10.9375   25.1503 C   0  0  0  0  0  0  0  0  0  0  0  0
    7.9493  -11.6376   24.4797 C   0  0  0  0  0  0  0  0  0  0  0  0
    8.0612  -13.0047   24.5833 C   0  0  0  0  0  0  0  0  0  0  0  0
    7.1607  -13.6905   25.3842 C   0  0  0  0  0  0  0  0  0  0  0  0
    8.4248  -17.4189   23.2432 C   0  0  0  0  0  0  0  0  0  0  0  0
    8.8395  -18.5954   23.3938 O   0  0  0  0  0  0  0  0  0  0  0  0
    9.1419  -15.4295   20.0429 O   0  0  0  0  0  0  0  0  0  0  0  0
    9.7521  -16.6875   20.0077 C   0  0  0  0  0  0  0  0  0  0  0  0
   10.1385  -17.0977   21.4301 C   0  0  2  0  0  0  0  0  0  0  0  0
    9.0850  -16.5920   22.2954 N   0  0  0  0  0  0  0  0  0  0  0  0
   11.4236  -16.4368   21.7733 C   0  0  0  0  0  0  0  0  0  0  0  0
   12.4877  -16.8087   21.2197 O   0  0  0  0  0  0  0  0  0  0  0  0
   11.5004  -16.1106   30.4110 O   0  0  0  0  0  0  0  0  0  0  0  0
   11.2507  -16.0731   29.0459 C   0  0  0  0  0  0  0  0  0  0  0  0
   11.3959  -17.2230   28.3010 C   0  0  0  0  0  0  0  0  0  0  0  0
   11.1420  -17.1691   26.9353 C   0  0  0  0  0  0  0  0  0  0  0  0
   10.7511  -16.0021   26.3119 C   0  0  0  0  0  0  0  0  0  0  0  0
   10.5138  -16.0185   24.8545 C   0  0  0  0  0  0  0  0  0  0  0  0
   11.7701  -15.6641   24.1237 C   0  0  2  0  0  0  0  0  0  0  0  0
   11.5116  -15.3825   22.7170 N   0  0  0  0  0  0  0  0  0  0  0  0
   12.8285  -16.6859   24.1990 C   0  0  0  0  0  0  0  0  0  0  0  0
   13.8271  -16.4870   24.9632 O   0  0  0  0  0  0  0  0  0  0  0  0
   10.6158  -14.8712   27.0861 C   0  0  0  0  0  0  0  0  0  0  0  0
   10.8615  -14.8969   28.4438 C   0  0  0  0  0  0  0  0  0  0  0  0
   12.8508  -17.8778   23.5049 O   0  0  0  0  0  0  0  0  0  0  0  0
  2  1  1  1
  2 13  1  0
  2  3  1  0
  4  5  2  0
  4  3  1  0
  6  5  1  0
  7 12  2  0
  7  6  1  0
  8  7  1  0
  9 10  1  0
  9  8  2  0
 10 11  2  0
 11 12  1  0
 12  4  1  0
 13 14  2  0
 16 15  1  0
 17 16  1  6
 18 17  1  0
 18 13  1  0
 19 20  2  0
 19 17  1  0
 21 22  1  0
 22 23  2  0
 23 24  1  0
 25 26  1  0
 25 24  2  0
 27 26  1  6
 27 28  1  0
 28 19  1  0
 29 27  1  0
 29 33  1  0
 30 29  2  0
 31 25  1  0
 32 31  2  0
 32 22  1  0
M  END
$$$$
