WSY.pdb
     RDKit          3D

 33 35  0  0  1  0  0  0  0  0999 V2000
    6.7838  -19.0061   20.6852 N   0  0  0  0  0  0  0  0  0  0  0  0
    7.2817  -17.8581   21.3508 C   0  0  1  0  0  0  0  0  0  0  0  0
    6.3780  -16.6587   21.3705 C   0  0  0  0  0  0  0  0  0  0  0  0
    6.8161  -15.5481   20.4988 C   0  0  0  0  0  0  0  0  0  0  0  0
    6.7726  -15.4925   19.1109 C   0  0  0  0  0  0  0  0  0  0  0  0
    7.2417  -14.3164   18.7201 N   0  0  0  0  0  0  0  0  0  0  0  0
    7.6047  -13.5653   19.7840 C   0  0  0  0  0  0  0  0  0  0  0  0
    8.1430  -12.2873   19.8296 C   0  0  0  0  0  0  0  0  0  0  0  0
    8.4185  -11.7854   21.0829 C   0  0  0  0  0  0  0  0  0  0  0  0
    8.1653  -12.5302   22.2167 C   0  0  0  0  0  0  0  0  0  0  0  0
    7.6308  -13.7957   22.1458 C   0  0  0  0  0  0  0  0  0  0  0  0
    7.3412  -14.3304   20.8997 C   0  0  0  0  0  0  0  0  0  0  0  0
    7.6315  -18.1490   22.7879 C   0  0  0  0  0  0  0  0  0  0  0  0
    6.8547  -18.8357   23.4978 O   0  0  0  0  0  0  0  0  0  0  0  0
   10.8623  -19.2683   23.7890 O   0  0  0  0  0  0  0  0  0  0  0  0
    9.8970  -19.2563   24.8010 C   0  0  0  0  0  0  0  0  0  0  0  0
    9.1579  -17.9170   24.7736 C   0  0  2  0  0  0  0  0  0  0  0  0
    8.8295  -17.6666   23.3795 N   0  0  0  0  0  0  0  0  0  0  0  0
   10.0834  -16.8635   25.2632 C   0  0  0  0  0  0  0  0  0  0  0  0
   11.0951  -16.5535   24.5867 O   0  0  0  0  0  0  0  0  0  0  0  0
    5.2648  -13.1036   25.2532 O   0  0  0  0  0  0  0  0  0  0  0  0
    6.5481  -13.3221   25.7357 C   0  0  0  0  0  0  0  0  0  0  0  0
    7.0550  -12.4881   26.7081 C   0  0  0  0  0  0  0  0  0  0  0  0
    8.3415  -12.7201   27.1810 C   0  0  0  0  0  0  0  0  0  0  0  0
    9.1174  -13.7566   26.7046 C   0  0  0  0  0  0  0  0  0  0  0  0
   10.4807  -13.9317   27.2445 C   0  0  0  0  0  0  0  0  0  0  0  0
   10.9315  -15.3459   27.0573 C   0  0  2  0  0  0  0  0  0  0  0  0
    9.8774  -16.1740   26.4847 N   0  0  0  0  0  0  0  0  0  0  0  0
   11.4114  -16.0008   28.2864 C   0  0  0  0  0  0  0  0  0  0  0  0
   10.7963  -17.0273   28.7210 O   0  0  0  0  0  0  0  0  0  0  0  0
    8.5800  -14.5710   25.7327 C   0  0  0  0  0  0  0  0  0  0  0  0
    7.3056  -14.3631   25.2458 C   0  0  0  0  0  0  0  0  0  0  0  0
   12.4961  -15.6053   29.0413 O   0  0  0  0  0  0  0  0  0  0  0  0
  2  1  1  1
  2 13  1  0
  2  3  1  0
  4  5  2  0
  4  3  1  0
  6  5  1  0
  7 12  2  0
  7  6  1  0
  8  7  1  0
  9 10  1  0
  9  8  2  0
 10 11  2  0
 11 12  1  0
 12  4  1  0
 13 14  2  0
 16 15  1  0
 17 16  1  6
 18 17  1  0
 18 13  1  0
 19 20  2  0
 19 17  1  0
 21 22  1  0
 22 23  2  0
 23 24  1  0
 25 26  1  0
 25 24  2  0
 27 26  1  1
 27 28  1  0
 28 19  1  0
 29 27  1  0
 29 33  1  0
 30 29  2  0
 31 25  1  0
 32 31  2  0
 32 22  1  0
M  END
$$$$
