WSY.pdb
     RDKit          3D

 33 35  0  0  1  0  0  0  0  0999 V2000
    8.6807  -17.9339   20.8907 N   0  0  0  0  0  0  0  0  0  0  0  0
    8.9850  -17.0977   21.9938 C   0  0  1  0  0  0  0  0  0  0  0  0
    7.8438  -16.2987   22.5551 C   0  0  0  0  0  0  0  0  0  0  0  0
    7.1360  -15.4625   21.5628 C   0  0  0  0  0  0  0  0  0  0  0  0
    5.9248  -15.7323   20.9370 C   0  0  0  0  0  0  0  0  0  0  0  0
    5.6305  -14.7217   20.1320 N   0  0  0  0  0  0  0  0  0  0  0  0
    6.5911  -13.7715   20.1813 C   0  0  0  0  0  0  0  0  0  0  0  0
    6.6854  -12.5646   19.5033 C   0  0  0  0  0  0  0  0  0  0  0  0
    7.8049  -11.8045   19.7630 C   0  0  0  0  0  0  0  0  0  0  0  0
    8.7668  -12.2391   20.6519 C   0  0  0  0  0  0  0  0  0  0  0  0
    8.6508  -13.4401   21.3125 C   0  0  0  0  0  0  0  0  0  0  0  0
    7.5358  -14.2292   21.0743 C   0  0  0  0  0  0  0  0  0  0  0  0
    9.5645  -17.8768   23.1468 C   0  0  0  0  0  0  0  0  0  0  0  0
    9.7843  -19.1081   23.0268 O   0  0  0  0  0  0  0  0  0  0  0  0
   13.4841  -17.4124   24.6316 O   0  0  0  0  0  0  0  0  0  0  0  0
   12.2371  -17.0989   24.0814 C   0  0  0  0  0  0  0  0  0  0  0  0
   11.1387  -17.4929   25.0708 C   0  0  2  0  0  0  0  0  0  0  0  0
    9.8772  -17.2581   24.3868 N   0  0  0  0  0  0  0  0  0  0  0  0
   11.2355  -16.6011   26.2546 C   0  0  0  0  0  0  0  0  0  0  0  0
   12.1935  -15.7954   26.3564 O   0  0  0  0  0  0  0  0  0  0  0  0
    7.0690  -12.8481   24.0545 O   0  0  0  0  0  0  0  0  0  0  0  0
    7.5887  -13.3884   25.2230 C   0  0  0  0  0  0  0  0  0  0  0  0
    8.5404  -12.6842   25.9277 C   0  0  0  0  0  0  0  0  0  0  0  0
    9.0509  -13.2388   27.0958 C   0  0  0  0  0  0  0  0  0  0  0  0
    8.6316  -14.4672   27.5635 C   0  0  0  0  0  0  0  0  0  0  0  0
    9.2305  -14.9987   28.8042 C   0  0  0  0  0  0  0  0  0  0  0  0
   10.4620  -15.7861   28.4859 C   0  0  2  0  0  0  0  0  0  0  0  0
   10.2784  -16.6141   27.3003 N   0  0  0  0  0  0  0  0  0  0  0  0
   10.9321  -16.6524   29.5808 C   0  0  0  0  0  0  0  0  0  0  0  0
   11.1980  -16.1310   30.7114 O   0  0  0  0  0  0  0  0  0  0  0  0
    7.6793  -15.1443   26.8346 C   0  0  0  0  0  0  0  0  0  0  0  0
    7.1559  -14.6167   25.6718 C   0  0  0  0  0  0  0  0  0  0  0  0
   11.1193  -18.0170   29.5069 O   0  0  0  0  0  0  0  0  0  0  0  0
  2  1  1  6
  2 13  1  0
  2  3  1  0
  4  5  2  0
  4  3  1  0
  6  5  1  0
  7 12  2  0
  7  6  1  0
  8  7  1  0
  9 10  1  0
  9  8  2  0
 10 11  2  0
 11 12  1  0
 12  4  1  0
 13 14  2  0
 16 15  1  0
 17 16  1  6
 18 17  1  0
 18 13  1  0
 19 20  2  0
 19 17  1  0
 21 22  1  0
 22 23  2  0
 23 24  1  0
 25 26  1  0
 25 24  2  0
 27 26  1  1
 27 28  1  0
 28 19  1  0
 29 27  1  0
 29 33  1  0
 30 29  2  0
 31 25  1  0
 32 31  2  0
 32 22  1  0
M  END
$$$$
