WSY.pdb
     RDKit          3D

 33 35  0  0  1  0  0  0  0  0999 V2000
   10.7520  -15.6395   15.0740 N   0  0  0  0  0  0  0  0  0  0  0  0
   10.9450  -15.4348   16.4631 C   0  0  1  0  0  0  0  0  0  0  0  0
    9.8263  -15.8800   17.3609 C   0  0  0  0  0  0  0  0  0  0  0  0
    8.8875  -14.8056   17.7475 C   0  0  0  0  0  0  0  0  0  0  0  0
    7.8234  -14.3035   17.0080 C   0  0  0  0  0  0  0  0  0  0  0  0
    7.2217  -13.3611   17.7194 N   0  0  0  0  0  0  0  0  0  0  0  0
    7.8310  -13.1978   18.9152 C   0  0  0  0  0  0  0  0  0  0  0  0
    7.5358  -12.3258   19.9533 C   0  0  0  0  0  0  0  0  0  0  0  0
    8.3567  -12.3920   21.0580 C   0  0  0  0  0  0  0  0  0  0  0  0
    9.4086  -13.2837   21.1078 C   0  0  0  0  0  0  0  0  0  0  0  0
    9.6813  -14.1388   20.0653 C   0  0  0  0  0  0  0  0  0  0  0  0
    8.8741  -14.0984   18.9388 C   0  0  0  0  0  0  0  0  0  0  0  0
   12.1899  -16.1209   16.9649 C   0  0  0  0  0  0  0  0  0  0  0  0
   12.5843  -17.1837   16.4228 O   0  0  0  0  0  0  0  0  0  0  0  0
   15.2252  -14.1789   18.0921 O   0  0  0  0  0  0  0  0  0  0  0  0
   15.3249  -15.5559   17.8683 C   0  0  0  0  0  0  0  0  0  0  0  0
   14.1452  -16.2604   18.5410 C   0  0  2  0  0  0  0  0  0  0  0  0
   12.9473  -15.6000   18.0479 N   0  0  0  0  0  0  0  0  0  0  0  0
   14.2561  -16.0579   20.0082 C   0  0  0  0  0  0  0  0  0  0  0  0
   13.7694  -15.0284   20.5380 O   0  0  0  0  0  0  0  0  0  0  0  0
   13.8064  -22.9577   21.3858 O   0  0  0  0  0  0  0  0  0  0  0  0
   13.7928  -21.6208   21.7598 C   0  0  0  0  0  0  0  0  0  0  0  0
   14.5570  -21.2113   22.8306 C   0  0  0  0  0  0  0  0  0  0  0  0
   14.5327  -19.8693   23.1925 C   0  0  0  0  0  0  0  0  0  0  0  0
   13.7686  -18.9443   22.5115 C   0  0  0  0  0  0  0  0  0  0  0  0
   13.7820  -17.5386   22.9636 C   0  0  0  0  0  0  0  0  0  0  0  0
   14.9021  -16.7964   22.3057 C   0  0  2  0  0  0  0  0  0  0  0  0
   14.8990  -16.9902   20.8610 N   0  0  0  0  0  0  0  0  0  0  0  0
   16.2421  -17.1414   22.8110 C   0  0  0  0  0  0  0  0  0  0  0  0
   16.4849  -17.0182   24.0547 O   0  0  0  0  0  0  0  0  0  0  0  0
   13.0165  -19.3875   21.4463 C   0  0  0  0  0  0  0  0  0  0  0  0
   13.0224  -20.7141   21.0658 C   0  0  0  0  0  0  0  0  0  0  0  0
   17.2977  -17.6012   22.0513 O   0  0  0  0  0  0  0  0  0  0  0  0
  2  1  1  6
  2 13  1  0
  2  3  1  0
  4  5  2  0
  4  3  1  0
  6  5  1  0
  7 12  2  0
  7  6  1  0
  8  7  1  0
  9 10  1  0
  9  8  2  0
 10 11  2  0
 11 12  1  0
 12  4  1  0
 13 14  2  0
 16 15  1  0
 17 16  1  6
 18 17  1  0
 18 13  1  0
 19 20  2  0
 19 17  1  0
 21 22  1  0
 22 23  2  0
 23 24  1  0
 25 26  1  0
 25 24  2  0
 27 26  1  1
 27 28  1  0
 28 19  1  0
 29 27  1  0
 29 33  1  0
 30 29  2  0
 31 25  1  0
 32 31  2  0
 32 22  1  0
M  END
$$$$
