WSY.pdb
     RDKit          3D

 33 35  0  0  1  0  0  0  0  0999 V2000
   12.5976  -15.3182   19.0452 N   0  0  0  0  0  0  0  0  0  0  0  0
   11.4817  -15.4274   19.9122 C   0  0  1  0  0  0  0  0  0  0  0  0
   10.3205  -16.2310   19.4008 C   0  0  0  0  0  0  0  0  0  0  0  0
    9.1784  -15.4219   18.9255 C   0  0  0  0  0  0  0  0  0  0  0  0
    8.0733  -15.8574   18.2041 C   0  0  0  0  0  0  0  0  0  0  0  0
    7.2720  -14.8232   17.9929 N   0  0  0  0  0  0  0  0  0  0  0  0
    7.7840  -13.6979   18.5402 C   0  0  0  0  0  0  0  0  0  0  0  0
    7.2818  -12.4046   18.5505 C   0  0  0  0  0  0  0  0  0  0  0  0
    8.0489  -11.4570   19.1925 C   0  0  0  0  0  0  0  0  0  0  0  0
    9.2474  -11.7976   19.7856 C   0  0  0  0  0  0  0  0  0  0  0  0
    9.7246  -13.0876   19.7622 C   0  0  0  0  0  0  0  0  0  0  0  0
    8.9767  -14.0657   19.1248 C   0  0  0  0  0  0  0  0  0  0  0  0
   11.8597  -16.0277   21.2422 C   0  0  0  0  0  0  0  0  0  0  0  0
   12.8478  -16.7994   21.3259 O   0  0  0  0  0  0  0  0  0  0  0  0
    9.3277  -15.6921   24.4314 O   0  0  0  0  0  0  0  0  0  0  0  0
   10.6762  -15.5133   24.7563 C   0  0  0  0  0  0  0  0  0  0  0  0
   11.5414  -16.2444   23.7279 C   0  0  2  0  0  0  0  0  0  0  0  0
   11.1263  -15.7473   22.4260 N   0  0  0  0  0  0  0  0  0  0  0  0
   11.2490  -17.6976   23.8212 C   0  0  0  0  0  0  0  0  0  0  0  0
   10.9216  -18.3390   22.7922 O   0  0  0  0  0  0  0  0  0  0  0  0
   15.3382  -21.5610   20.1071 O   0  0  0  0  0  0  0  0  0  0  0  0
   14.9427  -20.9472   21.2878 C   0  0  0  0  0  0  0  0  0  0  0  0
   13.6996  -20.3574   21.3588 C   0  0  0  0  0  0  0  0  0  0  0  0
   13.3183  -19.7470   22.5482 C   0  0  0  0  0  0  0  0  0  0  0  0
   14.1470  -19.7173   23.6508 C   0  0  0  0  0  0  0  0  0  0  0  0
   13.6789  -19.0372   24.8750 C   0  0  0  0  0  0  0  0  0  0  0  0
   12.2936  -19.4870   25.2169 C   0  0  2  0  0  0  0  0  0  0  0  0
   11.3224  -18.4141   25.0423 N   0  0  0  0  0  0  0  0  0  0  0  0
   12.1452  -20.0210   26.5818 C   0  0  0  0  0  0  0  0  0  0  0  0
   11.7525  -21.2221   26.7368 O   0  0  0  0  0  0  0  0  0  0  0  0
   15.3827  -20.3162   23.5454 C   0  0  0  0  0  0  0  0  0  0  0  0
   15.7862  -20.9292   22.3767 C   0  0  0  0  0  0  0  0  0  0  0  0
   12.3974  -19.3323   27.7501 O   0  0  0  0  0  0  0  0  0  0  0  0
  2  1  1  6
  2 13  1  0
  2  3  1  0
  4  5  2  0
  4  3  1  0
  6  5  1  0
  7 12  2  0
  7  6  1  0
  8  7  1  0
  9 10  1  0
  9  8  2  0
 10 11  2  0
 11 12  1  0
 12  4  1  0
 13 14  2  0
 16 15  1  0
 17 16  1  1
 18 17  1  0
 18 13  1  0
 19 20  2  0
 19 17  1  0
 21 22  1  0
 22 23  2  0
 23 24  1  0
 25 26  1  0
 25 24  2  0
 27 26  1  1
 27 28  1  0
 28 19  1  0
 29 27  1  0
 29 33  1  0
 30 29  2  0
 31 25  1  0
 32 31  2  0
 32 22  1  0
M  END
$$$$
