WSY.pdb
     RDKit          3D

 33 35  0  0  1  0  0  0  0  0999 V2000
    6.6639  -18.4702   25.4846 N   0  0  0  0  0  0  0  0  0  0  0  0
    6.9207  -17.5696   24.4208 C   0  0  1  0  0  0  0  0  0  0  0  0
    7.7136  -16.3421   24.7677 C   0  0  0  0  0  0  0  0  0  0  0  0
    6.9873  -15.3595   25.5997 C   0  0  0  0  0  0  0  0  0  0  0  0
    5.8697  -15.5838   26.3947 C   0  0  0  0  0  0  0  0  0  0  0  0
    5.5396  -14.4469   26.9902 N   0  0  0  0  0  0  0  0  0  0  0  0
    6.3855  -13.4539   26.6348 C   0  0  0  0  0  0  0  0  0  0  0  0
    6.4021  -12.1196   27.0149 C   0  0  0  0  0  0  0  0  0  0  0  0
    7.4001  -11.3419   26.4693 C   0  0  0  0  0  0  0  0  0  0  0  0
    8.3217  -11.8811   25.5951 C   0  0  0  0  0  0  0  0  0  0  0  0
    8.2847  -13.2077   25.2333 C   0  0  0  0  0  0  0  0  0  0  0  0
    7.2933  -14.0183   25.7648 C   0  0  0  0  0  0  0  0  0  0  0  0
    7.6494  -18.2371   23.2825 C   0  0  0  0  0  0  0  0  0  0  0  0
    8.5161  -19.1155   23.5193 O   0  0  0  0  0  0  0  0  0  0  0  0
    6.7045  -16.9389   19.6790 O   0  0  0  0  0  0  0  0  0  0  0  0
    7.4751  -18.0991   19.5518 C   0  0  0  0  0  0  0  0  0  0  0  0
    8.2621  -18.3230   20.8444 C   0  0  2  0  0  0  0  0  0  0  0  0
    7.3867  -17.9033   21.9269 N   0  0  0  0  0  0  0  0  0  0  0  0
    9.4662  -17.4540   20.8138 C   0  0  0  0  0  0  0  0  0  0  0  0
   10.3493  -17.6362   19.9396 O   0  0  0  0  0  0  0  0  0  0  0  0
    7.0974  -13.0034   17.2772 O   0  0  0  0  0  0  0  0  0  0  0  0
    7.9178  -13.2698   18.3651 C   0  0  0  0  0  0  0  0  0  0  0  0
    9.2762  -13.3943   18.1720 C   0  0  0  0  0  0  0  0  0  0  0  0
   10.0841  -13.6610   19.2715 C   0  0  0  0  0  0  0  0  0  0  0  0
    9.5637  -13.8030   20.5412 C   0  0  0  0  0  0  0  0  0  0  0  0
   10.4828  -14.1006   21.6580 C   0  0  0  0  0  0  0  0  0  0  0  0
   10.8515  -15.5505   21.6498 C   0  0  2  0  0  0  0  0  0  0  0  0
    9.6739  -16.4044   21.7439 N   0  0  0  0  0  0  0  0  0  0  0  0
   11.7907  -15.9470   22.7132 C   0  0  0  0  0  0  0  0  0  0  0  0
   12.9319  -15.3858   22.7716 O   0  0  0  0  0  0  0  0  0  0  0  0
    8.2018  -13.6727   20.6986 C   0  0  0  0  0  0  0  0  0  0  0  0
    7.3769  -13.4080   19.6244 C   0  0  0  0  0  0  0  0  0  0  0  0
   11.5540  -16.8948   23.6872 O   0  0  0  0  0  0  0  0  0  0  0  0
  2  1  1  1
  2 13  1  0
  2  3  1  0
  4  5  2  0
  4  3  1  0
  6  5  1  0
  7 12  2  0
  7  6  1  0
  8  7  1  0
  9 10  1  0
  9  8  2  0
 10 11  2  0
 11 12  1  0
 12  4  1  0
 13 14  2  0
 16 15  1  0
 17 16  1  6
 18 17  1  0
 18 13  1  0
 19 20  2  0
 19 17  1  0
 21 22  1  0
 22 23  2  0
 23 24  1  0
 25 26  1  0
 25 24  2  0
 27 26  1  1
 27 28  1  0
 28 19  1  0
 29 27  1  0
 29 33  1  0
 30 29  2  0
 31 25  1  0
 32 31  2  0
 32 22  1  0
M  END
$$$$
