WSY.pdb
     RDKit          3D

 33 35  0  0  1  0  0  0  0  0999 V2000
    6.9839  -17.3692   25.2445 N   0  0  0  0  0  0  0  0  0  0  0  0
    7.6943  -16.6093   24.2818 C   0  0  1  0  0  0  0  0  0  0  0  0
    8.2206  -15.2803   24.7428 C   0  0  0  0  0  0  0  0  0  0  0  0
    7.1938  -14.3766   25.3032 C   0  0  0  0  0  0  0  0  0  0  0  0
    6.1211  -14.7153   26.1192 C   0  0  0  0  0  0  0  0  0  0  0  0
    5.4508  -13.6115   26.4161 N   0  0  0  0  0  0  0  0  0  0  0  0
    6.0210  -12.5313   25.8364 C   0  0  0  0  0  0  0  0  0  0  0  0
    5.6465  -11.1960   25.8793 C   0  0  0  0  0  0  0  0  0  0  0  0
    6.4356  -10.3178   25.1690 C   0  0  0  0  0  0  0  0  0  0  0  0
    7.5330  -10.7634   24.4609 C   0  0  0  0  0  0  0  0  0  0  0  0
    7.8844  -12.0931   24.4337 C   0  0  0  0  0  0  0  0  0  0  0  0
    7.1117  -13.0034   25.1385 C   0  0  0  0  0  0  0  0  0  0  0  0
    8.8760  -17.3649   23.7297 C   0  0  0  0  0  0  0  0  0  0  0  0
    9.4371  -18.2495   24.4237 O   0  0  0  0  0  0  0  0  0  0  0  0
   10.3002  -15.8997   20.3305 O   0  0  0  0  0  0  0  0  0  0  0  0
   10.8499  -17.1675   20.5465 C   0  0  0  0  0  0  0  0  0  0  0  0
   10.7223  -17.5239   22.0288 C   0  0  2  0  0  0  0  0  0  0  0  0
    9.3876  -17.1087   22.4295 N   0  0  0  0  0  0  0  0  0  0  0  0
   11.7338  -16.7423   22.7852 C   0  0  0  0  0  0  0  0  0  0  0  0
   11.5343  -15.5262   23.0273 O   0  0  0  0  0  0  0  0  0  0  0  0
    9.5927  -16.3381   28.7647 O   0  0  0  0  0  0  0  0  0  0  0  0
   10.6969  -16.5751   27.9572 C   0  0  0  0  0  0  0  0  0  0  0  0
   10.8697  -15.8274   26.8130 C   0  0  0  0  0  0  0  0  0  0  0  0
   11.9805  -16.0767   26.0152 C   0  0  0  0  0  0  0  0  0  0  0  0
   12.9070  -17.0467   26.3379 C   0  0  0  0  0  0  0  0  0  0  0  0
   14.0538  -17.2646   25.4336 C   0  0  0  0  0  0  0  0  0  0  0  0
   13.8279  -16.5572   24.1349 C   0  0  2  0  0  0  0  0  0  0  0  0
   12.9418  -17.3135   23.2587 N   0  0  0  0  0  0  0  0  0  0  0  0
   15.0585  -16.2491   23.3860 C   0  0  0  0  0  0  0  0  0  0  0  0
   15.2304  -16.7702   22.2372 O   0  0  0  0  0  0  0  0  0  0  0  0
   12.7036  -17.7758   27.4884 C   0  0  0  0  0  0  0  0  0  0  0  0
   11.6096  -17.5487   28.2984 C   0  0  0  0  0  0  0  0  0  0  0  0
   16.0789  -15.4253   23.8137 O   0  0  0  0  0  0  0  0  0  0  0  0
  2  1  1  1
  2 13  1  0
  2  3  1  0
  4  5  2  0
  4  3  1  0
  6  5  1  0
  7 12  2  0
  7  6  1  0
  8  7  1  0
  9 10  1  0
  9  8  2  0
 10 11  2  0
 11 12  1  0
 12  4  1  0
 13 14  2  0
 16 15  1  0
 17 16  1  6
 18 17  1  0
 18 13  1  0
 19 20  2  0
 19 17  1  0
 21 22  1  0
 22 23  2  0
 23 24  1  0
 25 26  1  0
 25 24  2  0
 27 26  1  1
 27 28  1  0
 28 19  1  0
 29 27  1  0
 29 33  1  0
 30 29  2  0
 31 25  1  0
 32 31  2  0
 32 22  1  0
M  END
$$$$
