WSY.pdb
     RDKit          3D

 33 35  0  0  1  0  0  0  0  0999 V2000
    6.6968  -17.8149   24.2041 N   0  0  0  0  0  0  0  0  0  0  0  0
    7.6856  -16.8425   23.9113 C   0  0  1  0  0  0  0  0  0  0  0  0
    8.1436  -15.9947   25.0634 C   0  0  0  0  0  0  0  0  0  0  0  0
    7.1321  -15.0372   25.5587 C   0  0  0  0  0  0  0  0  0  0  0  0
    6.0857  -15.2892   26.4377 C   0  0  0  0  0  0  0  0  0  0  0  0
    5.4219  -14.1601   26.6394 N   0  0  0  0  0  0  0  0  0  0  0  0
    5.9714  -13.1460   25.9339 C   0  0  0  0  0  0  0  0  0  0  0  0
    5.5951  -11.8132   25.8501 C   0  0  0  0  0  0  0  0  0  0  0  0
    6.3599  -11.0135   25.0290 C   0  0  0  0  0  0  0  0  0  0  0  0
    7.4362  -11.5307   24.3375 C   0  0  0  0  0  0  0  0  0  0  0  0
    7.7900  -12.8563   24.4371 C   0  0  0  0  0  0  0  0  0  0  0  0
    7.0415  -13.6884   25.2555 C   0  0  0  0  0  0  0  0  0  0  0  0
    8.9265  -17.4624   23.3215 C   0  0  0  0  0  0  0  0  0  0  0  0
    9.2159  -18.6577   23.5790 O   0  0  0  0  0  0  0  0  0  0  0  0
   10.6459  -15.3186   20.7157 O   0  0  0  0  0  0  0  0  0  0  0  0
   11.4915  -16.4278   20.8194 C   0  0  0  0  0  0  0  0  0  0  0  0
   11.0771  -17.2632   22.0322 C   0  0  2  0  0  0  0  0  0  0  0  0
    9.7964  -16.7311   22.4691 N   0  0  0  0  0  0  0  0  0  0  0  0
   12.0883  -17.0659   23.1020 C   0  0  0  0  0  0  0  0  0  0  0  0
   13.0003  -16.2152   22.9540 O   0  0  0  0  0  0  0  0  0  0  0  0
    8.6686  -15.2317   29.2686 O   0  0  0  0  0  0  0  0  0  0  0  0
    9.7497  -15.4547   28.4267 C   0  0  0  0  0  0  0  0  0  0  0  0
    9.7378  -14.9211   27.1565 C   0  0  0  0  0  0  0  0  0  0  0  0
   10.8279  -15.1533   26.3256 C   0  0  0  0  0  0  0  0  0  0  0  0
   11.9130  -15.8989   26.7378 C   0  0  0  0  0  0  0  0  0  0  0  0
   13.0278  -16.1155   25.7940 C   0  0  0  0  0  0  0  0  0  0  0  0
   13.0596  -17.5448   25.3533 C   0  0  2  0  0  0  0  0  0  0  0  0
   12.0756  -17.8071   24.3104 N   0  0  0  0  0  0  0  0  0  0  0  0
   12.8506  -18.5217   26.4360 C   0  0  0  0  0  0  0  0  0  0  0  0
   13.6001  -18.4754   27.4641 O   0  0  0  0  0  0  0  0  0  0  0  0
   11.8923  -16.4177   28.0134 C   0  0  0  0  0  0  0  0  0  0  0  0
   10.8229  -16.2024   28.8588 C   0  0  0  0  0  0  0  0  0  0  0  0
   11.8936  -19.5149   26.4535 O   0  0  0  0  0  0  0  0  0  0  0  0
  2  1  1  1
  2 13  1  0
  2  3  1  0
  4  5  2  0
  4  3  1  0
  6  5  1  0
  7 12  2  0
  7  6  1  0
  8  7  1  0
  9 10  1  0
  9  8  2  0
 10 11  2  0
 11 12  1  0
 12  4  1  0
 13 14  2  0
 16 15  1  0
 17 16  1  6
 18 17  1  0
 18 13  1  0
 19 20  2  0
 19 17  1  0
 21 22  1  0
 22 23  2  0
 23 24  1  0
 25 26  1  0
 25 24  2  0
 27 26  1  1
 27 28  1  0
 28 19  1  0
 29 27  1  0
 29 33  1  0
 30 29  2  0
 31 25  1  0
 32 31  2  0
 32 22  1  0
M  END
$$$$
