WSY.pdb
     RDKit          3D

 33 35  0  0  1  0  0  0  0  0999 V2000
    6.3803  -17.9108   23.8295 N   0  0  0  0  0  0  0  0  0  0  0  0
    7.4807  -17.0387   23.6363 C   0  0  1  0  0  0  0  0  0  0  0  0
    8.1348  -16.5104   24.8809 C   0  0  0  0  0  0  0  0  0  0  0  0
    7.3114  -15.5486   25.6438 C   0  0  0  0  0  0  0  0  0  0  0  0
    6.2385  -15.8291   26.4813 C   0  0  0  0  0  0  0  0  0  0  0  0
    5.7873  -14.6900   26.9863 N   0  0  0  0  0  0  0  0  0  0  0  0
    6.5076  -13.6416   26.5280 C   0  0  0  0  0  0  0  0  0  0  0  0
    6.3749  -12.2862   26.7934 C   0  0  0  0  0  0  0  0  0  0  0  0
    7.2686  -11.4501   26.1604 C   0  0  0  0  0  0  0  0  0  0  0  0
    8.2340  -11.9544   25.3131 C   0  0  0  0  0  0  0  0  0  0  0  0
    8.3458  -13.3029   25.0658 C   0  0  0  0  0  0  0  0  0  0  0  0
    7.4624  -14.1721   25.6875 C   0  0  0  0  0  0  0  0  0  0  0  0
    8.5742  -17.6845   22.8242 C   0  0  0  0  0  0  0  0  0  0  0  0
    8.8334  -18.9046   22.9759 O   0  0  0  0  0  0  0  0  0  0  0  0
   10.4668  -15.4359   20.0748 O   0  0  0  0  0  0  0  0  0  0  0  0
   10.8654  -16.7763   20.0547 C   0  0  0  0  0  0  0  0  0  0  0  0
   10.6547  -17.3834   21.4430 C   0  0  2  0  0  0  0  0  0  0  0  0
    9.3359  -16.9505   21.8761 N   0  0  0  0  0  0  0  0  0  0  0  0
   11.6852  -16.8270   22.3566 C   0  0  0  0  0  0  0  0  0  0  0  0
   12.2543  -15.7436   22.0748 O   0  0  0  0  0  0  0  0  0  0  0  0
    8.7793  -15.3800   28.9473 O   0  0  0  0  0  0  0  0  0  0  0  0
    9.7076  -15.3963   27.9151 C   0  0  0  0  0  0  0  0  0  0  0  0
   11.0506  -15.4615   28.2157 C   0  0  0  0  0  0  0  0  0  0  0  0
   11.9676  -15.4770   27.1709 C   0  0  0  0  0  0  0  0  0  0  0  0
   11.5696  -15.4292   25.8509 C   0  0  0  0  0  0  0  0  0  0  0  0
   12.6023  -15.4344   24.7954 C   0  0  0  0  0  0  0  0  0  0  0  0
   13.0066  -16.8391   24.4767 C   0  0  2  0  0  0  0  0  0  0  0  0
   12.0679  -17.4729   23.5592 N   0  0  0  0  0  0  0  0  0  0  0  0
   13.1568  -17.7124   25.6536 C   0  0  0  0  0  0  0  0  0  0  0  0
   12.4532  -18.7705   25.7325 O   0  0  0  0  0  0  0  0  0  0  0  0
   10.2198  -15.3644   25.5859 C   0  0  0  0  0  0  0  0  0  0  0  0
    9.2882  -15.3476   26.6040 C   0  0  0  0  0  0  0  0  0  0  0  0
   14.0108  -17.4968   26.7152 O   0  0  0  0  0  0  0  0  0  0  0  0
  2  1  1  1
  2 13  1  0
  2  3  1  0
  4  5  2  0
  4  3  1  0
  6  5  1  0
  7 12  2  0
  7  6  1  0
  8  7  1  0
  9 10  1  0
  9  8  2  0
 10 11  2  0
 11 12  1  0
 12  4  1  0
 13 14  2  0
 16 15  1  0
 17 16  1  6
 18 17  1  0
 18 13  1  0
 19 20  2  0
 19 17  1  0
 21 22  1  0
 22 23  2  0
 23 24  1  0
 25 26  1  0
 25 24  2  0
 27 26  1  1
 27 28  1  0
 28 19  1  0
 29 27  1  0
 29 33  1  0
 30 29  2  0
 31 25  1  0
 32 31  2  0
 32 22  1  0
M  END
$$$$
