WSY.pdb
     RDKit          3D

 33 35  0  0  1  0  0  0  0  0999 V2000
    5.7733  -17.8055   20.0632 N   0  0  0  0  0  0  0  0  0  0  0  0
    6.5715  -16.8210   20.6976 C   0  0  1  0  0  0  0  0  0  0  0  0
    5.8899  -15.9891   21.7460 C   0  0  0  0  0  0  0  0  0  0  0  0
    6.6942  -14.8534   22.2442 C   0  0  0  0  0  0  0  0  0  0  0  0
    7.4311  -13.9438   21.4953 C   0  0  0  0  0  0  0  0  0  0  0  0
    7.9899  -13.0709   22.3210 N   0  0  0  0  0  0  0  0  0  0  0  0
    7.6657  -13.3464   23.6044 C   0  0  0  0  0  0  0  0  0  0  0  0
    8.0338  -12.6983   24.7747 C   0  0  0  0  0  0  0  0  0  0  0  0
    7.5415  -13.2290   25.9470 C   0  0  0  0  0  0  0  0  0  0  0  0
    6.7289  -14.3443   25.9347 C   0  0  0  0  0  0  0  0  0  0  0  0
    6.3775  -14.9697   24.7609 C   0  0  0  0  0  0  0  0  0  0  0  0
    6.8555  -14.4606   23.5630 C   0  0  0  0  0  0  0  0  0  0  0  0
    7.7866  -17.4218   21.3569 C   0  0  0  0  0  0  0  0  0  0  0  0
    7.6525  -18.3303   22.2145 O   0  0  0  0  0  0  0  0  0  0  0  0
   11.5443  -16.5442   19.9005 O   0  0  0  0  0  0  0  0  0  0  0  0
   11.2787  -17.7890   20.4800 C   0  0  0  0  0  0  0  0  0  0  0  0
   10.2808  -17.6067   21.6252 C   0  0  2  0  0  0  0  0  0  0  0  0
    9.1020  -16.9904   21.0380 N   0  0  0  0  0  0  0  0  0  0  0  0
   10.8793  -16.6836   22.6230 C   0  0  0  0  0  0  0  0  0  0  0  0
   10.6208  -15.4555   22.5757 O   0  0  0  0  0  0  0  0  0  0  0  0
   10.6589  -14.4482   30.8490 O   0  0  0  0  0  0  0  0  0  0  0  0
   10.6215  -14.8727   29.5277 C   0  0  0  0  0  0  0  0  0  0  0  0
    9.7859  -14.2351   28.6370 C   0  0  0  0  0  0  0  0  0  0  0  0
    9.7600  -14.6719   27.3175 C   0  0  0  0  0  0  0  0  0  0  0  0
   10.5440  -15.7198   26.8809 C   0  0  0  0  0  0  0  0  0  0  0  0
   10.4514  -16.1374   25.4676 C   0  0  0  0  0  0  0  0  0  0  0  0
   11.8155  -16.4250   24.9247 C   0  0  2  0  0  0  0  0  0  0  0  0
   11.7486  -17.1294   23.6503 N   0  0  0  0  0  0  0  0  0  0  0  0
   12.6817  -17.1991   25.8306 C   0  0  0  0  0  0  0  0  0  0  0  0
   12.6478  -18.4708   25.7823 O   0  0  0  0  0  0  0  0  0  0  0  0
   11.3675  -16.3349   27.7974 C   0  0  0  0  0  0  0  0  0  0  0  0
   11.4128  -15.9213   29.1132 C   0  0  0  0  0  0  0  0  0  0  0  0
   13.5572  -16.6717   26.7570 O   0  0  0  0  0  0  0  0  0  0  0  0
  2  1  1  1
  2 13  1  0
  2  3  1  0
  4  5  2  0
  4  3  1  0
  6  5  1  0
  7 12  2  0
  7  6  1  0
  8  7  1  0
  9 10  1  0
  9  8  2  0
 10 11  2  0
 11 12  1  0
 12  4  1  0
 13 14  2  0
 16 15  1  0
 17 16  1  6
 18 17  1  0
 18 13  1  0
 19 20  2  0
 19 17  1  0
 21 22  1  0
 22 23  2  0
 23 24  1  0
 25 26  1  0
 25 24  2  0
 27 26  1  1
 27 28  1  0
 28 19  1  0
 29 27  1  0
 29 33  1  0
 30 29  2  0
 31 25  1  0
 32 31  2  0
 32 22  1  0
M  END
$$$$
