MIG.pdb
     RDKit          3D

 21 20  0  0  1  0  0  0  0  0999 V2000
   26.2191  -17.5137  -18.9407 C   0  0  0  0  0  0  0  0  0  0  0  0
   27.3541  -16.7216  -17.7740 S   0  0  0  0  0  0  0  0  0  0  0  0
   28.2370  -17.9562  -16.8083 C   0  0  0  0  0  0  0  0  0  0  0  0
   27.3279  -18.9617  -16.1733 C   0  0  0  0  0  0  0  0  0  0  0  0
   28.0029  -19.9883  -15.3273 C   0  0  2  0  0  0  0  0  0  0  0  0
   28.8878  -20.8195  -16.0979 N   0  0  0  0  0  0  0  0  0  0  0  0
   27.0826  -20.7440  -14.4595 C   0  0  0  0  0  0  0  0  0  0  0  0
   26.7337  -21.9153  -14.8203 O   0  0  0  0  0  0  0  0  0  0  0  0
   25.4240  -21.1365   -8.6126 C   0  0  0  0  0  0  0  0  0  0  0  0
   25.0161  -21.5147  -10.0266 C   0  0  0  0  0  0  0  0  0  0  0  0
   25.9030  -20.8558  -11.0428 C   0  0  2  0  0  0  0  0  0  0  0  0
   26.1559  -19.3998  -10.7297 C   0  0  0  0  0  0  0  0  0  0  0  0
   25.5779  -21.1331  -12.4713 C   0  0  2  0  0  0  0  0  0  0  0  0
   26.5312  -20.2965  -13.2390 N   0  0  0  0  0  0  0  0  0  0  0  0
   24.2257  -20.7764  -12.9092 C   0  0  0  0  0  0  0  0  0  0  0  0
   23.9592  -19.5539  -13.1146 O   0  0  0  0  0  0  0  0  0  0  0  0
   23.1758  -21.6884  -13.1283 N   0  0  0  0  0  0  0  0  0  0  0  0
   21.8937  -21.1889  -13.5704 C   0  0  0  0  0  0  0  0  0  0  0  0
   20.9494  -21.0004  -12.4434 C   0  0  0  0  0  0  0  0  0  0  0  0
   19.6721  -20.5537  -12.7489 O   0  0  0  0  0  0  0  0  0  0  0  0
   21.2349  -21.2189  -11.2424 O   0  0  0  0  0  0  0  0  0  0  0  0
  2  1  1  0
  3  2  1  0
  4  3  1  0
  5  4  1  0
  5  6  1  6
  7  5  1  0
  7 14  1  0
  8  7  2  0
  9 10  1  0
 11 10  1  0
 11 12  1  6
 13 15  1  0
 13 14  1  6
 13 11  1  0
 15 16  2  0
 17 18  1  0
 17 15  1  0
 19 18  1  0
 20 19  1  0
 21 19  2  0
M  END
$$$$
