MIG.pdb
     RDKit          3D

 21 20  0  0  1  0  0  0  0  0999 V2000
   16.4571  -20.3029  -14.2265 C   0  0  0  0  0  0  0  0  0  0  0  0
   17.5394  -20.1765  -15.6720 S   0  0  0  0  0  0  0  0  0  0  0  0
   18.9688  -21.2539  -15.4921 C   0  0  0  0  0  0  0  0  0  0  0  0
   19.9644  -20.7434  -14.4976 C   0  0  0  0  0  0  0  0  0  0  0  0
   21.0231  -21.7152  -14.0975 C   0  0  2  0  0  0  0  0  0  0  0  0
   20.5159  -22.7218  -13.2048 N   0  0  0  0  0  0  0  0  0  0  0  0
   22.2689  -21.0808  -13.6321 C   0  0  0  0  0  0  0  0  0  0  0  0
   22.6371  -19.9921  -14.1826 O   0  0  0  0  0  0  0  0  0  0  0  0
   23.7276  -21.1087   -8.4975 C   0  0  0  0  0  0  0  0  0  0  0  0
   23.4829  -20.6776   -9.9337 C   0  0  0  0  0  0  0  0  0  0  0  0
   24.5951  -21.1307  -10.8343 C   0  0  2  0  0  0  0  0  0  0  0  0
   25.9567  -20.7377  -10.3115 C   0  0  0  0  0  0  0  0  0  0  0  0
   24.3978  -20.8834  -12.2914 C   0  0  2  0  0  0  0  0  0  0  0  0
   23.1208  -21.5637  -12.6147 N   0  0  0  0  0  0  0  0  0  0  0  0
   25.4250  -21.4248  -13.1855 C   0  0  0  0  0  0  0  0  0  0  0  0
   25.7792  -22.6334  -13.0383 O   0  0  0  0  0  0  0  0  0  0  0  0
   26.0651  -20.7088  -14.2150 N   0  0  0  0  0  0  0  0  0  0  0  0
   27.1164  -21.3534  -14.9685 C   0  0  0  0  0  0  0  0  0  0  0  0
   27.5347  -20.5504  -16.1423 C   0  0  0  0  0  0  0  0  0  0  0  0
   28.5837  -21.0379  -16.9080 O   0  0  0  0  0  0  0  0  0  0  0  0
   27.0010  -19.4674  -16.4798 O   0  0  0  0  0  0  0  0  0  0  0  0
  2  1  1  0
  3  2  1  0
  4  3  1  0
  5  4  1  0
  5  6  1  1
  7  5  1  0
  7 14  1  0
  8  7  2  0
  9 10  1  0
 11 10  1  0
 11 12  1  1
 13 15  1  0
 13 14  1  6
 13 11  1  0
 15 16  2  0
 17 18  1  0
 17 15  1  0
 19 18  1  0
 20 19  1  0
 21 19  2  0
M  END
$$$$
