MIG.pdb
     RDKit          3D

 21 20  0  0  1  0  0  0  0  0999 V2000
   29.2585  -16.2242  -18.0016 C   0  0  0  0  0  0  0  0  0  0  0  0
   27.9039  -16.9718  -17.0620 S   0  0  0  0  0  0  0  0  0  0  0  0
   28.4627  -18.4558  -16.2123 C   0  0  0  0  0  0  0  0  0  0  0  0
   27.4019  -19.0736  -15.3556 C   0  0  0  0  0  0  0  0  0  0  0  0
   27.8398  -20.2452  -14.5426 C   0  0  2  0  0  0  0  0  0  0  0  0
   28.5543  -21.2094  -15.3347 N   0  0  0  0  0  0  0  0  0  0  0  0
   26.7693  -20.8304  -13.7164 C   0  0  0  0  0  0  0  0  0  0  0  0
   26.2843  -21.9570  -14.0618 O   0  0  0  0  0  0  0  0  0  0  0  0
   26.8451  -20.4342   -8.4245 C   0  0  0  0  0  0  0  0  0  0  0  0
   26.6764  -20.9452   -9.8454 C   0  0  0  0  0  0  0  0  0  0  0  0
   25.3274  -20.5845  -10.3961 C   0  0  2  0  0  0  0  0  0  0  0  0
   24.2017  -20.9808   -9.4700 C   0  0  0  0  0  0  0  0  0  0  0  0
   25.0956  -20.9218  -11.8300 C   0  0  2  0  0  0  0  0  0  0  0  0
   26.2087  -20.2606  -12.5523 N   0  0  0  0  0  0  0  0  0  0  0  0
   23.8415  -20.4391  -12.4146 C   0  0  0  0  0  0  0  0  0  0  0  0
   23.5451  -19.2133  -12.2830 O   0  0  0  0  0  0  0  0  0  0  0  0
   22.9189  -21.2304  -13.1251 N   0  0  0  0  0  0  0  0  0  0  0  0
   21.7435  -20.6041  -13.6861 C   0  0  0  0  0  0  0  0  0  0  0  0
   20.5339  -20.8514  -12.8657 C   0  0  0  0  0  0  0  0  0  0  0  0
   19.3445  -20.2801  -13.2940 O   0  0  0  0  0  0  0  0  0  0  0  0
   20.5233  -21.5397  -11.8179 O   0  0  0  0  0  0  0  0  0  0  0  0
  2  1  1  0
  3  2  1  0
  4  3  1  0
  5  4  1  0
  5  6  1  6
  7  5  1  0
  7 14  1  0
  8  7  2  0
  9 10  1  0
 11 10  1  0
 11 12  1  1
 13 15  1  0
 13 14  1  6
 13 11  1  0
 15 16  2  0
 17 18  1  0
 17 15  1  0
 19 18  1  0
 20 19  1  0
 21 19  2  0
M  END
$$$$
