MIG.pdb
     RDKit          3D

 21 20  0  0  1  0  0  0  0  0999 V2000
   27.7029  -17.6631   -7.6073 C   0  0  0  0  0  0  0  0  0  0  0  0
   27.6365  -19.2979   -6.8329 S   0  0  0  0  0  0  0  0  0  0  0  0
   27.6185  -20.5927   -8.0817 C   0  0  0  0  0  0  0  0  0  0  0  0
   26.6325  -20.3342   -9.1780 C   0  0  0  0  0  0  0  0  0  0  0  0
   26.6198  -21.3433  -10.2765 C   0  0  2  0  0  0  0  0  0  0  0  0
   27.9389  -21.5882  -10.7937 N   0  0  0  0  0  0  0  0  0  0  0  0
   25.6124  -21.0772  -11.3183 C   0  0  0  0  0  0  0  0  0  0  0  0
   25.8858  -21.3960  -12.5214 O   0  0  0  0  0  0  0  0  0  0  0  0
   21.7533  -20.2301   -8.9742 C   0  0  0  0  0  0  0  0  0  0  0  0
   21.6283  -21.0014  -10.2772 C   0  0  0  0  0  0  0  0  0  0  0  0
   22.0385  -20.1583  -11.4495 C   0  0  2  0  0  0  0  0  0  0  0  0
   20.8794  -19.8400  -12.3644 C   0  0  0  0  0  0  0  0  0  0  0  0
   23.2836  -20.5796  -12.1534 C   0  0  2  0  0  0  0  0  0  0  0  0
   24.3433  -20.4906  -11.1204 N   0  0  0  0  0  0  0  0  0  0  0  0
   23.7004  -19.7485  -13.2862 C   0  0  0  0  0  0  0  0  0  0  0  0
   23.8443  -18.5023  -13.1014 O   0  0  0  0  0  0  0  0  0  0  0  0
   23.9622  -20.2200  -14.5866 N   0  0  0  0  0  0  0  0  0  0  0  0
   24.3761  -19.2799  -15.6033 C   0  0  0  0  0  0  0  0  0  0  0  0
   23.2499  -18.8695  -16.4755 C   0  0  0  0  0  0  0  0  0  0  0  0
   23.5659  -18.2706  -17.6863 O   0  0  0  0  0  0  0  0  0  0  0  0
   22.0409  -19.0304  -16.1857 O   0  0  0  0  0  0  0  0  0  0  0  0
  2  1  1  0
  3  2  1  0
  4  3  1  0
  5  4  1  0
  5  6  1  6
  7  5  1  0
  7 14  1  0
  8  7  2  0
  9 10  1  0
 11 10  1  0
 11 12  1  6
 13 15  1  0
 13 14  1  1
 13 11  1  0
 15 16  2  0
 17 18  1  0
 17 15  1  0
 19 18  1  0
 20 19  1  0
 21 19  2  0
M  END
$$$$
