MIG.pdb
     RDKit          3D

 21 20  0  0  1  0  0  0  0  0999 V2000
   22.3841  -28.6111  -14.4729 C   0  0  0  0  0  0  0  0  0  0  0  0
   22.0390  -27.9654  -16.1284 S   0  0  0  0  0  0  0  0  0  0  0  0
   21.3825  -26.2930  -16.0344 C   0  0  0  0  0  0  0  0  0  0  0  0
   21.0519  -25.8723  -14.6364 C   0  0  0  0  0  0  0  0  0  0  0  0
   20.4657  -24.5072  -14.5021 C   0  0  2  0  0  0  0  0  0  0  0  0
   21.2474  -23.5185  -15.1942 N   0  0  0  0  0  0  0  0  0  0  0  0
   20.1302  -24.1366  -13.1160 C   0  0  0  0  0  0  0  0  0  0  0  0
   21.0284  -23.5812  -12.4028 O   0  0  0  0  0  0  0  0  0  0  0  0
   16.7161  -21.8270  -13.2700 C   0  0  0  0  0  0  0  0  0  0  0  0
   17.6030  -21.7619  -12.0380 C   0  0  0  0  0  0  0  0  0  0  0  0
   17.4486  -22.9919  -11.1915 C   0  0  2  0  0  0  0  0  0  0  0  0
   16.7715  -22.7028   -9.8725 C   0  0  0  0  0  0  0  0  0  0  0  0
   18.6493  -23.8702  -11.0902 C   0  0  2  0  0  0  0  0  0  0  0  0
   18.8870  -24.3369  -12.4771 N   0  0  0  0  0  0  0  0  0  0  0  0
   18.5138  -25.0575  -10.2419 C   0  0  0  0  0  0  0  0  0  0  0  0
   17.8903  -26.0614  -10.7015 O   0  0  0  0  0  0  0  0  0  0  0  0
   19.0261  -25.1862   -8.9368 N   0  0  0  0  0  0  0  0  0  0  0  0
   18.8894  -26.4511   -8.2514 C   0  0  0  0  0  0  0  0  0  0  0  0
   17.6011  -26.5563   -7.5258 C   0  0  0  0  0  0  0  0  0  0  0  0
   17.3584  -27.7274   -6.8228 O   0  0  0  0  0  0  0  0  0  0  0  0
   16.7269  -25.6578   -7.5106 O   0  0  0  0  0  0  0  0  0  0  0  0
  2  1  1  0
  3  2  1  0
  4  3  1  0
  5  4  1  0
  5  6  1  1
  7  5  1  0
  7 14  1  0
  8  7  2  0
  9 10  1  0
 11 10  1  0
 11 12  1  1
 13 15  1  0
 13 14  1  6
 13 11  1  0
 15 16  2  0
 17 18  1  0
 17 15  1  0
 19 18  1  0
 20 19  1  0
 21 19  2  0
M  END
$$$$
