MIG.pdb
     RDKit          3D

 21 20  0  0  1  0  0  0  0  0999 V2000
   27.9527  -17.9019   -5.2705 C   0  0  0  0  0  0  0  0  0  0  0  0
   28.0060  -19.6476   -4.7944 S   0  0  0  0  0  0  0  0  0  0  0  0
   27.8388  -20.7060   -6.2396 C   0  0  0  0  0  0  0  0  0  0  0  0
   27.1051  -20.0468   -7.3656 C   0  0  0  0  0  0  0  0  0  0  0  0
   26.9323  -20.8808   -8.5902 C   0  0  2  0  0  0  0  0  0  0  0  0
   28.1932  -21.3370   -9.1094 N   0  0  0  0  0  0  0  0  0  0  0  0
   26.0557  -20.2726   -9.6064 C   0  0  0  0  0  0  0  0  0  0  0  0
   26.2161  -19.0397   -9.8856 O   0  0  0  0  0  0  0  0  0  0  0  0
   26.9936  -21.9347  -13.1895 C   0  0  0  0  0  0  0  0  0  0  0  0
   26.2069  -20.6430  -13.0435 C   0  0  0  0  0  0  0  0  0  0  0  0
   24.7811  -20.9153  -12.6608 C   0  0  2  0  0  0  0  0  0  0  0  0
   23.8380  -20.8070  -13.8358 C   0  0  0  0  0  0  0  0  0  0  0  0
   24.2992  -20.2469  -11.4181 C   0  0  2  0  0  0  0  0  0  0  0  0
   25.0298  -20.9275  -10.3222 N   0  0  0  0  0  0  0  0  0  0  0  0
   22.8665  -20.3643  -11.1332 C   0  0  0  0  0  0  0  0  0  0  0  0
   22.4449  -21.4235  -10.5782 O   0  0  0  0  0  0  0  0  0  0  0  0
   21.8974  -19.3855  -11.4248 N   0  0  0  0  0  0  0  0  0  0  0  0
   20.5338  -19.5992  -10.9964 C   0  0  0  0  0  0  0  0  0  0  0  0
   19.7186  -20.2648  -12.0404 C   0  0  0  0  0  0  0  0  0  0  0  0
   18.3483  -20.3304  -11.8348 O   0  0  0  0  0  0  0  0  0  0  0  0
   20.1907  -20.7668  -13.0877 O   0  0  0  0  0  0  0  0  0  0  0  0
  2  1  1  0
  3  2  1  0
  4  3  1  0
  5  4  1  0
  5  6  1  6
  7  5  1  0
  7 14  1  0
  8  7  2  0
  9 10  1  0
 11 10  1  0
 11 12  1  6
 13 15  1  0
 13 14  1  1
 13 11  1  0
 15 16  2  0
 17 18  1  0
 17 15  1  0
 19 18  1  0
 20 19  1  0
 21 19  2  0
M  END
$$$$
