MIG.pdb
     RDKit          3D

 21 20  0  0  1  0  0  0  0  0999 V2000
   20.4673  -12.4342  -22.5984 C   0  0  0  0  0  0  0  0  0  0  0  0
   21.7999  -13.5283  -23.1499 S   0  0  0  0  0  0  0  0  0  0  0  0
   22.7365  -14.1478  -21.7445 C   0  0  0  0  0  0  0  0  0  0  0  0
   22.7415  -13.2035  -20.5830 C   0  0  0  0  0  0  0  0  0  0  0  0
   23.7692  -13.4818  -19.5381 C   0  0  2  0  0  0  0  0  0  0  0  0
   23.7622  -14.8620  -19.1348 N   0  0  0  0  0  0  0  0  0  0  0  0
   23.7452  -12.5328  -18.4112 C   0  0  0  0  0  0  0  0  0  0  0  0
   22.9924  -12.7921  -17.4164 O   0  0  0  0  0  0  0  0  0  0  0  0
   25.3554  -10.3126  -14.1978 C   0  0  0  0  0  0  0  0  0  0  0  0
   26.0868   -9.6597  -15.3586 C   0  0  0  0  0  0  0  0  0  0  0  0
   25.8520  -10.4075  -16.6388 C   0  0  2  0  0  0  0  0  0  0  0  0
   26.8350  -10.0234  -17.7195 C   0  0  0  0  0  0  0  0  0  0  0  0
   24.4349  -10.4934  -17.0947 C   0  0  2  0  0  0  0  0  0  0  0  0
   24.4868  -11.3351  -18.3140 N   0  0  0  0  0  0  0  0  0  0  0  0
   23.7937   -9.2271  -17.4594 C   0  0  0  0  0  0  0  0  0  0  0  0
   24.3453   -8.5016  -18.3409 O   0  0  0  0  0  0  0  0  0  0  0  0
   22.5949   -8.7355  -16.9085 N   0  0  0  0  0  0  0  0  0  0  0  0
   22.1035   -7.4457  -17.3369 C   0  0  0  0  0  0  0  0  0  0  0  0
   22.3827   -6.3834  -16.3414 C   0  0  0  0  0  0  0  0  0  0  0  0
   21.9462   -5.1004  -16.6377 O   0  0  0  0  0  0  0  0  0  0  0  0
   22.9843   -6.5749  -15.2582 O   0  0  0  0  0  0  0  0  0  0  0  0
  2  1  1  0
  3  2  1  0
  4  3  1  0
  5  4  1  0
  5  6  1  1
  7  5  1  0
  7 14  1  0
  8  7  2  0
  9 10  1  0
 11 10  1  0
 11 12  1  6
 13 15  1  0
 13 14  1  6
 13 11  1  0
 15 16  2  0
 17 18  1  0
 17 15  1  0
 19 18  1  0
 20 19  1  0
 21 19  2  0
M  END
$$$$
