MIG.pdb
     RDKit          3D

 21 20  0  0  1  0  0  0  0  0999 V2000
   18.4697  -18.0378  -12.3957 C   0  0  0  0  0  0  0  0  0  0  0  0
   17.9060  -19.4570  -13.3678 S   0  0  0  0  0  0  0  0  0  0  0  0
   19.2768  -20.5647  -13.7295 C   0  0  0  0  0  0  0  0  0  0  0  0
   20.6134  -19.9045  -13.5940 C   0  0  0  0  0  0  0  0  0  0  0  0
   21.7833  -20.7463  -13.9790 C   0  0  2  0  0  0  0  0  0  0  0  0
   21.5402  -22.1429  -13.7379 N   0  0  0  0  0  0  0  0  0  0  0  0
   23.0671  -20.2644  -13.4399 C   0  0  0  0  0  0  0  0  0  0  0  0
   23.3634  -19.0340  -13.5887 O   0  0  0  0  0  0  0  0  0  0  0  0
   24.4585  -20.9251   -8.4927 C   0  0  0  0  0  0  0  0  0  0  0  0
   24.3400  -20.3153   -9.8793 C   0  0  0  0  0  0  0  0  0  0  0  0
   25.3527  -20.9016  -10.8194 C   0  0  2  0  0  0  0  0  0  0  0  0
   26.7460  -20.9069  -10.2358 C   0  0  0  0  0  0  0  0  0  0  0  0
   25.2772  -20.4364  -12.2340 C   0  0  2  0  0  0  0  0  0  0  0  0
   24.0294  -21.0413  -12.7585 N   0  0  0  0  0  0  0  0  0  0  0  0
   26.3734  -20.8536  -13.1127 C   0  0  0  0  0  0  0  0  0  0  0  0
   27.5238  -20.3554  -12.9230 O   0  0  0  0  0  0  0  0  0  0  0  0
   26.2611  -21.7783  -14.1685 N   0  0  0  0  0  0  0  0  0  0  0  0
   27.4422  -22.1249  -14.9256 C   0  0  0  0  0  0  0  0  0  0  0  0
   27.4527  -21.4903  -16.2652 C   0  0  0  0  0  0  0  0  0  0  0  0
   28.5241  -21.7764  -17.0986 O   0  0  0  0  0  0  0  0  0  0  0  0
   26.5586  -20.7180  -16.6846 O   0  0  0  0  0  0  0  0  0  0  0  0
  2  1  1  0
  3  2  1  0
  4  3  1  0
  5  4  1  0
  5  6  1  1
  7  5  1  0
  7 14  1  0
  8  7  2  0
  9 10  1  0
 11 10  1  0
 11 12  1  1
 13 15  1  0
 13 14  1  6
 13 11  1  0
 15 16  2  0
 17 18  1  0
 17 15  1  0
 19 18  1  0
 20 19  1  0
 21 19  2  0
M  END
$$$$
