MIG.pdb
     RDKit          3D

 21 20  0  0  1  0  0  0  0  0999 V2000
   21.0355   -7.1034  -22.3100 C   0  0  0  0  0  0  0  0  0  0  0  0
   20.2940   -8.6059  -22.9952 S   0  0  0  0  0  0  0  0  0  0  0  0
   20.7124  -10.0372  -21.9888 C   0  0  0  0  0  0  0  0  0  0  0  0
   20.7134   -9.7404  -20.5216 C   0  0  0  0  0  0  0  0  0  0  0  0
   21.1103  -10.8767  -19.6404 C   0  0  2  0  0  0  0  0  0  0  0  0
   20.3286  -12.0550  -19.9015 N   0  0  0  0  0  0  0  0  0  0  0  0
   21.1934  -10.5226  -18.2126 C   0  0  0  0  0  0  0  0  0  0  0  0
   20.1883  -10.7661  -17.4682 O   0  0  0  0  0  0  0  0  0  0  0  0
   24.7942  -12.4759  -15.3428 C   0  0  0  0  0  0  0  0  0  0  0  0
   23.5246  -11.8480  -15.8927 C   0  0  0  0  0  0  0  0  0  0  0  0
   23.4595  -10.3830  -15.5718 C   0  0  2  0  0  0  0  0  0  0  0  0
   23.7692  -10.0962  -14.1214 C   0  0  0  0  0  0  0  0  0  0  0  0
   22.2779   -9.6486  -16.1082 C   0  0  2  0  0  0  0  0  0  0  0  0
   22.2970   -9.9260  -17.5644 N   0  0  0  0  0  0  0  0  0  0  0  0
   22.2866   -8.1933  -15.9359 C   0  0  0  0  0  0  0  0  0  0  0  0
   23.4006   -7.5881  -15.9589 O   0  0  0  0  0  0  0  0  0  0  0  0
   21.1454   -7.3911  -15.7451 N   0  0  0  0  0  0  0  0  0  0  0  0
   21.3114   -5.9664  -15.5684 C   0  0  0  0  0  0  0  0  0  0  0  0
   20.0117   -5.2558  -15.5119 C   0  0  0  0  0  0  0  0  0  0  0  0
   19.2321   -5.4406  -14.3794 O   0  0  0  0  0  0  0  0  0  0  0  0
   19.5802   -4.5053  -16.4187 O   0  0  0  0  0  0  0  0  0  0  0  0
  2  1  1  0
  3  2  1  0
  4  3  1  0
  5  4  1  0
  5  6  1  1
  7  5  1  0
  7 14  1  0
  8  7  2  0
  9 10  1  0
 11 10  1  0
 11 12  1  1
 13 15  1  0
 13 14  1  6
 13 11  1  0
 15 16  2  0
 17 18  1  0
 17 15  1  0
 19 18  1  0
 20 19  1  0
 21 19  2  0
M  END
$$$$
