MIG.pdb
     RDKit          3D

 21 20  0  0  1  0  0  0  0  0999 V2000
   24.9167  -17.4832  -15.4457 C   0  0  0  0  0  0  0  0  0  0  0  0
   26.6445  -17.2460  -15.9305 S   0  0  0  0  0  0  0  0  0  0  0  0
   27.7210  -18.3560  -15.0109 C   0  0  0  0  0  0  0  0  0  0  0  0
   27.0032  -19.1071  -13.9332 C   0  0  0  0  0  0  0  0  0  0  0  0
   27.8253  -20.1125  -13.1994 C   0  0  2  0  0  0  0  0  0  0  0  0
   28.4683  -21.0351  -14.0956 N   0  0  0  0  0  0  0  0  0  0  0  0
   27.1151  -20.7636  -12.0847 C   0  0  0  0  0  0  0  0  0  0  0  0
   26.7847  -21.9880  -12.2091 O   0  0  0  0  0  0  0  0  0  0  0  0
   28.0382  -19.4999   -6.7715 C   0  0  0  0  0  0  0  0  0  0  0  0
   27.7885  -20.4007   -7.9693 C   0  0  0  0  0  0  0  0  0  0  0  0
   26.4144  -20.1859   -8.5340 C   0  0  2  0  0  0  0  0  0  0  0  0
   25.3394  -20.2490   -7.4747 C   0  0  0  0  0  0  0  0  0  0  0  0
   26.0963  -20.9368   -9.7824 C   0  0  2  0  0  0  0  0  0  0  0  0
   26.7515  -20.1593  -10.8614 N   0  0  0  0  0  0  0  0  0  0  0  0
   24.6760  -21.0549  -10.1234 C   0  0  0  0  0  0  0  0  0  0  0  0
   23.9018  -21.6288   -9.2994 O   0  0  0  0  0  0  0  0  0  0  0  0
   24.0823  -20.5767  -11.3071 N   0  0  0  0  0  0  0  0  0  0  0  0
   22.6526  -20.7038  -11.4754 C   0  0  0  0  0  0  0  0  0  0  0  0
   22.2257  -20.4090  -12.8640 C   0  0  0  0  0  0  0  0  0  0  0  0
   20.8626  -20.3759  -13.1193 O   0  0  0  0  0  0  0  0  0  0  0  0
   23.0168  -20.1899  -13.8116 O   0  0  0  0  0  0  0  0  0  0  0  0
  2  1  1  0
  3  2  1  0
  4  3  1  0
  5  4  1  0
  5  6  1  6
  7  5  1  0
  7 14  1  0
  8  7  2  0
  9 10  1  0
 11 10  1  0
 11 12  1  1
 13 15  1  0
 13 14  1  6
 13 11  1  0
 15 16  2  0
 17 18  1  0
 17 15  1  0
 19 18  1  0
 20 19  1  0
 21 19  2  0
M  END
$$$$
