QHY.pdb
     RDKit          3D

 32 33  0  0  1  0  0  0  0  0999 V2000
   16.2478  -12.3053  -15.6891 N   0  0  0  0  0  0  0  0  0  0  0  0
   16.7195  -12.8815  -16.9304 C   0  0  0  0  0  0  0  0  0  0  0  0
   15.9098  -13.6266  -17.5234 O   0  0  0  0  0  0  0  0  0  0  0  0
   18.0768  -12.5431  -17.3731 C   0  0  0  0  0  0  0  0  0  0  0  0
   18.8131  -11.5499  -16.5613 C   0  0  0  0  0  0  0  0  0  0  0  0
   20.1262  -11.1592  -17.1325 C   0  0  2  0  0  0  0  0  0  0  0  0
   20.9705  -12.2363  -17.5080 N   0  0  0  0  0  0  0  0  0  0  0  0
   20.8899  -10.2621  -16.1972 C   0  0  0  0  0  0  0  0  0  0  0  0
   20.7541  -10.3570  -14.9511 O   0  0  0  0  0  0  0  0  0  0  0  0
   21.7844   -9.2833  -16.6905 N   0  0  0  0  0  0  0  0  0  0  0  0
   22.5985   -8.4417  -15.8714 C   0  0  1  0  0  0  0  0  0  0  0  0
   24.0452   -8.4836  -16.3043 C   0  0  0  0  0  0  0  0  0  0  0  0
   24.6685   -9.8181  -16.1361 C   0  0  0  0  0  0  0  0  0  0  0  0
   25.3814  -10.3226  -15.0478 C   0  0  0  0  0  0  0  0  0  0  0  0
   25.7706  -11.5662  -15.2940 N   0  0  0  0  0  0  0  0  0  0  0  0
   25.3287  -11.9014  -16.5297 C   0  0  0  0  0  0  0  0  0  0  0  0
   24.6622  -10.8333  -17.0305 N   0  0  0  0  0  0  0  0  0  0  0  0
   22.1466   -7.0288  -15.8372 C   0  0  0  0  0  0  0  0  0  0  0  0
   21.9077   -6.4599  -16.9330 O   0  0  0  0  0  0  0  0  0  0  0  0
   17.9545   -7.1030   -9.7986 O   0  0  0  0  0  0  0  0  0  0  0  0
   18.4609   -6.5590  -10.9834 C   0  0  0  0  0  0  0  0  0  0  0  0
   18.8071   -5.2252  -11.0439 C   0  0  0  0  0  0  0  0  0  0  0  0
   19.3030   -4.6799  -12.1955 C   0  0  0  0  0  0  0  0  0  0  0  0
   19.4853   -5.4187  -13.3529 C   0  0  0  0  0  0  0  0  0  0  0  0
   20.0111   -4.8254  -14.6047 C   0  0  0  0  0  0  0  0  0  0  0  0
   21.5054   -4.8900  -14.6314 C   0  0  2  0  0  0  0  0  0  0  0  0
   21.9702   -6.2882  -14.6506 N   0  0  0  0  0  0  0  0  0  0  0  0
   22.1403   -4.2695  -13.4514 C   0  0  0  0  0  0  0  0  0  0  0  0
   22.8082   -4.9519  -12.6228 O   0  0  0  0  0  0  0  0  0  0  0  0
   19.1309   -6.7675  -13.2767 C   0  0  0  0  0  0  0  0  0  0  0  0
   18.6303   -7.3206  -12.1155 C   0  0  0  0  0  0  0  0  0  0  0  0
   22.0667   -2.9074  -13.1492 O   0  0  0  0  0  0  0  0  0  0  0  0
  1  2  1  0
  2  3  2  0
  4  5  1  0
  4  2  1  0
  6  7  1  1
  6  5  1  0
  8  6  1  0
  8  9  2  0
 10  8  1  0
 11 18  1  0
 11 10  1  0
 11 12  1  6
 13 14  2  0
 13 12  1  0
 15 14  1  0
 16 17  2  0
 16 15  1  0
 17 13  1  0
 18 19  2  0
 20 21  1  0
 21 22  2  0
 21 31  1  0
 22 23  1  0
 23 24  2  0
 24 25  1  0
 26 25  1  1
 26 28  1  0
 27 18  1  0
 27 26  1  0
 28 29  2  0
 28 32  1  0
 30 24  1  0
 31 30  2  0
M  END
$$$$
