QHY.pdb
     RDKit          3D

 32 33  0  0  1  0  0  0  0  0999 V2000
   42.8407   -9.2898   -1.5205 N   0  0  0  0  0  0  0  0  0  0  0  0
   43.3094   -8.3813   -2.5454 C   0  0  0  0  0  0  0  0  0  0  0  0
   43.6998   -7.2647   -2.1415 O   0  0  0  0  0  0  0  0  0  0  0  0
   43.2874   -8.8452   -3.9372 C   0  0  0  0  0  0  0  0  0  0  0  0
   42.6600  -10.1604   -4.1903 C   0  0  0  0  0  0  0  0  0  0  0  0
   42.8093  -10.6405   -5.5868 C   0  0  2  0  0  0  0  0  0  0  0  0
   44.1454  -10.8396   -6.0216 N   0  0  0  0  0  0  0  0  0  0  0  0
   42.1253   -9.7220   -6.5621 C   0  0  0  0  0  0  0  0  0  0  0  0
   42.7732   -8.8544   -7.2007 O   0  0  0  0  0  0  0  0  0  0  0  0
   40.7317   -9.8052   -6.7910 N   0  0  0  0  0  0  0  0  0  0  0  0
   40.0125   -8.9951   -7.7229 C   0  0  1  0  0  0  0  0  0  0  0  0
   39.1780   -9.8387   -8.6578 C   0  0  0  0  0  0  0  0  0  0  0  0
   39.9182  -10.2851   -9.8621 C   0  0  0  0  0  0  0  0  0  0  0  0
   41.2444  -10.0376  -10.2187 C   0  0  0  0  0  0  0  0  0  0  0  0
   41.5220  -10.6202  -11.3773 N   0  0  0  0  0  0  0  0  0  0  0  0
   40.4022  -11.2540  -11.8007 C   0  0  0  0  0  0  0  0  0  0  0  0
   39.4365  -11.0433  -10.8739 N   0  0  0  0  0  0  0  0  0  0  0  0
   39.1399   -7.9818   -7.0798 C   0  0  0  0  0  0  0  0  0  0  0  0
   38.2464   -8.3876   -6.2934 O   0  0  0  0  0  0  0  0  0  0  0  0
   36.0708   -3.2117   -1.2666 O   0  0  0  0  0  0  0  0  0  0  0  0
   36.7810   -3.5487   -2.4234 C   0  0  0  0  0  0  0  0  0  0  0  0
   38.1602   -3.5565   -2.4151 C   0  0  0  0  0  0  0  0  0  0  0  0
   38.8675   -3.8836   -3.5386 C   0  0  0  0  0  0  0  0  0  0  0  0
   38.2549   -4.2210   -4.7343 C   0  0  0  0  0  0  0  0  0  0  0  0
   39.0209   -4.5636   -5.9554 C   0  0  0  0  0  0  0  0  0  0  0  0
   38.3045   -5.6083   -6.7511 C   0  0  2  0  0  0  0  0  0  0  0  0
   39.2535   -6.5937   -7.2988 N   0  0  0  0  0  0  0  0  0  0  0  0
   37.5741   -5.0624   -7.9126 C   0  0  0  0  0  0  0  0  0  0  0  0
   37.9864   -5.2344   -9.0953 O   0  0  0  0  0  0  0  0  0  0  0  0
   36.8583   -4.2092   -4.7276 C   0  0  0  0  0  0  0  0  0  0  0  0
   36.1419   -3.8796   -3.5949 C   0  0  0  0  0  0  0  0  0  0  0  0
   36.3902   -4.3266   -7.8166 O   0  0  0  0  0  0  0  0  0  0  0  0
  1  2  1  0
  2  3  2  0
  4  5  1  0
  4  2  1  0
  6  7  1  6
  6  5  1  0
  8  6  1  0
  8  9  2  0
 10  8  1  0
 11 18  1  0
 11 10  1  0
 11 12  1  1
 13 14  2  0
 13 12  1  0
 15 14  1  0
 16 17  2  0
 16 15  1  0
 17 13  1  0
 18 19  2  0
 20 21  1  0
 21 22  2  0
 21 31  1  0
 22 23  1  0
 23 24  2  0
 24 25  1  0
 26 25  1  6
 26 28  1  0
 27 18  1  0
 27 26  1  0
 28 29  2  0
 28 32  1  0
 30 24  1  0
 31 30  2  0
M  END
$$$$
