QHY.pdb
     RDKit          3D

 32 33  0  0  1  0  0  0  0  0999 V2000
   28.0949  -19.3993  -19.4681 N   0  0  0  0  0  0  0  0  0  0  0  0
   28.1853  -18.5835  -20.6604 C   0  0  0  0  0  0  0  0  0  0  0  0
   29.1315  -18.8542  -21.4310 O   0  0  0  0  0  0  0  0  0  0  0  0
   27.1764  -17.5360  -20.8543 C   0  0  0  0  0  0  0  0  0  0  0  0
   26.1053  -17.4476  -19.8383 C   0  0  0  0  0  0  0  0  0  0  0  0
   24.7976  -17.9826  -20.2931 C   0  0  2  0  0  0  0  0  0  0  0  0
   24.2634  -17.3731  -21.4580 N   0  0  0  0  0  0  0  0  0  0  0  0
   23.7630  -17.9109  -19.2036 C   0  0  0  0  0  0  0  0  0  0  0  0
   23.4836  -16.8203  -18.6444 O   0  0  0  0  0  0  0  0  0  0  0  0
   23.0723  -19.0684  -18.7738 N   0  0  0  0  0  0  0  0  0  0  0  0
   22.1031  -19.0921  -17.7240 C   0  0  1  0  0  0  0  0  0  0  0  0
   20.7926  -19.6764  -18.1965 C   0  0  0  0  0  0  0  0  0  0  0  0
   19.9820  -18.7266  -18.9956 C   0  0  0  0  0  0  0  0  0  0  0  0
   19.7374  -17.3722  -18.7653 C   0  0  0  0  0  0  0  0  0  0  0  0
   18.9610  -16.8797  -19.7210 N   0  0  0  0  0  0  0  0  0  0  0  0
   18.6831  -17.8834  -20.5870 C   0  0  0  0  0  0  0  0  0  0  0  0
   19.3074  -18.9983  -20.1364 N   0  0  0  0  0  0  0  0  0  0  0  0
   22.5521  -19.8294  -16.5172 C   0  0  0  0  0  0  0  0  0  0  0  0
   22.9174  -21.0244  -16.6589 O   0  0  0  0  0  0  0  0  0  0  0  0
   25.7624  -21.7301   -8.4934 O   0  0  0  0  0  0  0  0  0  0  0  0
   25.2779  -21.0679   -9.6260 C   0  0  0  0  0  0  0  0  0  0  0  0
   26.0384  -21.0081  -10.7751 C   0  0  0  0  0  0  0  0  0  0  0  0
   25.5777  -20.3638  -11.8896 C   0  0  0  0  0  0  0  0  0  0  0  0
   24.3410  -19.7415  -11.9341 C   0  0  0  0  0  0  0  0  0  0  0  0
   23.8464  -19.0327  -13.1376 C   0  0  0  0  0  0  0  0  0  0  0  0
   23.1363  -19.9796  -14.0523 C   0  0  2  0  0  0  0  0  0  0  0  0
   22.5927  -19.2700  -15.2238 N   0  0  0  0  0  0  0  0  0  0  0  0
   21.9855  -20.6545  -13.4192 C   0  0  0  0  0  0  0  0  0  0  0  0
   20.8533  -20.0978  -13.3383 O   0  0  0  0  0  0  0  0  0  0  0  0
   23.5820  -19.8105  -10.7637 C   0  0  0  0  0  0  0  0  0  0  0  0
   24.0446  -20.4603   -9.6374 C   0  0  0  0  0  0  0  0  0  0  0  0
   22.0375  -21.9371  -12.8674 O   0  0  0  0  0  0  0  0  0  0  0  0
  1  2  1  0
  2  3  2  0
  4  5  1  0
  4  2  1  0
  6  7  1  6
  6  5  1  0
  8  6  1  0
  8  9  2  0
 10  8  1  0
 11 18  1  0
 11 10  1  0
 11 12  1  6
 13 14  2  0
 13 12  1  0
 15 14  1  0
 16 17  2  0
 16 15  1  0
 17 13  1  0
 18 19  2  0
 20 21  1  0
 21 22  2  0
 21 31  1  0
 22 23  1  0
 23 24  2  0
 24 25  1  0
 26 25  1  1
 26 28  1  0
 27 18  1  0
 27 26  1  0
 28 29  2  0
 28 32  1  0
 30 24  1  0
 31 30  2  0
M  END
$$$$
