QHY.pdb
     RDKit          3D

 32 33  0  0  1  0  0  0  0  0999 V2000
   28.7426  -27.8289  -15.8130 N   0  0  0  0  0  0  0  0  0  0  0  0
   28.5471  -27.8660  -17.2468 C   0  0  0  0  0  0  0  0  0  0  0  0
   28.8882  -28.9273  -17.8122 O   0  0  0  0  0  0  0  0  0  0  0  0
   27.9746  -26.6797  -17.8932 C   0  0  0  0  0  0  0  0  0  0  0  0
   27.5666  -25.5697  -17.0049 C   0  0  0  0  0  0  0  0  0  0  0  0
   28.0605  -24.2388  -17.4381 C   0  0  2  0  0  0  0  0  0  0  0  0
   29.4719  -24.1039  -17.4974 N   0  0  0  0  0  0  0  0  0  0  0  0
   27.5153  -23.1384  -16.5694 C   0  0  0  0  0  0  0  0  0  0  0  0
   28.0558  -22.8496  -15.4717 O   0  0  0  0  0  0  0  0  0  0  0  0
   26.3771  -22.3944  -16.9599 N   0  0  0  0  0  0  0  0  0  0  0  0
   25.8281  -21.3024  -16.2194 C   0  0  1  0  0  0  0  0  0  0  0  0
   25.9062  -20.0118  -17.0006 C   0  0  0  0  0  0  0  0  0  0  0  0
   27.2841  -19.4763  -17.1110 C   0  0  0  0  0  0  0  0  0  0  0  0
   28.1290  -19.0136  -16.1014 C   0  0  0  0  0  0  0  0  0  0  0  0
   29.2854  -18.6207  -16.6183 N   0  0  0  0  0  0  0  0  0  0  0  0
   29.2271  -18.8140  -17.9577 C   0  0  0  0  0  0  0  0  0  0  0  0
   28.0088  -19.3328  -18.2445 N   0  0  0  0  0  0  0  0  0  0  0  0
   24.4248  -21.5215  -15.7899 C   0  0  0  0  0  0  0  0  0  0  0  0
   23.6420  -22.0826  -16.5985 O   0  0  0  0  0  0  0  0  0  0  0  0
   16.8115  -21.4131  -11.2778 O   0  0  0  0  0  0  0  0  0  0  0  0
   18.1652  -21.3298  -11.6190 C   0  0  0  0  0  0  0  0  0  0  0  0
   18.7647  -20.0994  -11.7904 C   0  0  0  0  0  0  0  0  0  0  0  0
   20.0871  -20.0028  -12.1243 C   0  0  0  0  0  0  0  0  0  0  0  0
   20.8933  -21.1140  -12.3085 C   0  0  0  0  0  0  0  0  0  0  0  0
   22.3233  -21.0101  -12.6823 C   0  0  0  0  0  0  0  0  0  0  0  0
   22.5143  -21.3331  -14.1304 C   0  0  2  0  0  0  0  0  0  0  0  0
   23.9189  -21.1379  -14.5312 N   0  0  0  0  0  0  0  0  0  0  0  0
   21.7148  -20.4796  -15.0320 C   0  0  0  0  0  0  0  0  0  0  0  0
   22.1249  -19.3434  -15.4053 O   0  0  0  0  0  0  0  0  0  0  0  0
   20.2730  -22.3527  -12.1313 C   0  0  0  0  0  0  0  0  0  0  0  0
   18.9384  -22.4531  -11.7941 C   0  0  0  0  0  0  0  0  0  0  0  0
   20.4656  -20.8383  -15.5449 O   0  0  0  0  0  0  0  0  0  0  0  0
  1  2  1  0
  2  3  2  0
  4  5  1  0
  4  2  1  0
  6  7  1  1
  6  5  1  0
  8  6  1  0
  8  9  2  0
 10  8  1  0
 11 18  1  0
 11 10  1  0
 11 12  1  6
 13 14  2  0
 13 12  1  0
 15 14  1  0
 16 17  2  0
 16 15  1  0
 17 13  1  0
 18 19  2  0
 20 21  1  0
 21 22  2  0
 21 31  1  0
 22 23  1  0
 23 24  2  0
 24 25  1  0
 26 25  1  1
 26 28  1  0
 27 18  1  0
 27 26  1  0
 28 29  2  0
 28 32  1  0
 30 24  1  0
 31 30  2  0
M  END
$$$$
