QHY.pdb
     RDKit          3D

 32 33  0  0  1  0  0  0  0  0999 V2000
   18.3605  -11.4314  -20.1729 N   0  0  0  0  0  0  0  0  0  0  0  0
   18.8462  -12.7806  -19.9752 C   0  0  0  0  0  0  0  0  0  0  0  0
   18.3766  -13.6435  -20.7481 O   0  0  0  0  0  0  0  0  0  0  0  0
   19.8285  -13.0081  -18.9093 C   0  0  0  0  0  0  0  0  0  0  0  0
   20.3305  -11.8109  -18.2007 C   0  0  0  0  0  0  0  0  0  0  0  0
   21.5866  -11.2584  -18.7664 C   0  0  2  0  0  0  0  0  0  0  0  0
   22.7224  -12.1031  -18.6644 N   0  0  0  0  0  0  0  0  0  0  0  0
   21.9291   -9.9277  -18.1543 C   0  0  0  0  0  0  0  0  0  0  0  0
   22.4268   -9.8517  -17.0025 O   0  0  0  0  0  0  0  0  0  0  0  0
   21.7014   -8.7201  -18.8553 N   0  0  0  0  0  0  0  0  0  0  0  0
   21.9731   -7.4168  -18.3361 C   0  0  1  0  0  0  0  0  0  0  0  0
   21.7810   -6.3522  -19.3905 C   0  0  0  0  0  0  0  0  0  0  0  0
   22.2702   -5.0172  -18.9710 C   0  0  0  0  0  0  0  0  0  0  0  0
   23.3751   -4.6960  -18.1815 C   0  0  0  0  0  0  0  0  0  0  0  0
   23.4698   -3.3805  -18.0424 N   0  0  0  0  0  0  0  0  0  0  0  0
   22.4457   -2.8171  -18.7269 C   0  0  0  0  0  0  0  0  0  0  0  0
   21.7251   -3.8194  -19.2853 N   0  0  0  0  0  0  0  0  0  0  0  0
   21.1575   -7.0692  -17.1463 C   0  0  0  0  0  0  0  0  0  0  0  0
   19.9309   -7.3453  -17.1717 O   0  0  0  0  0  0  0  0  0  0  0  0
   18.2145   -6.1188   -8.9785 O   0  0  0  0  0  0  0  0  0  0  0  0
   19.0398   -6.2155  -10.1035 C   0  0  0  0  0  0  0  0  0  0  0  0
   19.4580   -7.4499  -10.5551 C   0  0  0  0  0  0  0  0  0  0  0  0
   20.2652   -7.5595  -11.6533 C   0  0  0  0  0  0  0  0  0  0  0  0
   20.7061   -6.4581  -12.3682 C   0  0  0  0  0  0  0  0  0  0  0  0
   21.5908   -6.5756  -13.5511 C   0  0  0  0  0  0  0  0  0  0  0  0
   20.8668   -6.1638  -14.7936 C   0  0  2  0  0  0  0  0  0  0  0  0
   21.6762   -6.4483  -15.9917 N   0  0  0  0  0  0  0  0  0  0  0  0
   20.5641   -4.7193  -14.8445 C   0  0  0  0  0  0  0  0  0  0  0  0
   21.4267   -3.8744  -15.2193 O   0  0  0  0  0  0  0  0  0  0  0  0
   20.2745   -5.2152  -11.8997 C   0  0  0  0  0  0  0  0  0  0  0  0
   19.4596   -5.1017  -10.7916 C   0  0  0  0  0  0  0  0  0  0  0  0
   19.3297   -4.1660  -14.4950 O   0  0  0  0  0  0  0  0  0  0  0  0
  1  2  1  0
  2  3  2  0
  4  5  1  0
  4  2  1  0
  6  7  1  1
  6  5  1  0
  8  6  1  0
  8  9  2  0
 10  8  1  0
 11 18  1  0
 11 10  1  0
 11 12  1  6
 13 14  2  0
 13 12  1  0
 15 14  1  0
 16 17  2  0
 16 15  1  0
 17 13  1  0
 18 19  2  0
 20 21  1  0
 21 22  2  0
 21 31  1  0
 22 23  1  0
 23 24  2  0
 24 25  1  0
 26 25  1  1
 26 28  1  0
 27 18  1  0
 27 26  1  0
 28 29  2  0
 28 32  1  0
 30 24  1  0
 31 30  2  0
M  END
$$$$
