QHY.pdb
     RDKit          3D

 32 33  0  0  1  0  0  0  0  0999 V2000
   24.9153  -12.9758  -19.9944 N   0  0  0  0  0  0  0  0  0  0  0  0
   24.2792  -13.8277  -20.9768 C   0  0  0  0  0  0  0  0  0  0  0  0
   24.9487  -14.8142  -21.3524 O   0  0  0  0  0  0  0  0  0  0  0  0
   22.9319  -13.4654  -21.4311 C   0  0  0  0  0  0  0  0  0  0  0  0
   22.3417  -12.2393  -20.8516 C   0  0  0  0  0  0  0  0  0  0  0  0
   21.2793  -12.4982  -19.8480 C   0  0  2  0  0  0  0  0  0  0  0  0
   20.2233  -13.3401  -20.2839 N   0  0  0  0  0  0  0  0  0  0  0  0
   20.6824  -11.2170  -19.3333 C   0  0  0  0  0  0  0  0  0  0  0  0
   20.0239  -10.4580  -20.0887 O   0  0  0  0  0  0  0  0  0  0  0  0
   20.8437  -10.8257  -17.9833 N   0  0  0  0  0  0  0  0  0  0  0  0
   19.9869   -9.9121  -17.2953 C   0  0  1  0  0  0  0  0  0  0  0  0
   18.5473  -10.3681  -17.3373 C   0  0  0  0  0  0  0  0  0  0  0  0
   17.6218   -9.4521  -16.6290 C   0  0  0  0  0  0  0  0  0  0  0  0
   17.6056   -8.0568  -16.6186 C   0  0  0  0  0  0  0  0  0  0  0  0
   16.6101   -7.6175  -15.8603 N   0  0  0  0  0  0  0  0  0  0  0  0
   15.9602   -8.6973  -15.3639 C   0  0  0  0  0  0  0  0  0  0  0  0
   16.5830   -9.8038  -15.8367 N   0  0  0  0  0  0  0  0  0  0  0  0
   20.3776   -9.6798  -15.8829 C   0  0  0  0  0  0  0  0  0  0  0  0
   20.4987  -10.6818  -15.1326 O   0  0  0  0  0  0  0  0  0  0  0  0
   23.2062   -2.8258  -16.6648 O   0  0  0  0  0  0  0  0  0  0  0  0
   23.0296   -4.0417  -15.9967 C   0  0  0  0  0  0  0  0  0  0  0  0
   22.5578   -4.0610  -14.7007 C   0  0  0  0  0  0  0  0  0  0  0  0
   22.3807   -5.2423  -14.0353 C   0  0  0  0  0  0  0  0  0  0  0  0
   22.6591   -6.4715  -14.6099 C   0  0  0  0  0  0  0  0  0  0  0  0
   22.4789   -7.7512  -13.8850 C   0  0  0  0  0  0  0  0  0  0  0  0
   21.0504   -8.1917  -13.9406 C   0  0  2  0  0  0  0  0  0  0  0  0
   20.6202   -8.4041  -15.3339 N   0  0  0  0  0  0  0  0  0  0  0  0
   20.1099   -7.2045  -13.3736 C   0  0  0  0  0  0  0  0  0  0  0  0
   20.0113   -7.0238  -12.1262 O   0  0  0  0  0  0  0  0  0  0  0  0
   23.1355   -6.4365  -15.9223 C   0  0  0  0  0  0  0  0  0  0  0  0
   23.3151   -5.2456  -16.5964 C   0  0  0  0  0  0  0  0  0  0  0  0
   19.2655   -6.3982  -14.1411 O   0  0  0  0  0  0  0  0  0  0  0  0
  1  2  1  0
  2  3  2  0
  4  5  1  0
  4  2  1  0
  6  7  1  6
  6  5  1  0
  8  6  1  0
  8  9  2  0
 10  8  1  0
 11 18  1  0
 11 10  1  0
 11 12  1  1
 13 14  2  0
 13 12  1  0
 15 14  1  0
 16 17  2  0
 16 15  1  0
 17 13  1  0
 18 19  2  0
 20 21  1  0
 21 22  2  0
 21 31  1  0
 22 23  1  0
 23 24  2  0
 24 25  1  0
 26 25  1  6
 26 28  1  0
 27 18  1  0
 27 26  1  0
 28 29  2  0
 28 32  1  0
 30 24  1  0
 31 30  2  0
M  END
$$$$
