QHY.pdb
     RDKit          3D

 32 33  0  0  1  0  0  0  0  0999 V2000
   32.7835  -25.9541  -16.0936 N   0  0  0  0  0  0  0  0  0  0  0  0
   32.9124  -26.0235  -17.5337 C   0  0  0  0  0  0  0  0  0  0  0  0
   33.5382  -27.0119  -17.9741 O   0  0  0  0  0  0  0  0  0  0  0  0
   32.3062  -24.9508  -18.3304 C   0  0  0  0  0  0  0  0  0  0  0  0
   31.5508  -23.9174  -17.5895 C   0  0  0  0  0  0  0  0  0  0  0  0
   30.1671  -24.3207  -17.2350 C   0  0  2  0  0  0  0  0  0  0  0  0
   29.5319  -25.1908  -18.1588 N   0  0  0  0  0  0  0  0  0  0  0  0
   29.2804  -23.1240  -17.0243 C   0  0  0  0  0  0  0  0  0  0  0  0
   29.7377  -22.0521  -16.5528 O   0  0  0  0  0  0  0  0  0  0  0  0
   27.9042  -23.1673  -17.3495 N   0  0  0  0  0  0  0  0  0  0  0  0
   26.9884  -22.0889  -17.1480 C   0  0  1  0  0  0  0  0  0  0  0  0
   25.9890  -21.9960  -18.2770 C   0  0  0  0  0  0  0  0  0  0  0  0
   25.0367  -20.8702  -18.1252 C   0  0  0  0  0  0  0  0  0  0  0  0
   25.3034  -19.5058  -18.0037 C   0  0  0  0  0  0  0  0  0  0  0  0
   24.1695  -18.8274  -17.8909 N   0  0  0  0  0  0  0  0  0  0  0  0
   23.1488  -19.7167  -17.9356 C   0  0  0  0  0  0  0  0  0  0  0  0
   23.6870  -20.9520  -18.0775 N   0  0  0  0  0  0  0  0  0  0  0  0
   26.2550  -22.1648  -15.8604 C   0  0  0  0  0  0  0  0  0  0  0  0
   25.6630  -23.2387  -15.5819 O   0  0  0  0  0  0  0  0  0  0  0  0
   22.7267  -20.3444   -7.9559 O   0  0  0  0  0  0  0  0  0  0  0  0
   23.5168  -20.3063   -9.1093 C   0  0  0  0  0  0  0  0  0  0  0  0
   23.0619  -19.6656  -10.2430 C   0  0  0  0  0  0  0  0  0  0  0  0
   23.8234  -19.6208  -11.3778 C   0  0  0  0  0  0  0  0  0  0  0  0
   25.0764  -20.2057  -11.4592 C   0  0  0  0  0  0  0  0  0  0  0  0
   25.8968  -20.1680  -12.6925 C   0  0  0  0  0  0  0  0  0  0  0  0
   25.4063  -21.1763  -13.6827 C   0  0  2  0  0  0  0  0  0  0  0  0
   26.1830  -21.1053  -14.9330 N   0  0  0  0  0  0  0  0  0  0  0  0
   23.9957  -20.9781  -14.0718 C   0  0  0  0  0  0  0  0  0  0  0  0
   23.6482  -20.0453  -14.8513 O   0  0  0  0  0  0  0  0  0  0  0  0
   25.5240  -20.8503  -10.3039 C   0  0  0  0  0  0  0  0  0  0  0  0
   24.7575  -20.8968   -9.1570 C   0  0  0  0  0  0  0  0  0  0  0  0
   22.9419  -21.7816  -13.6292 O   0  0  0  0  0  0  0  0  0  0  0  0
  1  2  1  0
  2  3  2  0
  4  5  1  0
  4  2  1  0
  6  7  1  6
  6  5  1  0
  8  6  1  0
  8  9  2  0
 10  8  1  0
 11 18  1  0
 11 10  1  0
 11 12  1  6
 13 14  2  0
 13 12  1  0
 15 14  1  0
 16 17  2  0
 16 15  1  0
 17 13  1  0
 18 19  2  0
 20 21  1  0
 21 22  2  0
 21 31  1  0
 22 23  1  0
 23 24  2  0
 24 25  1  0
 26 25  1  1
 26 28  1  0
 27 18  1  0
 27 26  1  0
 28 29  2  0
 28 32  1  0
 30 24  1  0
 31 30  2  0
M  END
$$$$
