QHY.pdb
     RDKit          3D

 32 33  0  0  1  0  0  0  0  0999 V2000
   25.2974   -7.8138  -23.1793 N   0  0  0  0  0  0  0  0  0  0  0  0
   24.4258   -7.5470  -22.0548 C   0  0  0  0  0  0  0  0  0  0  0  0
   24.1463   -6.3443  -21.8601 O   0  0  0  0  0  0  0  0  0  0  0  0
   23.9561   -8.6896  -21.2632 C   0  0  0  0  0  0  0  0  0  0  0  0
   24.4425  -10.0258  -21.6700 C   0  0  0  0  0  0  0  0  0  0  0  0
   25.5649  -10.5357  -20.8435 C   0  0  2  0  0  0  0  0  0  0  0  0
   26.0310  -11.8320  -21.1845 N   0  0  0  0  0  0  0  0  0  0  0  0
   25.2209  -10.5257  -19.3792 C   0  0  0  0  0  0  0  0  0  0  0  0
   24.2798  -11.2269  -18.9286 O   0  0  0  0  0  0  0  0  0  0  0  0
   25.9450   -9.7267  -18.4633 N   0  0  0  0  0  0  0  0  0  0  0  0
   25.7198   -9.7031  -17.0524 C   0  0  1  0  0  0  0  0  0  0  0  0
   27.0187   -9.5960  -16.2885 C   0  0  0  0  0  0  0  0  0  0  0  0
   27.8408  -10.8277  -16.3553 C   0  0  0  0  0  0  0  0  0  0  0  0
   27.6159  -11.9940  -17.0877 C   0  0  0  0  0  0  0  0  0  0  0  0
   28.5944  -12.8632  -16.8737 N   0  0  0  0  0  0  0  0  0  0  0  0
   29.4703  -12.2962  -16.0099 C   0  0  0  0  0  0  0  0  0  0  0  0
   29.0025  -11.0623  -15.7025 N   0  0  0  0  0  0  0  0  0  0  0  0
   24.8117   -8.6147  -16.6137 C   0  0  0  0  0  0  0  0  0  0  0  0
   25.1557   -7.4287  -16.8514 O   0  0  0  0  0  0  0  0  0  0  0  0
   18.9595  -12.7856  -17.1822 O   0  0  0  0  0  0  0  0  0  0  0  0
   19.5880  -11.5409  -17.0747 C   0  0  0  0  0  0  0  0  0  0  0  0
   20.6377  -11.2175  -17.9091 C   0  0  0  0  0  0  0  0  0  0  0  0
   21.2617  -10.0045  -17.8149 C   0  0  0  0  0  0  0  0  0  0  0  0
   20.8865   -9.0418  -16.8924 C   0  0  0  0  0  0  0  0  0  0  0  0
   21.5704   -7.7320  -16.7818 C   0  0  0  0  0  0  0  0  0  0  0  0
   22.6020   -7.7660  -15.6991 C   0  0  2  0  0  0  0  0  0  0  0  0
   23.5886   -8.8321  -15.9470 N   0  0  0  0  0  0  0  0  0  0  0  0
   22.0395   -8.0395  -14.3615 C   0  0  0  0  0  0  0  0  0  0  0  0
   21.2609   -7.2233  -13.7905 O   0  0  0  0  0  0  0  0  0  0  0  0
   19.8223   -9.3830  -16.0547 C   0  0  0  0  0  0  0  0  0  0  0  0
   19.1904  -10.6065  -16.1477 C   0  0  0  0  0  0  0  0  0  0  0  0
   22.3055   -9.1950  -13.6224 O   0  0  0  0  0  0  0  0  0  0  0  0
  1  2  1  0
  2  3  2  0
  4  5  1  0
  4  2  1  0
  6  7  1  6
  6  5  1  0
  8  6  1  0
  8  9  2  0
 10  8  1  0
 11 18  1  0
 11 10  1  0
 11 12  1  1
 13 14  2  0
 13 12  1  0
 15 14  1  0
 16 17  2  0
 16 15  1  0
 17 13  1  0
 18 19  2  0
 20 21  1  0
 21 22  2  0
 21 31  1  0
 22 23  1  0
 23 24  2  0
 24 25  1  0
 26 25  1  6
 26 28  1  0
 27 18  1  0
 27 26  1  0
 28 29  2  0
 28 32  1  0
 30 24  1  0
 31 30  2  0
M  END
$$$$
