QHY.pdb
     RDKit          3D

 32 33  0  0  1  0  0  0  0  0999 V2000
   24.2019  -28.4976  -15.2357 N   0  0  0  0  0  0  0  0  0  0  0  0
   23.5490  -28.7061  -16.5107 C   0  0  0  0  0  0  0  0  0  0  0  0
   22.8177  -29.7170  -16.5854 O   0  0  0  0  0  0  0  0  0  0  0  0
   23.7969  -27.7297  -17.5775 C   0  0  0  0  0  0  0  0  0  0  0  0
   24.6590  -26.5771  -17.2373 C   0  0  0  0  0  0  0  0  0  0  0  0
   23.9717  -25.5216  -16.4521 C   0  0  2  0  0  0  0  0  0  0  0  0
   22.9028  -24.8675  -17.1180 N   0  0  0  0  0  0  0  0  0  0  0  0
   24.9388  -24.4763  -15.9677 C   0  0  0  0  0  0  0  0  0  0  0  0
   26.1053  -24.7847  -15.6150 O   0  0  0  0  0  0  0  0  0  0  0  0
   24.5660  -23.1136  -15.8931 N   0  0  0  0  0  0  0  0  0  0  0  0
   25.3948  -22.0728  -15.3718 C   0  0  1  0  0  0  0  0  0  0  0  0
   25.2724  -20.8086  -16.1896 C   0  0  0  0  0  0  0  0  0  0  0  0
   26.2489  -19.7630  -15.8015 C   0  0  0  0  0  0  0  0  0  0  0  0
   27.2701  -19.8252  -14.8525 C   0  0  0  0  0  0  0  0  0  0  0  0
   27.9244  -18.6724  -14.8099 N   0  0  0  0  0  0  0  0  0  0  0  0
   27.3570  -17.8406  -15.7158 C   0  0  0  0  0  0  0  0  0  0  0  0
   26.3420  -18.5129  -16.3105 N   0  0  0  0  0  0  0  0  0  0  0  0
   25.1236  -21.7539  -13.9482 C   0  0  0  0  0  0  0  0  0  0  0  0
   23.9237  -21.6543  -13.5851 O   0  0  0  0  0  0  0  0  0  0  0  0
   25.9349  -19.7716   -5.3662 O   0  0  0  0  0  0  0  0  0  0  0  0
   26.2216  -20.0432   -6.7078 C   0  0  0  0  0  0  0  0  0  0  0  0
   26.2153  -19.0265   -7.6400 C   0  0  0  0  0  0  0  0  0  0  0  0
   26.4934  -19.2775   -8.9550 C   0  0  0  0  0  0  0  0  0  0  0  0
   26.7931  -20.5453   -9.4256 C   0  0  0  0  0  0  0  0  0  0  0  0
   27.0825  -20.8199  -10.8525 C   0  0  0  0  0  0  0  0  0  0  0  0
   25.8453  -21.2670  -11.5646 C   0  0  2  0  0  0  0  0  0  0  0  0
   26.1302  -21.5561  -12.9812 N   0  0  0  0  0  0  0  0  0  0  0  0
   24.7716  -20.2533  -11.5675 C   0  0  0  0  0  0  0  0  0  0  0  0
   24.7948  -19.2657  -12.3565 O   0  0  0  0  0  0  0  0  0  0  0  0
   26.7963  -21.5645   -8.4706 C   0  0  0  0  0  0  0  0  0  0  0  0
   26.5161  -21.3139   -7.1426 C   0  0  0  0  0  0  0  0  0  0  0  0
   23.6587  -20.2903  -10.7235 O   0  0  0  0  0  0  0  0  0  0  0  0
  1  2  1  0
  2  3  2  0
  4  5  1  0
  4  2  1  0
  6  7  1  6
  6  5  1  0
  8  6  1  0
  8  9  2  0
 10  8  1  0
 11 18  1  0
 11 10  1  0
 11 12  1  6
 13 14  2  0
 13 12  1  0
 15 14  1  0
 16 17  2  0
 16 15  1  0
 17 13  1  0
 18 19  2  0
 20 21  1  0
 21 22  2  0
 21 31  1  0
 22 23  1  0
 23 24  2  0
 24 25  1  0
 26 25  1  6
 26 28  1  0
 27 18  1  0
 27 26  1  0
 28 29  2  0
 28 32  1  0
 30 24  1  0
 31 30  2  0
M  END
$$$$
