QHY.pdb
     RDKit          3D

 32 33  0  0  1  0  0  0  0  0999 V2000
   27.5094  -28.0830  -16.8688 N   0  0  0  0  0  0  0  0  0  0  0  0
   28.6616  -28.0754  -17.7451 C   0  0  0  0  0  0  0  0  0  0  0  0
   28.8907  -29.1465  -18.3473 O   0  0  0  0  0  0  0  0  0  0  0  0
   29.4386  -26.8350  -17.8477 C   0  0  0  0  0  0  0  0  0  0  0  0
   28.9606  -25.6828  -17.0531 C   0  0  0  0  0  0  0  0  0  0  0  0
   29.7644  -24.4487  -17.2376 C   0  0  2  0  0  0  0  0  0  0  0  0
   31.0620  -24.4769  -16.6639 N   0  0  0  0  0  0  0  0  0  0  0  0
   29.0419  -23.2366  -16.7165 C   0  0  0  0  0  0  0  0  0  0  0  0
   29.1650  -22.8721  -15.5197 O   0  0  0  0  0  0  0  0  0  0  0  0
   28.2010  -22.4692  -17.5564 N   0  0  0  0  0  0  0  0  0  0  0  0
   27.5165  -21.2815  -17.1529 C   0  0  1  0  0  0  0  0  0  0  0  0
   27.5542  -20.2286  -18.2354 C   0  0  0  0  0  0  0  0  0  0  0  0
   28.8083  -19.4382  -18.2404 C   0  0  0  0  0  0  0  0  0  0  0  0
   29.9223  -19.5551  -17.4082 C   0  0  0  0  0  0  0  0  0  0  0  0
   30.8391  -18.6575  -17.7439 N   0  0  0  0  0  0  0  0  0  0  0  0
   30.3556  -17.9426  -18.7879 C   0  0  0  0  0  0  0  0  0  0  0  0
   29.1235  -18.4249  -19.0797 N   0  0  0  0  0  0  0  0  0  0  0  0
   26.1058  -21.5144  -16.7561 C   0  0  0  0  0  0  0  0  0  0  0  0
   25.4452  -22.3675  -17.4022 O   0  0  0  0  0  0  0  0  0  0  0  0
   18.3997  -21.4167  -12.3640 O   0  0  0  0  0  0  0  0  0  0  0  0
   19.7363  -21.2372  -12.7347 C   0  0  0  0  0  0  0  0  0  0  0  0
   20.5994  -22.3126  -12.7672 C   0  0  0  0  0  0  0  0  0  0  0  0
   21.9086  -22.1518  -13.1273 C   0  0  0  0  0  0  0  0  0  0  0  0
   22.4412  -20.9213  -13.4753 C   0  0  0  0  0  0  0  0  0  0  0  0
   23.8628  -20.7445  -13.8537 C   0  0  0  0  0  0  0  0  0  0  0  0
   24.0755  -21.1094  -15.2887 C   0  0  2  0  0  0  0  0  0  0  0  0
   25.4640  -20.8363  -15.6998 N   0  0  0  0  0  0  0  0  0  0  0  0
   23.2210  -20.3465  -16.2206 C   0  0  0  0  0  0  0  0  0  0  0  0
   23.5793  -19.2248  -16.6808 O   0  0  0  0  0  0  0  0  0  0  0  0
   21.5557  -19.8420  -13.4381 C   0  0  0  0  0  0  0  0  0  0  0  0
   20.2336  -20.0014  -13.0753 C   0  0  0  0  0  0  0  0  0  0  0  0
   21.9718  -20.7814  -16.6706 O   0  0  0  0  0  0  0  0  0  0  0  0
  1  2  1  0
  2  3  2  0
  4  5  1  0
  4  2  1  0
  6  7  1  1
  6  5  1  0
  8  6  1  0
  8  9  2  0
 10  8  1  0
 11 18  1  0
 11 10  1  0
 11 12  1  6
 13 14  2  0
 13 12  1  0
 15 14  1  0
 16 17  2  0
 16 15  1  0
 17 13  1  0
 18 19  2  0
 20 21  1  0
 21 22  2  0
 21 31  1  0
 22 23  1  0
 23 24  2  0
 24 25  1  0
 26 25  1  1
 26 28  1  0
 27 18  1  0
 27 26  1  0
 28 29  2  0
 28 32  1  0
 30 24  1  0
 31 30  2  0
M  END
$$$$
