QHY.pdb
     RDKit          3D

 32 33  0  0  1  0  0  0  0  0999 V2000
   21.6703  -34.5914  -15.5126 N   0  0  0  0  0  0  0  0  0  0  0  0
   21.6516  -33.1447  -15.4666 C   0  0  0  0  0  0  0  0  0  0  0  0
   21.8063  -32.5663  -16.5639 O   0  0  0  0  0  0  0  0  0  0  0  0
   21.4532  -32.5011  -14.1631 C   0  0  0  0  0  0  0  0  0  0  0  0
   21.4082  -33.3903  -12.9820 C   0  0  0  0  0  0  0  0  0  0  0  0
   21.1104  -32.6870  -11.7094 C   0  0  2  0  0  0  0  0  0  0  0  0
   21.2823  -31.2786  -11.7385 N   0  0  0  0  0  0  0  0  0  0  0  0
   21.9222  -33.2401  -10.5702 C   0  0  0  0  0  0  0  0  0  0  0  0
   21.9867  -34.4778  -10.3599 O   0  0  0  0  0  0  0  0  0  0  0  0
   22.6379  -32.3851   -9.6994 N   0  0  0  0  0  0  0  0  0  0  0  0
   23.5031  -32.8318   -8.6535 C   0  0  1  0  0  0  0  0  0  0  0  0
   24.8004  -32.0579   -8.6429 C   0  0  0  0  0  0  0  0  0  0  0  0
   25.7445  -32.4825   -9.7039 C   0  0  0  0  0  0  0  0  0  0  0  0
   25.6280  -33.5359  -10.6118 C   0  0  0  0  0  0  0  0  0  0  0  0
   26.6922  -33.5771  -11.4021 N   0  0  0  0  0  0  0  0  0  0  0  0
   27.5183  -32.5675  -11.0372 C   0  0  0  0  0  0  0  0  0  0  0  0
   26.9331  -31.9112  -10.0064 N   0  0  0  0  0  0  0  0  0  0  0  0
   22.8895  -32.7623   -7.3043 C   0  0  0  0  0  0  0  0  0  0  0  0
   22.3917  -31.6666   -6.9392 O   0  0  0  0  0  0  0  0  0  0  0  0
   18.3323  -34.6332   -0.0609 O   0  0  0  0  0  0  0  0  0  0  0  0
   18.9338  -34.5931   -1.3229 C   0  0  0  0  0  0  0  0  0  0  0  0
   19.7168  -35.6437   -1.7538 C   0  0  0  0  0  0  0  0  0  0  0  0
   20.3112  -35.6178   -2.9849 C   0  0  0  0  0  0  0  0  0  0  0  0
   20.1677  -34.5543   -3.8607 C   0  0  0  0  0  0  0  0  0  0  0  0
   20.8216  -34.5204   -5.1899 C   0  0  0  0  0  0  0  0  0  0  0  0
   22.1291  -33.7974   -5.1157 C   0  0  2  0  0  0  0  0  0  0  0  0
   22.8325  -33.8503   -6.4095 N   0  0  0  0  0  0  0  0  0  0  0  0
   23.0615  -34.3720   -4.1253 C   0  0  0  0  0  0  0  0  0  0  0  0
   23.8638  -35.3000   -4.4312 O   0  0  0  0  0  0  0  0  0  0  0  0
   19.3720  -33.4982   -3.4112 C   0  0  0  0  0  0  0  0  0  0  0  0
   18.7707  -33.5218   -2.1691 C   0  0  0  0  0  0  0  0  0  0  0  0
   23.1442  -33.9543   -2.7946 O   0  0  0  0  0  0  0  0  0  0  0  0
  1  2  1  0
  2  3  2  0
  4  5  1  0
  4  2  1  0
  6  7  1  6
  6  5  1  0
  8  6  1  0
  8  9  2  0
 10  8  1  0
 11 18  1  0
 11 10  1  0
 11 12  1  1
 13 14  2  0
 13 12  1  0
 15 14  1  0
 16 17  2  0
 16 15  1  0
 17 13  1  0
 18 19  2  0
 20 21  1  0
 21 22  2  0
 21 31  1  0
 22 23  1  0
 23 24  2  0
 24 25  1  0
 26 25  1  6
 26 28  1  0
 27 18  1  0
 27 26  1  0
 28 29  2  0
 28 32  1  0
 30 24  1  0
 31 30  2  0
M  END
$$$$
