ITA.pdb
     RDKit          3D

 21 20  0  0  1  0  0  0  0  0999 V2000
    7.2846  -12.2691   18.9020 C   0  0  0  0  0  0  0  0  0  0  0  0
    8.2308  -13.4165   19.1027 C   0  0  0  0  0  0  0  0  0  0  0  0
    8.1157  -14.1180   20.3876 C   0  0  2  0  0  0  0  0  0  0  0  0
    8.2504  -13.0682   21.5149 C   0  0  0  0  0  0  0  0  0  0  0  0
    8.9145  -15.2998   20.7060 C   0  0  2  0  0  0  0  0  0  0  0  0
    8.6520  -16.2555   19.5833 N   0  0  0  0  0  0  0  0  0  0  0  0
    8.7999  -15.9671   21.9841 C   0  0  0  0  0  0  0  0  0  0  0  0
    8.1071  -17.0072   22.1291 O   0  0  0  0  0  0  0  0  0  0  0  0
    9.0630  -18.4439   23.2863 C   0  0  0  0  0  0  0  0  0  0  0  0
    9.8797  -17.6602   24.2803 C   0  0  1  0  0  0  0  0  0  0  0  0
   11.2065  -17.7662   23.9173 O   0  0  0  0  0  0  0  0  0  0  0  0
    9.3906  -16.2437   24.4448 C   0  0  2  0  0  0  0  0  0  0  0  0
    9.4482  -15.5231   23.1886 N   0  0  0  0  0  0  0  0  0  0  0  0
   10.1743  -15.5933   25.5043 C   0  0  0  0  0  0  0  0  0  0  0  0
   11.3906  -15.2815   25.3959 O   0  0  0  0  0  0  0  0  0  0  0  0
    9.2969  -13.5792   28.3813 C   0  0  0  0  0  0  0  0  0  0  0  0
   10.2563  -14.5924   27.7963 C   0  0  2  0  0  0  0  0  0  0  0  0
    9.5395  -15.2873   26.7313 N   0  0  0  0  0  0  0  0  0  0  0  0
   10.5552  -15.5825   28.8690 C   0  0  0  0  0  0  0  0  0  0  0  0
   11.2252  -15.2638   29.8851 O   0  0  0  0  0  0  0  0  0  0  0  0
   10.1100  -16.8959   28.7964 O   0  0  0  0  0  0  0  0  0  0  0  0
  2  1  1  0
  2  3  1  0
  3  5  1  0
  3  4  1  1
  5  6  1  6
  5  7  1  0
  7 13  1  0
  7  8  2  0
 10  9  1  6
 10 11  1  0
 12 10  1  0
 12 13  1  6
 14 15  2  0
 14 12  1  0
 17 16  1  1
 17 18  1  0
 18 14  1  0
 19 21  1  0
 19 17  1  0
 20 19  2  0
M  END
$$$$
