ITA.pdb
     RDKit          3D

 21 20  0  0  1  0  0  0  0  0999 V2000
    6.6043  -11.2600   27.1321 C   0  0  0  0  0  0  0  0  0  0  0  0
    6.0095  -12.3910   26.3452 C   0  0  0  0  0  0  0  0  0  0  0  0
    6.9436  -13.4552   25.9565 C   0  0  2  0  0  0  0  0  0  0  0  0
    8.1521  -12.7929   25.2552 C   0  0  0  0  0  0  0  0  0  0  0  0
    6.5149  -14.6349   25.2075 C   0  0  2  0  0  0  0  0  0  0  0  0
    5.4458  -15.2583   26.0506 N   0  0  0  0  0  0  0  0  0  0  0  0
    7.4628  -15.6324   24.7622 C   0  0  0  0  0  0  0  0  0  0  0  0
    7.7800  -16.6139   25.4826 O   0  0  0  0  0  0  0  0  0  0  0  0
   10.1304  -17.6221   20.9921 C   0  0  0  0  0  0  0  0  0  0  0  0
    9.3398  -16.4707   21.5566 C   0  0  1  0  0  0  0  0  0  0  0  0
    8.2444  -16.2682   20.7427 O   0  0  0  0  0  0  0  0  0  0  0  0
    9.0060  -16.6556   23.0150 C   0  0  2  0  0  0  0  0  0  0  0  0
    8.1231  -15.6065   23.4848 N   0  0  0  0  0  0  0  0  0  0  0  0
   10.2581  -16.7240   23.7814 C   0  0  0  0  0  0  0  0  0  0  0  0
   11.1089  -15.7957   23.8326 O   0  0  0  0  0  0  0  0  0  0  0  0
   11.4711  -19.1329   26.3379 C   0  0  0  0  0  0  0  0  0  0  0  0
   11.7053  -17.9705   25.3979 C   0  0  2  0  0  0  0  0  0  0  0  0
   10.5433  -17.8983   24.5174 N   0  0  0  0  0  0  0  0  0  0  0  0
   12.8914  -18.3141   24.5640 C   0  0  0  0  0  0  0  0  0  0  0  0
   14.0572  -18.0135   24.9294 O   0  0  0  0  0  0  0  0  0  0  0  0
   12.7646  -18.9786   23.3512 O   0  0  0  0  0  0  0  0  0  0  0  0
  2  1  1  0
  2  3  1  0
  3  5  1  0
  3  4  1  6
  5  6  1  1
  5  7  1  0
  7 13  1  0
  7  8  2  0
 10  9  1  6
 10 11  1  0
 12 10  1  0
 12 13  1  1
 14 15  2  0
 14 12  1  0
 17 16  1  1
 17 18  1  0
 18 14  1  0
 19 21  1  0
 19 17  1  0
 20 19  2  0
M  END
$$$$
