ITA.pdb
     RDKit          3D

 21 20  0  0  1  0  0  0  0  0999 V2000
    5.5264  -10.6932   26.4395 C   0  0  0  0  0  0  0  0  0  0  0  0
    5.2886  -12.0567   25.8597 C   0  0  0  0  0  0  0  0  0  0  0  0
    6.4571  -12.9453   25.8253 C   0  0  2  0  0  0  0  0  0  0  0  0
    7.5969  -12.2020   25.0906 C   0  0  0  0  0  0  0  0  0  0  0  0
    6.3740  -14.3261   25.3531 C   0  0  2  0  0  0  0  0  0  0  0  0
    5.2065  -14.9131   26.0844 N   0  0  0  0  0  0  0  0  0  0  0  0
    7.5141  -15.2142   25.4114 C   0  0  0  0  0  0  0  0  0  0  0  0
    7.8556  -15.7853   26.4792 O   0  0  0  0  0  0  0  0  0  0  0  0
   11.1984  -17.6498   22.9873 C   0  0  0  0  0  0  0  0  0  0  0  0
   10.1490  -16.5693   23.0077 C   0  0  1  0  0  0  0  0  0  0  0  0
    9.2786  -16.8029   21.9632 O   0  0  0  0  0  0  0  0  0  0  0  0
    9.4837  -16.4317   24.3535 C   0  0  2  0  0  0  0  0  0  0  0  0
    8.3526  -15.5279   24.2859 N   0  0  0  0  0  0  0  0  0  0  0  0
   10.4893  -16.0039   25.3361 C   0  0  0  0  0  0  0  0  0  0  0  0
   11.3925  -15.1566   25.1025 O   0  0  0  0  0  0  0  0  0  0  0  0
   10.6101  -15.0904   28.5043 C   0  0  0  0  0  0  0  0  0  0  0  0
   11.3678  -16.1056   27.6769 C   0  0  2  0  0  0  0  0  0  0  0  0
   10.4561  -16.5662   26.6341 N   0  0  0  0  0  0  0  0  0  0  0  0
   11.6659  -17.2619   28.5683 C   0  0  0  0  0  0  0  0  0  0  0  0
   12.4192  -17.1398   29.5685 O   0  0  0  0  0  0  0  0  0  0  0  0
   11.1281  -18.5212   28.3366 O   0  0  0  0  0  0  0  0  0  0  0  0
  2  1  1  0
  2  3  1  0
  3  5  1  0
  3  4  1  6
  5  6  1  1
  5  7  1  0
  7 13  1  0
  7  8  2  0
 10  9  1  1
 10 11  1  0
 12 10  1  0
 12 13  1  6
 14 15  2  0
 14 12  1  0
 17 16  1  1
 17 18  1  0
 18 14  1  0
 19 21  1  0
 19 17  1  0
 20 19  2  0
M  END
$$$$
