ITA.pdb
     RDKit          3D

 21 20  0  0  1  0  0  0  0  0999 V2000
    7.4317  -11.9909   19.0175 C   0  0  0  0  0  0  0  0  0  0  0  0
    7.8976  -13.3898   19.2967 C   0  0  0  0  0  0  0  0  0  0  0  0
    7.6650  -13.8767   20.6624 C   0  0  2  0  0  0  0  0  0  0  0  0
    8.3390  -12.8865   21.6403 C   0  0  0  0  0  0  0  0  0  0  0  0
    7.9580  -15.2519   21.0613 C   0  0  2  0  0  0  0  0  0  0  0  0
    7.1513  -16.1029   20.1299 N   0  0  0  0  0  0  0  0  0  0  0  0
    7.7947  -15.6927   22.4291 C   0  0  0  0  0  0  0  0  0  0  0  0
    6.6574  -15.8705   22.9370 O   0  0  0  0  0  0  0  0  0  0  0  0
    7.7914  -18.6000   24.1896 C   0  0  0  0  0  0  0  0  0  0  0  0
    8.8523  -17.8146   24.9154 C   0  0  1  0  0  0  0  0  0  0  0  0
   10.0817  -18.3222   24.5493 O   0  0  0  0  0  0  0  0  0  0  0  0
    8.7095  -16.3267   24.7186 C   0  0  2  0  0  0  0  0  0  0  0  0
    8.8853  -15.9659   23.3260 N   0  0  0  0  0  0  0  0  0  0  0  0
    9.6606  -15.6397   25.6035 C   0  0  0  0  0  0  0  0  0  0  0  0
   10.8371  -15.3298   25.2748 O   0  0  0  0  0  0  0  0  0  0  0  0
    9.1801  -13.5630   28.5548 C   0  0  0  0  0  0  0  0  0  0  0  0
   10.0965  -14.4847   27.7801 C   0  0  2  0  0  0  0  0  0  0  0  0
    9.2466  -15.2934   26.9114 N   0  0  0  0  0  0  0  0  0  0  0  0
   10.7391  -15.3954   28.7690 C   0  0  0  0  0  0  0  0  0  0  0  0
   11.5404  -14.9595   29.6356 O   0  0  0  0  0  0  0  0  0  0  0  0
   10.4841  -16.7605   28.7791 O   0  0  0  0  0  0  0  0  0  0  0  0
  2  1  1  0
  2  3  1  0
  3  5  1  0
  3  4  1  1
  5  6  1  6
  5  7  1  0
  7 13  1  0
  7  8  2  0
 10  9  1  6
 10 11  1  0
 12 10  1  0
 12 13  1  6
 14 15  2  0
 14 12  1  0
 17 16  1  1
 17 18  1  0
 18 14  1  0
 19 21  1  0
 19 17  1  0
 20 19  2  0
M  END
$$$$
