ITA.pdb
     RDKit          3D

 21 20  0  0  1  0  0  0  0  0999 V2000
   -5.2118  -18.8703   25.6497 C   0  0  0  0  0  0  0  0  0  0  0  0
   -4.8936  -19.6295   24.3950 C   0  0  0  0  0  0  0  0  0  0  0  0
   -3.4940  -20.0466   24.2422 C   0  0  2  0  0  0  0  0  0  0  0  0
   -2.6598  -18.7911   23.8970 C   0  0  0  0  0  0  0  0  0  0  0  0
   -3.1011  -21.1608   23.3816 C   0  0  2  0  0  0  0  0  0  0  0  0
   -3.9928  -22.2933   23.7874 N   0  0  0  0  0  0  0  0  0  0  0  0
   -1.7253  -21.5983   23.2933 C   0  0  0  0  0  0  0  0  0  0  0  0
   -1.1729  -22.2404   24.2236 O   0  0  0  0  0  0  0  0  0  0  0  0
   -0.1106  -24.1321   21.3565 C   0  0  0  0  0  0  0  0  0  0  0  0
    0.6542  -22.8771   21.0258 C   0  0  1  0  0  0  0  0  0  0  0  0
    0.2890  -22.4794   19.7563 O   0  0  0  0  0  0  0  0  0  0  0  0
    0.5026  -21.8102   22.0801 C   0  0  2  0  0  0  0  0  0  0  0  0
   -0.8697  -21.3515   22.1640 N   0  0  0  0  0  0  0  0  0  0  0  0
    1.4445  -20.7205   21.7884 C   0  0  0  0  0  0  0  0  0  0  0  0
    1.1163  -19.6209   21.2674 O   0  0  0  0  0  0  0  0  0  0  0  0
    4.0158  -19.1172   23.1470 C   0  0  0  0  0  0  0  0  0  0  0  0
    3.7886  -19.8464   21.8409 C   0  0  2  0  0  0  0  0  0  0  0  0
    2.8115  -20.8975   22.1080 N   0  0  0  0  0  0  0  0  0  0  0  0
    5.0765  -20.5004   21.4749 C   0  0  0  0  0  0  0  0  0  0  0  0
    5.2772  -21.7219   21.7003 O   0  0  0  0  0  0  0  0  0  0  0  0
    6.1091  -19.7948   20.8712 O   0  0  0  0  0  0  0  0  0  0  0  0
  2  1  1  0
  2  3  1  0
  3  5  1  0
  3  4  1  6
  5  6  1  1
  5  7  1  0
  7 13  1  0
  7  8  2  0
 10  9  1  1
 10 11  1  0
 12 10  1  0
 12 13  1  6
 14 15  2  0
 14 12  1  0
 17 16  1  1
 17 18  1  0
 18 14  1  0
 19 21  1  0
 19 17  1  0
 20 19  2  0
M  END
$$$$
