ITA.pdb
     RDKit          3D

 21 20  0  0  1  0  0  0  0  0999 V2000
    5.7380  -10.5611   26.6647 C   0  0  0  0  0  0  0  0  0  0  0  0
    5.4446  -11.8152   25.8944 C   0  0  0  0  0  0  0  0  0  0  0  0
    6.4985  -12.8375   25.9192 C   0  0  2  0  0  0  0  0  0  0  0  0
    7.8062  -12.1830   25.4163 C   0  0  0  0  0  0  0  0  0  0  0  0
    6.3264  -14.1510   25.3017 C   0  0  2  0  0  0  0  0  0  0  0  0
    4.9815  -14.6202   25.7640 N   0  0  0  0  0  0  0  0  0  0  0  0
    7.3150  -15.1949   25.4588 C   0  0  0  0  0  0  0  0  0  0  0  0
    7.4644  -15.8081   26.5473 O   0  0  0  0  0  0  0  0  0  0  0  0
    8.8996  -17.6088   22.3461 C   0  0  0  0  0  0  0  0  0  0  0  0
    9.8895  -16.9943   23.3009 C   0  0  1  0  0  0  0  0  0  0  0  0
   10.5298  -15.9639   22.6439 O   0  0  0  0  0  0  0  0  0  0  0  0
    9.2620  -16.6007   24.6139 C   0  0  2  0  0  0  0  0  0  0  0  0
    8.2056  -15.6283   24.4160 N   0  0  0  0  0  0  0  0  0  0  0  0
   10.3162  -16.1126   25.5139 C   0  0  0  0  0  0  0  0  0  0  0  0
   11.1161  -15.1814   25.2288 O   0  0  0  0  0  0  0  0  0  0  0  0
   10.8346  -15.2440   28.6315 C   0  0  0  0  0  0  0  0  0  0  0  0
   11.4845  -16.2634   27.7216 C   0  0  2  0  0  0  0  0  0  0  0  0
   10.4564  -16.7125   26.7877 N   0  0  0  0  0  0  0  0  0  0  0  0
   11.8708  -17.4250   28.5711 C   0  0  0  0  0  0  0  0  0  0  0  0
   11.2700  -18.5271   28.4848 O   0  0  0  0  0  0  0  0  0  0  0  0
   12.9067  -17.3444   29.4925 O   0  0  0  0  0  0  0  0  0  0  0  0
  2  1  1  0
  2  3  1  0
  3  5  1  0
  3  4  1  6
  5  6  1  1
  5  7  1  0
  7 13  1  0
  7  8  2  0
 10  9  1  6
 10 11  1  0
 12 10  1  0
 12 13  1  6
 14 15  2  0
 14 12  1  0
 17 16  1  1
 17 18  1  0
 18 14  1  0
 19 21  1  0
 19 17  1  0
 20 19  2  0
M  END
$$$$
