ITA.pdb
     RDKit          3D

 21 20  0  0  1  0  0  0  0  0999 V2000
    7.1918  -11.9736   19.2795 C   0  0  0  0  0  0  0  0  0  0  0  0
    7.8381  -13.3230   19.3946 C   0  0  0  0  0  0  0  0  0  0  0  0
    7.7684  -13.9502   20.7205 C   0  0  2  0  0  0  0  0  0  0  0  0
    8.3498  -12.9521   21.7485 C   0  0  0  0  0  0  0  0  0  0  0  0
    8.2869  -15.2924   20.9773 C   0  0  2  0  0  0  0  0  0  0  0  0
    7.5856  -16.1715   19.9884 N   0  0  0  0  0  0  0  0  0  0  0  0
    8.2483  -15.8768   22.2998 C   0  0  0  0  0  0  0  0  0  0  0  0
    7.2671  -16.5579   22.6952 O   0  0  0  0  0  0  0  0  0  0  0  0
    8.9774  -18.6534   23.6784 C   0  0  0  0  0  0  0  0  0  0  0  0
    9.7759  -17.7470   24.5784 C   0  0  1  0  0  0  0  0  0  0  0  0
   11.1037  -17.8549   24.2199 O   0  0  0  0  0  0  0  0  0  0  0  0
    9.2485  -16.3349   24.5955 C   0  0  2  0  0  0  0  0  0  0  0  0
    9.2985  -15.7436   23.2732 N   0  0  0  0  0  0  0  0  0  0  0  0
   10.0053  -15.5598   25.5887 C   0  0  0  0  0  0  0  0  0  0  0  0
   10.7420  -14.5765   25.3082 O   0  0  0  0  0  0  0  0  0  0  0  0
    9.5767  -13.8786   28.1368 C   0  0  0  0  0  0  0  0  0  0  0  0
   10.4846  -15.0810   27.9975 C   0  0  2  0  0  0  0  0  0  0  0  0
    9.9118  -15.9242   26.9527 N   0  0  0  0  0  0  0  0  0  0  0  0
   10.4155  -15.8327   29.2822 C   0  0  0  0  0  0  0  0  0  0  0  0
    9.7518  -16.8969   29.3826 O   0  0  0  0  0  0  0  0  0  0  0  0
   11.0776  -15.3951   30.4218 O   0  0  0  0  0  0  0  0  0  0  0  0
  2  1  1  0
  2  3  1  0
  3  5  1  0
  3  4  1  1
  5  6  1  6
  5  7  1  0
  7 13  1  0
  7  8  2  0
 10  9  1  6
 10 11  1  0
 12 10  1  0
 12 13  1  6
 14 15  2  0
 14 12  1  0
 17 16  1  1
 17 18  1  0
 18 14  1  0
 19 21  1  0
 19 17  1  0
 20 19  2  0
M  END
$$$$
