ITA.pdb
     RDKit          3D

 21 20  0  0  1  0  0  0  0  0999 V2000
    7.3735  -11.6159   19.5096 C   0  0  0  0  0  0  0  0  0  0  0  0
    8.1726  -12.7776   18.9958 C   0  0  0  0  0  0  0  0  0  0  0  0
    8.2442  -13.9432   19.8862 C   0  0  2  0  0  0  0  0  0  0  0  0
    8.7905  -13.4645   21.2513 C   0  0  0  0  0  0  0  0  0  0  0  0
    8.9023  -15.1873   19.4919 C   0  0  2  0  0  0  0  0  0  0  0  0
    8.2591  -15.5683   18.1944 N   0  0  0  0  0  0  0  0  0  0  0  0
    8.9669  -16.3234   20.3847 C   0  0  0  0  0  0  0  0  0  0  0  0
    7.9886  -17.0984   20.5432 O   0  0  0  0  0  0  0  0  0  0  0  0
    9.8061  -19.5557   20.4210 C   0  0  0  0  0  0  0  0  0  0  0  0
   10.6850  -19.0209   21.5213 C   0  0  1  0  0  0  0  0  0  0  0  0
   11.9678  -18.9124   21.0254 O   0  0  0  0  0  0  0  0  0  0  0  0
   10.1442  -17.7529   22.1315 C   0  0  2  0  0  0  0  0  0  0  0  0
   10.1243  -16.6752   21.1625 N   0  0  0  0  0  0  0  0  0  0  0  0
   10.9397  -17.4251   23.3229 C   0  0  0  0  0  0  0  0  0  0  0  0
   11.8805  -16.5868   23.3379 O   0  0  0  0  0  0  0  0  0  0  0  0
   10.4716  -17.1487   26.7325 C   0  0  0  0  0  0  0  0  0  0  0  0
   11.4155  -17.8065   25.7498 C   0  0  2  0  0  0  0  0  0  0  0  0
   10.6438  -18.0808   24.5414 N   0  0  0  0  0  0  0  0  0  0  0  0
   11.8215  -19.1129   26.3404 C   0  0  0  0  0  0  0  0  0  0  0  0
   11.2757  -20.1894   25.9851 O   0  0  0  0  0  0  0  0  0  0  0  0
   12.8162  -19.2013   27.3055 O   0  0  0  0  0  0  0  0  0  0  0  0
  2  1  1  0
  2  3  1  0
  3  5  1  0
  3  4  1  1
  5  6  1  6
  5  7  1  0
  7 13  1  0
  7  8  2  0
 10  9  1  6
 10 11  1  0
 12 10  1  0
 12 13  1  6
 14 15  2  0
 14 12  1  0
 17 16  1  1
 17 18  1  0
 18 14  1  0
 19 21  1  0
 19 17  1  0
 20 19  2  0
M  END
$$$$
