ITA.pdb
     RDKit          3D

 21 20  0  0  1  0  0  0  0  0999 V2000
    6.1573  -10.7615   26.0740 C   0  0  0  0  0  0  0  0  0  0  0  0
    6.2309  -11.9329   27.0090 C   0  0  0  0  0  0  0  0  0  0  0  0
    6.9651  -13.1015   26.5074 C   0  0  2  0  0  0  0  0  0  0  0  0
    8.3643  -12.6239   26.0543 C   0  0  0  0  0  0  0  0  0  0  0  0
    6.3997  -14.0104   25.5122 C   0  0  2  0  0  0  0  0  0  0  0  0
    5.0403  -14.3570   26.0360 N   0  0  0  0  0  0  0  0  0  0  0  0
    7.1045  -15.2005   25.0894 C   0  0  0  0  0  0  0  0  0  0  0  0
    7.1949  -16.2150   25.8280 O   0  0  0  0  0  0  0  0  0  0  0  0
    7.3918  -16.5071   21.1863 C   0  0  0  0  0  0  0  0  0  0  0  0
    8.6981  -16.5752   21.9334 C   0  0  1  0  0  0  0  0  0  0  0  0
    9.5306  -15.6007   21.4229 O   0  0  0  0  0  0  0  0  0  0  0  0
    8.5152  -16.5169   23.4287 C   0  0  2  0  0  0  0  0  0  0  0  0
    7.7573  -15.3437   23.8159 N   0  0  0  0  0  0  0  0  0  0  0  0
    9.8370  -16.5707   24.0688 C   0  0  0  0  0  0  0  0  0  0  0  0
   10.4383  -15.5674   24.5380 O   0  0  0  0  0  0  0  0  0  0  0  0
   11.1263  -17.8710   26.4777 C   0  0  0  0  0  0  0  0  0  0  0  0
   11.6407  -17.9939   25.0601 C   0  0  2  0  0  0  0  0  0  0  0  0
   10.4915  -17.8205   24.1769 N   0  0  0  0  0  0  0  0  0  0  0  0
   12.1393  -19.3883   24.8948 C   0  0  0  0  0  0  0  0  0  0  0  0
   11.4339  -20.2747   24.3473 O   0  0  0  0  0  0  0  0  0  0  0  0
   13.3994  -19.7712   25.3354 O   0  0  0  0  0  0  0  0  0  0  0  0
  2  1  1  0
  2  3  1  0
  3  5  1  0
  3  4  1  6
  5  6  1  1
  5  7  1  0
  7 13  1  0
  7  8  2  0
 10  9  1  6
 10 11  1  0
 12 10  1  0
 12 13  1  6
 14 15  2  0
 14 12  1  0
 17 16  1  1
 17 18  1  0
 18 14  1  0
 19 21  1  0
 19 17  1  0
 20 19  2  0
M  END
$$$$
