ITA.pdb
     RDKit          3D

 21 20  0  0  1  0  0  0  0  0999 V2000
    6.7525  -11.6537   27.1824 C   0  0  0  0  0  0  0  0  0  0  0  0
    6.2318  -12.7984   26.3636 C   0  0  0  0  0  0  0  0  0  0  0  0
    7.2251  -13.8101   25.9814 C   0  0  2  0  0  0  0  0  0  0  0  0
    8.4275  -13.0768   25.3428 C   0  0  0  0  0  0  0  0  0  0  0  0
    6.8757  -14.9856   25.1861 C   0  0  2  0  0  0  0  0  0  0  0  0
    5.8450  -15.7070   25.9982 N   0  0  0  0  0  0  0  0  0  0  0  0
    7.8872  -15.9033   24.7100 C   0  0  0  0  0  0  0  0  0  0  0  0
    8.2384  -16.9086   25.3802 O   0  0  0  0  0  0  0  0  0  0  0  0
   10.4950  -17.7254   20.8501 C   0  0  0  0  0  0  0  0  0  0  0  0
    9.6475  -16.6301   21.4426 C   0  0  1  0  0  0  0  0  0  0  0  0
    8.4489  -16.6040   20.7599 O   0  0  0  0  0  0  0  0  0  0  0  0
    9.5090  -16.7486   22.9391 C   0  0  2  0  0  0  0  0  0  0  0  0
    8.5775  -15.7657   23.4559 N   0  0  0  0  0  0  0  0  0  0  0  0
   10.8421  -16.6365   23.5474 C   0  0  0  0  0  0  0  0  0  0  0  0
   11.5201  -15.5746   23.5772 O   0  0  0  0  0  0  0  0  0  0  0  0
   12.9248  -19.0241   25.5181 C   0  0  0  0  0  0  0  0  0  0  0  0
   12.7387  -17.7267   24.7621 C   0  0  2  0  0  0  0  0  0  0  0  0
   11.4170  -17.7828   24.1451 N   0  0  0  0  0  0  0  0  0  0  0  0
   13.7532  -17.7065   23.6710 C   0  0  0  0  0  0  0  0  0  0  0  0
   14.8513  -17.1082   23.8096 O   0  0  0  0  0  0  0  0  0  0  0  0
   13.5339  -18.3442   22.4570 O   0  0  0  0  0  0  0  0  0  0  0  0
  2  1  1  0
  2  3  1  0
  3  5  1  0
  3  4  1  6
  5  6  1  1
  5  7  1  0
  7 13  1  0
  7  8  2  0
 10  9  1  6
 10 11  1  0
 12 10  1  0
 12 13  1  1
 14 15  2  0
 14 12  1  0
 17 16  1  1
 17 18  1  0
 18 14  1  0
 19 21  1  0
 19 17  1  0
 20 19  2  0
M  END
$$$$
