ITA.pdb
     RDKit          3D

 21 20  0  0  1  0  0  0  0  0999 V2000
    8.3502  -11.9645   27.2615 C   0  0  0  0  0  0  0  0  0  0  0  0
    7.7177  -13.2950   26.9759 C   0  0  0  0  0  0  0  0  0  0  0  0
    6.9402  -13.3754   25.7328 C   0  0  2  0  0  0  0  0  0  0  0  0
    5.7501  -12.3954   25.8534 C   0  0  0  0  0  0  0  0  0  0  0  0
    6.4859  -14.6487   25.1773 C   0  0  2  0  0  0  0  0  0  0  0  0
    5.6651  -15.2716   26.2640 N   0  0  0  0  0  0  0  0  0  0  0  0
    7.4177  -15.6076   24.6257 C   0  0  0  0  0  0  0  0  0  0  0  0
    7.7497  -16.6461   25.2535 O   0  0  0  0  0  0  0  0  0  0  0  0
    7.7135  -16.3163   20.6185 C   0  0  0  0  0  0  0  0  0  0  0  0
    9.0621  -16.3227   21.2899 C   0  0  1  0  0  0  0  0  0  0  0  0
    9.7560  -15.2108   20.8593 O   0  0  0  0  0  0  0  0  0  0  0  0
    8.9637  -16.4533   22.7885 C   0  0  2  0  0  0  0  0  0  0  0  0
    8.0442  -15.4769   23.3377 N   0  0  0  0  0  0  0  0  0  0  0  0
   10.3123  -16.3427   23.3620 C   0  0  0  0  0  0  0  0  0  0  0  0
   10.8098  -15.2712   23.8007 O   0  0  0  0  0  0  0  0  0  0  0  0
   12.6665  -18.7853   24.7248 C   0  0  0  0  0  0  0  0  0  0  0  0
   12.4498  -17.4571   24.0332 C   0  0  2  0  0  0  0  0  0  0  0  0
   11.1182  -17.5033   23.4370 N   0  0  0  0  0  0  0  0  0  0  0  0
   13.4443  -17.3725   22.9268 C   0  0  0  0  0  0  0  0  0  0  0  0
   13.1057  -17.5480   21.7278 O   0  0  0  0  0  0  0  0  0  0  0  0
   14.7841  -17.0972   23.1676 O   0  0  0  0  0  0  0  0  0  0  0  0
  2  1  1  0
  2  3  1  0
  3  5  1  0
  3  4  1  1
  5  6  1  1
  5  7  1  0
  7 13  1  0
  7  8  2  0
 10  9  1  6
 10 11  1  0
 12 10  1  0
 12 13  1  1
 14 15  2  0
 14 12  1  0
 17 16  1  6
 17 18  1  0
 18 14  1  0
 19 21  1  0
 19 17  1  0
 20 19  2  0
M  END
$$$$
