ITA.pdb
     RDKit          3D

 21 20  0  0  1  0  0  0  0  0999 V2000
    6.5225  -11.1961   27.6312 C   0  0  0  0  0  0  0  0  0  0  0  0
    5.8940  -12.3937   26.9810 C   0  0  0  0  0  0  0  0  0  0  0  0
    6.8153  -13.2838   26.2632 C   0  0  2  0  0  0  0  0  0  0  0  0
    7.6857  -12.4120   25.3286 C   0  0  0  0  0  0  0  0  0  0  0  0
    6.3546  -14.4746   25.5517 C   0  0  2  0  0  0  0  0  0  0  0  0
    5.6636  -15.3010   26.5919 N   0  0  0  0  0  0  0  0  0  0  0  0
    7.2622  -15.2869   24.7718 C   0  0  0  0  0  0  0  0  0  0  0  0
    7.9702  -16.1830   25.2998 O   0  0  0  0  0  0  0  0  0  0  0  0
    8.4953  -14.2126   20.8457 C   0  0  0  0  0  0  0  0  0  0  0  0
    8.2393  -15.6744   21.1045 C   0  0  1  0  0  0  0  0  0  0  0  0
    9.0961  -16.4035   20.3060 O   0  0  0  0  0  0  0  0  0  0  0  0
    8.3042  -16.0246   22.5693 C   0  0  2  0  0  0  0  0  0  0  0  0
    7.4446  -15.1581   23.3511 N   0  0  0  0  0  0  0  0  0  0  0  0
    9.7063  -15.9710   23.0063 C   0  0  0  0  0  0  0  0  0  0  0  0
   10.3036  -14.9134   23.3425 O   0  0  0  0  0  0  0  0  0  0  0  0
   12.1226  -18.5978   23.9955 C   0  0  0  0  0  0  0  0  0  0  0  0
   11.8280  -17.1849   23.5413 C   0  0  2  0  0  0  0  0  0  0  0  0
   10.4492  -17.1739   23.0620 N   0  0  0  0  0  0  0  0  0  0  0  0
   12.7188  -16.9036   22.3804 C   0  0  0  0  0  0  0  0  0  0  0  0
   12.2876  -16.9467   21.1993 O   0  0  0  0  0  0  0  0  0  0  0  0
   14.0594  -16.5826   22.5487 O   0  0  0  0  0  0  0  0  0  0  0  0
  2  1  1  0
  2  3  1  0
  3  5  1  0
  3  4  1  6
  5  6  1  1
  5  7  1  0
  7 13  1  0
  7  8  2  0
 10  9  1  1
 10 11  1  0
 12 10  1  0
 12 13  1  1
 14 15  2  0
 14 12  1  0
 17 16  1  6
 17 18  1  0
 18 14  1  0
 19 21  1  0
 19 17  1  0
 20 19  2  0
M  END
$$$$
