MHT.pdb
     RDKit          3D

 26 26  0  0  1  0  0  0  0  0999 V2000
    8.2112  -11.5108   20.4851 C   0  0  0  0  0  0  0  0  0  0  0  0
    7.5997  -12.6747   19.2466 S   0  0  0  0  0  0  0  0  0  0  0  0
    8.3661  -14.3112   19.4282 C   0  0  0  0  0  0  0  0  0  0  0  0
    8.4727  -14.6105   20.8899 C   0  0  0  0  0  0  0  0  0  0  0  0
    9.7105  -15.4159   21.2299 C   0  0  2  0  0  0  0  0  0  0  0  0
    9.9510  -16.4494   20.2749 N   0  0  0  0  0  0  0  0  0  0  0  0
    9.6047  -15.9526   22.6348 C   0  0  0  0  0  0  0  0  0  0  0  0
    8.6074  -15.6516   23.3352 O   0  0  0  0  0  0  0  0  0  0  0  0
   10.6181  -16.7911   23.1705 N   0  0  0  0  0  0  0  0  0  0  0  0
   10.5618  -17.4076   24.4568 C   0  0  1  0  0  0  0  0  0  0  0  0
   11.2114  -18.7399   24.5736 C   0  0  0  0  0  0  0  0  0  0  0  0
   10.5794  -19.8375   23.8454 C   0  0  0  0  0  0  0  0  0  0  0  0
    9.3980  -19.7390   23.1395 C   0  0  0  0  0  0  0  0  0  0  0  0
    9.1384  -20.9482   22.6159 N   0  0  0  0  0  0  0  0  0  0  0  0
   10.1247  -21.8175   22.9695 C   0  0  0  0  0  0  0  0  0  0  0  0
   11.0030  -21.1057   23.7293 N   0  0  0  0  0  0  0  0  0  0  0  0
   10.9348  -16.4421   25.5367 C   0  0  0  0  0  0  0  0  0  0  0  0
   11.9526  -15.7164   25.4653 O   0  0  0  0  0  0  0  0  0  0  0  0
    9.5103  -13.4062   26.9887 C   0  0  0  0  0  0  0  0  0  0  0  0
    9.5263  -14.3885   28.1404 C   0  0  1  0  0  0  0  0  0  0  0  0
    8.2695  -15.0231   28.1853 O   0  0  0  0  0  0  0  0  0  0  0  0
   10.5550  -15.4444   27.8271 C   0  0  2  0  0  0  0  0  0  0  0  0
   10.1539  -16.2864   26.7174 N   0  0  0  0  0  0  0  0  0  0  0  0
   10.8759  -16.2401   29.0325 C   0  0  0  0  0  0  0  0  0  0  0  0
   11.3155  -15.6178   30.1948 O   0  0  0  0  0  0  0  0  0  0  0  0
   10.7524  -17.4803   29.0104 O   0  0  0  0  0  0  0  0  0  0  0  0
  2  1  1  0
  3  2  1  0
  4  3  1  0
  4  5  1  0
  5  6  1  6
  7  5  1  0
  7  8  2  0
  9  7  1  0
 10  9  1  0
 11 12  1  0
 10 11  1  6
 12 16  1  0
 13 12  2  0
 13 14  1  0
 14 15  1  0
 16 15  2  0
 17 10  1  0
 18 17  2  0
 20 21  1  0
 20 19  1  6
 22 23  1  6
 22 20  1  0
 23 17  1  0
 24 22  1  0
 25 24  1  0
 26 24  2  0
M  END
$$$$
