MHT.pdb
     RDKit          3D

 26 26  0  0  1  0  0  0  0  0999 V2000
    8.2176  -11.8062   27.5064 C   0  0  0  0  0  0  0  0  0  0  0  0
    6.5929  -12.0417   26.7531 S   0  0  0  0  0  0  0  0  0  0  0  0
    6.0520  -13.7726   26.8530 C   0  0  0  0  0  0  0  0  0  0  0  0
    7.0411  -14.6084   26.1041 C   0  0  0  0  0  0  0  0  0  0  0  0
    6.4978  -15.1056   24.7797 C   0  0  2  0  0  0  0  0  0  0  0  0
    5.3609  -15.9510   24.9553 N   0  0  0  0  0  0  0  0  0  0  0  0
    7.5939  -15.7814   23.9956 C   0  0  0  0  0  0  0  0  0  0  0  0
    7.7630  -17.0195   24.1156 O   0  0  0  0  0  0  0  0  0  0  0  0
    8.4328  -15.0338   23.1271 N   0  0  0  0  0  0  0  0  0  0  0  0
    9.4879  -15.5912   22.3436 C   0  0  1  0  0  0  0  0  0  0  0  0
    9.8409  -14.8544   21.1013 C   0  0  0  0  0  0  0  0  0  0  0  0
    8.7300  -14.4799   20.2296 C   0  0  0  0  0  0  0  0  0  0  0  0
    7.6287  -15.2701   19.9715 C   0  0  0  0  0  0  0  0  0  0  0  0
    6.8342  -14.5921   19.1272 N   0  0  0  0  0  0  0  0  0  0  0  0
    7.4002  -13.3879   18.8390 C   0  0  0  0  0  0  0  0  0  0  0  0
    8.5714  -13.3436   19.5332 N   0  0  0  0  0  0  0  0  0  0  0  0
   10.6599  -15.9592   23.1972 C   0  0  0  0  0  0  0  0  0  0  0  0
   11.3234  -15.1061   23.8294 O   0  0  0  0  0  0  0  0  0  0  0  0
   11.1440  -18.8837   25.9319 C   0  0  0  0  0  0  0  0  0  0  0  0
   12.1002  -19.0356   24.7683 C   0  0  1  0  0  0  0  0  0  0  0  0
   11.4965  -19.8845   23.8201 O   0  0  0  0  0  0  0  0  0  0  0  0
   12.2589  -17.6813   24.1264 C   0  0  2  0  0  0  0  0  0  0  0  0
   11.0964  -17.3067   23.3456 N   0  0  0  0  0  0  0  0  0  0  0  0
   13.5013  -17.6213   23.3253 C   0  0  0  0  0  0  0  0  0  0  0  0
   14.7372  -17.8520   23.9178 O   0  0  0  0  0  0  0  0  0  0  0  0
   13.4445  -17.3618   22.1074 O   0  0  0  0  0  0  0  0  0  0  0  0
  2  1  1  0
  3  2  1  0
  4  3  1  0
  4  5  1  0
  5  6  1  1
  7  5  1  0
  7  8  2  0
  9  7  1  0
 10  9  1  0
 11 12  1  0
 10 11  1  6
 12 16  1  0
 13 12  2  0
 13 14  1  0
 14 15  1  0
 16 15  2  0
 17 10  1  0
 18 17  2  0
 20 21  1  0
 20 19  1  1
 22 23  1  6
 22 20  1  0
 23 17  1  0
 24 22  1  0
 25 24  1  0
 26 24  2  0
M  END
$$$$
