MHT.pdb
     RDKit          3D

 26 26  0  0  1  0  0  0  0  0999 V2000
    8.5396  -11.4750   20.2507 C   0  0  0  0  0  0  0  0  0  0  0  0
    7.4848  -12.3225   19.0543 S   0  0  0  0  0  0  0  0  0  0  0  0
    8.4595  -13.3065   17.8795 C   0  0  0  0  0  0  0  0  0  0  0  0
    9.5458  -13.9941   18.6444 C   0  0  0  0  0  0  0  0  0  0  0  0
   10.4304  -14.8477   17.7582 C   0  0  2  0  0  0  0  0  0  0  0  0
    9.6698  -15.7732   16.9816 N   0  0  0  0  0  0  0  0  0  0  0  0
   11.4832  -15.5339   18.5912 C   0  0  0  0  0  0  0  0  0  0  0  0
   11.3512  -16.7509   18.8695 O   0  0  0  0  0  0  0  0  0  0  0  0
   12.6169  -14.8197   19.0617 N   0  0  0  0  0  0  0  0  0  0  0  0
   13.6923  -15.4027   19.7975 C   0  0  1  0  0  0  0  0  0  0  0  0
   15.0431  -14.8358   19.5432 C   0  0  0  0  0  0  0  0  0  0  0  0
   15.5047  -14.8520   18.1572 C   0  0  0  0  0  0  0  0  0  0  0  0
   15.6732  -13.7323   17.3687 C   0  0  0  0  0  0  0  0  0  0  0  0
   16.1017  -14.1467   16.1652 N   0  0  0  0  0  0  0  0  0  0  0  0
   16.2114  -15.5038   16.1647 C   0  0  0  0  0  0  0  0  0  0  0  0
   15.8364  -15.9150   17.4080 N   0  0  0  0  0  0  0  0  0  0  0  0
   13.3442  -15.5430   21.2455 C   0  0  0  0  0  0  0  0  0  0  0  0
   13.8902  -14.8532   22.1364 O   0  0  0  0  0  0  0  0  0  0  0  0
    9.9134  -15.4441   22.9012 C   0  0  0  0  0  0  0  0  0  0  0  0
   10.5420  -16.7562   23.3191 C   0  0  1  0  0  0  0  0  0  0  0  0
   10.0660  -17.7595   22.4525 O   0  0  0  0  0  0  0  0  0  0  0  0
   12.0291  -16.6405   23.1033 C   0  0  2  0  0  0  0  0  0  0  0  0
   12.3670  -16.4722   21.7038 N   0  0  0  0  0  0  0  0  0  0  0  0
   12.7390  -17.7906   23.7054 C   0  0  0  0  0  0  0  0  0  0  0  0
   12.6587  -18.0355   25.0711 O   0  0  0  0  0  0  0  0  0  0  0  0
   13.4164  -18.5498   22.9854 O   0  0  0  0  0  0  0  0  0  0  0  0
  2  1  1  0
  3  2  1  0
  4  3  1  0
  4  5  1  0
  5  6  1  1
  7  5  1  0
  7  8  2  0
  9  7  1  0
 10  9  1  0
 11 12  1  0
 10 11  1  1
 12 16  1  0
 13 12  2  0
 13 14  1  0
 14 15  1  0
 16 15  2  0
 17 10  1  0
 18 17  2  0
 20 21  1  0
 20 19  1  6
 22 23  1  6
 22 20  1  0
 23 17  1  0
 24 22  1  0
 25 24  1  0
 26 24  2  0
M  END
$$$$
