MHT.pdb
     RDKit          3D

 26 26  0  0  1  0  0  0  0  0999 V2000
    8.4142  -11.3610   20.3370 C   0  0  0  0  0  0  0  0  0  0  0  0
    7.6201  -12.4290   19.1158 S   0  0  0  0  0  0  0  0  0  0  0  0
    6.9821  -13.9525   19.8712 C   0  0  0  0  0  0  0  0  0  0  0  0
    7.6422  -15.1129   19.1963 C   0  0  0  0  0  0  0  0  0  0  0  0
    8.9994  -15.4350   19.7885 C   0  0  2  0  0  0  0  0  0  0  0  0
    9.6625  -16.4717   19.0649 N   0  0  0  0  0  0  0  0  0  0  0  0
    8.8562  -15.7649   21.2526 C   0  0  0  0  0  0  0  0  0  0  0  0
    8.1933  -14.9990   21.9941 O   0  0  0  0  0  0  0  0  0  0  0  0
    9.4616  -16.9281   21.7979 N   0  0  0  0  0  0  0  0  0  0  0  0
    9.2953  -17.3711   23.1447 C   0  0  1  0  0  0  0  0  0  0  0  0
    9.7744  -18.7460   23.4459 C   0  0  0  0  0  0  0  0  0  0  0  0
    9.0501  -19.8417   22.8063 C   0  0  0  0  0  0  0  0  0  0  0  0
    7.9849  -19.6856   21.9433 C   0  0  0  0  0  0  0  0  0  0  0  0
    7.5848  -20.9120   21.5697 N   0  0  0  0  0  0  0  0  0  0  0  0
    8.3678  -21.8485   22.1725 C   0  0  0  0  0  0  0  0  0  0  0  0
    9.2657  -21.1605   22.9314 N   0  0  0  0  0  0  0  0  0  0  0  0
    9.7531  -16.3308   24.1172 C   0  0  0  0  0  0  0  0  0  0  0  0
   10.8469  -15.7339   23.9953 O   0  0  0  0  0  0  0  0  0  0  0  0
    8.0520  -13.1873   25.1578 C   0  0  0  0  0  0  0  0  0  0  0  0
    8.3118  -13.9219   26.4557 C   0  0  1  0  0  0  0  0  0  0  0  0
    7.1398  -14.6250   26.7969 O   0  0  0  0  0  0  0  0  0  0  0  0
    9.3913  -14.9412   26.1966 C   0  0  2  0  0  0  0  0  0  0  0  0
    8.9718  -15.9522   25.2462 N   0  0  0  0  0  0  0  0  0  0  0  0
    9.8635  -15.5409   27.4640 C   0  0  0  0  0  0  0  0  0  0  0  0
    9.8773  -16.9204   27.6322 O   0  0  0  0  0  0  0  0  0  0  0  0
   10.2536  -14.8064   28.3925 O   0  0  0  0  0  0  0  0  0  0  0  0
  2  1  1  0
  3  2  1  0
  4  3  1  0
  4  5  1  0
  5  6  1  6
  7  5  1  0
  7  8  2  0
  9  7  1  0
 10  9  1  0
 11 12  1  0
 10 11  1  6
 12 16  1  0
 13 12  2  0
 13 14  1  0
 14 15  1  0
 16 15  2  0
 17 10  1  0
 18 17  2  0
 20 21  1  0
 20 19  1  6
 22 23  1  6
 22 20  1  0
 23 17  1  0
 24 22  1  0
 25 24  1  0
 26 24  2  0
M  END
$$$$
