MHT.pdb
     RDKit          3D

 26 26  0  0  1  0  0  0  0  0999 V2000
    5.8687  -10.9785   27.7222 C   0  0  0  0  0  0  0  0  0  0  0  0
    7.0863  -12.0988   26.9977 S   0  0  0  0  0  0  0  0  0  0  0  0
    6.2992  -13.3625   25.9573 C   0  0  0  0  0  0  0  0  0  0  0  0
    7.3820  -14.1731   25.3184 C   0  0  0  0  0  0  0  0  0  0  0  0
    6.8392  -15.2285   24.3760 C   0  0  2  0  0  0  0  0  0  0  0  0
    6.0425  -16.1943   25.0619 N   0  0  0  0  0  0  0  0  0  0  0  0
    7.9713  -15.8650   23.6103 C   0  0  0  0  0  0  0  0  0  0  0  0
    8.2288  -17.0805   23.7896 O   0  0  0  0  0  0  0  0  0  0  0  0
    8.7452  -15.1058   22.6929 N   0  0  0  0  0  0  0  0  0  0  0  0
    9.7739  -15.6444   21.8625 C   0  0  1  0  0  0  0  0  0  0  0  0
   10.1880  -14.8066   20.7061 C   0  0  0  0  0  0  0  0  0  0  0  0
    9.1479  -14.4821   19.7328 C   0  0  0  0  0  0  0  0  0  0  0  0
    7.8706  -15.0040   19.7395 C   0  0  0  0  0  0  0  0  0  0  0  0
    7.2133  -14.4764   18.6939 N   0  0  0  0  0  0  0  0  0  0  0  0
    8.0387  -13.6299   18.0188 C   0  0  0  0  0  0  0  0  0  0  0  0
    9.2285  -13.6516   18.6816 N   0  0  0  0  0  0  0  0  0  0  0  0
   10.9096  -16.1718   22.6808 C   0  0  0  0  0  0  0  0  0  0  0  0
   11.8042  -15.4286   23.1443 O   0  0  0  0  0  0  0  0  0  0  0  0
   10.7694  -18.7267   25.7468 C   0  0  0  0  0  0  0  0  0  0  0  0
   11.6587  -19.2584   24.6432 C   0  0  1  0  0  0  0  0  0  0  0  0
   10.8733  -20.0831   23.8142 O   0  0  0  0  0  0  0  0  0  0  0  0
   12.1115  -18.0840   23.8143 C   0  0  2  0  0  0  0  0  0  0  0  0
   11.0456  -17.5563   22.9856 N   0  0  0  0  0  0  0  0  0  0  0  0
   13.3066  -18.4337   23.0154 C   0  0  0  0  0  0  0  0  0  0  0  0
   14.4755  -18.8552   23.6380 O   0  0  0  0  0  0  0  0  0  0  0  0
   13.2700  -18.3512   21.7722 O   0  0  0  0  0  0  0  0  0  0  0  0
  2  1  1  0
  3  2  1  0
  4  3  1  0
  4  5  1  0
  5  6  1  1
  7  5  1  0
  7  8  2  0
  9  7  1  0
 10  9  1  0
 11 12  1  0
 10 11  1  6
 12 16  1  0
 13 12  2  0
 13 14  1  0
 14 15  1  0
 16 15  2  0
 17 10  1  0
 18 17  2  0
 20 21  1  0
 20 19  1  1
 22 23  1  6
 22 20  1  0
 23 17  1  0
 24 22  1  0
 25 24  1  0
 26 24  2  0
M  END
$$$$
