MHT.pdb
     RDKit          3D

 26 26  0  0  1  0  0  0  0  0999 V2000
    8.1433  -11.6783   19.9128 C   0  0  0  0  0  0  0  0  0  0  0  0
    7.7295  -12.5447   18.3829 S   0  0  0  0  0  0  0  0  0  0  0  0
    7.8636  -14.3457   18.5749 C   0  0  0  0  0  0  0  0  0  0  0  0
    7.3912  -14.6990   19.9496 C   0  0  0  0  0  0  0  0  0  0  0  0
    7.3708  -16.1949   20.1910 C   0  0  2  0  0  0  0  0  0  0  0  0
    6.5158  -16.8705   19.2686 N   0  0  0  0  0  0  0  0  0  0  0  0
    6.9994  -16.4793   21.6243 C   0  0  0  0  0  0  0  0  0  0  0  0
    5.7884  -16.4979   21.9542 O   0  0  0  0  0  0  0  0  0  0  0  0
    8.0022  -16.7247   22.5995 N   0  0  0  0  0  0  0  0  0  0  0  0
    7.7463  -16.9318   23.9886 C   0  0  1  0  0  0  0  0  0  0  0  0
    7.8925  -18.3272   24.4807 C   0  0  0  0  0  0  0  0  0  0  0  0
    7.7037  -18.5341   25.9145 C   0  0  0  0  0  0  0  0  0  0  0  0
    8.6854  -18.9581   26.7864 C   0  0  0  0  0  0  0  0  0  0  0  0
    8.1345  -19.0342   28.0088 N   0  0  0  0  0  0  0  0  0  0  0  0
    6.8247  -18.6693   27.9402 C   0  0  0  0  0  0  0  0  0  0  0  0
    6.5837  -18.3650   26.6345 N   0  0  0  0  0  0  0  0  0  0  0  0
    8.4417  -15.9058   24.8261 C   0  0  0  0  0  0  0  0  0  0  0  0
    9.6540  -15.6295   24.6788 O   0  0  0  0  0  0  0  0  0  0  0  0
    7.1402  -12.2653   25.7108 C   0  0  0  0  0  0  0  0  0  0  0  0
    7.4513  -13.0246   26.9828 C   0  0  1  0  0  0  0  0  0  0  0  0
    6.2570  -13.6194   27.4347 O   0  0  0  0  0  0  0  0  0  0  0  0
    8.4051  -14.1370   26.6303 C   0  0  2  0  0  0  0  0  0  0  0  0
    7.7673  -15.1762   25.8464 N   0  0  0  0  0  0  0  0  0  0  0  0
    9.0490  -14.6825   27.8455 C   0  0  0  0  0  0  0  0  0  0  0  0
    9.7674  -13.8532   28.6987 O   0  0  0  0  0  0  0  0  0  0  0  0
    8.9492  -15.8963   28.1110 O   0  0  0  0  0  0  0  0  0  0  0  0
  2  1  1  0
  3  2  1  0
  4  3  1  0
  4  5  1  0
  5  6  1  6
  7  5  1  0
  7  8  2  0
  9  7  1  0
 10  9  1  0
 11 12  1  0
 10 11  1  1
 12 16  1  0
 13 12  2  0
 13 14  1  0
 14 15  1  0
 16 15  2  0
 17 10  1  0
 18 17  2  0
 20 21  1  0
 20 19  1  6
 22 23  1  1
 22 20  1  0
 23 17  1  0
 24 22  1  0
 25 24  1  0
 26 24  2  0
M  END
$$$$
