MHT.pdb
     RDKit          3D

 26 26  0  0  1  0  0  0  0  0999 V2000
    8.5433  -11.7055   20.9135 C   0  0  0  0  0  0  0  0  0  0  0  0
    8.0478  -12.2317   19.2582 S   0  0  0  0  0  0  0  0  0  0  0  0
    7.5850  -13.9876   19.2233 C   0  0  0  0  0  0  0  0  0  0  0  0
    8.7955  -14.7756   18.8341 C   0  0  0  0  0  0  0  0  0  0  0  0
    8.5505  -16.2707   18.8636 C   0  0  2  0  0  0  0  0  0  0  0  0
    7.4187  -16.6394   18.0756 N   0  0  0  0  0  0  0  0  0  0  0  0
    8.4292  -16.7437   20.2901 C   0  0  0  0  0  0  0  0  0  0  0  0
    7.3140  -16.6893   20.8638 O   0  0  0  0  0  0  0  0  0  0  0  0
    9.5595  -17.2472   20.9871 N   0  0  0  0  0  0  0  0  0  0  0  0
    9.5294  -17.7451   22.3246 C   0  0  1  0  0  0  0  0  0  0  0  0
   10.4218  -18.8984   22.6145 C   0  0  0  0  0  0  0  0  0  0  0  0
   10.3223  -19.4774   23.9522 C   0  0  0  0  0  0  0  0  0  0  0  0
    9.4292  -19.0722   24.9227 C   0  0  0  0  0  0  0  0  0  0  0  0
    9.6428  -19.8309   26.0101 N   0  0  0  0  0  0  0  0  0  0  0  0
   10.6506  -20.7112   25.7589 C   0  0  0  0  0  0  0  0  0  0  0  0
   11.0531  -20.4718   24.4798 N   0  0  0  0  0  0  0  0  0  0  0  0
    9.6174  -16.6312   23.3191 C   0  0  0  0  0  0  0  0  0  0  0  0
   10.5842  -15.8363   23.3520 O   0  0  0  0  0  0  0  0  0  0  0  0
    7.1831  -13.7946   24.2743 C   0  0  0  0  0  0  0  0  0  0  0  0
    7.4137  -14.6365   25.5110 C   0  0  1  0  0  0  0  0  0  0  0  0
    6.3802  -15.5909   25.5835 O   0  0  0  0  0  0  0  0  0  0  0  0
    8.7078  -15.3850   25.3204 C   0  0  2  0  0  0  0  0  0  0  0  0
    8.6045  -16.4032   24.2939 N   0  0  0  0  0  0  0  0  0  0  0  0
    9.1852  -15.9453   26.6039 C   0  0  0  0  0  0  0  0  0  0  0  0
    9.3719  -15.1235   27.7090 O   0  0  0  0  0  0  0  0  0  0  0  0
    9.4237  -17.1650   26.7000 O   0  0  0  0  0  0  0  0  0  0  0  0
  2  1  1  0
  3  2  1  0
  4  3  1  0
  4  5  1  0
  5  6  1  6
  7  5  1  0
  7  8  2  0
  9  7  1  0
 10  9  1  0
 11 12  1  0
 10 11  1  6
 12 16  1  0
 13 12  2  0
 13 14  1  0
 14 15  1  0
 16 15  2  0
 17 10  1  0
 18 17  2  0
 20 21  1  0
 20 19  1  6
 22 23  1  6
 22 20  1  0
 23 17  1  0
 24 22  1  0
 25 24  1  0
 26 24  2  0
M  END
$$$$
