MHT.pdb
     RDKit          3D

 26 26  0  0  1  0  0  0  0  0999 V2000
    5.6880  -12.8034   26.4417 C   0  0  0  0  0  0  0  0  0  0  0  0
    6.5727  -11.7596   25.2626 S   0  0  0  0  0  0  0  0  0  0  0  0
    6.9106  -12.6392   23.7101 C   0  0  0  0  0  0  0  0  0  0  0  0
    7.4695  -13.9835   24.0543 C   0  0  0  0  0  0  0  0  0  0  0  0
    7.7769  -14.8172   22.8268 C   0  0  2  0  0  0  0  0  0  0  0  0
    6.6186  -15.0178   22.0168 N   0  0  0  0  0  0  0  0  0  0  0  0
    8.4170  -16.1192   23.2369 C   0  0  0  0  0  0  0  0  0  0  0  0
    7.6894  -17.1117   23.4843 O   0  0  0  0  0  0  0  0  0  0  0  0
    9.8285  -16.2323   23.3455 N   0  0  0  0  0  0  0  0  0  0  0  0
   10.5140  -17.3991   23.8000 C   0  0  1  0  0  0  0  0  0  0  0  0
   11.8283  -17.6766   23.1625 C   0  0  0  0  0  0  0  0  0  0  0  0
   11.8440  -17.7325   21.7027 C   0  0  0  0  0  0  0  0  0  0  0  0
   10.9656  -18.4661   20.9318 C   0  0  0  0  0  0  0  0  0  0  0  0
   11.2970  -18.2702   19.6451 N   0  0  0  0  0  0  0  0  0  0  0  0
   12.3655  -17.4295   19.5742 C   0  0  0  0  0  0  0  0  0  0  0  0
   12.6841  -17.1119   20.8599 N   0  0  0  0  0  0  0  0  0  0  0  0
   10.5245  -17.4734   25.2939 C   0  0  0  0  0  0  0  0  0  0  0  0
   11.1564  -16.6565   26.0017 O   0  0  0  0  0  0  0  0  0  0  0  0
    7.4958  -18.0623   27.7674 C   0  0  0  0  0  0  0  0  0  0  0  0
    8.5521  -19.1184   28.0131 C   0  0  1  0  0  0  0  0  0  0  0  0
    8.1975  -20.2649   27.2755 O   0  0  0  0  0  0  0  0  0  0  0  0
    9.8529  -18.6041   27.4517 C   0  0  2  0  0  0  0  0  0  0  0  0
    9.8144  -18.4805   26.0080 N   0  0  0  0  0  0  0  0  0  0  0  0
   10.9872  -19.4407   27.9015 C   0  0  0  0  0  0  0  0  0  0  0  0
   11.1880  -19.6931   29.2534 O   0  0  0  0  0  0  0  0  0  0  0  0
   11.7728  -19.9261   27.0643 O   0  0  0  0  0  0  0  0  0  0  0  0
  2  1  1  0
  3  2  1  0
  4  3  1  0
  4  5  1  0
  5  6  1  1
  7  5  1  0
  7  8  2  0
  9  7  1  0
 10  9  1  0
 11 12  1  0
 10 11  1  1
 12 16  1  0
 13 12  2  0
 13 14  1  0
 14 15  1  0
 16 15  2  0
 17 10  1  0
 18 17  2  0
 20 21  1  0
 20 19  1  6
 22 23  1  6
 22 20  1  0
 23 17  1  0
 24 22  1  0
 25 24  1  0
 26 24  2  0
M  END
$$$$
