MHT.pdb
     RDKit          3D

 26 26  0  0  1  0  0  0  0  0999 V2000
    6.3942  -11.2491   27.8991 C   0  0  0  0  0  0  0  0  0  0  0  0
    6.9658  -12.2975   26.5439 S   0  0  0  0  0  0  0  0  0  0  0  0
    5.6356  -13.3596   25.9107 C   0  0  0  0  0  0  0  0  0  0  0  0
    6.1772  -14.1349   24.7517 C   0  0  0  0  0  0  0  0  0  0  0  0
    7.4723  -14.8483   25.0834 C   0  0  2  0  0  0  0  0  0  0  0  0
    8.4415  -13.9595   25.6389 N   0  0  0  0  0  0  0  0  0  0  0  0
    7.9913  -15.5655   23.8630 C   0  0  0  0  0  0  0  0  0  0  0  0
    7.2796  -16.4430   23.3157 O   0  0  0  0  0  0  0  0  0  0  0  0
    9.2715  -15.2593   23.3300 N   0  0  0  0  0  0  0  0  0  0  0  0
    9.8907  -15.9664   22.2555 C   0  0  1  0  0  0  0  0  0  0  0  0
   10.0731  -15.2069   20.9905 C   0  0  0  0  0  0  0  0  0  0  0  0
    8.8829  -14.5605   20.4427 C   0  0  0  0  0  0  0  0  0  0  0  0
    8.7440  -13.2023   20.2432 C   0  0  0  0  0  0  0  0  0  0  0  0
    7.5193  -12.9922   19.7335 N   0  0  0  0  0  0  0  0  0  0  0  0
    6.8717  -14.1825   19.6022 C   0  0  0  0  0  0  0  0  0  0  0  0
    7.7366  -15.1359   20.0477 N   0  0  0  0  0  0  0  0  0  0  0  0
   11.1118  -16.6952   22.7196 C   0  0  0  0  0  0  0  0  0  0  0  0
   12.2084  -16.1189   22.9012 O   0  0  0  0  0  0  0  0  0  0  0  0
   11.7634  -18.7119   25.8743 C   0  0  0  0  0  0  0  0  0  0  0  0
   11.9274  -19.6486   24.6965 C   0  0  1  0  0  0  0  0  0  0  0  0
   10.6827  -20.2626   24.4556 O   0  0  0  0  0  0  0  0  0  0  0  0
   12.2597  -18.8110   23.4884 C   0  0  2  0  0  0  0  0  0  0  0  0
   11.1045  -18.0944   22.9853 N   0  0  0  0  0  0  0  0  0  0  0  0
   12.8963  -19.6343   22.4367 C   0  0  0  0  0  0  0  0  0  0  0  0
   14.0899  -20.3014   22.6858 O   0  0  0  0  0  0  0  0  0  0  0  0
   12.3611  -19.7338   21.3153 O   0  0  0  0  0  0  0  0  0  0  0  0
  2  1  1  0
  3  2  1  0
  4  3  1  0
  4  5  1  0
  5  6  1  6
  7  5  1  0
  7  8  2  0
  9  7  1  0
 10  9  1  0
 11 12  1  0
 10 11  1  6
 12 16  1  0
 13 12  2  0
 13 14  1  0
 14 15  1  0
 16 15  2  0
 17 10  1  0
 18 17  2  0
 20 21  1  0
 20 19  1  1
 22 23  1  6
 22 20  1  0
 23 17  1  0
 24 22  1  0
 25 24  1  0
 26 24  2  0
M  END
$$$$
