MHT.pdb
     RDKit          3D

 26 26  0  0  1  0  0  0  0  0999 V2000
    8.2124  -11.7998   21.1166 C   0  0  0  0  0  0  0  0  0  0  0  0
    7.3771  -13.0212   20.0808 S   0  0  0  0  0  0  0  0  0  0  0  0
    8.2961  -14.5864   20.0161 C   0  0  0  0  0  0  0  0  0  0  0  0
    7.5503  -15.5219   19.1181 C   0  0  0  0  0  0  0  0  0  0  0  0
    8.2628  -16.8471   18.9380 C   0  0  2  0  0  0  0  0  0  0  0  0
    7.4051  -17.8394   18.3743 N   0  0  0  0  0  0  0  0  0  0  0  0
    8.8620  -17.2908   20.2485 C   0  0  0  0  0  0  0  0  0  0  0  0
    8.1977  -18.0383   21.0073 O   0  0  0  0  0  0  0  0  0  0  0  0
   10.1644  -16.8726   20.6304 N   0  0  0  0  0  0  0  0  0  0  0  0
   10.8670  -17.3581   21.7742 C   0  0  1  0  0  0  0  0  0  0  0  0
   12.3342  -17.5378   21.6142 C   0  0  0  0  0  0  0  0  0  0  0  0
   12.7660  -18.6885   20.8243 C   0  0  0  0  0  0  0  0  0  0  0  0
   11.9502  -19.7333   20.4413 C   0  0  0  0  0  0  0  0  0  0  0  0
   12.7018  -20.5955   19.7374 N   0  0  0  0  0  0  0  0  0  0  0  0
   13.9781  -20.1278   19.6609 C   0  0  0  0  0  0  0  0  0  0  0  0
   13.9909  -18.9475   20.3409 N   0  0  0  0  0  0  0  0  0  0  0  0
   10.4671  -16.6165   23.0103 C   0  0  0  0  0  0  0  0  0  0  0  0
   10.8869  -15.4652   23.2671 O   0  0  0  0  0  0  0  0  0  0  0  0
    7.3726  -15.2798   24.2369 C   0  0  0  0  0  0  0  0  0  0  0  0
    7.7592  -16.2486   25.3340 C   0  0  1  0  0  0  0  0  0  0  0  0
    7.0969  -17.4673   25.0881 O   0  0  0  0  0  0  0  0  0  0  0  0
    9.2394  -16.5066   25.2162 C   0  0  2  0  0  0  0  0  0  0  0  0
    9.5810  -17.1742   23.9757 N   0  0  0  0  0  0  0  0  0  0  0  0
    9.7394  -17.2480   26.3949 C   0  0  0  0  0  0  0  0  0  0  0  0
    9.5715  -16.7365   27.6762 O   0  0  0  0  0  0  0  0  0  0  0  0
   10.3173  -18.3419   26.2427 O   0  0  0  0  0  0  0  0  0  0  0  0
  2  1  1  0
  3  2  1  0
  4  3  1  0
  4  5  1  0
  5  6  1  1
  7  5  1  0
  7  8  2  0
  9  7  1  0
 10  9  1  0
 11 12  1  0
 10 11  1  6
 12 16  1  0
 13 12  2  0
 13 14  1  0
 14 15  1  0
 16 15  2  0
 17 10  1  0
 18 17  2  0
 20 21  1  0
 20 19  1  6
 22 23  1  6
 22 20  1  0
 23 17  1  0
 24 22  1  0
 25 24  1  0
 26 24  2  0
M  END
$$$$
