MHT.pdb
     RDKit          3D

 26 26  0  0  1  0  0  0  0  0999 V2000
    5.3216  -12.0513   28.0602 C   0  0  0  0  0  0  0  0  0  0  0  0
    7.0607  -12.4768   27.8215 S   0  0  0  0  0  0  0  0  0  0  0  0
    7.2653  -14.2150   27.3363 C   0  0  0  0  0  0  0  0  0  0  0  0
    6.2807  -14.5090   26.2493 C   0  0  0  0  0  0  0  0  0  0  0  0
    6.3846  -15.9323   25.7398 C   0  0  2  0  0  0  0  0  0  0  0  0
    6.9178  -16.8132   26.7286 N   0  0  0  0  0  0  0  0  0  0  0  0
    7.1819  -15.9634   24.4605 C   0  0  0  0  0  0  0  0  0  0  0  0
    7.9873  -16.9052   24.2600 O   0  0  0  0  0  0  0  0  0  0  0  0
    7.0310  -14.9420   23.4854 N   0  0  0  0  0  0  0  0  0  0  0  0
    7.6776  -14.9365   22.2128 C   0  0  1  0  0  0  0  0  0  0  0  0
    7.2506  -13.8729   21.2656 C   0  0  0  0  0  0  0  0  0  0  0  0
    7.7979  -13.9487   19.9132 C   0  0  0  0  0  0  0  0  0  0  0  0
    8.5419  -12.9575   19.3065 C   0  0  0  0  0  0  0  0  0  0  0  0
    8.8586  -13.3874   18.0742 N   0  0  0  0  0  0  0  0  0  0  0  0
    8.3357  -14.6290   17.8779 C   0  0  0  0  0  0  0  0  0  0  0  0
    7.6848  -14.9528   19.0299 N   0  0  0  0  0  0  0  0  0  0  0  0
    9.1600  -15.0750   22.3581 C   0  0  0  0  0  0  0  0  0  0  0  0
    9.8342  -14.3244   23.0995 O   0  0  0  0  0  0  0  0  0  0  0  0
   11.2763  -17.5998   23.8904 C   0  0  0  0  0  0  0  0  0  0  0  0
   11.6363  -17.6310   22.4204 C   0  0  1  0  0  0  0  0  0  0  0  0
   10.7913  -18.5636   21.7877 O   0  0  0  0  0  0  0  0  0  0  0  0
   11.3240  -16.2740   21.8437 C   0  0  2  0  0  0  0  0  0  0  0  0
    9.9003  -16.0720   21.6610 N   0  0  0  0  0  0  0  0  0  0  0  0
   12.0761  -16.0498   20.5895 C   0  0  0  0  0  0  0  0  0  0  0  0
   13.4648  -15.9937   20.5974 O   0  0  0  0  0  0  0  0  0  0  0  0
   11.4633  -15.9094   19.5131 O   0  0  0  0  0  0  0  0  0  0  0  0
  2  1  1  0
  3  2  1  0
  4  3  1  0
  4  5  1  0
  5  6  1  1
  7  5  1  0
  7  8  2  0
  9  7  1  0
 10  9  1  0
 11 12  1  0
 10 11  1  1
 12 16  1  0
 13 12  2  0
 13 14  1  0
 14 15  1  0
 16 15  2  0
 17 10  1  0
 18 17  2  0
 20 21  1  0
 20 19  1  1
 22 23  1  6
 22 20  1  0
 23 17  1  0
 24 22  1  0
 25 24  1  0
 26 24  2  0
M  END
$$$$
