MHT.pdb
     RDKit          3D

 26 26  0  0  1  0  0  0  0  0999 V2000
    7.4129  -11.2823   26.5663 C   0  0  0  0  0  0  0  0  0  0  0  0
    6.1214  -11.8599   25.4434 S   0  0  0  0  0  0  0  0  0  0  0  0
    5.5040  -13.5005   25.9187 C   0  0  0  0  0  0  0  0  0  0  0  0
    6.6473  -14.4623   25.8449 C   0  0  0  0  0  0  0  0  0  0  0  0
    6.6968  -15.2067   24.5259 C   0  0  2  0  0  0  0  0  0  0  0  0
    5.4805  -15.9072   24.2649 N   0  0  0  0  0  0  0  0  0  0  0  0
    7.8968  -16.1190   24.4953 C   0  0  0  0  0  0  0  0  0  0  0  0
    7.7905  -17.2906   24.9334 O   0  0  0  0  0  0  0  0  0  0  0  0
    9.1399  -15.6672   23.9782 N   0  0  0  0  0  0  0  0  0  0  0  0
   10.3266  -16.4583   23.9178 C   0  0  1  0  0  0  0  0  0  0  0  0
   11.0835  -16.4073   22.6391 C   0  0  0  0  0  0  0  0  0  0  0  0
   10.3090  -16.6075   21.4166 C   0  0  0  0  0  0  0  0  0  0  0  0
    9.9878  -15.6140   20.5146 C   0  0  0  0  0  0  0  0  0  0  0  0
    9.2694  -16.1789   19.5305 N   0  0  0  0  0  0  0  0  0  0  0  0
    9.1233  -17.5091   19.7809 C   0  0  0  0  0  0  0  0  0  0  0  0
    9.7753  -17.7482   20.9528 N   0  0  0  0  0  0  0  0  0  0  0  0
   11.1669  -16.2682   25.1407 C   0  0  0  0  0  0  0  0  0  0  0  0
   12.2040  -15.5667   25.1394 O   0  0  0  0  0  0  0  0  0  0  0  0
   10.6563  -14.5122   28.0389 C   0  0  0  0  0  0  0  0  0  0  0  0
   10.9198  -15.8809   28.6294 C   0  0  1  0  0  0  0  0  0  0  0  0
    9.6752  -16.4959   28.8684 O   0  0  0  0  0  0  0  0  0  0  0  0
   11.6357  -16.6996   27.5860 C   0  0  2  0  0  0  0  0  0  0  0  0
   10.8397  -16.8743   26.3872 N   0  0  0  0  0  0  0  0  0  0  0  0
   12.0769  -17.9959   28.1462 C   0  0  0  0  0  0  0  0  0  0  0  0
   12.9982  -18.0407   29.1859 O   0  0  0  0  0  0  0  0  0  0  0  0
   11.6212  -19.0605   27.6850 O   0  0  0  0  0  0  0  0  0  0  0  0
  2  1  1  0
  3  2  1  0
  4  3  1  0
  4  5  1  0
  5  6  1  1
  7  5  1  0
  7  8  2  0
  9  7  1  0
 10  9  1  0
 11 12  1  0
 10 11  1  6
 12 16  1  0
 13 12  2  0
 13 14  1  0
 14 15  1  0
 16 15  2  0
 17 10  1  0
 18 17  2  0
 20 21  1  0
 20 19  1  6
 22 23  1  6
 22 20  1  0
 23 17  1  0
 24 22  1  0
 25 24  1  0
 26 24  2  0
M  END
$$$$
