MHT.pdb
     RDKit          3D

 26 26  0  0  1  0  0  0  0  0999 V2000
    7.0509  -11.4734   19.2269 C   0  0  0  0  0  0  0  0  0  0  0  0
    8.0881  -12.9292   19.4862 S   0  0  0  0  0  0  0  0  0  0  0  0
    7.7166  -14.2399   18.2851 C   0  0  0  0  0  0  0  0  0  0  0  0
    8.5475  -15.4338   18.6340 C   0  0  0  0  0  0  0  0  0  0  0  0
    9.9334  -15.0567   19.1174 C   0  0  2  0  0  0  0  0  0  0  0  0
   10.7408  -14.5354   18.0618 N   0  0  0  0  0  0  0  0  0  0  0  0
   10.5791  -16.2368   19.7982 C   0  0  0  0  0  0  0  0  0  0  0  0
    9.9053  -16.9296   20.5994 O   0  0  0  0  0  0  0  0  0  0  0  0
   11.9358  -16.5699   19.5429 N   0  0  0  0  0  0  0  0  0  0  0  0
   12.6286  -17.6613   20.1484 C   0  0  1  0  0  0  0  0  0  0  0  0
   13.8835  -18.0934   19.4781 C   0  0  0  0  0  0  0  0  0  0  0  0
   13.7510  -18.5994   18.1140 C   0  0  0  0  0  0  0  0  0  0  0  0
   12.6628  -19.2993   17.6344 C   0  0  0  0  0  0  0  0  0  0  0  0
   12.9090  -19.5968   16.3481 N   0  0  0  0  0  0  0  0  0  0  0  0
   14.1277  -19.1044   15.9933 C   0  0  0  0  0  0  0  0  0  0  0  0
   14.6272  -18.4924   17.1030 N   0  0  0  0  0  0  0  0  0  0  0  0
   12.7526  -17.4706   21.6269 C   0  0  0  0  0  0  0  0  0  0  0  0
   13.5706  -16.6695   22.1335 O   0  0  0  0  0  0  0  0  0  0  0  0
   10.0909  -16.5943   24.1934 C   0  0  0  0  0  0  0  0  0  0  0  0
   10.7058  -17.8994   24.6517 C   0  0  1  0  0  0  0  0  0  0  0  0
    9.8989  -18.9498   24.1722 O   0  0  0  0  0  0  0  0  0  0  0  0
   12.0542  -18.0272   23.9907 C   0  0  2  0  0  0  0  0  0  0  0  0
   11.9458  -18.1896   22.5544 N   0  0  0  0  0  0  0  0  0  0  0  0
   12.8418  -19.1165   24.6089 C   0  0  0  0  0  0  0  0  0  0  0  0
   13.1452  -19.0887   25.9649 O   0  0  0  0  0  0  0  0  0  0  0  0
   13.2393  -20.0700   23.9114 O   0  0  0  0  0  0  0  0  0  0  0  0
  2  1  1  0
  3  2  1  0
  4  3  1  0
  4  5  1  0
  5  6  1  6
  7  5  1  0
  7  8  2  0
  9  7  1  0
 10  9  1  0
 11 12  1  0
 10 11  1  6
 12 16  1  0
 13 12  2  0
 13 14  1  0
 14 15  1  0
 16 15  2  0
 17 10  1  0
 18 17  2  0
 20 21  1  0
 20 19  1  6
 22 23  1  6
 22 20  1  0
 23 17  1  0
 24 22  1  0
 25 24  1  0
 26 24  2  0
M  END
$$$$
