MHT.pdb
     RDKit          3D

 26 26  0  0  1  0  0  0  0  0999 V2000
    6.0689  -11.2166   26.0023 C   0  0  0  0  0  0  0  0  0  0  0  0
    5.9371  -12.4532   27.3123 S   0  0  0  0  0  0  0  0  0  0  0  0
    5.3082  -14.0354   26.6801 C   0  0  0  0  0  0  0  0  0  0  0  0
    6.4795  -14.8508   26.2319 C   0  0  0  0  0  0  0  0  0  0  0  0
    6.2962  -15.4146   24.8373 C   0  0  2  0  0  0  0  0  0  0  0  0
    5.2272  -16.3591   24.7821 N   0  0  0  0  0  0  0  0  0  0  0  0
    7.5962  -15.9968   24.3433 C   0  0  0  0  0  0  0  0  0  0  0  0
    7.8389  -17.2131   24.5371 O   0  0  0  0  0  0  0  0  0  0  0  0
    8.5440  -15.1858   23.6644 N   0  0  0  0  0  0  0  0  0  0  0  0
    9.8125  -15.6436   23.1961 C   0  0  1  0  0  0  0  0  0  0  0  0
   10.3714  -14.9312   22.0168 C   0  0  0  0  0  0  0  0  0  0  0  0
    9.4245  -14.5776   20.9619 C   0  0  0  0  0  0  0  0  0  0  0  0
    8.0904  -14.9294   20.9490 C   0  0  0  0  0  0  0  0  0  0  0  0
    7.5524  -14.4315   19.8236 N   0  0  0  0  0  0  0  0  0  0  0  0
    8.5096  -13.7701   19.1166 C   0  0  0  0  0  0  0  0  0  0  0  0
    9.6576  -13.8754   19.8422 N   0  0  0  0  0  0  0  0  0  0  0  0
   10.7765  -15.8169   24.3267 C   0  0  0  0  0  0  0  0  0  0  0  0
   12.0123  -15.9074   24.1464 O   0  0  0  0  0  0  0  0  0  0  0  0
   11.0793  -13.7031   27.5154 C   0  0  0  0  0  0  0  0  0  0  0  0
   10.8909  -15.1391   27.9556 C   0  0  1  0  0  0  0  0  0  0  0  0
    9.5199  -15.3369   28.2114 O   0  0  0  0  0  0  0  0  0  0  0  0
   11.2671  -16.0262   26.7967 C   0  0  2  0  0  0  0  0  0  0  0  0
   10.3491  -15.8898   25.6832 N   0  0  0  0  0  0  0  0  0  0  0  0
   11.3967  -17.4341   27.2326 C   0  0  0  0  0  0  0  0  0  0  0  0
   12.2698  -17.7803   28.2570 O   0  0  0  0  0  0  0  0  0  0  0  0
   10.7188  -18.3217   26.6791 O   0  0  0  0  0  0  0  0  0  0  0  0
  2  1  1  0
  3  2  1  0
  4  3  1  0
  4  5  1  0
  5  6  1  1
  7  5  1  0
  7  8  2  0
  9  7  1  0
 10  9  1  0
 11 12  1  0
 10 11  1  6
 12 16  1  0
 13 12  2  0
 13 14  1  0
 14 15  1  0
 16 15  2  0
 17 10  1  0
 18 17  2  0
 20 21  1  0
 20 19  1  6
 22 23  1  6
 22 20  1  0
 23 17  1  0
 24 22  1  0
 25 24  1  0
 26 24  2  0
M  END
$$$$
