MHT.pdb
     RDKit          3D

 26 26  0  0  1  0  0  0  0  0999 V2000
    7.2133  -12.3981   28.4296 C   0  0  0  0  0  0  0  0  0  0  0  0
    5.8942  -11.9494   27.2802 S   0  0  0  0  0  0  0  0  0  0  0  0
    5.3763  -13.3654   26.2678 C   0  0  0  0  0  0  0  0  0  0  0  0
    6.6078  -14.0890   25.8233 C   0  0  0  0  0  0  0  0  0  0  0  0
    6.3008  -15.2344   24.8798 C   0  0  2  0  0  0  0  0  0  0  0  0
    5.3979  -16.1748   25.4617 N   0  0  0  0  0  0  0  0  0  0  0  0
    7.5833  -15.8834   24.4247 C   0  0  0  0  0  0  0  0  0  0  0  0
    7.8462  -17.0536   24.7952 O   0  0  0  0  0  0  0  0  0  0  0  0
    8.4922  -15.1863   23.5851 N   0  0  0  0  0  0  0  0  0  0  0  0
    9.7124  -15.7322   23.0843 C   0  0  1  0  0  0  0  0  0  0  0  0
   10.2301  -15.1333   21.8257 C   0  0  0  0  0  0  0  0  0  0  0  0
    9.2351  -14.7842   20.8144 C   0  0  0  0  0  0  0  0  0  0  0  0
    8.8042  -13.5022   20.5412 C   0  0  0  0  0  0  0  0  0  0  0  0
    7.8897  -13.5838   19.5610 N   0  0  0  0  0  0  0  0  0  0  0  0
    7.7252  -14.8864   19.2007 C   0  0  0  0  0  0  0  0  0  0  0  0
    8.5685  -15.6078   19.9907 N   0  0  0  0  0  0  0  0  0  0  0  0
   10.7325  -15.8643   24.1703 C   0  0  0  0  0  0  0  0  0  0  0  0
   11.9304  -16.1421   23.9350 O   0  0  0  0  0  0  0  0  0  0  0  0
   11.0266  -13.6541   27.4837 C   0  0  0  0  0  0  0  0  0  0  0  0
   11.0052  -15.1211   27.8565 C   0  0  1  0  0  0  0  0  0  0  0  0
    9.6861  -15.4559   28.2201 O   0  0  0  0  0  0  0  0  0  0  0  0
   11.3483  -15.9125   26.6206 C   0  0  2  0  0  0  0  0  0  0  0  0
   10.4052  -15.6818   25.5443 N   0  0  0  0  0  0  0  0  0  0  0  0
   11.4790  -17.3519   26.9373 C   0  0  0  0  0  0  0  0  0  0  0  0
   10.5878  -18.2770   26.4068 O   0  0  0  0  0  0  0  0  0  0  0  0
   12.3953  -17.7434   27.6863 O   0  0  0  0  0  0  0  0  0  0  0  0
  2  1  1  0
  3  2  1  0
  4  3  1  0
  4  5  1  0
  5  6  1  1
  7  5  1  0
  7  8  2  0
  9  7  1  0
 10  9  1  0
 11 12  1  0
 10 11  1  6
 12 16  1  0
 13 12  2  0
 13 14  1  0
 14 15  1  0
 16 15  2  0
 17 10  1  0
 18 17  2  0
 20 21  1  0
 20 19  1  6
 22 23  1  6
 22 20  1  0
 23 17  1  0
 24 22  1  0
 25 24  1  0
 26 24  2  0
M  END
$$$$
