MHT.pdb
     RDKit          3D

 26 26  0  0  1  0  0  0  0  0999 V2000
    7.7306  -13.4146   15.1082 C   0  0  0  0  0  0  0  0  0  0  0  0
    7.2157  -13.4059   16.8395 S   0  0  0  0  0  0  0  0  0  0  0  0
    8.6388  -13.5136   17.9629 C   0  0  0  0  0  0  0  0  0  0  0  0
    8.1158  -13.6782   19.3547 C   0  0  0  0  0  0  0  0  0  0  0  0
    9.2191  -13.6872   20.3933 C   0  0  2  0  0  0  0  0  0  0  0  0
   10.4294  -14.2423   19.8783 N   0  0  0  0  0  0  0  0  0  0  0  0
    8.7495  -14.4003   21.6359 C   0  0  0  0  0  0  0  0  0  0  0  0
    7.6111  -14.1449   22.0991 O   0  0  0  0  0  0  0  0  0  0  0  0
    9.5793  -15.3533   22.2841 N   0  0  0  0  0  0  0  0  0  0  0  0
    9.2329  -16.0443   23.4842 C   0  0  1  0  0  0  0  0  0  0  0  0
    9.7949  -17.4122   23.6380 C   0  0  0  0  0  0  0  0  0  0  0  0
    9.3973  -18.3953   22.6330 C   0  0  0  0  0  0  0  0  0  0  0  0
   10.0659  -18.6270   21.4484 C   0  0  0  0  0  0  0  0  0  0  0  0
    9.4011  -19.5917   20.7917 N   0  0  0  0  0  0  0  0  0  0  0  0
    8.3241  -19.9825   21.5270 C   0  0  0  0  0  0  0  0  0  0  0  0
    8.3447  -19.2274   22.6606 N   0  0  0  0  0  0  0  0  0  0  0  0
    9.4066  -15.1672   24.6834 C   0  0  0  0  0  0  0  0  0  0  0  0
   10.5034  -14.6378   24.9739 O   0  0  0  0  0  0  0  0  0  0  0  0
    7.1654  -12.2002   25.7026 C   0  0  0  0  0  0  0  0  0  0  0  0
    7.2563  -13.1186   26.9026 C   0  0  1  0  0  0  0  0  0  0  0  0
    6.1226  -13.9545   26.8944 O   0  0  0  0  0  0  0  0  0  0  0  0
    8.4669  -13.9967   26.7163 C   0  0  2  0  0  0  0  0  0  0  0  0
    8.3327  -14.8775   25.5728 N   0  0  0  0  0  0  0  0  0  0  0  0
    8.7681  -14.7470   27.9554 C   0  0  0  0  0  0  0  0  0  0  0  0
    9.1083  -14.0760   29.1239 O   0  0  0  0  0  0  0  0  0  0  0  0
    8.7175  -15.9925   27.9564 O   0  0  0  0  0  0  0  0  0  0  0  0
  2  1  1  0
  3  2  1  0
  4  3  1  0
  4  5  1  0
  5  6  1  6
  7  5  1  0
  7  8  2  0
  9  7  1  0
 10  9  1  0
 11 12  1  0
 10 11  1  1
 12 16  1  0
 13 12  2  0
 13 14  1  0
 14 15  1  0
 16 15  2  0
 17 10  1  0
 18 17  2  0
 20 21  1  0
 20 19  1  6
 22 23  1  6
 22 20  1  0
 23 17  1  0
 24 22  1  0
 25 24  1  0
 26 24  2  0
M  END
$$$$
