MHT.pdb
     RDKit          3D

 26 26  0  0  1  0  0  0  0  0999 V2000
    7.9391  -11.2764   25.8898 C   0  0  0  0  0  0  0  0  0  0  0  0
    6.4397  -12.2458   25.6168 S   0  0  0  0  0  0  0  0  0  0  0  0
    6.8206  -13.9096   24.9961 C   0  0  0  0  0  0  0  0  0  0  0  0
    7.4876  -13.7633   23.6651 C   0  0  0  0  0  0  0  0  0  0  0  0
    7.6529  -15.0883   22.9486 C   0  0  2  0  0  0  0  0  0  0  0  0
    6.4143  -15.7890   22.8347 N   0  0  0  0  0  0  0  0  0  0  0  0
    8.7129  -15.9138   23.6326 C   0  0  0  0  0  0  0  0  0  0  0  0
    8.3696  -16.7929   24.4604 O   0  0  0  0  0  0  0  0  0  0  0  0
   10.0893  -15.7069   23.3506 N   0  0  0  0  0  0  0  0  0  0  0  0
   11.1493  -16.5206   23.8527 C   0  0  1  0  0  0  0  0  0  0  0  0
   12.3128  -16.7129   22.9472 C   0  0  0  0  0  0  0  0  0  0  0  0
   12.0346  -17.3321   21.6535 C   0  0  0  0  0  0  0  0  0  0  0  0
   10.8731  -18.0050   21.3346 C   0  0  0  0  0  0  0  0  0  0  0  0
   10.9894  -18.4330   20.0669 N   0  0  0  0  0  0  0  0  0  0  0  0
   12.1967  -18.0503   19.5673 C   0  0  0  0  0  0  0  0  0  0  0  0
   12.8233  -17.3713   20.5683 N   0  0  0  0  0  0  0  0  0  0  0  0
   11.5127  -16.1340   25.2513 C   0  0  0  0  0  0  0  0  0  0  0  0
   12.4281  -15.3184   25.5053 O   0  0  0  0  0  0  0  0  0  0  0  0
   10.2287  -14.2689   27.9520 C   0  0  0  0  0  0  0  0  0  0  0  0
   10.2964  -15.6565   28.5532 C   0  0  1  0  0  0  0  0  0  0  0  0
    9.0341  -16.2603   28.3911 O   0  0  0  0  0  0  0  0  0  0  0  0
   11.2872  -16.4568   27.7474 C   0  0  2  0  0  0  0  0  0  0  0  0
   10.8388  -16.6702   26.3855 N   0  0  0  0  0  0  0  0  0  0  0  0
   11.6094  -17.7315   28.4258 C   0  0  0  0  0  0  0  0  0  0  0  0
   12.0632  -17.7390   29.7395 O   0  0  0  0  0  0  0  0  0  0  0  0
   11.4745  -18.8113   27.8180 O   0  0  0  0  0  0  0  0  0  0  0  0
  2  1  1  0
  3  2  1  0
  4  3  1  0
  4  5  1  0
  5  6  1  1
  7  5  1  0
  7  8  2  0
  9  7  1  0
 10  9  1  0
 11 12  1  0
 10 11  1  6
 12 16  1  0
 13 12  2  0
 13 14  1  0
 14 15  1  0
 16 15  2  0
 17 10  1  0
 18 17  2  0
 20 21  1  0
 20 19  1  6
 22 23  1  6
 22 20  1  0
 23 17  1  0
 24 22  1  0
 25 24  1  0
 26 24  2  0
M  END
$$$$
