GIE.pdb
     RDKit          3D

 22 21  0  0  1  0  0  0  0  0999 V2000
    7.0414  -14.6651   19.4948 N   0  0  0  0  0  0  0  0  0  0  0  0
    6.3573  -14.9206   20.7360 C   0  0  0  0  0  0  0  0  0  0  0  0
    7.3131  -14.6686   21.8630 C   0  0  0  0  0  0  0  0  0  0  0  0
    8.5265  -14.8351   21.6147 O   0  0  0  0  0  0  0  0  0  0  0  0
    6.9562  -11.5867   27.2029 C   0  0  0  0  0  0  0  0  0  0  0  0
    7.7238  -12.4767   26.2418 C   0  0  0  0  0  0  0  0  0  0  0  0
    6.7809  -13.0646   25.1906 C   0  0  2  0  0  0  0  0  0  0  0  0
    5.7027  -13.8292   25.9373 C   0  0  0  0  0  0  0  0  0  0  0  0
    7.6040  -13.8895   24.2615 C   0  0  2  0  0  0  0  0  0  0  0  0
    6.7965  -14.2643   23.1196 N   0  0  0  0  0  0  0  0  0  0  0  0
    8.2898  -15.0464   24.8355 C   0  0  0  0  0  0  0  0  0  0  0  0
    7.5890  -16.0402   25.1586 O   0  0  0  0  0  0  0  0  0  0  0  0
    9.6801  -15.1253   25.0496 N   0  0  0  0  0  0  0  0  0  0  0  0
   10.3842  -16.3698   25.3630 C   0  0  1  0  0  0  0  0  0  0  0  0
   11.7590  -16.2399   24.8091 C   0  0  0  0  0  0  0  0  0  0  0  0
   12.7027  -17.3616   25.0701 C   0  0  0  0  0  0  0  0  0  0  0  0
   14.0021  -17.1270   24.4359 C   0  0  0  0  0  0  0  0  0  0  0  0
   14.2207  -16.1347   23.7193 O   0  0  0  0  0  0  0  0  0  0  0  0
   10.4396  -16.6137   26.8402 C   0  0  0  0  0  0  0  0  0  0  0  0
   10.6420  -17.7609   27.3102 O   0  0  0  0  0  0  0  0  0  0  0  0
   15.0324  -18.0652   24.6526 O   0  0  0  0  0  0  0  0  0  0  0  0
   10.2706  -15.6041   27.7740 O   0  0  0  0  0  0  0  0  0  0  0  0
  2  3  1  0
  2  1  1  0
  3 10  1  0
  4  3  2  0
  6  5  1  0
  7  6  1  0
  7  8  1  1
  9  7  1  0
  9 11  1  0
  9 10  1  6
 11 13  1  0
 11 12  2  0
 13 14  1  0
 14 19  1  0
 14 15  1  1
 16 15  1  0
 17 21  1  0
 17 16  1  0
 18 17  2  0
 19 22  1  0
 20 19  2  0
M  END
$$$$
