GIE.pdb
     RDKit          3D

 22 21  0  0  1  0  0  0  0  0999 V2000
    7.4566  -13.8156   19.5419 N   0  0  0  0  0  0  0  0  0  0  0  0
    6.7144  -14.2018   20.7141 C   0  0  0  0  0  0  0  0  0  0  0  0
    7.6212  -14.0977   21.9031 C   0  0  0  0  0  0  0  0  0  0  0  0
    8.8401  -14.2779   21.6941 O   0  0  0  0  0  0  0  0  0  0  0  0
    7.3568  -11.7064   27.5526 C   0  0  0  0  0  0  0  0  0  0  0  0
    8.0053  -12.6585   26.5638 C   0  0  0  0  0  0  0  0  0  0  0  0
    7.0487  -12.9615   25.4094 C   0  0  2  0  0  0  0  0  0  0  0  0
    5.8249  -13.6306   26.0089 C   0  0  0  0  0  0  0  0  0  0  0  0
    7.7917  -13.7891   24.4172 C   0  0  2  0  0  0  0  0  0  0  0  0
    7.0561  -13.8070   23.1702 N   0  0  0  0  0  0  0  0  0  0  0  0
    8.1725  -15.1379   24.8340 C   0  0  0  0  0  0  0  0  0  0  0  0
    7.2856  -16.0300   24.8074 O   0  0  0  0  0  0  0  0  0  0  0  0
    9.4633  -15.5073   25.2609 N   0  0  0  0  0  0  0  0  0  0  0  0
    9.8584  -16.8860   25.5537 C   0  0  1  0  0  0  0  0  0  0  0  0
   11.0196  -17.1983   24.6773 C   0  0  0  0  0  0  0  0  0  0  0  0
   12.3174  -16.5528   25.0177 C   0  0  0  0  0  0  0  0  0  0  0  0
   13.3353  -16.8277   24.0010 C   0  0  0  0  0  0  0  0  0  0  0  0
   14.3554  -16.1275   23.8776 O   0  0  0  0  0  0  0  0  0  0  0  0
   10.2332  -17.0570   26.9941 C   0  0  0  0  0  0  0  0  0  0  0  0
   10.3030  -16.0766   27.7763 O   0  0  0  0  0  0  0  0  0  0  0  0
   13.1410  -17.9263   23.1384 O   0  0  0  0  0  0  0  0  0  0  0  0
   10.5270  -18.2911   27.5514 O   0  0  0  0  0  0  0  0  0  0  0  0
  2  3  1  0
  2  1  1  0
  3 10  1  0
  4  3  2  0
  6  5  1  0
  7  6  1  0
  7  8  1  1
  9  7  1  0
  9 11  1  0
  9 10  1  6
 11 13  1  0
 11 12  2  0
 13 14  1  0
 14 19  1  0
 14 15  1  6
 16 15  1  0
 17 21  1  0
 17 16  1  0
 18 17  2  0
 19 22  1  0
 20 19  2  0
M  END
$$$$
