GIE.pdb
     RDKit          3D

 22 21  0  0  1  0  0  0  0  0999 V2000
    4.7070  -17.9805   22.4443 N   0  0  0  0  0  0  0  0  0  0  0  0
    4.9281  -17.5884   23.8122 C   0  0  0  0  0  0  0  0  0  0  0  0
    6.1024  -16.6576   23.8532 C   0  0  0  0  0  0  0  0  0  0  0  0
    6.8538  -16.6614   22.8545 O   0  0  0  0  0  0  0  0  0  0  0  0
    5.5935  -12.1546   26.7218 C   0  0  0  0  0  0  0  0  0  0  0  0
    6.1504  -13.1005   25.6731 C   0  0  0  0  0  0  0  0  0  0  0  0
    7.1813  -14.0421   26.2978 C   0  0  2  0  0  0  0  0  0  0  0  0
    8.3654  -13.1902   26.7184 C   0  0  0  0  0  0  0  0  0  0  0  0
    7.4942  -15.0956   25.2910 C   0  0  2  0  0  0  0  0  0  0  0  0
    6.2894  -15.8434   24.9983 N   0  0  0  0  0  0  0  0  0  0  0  0
    8.6166  -15.9837   25.5901 C   0  0  0  0  0  0  0  0  0  0  0  0
    8.4457  -16.8649   26.4718 O   0  0  0  0  0  0  0  0  0  0  0  0
    9.8743  -15.9217   24.9583 N   0  0  0  0  0  0  0  0  0  0  0  0
   10.9556  -16.8768   25.2061 C   0  0  1  0  0  0  0  0  0  0  0  0
   12.0678  -16.5191   24.2846 C   0  0  0  0  0  0  0  0  0  0  0  0
   13.2987  -17.3541   24.3531 C   0  0  0  0  0  0  0  0  0  0  0  0
   14.2329  -17.0205   23.2755 C   0  0  0  0  0  0  0  0  0  0  0  0
   15.1005  -16.1385   23.3993 O   0  0  0  0  0  0  0  0  0  0  0  0
   11.4217  -16.8234   26.6289 C   0  0  0  0  0  0  0  0  0  0  0  0
   11.3360  -15.7714   27.3099 O   0  0  0  0  0  0  0  0  0  0  0  0
   14.1354  -17.7303   22.0608 O   0  0  0  0  0  0  0  0  0  0  0  0
   11.9737  -17.9154   27.2789 O   0  0  0  0  0  0  0  0  0  0  0  0
  2  3  1  0
  2  1  1  0
  3 10  1  0
  4  3  2  0
  6  5  1  0
  7  6  1  0
  7  8  1  6
  9  7  1  0
  9 11  1  0
  9 10  1  1
 11 13  1  0
 11 12  2  0
 13 14  1  0
 14 19  1  0
 14 15  1  6
 16 15  1  0
 17 21  1  0
 17 16  1  0
 18 17  2  0
 19 22  1  0
 20 19  2  0
M  END
$$$$
