GIE.pdb
     RDKit          3D

 22 21  0  0  1  0  0  0  0  0999 V2000
    5.4358  -18.9686   24.4137 N   0  0  0  0  0  0  0  0  0  0  0  0
    5.6813  -17.9936   25.4446 C   0  0  0  0  0  0  0  0  0  0  0  0
    6.4893  -16.8766   24.8559 C   0  0  0  0  0  0  0  0  0  0  0  0
    7.0179  -17.0945   23.7446 O   0  0  0  0  0  0  0  0  0  0  0  0
    5.2038  -11.9474   26.5223 C   0  0  0  0  0  0  0  0  0  0  0  0
    5.7438  -13.0670   25.6507 C   0  0  0  0  0  0  0  0  0  0  0  0
    7.1913  -13.3860   26.0284 C   0  0  2  0  0  0  0  0  0  0  0  0
    8.0211  -12.1615   25.6864 C   0  0  0  0  0  0  0  0  0  0  0  0
    7.5804  -14.6284   25.3030 C   0  0  2  0  0  0  0  0  0  0  0  0
    6.6051  -15.6625   25.5784 N   0  0  0  0  0  0  0  0  0  0  0  0
    8.9455  -15.1121   25.5048 C   0  0  0  0  0  0  0  0  0  0  0  0
    9.3679  -15.1932   26.6872 O   0  0  0  0  0  0  0  0  0  0  0  0
    9.8186  -15.4950   24.4675 N   0  0  0  0  0  0  0  0  0  0  0  0
   11.1266  -16.1122   24.6932 C   0  0  1  0  0  0  0  0  0  0  0  0
   10.8826  -17.3909   25.4138 C   0  0  0  0  0  0  0  0  0  0  0  0
   12.0610  -18.2693   25.6518 C   0  0  0  0  0  0  0  0  0  0  0  0
   11.6919  -19.4671   26.4097 C   0  0  0  0  0  0  0  0  0  0  0  0
   11.3186  -20.5148   25.8538 O   0  0  0  0  0  0  0  0  0  0  0  0
   11.8430  -16.3709   23.4031 C   0  0  0  0  0  0  0  0  0  0  0  0
   11.2176  -16.5673   22.3315 O   0  0  0  0  0  0  0  0  0  0  0  0
   11.7663  -19.4187   27.8171 O   0  0  0  0  0  0  0  0  0  0  0  0
   13.2246  -16.4134   23.3077 O   0  0  0  0  0  0  0  0  0  0  0  0
  2  3  1  0
  2  1  1  0
  3 10  1  0
  4  3  2  0
  6  5  1  0
  7  6  1  0
  7  8  1  6
  9  7  1  0
  9 11  1  0
  9 10  1  1
 11 13  1  0
 11 12  2  0
 13 14  1  0
 14 19  1  0
 14 15  1  6
 16 15  1  0
 17 21  1  0
 17 16  1  0
 18 17  2  0
 19 22  1  0
 20 19  2  0
M  END
$$$$
