GIE.pdb
     RDKit          3D

 22 21  0  0  1  0  0  0  0  0999 V2000
    4.6895  -17.5780   22.0646 N   0  0  0  0  0  0  0  0  0  0  0  0
    4.8664  -17.2876   23.4639 C   0  0  0  0  0  0  0  0  0  0  0  0
    6.1017  -16.4530   23.6208 C   0  0  0  0  0  0  0  0  0  0  0  0
    6.9354  -16.5082   22.6915 O   0  0  0  0  0  0  0  0  0  0  0  0
    5.7583  -12.0495   26.8309 C   0  0  0  0  0  0  0  0  0  0  0  0
    6.2274  -12.9783   25.7255 C   0  0  0  0  0  0  0  0  0  0  0  0
    7.1724  -14.0418   26.2875 C   0  0  2  0  0  0  0  0  0  0  0  0
    8.3809  -13.3129   26.8469 C   0  0  0  0  0  0  0  0  0  0  0  0
    7.4737  -15.0004   25.1868 C   0  0  2  0  0  0  0  0  0  0  0  0
    6.2502  -15.6653   24.7900 N   0  0  0  0  0  0  0  0  0  0  0  0
    8.5525  -15.9590   25.4216 C   0  0  0  0  0  0  0  0  0  0  0  0
    8.3186  -16.9246   26.1937 O   0  0  0  0  0  0  0  0  0  0  0  0
    9.8339  -15.8770   24.8418 N   0  0  0  0  0  0  0  0  0  0  0  0
   10.8382  -16.9377   24.9378 C   0  0  1  0  0  0  0  0  0  0  0  0
   11.7817  -16.7435   23.8038 C   0  0  0  0  0  0  0  0  0  0  0  0
   11.7869  -17.7867   22.7414 C   0  0  0  0  0  0  0  0  0  0  0  0
   13.1192  -17.9464   22.1541 C   0  0  0  0  0  0  0  0  0  0  0  0
   14.0016  -17.0775   22.2656 O   0  0  0  0  0  0  0  0  0  0  0  0
   11.5740  -16.8824   26.2417 C   0  0  0  0  0  0  0  0  0  0  0  0
   12.0696  -17.9131   26.7613 O   0  0  0  0  0  0  0  0  0  0  0  0
   13.3991  -19.1298   21.4400 O   0  0  0  0  0  0  0  0  0  0  0  0
   11.7520  -15.7070   26.9534 O   0  0  0  0  0  0  0  0  0  0  0  0
  2  3  1  0
  2  1  1  0
  3 10  1  0
  4  3  2  0
  6  5  1  0
  7  6  1  0
  7  8  1  6
  9  7  1  0
  9 11  1  0
  9 10  1  1
 11 13  1  0
 11 12  2  0
 13 14  1  0
 14 19  1  0
 14 15  1  6
 16 15  1  0
 17 21  1  0
 17 16  1  0
 18 17  2  0
 19 22  1  0
 20 19  2  0
M  END
$$$$
