GIE.pdb
     RDKit          3D

 22 21  0  0  1  0  0  0  0  0999 V2000
    6.8763  -14.9776   19.6411 N   0  0  0  0  0  0  0  0  0  0  0  0
    6.2026  -14.8504   20.9075 C   0  0  0  0  0  0  0  0  0  0  0  0
    7.2382  -14.6963   21.9803 C   0  0  0  0  0  0  0  0  0  0  0  0
    8.4150  -14.9754   21.6655 O   0  0  0  0  0  0  0  0  0  0  0  0
    7.5013  -11.6935   27.3666 C   0  0  0  0  0  0  0  0  0  0  0  0
    8.1144  -12.6404   26.3506 C   0  0  0  0  0  0  0  0  0  0  0  0
    7.0509  -13.1255   25.3640 C   0  0  2  0  0  0  0  0  0  0  0  0
    5.9597  -13.7957   26.1793 C   0  0  0  0  0  0  0  0  0  0  0  0
    7.7278  -14.0120   24.3754 C   0  0  2  0  0  0  0  0  0  0  0  0
    6.8319  -14.2520   23.2635 N   0  0  0  0  0  0  0  0  0  0  0  0
    8.2948  -15.2595   24.8854 C   0  0  0  0  0  0  0  0  0  0  0  0
    7.4944  -16.1550   25.2604 O   0  0  0  0  0  0  0  0  0  0  0  0
    9.6743  -15.5283   24.9838 N   0  0  0  0  0  0  0  0  0  0  0  0
   10.2228  -16.8307   25.3653 C   0  0  1  0  0  0  0  0  0  0  0  0
   11.5435  -16.9576   24.6917 C   0  0  0  0  0  0  0  0  0  0  0  0
   12.3819  -18.1312   25.0613 C   0  0  0  0  0  0  0  0  0  0  0  0
   13.6082  -18.1864   24.2623 C   0  0  0  0  0  0  0  0  0  0  0  0
   13.8018  -19.0655   23.4045 O   0  0  0  0  0  0  0  0  0  0  0  0
   10.3834  -16.9465   26.8504 C   0  0  0  0  0  0  0  0  0  0  0  0
   10.5273  -15.9323   27.5774 O   0  0  0  0  0  0  0  0  0  0  0  0
   14.5957  -17.2040   24.4820 O   0  0  0  0  0  0  0  0  0  0  0  0
   10.3867  -18.1641   27.5118 O   0  0  0  0  0  0  0  0  0  0  0  0
  2  3  1  0
  2  1  1  0
  3 10  1  0
  4  3  2  0
  6  5  1  0
  7  6  1  0
  7  8  1  1
  9  7  1  0
  9 11  1  0
  9 10  1  6
 11 13  1  0
 11 12  2  0
 13 14  1  0
 14 19  1  0
 14 15  1  6
 16 15  1  0
 17 21  1  0
 17 16  1  0
 18 17  2  0
 19 22  1  0
 20 19  2  0
M  END
$$$$
