GIE.pdb
     RDKit          3D

 22 21  0  0  1  0  0  0  0  0999 V2000
    5.9061  -16.7202   20.9790 N   0  0  0  0  0  0  0  0  0  0  0  0
    5.5855  -16.4329   22.3532 C   0  0  0  0  0  0  0  0  0  0  0  0
    6.7843  -15.8038   22.9967 C   0  0  0  0  0  0  0  0  0  0  0  0
    7.8676  -15.9078   22.3822 O   0  0  0  0  0  0  0  0  0  0  0  0
    6.0856  -11.4900   26.0928 C   0  0  0  0  0  0  0  0  0  0  0  0
    6.7220  -12.5481   25.2096 C   0  0  0  0  0  0  0  0  0  0  0  0
    7.2380  -13.7114   26.0582 C   0  0  2  0  0  0  0  0  0  0  0  0
    8.3074  -13.1512   26.9786 C   0  0  0  0  0  0  0  0  0  0  0  0
    7.7093  -14.7730   25.1242 C   0  0  2  0  0  0  0  0  0  0  0  0
    6.6239  -15.1409   24.2393 N   0  0  0  0  0  0  0  0  0  0  0  0
    8.3348  -15.9510   25.7234 C   0  0  0  0  0  0  0  0  0  0  0  0
    7.5952  -16.7450   26.3604 O   0  0  0  0  0  0  0  0  0  0  0  0
    9.7068  -16.2587   25.6351 N   0  0  0  0  0  0  0  0  0  0  0  0
   10.2866  -17.5227   26.0919 C   0  0  1  0  0  0  0  0  0  0  0  0
   11.5758  -17.6931   25.3688 C   0  0  0  0  0  0  0  0  0  0  0  0
   11.5266  -17.6628   23.8809 C   0  0  0  0  0  0  0  0  0  0  0  0
   12.8684  -17.7420   23.2989 C   0  0  0  0  0  0  0  0  0  0  0  0
   13.4034  -18.8268   23.0110 O   0  0  0  0  0  0  0  0  0  0  0  0
   10.5173  -17.5193   27.5722 C   0  0  0  0  0  0  0  0  0  0  0  0
   10.5018  -16.4540   28.2377 O   0  0  0  0  0  0  0  0  0  0  0  0
   13.5676  -16.5405   23.0615 O   0  0  0  0  0  0  0  0  0  0  0  0
   10.7627  -18.6751   28.2958 O   0  0  0  0  0  0  0  0  0  0  0  0
  2  3  1  0
  2  1  1  0
  3 10  1  0
  4  3  2  0
  6  5  1  0
  7  6  1  0
  7  8  1  1
  9  7  1  0
  9 11  1  0
  9 10  1  1
 11 13  1  0
 11 12  2  0
 13 14  1  0
 14 19  1  0
 14 15  1  6
 16 15  1  0
 17 21  1  0
 17 16  1  0
 18 17  2  0
 19 22  1  0
 20 19  2  0
M  END
$$$$
