GIE.pdb
     RDKit          3D

 22 21  0  0  1  0  0  0  0  0999 V2000
    6.4076  -14.7376   20.1442 N   0  0  0  0  0  0  0  0  0  0  0  0
    5.9356  -14.9052   21.4943 C   0  0  0  0  0  0  0  0  0  0  0  0
    7.0761  -14.6395   22.4302 C   0  0  0  0  0  0  0  0  0  0  0  0
    8.2205  -14.6288   21.9279 O   0  0  0  0  0  0  0  0  0  0  0  0
    5.8339  -11.6343   26.7886 C   0  0  0  0  0  0  0  0  0  0  0  0
    6.5933  -12.2558   25.6302 C   0  0  0  0  0  0  0  0  0  0  0  0
    7.1524  -13.6220   26.0309 C   0  0  2  0  0  0  0  0  0  0  0  0
    8.0834  -13.3944   27.2083 C   0  0  0  0  0  0  0  0  0  0  0  0
    7.8005  -14.2121   24.8254 C   0  0  2  0  0  0  0  0  0  0  0  0
    6.7971  -14.4202   23.8025 N   0  0  0  0  0  0  0  0  0  0  0  0
    8.6125  -15.4106   25.0310 C   0  0  0  0  0  0  0  0  0  0  0  0
    8.0126  -16.4849   25.2938 O   0  0  0  0  0  0  0  0  0  0  0  0
   10.0188  -15.4454   24.9531 N   0  0  0  0  0  0  0  0  0  0  0  0
   10.8074  -16.6748   25.0503 C   0  0  1  0  0  0  0  0  0  0  0  0
   12.0997  -16.4151   24.3601 C   0  0  0  0  0  0  0  0  0  0  0  0
   13.1480  -17.4669   24.4679 C   0  0  0  0  0  0  0  0  0  0  0  0
   14.3844  -17.0618   23.7952 C   0  0  0  0  0  0  0  0  0  0  0  0
   14.4254  -16.1041   23.0033 O   0  0  0  0  0  0  0  0  0  0  0  0
   11.0486  -17.0625   26.4772 C   0  0  0  0  0  0  0  0  0  0  0  0
   10.9745  -16.2227   27.4083 O   0  0  0  0  0  0  0  0  0  0  0  0
   15.5621  -17.7901   24.0624 O   0  0  0  0  0  0  0  0  0  0  0  0
   11.3684  -18.3554   26.8594 O   0  0  0  0  0  0  0  0  0  0  0  0
  2  3  1  0
  2  1  1  0
  3 10  1  0
  4  3  2  0
  6  5  1  0
  7  6  1  0
  7  8  1  1
  9  7  1  0
  9 11  1  0
  9 10  1  6
 11 13  1  0
 11 12  2  0
 13 14  1  0
 14 19  1  0
 14 15  1  1
 16 15  1  0
 17 21  1  0
 17 16  1  0
 18 17  2  0
 19 22  1  0
 20 19  2  0
M  END
$$$$
