GIE.pdb
     RDKit          3D

 22 21  0  0  1  0  0  0  0  0999 V2000
    7.3544  -15.1261   19.8011 N   0  0  0  0  0  0  0  0  0  0  0  0
    6.6280  -15.1495   21.0443 C   0  0  0  0  0  0  0  0  0  0  0  0
    7.5761  -14.8026   22.1523 C   0  0  0  0  0  0  0  0  0  0  0  0
    8.7954  -14.8967   21.8947 O   0  0  0  0  0  0  0  0  0  0  0  0
    7.3259  -11.6330   27.4130 C   0  0  0  0  0  0  0  0  0  0  0  0
    8.0358  -12.6225   26.5066 C   0  0  0  0  0  0  0  0  0  0  0  0
    7.0648  -13.1853   25.4673 C   0  0  2  0  0  0  0  0  0  0  0  0
    5.9336  -13.8518   26.2295 C   0  0  0  0  0  0  0  0  0  0  0  0
    7.8397  -14.0942   24.5758 C   0  0  2  0  0  0  0  0  0  0  0  0
    7.0465  -14.3962   23.4028 N   0  0  0  0  0  0  0  0  0  0  0  0
    8.3842  -15.3085   25.1815 C   0  0  0  0  0  0  0  0  0  0  0  0
    7.5756  -16.2239   25.4841 O   0  0  0  0  0  0  0  0  0  0  0  0
    9.7507  -15.5247   25.4476 N   0  0  0  0  0  0  0  0  0  0  0  0
   10.2876  -16.7828   25.9689 C   0  0  1  0  0  0  0  0  0  0  0  0
   11.6620  -16.9276   25.4177 C   0  0  0  0  0  0  0  0  0  0  0  0
   11.7909  -17.0262   23.9376 C   0  0  0  0  0  0  0  0  0  0  0  0
   13.1905  -17.1690   23.5302 C   0  0  0  0  0  0  0  0  0  0  0  0
   14.1171  -16.5944   24.1279 O   0  0  0  0  0  0  0  0  0  0  0  0
   10.3249  -16.7865   27.4666 C   0  0  0  0  0  0  0  0  0  0  0  0
   10.0636  -15.7546   28.1335 O   0  0  0  0  0  0  0  0  0  0  0  0
   13.4850  -17.9884   22.4209 O   0  0  0  0  0  0  0  0  0  0  0  0
   10.6488  -17.9127   28.2061 O   0  0  0  0  0  0  0  0  0  0  0  0
  2  3  1  0
  2  1  1  0
  3 10  1  0
  4  3  2  0
  6  5  1  0
  7  6  1  0
  7  8  1  1
  9  7  1  0
  9 11  1  0
  9 10  1  6
 11 13  1  0
 11 12  2  0
 13 14  1  0
 14 19  1  0
 14 15  1  6
 16 15  1  0
 17 21  1  0
 17 16  1  0
 18 17  2  0
 19 22  1  0
 20 19  2  0
M  END
$$$$
