GIE.pdb
     RDKit          3D

 22 21  0  0  1  0  0  0  0  0999 V2000
    6.3379  -14.8640   20.0760 N   0  0  0  0  0  0  0  0  0  0  0  0
    5.8593  -14.9473   21.4317 C   0  0  0  0  0  0  0  0  0  0  0  0
    7.0031  -14.6553   22.3555 C   0  0  0  0  0  0  0  0  0  0  0  0
    8.1377  -14.5862   21.8359 O   0  0  0  0  0  0  0  0  0  0  0  0
    5.7490  -11.5094   26.5290 C   0  0  0  0  0  0  0  0  0  0  0  0
    6.4577  -12.2304   25.3964 C   0  0  0  0  0  0  0  0  0  0  0  0
    7.0932  -13.5259   25.9038 C   0  0  2  0  0  0  0  0  0  0  0  0
    8.0379  -13.1473   27.0302 C   0  0  0  0  0  0  0  0  0  0  0  0
    7.7425  -14.1925   24.7396 C   0  0  2  0  0  0  0  0  0  0  0  0
    6.7380  -14.4779   23.7366 N   0  0  0  0  0  0  0  0  0  0  0  0
    8.5643  -15.3680   25.0243 C   0  0  0  0  0  0  0  0  0  0  0  0
    7.9923  -16.3763   25.5135 O   0  0  0  0  0  0  0  0  0  0  0  0
    9.9506  -15.4497   24.7870 N   0  0  0  0  0  0  0  0  0  0  0  0
   10.7468  -16.6534   25.0314 C   0  0  1  0  0  0  0  0  0  0  0  0
   12.0701  -16.4345   24.3871 C   0  0  0  0  0  0  0  0  0  0  0  0
   13.1307  -17.4434   24.6595 C   0  0  0  0  0  0  0  0  0  0  0  0
   14.3743  -17.1158   23.9584 C   0  0  0  0  0  0  0  0  0  0  0  0
   14.6486  -15.9568   23.6011 O   0  0  0  0  0  0  0  0  0  0  0  0
   10.9185  -16.9115   26.4971 C   0  0  0  0  0  0  0  0  0  0  0  0
   10.8417  -15.9846   27.3415 O   0  0  0  0  0  0  0  0  0  0  0  0
   15.2837  -18.1583   23.6848 O   0  0  0  0  0  0  0  0  0  0  0  0
   11.1731  -18.1724   27.0120 O   0  0  0  0  0  0  0  0  0  0  0  0
  2  3  1  0
  2  1  1  0
  3 10  1  0
  4  3  2  0
  6  5  1  0
  7  6  1  0
  7  8  1  1
  9  7  1  0
  9 11  1  0
  9 10  1  6
 11 13  1  0
 11 12  2  0
 13 14  1  0
 14 19  1  0
 14 15  1  6
 16 15  1  0
 17 21  1  0
 17 16  1  0
 18 17  2  0
 19 22  1  0
 20 19  2  0
M  END
$$$$
