GIE.pdb
     RDKit          3D

 22 21  0  0  1  0  0  0  0  0999 V2000
    5.0028  -16.6498   21.3404 N   0  0  0  0  0  0  0  0  0  0  0  0
    5.0453  -16.6928   22.7792 C   0  0  0  0  0  0  0  0  0  0  0  0
    6.1917  -15.8460   23.2436 C   0  0  0  0  0  0  0  0  0  0  0  0
    7.0629  -15.5685   22.3917 O   0  0  0  0  0  0  0  0  0  0  0  0
    6.5684  -11.8345   25.2867 C   0  0  0  0  0  0  0  0  0  0  0  0
    5.8631  -12.9976   25.9608 C   0  0  0  0  0  0  0  0  0  0  0  0
    6.8810  -14.0363   26.4347 C   0  0  2  0  0  0  0  0  0  0  0  0
    7.9650  -13.2863   27.1879 C   0  0  0  0  0  0  0  0  0  0  0  0
    7.3540  -14.7809   25.2334 C   0  0  2  0  0  0  0  0  0  0  0  0
    6.2213  -15.4173   24.5945 N   0  0  0  0  0  0  0  0  0  0  0  0
    8.4564  -15.7212   25.4299 C   0  0  0  0  0  0  0  0  0  0  0  0
    8.2340  -16.7450   26.1268 O   0  0  0  0  0  0  0  0  0  0  0  0
    9.7484  -15.5610   24.8914 N   0  0  0  0  0  0  0  0  0  0  0  0
   10.8030  -16.5706   24.9965 C   0  0  1  0  0  0  0  0  0  0  0  0
   11.9333  -16.1048   24.1483 C   0  0  0  0  0  0  0  0  0  0  0  0
   13.1920  -16.8984   24.2024 C   0  0  0  0  0  0  0  0  0  0  0  0
   14.2267  -16.3209   23.3415 C   0  0  0  0  0  0  0  0  0  0  0  0
   15.3419  -15.9863   23.7780 O   0  0  0  0  0  0  0  0  0  0  0  0
   11.2553  -16.7486   26.4136 C   0  0  0  0  0  0  0  0  0  0  0  0
   11.2033  -15.8072   27.2437 O   0  0  0  0  0  0  0  0  0  0  0  0
   13.9370  -16.1429   21.9729 O   0  0  0  0  0  0  0  0  0  0  0  0
   11.7571  -17.9466   26.8960 O   0  0  0  0  0  0  0  0  0  0  0  0
  2  3  1  0
  2  1  1  0
  3 10  1  0
  4  3  2  0
  6  5  1  0
  7  6  1  0
  7  8  1  6
  9  7  1  0
  9 11  1  0
  9 10  1  1
 11 13  1  0
 11 12  2  0
 13 14  1  0
 14 19  1  0
 14 15  1  6
 16 15  1  0
 17 21  1  0
 17 16  1  0
 18 17  2  0
 19 22  1  0
 20 19  2  0
M  END
$$$$
