GIE.pdb
     RDKit          3D

 22 21  0  0  1  0  0  0  0  0999 V2000
    6.6992  -19.3241   26.4458 N   0  0  0  0  0  0  0  0  0  0  0  0
    7.1141  -18.0497   26.9727 C   0  0  0  0  0  0  0  0  0  0  0  0
    7.0710  -17.0428   25.8630 C   0  0  0  0  0  0  0  0  0  0  0  0
    6.8266  -17.4820   24.7188 O   0  0  0  0  0  0  0  0  0  0  0  0
    5.9453  -12.1562   27.4246 C   0  0  0  0  0  0  0  0  0  0  0  0
    6.0687  -13.3119   26.4478 C   0  0  0  0  0  0  0  0  0  0  0  0
    7.4550  -13.3182   25.8014 C   0  0  2  0  0  0  0  0  0  0  0  0
    7.4916  -12.1650   24.8146 C   0  0  0  0  0  0  0  0  0  0  0  0
    7.6622  -14.6652   25.1981 C   0  0  2  0  0  0  0  0  0  0  0  0
    7.3050  -15.6786   26.1687 N   0  0  0  0  0  0  0  0  0  0  0  0
    8.9721  -14.9297   24.6048 C   0  0  0  0  0  0  0  0  0  0  0  0
    9.9907  -14.6233   25.2769 O   0  0  0  0  0  0  0  0  0  0  0  0
    9.1719  -15.5053   23.3345 N   0  0  0  0  0  0  0  0  0  0  0  0
   10.4926  -15.7702   22.7615 C   0  0  1  0  0  0  0  0  0  0  0  0
   11.1923  -16.6925   23.6964 C   0  0  0  0  0  0  0  0  0  0  0  0
   10.6317  -18.0644   23.8398 C   0  0  0  0  0  0  0  0  0  0  0  0
   11.5073  -18.9193   24.6447 C   0  0  0  0  0  0  0  0  0  0  0  0
   11.2325  -20.1071   24.8889 O   0  0  0  0  0  0  0  0  0  0  0  0
   10.3882  -16.3894   21.4013 C   0  0  0  0  0  0  0  0  0  0  0  0
    9.2843  -16.7602   20.9305 O   0  0  0  0  0  0  0  0  0  0  0  0
   12.6997  -18.3655   25.1549 O   0  0  0  0  0  0  0  0  0  0  0  0
   11.4882  -16.5943   20.5840 O   0  0  0  0  0  0  0  0  0  0  0  0
  2  3  1  0
  2  1  1  0
  3 10  1  0
  4  3  2  0
  6  5  1  0
  7  6  1  0
  7  8  1  6
  9  7  1  0
  9 11  1  0
  9 10  1  1
 11 13  1  0
 11 12  2  0
 13 14  1  0
 14 19  1  0
 14 15  1  1
 16 15  1  0
 17 21  1  0
 17 16  1  0
 18 17  2  0
 19 22  1  0
 20 19  2  0
M  END
$$$$
