GIE.pdb
     RDKit          3D

 22 21  0  0  1  0  0  0  0  0999 V2000
    5.4601  -18.3253   21.7197 N   0  0  0  0  0  0  0  0  0  0  0  0
    5.3233  -17.8934   23.0866 C   0  0  0  0  0  0  0  0  0  0  0  0
    6.4334  -16.9337   23.3924 C   0  0  0  0  0  0  0  0  0  0  0  0
    7.4189  -16.9557   22.6241 O   0  0  0  0  0  0  0  0  0  0  0  0
    7.2887  -11.9103   26.8840 C   0  0  0  0  0  0  0  0  0  0  0  0
    7.8490  -13.0928   26.1142 C   0  0  0  0  0  0  0  0  0  0  0  0
    6.7308  -14.0717   25.7522 C   0  0  2  0  0  0  0  0  0  0  0  0
    6.0406  -14.4584   27.0478 C   0  0  0  0  0  0  0  0  0  0  0  0
    7.3509  -15.2061   25.0105 C   0  0  2  0  0  0  0  0  0  0  0  0
    6.3047  -16.0742   24.5123 N   0  0  0  0  0  0  0  0  0  0  0  0
    8.3888  -15.9637   25.7081 C   0  0  0  0  0  0  0  0  0  0  0  0
    8.0188  -16.8397   26.5321 O   0  0  0  0  0  0  0  0  0  0  0  0
    9.7732  -15.7819   25.5199 N   0  0  0  0  0  0  0  0  0  0  0  0
   10.7903  -16.6998   26.0351 C   0  0  1  0  0  0  0  0  0  0  0  0
   12.0614  -16.3743   25.3334 C   0  0  0  0  0  0  0  0  0  0  0  0
   12.7971  -17.5064   24.7056 C   0  0  0  0  0  0  0  0  0  0  0  0
   13.4627  -17.0923   23.4683 C   0  0  0  0  0  0  0  0  0  0  0  0
   13.8932  -15.9378   23.3013 O   0  0  0  0  0  0  0  0  0  0  0  0
   10.9624  -16.5554   27.5164 C   0  0  0  0  0  0  0  0  0  0  0  0
   10.4450  -15.6012   28.1486 O   0  0  0  0  0  0  0  0  0  0  0  0
   13.6146  -18.0437   22.4385 O   0  0  0  0  0  0  0  0  0  0  0  0
   11.6965  -17.4511   28.2771 O   0  0  0  0  0  0  0  0  0  0  0  0
  2  3  1  0
  2  1  1  0
  3 10  1  0
  4  3  2  0
  6  5  1  0
  7  6  1  0
  7  8  1  1
  9  7  1  0
  9 11  1  0
  9 10  1  1
 11 13  1  0
 11 12  2  0
 13 14  1  0
 14 19  1  0
 14 15  1  6
 16 15  1  0
 17 21  1  0
 17 16  1  0
 18 17  2  0
 19 22  1  0
 20 19  2  0
M  END
$$$$
