YYM.pdb
     RDKit          3D

 33 34  0  0  1  0  0  0  0  0999 V2000
    7.2199  -11.9890   16.3752 O   0  0  0  0  0  0  0  0  0  0  0  0
    7.5055  -12.8010   17.4786 C   0  0  0  0  0  0  0  0  0  0  0  0
    8.7204  -12.7129   18.1032 C   0  0  0  0  0  0  0  0  0  0  0  0
    9.0444  -13.5025   19.2038 C   0  0  0  0  0  0  0  0  0  0  0  0
    8.1171  -14.3952   19.6754 C   0  0  0  0  0  0  0  0  0  0  0  0
    8.3865  -15.2686   20.8418 C   0  0  0  0  0  0  0  0  0  0  0  0
    9.3811  -16.3460   20.4887 C   0  0  2  0  0  0  0  0  0  0  0  0
    8.7870  -17.1556   19.4450 N   0  0  0  0  0  0  0  0  0  0  0  0
    9.8354  -17.1587   21.6119 C   0  0  0  0  0  0  0  0  0  0  0  0
    9.1012  -18.1258   22.0189 O   0  0  0  0  0  0  0  0  0  0  0  0
    6.9010  -14.4728   19.0380 C   0  0  0  0  0  0  0  0  0  0  0  0
    6.5792  -13.6929   17.9498 C   0  0  0  0  0  0  0  0  0  0  0  0
   14.8144  -21.4259   27.4298 O   0  0  0  0  0  0  0  0  0  0  0  0
   14.3450  -20.6427   26.3843 C   0  0  0  0  0  0  0  0  0  0  0  0
   13.4629  -21.2068   25.4557 C   0  0  0  0  0  0  0  0  0  0  0  0
   12.9875  -20.4411   24.4107 C   0  0  0  0  0  0  0  0  0  0  0  0
   13.3627  -19.1189   24.2549 C   0  0  0  0  0  0  0  0  0  0  0  0
   12.8784  -18.2815   23.1649 C   0  0  0  0  0  0  0  0  0  0  0  0
   11.5193  -17.6653   23.3929 C   0  0  2  0  0  0  0  0  0  0  0  0
   11.0773  -16.8977   22.2596 N   0  0  0  0  0  0  0  0  0  0  0  0
   11.3867  -16.9187   24.6458 C   0  0  0  0  0  0  0  0  0  0  0  0
   11.8270  -15.7437   24.6996 O   0  0  0  0  0  0  0  0  0  0  0  0
   14.2301  -18.5925   25.1826 C   0  0  0  0  0  0  0  0  0  0  0  0
   14.7282  -19.3252   26.2420 C   0  0  0  0  0  0  0  0  0  0  0  0
    7.6221  -12.4396   28.0407 C   0  0  0  0  0  0  0  0  0  0  0  0
    8.7824  -13.5416   27.2323 S   0  0  0  0  0  0  0  0  0  0  0  0
    8.0213  -15.0078   26.5588 C   0  0  0  0  0  0  0  0  0  0  0  0
    8.9917  -15.9297   25.9303 C   0  0  0  0  0  0  0  0  0  0  0  0
   10.0388  -16.5667   26.7684 C   0  0  2  0  0  0  0  0  0  0  0  0
   10.7837  -17.4416   25.8164 N   0  0  0  0  0  0  0  0  0  0  0  0
    9.6365  -17.3208   27.9402 C   0  0  0  0  0  0  0  0  0  0  0  0
    9.1381  -18.4905   27.8119 O   0  0  0  0  0  0  0  0  0  0  0  0
    9.7529  -16.8725   29.2456 O   0  0  0  0  0  0  0  0  0  0  0  0
  2  3  2  0
  2  1  1  0
  4  3  1  0
  5  4  2  0
  6  5  1  0
  7  6  1  0
  7  8  1  6
  9 20  1  0
  9  7  1  0
 10  9  2  0
 11  5  1  0
 11 12  2  0
 12  2  1  0
 14 13  1  0
 14 15  2  0
 16 15  1  0
 17 16  2  0
 18 17  1  0
 19 18  1  6
 19 20  1  0
 21 19  1  0
 21 30  1  0
 22 21  2  0
 23 24  2  0
 23 17  1  0
 24 14  1  0
 25 26  1  0
 26 27  1  0
 27 28  1  0
 29 28  1  6
 29 30  1  0
 29 31  1  0
 31 32  2  0
 31 33  1  0
M  END
$$$$
