YYM.pdb
     RDKit          3D

 33 34  0  0  1  0  0  0  0  0999 V2000
   17.5136  -16.9800   15.3418 O   0  0  0  0  0  0  0  0  0  0  0  0
   16.7368  -16.5289   16.4148 C   0  0  0  0  0  0  0  0  0  0  0  0
   15.7531  -17.3251   16.9363 C   0  0  0  0  0  0  0  0  0  0  0  0
   14.9580  -16.9143   18.0035 C   0  0  0  0  0  0  0  0  0  0  0  0
   15.1681  -15.6738   18.5477 C   0  0  0  0  0  0  0  0  0  0  0  0
   14.3649  -15.1659   19.6848 C   0  0  0  0  0  0  0  0  0  0  0  0
   12.9205  -14.9906   19.2871 C   0  0  2  0  0  0  0  0  0  0  0  0
   12.8741  -13.9508   18.2800 N   0  0  0  0  0  0  0  0  0  0  0  0
   12.0056  -14.7173   20.3901 C   0  0  0  0  0  0  0  0  0  0  0  0
   12.0418  -13.5715   20.9610 O   0  0  0  0  0  0  0  0  0  0  0  0
   16.1598  -14.8848   18.0136 C   0  0  0  0  0  0  0  0  0  0  0  0
   16.9466  -15.2896   16.9585 C   0  0  0  0  0  0  0  0  0  0  0  0
    6.7896  -12.5407   17.2810 O   0  0  0  0  0  0  0  0  0  0  0  0
    7.2692  -13.3278   18.3189 C   0  0  0  0  0  0  0  0  0  0  0  0
    7.3283  -12.7888   19.6090 C   0  0  0  0  0  0  0  0  0  0  0  0
    7.8028  -13.5587   20.6514 C   0  0  0  0  0  0  0  0  0  0  0  0
    8.2253  -14.8608   20.4535 C   0  0  0  0  0  0  0  0  0  0  0  0
    8.7297  -15.7022   21.5314 C   0  0  0  0  0  0  0  0  0  0  0  0
   10.1641  -15.4408   21.9229 C   0  0  2  0  0  0  0  0  0  0  0  0
   11.0750  -15.6980   20.8398 N   0  0  0  0  0  0  0  0  0  0  0  0
   10.5898  -16.0926   23.1634 C   0  0  0  0  0  0  0  0  0  0  0  0
   11.3320  -17.1033   23.0922 O   0  0  0  0  0  0  0  0  0  0  0  0
    8.1555  -15.3628   19.1756 C   0  0  0  0  0  0  0  0  0  0  0  0
    7.6872  -14.6251   18.1061 C   0  0  0  0  0  0  0  0  0  0  0  0
   11.5269  -12.9656   28.9460 C   0  0  0  0  0  0  0  0  0  0  0  0
   10.5669  -14.4307   29.3282 S   0  0  0  0  0  0  0  0  0  0  0  0
   10.8044  -15.7616   28.1640 C   0  0  0  0  0  0  0  0  0  0  0  0
   10.4417  -15.3931   26.7787 C   0  0  0  0  0  0  0  0  0  0  0  0
   10.6487  -16.3765   25.6857 C   0  0  2  0  0  0  0  0  0  0  0  0
   10.2159  -15.6499   24.4564 N   0  0  0  0  0  0  0  0  0  0  0  0
    9.9910  -17.6665   25.7693 C   0  0  0  0  0  0  0  0  0  0  0  0
   10.4561  -18.5766   26.5366 O   0  0  0  0  0  0  0  0  0  0  0  0
    8.8502  -18.0179   25.0668 O   0  0  0  0  0  0  0  0  0  0  0  0
  2  3  2  0
  2  1  1  0
  4  3  1  0
  5  4  2  0
  6  5  1  0
  7  6  1  0
  7  8  1  6
  9 20  1  0
  9  7  1  0
 10  9  2  0
 11  5  1  0
 11 12  2  0
 12  2  1  0
 14 13  1  0
 14 15  2  0
 16 15  1  0
 17 16  2  0
 18 17  1  0
 19 18  1  6
 19 20  1  0
 21 19  1  0
 21 30  1  0
 22 21  2  0
 23 24  2  0
 23 17  1  0
 24 14  1  0
 25 26  1  0
 26 27  1  0
 27 28  1  0
 29 28  1  1
 29 30  1  0
 29 31  1  0
 31 32  2  0
 31 33  1  0
M  END
$$$$
