YYM.pdb
     RDKit          3D

 33 34  0  0  1  0  0  0  0  0999 V2000
    7.8551  -12.2899   16.2779 O   0  0  0  0  0  0  0  0  0  0  0  0
    7.9351  -12.9997   17.4812 C   0  0  0  0  0  0  0  0  0  0  0  0
    6.9671  -13.9099   17.8101 C   0  0  0  0  0  0  0  0  0  0  0  0
    7.0091  -14.6369   18.9974 C   0  0  0  0  0  0  0  0  0  0  0  0
    8.0528  -14.4337   19.8626 C   0  0  0  0  0  0  0  0  0  0  0  0
    8.1686  -15.1691   21.1440 C   0  0  0  0  0  0  0  0  0  0  0  0
    9.1731  -16.2887   21.0326 C   0  0  2  0  0  0  0  0  0  0  0  0
    8.6650  -17.2276   20.0538 N   0  0  0  0  0  0  0  0  0  0  0  0
    9.5064  -16.9462   22.2916 C   0  0  0  0  0  0  0  0  0  0  0  0
    8.6338  -17.6968   22.8531 O   0  0  0  0  0  0  0  0  0  0  0  0
    9.0179  -13.5161   19.5191 C   0  0  0  0  0  0  0  0  0  0  0  0
    8.9777  -12.7967   18.3457 C   0  0  0  0  0  0  0  0  0  0  0  0
   13.6796  -19.3124   29.7104 O   0  0  0  0  0  0  0  0  0  0  0  0
   13.3754  -18.9053   28.4187 C   0  0  0  0  0  0  0  0  0  0  0  0
   13.5152  -17.5544   28.0814 C   0  0  0  0  0  0  0  0  0  0  0  0
   13.2167  -17.1341   26.8013 C   0  0  0  0  0  0  0  0  0  0  0  0
   12.7791  -18.0204   25.8337 C   0  0  0  0  0  0  0  0  0  0  0  0
   12.4572  -17.6112   24.4724 C   0  0  0  0  0  0  0  0  0  0  0  0
   11.0310  -17.1623   24.2646 C   0  0  2  0  0  0  0  0  0  0  0  0
   10.7810  -16.7704   22.9034 N   0  0  0  0  0  0  0  0  0  0  0  0
   10.5591  -16.1572   25.2196 C   0  0  0  0  0  0  0  0  0  0  0  0
   10.5754  -14.9474   24.8827 O   0  0  0  0  0  0  0  0  0  0  0  0
   12.6517  -19.3408   26.1945 C   0  0  0  0  0  0  0  0  0  0  0  0
   12.9400  -19.8012   27.4642 C   0  0  0  0  0  0  0  0  0  0  0  0
    6.0275  -11.3566   27.3014 C   0  0  0  0  0  0  0  0  0  0  0  0
    7.0977  -12.4948   26.4219 S   0  0  0  0  0  0  0  0  0  0  0  0
    7.2873  -14.0695   27.2386 C   0  0  0  0  0  0  0  0  0  0  0  0
    8.2925  -14.9412   26.5932 C   0  0  0  0  0  0  0  0  0  0  0  0
    9.4526  -15.4241   27.3840 C   0  0  2  0  0  0  0  0  0  0  0  0
   10.0763  -16.4651   26.5157 N   0  0  0  0  0  0  0  0  0  0  0  0
    9.2235  -15.9477   28.7171 C   0  0  0  0  0  0  0  0  0  0  0  0
    8.6845  -15.2123   29.6126 O   0  0  0  0  0  0  0  0  0  0  0  0
    9.5442  -17.2313   29.1269 O   0  0  0  0  0  0  0  0  0  0  0  0
  2  3  2  0
  2  1  1  0
  4  3  1  0
  5  4  2  0
  6  5  1  0
  7  6  1  0
  7  8  1  6
  9 20  1  0
  9  7  1  0
 10  9  2  0
 11  5  1  0
 11 12  2  0
 12  2  1  0
 14 13  1  0
 14 15  2  0
 16 15  1  0
 17 16  2  0
 18 17  1  0
 19 18  1  6
 19 20  1  0
 21 19  1  0
 21 30  1  0
 22 21  2  0
 23 24  2  0
 23 17  1  0
 24 14  1  0
 25 26  1  0
 26 27  1  0
 27 28  1  0
 29 28  1  6
 29 30  1  0
 29 31  1  0
 31 32  2  0
 31 33  1  0
M  END
$$$$
