YYM.pdb
     RDKit          3D

 33 34  0  0  1  0  0  0  0  0999 V2000
    7.6877  -15.4379   13.6071 O   0  0  0  0  0  0  0  0  0  0  0  0
    8.2740  -15.1978   14.8548 C   0  0  0  0  0  0  0  0  0  0  0  0
    8.0951  -13.9933   15.4801 C   0  0  0  0  0  0  0  0  0  0  0  0
    8.6610  -13.7141   16.7217 C   0  0  0  0  0  0  0  0  0  0  0  0
    9.4203  -14.6761   17.3357 C   0  0  0  0  0  0  0  0  0  0  0  0
   10.0541  -14.4552   18.6569 C   0  0  0  0  0  0  0  0  0  0  0  0
    9.9921  -15.7052   19.4988 C   0  0  2  0  0  0  0  0  0  0  0  0
    8.7977  -16.4268   19.1113 N   0  0  0  0  0  0  0  0  0  0  0  0
   10.0465  -15.4821   20.9396 C   0  0  0  0  0  0  0  0  0  0  0  0
   11.1250  -15.0280   21.4599 O   0  0  0  0  0  0  0  0  0  0  0  0
    9.5914  -15.8813   16.6958 C   0  0  0  0  0  0  0  0  0  0  0  0
    9.0327  -16.1588   15.4683 C   0  0  0  0  0  0  0  0  0  0  0  0
    5.8884  -12.1405   28.0174 O   0  0  0  0  0  0  0  0  0  0  0  0
    6.2050  -12.8287   26.8543 C   0  0  0  0  0  0  0  0  0  0  0  0
    6.7862  -12.1316   25.7892 C   0  0  0  0  0  0  0  0  0  0  0  0
    7.1068  -12.8017   24.6262 C   0  0  0  0  0  0  0  0  0  0  0  0
    6.8668  -14.1564   24.4836 C   0  0  0  0  0  0  0  0  0  0  0  0
    7.1945  -14.8954   23.2709 C   0  0  0  0  0  0  0  0  0  0  0  0
    8.6706  -15.0099   22.9762 C   0  0  2  0  0  0  0  0  0  0  0  0
    8.9249  -15.7574   21.7738 N   0  0  0  0  0  0  0  0  0  0  0  0
    9.4851  -15.4825   24.0978 C   0  0  0  0  0  0  0  0  0  0  0  0
    9.9601  -14.6395   24.8984 O   0  0  0  0  0  0  0  0  0  0  0  0
    6.2950  -14.8144   25.5467 C   0  0  0  0  0  0  0  0  0  0  0  0
    5.9597  -14.1803   26.7269 C   0  0  0  0  0  0  0  0  0  0  0  0
   11.0080  -13.3596   29.3661 C   0  0  0  0  0  0  0  0  0  0  0  0
   10.1808  -14.8136   28.7212 S   0  0  0  0  0  0  0  0  0  0  0  0
   10.9050  -15.4353   27.2140 C   0  0  0  0  0  0  0  0  0  0  0  0
   10.1640  -16.5804   26.6428 C   0  0  0  0  0  0  0  0  0  0  0  0
   10.6978  -17.2653   25.4384 C   0  0  2  0  0  0  0  0  0  0  0  0
    9.7740  -16.8477   24.3435 N   0  0  0  0  0  0  0  0  0  0  0  0
   10.8401  -18.7086   25.4578 C   0  0  0  0  0  0  0  0  0  0  0  0
   11.6752  -19.2615   26.2516 O   0  0  0  0  0  0  0  0  0  0  0  0
   10.1180  -19.5837   24.6633 O   0  0  0  0  0  0  0  0  0  0  0  0
  2  3  2  0
  2  1  1  0
  4  3  1  0
  5  4  2  0
  6  5  1  0
  7  6  1  0
  7  8  1  1
  9 20  1  0
  9  7  1  0
 10  9  2  0
 11  5  1  0
 11 12  2  0
 12  2  1  0
 14 13  1  0
 14 15  2  0
 16 15  1  0
 17 16  2  0
 18 17  1  0
 19 18  1  1
 19 20  1  0
 21 19  1  0
 21 30  1  0
 22 21  2  0
 23 24  2  0
 23 17  1  0
 24 14  1  0
 25 26  1  0
 26 27  1  0
 27 28  1  0
 29 28  1  1
 29 30  1  0
 29 31  1  0
 31 32  2  0
 31 33  1  0
M  END
$$$$
