YYM.pdb
     RDKit          3D

 33 34  0  0  1  0  0  0  0  0999 V2000
   24.8401  -14.6661   13.6594 O   0  0  0  0  0  0  0  0  0  0  0  0
   23.6924  -15.2861   14.1660 C   0  0  0  0  0  0  0  0  0  0  0  0
   23.7427  -16.5853   14.5939 C   0  0  0  0  0  0  0  0  0  0  0  0
   22.6238  -17.2391   15.1044 C   0  0  0  0  0  0  0  0  0  0  0  0
   21.4359  -16.5592   15.1802 C   0  0  0  0  0  0  0  0  0  0  0  0
   20.2025  -17.1850   15.7123 C   0  0  0  0  0  0  0  0  0  0  0  0
   19.7801  -18.3533   14.8569 C   0  0  2  0  0  0  0  0  0  0  0  0
   19.2745  -17.8146   13.6112 N   0  0  0  0  0  0  0  0  0  0  0  0
   18.8245  -19.2618   15.4815 C   0  0  0  0  0  0  0  0  0  0  0  0
   17.5909  -19.1977   15.1437 O   0  0  0  0  0  0  0  0  0  0  0  0
   21.4003  -15.2545   14.7467 C   0  0  0  0  0  0  0  0  0  0  0  0
   22.5056  -14.6070   14.2417 C   0  0  0  0  0  0  0  0  0  0  0  0
   18.0580  -24.0881   11.3365 O   0  0  0  0  0  0  0  0  0  0  0  0
   18.2223  -23.7143   12.6632 C   0  0  0  0  0  0  0  0  0  0  0  0
   17.1134  -23.7330   13.5166 C   0  0  0  0  0  0  0  0  0  0  0  0
   17.2605  -23.3642   14.8383 C   0  0  0  0  0  0  0  0  0  0  0  0
   18.4859  -22.9729   15.3468 C   0  0  0  0  0  0  0  0  0  0  0  0
   18.6772  -22.5793   16.7370 C   0  0  0  0  0  0  0  0  0  0  0  0
   18.3153  -21.1469   17.0471 C   0  0  2  0  0  0  0  0  0  0  0  0
   19.2385  -20.2163   16.4548 N   0  0  0  0  0  0  0  0  0  0  0  0
   18.0878  -20.8652   18.4661 C   0  0  0  0  0  0  0  0  0  0  0  0
   18.9396  -20.1878   19.0929 O   0  0  0  0  0  0  0  0  0  0  0  0
   19.5567  -22.9647   14.4847 C   0  0  0  0  0  0  0  0  0  0  0  0
   19.4510  -23.3264   13.1560 C   0  0  0  0  0  0  0  0  0  0  0  0
   12.2041  -19.4296   21.2097 C   0  0  0  0  0  0  0  0  0  0  0  0
   12.9232  -20.7698   22.1589 S   0  0  0  0  0  0  0  0  0  0  0  0
   14.7071  -20.7723   22.1492 C   0  0  0  0  0  0  0  0  0  0  0  0
   15.2804  -21.0231   20.8094 C   0  0  0  0  0  0  0  0  0  0  0  0
   16.7520  -20.9581   20.6232 C   0  0  2  0  0  0  0  0  0  0  0  0
   16.9525  -21.3109   19.1873 N   0  0  0  0  0  0  0  0  0  0  0  0
   17.6025  -21.7740   21.4686 C   0  0  0  0  0  0  0  0  0  0  0  0
   17.6794  -23.0351   21.2768 O   0  0  0  0  0  0  0  0  0  0  0  0
   18.3788  -21.2903   22.5087 O   0  0  0  0  0  0  0  0  0  0  0  0
  2  3  2  0
  2  1  1  0
  4  3  1  0
  5  4  2  0
  6  5  1  0
  7  6  1  0
  7  8  1  6
  9 20  1  0
  9  7  1  0
 10  9  2  0
 11  5  1  0
 11 12  2  0
 12  2  1  0
 14 13  1  0
 14 15  2  0
 16 15  1  0
 17 16  2  0
 18 17  1  0
 19 18  1  1
 19 20  1  0
 21 19  1  0
 21 30  1  0
 22 21  2  0
 23 24  2  0
 23 17  1  0
 24 14  1  0
 25 26  1  0
 26 27  1  0
 27 28  1  0
 29 28  1  1
 29 30  1  0
 29 31  1  0
 31 32  2  0
 31 33  1  0
M  END
$$$$
