YYM.pdb
     RDKit          3D

 33 34  0  0  1  0  0  0  0  0999 V2000
    8.2436  -15.8675   12.9506 O   0  0  0  0  0  0  0  0  0  0  0  0
    8.6223  -15.4970   14.2458 C   0  0  0  0  0  0  0  0  0  0  0  0
    9.9284  -15.6077   14.6402 C   0  0  0  0  0  0  0  0  0  0  0  0
   10.3468  -15.2500   15.9196 C   0  0  0  0  0  0  0  0  0  0  0  0
    9.4210  -14.7724   16.8105 C   0  0  0  0  0  0  0  0  0  0  0  0
    9.7883  -14.3700   18.1887 C   0  0  0  0  0  0  0  0  0  0  0  0
   10.0239  -15.5802   19.0576 C   0  0  2  0  0  0  0  0  0  0  0  0
    9.0477  -16.5802   18.6773 N   0  0  0  0  0  0  0  0  0  0  0  0
   10.0039  -15.3223   20.4934 C   0  0  0  0  0  0  0  0  0  0  0  0
   10.9578  -14.6488   21.0192 O   0  0  0  0  0  0  0  0  0  0  0  0
    8.1126  -14.6666   16.4005 C   0  0  0  0  0  0  0  0  0  0  0  0
    7.6975  -15.0199   15.1360 C   0  0  0  0  0  0  0  0  0  0  0  0
    6.1307  -12.6735   27.9091 O   0  0  0  0  0  0  0  0  0  0  0  0
    6.4051  -13.2820   26.6920 C   0  0  0  0  0  0  0  0  0  0  0  0
    6.8401  -12.4935   25.6209 C   0  0  0  0  0  0  0  0  0  0  0  0
    7.1169  -13.0837   24.4046 C   0  0  0  0  0  0  0  0  0  0  0  0
    6.9748  -14.4463   24.2139 C   0  0  0  0  0  0  0  0  0  0  0  0
    7.2601  -15.1023   22.9442 C   0  0  0  0  0  0  0  0  0  0  0  0
    8.7270  -15.2978   22.6458 C   0  0  2  0  0  0  0  0  0  0  0  0
    8.9451  -15.8029   21.3168 N   0  0  0  0  0  0  0  0  0  0  0  0
    9.4602  -16.0687   23.6522 C   0  0  0  0  0  0  0  0  0  0  0  0
    9.6372  -17.2975   23.4627 O   0  0  0  0  0  0  0  0  0  0  0  0
    6.5459  -15.1949   25.2843 C   0  0  0  0  0  0  0  0  0  0  0  0
    6.2586  -14.6426   26.5171 C   0  0  0  0  0  0  0  0  0  0  0  0
   11.1402  -13.0900   29.0086 C   0  0  0  0  0  0  0  0  0  0  0  0
   11.5973  -14.7366   29.5509 S   0  0  0  0  0  0  0  0  0  0  0  0
   11.4064  -15.9814   28.2873 C   0  0  0  0  0  0  0  0  0  0  0  0
   10.8357  -15.4507   27.0307 C   0  0  0  0  0  0  0  0  0  0  0  0
   10.6661  -16.3580   25.8677 C   0  0  2  0  0  0  0  0  0  0  0  0
    9.9923  -15.5105   24.8409 N   0  0  0  0  0  0  0  0  0  0  0  0
    9.9446  -17.6031   26.0491 C   0  0  0  0  0  0  0  0  0  0  0  0
    8.6668  -17.6136   26.0344 O   0  0  0  0  0  0  0  0  0  0  0  0
   10.5394  -18.8394   26.2400 O   0  0  0  0  0  0  0  0  0  0  0  0
  2  3  2  0
  2  1  1  0
  4  3  1  0
  5  4  2  0
  6  5  1  0
  7  6  1  0
  7  8  1  1
  9 20  1  0
  9  7  1  0
 10  9  2  0
 11  5  1  0
 11 12  2  0
 12  2  1  0
 14 13  1  0
 14 15  2  0
 16 15  1  0
 17 16  2  0
 18 17  1  0
 19 18  1  1
 19 20  1  0
 21 19  1  0
 21 30  1  0
 22 21  2  0
 23 24  2  0
 23 17  1  0
 24 14  1  0
 25 26  1  0
 26 27  1  0
 27 28  1  0
 29 28  1  1
 29 30  1  0
 29 31  1  0
 31 32  2  0
 31 33  1  0
M  END
$$$$
