YYM.pdb
     RDKit          3D

 33 34  0  0  1  0  0  0  0  0999 V2000
    6.0270  -11.9553   17.5837 O   0  0  0  0  0  0  0  0  0  0  0  0
    6.7364  -12.7664   18.4765 C   0  0  0  0  0  0  0  0  0  0  0  0
    8.0888  -12.9253   18.3378 C   0  0  0  0  0  0  0  0  0  0  0  0
    8.8319  -13.7233   19.2045 C   0  0  0  0  0  0  0  0  0  0  0  0
    8.1876  -14.3690   20.2277 C   0  0  0  0  0  0  0  0  0  0  0  0
    8.9085  -15.2339   21.1912 C   0  0  0  0  0  0  0  0  0  0  0  0
    9.9546  -16.0643   20.4904 C   0  0  2  0  0  0  0  0  0  0  0  0
    9.2684  -17.1595   19.8366 N   0  0  0  0  0  0  0  0  0  0  0  0
   11.0401  -16.5371   21.3428 C   0  0  0  0  0  0  0  0  0  0  0  0
   11.0269  -17.7498   21.7541 O   0  0  0  0  0  0  0  0  0  0  0  0
    6.8287  -14.2001   20.3548 C   0  0  0  0  0  0  0  0  0  0  0  0
    6.0928  -13.4116   19.4988 C   0  0  0  0  0  0  0  0  0  0  0  0
   15.9496  -14.7773   16.9235 O   0  0  0  0  0  0  0  0  0  0  0  0
   15.5880  -14.9262   18.2554 C   0  0  0  0  0  0  0  0  0  0  0  0
   14.8178  -13.9299   18.8658 C   0  0  0  0  0  0  0  0  0  0  0  0
   14.4503  -14.0634   20.1892 C   0  0  0  0  0  0  0  0  0  0  0  0
   14.8262  -15.1657   20.9356 C   0  0  0  0  0  0  0  0  0  0  0  0
   14.4541  -15.3395   22.3340 C   0  0  0  0  0  0  0  0  0  0  0  0
   13.1884  -16.1304   22.5607 C   0  0  2  0  0  0  0  0  0  0  0  0
   12.1111  -15.6775   21.7221 N   0  0  0  0  0  0  0  0  0  0  0  0
   12.7803  -16.2461   23.9625 C   0  0  0  0  0  0  0  0  0  0  0  0
   12.8990  -15.2454   24.7120 O   0  0  0  0  0  0  0  0  0  0  0  0
   15.5824  -16.1277   20.3089 C   0  0  0  0  0  0  0  0  0  0  0  0
   15.9706  -16.0314   18.9870 C   0  0  0  0  0  0  0  0  0  0  0  0
    9.1020  -13.2257   28.3908 C   0  0  0  0  0  0  0  0  0  0  0  0
    9.1831  -14.3859   27.0264 S   0  0  0  0  0  0  0  0  0  0  0  0
   10.5699  -15.5040   27.1236 C   0  0  0  0  0  0  0  0  0  0  0  0
   10.6877  -16.3872   25.9435 C   0  0  0  0  0  0  0  0  0  0  0  0
   11.7229  -17.4515   25.9310 C   0  0  2  0  0  0  0  0  0  0  0  0
   12.2507  -17.4287   24.5355 N   0  0  0  0  0  0  0  0  0  0  0  0
   11.3464  -18.8005   26.3079 C   0  0  0  0  0  0  0  0  0  0  0  0
   10.3815  -18.9944   27.1232 O   0  0  0  0  0  0  0  0  0  0  0  0
   11.9599  -19.9510   25.8406 O   0  0  0  0  0  0  0  0  0  0  0  0
  2  3  2  0
  2  1  1  0
  4  3  1  0
  5  4  2  0
  6  5  1  0
  7  6  1  0
  7  8  1  1
  9 20  1  0
  9  7  1  0
 10  9  2  0
 11  5  1  0
 11 12  2  0
 12  2  1  0
 14 13  1  0
 14 15  2  0
 16 15  1  0
 17 16  2  0
 18 17  1  0
 19 18  1  1
 19 20  1  0
 21 19  1  0
 21 30  1  0
 22 21  2  0
 23 24  2  0
 23 17  1  0
 24 14  1  0
 25 26  1  0
 26 27  1  0
 27 28  1  0
 29 28  1  6
 29 30  1  0
 29 31  1  0
 31 32  2  0
 31 33  1  0
M  END
$$$$
