YYM.pdb
     RDKit          3D

 33 34  0  0  1  0  0  0  0  0999 V2000
    0.9642  -20.5265   18.3153 O   0  0  0  0  0  0  0  0  0  0  0  0
    1.5971  -20.0627   19.4741 C   0  0  0  0  0  0  0  0  0  0  0  0
    0.8955  -19.9485   20.6439 C   0  0  0  0  0  0  0  0  0  0  0  0
    1.4874  -19.4915   21.8189 C   0  0  0  0  0  0  0  0  0  0  0  0
    2.8137  -19.1456   21.8021 C   0  0  0  0  0  0  0  0  0  0  0  0
    3.5147  -18.6525   23.0110 C   0  0  0  0  0  0  0  0  0  0  0  0
    4.7702  -19.4482   23.2669 C   0  0  2  0  0  0  0  0  0  0  0  0
    4.3653  -20.7323   23.8004 N   0  0  0  0  0  0  0  0  0  0  0  0
    5.7531  -18.7920   24.1223 C   0  0  0  0  0  0  0  0  0  0  0  0
    5.3943  -18.3767   25.2794 O   0  0  0  0  0  0  0  0  0  0  0  0
    3.5059  -19.2655   20.6198 C   0  0  0  0  0  0  0  0  0  0  0  0
    2.9221  -19.7172   19.4574 C   0  0  0  0  0  0  0  0  0  0  0  0
    8.0700  -21.5737   29.4423 O   0  0  0  0  0  0  0  0  0  0  0  0
    8.3424  -20.7887   28.3304 C   0  0  0  0  0  0  0  0  0  0  0  0
    8.4965  -19.4076   28.4951 C   0  0  0  0  0  0  0  0  0  0  0  0
    8.7676  -18.6136   27.3994 C   0  0  0  0  0  0  0  0  0  0  0  0
    8.8924  -19.1512   26.1311 C   0  0  0  0  0  0  0  0  0  0  0  0
    9.1801  -18.3428   24.9530 C   0  0  0  0  0  0  0  0  0  0  0  0
    7.9786  -17.6672   24.3375 C   0  0  2  0  0  0  0  0  0  0  0  0
    7.0999  -18.6079   23.6955 N   0  0  0  0  0  0  0  0  0  0  0  0
    8.2920  -16.5299   23.4697 C   0  0  0  0  0  0  0  0  0  0  0  0
    8.5226  -16.7420   22.2535 O   0  0  0  0  0  0  0  0  0  0  0  0
    8.7359  -20.5108   26.0005 C   0  0  0  0  0  0  0  0  0  0  0  0
    8.4641  -21.3394   27.0715 C   0  0  0  0  0  0  0  0  0  0  0  0
    5.3270  -12.1226   26.8520 C   0  0  0  0  0  0  0  0  0  0  0  0
    6.8870  -12.0423   25.9722 S   0  0  0  0  0  0  0  0  0  0  0  0
    6.8661  -12.8958   24.4057 C   0  0  0  0  0  0  0  0  0  0  0  0
    8.1679  -12.8566   23.7055 C   0  0  0  0  0  0  0  0  0  0  0  0
    8.6417  -14.0630   22.9812 C   0  0  2  0  0  0  0  0  0  0  0  0
    8.3504  -15.1871   23.9183 N   0  0  0  0  0  0  0  0  0  0  0  0
   10.0217  -14.1180   22.5380 C   0  0  0  0  0  0  0  0  0  0  0  0
   10.8794  -14.8046   23.1907 O   0  0  0  0  0  0  0  0  0  0  0  0
   10.5176  -13.4702   21.4188 O   0  0  0  0  0  0  0  0  0  0  0  0
  2  3  2  0
  2  1  1  0
  4  3  1  0
  5  4  2  0
  6  5  1  0
  7  6  1  0
  7  8  1  1
  9 20  1  0
  9  7  1  0
 10  9  2  0
 11  5  1  0
 11 12  2  0
 12  2  1  0
 14 13  1  0
 14 15  2  0
 16 15  1  0
 17 16  2  0
 18 17  1  0
 19 18  1  6
 19 20  1  0
 21 19  1  0
 21 30  1  0
 22 21  2  0
 23 24  2  0
 23 17  1  0
 24 14  1  0
 25 26  1  0
 26 27  1  0
 27 28  1  0
 29 28  1  1
 29 30  1  0
 29 31  1  0
 31 32  2  0
 31 33  1  0
M  END
$$$$
