YYM.pdb
     RDKit          3D

 33 34  0  0  1  0  0  0  0  0999 V2000
    7.9528  -13.0079   15.4716 O   0  0  0  0  0  0  0  0  0  0  0  0
    7.8125  -13.2572   16.8414 C   0  0  0  0  0  0  0  0  0  0  0  0
    8.1725  -14.4712   17.3614 C   0  0  0  0  0  0  0  0  0  0  0  0
    8.0489  -14.7598   18.7184 C   0  0  0  0  0  0  0  0  0  0  0  0
    7.5512  -13.7976   19.5582 C   0  0  0  0  0  0  0  0  0  0  0  0
    7.3908  -14.0280   21.0133 C   0  0  0  0  0  0  0  0  0  0  0  0
    8.0296  -15.3309   21.4251 C   0  0  2  0  0  0  0  0  0  0  0  0
    7.5940  -16.3410   20.4830 N   0  0  0  0  0  0  0  0  0  0  0  0
    7.7779  -15.7326   22.8048 C   0  0  0  0  0  0  0  0  0  0  0  0
    8.0181  -14.9022   23.7497 O   0  0  0  0  0  0  0  0  0  0  0  0
    7.1936  -12.5828   19.0218 C   0  0  0  0  0  0  0  0  0  0  0  0
    7.3152  -12.2960   17.6805 C   0  0  0  0  0  0  0  0  0  0  0  0
    7.5397  -21.8294   29.2616 O   0  0  0  0  0  0  0  0  0  0  0  0
    7.2935  -21.0939   28.1104 C   0  0  0  0  0  0  0  0  0  0  0  0
    6.4438  -19.9843   28.1818 C   0  0  0  0  0  0  0  0  0  0  0  0
    6.1890  -19.2430   27.0460 C   0  0  0  0  0  0  0  0  0  0  0  0
    6.7562  -19.5703   25.8276 C   0  0  0  0  0  0  0  0  0  0  0  0
    6.5106  -18.8087   24.6096 C   0  0  0  0  0  0  0  0  0  0  0  0
    7.3818  -17.5879   24.4373 C   0  0  2  0  0  0  0  0  0  0  0  0
    7.2697  -17.0263   23.1178 N   0  0  0  0  0  0  0  0  0  0  0  0
    8.7784  -17.7695   24.8388 C   0  0  0  0  0  0  0  0  0  0  0  0
    9.6609  -17.8339   23.9475 O   0  0  0  0  0  0  0  0  0  0  0  0
    7.5865  -20.6653   25.7885 C   0  0  0  0  0  0  0  0  0  0  0  0
    7.8666  -21.4327   26.9021 C   0  0  0  0  0  0  0  0  0  0  0  0
    8.4221  -11.5414   28.0365 C   0  0  0  0  0  0  0  0  0  0  0  0
    8.0436  -13.0859   27.2086 S   0  0  0  0  0  0  0  0  0  0  0  0
    9.3252  -14.3158   27.3745 C   0  0  0  0  0  0  0  0  0  0  0  0
    8.9693  -15.6123   26.7590 C   0  0  0  0  0  0  0  0  0  0  0  0
    9.9106  -16.7549   26.8722 C   0  0  2  0  0  0  0  0  0  0  0  0
    9.2052  -17.8763   26.1856 N   0  0  0  0  0  0  0  0  0  0  0  0
   10.3568  -17.1681   28.1890 C   0  0  0  0  0  0  0  0  0  0  0  0
   11.2451  -16.4899   28.8088 O   0  0  0  0  0  0  0  0  0  0  0  0
    9.8839  -18.2773   28.8706 O   0  0  0  0  0  0  0  0  0  0  0  0
  2  3  2  0
  2  1  1  0
  4  3  1  0
  5  4  2  0
  6  5  1  0
  7  6  1  0
  7  8  1  6
  9 20  1  0
  9  7  1  0
 10  9  2  0
 11  5  1  0
 11 12  2  0
 12  2  1  0
 14 13  1  0
 14 15  2  0
 16 15  1  0
 17 16  2  0
 18 17  1  0
 19 18  1  6
 19 20  1  0
 21 19  1  0
 21 30  1  0
 22 21  2  0
 23 24  2  0
 23 17  1  0
 24 14  1  0
 25 26  1  0
 26 27  1  0
 27 28  1  0
 29 28  1  1
 29 30  1  0
 29 31  1  0
 31 32  2  0
 31 33  1  0
M  END
$$$$
