YYM.pdb
     RDKit          3D

 33 34  0  0  1  0  0  0  0  0999 V2000
    8.6468  -13.5380   15.8079 O   0  0  0  0  0  0  0  0  0  0  0  0
    8.4182  -13.8123   17.1610 C   0  0  0  0  0  0  0  0  0  0  0  0
    8.8019  -15.0127   17.6952 C   0  0  0  0  0  0  0  0  0  0  0  0
    8.5930  -15.3252   19.0364 C   0  0  0  0  0  0  0  0  0  0  0  0
    7.9842  -14.4012   19.8454 C   0  0  0  0  0  0  0  0  0  0  0  0
    7.7284  -14.6588   21.2821 C   0  0  0  0  0  0  0  0  0  0  0  0
    6.8679  -15.8841   21.4640 C   0  0  2  0  0  0  0  0  0  0  0  0
    5.5530  -15.5679   20.9458 N   0  0  0  0  0  0  0  0  0  0  0  0
    6.8036  -16.3960   22.8286 C   0  0  0  0  0  0  0  0  0  0  0  0
    5.9201  -15.9281   23.6290 O   0  0  0  0  0  0  0  0  0  0  0  0
    7.6041  -13.1996   19.2949 C   0  0  0  0  0  0  0  0  0  0  0  0
    7.8100  -12.8892   17.9693 C   0  0  0  0  0  0  0  0  0  0  0  0
    8.8468  -20.9793   30.1306 O   0  0  0  0  0  0  0  0  0  0  0  0
    8.5574  -20.5519   28.8420 C   0  0  0  0  0  0  0  0  0  0  0  0
    9.5368  -20.6735   27.8499 C   0  0  0  0  0  0  0  0  0  0  0  0
    9.2644  -20.2531   26.5640 C   0  0  0  0  0  0  0  0  0  0  0  0
    8.0381  -19.7098   26.2263 C   0  0  0  0  0  0  0  0  0  0  0  0
    7.7162  -19.2579   24.8786 C   0  0  0  0  0  0  0  0  0  0  0  0
    7.7984  -17.7646   24.6729 C   0  0  2  0  0  0  0  0  0  0  0  0
    7.7011  -17.4046   23.2837 N   0  0  0  0  0  0  0  0  0  0  0  0
    8.9366  -17.1169   25.3285 C   0  0  0  0  0  0  0  0  0  0  0  0
   10.0588  -17.1508   24.7656 O   0  0  0  0  0  0  0  0  0  0  0  0
    7.0960  -19.6032   27.2218 C   0  0  0  0  0  0  0  0  0  0  0  0
    7.3294  -20.0120   28.5202 C   0  0  0  0  0  0  0  0  0  0  0  0
    6.2630  -12.1321   27.4120 C   0  0  0  0  0  0  0  0  0  0  0  0
    7.6620  -12.5093   28.4679 S   0  0  0  0  0  0  0  0  0  0  0  0
    8.2555  -14.1826   28.2933 C   0  0  0  0  0  0  0  0  0  0  0  0
    9.3965  -14.2998   27.3600 C   0  0  0  0  0  0  0  0  0  0  0  0
    9.9907  -15.6355   27.1006 C   0  0  2  0  0  0  0  0  0  0  0  0
    8.8528  -16.4431   26.5720 N   0  0  0  0  0  0  0  0  0  0  0  0
   10.6454  -16.3352   28.1895 C   0  0  0  0  0  0  0  0  0  0  0  0
   11.7381  -15.8864   28.6770 O   0  0  0  0  0  0  0  0  0  0  0  0
   10.1716  -17.4947   28.7807 O   0  0  0  0  0  0  0  0  0  0  0  0
  2  3  2  0
  2  1  1  0
  4  3  1  0
  5  4  2  0
  6  5  1  0
  7  6  1  0
  7  8  1  1
  9 20  1  0
  9  7  1  0
 10  9  2  0
 11  5  1  0
 11 12  2  0
 12  2  1  0
 14 13  1  0
 14 15  2  0
 16 15  1  0
 17 16  2  0
 18 17  1  0
 19 18  1  6
 19 20  1  0
 21 19  1  0
 21 30  1  0
 22 21  2  0
 23 24  2  0
 23 17  1  0
 24 14  1  0
 25 26  1  0
 26 27  1  0
 27 28  1  0
 29 28  1  1
 29 30  1  0
 29 31  1  0
 31 32  2  0
 31 33  1  0
M  END
$$$$
