YYM.pdb
     RDKit          3D

 33 34  0  0  1  0  0  0  0  0999 V2000
    5.2605  -23.9940   29.8160 O   0  0  0  0  0  0  0  0  0  0  0  0
    5.7214  -22.9195   29.0470 C   0  0  0  0  0  0  0  0  0  0  0  0
    7.0582  -22.6287   29.0004 C   0  0  0  0  0  0  0  0  0  0  0  0
    7.5580  -21.5686   28.2478 C   0  0  0  0  0  0  0  0  0  0  0  0
    6.6831  -20.7933   27.5319 C   0  0  0  0  0  0  0  0  0  0  0  0
    7.1375  -19.6494   26.7067 C   0  0  0  0  0  0  0  0  0  0  0  0
    6.9529  -19.9388   25.2380 C   0  0  2  0  0  0  0  0  0  0  0  0
    7.4921  -21.2596   24.9880 N   0  0  0  0  0  0  0  0  0  0  0  0
    7.5212  -18.9424   24.3365 C   0  0  0  0  0  0  0  0  0  0  0  0
    8.7263  -19.0866   23.9278 O   0  0  0  0  0  0  0  0  0  0  0  0
    5.3430  -21.0973   27.5882 C   0  0  0  0  0  0  0  0  0  0  0  0
    4.8475  -22.1449   28.3318 C   0  0  0  0  0  0  0  0  0  0  0  0
    8.3279  -11.8279   19.1217 O   0  0  0  0  0  0  0  0  0  0  0  0
    7.8274  -12.8185   19.9555 C   0  0  0  0  0  0  0  0  0  0  0  0
    7.7249  -14.1271   19.4703 C   0  0  0  0  0  0  0  0  0  0  0  0
    7.2294  -15.1230   20.2870 C   0  0  0  0  0  0  0  0  0  0  0  0
    6.8275  -14.8602   21.5842 C   0  0  0  0  0  0  0  0  0  0  0  0
    6.3017  -15.8877   22.4740 C   0  0  0  0  0  0  0  0  0  0  0  0
    7.3480  -16.7574   23.1281 C   0  0  2  0  0  0  0  0  0  0  0  0
    6.7614  -17.8178   23.9030 N   0  0  0  0  0  0  0  0  0  0  0  0
    8.3683  -16.0268   23.8831 C   0  0  0  0  0  0  0  0  0  0  0  0
    8.0229  -15.0197   24.5493 O   0  0  0  0  0  0  0  0  0  0  0  0
    6.9400  -13.5655   22.0328 C   0  0  0  0  0  0  0  0  0  0  0  0
    7.4306  -12.5410   21.2472 C   0  0  0  0  0  0  0  0  0  0  0  0
    9.5149  -12.2686   27.9981 C   0  0  0  0  0  0  0  0  0  0  0  0
   10.0381  -13.9548   28.3100 S   0  0  0  0  0  0  0  0  0  0  0  0
   11.0105  -14.6549   26.9883 C   0  0  0  0  0  0  0  0  0  0  0  0
   10.1912  -15.3310   25.9597 C   0  0  0  0  0  0  0  0  0  0  0  0
   10.7542  -15.5399   24.6018 C   0  0  2  0  0  0  0  0  0  0  0  0
    9.7379  -16.3884   23.9136 N   0  0  0  0  0  0  0  0  0  0  0  0
   12.0745  -16.1262   24.4727 C   0  0  0  0  0  0  0  0  0  0  0  0
   12.2033  -17.3513   24.1325 O   0  0  0  0  0  0  0  0  0  0  0  0
   13.2634  -15.4491   24.6883 O   0  0  0  0  0  0  0  0  0  0  0  0
  2  3  2  0
  2  1  1  0
  4  3  1  0
  5  4  2  0
  6  5  1  0
  7  6  1  0
  7  8  1  6
  9 20  1  0
  9  7  1  0
 10  9  2  0
 11  5  1  0
 11 12  2  0
 12  2  1  0
 14 13  1  0
 14 15  2  0
 16 15  1  0
 17 16  2  0
 18 17  1  0
 19 18  1  1
 19 20  1  0
 21 19  1  0
 21 30  1  0
 22 21  2  0
 23 24  2  0
 23 17  1  0
 24 14  1  0
 25 26  1  0
 26 27  1  0
 27 28  1  0
 29 28  1  1
 29 30  1  0
 29 31  1  0
 31 32  2  0
 31 33  1  0
M  END
$$$$
