YYM.pdb
     RDKit          3D

 33 34  0  0  1  0  0  0  0  0999 V2000
    6.5045  -12.2191   16.0238 O   0  0  0  0  0  0  0  0  0  0  0  0
    6.9729  -12.9525   17.1197 C   0  0  0  0  0  0  0  0  0  0  0  0
    8.0772  -12.5307   17.8099 C   0  0  0  0  0  0  0  0  0  0  0  0
    8.5758  -13.2311   18.9057 C   0  0  0  0  0  0  0  0  0  0  0  0
    7.9400  -14.3783   19.3044 C   0  0  0  0  0  0  0  0  0  0  0  0
    8.4087  -15.1776   20.4609 C   0  0  0  0  0  0  0  0  0  0  0  0
    9.5905  -16.0337   20.0793 C   0  0  2  0  0  0  0  0  0  0  0  0
    9.1542  -16.9247   19.0242 N   0  0  0  0  0  0  0  0  0  0  0  0
   10.2067  -16.7622   21.1830 C   0  0  0  0  0  0  0  0  0  0  0  0
    9.9388  -18.0051   21.3363 O   0  0  0  0  0  0  0  0  0  0  0  0
    6.8319  -14.7899   18.6015 C   0  0  0  0  0  0  0  0  0  0  0  0
    6.3379  -14.0985   17.5180 C   0  0  0  0  0  0  0  0  0  0  0  0
   15.4899  -14.7415   18.4781 O   0  0  0  0  0  0  0  0  0  0  0  0
   14.9094  -15.3292   19.5937 C   0  0  0  0  0  0  0  0  0  0  0  0
   14.2419  -16.5505   19.4484 C   0  0  0  0  0  0  0  0  0  0  0  0
   13.6597  -17.1474   20.5481 C   0  0  0  0  0  0  0  0  0  0  0  0
   13.7187  -16.5655   21.8015 C   0  0  0  0  0  0  0  0  0  0  0  0
   13.1169  -17.1690   22.9839 C   0  0  0  0  0  0  0  0  0  0  0  0
   11.6690  -16.8089   23.2136 C   0  0  2  0  0  0  0  0  0  0  0  0
   11.0991  -16.1183   22.0879 N   0  0  0  0  0  0  0  0  0  0  0  0
   11.4025  -16.1140   24.4750 C   0  0  0  0  0  0  0  0  0  0  0  0
   12.0310  -16.4653   25.5040 O   0  0  0  0  0  0  0  0  0  0  0  0
   14.3810  -15.3660   21.9132 C   0  0  0  0  0  0  0  0  0  0  0  0
   14.9766  -14.7367   20.8377 C   0  0  0  0  0  0  0  0  0  0  0  0
    6.0241  -11.7264   28.0492 C   0  0  0  0  0  0  0  0  0  0  0  0
    7.1936  -12.0411   26.7273 S   0  0  0  0  0  0  0  0  0  0  0  0
    7.4105  -13.7746   26.3658 C   0  0  0  0  0  0  0  0  0  0  0  0
    8.5168  -14.0368   25.4204 C   0  0  0  0  0  0  0  0  0  0  0  0
    9.6551  -14.8880   25.8496 C   0  0  2  0  0  0  0  0  0  0  0  0
   10.4710  -15.0552   24.6115 N   0  0  0  0  0  0  0  0  0  0  0  0
    9.3781  -16.1782   26.4515 C   0  0  0  0  0  0  0  0  0  0  0  0
    9.5149  -16.3424   27.7114 O   0  0  0  0  0  0  0  0  0  0  0  0
    8.9542  -17.2987   25.7563 O   0  0  0  0  0  0  0  0  0  0  0  0
  2  3  2  0
  2  1  1  0
  4  3  1  0
  5  4  2  0
  6  5  1  0
  7  6  1  0
  7  8  1  6
  9 20  1  0
  9  7  1  0
 10  9  2  0
 11  5  1  0
 11 12  2  0
 12  2  1  0
 14 13  1  0
 14 15  2  0
 16 15  1  0
 17 16  2  0
 18 17  1  0
 19 18  1  6
 19 20  1  0
 21 19  1  0
 21 30  1  0
 22 21  2  0
 23 24  2  0
 23 17  1  0
 24 14  1  0
 25 26  1  0
 26 27  1  0
 27 28  1  0
 29 28  1  6
 29 30  1  0
 29 31  1  0
 31 32  2  0
 31 33  1  0
M  END
$$$$
