YYM.pdb
     RDKit          3D

 33 34  0  0  1  0  0  0  0  0999 V2000
    2.3645  -23.0131   23.5947 O   0  0  0  0  0  0  0  0  0  0  0  0
    3.4934  -22.1866   23.6229 C   0  0  0  0  0  0  0  0  0  0  0  0
    4.7041  -22.6868   24.0202 C   0  0  0  0  0  0  0  0  0  0  0  0
    5.8515  -21.8983   24.0625 C   0  0  0  0  0  0  0  0  0  0  0  0
    5.7643  -20.5807   23.6946 C   0  0  0  0  0  0  0  0  0  0  0  0
    6.9399  -19.6786   23.7115 C   0  0  0  0  0  0  0  0  0  0  0  0
    7.2275  -19.1439   22.3308 C   0  0  2  0  0  0  0  0  0  0  0  0
    7.4477  -20.2836   21.4647 N   0  0  0  0  0  0  0  0  0  0  0  0
    8.3260  -18.1867   22.2562 C   0  0  0  0  0  0  0  0  0  0  0  0
    9.4838  -18.5937   21.8902 O   0  0  0  0  0  0  0  0  0  0  0  0
    4.5416  -20.0920   23.2977 C   0  0  0  0  0  0  0  0  0  0  0  0
    3.4065  -20.8702   23.2554 C   0  0  0  0  0  0  0  0  0  0  0  0
    7.4416  -13.4990   16.9086 O   0  0  0  0  0  0  0  0  0  0  0  0
    7.7736  -13.7438   18.2340 C   0  0  0  0  0  0  0  0  0  0  0  0
    7.0719  -13.0767   19.2445 C   0  0  0  0  0  0  0  0  0  0  0  0
    7.3902  -13.3094   20.5670 C   0  0  0  0  0  0  0  0  0  0  0  0
    8.3933  -14.1923   20.9239 C   0  0  0  0  0  0  0  0  0  0  0  0
    8.7539  -14.4630   22.3099 C   0  0  0  0  0  0  0  0  0  0  0  0
    9.2221  -15.8725   22.5806 C   0  0  2  0  0  0  0  0  0  0  0  0
    8.1335  -16.8126   22.5798 N   0  0  0  0  0  0  0  0  0  0  0  0
   10.0723  -16.0196   23.7639 C   0  0  0  0  0  0  0  0  0  0  0  0
   10.9817  -15.1769   23.9645 O   0  0  0  0  0  0  0  0  0  0  0  0
    9.0649  -14.8327   19.9096 C   0  0  0  0  0  0  0  0  0  0  0  0
    8.7767  -14.6274   18.5746 C   0  0  0  0  0  0  0  0  0  0  0  0
    9.8995  -13.1985   30.1210 C   0  0  0  0  0  0  0  0  0  0  0  0
    9.5542  -13.6909   28.4321 S   0  0  0  0  0  0  0  0  0  0  0  0
   10.2006  -15.2999   28.0128 C   0  0  0  0  0  0  0  0  0  0  0  0
    9.9631  -15.6716   26.6014 C   0  0  0  0  0  0  0  0  0  0  0  0
   10.5059  -16.9534   26.0848 C   0  0  2  0  0  0  0  0  0  0  0  0
    9.9325  -17.0636   24.7116 N   0  0  0  0  0  0  0  0  0  0  0  0
   10.2623  -18.1709   26.8344 C   0  0  0  0  0  0  0  0  0  0  0  0
   11.2396  -18.9150   27.1871 O   0  0  0  0  0  0  0  0  0  0  0  0
    9.0119  -18.6198   27.2262 O   0  0  0  0  0  0  0  0  0  0  0  0
  2  3  2  0
  2  1  1  0
  4  3  1  0
  5  4  2  0
  6  5  1  0
  7  6  1  0
  7  8  1  6
  9 20  1  0
  9  7  1  0
 10  9  2  0
 11  5  1  0
 11 12  2  0
 12  2  1  0
 14 13  1  0
 14 15  2  0
 16 15  1  0
 17 16  2  0
 18 17  1  0
 19 18  1  1
 19 20  1  0
 21 19  1  0
 21 30  1  0
 22 21  2  0
 23 24  2  0
 23 17  1  0
 24 14  1  0
 25 26  1  0
 26 27  1  0
 27 28  1  0
 29 28  1  1
 29 30  1  0
 29 31  1  0
 31 32  2  0
 31 33  1  0
M  END
$$$$
