ESR.pdb
     RDKit          3D

 27 26  0  0  1  0  0  0  0  0999 V2000
    9.6686  -18.1607   19.0315 N   0  0  0  0  0  0  0  0  0  0  0  0
    8.5162  -17.4874   19.5265 C   0  0  1  0  0  0  0  0  0  0  0  0
    7.4818  -18.4279   20.0109 C   0  0  0  0  0  0  0  0  0  0  0  0
    7.8886  -19.3302   21.1271 C   0  0  0  0  0  0  0  0  0  0  0  0
    6.9192  -20.3407   21.5600 C   0  0  0  0  0  0  0  0  0  0  0  0
    7.0766  -21.1858   22.4682 O   0  0  0  0  0  0  0  0  0  0  0  0
    8.9632  -16.5280   20.5768 C   0  0  0  0  0  0  0  0  0  0  0  0
    9.9878  -16.7506   21.2824 O   0  0  0  0  0  0  0  0  0  0  0  0
    5.6513  -20.4188   20.9208 O   0  0  0  0  0  0  0  0  0  0  0  0
    8.2607  -12.5254   20.4970 O   0  0  0  0  0  0  0  0  0  0  0  0
    7.8233  -13.1396   21.6784 C   0  0  0  0  0  0  0  0  0  0  0  0
    8.6837  -14.3982   21.8750 C   0  0  2  0  0  0  0  0  0  0  0  0
    8.2736  -15.3141   20.8495 N   0  0  0  0  0  0  0  0  0  0  0  0
    8.4333  -14.8628   23.2476 C   0  0  0  0  0  0  0  0  0  0  0  0
    7.4687  -15.5601   23.6244 O   0  0  0  0  0  0  0  0  0  0  0  0
   13.3694  -18.8368   29.1704 N   0  0  0  0  0  0  0  0  0  0  0  0
   12.0777  -18.7378   29.7260 C   0  0  0  0  0  0  0  0  0  0  0  0
   11.7584  -19.4196   30.7798 N   0  0  0  0  0  0  0  0  0  0  0  0
   11.1037  -17.8906   29.1344 N   0  0  0  0  0  0  0  0  0  0  0  0
   11.3167  -17.3162   27.8383 C   0  0  0  0  0  0  0  0  0  0  0  0
   10.2595  -16.3695   27.3856 C   0  0  0  0  0  0  0  0  0  0  0  0
   10.4167  -15.8426   25.9927 C   0  0  0  0  0  0  0  0  0  0  0  0
    9.2592  -14.9458   25.6025 C   0  0  2  0  0  0  0  0  0  0  0  0
    9.3853  -14.4774   24.2367 N   0  0  0  0  0  0  0  0  0  0  0  0
    9.3132  -13.7617   26.4971 C   0  0  0  0  0  0  0  0  0  0  0  0
    9.8106  -12.6677   26.1227 O   0  0  0  0  0  0  0  0  0  0  0  0
    8.8140  -13.8079   27.7954 O   0  0  0  0  0  0  0  0  0  0  0  0
  2  3  1  0
  2  1  1  1
  3  4  1  0
  4  5  1  0
  5  6  2  0
  5  9  1  0
  7  2  1  0
  7  8  2  0
 10 11  1  0
 12 11  1  6
 12 13  1  0
 12 14  1  0
 13  7  1  0
 14 24  1  0
 15 14  2  0
 16 17  1  0
 17 18  2  0
 19 20  1  0
 19 17  1  0
 21 22  1  0
 21 20  1  0
 23 22  1  1
 23 25  1  0
 24 23  1  0
 25 26  2  0
 25 27  1  0
M  END
$$$$
