ESR.pdb
     RDKit          3D

 27 26  0  0  1  0  0  0  0  0999 V2000
    7.4753  -17.6959   17.0184 N   0  0  0  0  0  0  0  0  0  0  0  0
    8.8397  -17.7430   17.4214 C   0  0  1  0  0  0  0  0  0  0  0  0
    9.7574  -17.3034   16.3472 C   0  0  0  0  0  0  0  0  0  0  0  0
   11.2150  -17.4269   16.6403 C   0  0  0  0  0  0  0  0  0  0  0  0
   12.1472  -17.0780   15.5645 C   0  0  0  0  0  0  0  0  0  0  0  0
   11.8491  -16.7464   14.3962 O   0  0  0  0  0  0  0  0  0  0  0  0
    8.9769  -16.9341   18.6665 C   0  0  0  0  0  0  0  0  0  0  0  0
   10.0821  -16.8342   19.2714 O   0  0  0  0  0  0  0  0  0  0  0  0
   13.5474  -17.0999   15.8121 O   0  0  0  0  0  0  0  0  0  0  0  0
    5.7212  -16.0377   20.9958 O   0  0  0  0  0  0  0  0  0  0  0  0
    6.5844  -14.9576   20.7657 C   0  0  0  0  0  0  0  0  0  0  0  0
    7.9803  -15.5464   20.5051 C   0  0  2  0  0  0  0  0  0  0  0  0
    7.8857  -16.2304   19.2474 N   0  0  0  0  0  0  0  0  0  0  0  0
    8.2868  -16.4134   21.6527 C   0  0  0  0  0  0  0  0  0  0  0  0
    8.0577  -17.6381   21.7320 O   0  0  0  0  0  0  0  0  0  0  0  0
   10.1800  -15.4525   29.9926 N   0  0  0  0  0  0  0  0  0  0  0  0
   11.3527  -16.1564   29.6519 C   0  0  0  0  0  0  0  0  0  0  0  0
   12.2885  -16.3428   30.5276 N   0  0  0  0  0  0  0  0  0  0  0  0
   11.5279  -16.6689   28.3393 N   0  0  0  0  0  0  0  0  0  0  0  0
   11.1944  -15.8796   27.1899 C   0  0  0  0  0  0  0  0  0  0  0  0
   10.3356  -16.5627   26.1824 C   0  0  0  0  0  0  0  0  0  0  0  0
    9.9555  -15.7383   24.9915 C   0  0  0  0  0  0  0  0  0  0  0  0
    9.1460  -16.5414   23.9936 C   0  0  2  0  0  0  0  0  0  0  0  0
    8.9033  -15.7909   22.7776 N   0  0  0  0  0  0  0  0  0  0  0  0
    7.8322  -16.8165   24.6291 C   0  0  0  0  0  0  0  0  0  0  0  0
    6.8604  -16.0245   24.5163 O   0  0  0  0  0  0  0  0  0  0  0  0
    7.6149  -17.9672   25.3809 O   0  0  0  0  0  0  0  0  0  0  0  0
  2  3  1  0
  2  1  1  6
  3  4  1  0
  4  5  1  0
  5  6  2  0
  5  9  1  0
  7  2  1  0
  7  8  2  0
 10 11  1  0
 12 11  1  1
 12 13  1  0
 12 14  1  0
 13  7  1  0
 14 24  1  0
 15 14  2  0
 16 17  1  0
 17 18  2  0
 19 20  1  0
 19 17  1  0
 21 22  1  0
 21 20  1  0
 23 22  1  1
 23 25  1  0
 24 23  1  0
 25 26  2  0
 25 27  1  0
M  END
$$$$
