ESR.pdb
     RDKit          3D

 27 26  0  0  1  0  0  0  0  0999 V2000
    8.6963  -16.3758   15.8784 N   0  0  0  0  0  0  0  0  0  0  0  0
    8.4013  -17.0902   17.0738 C   0  0  1  0  0  0  0  0  0  0  0  0
    9.0966  -18.3949   17.1338 C   0  0  0  0  0  0  0  0  0  0  0  0
    9.7727  -18.8345   15.8786 C   0  0  0  0  0  0  0  0  0  0  0  0
   10.4683  -20.1243   15.9079 C   0  0  0  0  0  0  0  0  0  0  0  0
   10.0261  -21.2207   15.5003 O   0  0  0  0  0  0  0  0  0  0  0  0
    8.7305  -16.2057   18.2281 C   0  0  0  0  0  0  0  0  0  0  0  0
    9.8305  -15.5869   18.2940 O   0  0  0  0  0  0  0  0  0  0  0  0
   11.7839  -20.2023   16.4423 O   0  0  0  0  0  0  0  0  0  0  0  0
    6.2806  -16.3734   21.4820 O   0  0  0  0  0  0  0  0  0  0  0  0
    6.9595  -15.1545   21.3486 C   0  0  0  0  0  0  0  0  0  0  0  0
    8.2539  -15.4444   20.5718 C   0  0  2  0  0  0  0  0  0  0  0  0
    7.8383  -16.0030   19.3172 N   0  0  0  0  0  0  0  0  0  0  0  0
    9.0494  -16.3512   21.4129 C   0  0  0  0  0  0  0  0  0  0  0  0
    9.1162  -17.5926   21.2985 O   0  0  0  0  0  0  0  0  0  0  0  0
   17.7262  -17.6201   23.1794 N   0  0  0  0  0  0  0  0  0  0  0  0
   16.7112  -16.6634   23.3830 C   0  0  0  0  0  0  0  0  0  0  0  0
   16.8424  -15.4560   22.9331 N   0  0  0  0  0  0  0  0  0  0  0  0
   15.5291  -17.0087   24.0900 N   0  0  0  0  0  0  0  0  0  0  0  0
   14.4534  -16.0712   24.2285 C   0  0  0  0  0  0  0  0  0  0  0  0
   13.0881  -16.6541   24.1058 C   0  0  0  0  0  0  0  0  0  0  0  0
   12.1237  -15.8715   23.2691 C   0  0  0  0  0  0  0  0  0  0  0  0
   10.7625  -16.5355   23.2200 C   0  0  2  0  0  0  0  0  0  0  0  0
    9.8140  -15.7501   22.4555 N   0  0  0  0  0  0  0  0  0  0  0  0
   10.2701  -16.6089   24.6192 C   0  0  0  0  0  0  0  0  0  0  0  0
   10.7933  -17.3766   25.4686 O   0  0  0  0  0  0  0  0  0  0  0  0
    9.2037  -15.8291   25.0566 O   0  0  0  0  0  0  0  0  0  0  0  0
  2  3  1  0
  2  1  1  6
  3  4  1  0
  4  5  1  0
  5  6  2  0
  5  9  1  0
  7  2  1  0
  7  8  2  0
 10 11  1  0
 12 11  1  1
 12 13  1  0
 12 14  1  0
 13  7  1  0
 14 24  1  0
 15 14  2  0
 16 17  1  0
 17 18  2  0
 19 20  1  0
 19 17  1  0
 21 22  1  0
 21 20  1  0
 23 22  1  1
 23 25  1  0
 24 23  1  0
 25 26  2  0
 25 27  1  0
M  END
$$$$
