ESR.pdb
     RDKit          3D

 27 26  0  0  1  0  0  0  0  0999 V2000
    6.8975  -19.5456   15.9258 N   0  0  0  0  0  0  0  0  0  0  0  0
    7.8097  -18.9918   16.8679 C   0  0  1  0  0  0  0  0  0  0  0  0
    8.6646  -17.9422   16.2707 C   0  0  0  0  0  0  0  0  0  0  0  0
    8.2142  -17.4010   14.9554 C   0  0  0  0  0  0  0  0  0  0  0  0
    9.1103  -16.4624   14.2741 C   0  0  0  0  0  0  0  0  0  0  0  0
   10.2489  -16.1092   14.6516 O   0  0  0  0  0  0  0  0  0  0  0  0
    7.0207  -18.5011   18.0341 C   0  0  0  0  0  0  0  0  0  0  0  0
    5.9412  -17.8621   17.8800 O   0  0  0  0  0  0  0  0  0  0  0  0
    8.7003  -15.8579   13.0539 O   0  0  0  0  0  0  0  0  0  0  0  0
    5.9246  -20.4979   20.8154 O   0  0  0  0  0  0  0  0  0  0  0  0
    5.4387  -19.2054   20.5752 C   0  0  0  0  0  0  0  0  0  0  0  0
    6.6588  -18.2728   20.5072 C   0  0  2  0  0  0  0  0  0  0  0  0
    7.4268  -18.7179   19.3800 N   0  0  0  0  0  0  0  0  0  0  0  0
    7.3456  -18.3915   21.8021 C   0  0  0  0  0  0  0  0  0  0  0  0
    8.2459  -19.2086   22.0857 O   0  0  0  0  0  0  0  0  0  0  0  0
    7.1746  -12.8394   19.6896 N   0  0  0  0  0  0  0  0  0  0  0  0
    8.5795  -12.8804   19.5825 C   0  0  0  0  0  0  0  0  0  0  0  0
    9.1639  -12.6108   18.4587 N   0  0  0  0  0  0  0  0  0  0  0  0
    9.3765  -13.2232   20.7067 N   0  0  0  0  0  0  0  0  0  0  0  0
    8.7725  -13.5606   21.9623 C   0  0  0  0  0  0  0  0  0  0  0  0
    8.6511  -15.0204   22.2326 C   0  0  0  0  0  0  0  0  0  0  0  0
    7.9940  -15.3858   23.5277 C   0  0  0  0  0  0  0  0  0  0  0  0
    7.9210  -16.8882   23.7109 C   0  0  2  0  0  0  0  0  0  0  0  0
    6.9407  -17.4856   22.8260 N   0  0  0  0  0  0  0  0  0  0  0  0
    7.4801  -17.1292   25.1084 C   0  0  0  0  0  0  0  0  0  0  0  0
    6.2666  -17.2824   25.4056 O   0  0  0  0  0  0  0  0  0  0  0  0
    8.3924  -17.1972   26.1571 O   0  0  0  0  0  0  0  0  0  0  0  0
  2  3  1  0
  2  1  1  6
  3  4  1  0
  4  5  1  0
  5  6  2  0
  5  9  1  0
  7  2  1  0
  7  8  2  0
 10 11  1  0
 12 11  1  1
 12 13  1  0
 12 14  1  0
 13  7  1  0
 14 24  1  0
 15 14  2  0
 16 17  1  0
 17 18  2  0
 19 20  1  0
 19 17  1  0
 21 22  1  0
 21 20  1  0
 23 22  1  6
 23 25  1  0
 24 23  1  0
 25 26  2  0
 25 27  1  0
M  END
$$$$
