ESR.pdb
     RDKit          3D

 27 26  0  0  1  0  0  0  0  0999 V2000
   10.6820  -18.4835   16.6967 N   0  0  0  0  0  0  0  0  0  0  0  0
   10.0057  -19.2981   17.6482 C   0  0  1  0  0  0  0  0  0  0  0  0
   10.9280  -20.2056   18.3659 C   0  0  0  0  0  0  0  0  0  0  0  0
   12.2882  -20.3595   17.7728 C   0  0  0  0  0  0  0  0  0  0  0  0
   13.4161  -20.4725   18.7019 C   0  0  0  0  0  0  0  0  0  0  0  0
   13.8382  -21.5193   19.2403 O   0  0  0  0  0  0  0  0  0  0  0  0
    9.2497  -18.3979   18.5655 C   0  0  0  0  0  0  0  0  0  0  0  0
    9.6780  -17.2467   18.8632 O   0  0  0  0  0  0  0  0  0  0  0  0
   14.1458  -19.3080   19.0677 O   0  0  0  0  0  0  0  0  0  0  0  0
    5.8955  -19.8184   20.3016 O   0  0  0  0  0  0  0  0  0  0  0  0
    5.8562  -18.4344   20.0844 C   0  0  0  0  0  0  0  0  0  0  0  0
    7.3109  -17.9375   20.0914 C   0  0  2  0  0  0  0  0  0  0  0  0
    8.0118  -18.7718   19.1580 N   0  0  0  0  0  0  0  0  0  0  0  0
    7.7800  -18.0442   21.4811 C   0  0  0  0  0  0  0  0  0  0  0  0
    8.5756  -18.8972   21.9261 O   0  0  0  0  0  0  0  0  0  0  0  0
    9.9253  -13.3208   28.8339 N   0  0  0  0  0  0  0  0  0  0  0  0
    8.6183  -13.2866   28.3071 C   0  0  0  0  0  0  0  0  0  0  0  0
    8.0214  -12.1569   28.0955 N   0  0  0  0  0  0  0  0  0  0  0  0
    7.9334  -14.4931   28.0041 N   0  0  0  0  0  0  0  0  0  0  0  0
    7.2566  -14.6611   26.7516 C   0  0  0  0  0  0  0  0  0  0  0  0
    7.7211  -15.8155   25.9327 C   0  0  0  0  0  0  0  0  0  0  0  0
    7.2647  -15.8218   24.5065 C   0  0  0  0  0  0  0  0  0  0  0  0
    7.7316  -17.0657   23.7777 C   0  0  2  0  0  0  0  0  0  0  0  0
    7.2750  -17.0800   22.4022 N   0  0  0  0  0  0  0  0  0  0  0  0
    7.1189  -18.2260   24.4733 C   0  0  0  0  0  0  0  0  0  0  0  0
    5.9452  -18.6066   24.2239 O   0  0  0  0  0  0  0  0  0  0  0  0
    7.8174  -18.9483   25.4361 O   0  0  0  0  0  0  0  0  0  0  0  0
  2  3  1  0
  2  1  1  6
  3  4  1  0
  4  5  1  0
  5  6  2  0
  5  9  1  0
  7  2  1  0
  7  8  2  0
 10 11  1  0
 12 11  1  1
 12 13  1  0
 12 14  1  0
 13  7  1  0
 14 24  1  0
 15 14  2  0
 16 17  1  0
 17 18  2  0
 19 20  1  0
 19 17  1  0
 21 22  1  0
 21 20  1  0
 23 22  1  1
 23 25  1  0
 24 23  1  0
 25 26  2  0
 25 27  1  0
M  END
$$$$
