ESR.pdb
     RDKit          3D

 27 26  0  0  1  0  0  0  0  0999 V2000
    7.8793  -13.3014   16.9631 N   0  0  0  0  0  0  0  0  0  0  0  0
    8.0890  -14.7009   17.1177 C   0  0  1  0  0  0  0  0  0  0  0  0
    9.3258  -15.1602   16.4480 C   0  0  0  0  0  0  0  0  0  0  0  0
    9.3162  -15.1196   14.9567 C   0  0  0  0  0  0  0  0  0  0  0  0
   10.5547  -15.4934   14.2677 C   0  0  0  0  0  0  0  0  0  0  0  0
   11.5989  -15.9349   14.7955 O   0  0  0  0  0  0  0  0  0  0  0  0
    8.0735  -15.0070   18.5770 C   0  0  0  0  0  0  0  0  0  0  0  0
    8.4059  -14.1427   19.4372 O   0  0  0  0  0  0  0  0  0  0  0  0
   10.6402  -15.3638   12.8542 O   0  0  0  0  0  0  0  0  0  0  0  0
    7.3196  -18.8264   19.8349 O   0  0  0  0  0  0  0  0  0  0  0  0
    6.7918  -17.8174   20.6521 C   0  0  0  0  0  0  0  0  0  0  0  0
    7.7000  -16.5878   20.4903 C   0  0  2  0  0  0  0  0  0  0  0  0
    7.6880  -16.2765   19.0897 N   0  0  0  0  0  0  0  0  0  0  0  0
    9.0166  -16.9706   21.0219 C   0  0  0  0  0  0  0  0  0  0  0  0
   10.0578  -17.1439   20.3550 O   0  0  0  0  0  0  0  0  0  0  0  0
   10.0291  -15.1686   29.2972 N   0  0  0  0  0  0  0  0  0  0  0  0
    9.8428  -14.1648   28.3253 C   0  0  0  0  0  0  0  0  0  0  0  0
    9.5499  -12.9529   28.6758 N   0  0  0  0  0  0  0  0  0  0  0  0
    9.9693  -14.4691   26.9440 N   0  0  0  0  0  0  0  0  0  0  0  0
   10.1991  -15.8141   26.5042 C   0  0  0  0  0  0  0  0  0  0  0  0
   10.1670  -16.0098   25.0278 C   0  0  0  0  0  0  0  0  0  0  0  0
   10.2937  -17.4269   24.5606 C   0  0  0  0  0  0  0  0  0  0  0  0
   10.3700  -17.5104   23.0495 C   0  0  2  0  0  0  0  0  0  0  0  0
    9.1062  -17.1603   22.4322 N   0  0  0  0  0  0  0  0  0  0  0  0
   10.6650  -18.9263   22.7123 C   0  0  0  0  0  0  0  0  0  0  0  0
    9.7522  -19.7483   22.4375 O   0  0  0  0  0  0  0  0  0  0  0  0
   11.9694  -19.4106   22.6846 O   0  0  0  0  0  0  0  0  0  0  0  0
  2  3  1  0
  2  1  1  1
  3  4  1  0
  4  5  1  0
  5  6  2  0
  5  9  1  0
  7  2  1  0
  7  8  2  0
 10 11  1  0
 12 11  1  6
 12 13  1  0
 12 14  1  0
 13  7  1  0
 14 24  1  0
 15 14  2  0
 16 17  1  0
 17 18  2  0
 19 20  1  0
 19 17  1  0
 21 22  1  0
 21 20  1  0
 23 22  1  1
 23 25  1  0
 24 23  1  0
 25 26  2  0
 25 27  1  0
M  END
$$$$
