ESR.pdb
     RDKit          3D

 27 26  0  0  1  0  0  0  0  0999 V2000
   13.0872  -18.5069   17.7002 N   0  0  0  0  0  0  0  0  0  0  0  0
   13.6562  -18.2906   18.9870 C   0  0  1  0  0  0  0  0  0  0  0  0
   14.5456  -17.1085   19.0157 C   0  0  0  0  0  0  0  0  0  0  0  0
   13.9990  -15.8632   18.4024 C   0  0  0  0  0  0  0  0  0  0  0  0
   14.8735  -14.6872   18.3797 C   0  0  0  0  0  0  0  0  0  0  0  0
   15.8016  -14.4622   17.5723 O   0  0  0  0  0  0  0  0  0  0  0  0
   12.5396  -18.1985   19.9709 C   0  0  0  0  0  0  0  0  0  0  0  0
   11.3936  -17.7857   19.6335 O   0  0  0  0  0  0  0  0  0  0  0  0
   14.6987  -13.6615   19.3489 O   0  0  0  0  0  0  0  0  0  0  0  0
   13.2561  -19.1717   23.8433 O   0  0  0  0  0  0  0  0  0  0  0  0
   11.9798  -19.5256   23.3845 C   0  0  0  0  0  0  0  0  0  0  0  0
   11.6074  -18.5254   22.2782 C   0  0  2  0  0  0  0  0  0  0  0  0
   12.6897  -18.5649   21.3371 N   0  0  0  0  0  0  0  0  0  0  0  0
   11.4172  -17.2258   22.9395 C   0  0  0  0  0  0  0  0  0  0  0  0
   12.3099  -16.3897   23.1902 O   0  0  0  0  0  0  0  0  0  0  0  0
    7.6958  -11.6361   19.8612 N   0  0  0  0  0  0  0  0  0  0  0  0
    7.9185  -12.8272   19.1410 C   0  0  0  0  0  0  0  0  0  0  0  0
    8.2758  -12.7891   17.8967 N   0  0  0  0  0  0  0  0  0  0  0  0
    7.7498  -14.0895   19.7692 N   0  0  0  0  0  0  0  0  0  0  0  0
    7.6048  -14.1906   21.1919 C   0  0  0  0  0  0  0  0  0  0  0  0
    8.7750  -14.7734   21.9059 C   0  0  0  0  0  0  0  0  0  0  0  0
    8.6147  -14.9346   23.3860 C   0  0  0  0  0  0  0  0  0  0  0  0
    9.8048  -15.6424   24.0014 C   0  0  2  0  0  0  0  0  0  0  0  0
   10.0860  -16.8951   23.3286 N   0  0  0  0  0  0  0  0  0  0  0  0
    9.4401  -15.9522   25.4073 C   0  0  0  0  0  0  0  0  0  0  0  0
    9.2402  -15.0458   26.2575 O   0  0  0  0  0  0  0  0  0  0  0  0
    9.3018  -17.2642   25.8503 O   0  0  0  0  0  0  0  0  0  0  0  0
  2  3  1  0
  2  1  1  6
  3  4  1  0
  4  5  1  0
  5  6  2  0
  5  9  1  0
  7  2  1  0
  7  8  2  0
 10 11  1  0
 12 11  1  1
 12 13  1  0
 12 14  1  0
 13  7  1  0
 14 24  1  0
 15 14  2  0
 16 17  1  0
 17 18  2  0
 19 20  1  0
 19 17  1  0
 21 22  1  0
 21 20  1  0
 23 22  1  6
 23 25  1  0
 24 23  1  0
 25 26  2  0
 25 27  1  0
M  END
$$$$
