ESR.pdb
     RDKit          3D

 27 26  0  0  1  0  0  0  0  0999 V2000
   10.8302  -17.9731   18.1589 N   0  0  0  0  0  0  0  0  0  0  0  0
    9.4999  -17.5128   18.3703 C   0  0  1  0  0  0  0  0  0  0  0  0
    8.5237  -18.6234   18.4227 C   0  0  0  0  0  0  0  0  0  0  0  0
    8.6611  -19.5620   19.5741 C   0  0  0  0  0  0  0  0  0  0  0  0
    7.6311  -20.5937   19.7251 C   0  0  0  0  0  0  0  0  0  0  0  0
    6.7573  -20.6517   20.6178 O   0  0  0  0  0  0  0  0  0  0  0  0
    9.4955  -16.6800   19.6072 C   0  0  0  0  0  0  0  0  0  0  0  0
   10.3473  -16.8544   20.5245 O   0  0  0  0  0  0  0  0  0  0  0  0
    7.5663  -21.6651   18.7922 O   0  0  0  0  0  0  0  0  0  0  0  0
    6.1591  -14.7383   21.0877 O   0  0  0  0  0  0  0  0  0  0  0  0
    7.2941  -13.9381   20.8982 C   0  0  0  0  0  0  0  0  0  0  0  0
    8.5187  -14.8579   21.0301 C   0  0  2  0  0  0  0  0  0  0  0  0
    8.5437  -15.6472   19.8323 N   0  0  0  0  0  0  0  0  0  0  0  0
    8.3285  -15.6285   22.2681 C   0  0  0  0  0  0  0  0  0  0  0  0
    7.9340  -16.8104   22.3463 O   0  0  0  0  0  0  0  0  0  0  0  0
   12.3533  -19.8941   27.2503 N   0  0  0  0  0  0  0  0  0  0  0  0
   12.1709  -19.8309   25.8540 C   0  0  0  0  0  0  0  0  0  0  0  0
   13.0524  -20.3344   25.0497 N   0  0  0  0  0  0  0  0  0  0  0  0
   11.0175  -19.2088   25.3070 N   0  0  0  0  0  0  0  0  0  0  0  0
   10.0238  -18.6220   26.1576 C   0  0  0  0  0  0  0  0  0  0  0  0
   10.0505  -17.1343   26.2267 C   0  0  0  0  0  0  0  0  0  0  0  0
    9.9820  -16.4245   24.9099 C   0  0  0  0  0  0  0  0  0  0  0  0
    8.6679  -15.6892   24.7411 C   0  0  2  0  0  0  0  0  0  0  0  0
    8.6238  -14.9572   23.4909 N   0  0  0  0  0  0  0  0  0  0  0  0
    8.5819  -14.7041   25.8491 C   0  0  0  0  0  0  0  0  0  0  0  0
    8.6151  -15.0574   27.0568 O   0  0  0  0  0  0  0  0  0  0  0  0
    8.4605  -13.3401   25.6015 O   0  0  0  0  0  0  0  0  0  0  0  0
  2  3  1  0
  2  1  1  1
  3  4  1  0
  4  5  1  0
  5  6  2  0
  5  9  1  0
  7  2  1  0
  7  8  2  0
 10 11  1  0
 12 11  1  6
 12 13  1  0
 12 14  1  0
 13  7  1  0
 14 24  1  0
 15 14  2  0
 16 17  1  0
 17 18  2  0
 19 20  1  0
 19 17  1  0
 21 22  1  0
 21 20  1  0
 23 22  1  1
 23 25  1  0
 24 23  1  0
 25 26  2  0
 25 27  1  0
M  END
$$$$
