ESR.pdb
     RDKit          3D

 27 26  0  0  1  0  0  0  0  0999 V2000
    8.4139  -18.1979   18.0478 N   0  0  0  0  0  0  0  0  0  0  0  0
    9.7365  -18.1501   18.5719 C   0  0  1  0  0  0  0  0  0  0  0  0
   10.7529  -17.9614   17.5134 C   0  0  0  0  0  0  0  0  0  0  0  0
   10.3810  -17.0320   16.4072 C   0  0  0  0  0  0  0  0  0  0  0  0
   11.3505  -16.8597   15.3215 C   0  0  0  0  0  0  0  0  0  0  0  0
   11.7400  -17.7385   14.5216 O   0  0  0  0  0  0  0  0  0  0  0  0
    9.7782  -17.0815   19.6110 C   0  0  0  0  0  0  0  0  0  0  0  0
   10.8353  -16.8268   20.2552 O   0  0  0  0  0  0  0  0  0  0  0  0
   11.9445  -15.5860   15.1040 O   0  0  0  0  0  0  0  0  0  0  0  0
    6.2532  -15.6223   21.0329 O   0  0  0  0  0  0  0  0  0  0  0  0
    7.2721  -14.6612   20.9837 C   0  0  0  0  0  0  0  0  0  0  0  0
    8.6071  -15.4172   21.0800 C   0  0  2  0  0  0  0  0  0  0  0  0
    8.6443  -16.2885   19.9407 N   0  0  0  0  0  0  0  0  0  0  0  0
    8.6016  -16.1067   22.3789 C   0  0  0  0  0  0  0  0  0  0  0  0
    8.2444  -17.2850   22.5855 O   0  0  0  0  0  0  0  0  0  0  0  0
   13.3356  -17.0363   29.2506 N   0  0  0  0  0  0  0  0  0  0  0  0
   11.9299  -16.9992   29.3488 C   0  0  0  0  0  0  0  0  0  0  0  0
   11.3533  -16.4020   30.3430 N   0  0  0  0  0  0  0  0  0  0  0  0
   11.1233  -17.6212   28.3594 N   0  0  0  0  0  0  0  0  0  0  0  0
   10.9113  -17.0000   27.0848 C   0  0  0  0  0  0  0  0  0  0  0  0
   10.0715  -15.7700   27.1137 C   0  0  0  0  0  0  0  0  0  0  0  0
    9.8801  -15.0867   25.7951 C   0  0  0  0  0  0  0  0  0  0  0  0
    9.1314  -15.9671   24.8150 C   0  0  2  0  0  0  0  0  0  0  0  0
    9.0473  -15.3534   23.5046 N   0  0  0  0  0  0  0  0  0  0  0  0
    7.7497  -16.1140   25.3389 C   0  0  0  0  0  0  0  0  0  0  0  0
    6.8347  -15.3039   25.0373 O   0  0  0  0  0  0  0  0  0  0  0  0
    7.4021  -17.1584   26.1905 O   0  0  0  0  0  0  0  0  0  0  0  0
  2  3  1  0
  2  1  1  6
  3  4  1  0
  4  5  1  0
  5  6  2  0
  5  9  1  0
  7  2  1  0
  7  8  2  0
 10 11  1  0
 12 11  1  6
 12 13  1  0
 12 14  1  0
 13  7  1  0
 14 24  1  0
 15 14  2  0
 16 17  1  0
 17 18  2  0
 19 20  1  0
 19 17  1  0
 21 22  1  0
 21 20  1  0
 23 22  1  1
 23 25  1  0
 24 23  1  0
 25 26  2  0
 25 27  1  0
M  END
$$$$
