KEL.pdb
     RDKit          3D

 27 26  0  0  1  0  0  0  0  0999 V2000
    5.8417  -17.0591   21.3112 N   0  0  0  0  0  0  0  0  0  0  0  0
    7.1327  -16.4254   21.3224 C   0  0  1  0  0  0  0  0  0  0  0  0
    6.9441  -14.9354   21.1136 C   0  0  0  0  0  0  0  0  0  0  0  0
    8.1069  -14.3158   20.4365 C   0  0  0  0  0  0  0  0  0  0  0  0
    8.0178  -12.8472   20.2096 C   0  0  0  0  0  0  0  0  0  0  0  0
    9.1208  -12.2289   19.4119 C   0  0  0  0  0  0  0  0  0  0  0  0
    8.8743  -10.8618   19.0847 N   0  0  0  0  0  0  0  0  0  0  0  0
    7.8609  -16.6722   22.5745 C   0  0  0  0  0  0  0  0  0  0  0  0
    7.1734  -16.8335   23.6420 O   0  0  0  0  0  0  0  0  0  0  0  0
    9.2920  -16.7293   22.6281 N   0  0  0  0  0  0  0  0  0  0  0  0
    9.9750  -17.0758   23.8231 C   0  0  1  0  0  0  0  0  0  0  0  0
   11.3391  -17.6088   23.7795 C   0  0  0  0  0  0  0  0  0  0  0  0
   12.0261  -18.0787   24.9841 C   0  0  0  0  0  0  0  0  0  0  0  0
   13.3706  -18.5850   24.7643 C   0  0  0  0  0  0  0  0  0  0  0  0
   14.2903  -17.9881   24.1753 O   0  0  0  0  0  0  0  0  0  0  0  0
    9.9661  -15.9236   24.8007 C   0  0  0  0  0  0  0  0  0  0  0  0
   10.7271  -14.9614   24.5523 O   0  0  0  0  0  0  0  0  0  0  0  0
   13.7439  -19.8743   25.2377 O   0  0  0  0  0  0  0  0  0  0  0  0
    8.0543  -12.2159   25.4746 C   0  0  0  0  0  0  0  0  0  0  0  0
    7.4249  -13.4364   26.0532 C   0  0  2  0  0  0  0  0  0  0  0  0
    6.0134  -13.0420   26.5295 C   0  0  0  0  0  0  0  0  0  0  0  0
    8.0915  -14.0545   27.2211 C   0  0  0  0  0  0  0  0  0  0  0  0
    9.3083  -14.8673   26.9855 C   0  0  2  0  0  0  0  0  0  0  0  0
    9.1548  -15.8927   25.9460 N   0  0  0  0  0  0  0  0  0  0  0  0
    9.8413  -15.5053   28.2069 C   0  0  0  0  0  0  0  0  0  0  0  0
   10.1693  -14.7928   29.1868 O   0  0  0  0  0  0  0  0  0  0  0  0
   10.0066  -16.8783   28.3430 O   0  0  0  0  0  0  0  0  0  0  0  0
  2  8  1  0
  2  1  1  1
  3  2  1  0
  4  3  1  0
  5  4  1  0
  6  5  1  0
  7  6  1  0
  8  9  2  0
 10 11  1  0
 10  8  1  0
 12 13  1  0
 11 12  1  6
 13 14  1  0
 14 18  1  0
 14 15  2  0
 16 17  2  0
 16 11  1  0
 20 21  1  1
 20 19  1  0
 20 22  1  0
 23 22  1  1
 23 25  1  0
 23 24  1  0
 24 16  1  0
 25 27  1  0
 26 25  2  0
M  END
$$$$
