KEL.pdb
     RDKit          3D

 27 26  0  0  1  0  0  0  0  0999 V2000
    6.1329  -15.9710   20.9068 N   0  0  0  0  0  0  0  0  0  0  0  0
    7.4057  -15.3789   21.2190 C   0  0  1  0  0  0  0  0  0  0  0  0
    7.2284  -13.8772   21.3310 C   0  0  0  0  0  0  0  0  0  0  0  0
    7.0854  -13.2323   20.0050 C   0  0  0  0  0  0  0  0  0  0  0  0
    8.2716  -13.3212   19.1099 C   0  0  0  0  0  0  0  0  0  0  0  0
    8.1303  -12.7058   17.7547 C   0  0  0  0  0  0  0  0  0  0  0  0
    9.2132  -13.0242   16.8815 N   0  0  0  0  0  0  0  0  0  0  0  0
    7.9767  -15.9147   22.4624 C   0  0  0  0  0  0  0  0  0  0  0  0
    7.1821  -16.1139   23.4457 O   0  0  0  0  0  0  0  0  0  0  0  0
    9.3731  -16.2073   22.5985 N   0  0  0  0  0  0  0  0  0  0  0  0
    9.8978  -16.7767   23.7881 C   0  0  1  0  0  0  0  0  0  0  0  0
   11.1732  -17.4977   23.7751 C   0  0  0  0  0  0  0  0  0  0  0  0
   11.7340  -18.1018   24.9852 C   0  0  0  0  0  0  0  0  0  0  0  0
   12.9600  -18.8554   24.7818 C   0  0  0  0  0  0  0  0  0  0  0  0
   14.1129  -18.3869   24.7648 O   0  0  0  0  0  0  0  0  0  0  0  0
    9.9668  -15.7470   24.8919 C   0  0  0  0  0  0  0  0  0  0  0  0
   10.7494  -14.7848   24.7237 O   0  0  0  0  0  0  0  0  0  0  0  0
   12.9174  -20.2633   24.5770 O   0  0  0  0  0  0  0  0  0  0  0  0
    8.1207  -12.1863   25.9125 C   0  0  0  0  0  0  0  0  0  0  0  0
    7.4635  -13.4013   26.4712 C   0  0  2  0  0  0  0  0  0  0  0  0
    6.1192  -12.9565   27.0794 C   0  0  0  0  0  0  0  0  0  0  0  0
    8.1779  -14.1251   27.5464 C   0  0  0  0  0  0  0  0  0  0  0  0
    9.3915  -14.8960   27.1868 C   0  0  2  0  0  0  0  0  0  0  0  0
    9.2031  -15.8269   26.0672 N   0  0  0  0  0  0  0  0  0  0  0  0
    9.9847  -15.6325   28.3221 C   0  0  0  0  0  0  0  0  0  0  0  0
   10.3340  -15.0074   29.3529 O   0  0  0  0  0  0  0  0  0  0  0  0
   10.1853  -17.0075   28.3209 O   0  0  0  0  0  0  0  0  0  0  0  0
  2  8  1  0
  2  1  1  1
  3  2  1  0
  4  3  1  0
  5  4  1  0
  6  5  1  0
  7  6  1  0
  8  9  2  0
 10 11  1  0
 10  8  1  0
 12 13  1  0
 11 12  1  6
 13 14  1  0
 14 18  1  0
 14 15  2  0
 16 17  2  0
 16 11  1  0
 20 21  1  1
 20 19  1  0
 20 22  1  0
 23 22  1  1
 23 25  1  0
 23 24  1  0
 24 16  1  0
 25 27  1  0
 26 25  2  0
M  END
$$$$
