KEL.pdb
     RDKit          3D

 27 26  0  0  1  0  0  0  0  0999 V2000
    6.3406  -16.4992   20.4967 N   0  0  0  0  0  0  0  0  0  0  0  0
    7.3939  -15.7001   21.0626 C   0  0  1  0  0  0  0  0  0  0  0  0
    6.9014  -14.2723   21.1971 C   0  0  0  0  0  0  0  0  0  0  0  0
    7.0758  -13.5021   19.9438 C   0  0  0  0  0  0  0  0  0  0  0  0
    8.4763  -13.3621   19.4587 C   0  0  0  0  0  0  0  0  0  0  0  0
    8.6763  -12.5281   18.2341 C   0  0  0  0  0  0  0  0  0  0  0  0
   10.0525  -12.3025   17.9312 N   0  0  0  0  0  0  0  0  0  0  0  0
    7.8347  -16.2081   22.3690 C   0  0  0  0  0  0  0  0  0  0  0  0
    6.9334  -16.5627   23.2056 O   0  0  0  0  0  0  0  0  0  0  0  0
    9.2200  -16.3078   22.7227 N   0  0  0  0  0  0  0  0  0  0  0  0
    9.6299  -16.8730   23.9584 C   0  0  1  0  0  0  0  0  0  0  0  0
   10.7668  -17.7951   24.0208 C   0  0  0  0  0  0  0  0  0  0  0  0
   11.7877  -17.8383   22.9720 C   0  0  0  0  0  0  0  0  0  0  0  0
   12.8718  -18.7763   23.2108 C   0  0  0  0  0  0  0  0  0  0  0  0
   12.9279  -19.9501   22.8009 O   0  0  0  0  0  0  0  0  0  0  0  0
    9.8590  -15.7954   24.9927 C   0  0  0  0  0  0  0  0  0  0  0  0
   10.8109  -15.0078   24.7920 O   0  0  0  0  0  0  0  0  0  0  0  0
   14.0081  -18.3884   23.9753 O   0  0  0  0  0  0  0  0  0  0  0  0
    7.8755  -12.0831   25.7163 C   0  0  0  0  0  0  0  0  0  0  0  0
    7.2847  -13.2266   26.4672 C   0  0  2  0  0  0  0  0  0  0  0  0
    6.0089  -12.7096   27.1600 C   0  0  0  0  0  0  0  0  0  0  0  0
    8.1097  -13.8361   27.5340 C   0  0  0  0  0  0  0  0  0  0  0  0
    9.3153  -14.6016   27.1377 C   0  0  2  0  0  0  0  0  0  0  0  0
    9.0622  -15.6478   26.1392 N   0  0  0  0  0  0  0  0  0  0  0  0
   10.0403  -15.1992   28.2782 C   0  0  0  0  0  0  0  0  0  0  0  0
   10.1315  -16.4477   28.3701 O   0  0  0  0  0  0  0  0  0  0  0  0
   10.6424  -14.4480   29.2801 O   0  0  0  0  0  0  0  0  0  0  0  0
  2  8  1  0
  2  1  1  1
  3  2  1  0
  4  3  1  0
  5  4  1  0
  6  5  1  0
  7  6  1  0
  8  9  2  0
 10 11  1  0
 10  8  1  0
 12 13  1  0
 11 12  1  6
 13 14  1  0
 14 18  1  0
 14 15  2  0
 16 17  2  0
 16 11  1  0
 20 21  1  1
 20 19  1  0
 20 22  1  0
 23 22  1  1
 23 25  1  0
 23 24  1  0
 24 16  1  0
 25 27  1  0
 26 25  2  0
M  END
$$$$
