KEL.pdb
     RDKit          3D

 27 26  0  0  1  0  0  0  0  0999 V2000
    6.1286  -17.5488   19.8033 N   0  0  0  0  0  0  0  0  0  0  0  0
    7.3933  -16.8878   19.9814 C   0  0  1  0  0  0  0  0  0  0  0  0
    7.2425  -15.4340   19.5777 C   0  0  0  0  0  0  0  0  0  0  0  0
    7.8155  -15.1651   18.2383 C   0  0  0  0  0  0  0  0  0  0  0  0
    7.6998  -13.7622   17.7538 C   0  0  0  0  0  0  0  0  0  0  0  0
    8.2564  -13.4793   16.3954 C   0  0  0  0  0  0  0  0  0  0  0  0
    8.0991  -12.1170   16.0004 N   0  0  0  0  0  0  0  0  0  0  0  0
    7.8776  -16.9805   21.3655 C   0  0  0  0  0  0  0  0  0  0  0  0
    7.0078  -16.9578   22.3041 O   0  0  0  0  0  0  0  0  0  0  0  0
    9.2713  -17.0875   21.6823 N   0  0  0  0  0  0  0  0  0  0  0  0
    9.7165  -17.2430   23.0210 C   0  0  1  0  0  0  0  0  0  0  0  0
   11.0488  -17.7798   23.3105 C   0  0  0  0  0  0  0  0  0  0  0  0
   11.5398  -17.9366   24.6810 C   0  0  0  0  0  0  0  0  0  0  0  0
   12.8961  -18.4471   24.7910 C   0  0  0  0  0  0  0  0  0  0  0  0
   13.6340  -18.7747   23.8438 O   0  0  0  0  0  0  0  0  0  0  0  0
    9.5679  -15.9510   23.7904 C   0  0  0  0  0  0  0  0  0  0  0  0
   10.2023  -14.9595   23.3648 O   0  0  0  0  0  0  0  0  0  0  0  0
   13.5040  -18.6150   26.0670 O   0  0  0  0  0  0  0  0  0  0  0  0
    5.8491  -12.0480   26.4363 C   0  0  0  0  0  0  0  0  0  0  0  0
    7.2095  -12.6561   26.4382 C   0  0  2  0  0  0  0  0  0  0  0  0
    8.1902  -11.5864   25.9197 C   0  0  0  0  0  0  0  0  0  0  0  0
    7.4204  -13.8491   25.5881 C   0  0  0  0  0  0  0  0  0  0  0  0
    8.7021  -14.5825   25.7138 C   0  0  2  0  0  0  0  0  0  0  0  0
    8.7632  -15.8249   24.9340 N   0  0  0  0  0  0  0  0  0  0  0  0
    9.0813  -14.8795   27.1107 C   0  0  0  0  0  0  0  0  0  0  0  0
    9.8771  -14.1182   27.7130 O   0  0  0  0  0  0  0  0  0  0  0  0
    8.6009  -15.9752   27.8174 O   0  0  0  0  0  0  0  0  0  0  0  0
  2  8  1  0
  2  1  1  1
  3  2  1  0
  4  3  1  0
  5  4  1  0
  6  5  1  0
  7  6  1  0
  8  9  2  0
 10 11  1  0
 10  8  1  0
 12 13  1  0
 11 12  1  6
 13 14  1  0
 14 18  1  0
 14 15  2  0
 16 17  2  0
 16 11  1  0
 20 21  1  6
 20 19  1  0
 20 22  1  0
 23 22  1  1
 23 25  1  0
 23 24  1  0
 24 16  1  0
 25 27  1  0
 26 25  2  0
M  END
$$$$
