KEL.pdb
     RDKit          3D

 27 26  0  0  1  0  0  0  0  0999 V2000
    5.9304  -16.4590   20.1054 N   0  0  0  0  0  0  0  0  0  0  0  0
    7.2152  -15.8478   20.3150 C   0  0  1  0  0  0  0  0  0  0  0  0
    7.0306  -14.3449   20.3955 C   0  0  0  0  0  0  0  0  0  0  0  0
    6.8684  -13.7308   19.0572 C   0  0  0  0  0  0  0  0  0  0  0  0
    8.0904  -13.6962   18.2075 C   0  0  0  0  0  0  0  0  0  0  0  0
    7.9414  -13.0836   16.8520 C   0  0  0  0  0  0  0  0  0  0  0  0
    9.1796  -12.9697   16.1518 N   0  0  0  0  0  0  0  0  0  0  0  0
    7.8727  -16.3423   21.5325 C   0  0  0  0  0  0  0  0  0  0  0  0
    7.1432  -16.5409   22.5651 O   0  0  0  0  0  0  0  0  0  0  0  0
    9.2820  -16.5961   21.5909 N   0  0  0  0  0  0  0  0  0  0  0  0
    9.9270  -16.9143   22.8146 C   0  0  1  0  0  0  0  0  0  0  0  0
   11.3033  -17.4167   22.8283 C   0  0  0  0  0  0  0  0  0  0  0  0
   11.7368  -18.5119   21.9586 C   0  0  0  0  0  0  0  0  0  0  0  0
   13.1771  -18.6588   21.8304 C   0  0  0  0  0  0  0  0  0  0  0  0
   13.9079  -19.3642   22.5497 O   0  0  0  0  0  0  0  0  0  0  0  0
    9.8557  -15.7521   23.7778 C   0  0  0  0  0  0  0  0  0  0  0  0
   10.2945  -14.6515   23.3743 O   0  0  0  0  0  0  0  0  0  0  0  0
   13.8868  -17.9627   20.8117 O   0  0  0  0  0  0  0  0  0  0  0  0
    7.6149  -13.0134   28.0618 C   0  0  0  0  0  0  0  0  0  0  0  0
    7.7498  -12.7144   26.6083 C   0  0  2  0  0  0  0  0  0  0  0  0
    6.4156  -12.1009   26.1410 C   0  0  0  0  0  0  0  0  0  0  0  0
    8.0136  -13.8549   25.7028 C   0  0  0  0  0  0  0  0  0  0  0  0
    9.2033  -14.6988   25.9656 C   0  0  2  0  0  0  0  0  0  0  0  0
    9.3269  -15.8586   25.0739 N   0  0  0  0  0  0  0  0  0  0  0  0
    9.3044  -15.1627   27.3648 C   0  0  0  0  0  0  0  0  0  0  0  0
   10.0022  -14.5165   28.1840 O   0  0  0  0  0  0  0  0  0  0  0  0
    8.6600  -16.2970   27.8432 O   0  0  0  0  0  0  0  0  0  0  0  0
  2  8  1  0
  2  1  1  1
  3  2  1  0
  4  3  1  0
  5  4  1  0
  6  5  1  0
  7  6  1  0
  8  9  2  0
 10 11  1  0
 10  8  1  0
 12 13  1  0
 11 12  1  6
 13 14  1  0
 14 18  1  0
 14 15  2  0
 16 17  2  0
 16 11  1  0
 20 21  1  6
 20 19  1  0
 20 22  1  0
 23 22  1  1
 23 25  1  0
 23 24  1  0
 24 16  1  0
 25 27  1  0
 26 25  2  0
M  END
$$$$
