KEL.pdb
     RDKit          3D

 27 26  0  0  1  0  0  0  0  0999 V2000
    6.2838  -16.4410   19.7338 N   0  0  0  0  0  0  0  0  0  0  0  0
    7.4754  -15.7167   20.0853 C   0  0  1  0  0  0  0  0  0  0  0  0
    7.1660  -14.2325   20.0629 C   0  0  0  0  0  0  0  0  0  0  0  0
    6.9402  -13.7308   18.6875 C   0  0  0  0  0  0  0  0  0  0  0  0
    8.1315  -13.7290   17.7946 C   0  0  0  0  0  0  0  0  0  0  0  0
    7.9380  -13.1547   16.4279 C   0  0  0  0  0  0  0  0  0  0  0  0
    9.1019  -13.2590   15.6088 N   0  0  0  0  0  0  0  0  0  0  0  0
    7.9919  -16.1055   21.4048 C   0  0  0  0  0  0  0  0  0  0  0  0
    7.1464  -16.2670   22.3519 O   0  0  0  0  0  0  0  0  0  0  0  0
    9.3905  -16.2982   21.6520 N   0  0  0  0  0  0  0  0  0  0  0  0
    9.8637  -16.7609   22.9076 C   0  0  1  0  0  0  0  0  0  0  0  0
   11.2051  -17.3355   23.0379 C   0  0  0  0  0  0  0  0  0  0  0  0
   11.7182  -17.8224   24.3198 C   0  0  0  0  0  0  0  0  0  0  0  0
   13.0831  -18.3205   24.2839 C   0  0  0  0  0  0  0  0  0  0  0  0
   13.4514  -19.4693   24.5901 O   0  0  0  0  0  0  0  0  0  0  0  0
    9.7216  -15.6893   23.9635 C   0  0  0  0  0  0  0  0  0  0  0  0
   10.2829  -14.5931   23.7403 O   0  0  0  0  0  0  0  0  0  0  0  0
   14.1507  -17.4746   23.8709 O   0  0  0  0  0  0  0  0  0  0  0  0
    6.1748  -12.3362   27.2903 C   0  0  0  0  0  0  0  0  0  0  0  0
    7.5065  -13.0007   27.2159 C   0  0  2  0  0  0  0  0  0  0  0  0
    8.5500  -11.9044   26.9263 C   0  0  0  0  0  0  0  0  0  0  0  0
    7.6938  -14.0290   26.1682 C   0  0  0  0  0  0  0  0  0  0  0  0
    8.9338  -14.8404   26.1952 C   0  0  2  0  0  0  0  0  0  0  0  0
    8.9998  -15.8730   25.1536 N   0  0  0  0  0  0  0  0  0  0  0  0
    9.2031  -15.4692   27.5049 C   0  0  0  0  0  0  0  0  0  0  0  0
    9.4060  -14.7461   28.5106 O   0  0  0  0  0  0  0  0  0  0  0  0
    9.2468  -16.8445   27.6987 O   0  0  0  0  0  0  0  0  0  0  0  0
  2  8  1  0
  2  1  1  1
  3  2  1  0
  4  3  1  0
  5  4  1  0
  6  5  1  0
  7  6  1  0
  8  9  2  0
 10 11  1  0
 10  8  1  0
 12 13  1  0
 11 12  1  6
 13 14  1  0
 14 18  1  0
 14 15  2  0
 16 17  2  0
 16 11  1  0
 20 21  1  6
 20 19  1  0
 20 22  1  0
 23 22  1  1
 23 25  1  0
 23 24  1  0
 24 16  1  0
 25 27  1  0
 26 25  2  0
M  END
$$$$
