KEL.pdb
     RDKit          3D

 27 26  0  0  1  0  0  0  0  0999 V2000
    6.2270  -17.0676   19.9307 N   0  0  0  0  0  0  0  0  0  0  0  0
    7.5543  -16.5617   20.1552 C   0  0  1  0  0  0  0  0  0  0  0  0
    7.5452  -15.0610   19.9381 C   0  0  0  0  0  0  0  0  0  0  0  0
    7.8546  -14.6987   18.5355 C   0  0  0  0  0  0  0  0  0  0  0  0
    7.9485  -13.2410   18.2483 C   0  0  0  0  0  0  0  0  0  0  0  0
    8.1027  -12.8541   16.8124 C   0  0  0  0  0  0  0  0  0  0  0  0
    8.1550  -11.4414   16.6176 N   0  0  0  0  0  0  0  0  0  0  0  0
    8.0465  -16.8745   21.5038 C   0  0  0  0  0  0  0  0  0  0  0  0
    7.1795  -17.0507   22.4287 O   0  0  0  0  0  0  0  0  0  0  0  0
    9.4444  -16.9786   21.8025 N   0  0  0  0  0  0  0  0  0  0  0  0
    9.9012  -17.2848   23.1110 C   0  0  1  0  0  0  0  0  0  0  0  0
   11.2259  -17.8733   23.3241 C   0  0  0  0  0  0  0  0  0  0  0  0
   11.7427  -18.1531   24.6652 C   0  0  0  0  0  0  0  0  0  0  0  0
   13.0621  -18.7618   24.6985 C   0  0  0  0  0  0  0  0  0  0  0  0
   13.3300  -19.9064   25.1074 O   0  0  0  0  0  0  0  0  0  0  0  0
    9.7858  -16.0803   24.0162 C   0  0  0  0  0  0  0  0  0  0  0  0
   10.5356  -15.1091   23.7687 O   0  0  0  0  0  0  0  0  0  0  0  0
   14.2012  -18.0438   24.2373 O   0  0  0  0  0  0  0  0  0  0  0  0
    6.0134  -12.3728   26.9414 C   0  0  0  0  0  0  0  0  0  0  0  0
    7.3796  -12.9629   26.8662 C   0  0  2  0  0  0  0  0  0  0  0  0
    8.3437  -11.8349   26.4503 C   0  0  0  0  0  0  0  0  0  0  0  0
    7.5922  -14.0597   25.8956 C   0  0  0  0  0  0  0  0  0  0  0  0
    8.8392  -14.8544   25.9968 C   0  0  2  0  0  0  0  0  0  0  0  0
    8.8898  -16.0117   25.0949 N   0  0  0  0  0  0  0  0  0  0  0  0
    9.1437  -15.3084   27.3695 C   0  0  0  0  0  0  0  0  0  0  0  0
    8.8262  -16.4700   27.7237 O   0  0  0  0  0  0  0  0  0  0  0  0
    9.7749  -14.5114   28.3166 O   0  0  0  0  0  0  0  0  0  0  0  0
  2  8  1  0
  2  1  1  1
  3  2  1  0
  4  3  1  0
  5  4  1  0
  6  5  1  0
  7  6  1  0
  8  9  2  0
 10 11  1  0
 10  8  1  0
 12 13  1  0
 11 12  1  6
 13 14  1  0
 14 18  1  0
 14 15  2  0
 16 17  2  0
 16 11  1  0
 20 21  1  6
 20 19  1  0
 20 22  1  0
 23 22  1  1
 23 25  1  0
 23 24  1  0
 24 16  1  0
 25 27  1  0
 26 25  2  0
M  END
$$$$
