KEL.pdb
     RDKit          3D

 27 26  0  0  1  0  0  0  0  0999 V2000
    6.8638  -16.2894   19.8839 N   0  0  0  0  0  0  0  0  0  0  0  0
    7.7759  -15.4980   20.6648 C   0  0  1  0  0  0  0  0  0  0  0  0
    7.2472  -14.0788   20.7386 C   0  0  0  0  0  0  0  0  0  0  0  0
    7.3208  -13.3878   19.4303 C   0  0  0  0  0  0  0  0  0  0  0  0
    8.6540  -13.3948   18.7679 C   0  0  0  0  0  0  0  0  0  0  0  0
    8.7579  -12.6538   17.4735 C   0  0  0  0  0  0  0  0  0  0  0  0
    8.6203  -13.5006   16.3331 N   0  0  0  0  0  0  0  0  0  0  0  0
    7.9614  -16.0394   22.0182 C   0  0  0  0  0  0  0  0  0  0  0  0
    6.9167  -16.2280   22.7330 O   0  0  0  0  0  0  0  0  0  0  0  0
    9.2571  -16.3487   22.5469 N   0  0  0  0  0  0  0  0  0  0  0  0
    9.4143  -16.9068   23.8425 C   0  0  1  0  0  0  0  0  0  0  0  0
   10.3409  -18.0181   24.0728 C   0  0  0  0  0  0  0  0  0  0  0  0
   10.5401  -18.5978   25.4025 C   0  0  0  0  0  0  0  0  0  0  0  0
   11.5209  -19.6686   25.4631 C   0  0  0  0  0  0  0  0  0  0  0  0
   12.1737  -20.1187   24.5037 O   0  0  0  0  0  0  0  0  0  0  0  0
    9.7301  -15.8316   24.8562 C   0  0  0  0  0  0  0  0  0  0  0  0
   10.8853  -15.3502   24.8332 O   0  0  0  0  0  0  0  0  0  0  0  0
   11.8156  -20.3098   26.6993 O   0  0  0  0  0  0  0  0  0  0  0  0
    8.1051  -11.7949   25.2565 C   0  0  0  0  0  0  0  0  0  0  0  0
    7.3428  -12.7748   26.0805 C   0  0  2  0  0  0  0  0  0  0  0  0
    6.1794  -12.0105   26.7416 C   0  0  0  0  0  0  0  0  0  0  0  0
    8.0691  -13.4446   27.1824 C   0  0  0  0  0  0  0  0  0  0  0  0
    9.1574  -14.3884   26.8338 C   0  0  2  0  0  0  0  0  0  0  0  0
    8.7986  -15.3635   25.7965 N   0  0  0  0  0  0  0  0  0  0  0  0
    9.7092  -15.1136   27.9969 C   0  0  0  0  0  0  0  0  0  0  0  0
    9.3615  -16.3007   28.2101 O   0  0  0  0  0  0  0  0  0  0  0  0
   10.6111  -14.5509   28.8917 O   0  0  0  0  0  0  0  0  0  0  0  0
  2  8  1  0
  2  1  1  6
  3  2  1  0
  4  3  1  0
  5  4  1  0
  6  5  1  0
  7  6  1  0
  8  9  2  0
 10 11  1  0
 10  8  1  0
 12 13  1  0
 11 12  1  6
 13 14  1  0
 14 18  1  0
 14 15  2  0
 16 17  2  0
 16 11  1  0
 20 21  1  1
 20 19  1  0
 20 22  1  0
 23 22  1  1
 23 25  1  0
 23 24  1  0
 24 16  1  0
 25 27  1  0
 26 25  2  0
M  END
$$$$
