KEL.pdb
     RDKit          3D

 27 26  0  0  1  0  0  0  0  0999 V2000
    6.1376  -16.6971   20.9009 N   0  0  0  0  0  0  0  0  0  0  0  0
    7.5064  -16.3543   21.1786 C   0  0  1  0  0  0  0  0  0  0  0  0
    7.7155  -14.8882   20.8532 C   0  0  0  0  0  0  0  0  0  0  0  0
    7.9307  -14.6638   19.4048 C   0  0  0  0  0  0  0  0  0  0  0  0
    8.2523  -13.2659   19.0064 C   0  0  0  0  0  0  0  0  0  0  0  0
    8.3528  -12.9986   17.5388 C   0  0  0  0  0  0  0  0  0  0  0  0
    8.6350  -11.6323   17.2385 N   0  0  0  0  0  0  0  0  0  0  0  0
    7.8718  -16.6190   22.5770 C   0  0  0  0  0  0  0  0  0  0  0  0
    6.9430  -16.5661   23.4559 O   0  0  0  0  0  0  0  0  0  0  0  0
    9.2157  -16.9224   22.9717 N   0  0  0  0  0  0  0  0  0  0  0  0
    9.5460  -17.1973   24.3245 C   0  0  1  0  0  0  0  0  0  0  0  0
   10.6712  -18.0743   24.6583 C   0  0  0  0  0  0  0  0  0  0  0  0
   10.9825  -18.4430   26.0406 C   0  0  0  0  0  0  0  0  0  0  0  0
   12.1350  -19.3145   26.1974 C   0  0  0  0  0  0  0  0  0  0  0  0
   12.6750  -19.6276   27.2742 O   0  0  0  0  0  0  0  0  0  0  0  0
    9.7182  -15.9160   25.1068 C   0  0  0  0  0  0  0  0  0  0  0  0
   10.6035  -15.1238   24.7127 O   0  0  0  0  0  0  0  0  0  0  0  0
   12.7574  -19.9015   25.0598 O   0  0  0  0  0  0  0  0  0  0  0  0
    8.2598  -12.1302   24.9262 C   0  0  0  0  0  0  0  0  0  0  0  0
    7.4606  -13.0159   25.8191 C   0  0  2  0  0  0  0  0  0  0  0  0
    6.1816  -12.2462   26.2023 C   0  0  0  0  0  0  0  0  0  0  0  0
    8.0835  -13.4327   27.0952 C   0  0  0  0  0  0  0  0  0  0  0  0
    9.2066  -14.3984   27.0451 C   0  0  2  0  0  0  0  0  0  0  0  0
    8.9401  -15.5893   26.2288 N   0  0  0  0  0  0  0  0  0  0  0  0
    9.6767  -14.8315   28.3773 C   0  0  0  0  0  0  0  0  0  0  0  0
    9.5535  -16.0331   28.7185 O   0  0  0  0  0  0  0  0  0  0  0  0
   10.2610  -13.9715   29.2992 O   0  0  0  0  0  0  0  0  0  0  0  0
  2  8  1  0
  2  1  1  1
  3  2  1  0
  4  3  1  0
  5  4  1  0
  6  5  1  0
  7  6  1  0
  8  9  2  0
 10 11  1  0
 10  8  1  0
 12 13  1  0
 11 12  1  6
 13 14  1  0
 14 18  1  0
 14 15  2  0
 16 17  2  0
 16 11  1  0
 20 21  1  1
 20 19  1  0
 20 22  1  0
 23 22  1  1
 23 25  1  0
 23 24  1  0
 24 16  1  0
 25 27  1  0
 26 25  2  0
M  END
$$$$
