KEL.pdb
     RDKit          3D

 27 26  0  0  1  0  0  0  0  0999 V2000
   10.1631  -13.8065   18.7277 N   0  0  0  0  0  0  0  0  0  0  0  0
    8.8723  -13.7293   19.3571 C   0  0  1  0  0  0  0  0  0  0  0  0
    7.8060  -13.9948   18.3123 C   0  0  0  0  0  0  0  0  0  0  0  0
    8.3714  -14.0695   16.9451 C   0  0  0  0  0  0  0  0  0  0  0  0
    7.3845  -14.2444   15.8443 C   0  0  0  0  0  0  0  0  0  0  0  0
    7.9378  -14.2951   14.4563 C   0  0  0  0  0  0  0  0  0  0  0  0
    6.9277  -14.4322   13.4576 N   0  0  0  0  0  0  0  0  0  0  0  0
    8.7393  -14.6813   20.4684 C   0  0  0  0  0  0  0  0  0  0  0  0
    7.6222  -14.7172   21.0919 O   0  0  0  0  0  0  0  0  0  0  0  0
    9.8101  -15.5473   20.8656 N   0  0  0  0  0  0  0  0  0  0  0  0
    9.7144  -16.3587   22.0262 C   0  0  1  0  0  0  0  0  0  0  0  0
   10.6742  -17.4393   22.2668 C   0  0  0  0  0  0  0  0  0  0  0  0
   10.6534  -18.2345   23.4960 C   0  0  0  0  0  0  0  0  0  0  0  0
   11.6144  -19.3241   23.5369 C   0  0  0  0  0  0  0  0  0  0  0  0
   11.6977  -20.1937   24.4234 O   0  0  0  0  0  0  0  0  0  0  0  0
    9.6626  -15.5080   23.2740 C   0  0  0  0  0  0  0  0  0  0  0  0
   10.6974  -14.8692   23.5701 O   0  0  0  0  0  0  0  0  0  0  0  0
   12.5804  -19.4752   22.5025 O   0  0  0  0  0  0  0  0  0  0  0  0
    5.6949  -12.1676   26.6321 C   0  0  0  0  0  0  0  0  0  0  0  0
    7.0596  -12.7228   26.4089 C   0  0  2  0  0  0  0  0  0  0  0  0
    7.9981  -11.5331   26.1283 C   0  0  0  0  0  0  0  0  0  0  0  0
    7.2346  -13.6567   25.2742 C   0  0  0  0  0  0  0  0  0  0  0  0
    8.4603  -14.4889   25.2331 C   0  0  2  0  0  0  0  0  0  0  0  0
    8.5248  -15.4088   24.0906 N   0  0  0  0  0  0  0  0  0  0  0  0
    8.6993  -15.2551   26.4736 C   0  0  0  0  0  0  0  0  0  0  0  0
    9.3176  -14.7186   27.4251 O   0  0  0  0  0  0  0  0  0  0  0  0
    8.2722  -16.5644   26.6584 O   0  0  0  0  0  0  0  0  0  0  0  0
  2  8  1  0
  2  1  1  6
  3  2  1  0
  4  3  1  0
  5  4  1  0
  6  5  1  0
  7  6  1  0
  8  9  2  0
 10 11  1  0
 10  8  1  0
 12 13  1  0
 11 12  1  1
 13 14  1  0
 14 18  1  0
 14 15  2  0
 16 17  2  0
 16 11  1  0
 20 21  1  6
 20 19  1  0
 20 22  1  0
 23 22  1  1
 23 25  1  0
 23 24  1  0
 24 16  1  0
 25 27  1  0
 26 25  2  0
M  END
$$$$
