KEL.pdb
     RDKit          3D

 27 26  0  0  1  0  0  0  0  0999 V2000
    5.7887  -15.8462   19.9131 N   0  0  0  0  0  0  0  0  0  0  0  0
    7.1203  -15.3388   20.1069 C   0  0  1  0  0  0  0  0  0  0  0  0
    7.0623  -13.8241   20.1433 C   0  0  0  0  0  0  0  0  0  0  0  0
    7.1330  -13.2308   18.7877 C   0  0  0  0  0  0  0  0  0  0  0  0
    8.1702  -13.8003   17.8843 C   0  0  0  0  0  0  0  0  0  0  0  0
    8.2569  -13.2087   16.5141 C   0  0  0  0  0  0  0  0  0  0  0  0
    9.3264  -13.7495   15.7394 N   0  0  0  0  0  0  0  0  0  0  0  0
    7.7352  -15.8510   21.3392 C   0  0  0  0  0  0  0  0  0  0  0  0
    6.9865  -15.9818   22.3690 O   0  0  0  0  0  0  0  0  0  0  0  0
    9.1246  -16.1942   21.4149 N   0  0  0  0  0  0  0  0  0  0  0  0
    9.6981  -16.7011   22.6102 C   0  0  1  0  0  0  0  0  0  0  0  0
   11.0448  -17.2782   22.6097 C   0  0  0  0  0  0  0  0  0  0  0  0
   11.6731  -17.7800   23.8333 C   0  0  0  0  0  0  0  0  0  0  0  0
   12.9821  -18.3833   23.6467 C   0  0  0  0  0  0  0  0  0  0  0  0
   13.2767  -19.2453   22.7986 O   0  0  0  0  0  0  0  0  0  0  0  0
    9.6444  -15.6685   23.7122 C   0  0  0  0  0  0  0  0  0  0  0  0
   10.3243  -14.6300   23.5518 O   0  0  0  0  0  0  0  0  0  0  0  0
   14.0775  -18.0033   24.4724 O   0  0  0  0  0  0  0  0  0  0  0  0
    6.0657  -12.2936   27.0461 C   0  0  0  0  0  0  0  0  0  0  0  0
    7.3978  -12.9547   26.9512 C   0  0  2  0  0  0  0  0  0  0  0  0
    8.4270  -11.8629   26.5995 C   0  0  0  0  0  0  0  0  0  0  0  0
    7.5590  -14.0119   25.9282 C   0  0  0  0  0  0  0  0  0  0  0  0
    8.8178  -14.7942   25.9199 C   0  0  2  0  0  0  0  0  0  0  0  0
    8.8776  -15.8265   24.8776 N   0  0  0  0  0  0  0  0  0  0  0  0
    9.1394  -15.4146   27.2217 C   0  0  0  0  0  0  0  0  0  0  0  0
    8.4785  -15.0974   28.2406 O   0  0  0  0  0  0  0  0  0  0  0  0
   10.1521  -16.3503   27.3939 O   0  0  0  0  0  0  0  0  0  0  0  0
  2  8  1  0
  2  1  1  1
  3  2  1  0
  4  3  1  0
  5  4  1  0
  6  5  1  0
  7  6  1  0
  8  9  2  0
 10 11  1  0
 10  8  1  0
 12 13  1  0
 11 12  1  6
 13 14  1  0
 14 18  1  0
 14 15  2  0
 16 17  2  0
 16 11  1  0
 20 21  1  6
 20 19  1  0
 20 22  1  0
 23 22  1  1
 23 25  1  0
 23 24  1  0
 24 16  1  0
 25 27  1  0
 26 25  2  0
M  END
$$$$
