KEL.pdb
     RDKit          3D

 27 26  0  0  1  0  0  0  0  0999 V2000
    6.3185  -16.3937   20.3337 N   0  0  0  0  0  0  0  0  0  0  0  0
    7.5665  -15.8063   20.7403 C   0  0  1  0  0  0  0  0  0  0  0  0
    7.4710  -14.3018   20.5777 C   0  0  0  0  0  0  0  0  0  0  0  0
    7.2393  -13.9070   19.1688 C   0  0  0  0  0  0  0  0  0  0  0  0
    8.4605  -13.6215   18.3666 C   0  0  0  0  0  0  0  0  0  0  0  0
    8.2450  -13.2619   16.9315 C   0  0  0  0  0  0  0  0  0  0  0  0
    9.4641  -13.0597   16.2178 N   0  0  0  0  0  0  0  0  0  0  0  0
    7.9124  -16.1439   22.1279 C   0  0  0  0  0  0  0  0  0  0  0  0
    6.9521  -16.3298   22.9532 O   0  0  0  0  0  0  0  0  0  0  0  0
    9.2706  -16.2613   22.5704 N   0  0  0  0  0  0  0  0  0  0  0  0
    9.5912  -16.8126   23.8384 C   0  0  1  0  0  0  0  0  0  0  0  0
   10.7277  -17.7242   23.9939 C   0  0  0  0  0  0  0  0  0  0  0  0
   11.0686  -18.3240   25.2854 C   0  0  0  0  0  0  0  0  0  0  0  0
   12.2112  -19.2218   25.2612 C   0  0  0  0  0  0  0  0  0  0  0  0
   12.5396  -20.0132   26.1639 O   0  0  0  0  0  0  0  0  0  0  0  0
    9.7334  -15.7245   24.8772 C   0  0  0  0  0  0  0  0  0  0  0  0
   10.6260  -14.8682   24.6852 O   0  0  0  0  0  0  0  0  0  0  0  0
   13.0805  -19.2552   24.1346 O   0  0  0  0  0  0  0  0  0  0  0  0
    8.3845  -11.8645   25.6700 C   0  0  0  0  0  0  0  0  0  0  0  0
    7.4712  -12.9168   26.1981 C   0  0  2  0  0  0  0  0  0  0  0  0
    6.2132  -12.2052   26.7330 C   0  0  0  0  0  0  0  0  0  0  0  0
    7.9717  -13.7525   27.3123 C   0  0  0  0  0  0  0  0  0  0  0  0
    9.1397  -14.6297   27.0615 C   0  0  2  0  0  0  0  0  0  0  0  0
    8.9205  -15.6398   26.0187 N   0  0  0  0  0  0  0  0  0  0  0  0
    9.6479  -15.3025   28.2748 C   0  0  0  0  0  0  0  0  0  0  0  0
    9.5545  -16.5499   28.3781 O   0  0  0  0  0  0  0  0  0  0  0  0
   10.2376  -14.6250   29.3351 O   0  0  0  0  0  0  0  0  0  0  0  0
  2  8  1  0
  2  1  1  1
  3  2  1  0
  4  3  1  0
  5  4  1  0
  6  5  1  0
  7  6  1  0
  8  9  2  0
 10 11  1  0
 10  8  1  0
 12 13  1  0
 11 12  1  6
 13 14  1  0
 14 18  1  0
 14 15  2  0
 16 17  2  0
 16 11  1  0
 20 21  1  1
 20 19  1  0
 20 22  1  0
 23 22  1  1
 23 25  1  0
 23 24  1  0
 24 16  1  0
 25 27  1  0
 26 25  2  0
M  END
$$$$
