KEL.pdb
     RDKit          3D

 27 26  0  0  1  0  0  0  0  0999 V2000
    7.6665  -17.5066   19.8736 N   0  0  0  0  0  0  0  0  0  0  0  0
    8.6613  -16.7098   20.5397 C   0  0  1  0  0  0  0  0  0  0  0  0
    8.4251  -15.2518   20.1967 C   0  0  0  0  0  0  0  0  0  0  0  0
    8.4113  -15.0184   18.7339 C   0  0  0  0  0  0  0  0  0  0  0  0
    8.2553  -13.6013   18.3051 C   0  0  0  0  0  0  0  0  0  0  0  0
    8.2463  -13.3490   16.8316 C   0  0  0  0  0  0  0  0  0  0  0  0
    8.1147  -11.9665   16.5029 N   0  0  0  0  0  0  0  0  0  0  0  0
    8.6371  -16.8967   21.9970 C   0  0  0  0  0  0  0  0  0  0  0  0
    7.5212  -17.2112   22.5391 O   0  0  0  0  0  0  0  0  0  0  0  0
    9.8071  -16.7325   22.8083 N   0  0  0  0  0  0  0  0  0  0  0  0
    9.8135  -17.0955   24.1805 C   0  0  1  0  0  0  0  0  0  0  0  0
   10.7626  -18.0894   24.6887 C   0  0  0  0  0  0  0  0  0  0  0  0
   10.9219  -19.4014   24.0587 C   0  0  0  0  0  0  0  0  0  0  0  0
   12.2712  -19.9401   24.0983 C   0  0  0  0  0  0  0  0  0  0  0  0
   12.8382  -20.4216   25.0961 O   0  0  0  0  0  0  0  0  0  0  0  0
    9.9201  -15.8712   25.0597 C   0  0  0  0  0  0  0  0  0  0  0  0
   10.9167  -15.1335   24.8890 O   0  0  0  0  0  0  0  0  0  0  0  0
   13.0793  -19.9521   22.9266 O   0  0  0  0  0  0  0  0  0  0  0  0
    7.9329  -12.1400   25.0370 C   0  0  0  0  0  0  0  0  0  0  0  0
    7.2359  -13.1135   25.9241 C   0  0  2  0  0  0  0  0  0  0  0  0
    5.9456  -12.4353   26.4241 C   0  0  0  0  0  0  0  0  0  0  0  0
    7.9564  -13.5631   27.1361 C   0  0  0  0  0  0  0  0  0  0  0  0
    9.1549  -14.4178   26.9634 C   0  0  2  0  0  0  0  0  0  0  0  0
    8.9656  -15.5385   26.0340 N   0  0  0  0  0  0  0  0  0  0  0  0
    9.6987  -14.9409   28.2337 C   0  0  0  0  0  0  0  0  0  0  0  0
    9.6603  -16.1742   28.4641 O   0  0  0  0  0  0  0  0  0  0  0  0
   10.2640  -14.1343   29.2137 O   0  0  0  0  0  0  0  0  0  0  0  0
  2  8  1  0
  2  1  1  6
  3  2  1  0
  4  3  1  0
  5  4  1  0
  6  5  1  0
  7  6  1  0
  8  9  2  0
 10 11  1  0
 10  8  1  0
 12 13  1  0
 11 12  1  6
 13 14  1  0
 14 18  1  0
 14 15  2  0
 16 17  2  0
 16 11  1  0
 20 21  1  1
 20 19  1  0
 20 22  1  0
 23 22  1  1
 23 25  1  0
 23 24  1  0
 24 16  1  0
 25 27  1  0
 26 25  2  0
M  END
$$$$
