KEL.pdb
     RDKit          3D

 27 26  0  0  1  0  0  0  0  0999 V2000
    6.3271  -16.6473   20.4837 N   0  0  0  0  0  0  0  0  0  0  0  0
    7.3981  -15.8117   20.9559 C   0  0  1  0  0  0  0  0  0  0  0  0
    6.8460  -14.4280   21.2385 C   0  0  0  0  0  0  0  0  0  0  0  0
    6.8738  -13.5608   20.0378 C   0  0  0  0  0  0  0  0  0  0  0  0
    8.2036  -12.9978   19.6757 C   0  0  0  0  0  0  0  0  0  0  0  0
    8.2417  -12.0931   18.4860 C   0  0  0  0  0  0  0  0  0  0  0  0
    9.5383  -11.5507   18.2387 N   0  0  0  0  0  0  0  0  0  0  0  0
    8.0369  -16.3571   22.1615 C   0  0  0  0  0  0  0  0  0  0  0  0
    7.2761  -16.7834   23.0982 O   0  0  0  0  0  0  0  0  0  0  0  0
    9.4610  -16.4159   22.3120 N   0  0  0  0  0  0  0  0  0  0  0  0
   10.0608  -16.9911   23.4627 C   0  0  1  0  0  0  0  0  0  0  0  0
   11.3985  -17.5848   23.3934 C   0  0  0  0  0  0  0  0  0  0  0  0
   12.0227  -18.2255   24.5526 C   0  0  0  0  0  0  0  0  0  0  0  0
   13.3282  -18.8118   24.2992 C   0  0  0  0  0  0  0  0  0  0  0  0
   14.4014  -18.4640   24.8250 O   0  0  0  0  0  0  0  0  0  0  0  0
   10.0534  -16.0160   24.6170 C   0  0  0  0  0  0  0  0  0  0  0  0
   10.8906  -15.0862   24.5813 O   0  0  0  0  0  0  0  0  0  0  0  0
   13.4712  -19.8870   23.3775 O   0  0  0  0  0  0  0  0  0  0  0  0
    8.9757  -12.1470   26.3209 C   0  0  0  0  0  0  0  0  0  0  0  0
    7.9436  -13.2208   26.2744 C   0  0  2  0  0  0  0  0  0  0  0  0
    6.6047  -12.5881   26.7009 C   0  0  0  0  0  0  0  0  0  0  0  0
    8.1417  -14.3908   27.1587 C   0  0  0  0  0  0  0  0  0  0  0  0
    9.3004  -15.2779   26.8996 C   0  0  2  0  0  0  0  0  0  0  0  0
    9.1633  -16.1111   25.6985 N   0  0  0  0  0  0  0  0  0  0  0  0
    9.6502  -16.1464   28.0426 C   0  0  0  0  0  0  0  0  0  0  0  0
    9.9252  -15.6299   29.1531 O   0  0  0  0  0  0  0  0  0  0  0  0
    9.6950  -17.5330   27.9643 O   0  0  0  0  0  0  0  0  0  0  0  0
  2  8  1  0
  2  1  1  1
  3  2  1  0
  4  3  1  0
  5  4  1  0
  6  5  1  0
  7  6  1  0
  8  9  2  0
 10 11  1  0
 10  8  1  0
 12 13  1  0
 11 12  1  6
 13 14  1  0
 14 18  1  0
 14 15  2  0
 16 17  2  0
 16 11  1  0
 20 21  1  1
 20 19  1  0
 20 22  1  0
 23 22  1  1
 23 25  1  0
 23 24  1  0
 24 16  1  0
 25 27  1  0
 26 25  2  0
M  END
$$$$
