KEL.pdb
     RDKit          3D

 27 26  0  0  1  0  0  0  0  0999 V2000
    6.6460  -17.5819   19.5337 N   0  0  0  0  0  0  0  0  0  0  0  0
    8.0371  -17.4957   19.8880 C   0  0  1  0  0  0  0  0  0  0  0  0
    8.6354  -16.2767   19.2132 C   0  0  0  0  0  0  0  0  0  0  0  0
    7.9474  -15.0261   19.6097 C   0  0  0  0  0  0  0  0  0  0  0  0
    8.4816  -13.7737   19.0077 C   0  0  0  0  0  0  0  0  0  0  0  0
    7.7869  -12.5048   19.3853 C   0  0  0  0  0  0  0  0  0  0  0  0
    8.3846  -11.3469   18.8034 N   0  0  0  0  0  0  0  0  0  0  0  0
    8.2355  -17.4172   21.3418 C   0  0  0  0  0  0  0  0  0  0  0  0
    7.2557  -17.0069   22.0557 O   0  0  0  0  0  0  0  0  0  0  0  0
    9.4755  -17.7759   21.9646 N   0  0  0  0  0  0  0  0  0  0  0  0
    9.6168  -17.7938   23.3769 C   0  0  1  0  0  0  0  0  0  0  0  0
   10.7742  -18.4345   24.0065 C   0  0  0  0  0  0  0  0  0  0  0  0
   10.9119  -18.5278   25.4612 C   0  0  0  0  0  0  0  0  0  0  0  0
   12.0431  -19.3166   25.9200 C   0  0  0  0  0  0  0  0  0  0  0  0
   12.0053  -20.2254   26.7695 O   0  0  0  0  0  0  0  0  0  0  0  0
    9.5014  -16.3988   23.9463 C   0  0  0  0  0  0  0  0  0  0  0  0
   10.1090  -15.4862   23.3425 O   0  0  0  0  0  0  0  0  0  0  0  0
   13.3458  -19.0857   25.3949 O   0  0  0  0  0  0  0  0  0  0  0  0
    7.4414  -12.7825   27.7772 C   0  0  0  0  0  0  0  0  0  0  0  0
    7.3194  -12.7480   26.2925 C   0  0  2  0  0  0  0  0  0  0  0  0
    5.9020  -12.2422   25.9608 C   0  0  0  0  0  0  0  0  0  0  0  0
    7.4746  -14.0298   25.5692 C   0  0  0  0  0  0  0  0  0  0  0  0
    8.7581  -14.7591   25.7014 C   0  0  2  0  0  0  0  0  0  0  0  0
    8.7550  -16.0968   25.0964 N   0  0  0  0  0  0  0  0  0  0  0  0
    9.2371  -14.8693   27.0948 C   0  0  0  0  0  0  0  0  0  0  0  0
   10.0439  -14.0184   27.5429 O   0  0  0  0  0  0  0  0  0  0  0  0
    8.8413  -15.8801   27.9622 O   0  0  0  0  0  0  0  0  0  0  0  0
  2  8  1  0
  2  1  1  1
  3  2  1  0
  4  3  1  0
  5  4  1  0
  6  5  1  0
  7  6  1  0
  8  9  2  0
 10 11  1  0
 10  8  1  0
 12 13  1  0
 11 12  1  6
 13 14  1  0
 14 18  1  0
 14 15  2  0
 16 17  2  0
 16 11  1  0
 20 21  1  1
 20 19  1  0
 20 22  1  0
 23 22  1  1
 23 25  1  0
 23 24  1  0
 24 16  1  0
 25 27  1  0
 26 25  2  0
M  END
$$$$
