GGC.pdb
     RDKit          3D

 15 14  0  0  1  0  0  0  0  0999 V2000
   26.7385  -16.2271  -16.1604 N   0  0  0  0  0  0  0  0  0  0  0  0
   26.3599  -16.8242  -14.9167 C   0  0  0  0  0  0  0  0  0  0  0  0
   26.7382  -18.2696  -14.9088 C   0  0  0  0  0  0  0  0  0  0  0  0
   26.2122  -19.0518  -15.7325 O   0  0  0  0  0  0  0  0  0  0  0  0
   27.6821  -18.7919  -13.9912 N   0  0  0  0  0  0  0  0  0  0  0  0
   28.0197  -20.1902  -13.9327 C   0  0  0  0  0  0  0  0  0  0  0  0
   27.1110  -20.9523  -13.0416 C   0  0  0  0  0  0  0  0  0  0  0  0
   27.2343  -22.1984  -12.9307 O   0  0  0  0  0  0  0  0  0  0  0  0
   26.0912  -20.3057  -12.2998 N   0  0  0  0  0  0  0  0  0  0  0  0
   25.1144  -21.0250  -11.5095 C   0  0  1  0  0  0  0  0  0  0  0  0
   25.0101  -20.4066  -10.1093 C   0  0  0  0  0  0  0  0  0  0  0  0
   26.5380  -20.6500   -9.1870 S   0  0  0  0  0  0  0  0  0  0  0  0
   23.7792  -20.9402  -12.1355 C   0  0  0  0  0  0  0  0  0  0  0  0
   22.8239  -21.5489  -11.6087 O   0  0  0  0  0  0  0  0  0  0  0  0
   23.5751  -20.2100  -13.2759 O   0  0  0  0  0  0  0  0  0  0  0  0
  2  1  1  0
  3  5  1  0
  3  2  1  0
  4  3  2  0
  6  5  1  0
  7  6  1  0
  8  7  2  0
  9  7  1  0
 10 13  1  0
 10  9  1  0
 10 11  1  1
 12 11  1  0
 13 15  1  0
 14 13  2  0
M  END
$$$$
