GGC.pdb
     RDKit          3D

 15 14  0  0  1  0  0  0  0  0999 V2000
   17.0738  -11.9176  -15.9683 N   0  0  0  0  0  0  0  0  0  0  0  0
   18.2181  -11.6112  -16.7703 C   0  0  0  0  0  0  0  0  0  0  0  0
   18.4738  -10.1393  -16.7528 C   0  0  0  0  0  0  0  0  0  0  0  0
   19.6229   -9.7074  -16.9986 O   0  0  0  0  0  0  0  0  0  0  0  0
   17.4498   -9.2043  -16.4644 N   0  0  0  0  0  0  0  0  0  0  0  0
   17.6260   -7.7840  -16.6199 C   0  0  0  0  0  0  0  0  0  0  0  0
   18.3733   -7.1818  -15.4888 C   0  0  0  0  0  0  0  0  0  0  0  0
   17.8464   -7.1130  -14.3495 O   0  0  0  0  0  0  0  0  0  0  0  0
   19.6852   -6.6736  -15.6582 N   0  0  0  0  0  0  0  0  0  0  0  0
   20.4170   -6.0113  -14.5989 C   0  0  1  0  0  0  0  0  0  0  0  0
   21.6238   -6.8611  -14.1803 C   0  0  0  0  0  0  0  0  0  0  0  0
   22.5269   -6.0714  -12.8367 S   0  0  0  0  0  0  0  0  0  0  0  0
   20.9297   -4.7059  -15.0626 C   0  0  0  0  0  0  0  0  0  0  0  0
   20.8589   -3.7212  -14.2972 O   0  0  0  0  0  0  0  0  0  0  0  0
   21.4770   -4.5608  -16.3095 O   0  0  0  0  0  0  0  0  0  0  0  0
  2  1  1  0
  3  5  1  0
  3  2  1  0
  4  3  2  0
  6  5  1  0
  7  6  1  0
  8  7  2  0
  9  7  1  0
 10 13  1  0
 10  9  1  0
 10 11  1  6
 12 11  1  0
 13 15  1  0
 14 13  2  0
M  END
$$$$
