GGC.pdb
     RDKit          3D

 15 14  0  0  1  0  0  0  0  0999 V2000
   17.0470  -12.1313  -17.0970 N   0  0  0  0  0  0  0  0  0  0  0  0
   17.3967  -11.5064  -18.3355 C   0  0  0  0  0  0  0  0  0  0  0  0
   18.4463  -10.4685  -18.1046 C   0  0  0  0  0  0  0  0  0  0  0  0
   18.4661   -9.4388  -18.8163 O   0  0  0  0  0  0  0  0  0  0  0  0
   19.4314  -10.6104  -17.0969 N   0  0  0  0  0  0  0  0  0  0  0  0
   20.4565   -9.6263  -16.8661 C   0  0  0  0  0  0  0  0  0  0  0  0
   20.0135   -8.5587  -15.9363 C   0  0  0  0  0  0  0  0  0  0  0  0
   18.8347   -8.1253  -15.9886 O   0  0  0  0  0  0  0  0  0  0  0  0
   20.8952   -8.0043  -14.9753 N   0  0  0  0  0  0  0  0  0  0  0  0
   20.4919   -6.9827  -14.0321 C   0  0  1  0  0  0  0  0  0  0  0  0
   21.0756   -7.2846  -12.6458 C   0  0  0  0  0  0  0  0  0  0  0  0
   20.2706   -8.7188  -11.9113 S   0  0  0  0  0  0  0  0  0  0  0  0
   21.0005   -5.6611  -14.4524 C   0  0  0  0  0  0  0  0  0  0  0  0
   21.9185   -5.6066  -15.2978 O   0  0  0  0  0  0  0  0  0  0  0  0
   20.4842   -4.5040  -13.9327 O   0  0  0  0  0  0  0  0  0  0  0  0
  2  1  1  0
  3  5  1  0
  3  2  1  0
  4  3  2  0
  6  5  1  0
  7  6  1  0
  8  7  2  0
  9  7  1  0
 10 13  1  0
 10  9  1  0
 10 11  1  1
 12 11  1  0
 13 15  1  0
 14 13  2  0
M  END
$$$$
