GGC.pdb
     RDKit          3D

 15 14  0  0  1  0  0  0  0  0999 V2000
   15.1323   -8.9112   -8.1519 N   0  0  0  0  0  0  0  0  0  0  0  0
   14.4348   -7.6972   -8.4457 C   0  0  0  0  0  0  0  0  0  0  0  0
   15.0572   -7.0240   -9.6254 C   0  0  0  0  0  0  0  0  0  0  0  0
   14.5615   -5.9619  -10.0652 O   0  0  0  0  0  0  0  0  0  0  0  0
   16.2019   -7.5516  -10.2713 N   0  0  0  0  0  0  0  0  0  0  0  0
   16.8035   -6.9285  -11.4213 C   0  0  0  0  0  0  0  0  0  0  0  0
   18.2836   -7.0261  -11.4051 C   0  0  0  0  0  0  0  0  0  0  0  0
   18.8927   -7.2025  -10.3197 O   0  0  0  0  0  0  0  0  0  0  0  0
   19.0431   -6.9244  -12.5972 N   0  0  0  0  0  0  0  0  0  0  0  0
   20.4888   -6.9981  -12.6197 C   0  0  1  0  0  0  0  0  0  0  0  0
   20.9428   -8.1997  -13.4587 C   0  0  0  0  0  0  0  0  0  0  0  0
   22.7367   -8.3590  -13.4296 S   0  0  0  0  0  0  0  0  0  0  0  0
   21.0590   -5.7827  -13.2356 C   0  0  0  0  0  0  0  0  0  0  0  0
   22.0763   -5.2663  -12.7267 O   0  0  0  0  0  0  0  0  0  0  0  0
   20.4930   -5.2183  -14.3476 O   0  0  0  0  0  0  0  0  0  0  0  0
  2  1  1  0
  3  5  1  0
  3  2  1  0
  4  3  2  0
  6  5  1  0
  7  6  1  0
  8  7  2  0
  9  7  1  0
 10 13  1  0
 10  9  1  0
 10 11  1  6
 12 11  1  0
 13 15  1  0
 14 13  2  0
M  END
$$$$
