GGC.pdb
     RDKit          3D

 15 14  0  0  1  0  0  0  0  0999 V2000
   19.3547  -14.1966  -19.0458 N   0  0  0  0  0  0  0  0  0  0  0  0
   18.9968  -13.2788  -18.0085 C   0  0  0  0  0  0  0  0  0  0  0  0
   20.0931  -13.2002  -16.9964 C   0  0  0  0  0  0  0  0  0  0  0  0
   20.5696  -14.2538  -16.5166 O   0  0  0  0  0  0  0  0  0  0  0  0
   20.6184  -11.9610  -16.5555 N   0  0  0  0  0  0  0  0  0  0  0  0
   21.7179  -11.8661  -15.6311 C   0  0  0  0  0  0  0  0  0  0  0  0
   22.0967  -10.4599  -15.3488 C   0  0  0  0  0  0  0  0  0  0  0  0
   23.0887  -10.2078  -14.6189 O   0  0  0  0  0  0  0  0  0  0  0  0
   21.3607   -9.3750  -15.8868 N   0  0  0  0  0  0  0  0  0  0  0  0
   21.6515   -7.9920  -15.5724 C   0  0  1  0  0  0  0  0  0  0  0  0
   21.1380   -7.0773  -16.6919 C   0  0  0  0  0  0  0  0  0  0  0  0
   21.7413   -7.6298  -18.2966 S   0  0  0  0  0  0  0  0  0  0  0  0
   20.9730   -7.5921  -14.3228 C   0  0  0  0  0  0  0  0  0  0  0  0
   21.2380   -6.4799  -13.8192 O   0  0  0  0  0  0  0  0  0  0  0  0
   20.0650   -8.4163  -13.7132 O   0  0  0  0  0  0  0  0  0  0  0  0
  2  1  1  0
  3  5  1  0
  3  2  1  0
  4  3  2  0
  6  5  1  0
  7  6  1  0
  8  7  2  0
  9  7  1  0
 10 13  1  0
 10  9  1  0
 10 11  1  6
 12 11  1  0
 13 15  1  0
 14 13  2  0
M  END
$$$$
