GGC.pdb
     RDKit          3D

 15 14  0  0  1  0  0  0  0  0999 V2000
   18.7244  -12.5441  -16.1510 N   0  0  0  0  0  0  0  0  0  0  0  0
   18.4512  -11.4197  -16.9922 C   0  0  0  0  0  0  0  0  0  0  0  0
   17.6129  -10.4248  -16.2575 C   0  0  0  0  0  0  0  0  0  0  0  0
   16.4148  -10.6886  -16.0080 O   0  0  0  0  0  0  0  0  0  0  0  0
   18.1323   -9.1790  -15.8283 N   0  0  0  0  0  0  0  0  0  0  0  0
   17.3538   -8.2273  -15.0794 C   0  0  0  0  0  0  0  0  0  0  0  0
   18.1724   -7.0917  -14.5886 C   0  0  0  0  0  0  0  0  0  0  0  0
   17.6285   -6.1429  -13.9689 O   0  0  0  0  0  0  0  0  0  0  0  0
   19.5727   -7.0450  -14.8016 N   0  0  0  0  0  0  0  0  0  0  0  0
   20.4106   -5.9747  -14.3033 C   0  0  1  0  0  0  0  0  0  0  0  0
   21.6318   -6.5548  -13.5781 C   0  0  0  0  0  0  0  0  0  0  0  0
   22.7542   -5.2426  -13.0653 S   0  0  0  0  0  0  0  0  0  0  0  0
   20.9072   -5.1444  -15.4195 C   0  0  0  0  0  0  0  0  0  0  0  0
   21.0708   -5.6717  -16.5401 O   0  0  0  0  0  0  0  0  0  0  0  0
   21.1884   -3.8155  -15.2451 O   0  0  0  0  0  0  0  0  0  0  0  0
  2  1  1  0
  3  5  1  0
  3  2  1  0
  4  3  2  0
  6  5  1  0
  7  6  1  0
  8  7  2  0
  9  7  1  0
 10 13  1  0
 10  9  1  0
 10 11  1  6
 12 11  1  0
 13 15  1  0
 14 13  2  0
M  END
$$$$
