GGC.pdb
     RDKit          3D

 15 14  0  0  1  0  0  0  0  0999 V2000
   12.5345   -9.8347   -8.3658 N   0  0  0  0  0  0  0  0  0  0  0  0
   13.9027   -9.4440   -8.2169 C   0  0  0  0  0  0  0  0  0  0  0  0
   14.4787   -9.0860   -9.5481 C   0  0  0  0  0  0  0  0  0  0  0  0
   13.7665   -9.1714  -10.5742 O   0  0  0  0  0  0  0  0  0  0  0  0
   15.8179   -8.6482   -9.6918 N   0  0  0  0  0  0  0  0  0  0  0  0
   16.3482   -8.1604  -10.9381 C   0  0  0  0  0  0  0  0  0  0  0  0
   17.7931   -7.8371  -10.8475 C   0  0  0  0  0  0  0  0  0  0  0  0
   18.3448   -7.7214   -9.7239 O   0  0  0  0  0  0  0  0  0  0  0  0
   18.5823   -7.6519  -12.0099 N   0  0  0  0  0  0  0  0  0  0  0  0
   19.9912   -7.3218  -11.9620 C   0  0  1  0  0  0  0  0  0  0  0  0
   20.8364   -8.5925  -12.1187 C   0  0  0  0  0  0  0  0  0  0  0  0
   20.2744   -9.5650  -13.5268 S   0  0  0  0  0  0  0  0  0  0  0  0
   20.3465   -6.4101  -13.0685 C   0  0  0  0  0  0  0  0  0  0  0  0
   19.5118   -6.2039  -13.9748 O   0  0  0  0  0  0  0  0  0  0  0  0
   21.5680   -5.7927  -13.1149 O   0  0  0  0  0  0  0  0  0  0  0  0
  2  1  1  0
  3  5  1  0
  3  2  1  0
  4  3  2  0
  6  5  1  0
  7  6  1  0
  8  7  2  0
  9  7  1  0
 10 13  1  0
 10  9  1  0
 10 11  1  6
 12 11  1  0
 13 15  1  0
 14 13  2  0
M  END
$$$$
