GGC.pdb
     RDKit          3D

 15 14  0  0  1  0  0  0  0  0999 V2000
   20.4773  -14.5837  -17.7109 N   0  0  0  0  0  0  0  0  0  0  0  0
   19.8395  -13.6096  -18.5420 C   0  0  0  0  0  0  0  0  0  0  0  0
   20.5518  -12.3008  -18.4325 C   0  0  0  0  0  0  0  0  0  0  0  0
   21.7302  -12.2704  -18.0110 O   0  0  0  0  0  0  0  0  0  0  0  0
   19.9333  -11.0787  -18.7931 N   0  0  0  0  0  0  0  0  0  0  0  0
   20.6118   -9.8112  -18.7192 C   0  0  0  0  0  0  0  0  0  0  0  0
   20.5433   -9.2136  -17.3632 C   0  0  0  0  0  0  0  0  0  0  0  0
   19.4313   -9.0563  -16.7982 O   0  0  0  0  0  0  0  0  0  0  0  0
   21.7140   -8.8086  -16.6751 N   0  0  0  0  0  0  0  0  0  0  0  0
   21.6832   -8.1576  -15.3822 C   0  0  1  0  0  0  0  0  0  0  0  0
   23.0000   -8.4058  -14.6351 C   0  0  0  0  0  0  0  0  0  0  0  0
   22.9947  -10.0274  -13.8511 S   0  0  0  0  0  0  0  0  0  0  0  0
   21.5292   -6.6972  -15.5422 C   0  0  0  0  0  0  0  0  0  0  0  0
   21.8827   -6.1652  -16.6158 O   0  0  0  0  0  0  0  0  0  0  0  0
   21.0087   -5.9244  -14.5387 O   0  0  0  0  0  0  0  0  0  0  0  0
  2  1  1  0
  3  5  1  0
  3  2  1  0
  4  3  2  0
  6  5  1  0
  7  6  1  0
  8  7  2  0
  9  7  1  0
 10 13  1  0
 10  9  1  0
 10 11  1  6
 12 11  1  0
 13 15  1  0
 14 13  2  0
M  END
$$$$
