GGC.pdb
     RDKit          3D

 15 14  0  0  1  0  0  0  0  0999 V2000
   25.8219  -20.6983  -16.2708 N   0  0  0  0  0  0  0  0  0  0  0  0
   25.0728  -20.9499  -15.0783 C   0  0  0  0  0  0  0  0  0  0  0  0
   25.8123  -20.4249  -13.8911 C   0  0  0  0  0  0  0  0  0  0  0  0
   25.3678  -19.4299  -13.2749 O   0  0  0  0  0  0  0  0  0  0  0  0
   27.0128  -21.0203  -13.4327 N   0  0  0  0  0  0  0  0  0  0  0  0
   27.6938  -20.5829  -12.2421 C   0  0  0  0  0  0  0  0  0  0  0  0
   27.0608  -21.1061  -11.0067 C   0  0  0  0  0  0  0  0  0  0  0  0
   26.8810  -22.3420  -10.8643 O   0  0  0  0  0  0  0  0  0  0  0  0
   26.6462  -20.2386   -9.9656 N   0  0  0  0  0  0  0  0  0  0  0  0
   26.0785  -20.7148   -8.7218 C   0  0  1  0  0  0  0  0  0  0  0  0
   26.4331  -19.7552   -7.5785 C   0  0  0  0  0  0  0  0  0  0  0  0
   28.2157  -19.5215   -7.4693 S   0  0  0  0  0  0  0  0  0  0  0  0
   24.6054  -20.7733   -8.8147 C   0  0  0  0  0  0  0  0  0  0  0  0
   24.0376  -20.2232   -9.7820 O   0  0  0  0  0  0  0  0  0  0  0  0
   23.8593  -21.4167   -7.8636 O   0  0  0  0  0  0  0  0  0  0  0  0
  2  1  1  0
  3  5  1  0
  3  2  1  0
  4  3  2  0
  6  5  1  0
  7  6  1  0
  8  7  2  0
  9  7  1  0
 10 13  1  0
 10  9  1  0
 10 11  1  1
 12 11  1  0
 13 15  1  0
 14 13  2  0
M  END
$$$$
