GGC.pdb
     RDKit          3D

 15 14  0  0  1  0  0  0  0  0999 V2000
   20.6649  -15.3232  -17.7105 N   0  0  0  0  0  0  0  0  0  0  0  0
   20.4977  -14.1152  -18.4585 C   0  0  0  0  0  0  0  0  0  0  0  0
   19.8060  -13.0888  -17.6216 C   0  0  0  0  0  0  0  0  0  0  0  0
   19.3386  -13.4119  -16.5061 O   0  0  0  0  0  0  0  0  0  0  0  0
   19.6589  -11.7472  -18.0511 N   0  0  0  0  0  0  0  0  0  0  0  0
   18.9878  -10.7466  -17.2631 C   0  0  0  0  0  0  0  0  0  0  0  0
   19.8983   -9.6505  -16.8504 C   0  0  0  0  0  0  0  0  0  0  0  0
   21.1215   -9.7050  -17.1351 O   0  0  0  0  0  0  0  0  0  0  0  0
   19.4212   -8.5255  -16.1328 N   0  0  0  0  0  0  0  0  0  0  0  0
   20.2581   -7.3939  -15.7935 C   0  0  1  0  0  0  0  0  0  0  0  0
   19.4246   -6.1059  -15.7820 C   0  0  0  0  0  0  0  0  0  0  0  0
   18.5287   -5.9099  -17.3322 S   0  0  0  0  0  0  0  0  0  0  0  0
   20.8356   -7.5639  -14.4446 C   0  0  0  0  0  0  0  0  0  0  0  0
   20.3829   -8.4598  -13.7008 O   0  0  0  0  0  0  0  0  0  0  0  0
   21.8519   -6.7602  -14.0013 O   0  0  0  0  0  0  0  0  0  0  0  0
  2  1  1  0
  3  5  1  0
  3  2  1  0
  4  3  2  0
  6  5  1  0
  7  6  1  0
  8  7  2  0
  9  7  1  0
 10 13  1  0
 10  9  1  0
 10 11  1  1
 12 11  1  0
 13 15  1  0
 14 13  2  0
M  END
$$$$
