GGC.pdb
     RDKit          3D

 15 14  0  0  1  0  0  0  0  0999 V2000
   22.1190   -8.9961  -19.2358 N   0  0  0  0  0  0  0  0  0  0  0  0
   20.9691   -9.6885  -18.7408 C   0  0  0  0  0  0  0  0  0  0  0  0
   20.8770   -9.5294  -17.2581 C   0  0  0  0  0  0  0  0  0  0  0  0
   19.8529   -9.9234  -16.6554 O   0  0  0  0  0  0  0  0  0  0  0  0
   21.9201   -8.9416  -16.5014 N   0  0  0  0  0  0  0  0  0  0  0  0
   21.8523   -8.7855  -15.0719 C   0  0  0  0  0  0  0  0  0  0  0  0
   21.9668   -7.3667  -14.6541 C   0  0  0  0  0  0  0  0  0  0  0  0
   21.7774   -7.0449  -13.4538 O   0  0  0  0  0  0  0  0  0  0  0  0
   22.2888   -6.3471  -15.5842 N   0  0  0  0  0  0  0  0  0  0  0  0
   22.5709   -4.9824  -15.1917 C   0  0  1  0  0  0  0  0  0  0  0  0
   23.4836   -4.3135  -16.2277 C   0  0  0  0  0  0  0  0  0  0  0  0
   25.0876   -5.1306  -16.2895 S   0  0  0  0  0  0  0  0  0  0  0  0
   21.3226   -4.1958  -15.1225 C   0  0  0  0  0  0  0  0  0  0  0  0
   20.3375   -4.5629  -15.7974 O   0  0  0  0  0  0  0  0  0  0  0  0
   21.2303   -3.0788  -14.3356 O   0  0  0  0  0  0  0  0  0  0  0  0
  2  1  1  0
  3  5  1  0
  3  2  1  0
  4  3  2  0
  6  5  1  0
  7  6  1  0
  8  7  2  0
  9  7  1  0
 10 13  1  0
 10  9  1  0
 10 11  1  6
 12 11  1  0
 13 15  1  0
 14 13  2  0
M  END
$$$$
