GGC.pdb
     RDKit          3D

 15 14  0  0  1  0  0  0  0  0999 V2000
   18.0617   -8.4699  -19.7631 N   0  0  0  0  0  0  0  0  0  0  0  0
   17.5785   -9.5561  -18.9672 C   0  0  0  0  0  0  0  0  0  0  0  0
   17.9705   -9.3561  -17.5394 C   0  0  0  0  0  0  0  0  0  0  0  0
   18.9996   -9.9140  -17.0958 O   0  0  0  0  0  0  0  0  0  0  0  0
   17.2096   -8.5478  -16.6598 N   0  0  0  0  0  0  0  0  0  0  0  0
   17.5491   -8.3749  -15.2715 C   0  0  0  0  0  0  0  0  0  0  0  0
   18.4107   -7.1886  -15.0457 C   0  0  0  0  0  0  0  0  0  0  0  0
   17.8959   -6.0841  -14.7370 O   0  0  0  0  0  0  0  0  0  0  0  0
   19.8203   -7.2659  -15.1701 N   0  0  0  0  0  0  0  0  0  0  0  0
   20.7010   -6.1598  -14.8585 C   0  0  1  0  0  0  0  0  0  0  0  0
   22.0046   -6.6814  -14.2404 C   0  0  0  0  0  0  0  0  0  0  0  0
   21.6824   -7.5147  -12.6764 S   0  0  0  0  0  0  0  0  0  0  0  0
   21.0545   -5.4186  -16.0863 C   0  0  0  0  0  0  0  0  0  0  0  0
   20.7138   -5.8848  -17.1942 O   0  0  0  0  0  0  0  0  0  0  0  0
   21.7447   -4.2372  -16.0282 O   0  0  0  0  0  0  0  0  0  0  0  0
  2  1  1  0
  3  5  1  0
  3  2  1  0
  4  3  2  0
  6  5  1  0
  7  6  1  0
  8  7  2  0
  9  7  1  0
 10 13  1  0
 10  9  1  0
 10 11  1  6
 12 11  1  0
 13 15  1  0
 14 13  2  0
M  END
$$$$
