VSH.pdb
     RDKit          3D

 24 24  0  0  1  0  0  0  0  0999 V2000
   22.2269  -14.1497  -15.7796 C   0  0  0  0  0  0  0  0  0  0  0  0
   23.3051  -14.0326  -16.8388 C   0  0  2  0  0  0  0  0  0  0  0  0
   22.6578  -13.9781  -18.1842 C   0  0  0  0  0  0  0  0  0  0  0  0
   24.2367  -15.2035  -16.6669 C   0  0  2  0  0  0  0  0  0  0  0  0
   25.3450  -15.0445  -17.5579 N   0  0  0  0  0  0  0  0  0  0  0  0
   23.5386  -16.5020  -16.8474 C   0  0  0  0  0  0  0  0  0  0  0  0
   23.0922  -16.8310  -17.9570 O   0  0  0  0  0  0  0  0  0  0  0  0
   23.8807  -19.4181  -13.8625 O   0  0  0  0  0  0  0  0  0  0  0  0
   23.6396  -19.7710  -15.1848 C   0  0  0  0  0  0  0  0  0  0  0  0
   22.8012  -18.7236  -15.8844 C   0  0  2  0  0  0  0  0  0  0  0  0
   23.3593  -17.4049  -15.7642 N   0  0  0  0  0  0  0  0  0  0  0  0
   21.4206  -18.7414  -15.3909 C   0  0  0  0  0  0  0  0  0  0  0  0
   21.1223  -18.0566  -14.3777 O   0  0  0  0  0  0  0  0  0  0  0  0
   20.3971  -19.5147  -16.0256 N   0  0  0  0  0  0  0  0  0  0  0  0
   19.0470  -19.5222  -15.5021 C   0  0  1  0  0  0  0  0  0  0  0  0
   18.0299  -19.4634  -16.6263 C   0  0  0  0  0  0  0  0  0  0  0  0
   16.6457  -19.3413  -16.0804 C   0  0  0  0  0  0  0  0  0  0  0  0
   16.2816  -18.6765  -14.9287 C   0  0  0  0  0  0  0  0  0  0  0  0
   14.9537  -18.7856  -14.7656 N   0  0  0  0  0  0  0  0  0  0  0  0
   14.4606  -19.5065  -15.7891 C   0  0  0  0  0  0  0  0  0  0  0  0
   15.5100  -19.8355  -16.5797 N   0  0  0  0  0  0  0  0  0  0  0  0
   18.8403  -20.6907  -14.6356 C   0  0  0  0  0  0  0  0  0  0  0  0
   19.3882  -21.7920  -14.8552 O   0  0  0  0  0  0  0  0  0  0  0  0
   18.0094  -20.5729  -13.5346 O   0  0  0  0  0  0  0  0  0  0  0  0
  2  1  1  1
  2  4  1  0
  3  2  1  0
  4  6  1  0
  4  5  1  6
  6  7  2  0
  9  8  1  0
 10  9  1  1
 10 12  1  0
 11 10  1  0
 11  6  1  0
 12 13  2  0
 14 12  1  0
 14 15  1  0
 15 22  1  0
 15 16  1  6
 17 21  1  0
 17 16  1  0
 18 17  2  0
 19 18  1  0
 19 20  1  0
 20 21  2  0
 22 23  2  0
 22 24  1  0
M  END
$$$$
