VSH.pdb
     RDKit          3D

 24 24  0  0  1  0  0  0  0  0999 V2000
   23.6755  -16.1675  -18.4223 C   0  0  0  0  0  0  0  0  0  0  0  0
   25.1735  -16.3955  -18.3765 C   0  0  2  0  0  0  0  0  0  0  0  0
   25.7377  -16.1794  -19.7429 C   0  0  0  0  0  0  0  0  0  0  0  0
   25.4030  -17.7857  -17.8442 C   0  0  2  0  0  0  0  0  0  0  0  0
   24.8522  -18.7290  -18.7683 N   0  0  0  0  0  0  0  0  0  0  0  0
   24.8667  -17.9511  -16.4690 C   0  0  0  0  0  0  0  0  0  0  0  0
   25.4357  -17.4243  -15.5008 O   0  0  0  0  0  0  0  0  0  0  0  0
   21.4717  -20.2193  -16.0754 O   0  0  0  0  0  0  0  0  0  0  0  0
   21.7276  -19.4475  -14.9484 C   0  0  0  0  0  0  0  0  0  0  0  0
   23.1732  -19.0023  -14.9092 C   0  0  2  0  0  0  0  0  0  0  0  0
   23.6929  -18.7124  -16.2170 N   0  0  0  0  0  0  0  0  0  0  0  0
   24.0109  -19.9996  -14.2356 C   0  0  0  0  0  0  0  0  0  0  0  0
   24.7928  -20.7084  -14.9216 O   0  0  0  0  0  0  0  0  0  0  0  0
   23.9686  -20.1945  -12.8183 N   0  0  0  0  0  0  0  0  0  0  0  0
   25.1306  -20.6842  -12.1063 C   0  0  1  0  0  0  0  0  0  0  0  0
   26.3258  -19.7773  -12.3315 C   0  0  0  0  0  0  0  0  0  0  0  0
   27.5181  -20.2800  -11.5869 C   0  0  0  0  0  0  0  0  0  0  0  0
   27.5823  -21.4382  -10.8416 C   0  0  0  0  0  0  0  0  0  0  0  0
   28.8154  -21.5536  -10.3238 N   0  0  0  0  0  0  0  0  0  0  0  0
   29.5415  -20.4932  -10.7223 C   0  0  0  0  0  0  0  0  0  0  0  0
   28.7306  -19.7286  -11.4922 N   0  0  0  0  0  0  0  0  0  0  0  0
   24.8255  -20.8455  -10.6782 C   0  0  0  0  0  0  0  0  0  0  0  0
   24.0743  -20.0604  -10.0613 O   0  0  0  0  0  0  0  0  0  0  0  0
   25.3881  -21.9042   -9.9857 O   0  0  0  0  0  0  0  0  0  0  0  0
  2  1  1  6
  2  4  1  0
  3  2  1  0
  4  6  1  0
  4  5  1  6
  6  7  2  0
  9  8  1  0
 10  9  1  6
 10 12  1  0
 11 10  1  0
 11  6  1  0
 12 13  2  0
 14 12  1  0
 14 15  1  0
 15 22  1  0
 15 16  1  1
 17 21  1  0
 17 16  1  0
 18 17  2  0
 19 18  1  0
 19 20  1  0
 20 21  2  0
 22 23  2  0
 22 24  1  0
M  END
$$$$
