VSH.pdb
     RDKit          3D

 24 24  0  0  1  0  0  0  0  0999 V2000
   25.5253  -17.8402  -19.4809 C   0  0  0  0  0  0  0  0  0  0  0  0
   24.4259  -18.8682  -19.6618 C   0  0  2  0  0  0  0  0  0  0  0  0
   23.1987  -18.1805  -20.1650 C   0  0  0  0  0  0  0  0  0  0  0  0
   24.2287  -19.5571  -18.3370 C   0  0  2  0  0  0  0  0  0  0  0  0
   23.5800  -18.6511  -17.4394 N   0  0  0  0  0  0  0  0  0  0  0  0
   25.5032  -20.0898  -17.7911 C   0  0  0  0  0  0  0  0  0  0  0  0
   26.0911  -21.0248  -18.3557 O   0  0  0  0  0  0  0  0  0  0  0  0
   27.3297  -17.9128  -14.8600 O   0  0  0  0  0  0  0  0  0  0  0  0
   28.1451  -18.8565  -15.4729 C   0  0  0  0  0  0  0  0  0  0  0  0
   27.3283  -19.9971  -16.0398 C   0  0  2  0  0  0  0  0  0  0  0  0
   26.0883  -19.5511  -16.6128 N   0  0  0  0  0  0  0  0  0  0  0  0
   27.0812  -21.0223  -15.0211 C   0  0  0  0  0  0  0  0  0  0  0  0
   28.0611  -21.5740  -14.4554 O   0  0  0  0  0  0  0  0  0  0  0  0
   25.7576  -21.4180  -14.6472 N   0  0  0  0  0  0  0  0  0  0  0  0
   25.3165  -21.3105  -13.2721 C   0  0  1  0  0  0  0  0  0  0  0  0
   26.4373  -20.8081  -12.3815 C   0  0  0  0  0  0  0  0  0  0  0  0
   25.9909  -20.7395  -10.9585 C   0  0  0  0  0  0  0  0  0  0  0  0
   24.7741  -21.1619  -10.4669 C   0  0  0  0  0  0  0  0  0  0  0  0
   24.7391  -20.9386   -9.1437 N   0  0  0  0  0  0  0  0  0  0  0  0
   25.9084  -20.3821   -8.7785 C   0  0  0  0  0  0  0  0  0  0  0  0
   26.6577  -20.2694   -9.9013 N   0  0  0  0  0  0  0  0  0  0  0  0
   24.1216  -20.4603  -13.1826 C   0  0  0  0  0  0  0  0  0  0  0  0
   24.0304  -19.3685  -13.7834 O   0  0  0  0  0  0  0  0  0  0  0  0
   23.0548  -20.8791  -12.4060 O   0  0  0  0  0  0  0  0  0  0  0  0
  2  1  1  1
  2  4  1  0
  3  2  1  0
  4  6  1  0
  4  5  1  1
  6  7  2  0
  9  8  1  0
 10  9  1  1
 10 12  1  0
 11 10  1  0
 11  6  1  0
 12 13  2  0
 14 12  1  0
 14 15  1  0
 15 22  1  0
 15 16  1  1
 17 21  1  0
 17 16  1  0
 18 17  2  0
 19 18  1  0
 19 20  1  0
 20 21  2  0
 22 23  2  0
 22 24  1  0
M  END
$$$$
