VSH.pdb
     RDKit          3D

 24 24  0  0  1  0  0  0  0  0999 V2000
   17.9081  -14.3666  -17.7211 C   0  0  0  0  0  0  0  0  0  0  0  0
   18.2489  -14.5403  -16.2541 C   0  0  2  0  0  0  0  0  0  0  0  0
   18.1238  -15.9854  -15.8962 C   0  0  0  0  0  0  0  0  0  0  0  0
   17.3289  -13.6441  -15.4673 C   0  0  2  0  0  0  0  0  0  0  0  0
   15.9799  -14.0743  -15.6738 N   0  0  0  0  0  0  0  0  0  0  0  0
   17.5299  -12.2103  -15.7990 C   0  0  0  0  0  0  0  0  0  0  0  0
   17.9413  -11.8722  -16.9193 O   0  0  0  0  0  0  0  0  0  0  0  0
   17.2298   -9.1984  -12.7967 O   0  0  0  0  0  0  0  0  0  0  0  0
   16.7101   -8.9313  -14.0576 C   0  0  0  0  0  0  0  0  0  0  0  0
   17.3838   -9.7777  -15.1155 C   0  0  2  0  0  0  0  0  0  0  0  0
   17.2600  -11.1848  -14.8523 N   0  0  0  0  0  0  0  0  0  0  0  0
   18.7948   -9.4074  -15.2632 C   0  0  0  0  0  0  0  0  0  0  0  0
   19.6818  -10.1746  -14.8058 O   0  0  0  0  0  0  0  0  0  0  0  0
   19.1985   -8.1976  -15.9129 N   0  0  0  0  0  0  0  0  0  0  0  0
   20.5956   -7.8207  -15.9674 C   0  0  1  0  0  0  0  0  0  0  0  0
   21.2874   -8.4750  -17.1486 C   0  0  0  0  0  0  0  0  0  0  0  0
   22.7095   -8.0300  -17.2406 C   0  0  0  0  0  0  0  0  0  0  0  0
   23.7851   -8.6071  -16.5996 C   0  0  0  0  0  0  0  0  0  0  0  0
   24.8985   -7.9320  -16.9258 N   0  0  0  0  0  0  0  0  0  0  0  0
   24.5575   -6.9348  -17.7624 C   0  0  0  0  0  0  0  0  0  0  0  0
   23.2171   -7.0128  -17.9411 N   0  0  0  0  0  0  0  0  0  0  0  0
   20.7306   -6.3579  -15.9938 C   0  0  0  0  0  0  0  0  0  0  0  0
   21.8108   -5.7809  -15.7462 O   0  0  0  0  0  0  0  0  0  0  0  0
   19.6240   -5.5858  -16.3036 O   0  0  0  0  0  0  0  0  0  0  0  0
  2  1  1  6
  2  4  1  0
  3  2  1  0
  4  6  1  0
  4  5  1  6
  6  7  2  0
  9  8  1  0
 10  9  1  1
 10 12  1  0
 11 10  1  0
 11  6  1  0
 12 13  2  0
 14 12  1  0
 14 15  1  0
 15 22  1  0
 15 16  1  6
 17 21  1  0
 17 16  1  0
 18 17  2  0
 19 18  1  0
 19 20  1  0
 20 21  2  0
 22 23  2  0
 22 24  1  0
M  END
$$$$
