VSH.pdb
     RDKit          3D

 24 24  0  0  1  0  0  0  0  0999 V2000
   14.1090  -11.4128   -9.7811 C   0  0  0  0  0  0  0  0  0  0  0  0
   14.5317  -10.2044  -10.5930 C   0  0  2  0  0  0  0  0  0  0  0  0
   15.7715  -10.5430  -11.3548 C   0  0  0  0  0  0  0  0  0  0  0  0
   14.7094   -9.0559   -9.6350 C   0  0  2  0  0  0  0  0  0  0  0  0
   13.4669   -8.8177   -8.9666 N   0  0  0  0  0  0  0  0  0  0  0  0
   15.2377   -7.8434  -10.3108 C   0  0  0  0  0  0  0  0  0  0  0  0
   14.4987   -7.1404  -11.0169 O   0  0  0  0  0  0  0  0  0  0  0  0
   17.4074   -5.3234   -8.5370 O   0  0  0  0  0  0  0  0  0  0  0  0
   16.9726   -5.0514   -9.8286 C   0  0  0  0  0  0  0  0  0  0  0  0
   17.1601   -6.2514  -10.7309 C   0  0  2  0  0  0  0  0  0  0  0  0
   16.5967   -7.4499  -10.1732 N   0  0  0  0  0  0  0  0  0  0  0  0
   18.5773   -6.4525  -11.0484 C   0  0  0  0  0  0  0  0  0  0  0  0
   19.3552   -6.8653  -10.1490 O   0  0  0  0  0  0  0  0  0  0  0  0
   19.1076   -6.1938  -12.3525 N   0  0  0  0  0  0  0  0  0  0  0  0
   20.5184   -6.3752  -12.6241 C   0  0  1  0  0  0  0  0  0  0  0  0
   20.7405   -6.8283  -14.0549 C   0  0  0  0  0  0  0  0  0  0  0  0
   20.1267   -8.1695  -14.2855 C   0  0  0  0  0  0  0  0  0  0  0  0
   19.5853   -8.9926  -13.3210 C   0  0  0  0  0  0  0  0  0  0  0  0
   19.1322  -10.1111  -13.9090 N   0  0  0  0  0  0  0  0  0  0  0  0
   19.3725  -10.0206  -15.2298 C   0  0  0  0  0  0  0  0  0  0  0  0
   19.9799   -8.8280  -15.4380 N   0  0  0  0  0  0  0  0  0  0  0  0
   21.2612   -5.1455  -12.3164 C   0  0  0  0  0  0  0  0  0  0  0  0
   22.5077   -5.0836  -12.3770 O   0  0  0  0  0  0  0  0  0  0  0  0
   20.5598   -4.0110  -11.9452 O   0  0  0  0  0  0  0  0  0  0  0  0
  2  1  1  1
  2  4  1  0
  3  2  1  0
  4  6  1  0
  4  5  1  6
  6  7  2  0
  9  8  1  0
 10  9  1  1
 10 12  1  0
 11 10  1  0
 11  6  1  0
 12 13  2  0
 14 12  1  0
 14 15  1  0
 15 22  1  0
 15 16  1  6
 17 21  1  0
 17 16  1  0
 18 17  2  0
 19 18  1  0
 19 20  1  0
 20 21  2  0
 22 23  2  0
 22 24  1  0
M  END
$$$$
