VSH.pdb
     RDKit          3D

 24 24  0  0  1  0  0  0  0  0999 V2000
   19.8528  -11.5917  -16.3797 C   0  0  0  0  0  0  0  0  0  0  0  0
   19.8190  -11.3387  -17.8741 C   0  0  2  0  0  0  0  0  0  0  0  0
   19.2445  -12.5381  -18.5549 C   0  0  0  0  0  0  0  0  0  0  0  0
   21.2242  -11.0156  -18.3097 C   0  0  2  0  0  0  0  0  0  0  0  0
   22.0273  -12.1930  -18.1832 N   0  0  0  0  0  0  0  0  0  0  0  0
   21.7849   -9.8575  -17.5677 C   0  0  0  0  0  0  0  0  0  0  0  0
   22.3150  -10.0147  -16.4573 O   0  0  0  0  0  0  0  0  0  0  0  0
   21.0694   -5.8361  -18.8300 O   0  0  0  0  0  0  0  0  0  0  0  0
   22.3382   -6.1804  -18.3795 C   0  0  0  0  0  0  0  0  0  0  0  0
   22.2826   -7.3784  -17.4568 C   0  0  2  0  0  0  0  0  0  0  0  0
   21.7340   -8.5404  -18.0999 N   0  0  0  0  0  0  0  0  0  0  0  0
   21.5311   -7.0664  -16.2371 C   0  0  0  0  0  0  0  0  0  0  0  0
   20.2931   -7.2916  -16.2045 O   0  0  0  0  0  0  0  0  0  0  0  0
   22.1613   -6.5121  -15.0777 N   0  0  0  0  0  0  0  0  0  0  0  0
   21.3958   -6.2494  -13.8768 C   0  0  1  0  0  0  0  0  0  0  0  0
   22.1908   -6.6143  -12.6372 C   0  0  0  0  0  0  0  0  0  0  0  0
   21.4115   -6.3086  -11.4010 C   0  0  0  0  0  0  0  0  0  0  0  0
   20.1292   -6.7317  -11.1228 C   0  0  0  0  0  0  0  0  0  0  0  0
   19.7670   -6.2582   -9.9200 N   0  0  0  0  0  0  0  0  0  0  0  0
   20.7911   -5.5408   -9.4230 C   0  0  0  0  0  0  0  0  0  0  0  0
   21.7845   -5.5845  -10.3428 N   0  0  0  0  0  0  0  0  0  0  0  0
   20.9494   -4.8499  -13.8502 C   0  0  0  0  0  0  0  0  0  0  0  0
   19.7720   -4.5279  -13.5832 O   0  0  0  0  0  0  0  0  0  0  0  0
   21.8621   -3.8473  -14.1301 O   0  0  0  0  0  0  0  0  0  0  0  0
  2  1  1  1
  2  4  1  0
  3  2  1  0
  4  6  1  0
  4  5  1  1
  6  7  2  0
  9  8  1  0
 10  9  1  6
 10 12  1  0
 11 10  1  0
 11  6  1  0
 12 13  2  0
 14 12  1  0
 14 15  1  0
 15 22  1  0
 15 16  1  1
 17 21  1  0
 17 16  1  0
 18 17  2  0
 19 18  1  0
 19 20  1  0
 20 21  2  0
 22 23  2  0
 22 24  1  0
M  END
$$$$
