VSH.pdb
     RDKit          3D

 24 24  0  0  1  0  0  0  0  0999 V2000
   17.6887  -11.8346  -18.1255 C   0  0  0  0  0  0  0  0  0  0  0  0
   19.0797  -12.4285  -18.2293 C   0  0  2  0  0  0  0  0  0  0  0  0
   19.0262  -13.6346  -19.1095 C   0  0  0  0  0  0  0  0  0  0  0  0
   19.5498  -12.7259  -16.8297 C   0  0  2  0  0  0  0  0  0  0  0  0
   18.7638  -13.7969  -16.2981 N   0  0  0  0  0  0  0  0  0  0  0  0
   19.5291  -11.5173  -15.9665 C   0  0  0  0  0  0  0  0  0  0  0  0
   18.4625  -11.0966  -15.4931 O   0  0  0  0  0  0  0  0  0  0  0  0
   22.1410   -8.0978  -13.6344 O   0  0  0  0  0  0  0  0  0  0  0  0
   22.1468   -9.2584  -14.3987 C   0  0  0  0  0  0  0  0  0  0  0  0
   20.7659   -9.5639  -14.9366 C   0  0  2  0  0  0  0  0  0  0  0  0
   20.7206  -10.8070  -15.6558 N   0  0  0  0  0  0  0  0  0  0  0  0
   20.2769   -8.4679  -15.7789 C   0  0  0  0  0  0  0  0  0  0  0  0
   20.5768   -8.4526  -17.0014 O   0  0  0  0  0  0  0  0  0  0  0  0
   19.4668   -7.4107  -15.2550 N   0  0  0  0  0  0  0  0  0  0  0  0
   19.0428   -6.3166  -16.1037 C   0  0  1  0  0  0  0  0  0  0  0  0
   17.5851   -6.4689  -16.4959 C   0  0  0  0  0  0  0  0  0  0  0  0
   17.1613   -5.3560  -17.3963 C   0  0  0  0  0  0  0  0  0  0  0  0
   17.7498   -5.0105  -18.5943 C   0  0  0  0  0  0  0  0  0  0  0  0
   17.0928   -3.9617  -19.1143 N   0  0  0  0  0  0  0  0  0  0  0  0
   16.0962   -3.6290  -18.2738 C   0  0  0  0  0  0  0  0  0  0  0  0
   16.1560   -4.4925  -17.2319 N   0  0  0  0  0  0  0  0  0  0  0  0
   19.3026   -5.0285  -15.4466 C   0  0  0  0  0  0  0  0  0  0  0  0
   19.4863   -4.9306  -14.2146 O   0  0  0  0  0  0  0  0  0  0  0  0
   19.3465   -3.8780  -16.2154 O   0  0  0  0  0  0  0  0  0  0  0  0
  2  1  1  1
  2  4  1  0
  3  2  1  0
  4  6  1  0
  4  5  1  1
  6  7  2  0
  9  8  1  0
 10  9  1  6
 10 12  1  0
 11 10  1  0
 11  6  1  0
 12 13  2  0
 14 12  1  0
 14 15  1  0
 15 22  1  0
 15 16  1  1
 17 21  1  0
 17 16  1  0
 18 17  2  0
 19 18  1  0
 19 20  1  0
 20 21  2  0
 22 23  2  0
 22 24  1  0
M  END
$$$$
