VSH.pdb
     RDKit          3D

 24 24  0  0  1  0  0  0  0  0999 V2000
   23.5677  -11.3997  -18.0880 C   0  0  0  0  0  0  0  0  0  0  0  0
   23.6467  -11.8112  -16.6311 C   0  0  2  0  0  0  0  0  0  0  0  0
   24.8862  -12.6191  -16.4231 C   0  0  0  0  0  0  0  0  0  0  0  0
   22.3803  -12.5578  -16.3031 C   0  0  2  0  0  0  0  0  0  0  0  0
   22.3171  -13.7351  -17.1138 N   0  0  0  0  0  0  0  0  0  0  0  0
   21.1758  -11.7002  -16.4439 C   0  0  0  0  0  0  0  0  0  0  0  0
   20.7384  -11.4037  -17.5661 O   0  0  0  0  0  0  0  0  0  0  0  0
   17.1414   -9.9836  -14.4456 O   0  0  0  0  0  0  0  0  0  0  0  0
   18.3398  -10.6604  -14.2532 C   0  0  0  0  0  0  0  0  0  0  0  0
   19.3212  -10.3580  -15.3645 C   0  0  2  0  0  0  0  0  0  0  0  0
   20.4885  -11.1939  -15.3072 N   0  0  0  0  0  0  0  0  0  0  0  0
   19.7048   -8.9428  -15.3547 C   0  0  0  0  0  0  0  0  0  0  0  0
   20.6725   -8.5742  -14.6391 O   0  0  0  0  0  0  0  0  0  0  0  0
   19.0124   -7.9629  -16.1350 N   0  0  0  0  0  0  0  0  0  0  0  0
   19.4179   -6.5731  -16.1021 C   0  0  1  0  0  0  0  0  0  0  0  0
   18.8965   -5.8279  -17.3164 C   0  0  0  0  0  0  0  0  0  0  0  0
   19.3579   -4.4081  -17.3031 C   0  0  0  0  0  0  0  0  0  0  0  0
   20.6381   -3.9668  -17.5623 C   0  0  0  0  0  0  0  0  0  0  0  0
   20.6662   -2.6290  -17.4556 N   0  0  0  0  0  0  0  0  0  0  0  0
   19.4305   -2.2052  -17.1336 C   0  0  0  0  0  0  0  0  0  0  0  0
   18.6476   -3.3070  -17.0455 N   0  0  0  0  0  0  0  0  0  0  0  0
   18.9882   -5.9440  -14.8458 C   0  0  0  0  0  0  0  0  0  0  0  0
   19.1773   -4.7327  -14.6050 O   0  0  0  0  0  0  0  0  0  0  0  0
   18.3500   -6.7167  -13.8906 O   0  0  0  0  0  0  0  0  0  0  0  0
  2  1  1  6
  2  4  1  0
  3  2  1  0
  4  6  1  0
  4  5  1  6
  6  7  2  0
  9  8  1  0
 10  9  1  1
 10 12  1  0
 11 10  1  0
 11  6  1  0
 12 13  2  0
 14 12  1  0
 14 15  1  0
 15 22  1  0
 15 16  1  6
 17 21  1  0
 17 16  1  0
 18 17  2  0
 19 18  1  0
 19 20  1  0
 20 21  2  0
 22 23  2  0
 22 24  1  0
M  END
$$$$
