VSH.pdb
     RDKit          3D

 24 24  0  0  1  0  0  0  0  0999 V2000
   16.9748  -10.2289  -17.0718 C   0  0  0  0  0  0  0  0  0  0  0  0
   18.1410  -10.8069  -17.8491 C   0  0  2  0  0  0  0  0  0  0  0  0
   17.6100  -11.6527  -18.9603 C   0  0  0  0  0  0  0  0  0  0  0  0
   19.0020  -11.5663  -16.8741 C   0  0  2  0  0  0  0  0  0  0  0  0
   18.2771  -12.7113  -16.4150 N   0  0  0  0  0  0  0  0  0  0  0  0
   19.4761  -10.7046  -15.7611 C   0  0  0  0  0  0  0  0  0  0  0  0
   18.7537  -10.4899  -14.7758 O   0  0  0  0  0  0  0  0  0  0  0  0
   23.4902  -10.0457  -15.1726 O   0  0  0  0  0  0  0  0  0  0  0  0
   22.5744   -9.7329  -14.1752 C   0  0  0  0  0  0  0  0  0  0  0  0
   21.2757   -9.2290  -14.7659 C   0  0  2  0  0  0  0  0  0  0  0  0
   20.7630  -10.1013  -15.7862 N   0  0  0  0  0  0  0  0  0  0  0  0
   21.4302   -7.8675  -15.2875 C   0  0  0  0  0  0  0  0  0  0  0  0
   21.7781   -7.7054  -16.4864 O   0  0  0  0  0  0  0  0  0  0  0  0
   21.1978   -6.7121  -14.4754 N   0  0  0  0  0  0  0  0  0  0  0  0
   21.3320   -5.3814  -15.0305 C   0  0  1  0  0  0  0  0  0  0  0  0
   20.0518   -4.5876  -14.8501 C   0  0  0  0  0  0  0  0  0  0  0  0
   18.9956   -5.0680  -15.7894 C   0  0  0  0  0  0  0  0  0  0  0  0
   19.2059   -5.6313  -17.0301 C   0  0  0  0  0  0  0  0  0  0  0  0
   18.0180   -5.9360  -17.5758 N   0  0  0  0  0  0  0  0  0  0  0  0
   17.0518   -5.5792  -16.7100 C   0  0  0  0  0  0  0  0  0  0  0  0
   17.6702   -5.0516  -15.6265 N   0  0  0  0  0  0  0  0  0  0  0  0
   22.4904   -4.6956  -14.4419 C   0  0  0  0  0  0  0  0  0  0  0  0
   23.1472   -5.1821  -13.4968 O   0  0  0  0  0  0  0  0  0  0  0  0
   22.8728   -3.4654  -14.9488 O   0  0  0  0  0  0  0  0  0  0  0  0
  2  1  1  1
  2  4  1  0
  3  2  1  0
  4  6  1  0
  4  5  1  1
  6  7  2  0
  9  8  1  0
 10  9  1  6
 10 12  1  0
 11 10  1  0
 11  6  1  0
 12 13  2  0
 14 12  1  0
 14 15  1  0
 15 22  1  0
 15 16  1  1
 17 21  1  0
 17 16  1  0
 18 17  2  0
 19 18  1  0
 19 20  1  0
 20 21  2  0
 22 23  2  0
 22 24  1  0
M  END
$$$$
