VSH.pdb
     RDKit          3D

 24 24  0  0  1  0  0  0  0  0999 V2000
   19.8524  -16.8130  -15.8229 C   0  0  0  0  0  0  0  0  0  0  0  0
   20.2040  -15.4074  -16.2689 C   0  0  2  0  0  0  0  0  0  0  0  0
   20.9154  -14.7103  -15.1553 C   0  0  0  0  0  0  0  0  0  0  0  0
   18.9234  -14.7304  -16.6813 C   0  0  2  0  0  0  0  0  0  0  0  0
   18.2802  -15.5305  -17.6779 N   0  0  0  0  0  0  0  0  0  0  0  0
   19.1513  -13.3325  -17.1286 C   0  0  0  0  0  0  0  0  0  0  0  0
   19.7501  -13.0977  -18.1893 O   0  0  0  0  0  0  0  0  0  0  0  0
   16.6566  -10.3116  -15.9689 O   0  0  0  0  0  0  0  0  0  0  0  0
   17.5389  -10.1688  -17.0330 C   0  0  0  0  0  0  0  0  0  0  0  0
   18.8591  -10.8483  -16.7416 C   0  0  2  0  0  0  0  0  0  0  0  0
   18.6951  -12.2248  -16.3633 N   0  0  0  0  0  0  0  0  0  0  0  0
   19.6073  -10.1208  -15.7117 C   0  0  0  0  0  0  0  0  0  0  0  0
   19.4315  -10.4170  -14.5010 O   0  0  0  0  0  0  0  0  0  0  0  0
   20.5347   -9.0808  -16.0389 N   0  0  0  0  0  0  0  0  0  0  0  0
   21.2499   -8.3755  -14.9958 C   0  0  1  0  0  0  0  0  0  0  0  0
   22.7308   -8.2932  -15.3149 C   0  0  0  0  0  0  0  0  0  0  0  0
   23.3369   -9.6566  -15.3651 C   0  0  0  0  0  0  0  0  0  0  0  0
   23.5011  -10.5132  -14.2972 C   0  0  0  0  0  0  0  0  0  0  0  0
   24.0808  -11.6431  -14.7320 N   0  0  0  0  0  0  0  0  0  0  0  0
   24.2911  -11.5272  -16.0559 C   0  0  0  0  0  0  0  0  0  0  0  0
   23.8297  -10.3074  -16.4219 N   0  0  0  0  0  0  0  0  0  0  0  0
   20.6606   -7.0472  -14.7792 C   0  0  0  0  0  0  0  0  0  0  0  0
   21.0982   -6.2529  -13.9197 O   0  0  0  0  0  0  0  0  0  0  0  0
   19.5809   -6.6561  -15.5526 O   0  0  0  0  0  0  0  0  0  0  0  0
  2  1  1  1
  2  4  1  0
  3  2  1  0
  4  6  1  0
  4  5  1  6
  6  7  2  0
  9  8  1  0
 10  9  1  1
 10 12  1  0
 11 10  1  0
 11  6  1  0
 12 13  2  0
 14 12  1  0
 14 15  1  0
 15 22  1  0
 15 16  1  6
 17 21  1  0
 17 16  1  0
 18 17  2  0
 19 18  1  0
 19 20  1  0
 20 21  2  0
 22 23  2  0
 22 24  1  0
M  END
$$$$
