VSH.pdb
     RDKit          3D

 24 24  0  0  1  0  0  0  0  0999 V2000
   16.8561  -11.9045  -16.0433 C   0  0  0  0  0  0  0  0  0  0  0  0
   18.0874  -11.1823  -15.5330 C   0  0  2  0  0  0  0  0  0  0  0  0
   17.7310   -9.7592  -15.2502 C   0  0  0  0  0  0  0  0  0  0  0  0
   19.1656  -11.3368  -16.5732 C   0  0  2  0  0  0  0  0  0  0  0  0
   19.3669  -12.7311  -16.8237 N   0  0  0  0  0  0  0  0  0  0  0  0
   20.4177  -10.6381  -16.1858 C   0  0  0  0  0  0  0  0  0  0  0  0
   21.4547  -11.2792  -15.9568 O   0  0  0  0  0  0  0  0  0  0  0  0
   23.7389   -8.0211  -17.2162 O   0  0  0  0  0  0  0  0  0  0  0  0
   22.5902   -8.8033  -17.2241 C   0  0  0  0  0  0  0  0  0  0  0  0
   21.6806   -8.4477  -16.0684 C   0  0  2  0  0  0  0  0  0  0  0  0
   20.4706   -9.2227  -16.0649 N   0  0  0  0  0  0  0  0  0  0  0  0
   21.3699   -7.0148  -16.0672 C   0  0  0  0  0  0  0  0  0  0  0  0
   20.5643   -6.5607  -16.9213 O   0  0  0  0  0  0  0  0  0  0  0  0
   21.9547   -6.1117  -15.1233 N   0  0  0  0  0  0  0  0  0  0  0  0
   21.2232   -4.9495  -14.6639 C   0  0  1  0  0  0  0  0  0  0  0  0
   19.9292   -5.3575  -13.9851 C   0  0  0  0  0  0  0  0  0  0  0  0
   18.7750   -5.2196  -14.9218 C   0  0  0  0  0  0  0  0  0  0  0  0
   18.8267   -4.7282  -16.2090 C   0  0  0  0  0  0  0  0  0  0  0  0
   17.5923   -4.7587  -16.7354 N   0  0  0  0  0  0  0  0  0  0  0  0
   16.7517   -5.2595  -15.8117 C   0  0  0  0  0  0  0  0  0  0  0  0
   17.4941   -5.5341  -14.7126 N   0  0  0  0  0  0  0  0  0  0  0  0
   22.0674   -4.1270  -13.7867 C   0  0  0  0  0  0  0  0  0  0  0  0
   21.7085   -3.0037  -13.3735 O   0  0  0  0  0  0  0  0  0  0  0  0
   23.3065   -4.6089  -13.4007 O   0  0  0  0  0  0  0  0  0  0  0  0
  2  1  1  6
  2  4  1  0
  3  2  1  0
  4  6  1  0
  4  5  1  1
  6  7  2  0
  9  8  1  0
 10  9  1  6
 10 12  1  0
 11 10  1  0
 11  6  1  0
 12 13  2  0
 14 12  1  0
 14 15  1  0
 15 22  1  0
 15 16  1  1
 17 21  1  0
 17 16  1  0
 18 17  2  0
 19 18  1  0
 19 20  1  0
 20 21  2  0
 22 23  2  0
 22 24  1  0
M  END
$$$$
