HAP.pdb
     RDKit          3D

 23 24  0  0  1  0  0  0  0  0999 V2000
    8.0724  -16.2085   20.6832 N   0  0  0  0  0  0  0  0  0  0  0  0
    8.1458  -14.9351   21.3224 C   0  0  1  0  0  0  0  0  0  0  0  0
    7.2644  -13.9116   20.6358 C   0  0  0  0  0  0  0  0  0  0  0  0
    7.5736  -13.8189   19.1946 C   0  0  0  0  0  0  0  0  0  0  0  0
    8.2430  -12.7622   18.5962 C   0  0  0  0  0  0  0  0  0  0  0  0
    8.3271  -13.0459   17.2936 N   0  0  0  0  0  0  0  0  0  0  0  0
    7.7447  -14.2269   17.0426 C   0  0  0  0  0  0  0  0  0  0  0  0
    7.2871  -14.6897   18.2169 N   0  0  0  0  0  0  0  0  0  0  0  0
    7.7834  -14.9669   22.7666 C   0  0  0  0  0  0  0  0  0  0  0  0
    6.8305  -14.2494   23.1432 O   0  0  0  0  0  0  0  0  0  0  0  0
    7.1292  -16.8517   25.4454 C   0  0  0  0  0  0  0  0  0  0  0  0
    8.1141  -15.7391   25.1496 C   0  0  2  0  0  0  0  0  0  0  0  0
    8.4476  -15.7523   23.7201 N   0  0  0  0  0  0  0  0  0  0  0  0
    9.3108  -15.9321   25.9742 C   0  0  0  0  0  0  0  0  0  0  0  0
   10.1764  -16.8333   25.6826 O   0  0  0  0  0  0  0  0  0  0  0  0
    9.5323  -15.1219   27.1105 N   0  0  0  0  0  0  0  0  0  0  0  0
    8.6199  -14.0408   27.5362 C   0  0  0  0  0  0  0  0  0  0  0  0
    8.9637  -13.9305   29.0024 C   0  0  0  0  0  0  0  0  0  0  0  0
   10.4962  -13.9238   28.8871 C   0  0  0  0  0  0  0  0  0  0  0  0
   10.6477  -15.1913   28.0286 C   0  0  1  0  0  0  0  0  0  0  0  0
   10.4021  -16.3746   28.9337 C   0  0  0  0  0  0  0  0  0  0  0  0
    9.2954  -16.9254   29.0529 O   0  0  0  0  0  0  0  0  0  0  0  0
   11.4699  -16.8783   29.6756 O   0  0  0  0  0  0  0  0  0  0  0  0
  2  1  1  6
  2  9  1  0
  2  3  1  0
  3  4  1  0
  4  8  1  0
  4  5  2  0
  5  6  1  0
  7  6  1  0
  8  7  2  0
  9 13  1  0
 10  9  2  0
 12 11  1  6
 12 14  1  0
 13 12  1  0
 14 16  1  0
 15 14  2  0
 16 20  1  0
 16 17  1  0
 17 18  1  0
 19 18  1  0
 20 19  1  0
 20 21  1  1
 21 23  1  0
 22 21  2  0
M  END
$$$$
