HAP.pdb
     RDKit          3D

 23 24  0  0  1  0  0  0  0  0999 V2000
    9.2134  -16.6780   15.8727 N   0  0  0  0  0  0  0  0  0  0  0  0
    8.4630  -17.2029   16.9667 C   0  0  1  0  0  0  0  0  0  0  0  0
    8.9201  -18.5979   17.3419 C   0  0  0  0  0  0  0  0  0  0  0  0
    8.5404  -19.5823   16.3084 C   0  0  0  0  0  0  0  0  0  0  0  0
    7.2622  -20.0901   16.1322 C   0  0  0  0  0  0  0  0  0  0  0  0
    7.3235  -20.9441   15.1069 N   0  0  0  0  0  0  0  0  0  0  0  0
    8.5749  -20.9992   14.6296 C   0  0  0  0  0  0  0  0  0  0  0  0
    9.3104  -20.1593   15.3755 N   0  0  0  0  0  0  0  0  0  0  0  0
    8.5102  -16.3536   18.1891 C   0  0  0  0  0  0  0  0  0  0  0  0
    9.6307  -16.1258   18.6964 O   0  0  0  0  0  0  0  0  0  0  0  0
    6.0291  -14.5570   20.4009 C   0  0  0  0  0  0  0  0  0  0  0  0
    7.4213  -15.0453   20.0566 C   0  0  2  0  0  0  0  0  0  0  0  0
    7.3747  -15.7991   18.7978 N   0  0  0  0  0  0  0  0  0  0  0  0
    7.9174  -15.8797   21.1551 C   0  0  0  0  0  0  0  0  0  0  0  0
    7.9487  -17.1583   21.0523 O   0  0  0  0  0  0  0  0  0  0  0  0
    8.3738  -15.2847   22.3528 N   0  0  0  0  0  0  0  0  0  0  0  0
    8.5073  -13.8259   22.5436 C   0  0  0  0  0  0  0  0  0  0  0  0
    8.4359  -13.7216   24.0484 C   0  0  0  0  0  0  0  0  0  0  0  0
    9.4186  -14.8461   24.4112 C   0  0  0  0  0  0  0  0  0  0  0  0
    8.7834  -15.9616   23.5636 C   0  0  1  0  0  0  0  0  0  0  0  0
    7.5243  -16.3985   24.2732 C   0  0  0  0  0  0  0  0  0  0  0  0
    6.3914  -15.9926   23.9664 O   0  0  0  0  0  0  0  0  0  0  0  0
    7.6344  -17.3040   25.3277 O   0  0  0  0  0  0  0  0  0  0  0  0
  2  1  1  6
  2  9  1  0
  2  3  1  0
  3  4  1  0
  4  8  1  0
  4  5  2  0
  5  6  1  0
  7  6  1  0
  8  7  2  0
  9 13  1  0
 10  9  2  0
 12 11  1  1
 12 14  1  0
 13 12  1  0
 14 16  1  0
 15 14  2  0
 16 20  1  0
 16 17  1  0
 17 18  1  0
 19 18  1  0
 20 19  1  0
 20 21  1  1
 21 23  1  0
 22 21  2  0
M  END
$$$$
