HAP.pdb
     RDKit          3D

 23 24  0  0  1  0  0  0  0  0999 V2000
    7.4523  -16.4667   19.7739 N   0  0  0  0  0  0  0  0  0  0  0  0
    7.6418  -15.2424   20.4816 C   0  0  1  0  0  0  0  0  0  0  0  0
    7.0062  -14.0726   19.7583 C   0  0  0  0  0  0  0  0  0  0  0  0
    7.5936  -13.8895   18.4156 C   0  0  0  0  0  0  0  0  0  0  0  0
    8.4509  -12.8588   18.0618 C   0  0  0  0  0  0  0  0  0  0  0  0
    8.7604  -13.0380   16.7747 N   0  0  0  0  0  0  0  0  0  0  0  0
    8.1414  -14.1287   16.3014 C   0  0  0  0  0  0  0  0  0  0  0  0
    7.4295  -14.6410   17.3181 N   0  0  0  0  0  0  0  0  0  0  0  0
    7.1177  -15.2678   21.8753 C   0  0  0  0  0  0  0  0  0  0  0  0
    5.8847  -15.1313   22.0358 O   0  0  0  0  0  0  0  0  0  0  0  0
    7.0603  -16.9844   24.6752 C   0  0  0  0  0  0  0  0  0  0  0  0
    7.3912  -15.5372   24.3728 C   0  0  2  0  0  0  0  0  0  0  0  0
    7.9258  -15.4353   23.0095 N   0  0  0  0  0  0  0  0  0  0  0  0
    8.3625  -15.0556   25.3596 C   0  0  0  0  0  0  0  0  0  0  0  0
    9.5801  -15.4599   25.3408 O   0  0  0  0  0  0  0  0  0  0  0  0
    7.9708  -14.1306   26.3534 N   0  0  0  0  0  0  0  0  0  0  0  0
    6.5787  -13.6748   26.5452 C   0  0  0  0  0  0  0  0  0  0  0  0
    6.6146  -13.2290   27.9875 C   0  0  0  0  0  0  0  0  0  0  0  0
    7.9129  -12.4075   27.9498 C   0  0  0  0  0  0  0  0  0  0  0  0
    8.8219  -13.4798   27.3250 C   0  0  1  0  0  0  0  0  0  0  0  0
    9.1192  -14.4949   28.4024 C   0  0  0  0  0  0  0  0  0  0  0  0
    8.4703  -15.5434   28.5509 O   0  0  0  0  0  0  0  0  0  0  0  0
   10.1756  -14.2466   29.2779 O   0  0  0  0  0  0  0  0  0  0  0  0
  2  1  1  6
  2  9  1  0
  2  3  1  0
  3  4  1  0
  4  8  1  0
  4  5  2  0
  5  6  1  0
  7  6  1  0
  8  7  2  0
  9 13  1  0
 10  9  2  0
 12 11  1  1
 12 14  1  0
 13 12  1  0
 14 16  1  0
 15 14  2  0
 16 20  1  0
 16 17  1  0
 17 18  1  0
 19 18  1  0
 20 19  1  0
 20 21  1  1
 21 23  1  0
 22 21  2  0
M  END
$$$$
