HAP.pdb
     RDKit          3D

 23 24  0  0  1  0  0  0  0  0999 V2000
    7.6507  -16.9041   19.8754 N   0  0  0  0  0  0  0  0  0  0  0  0
    7.7576  -15.6474   20.5424 C   0  0  1  0  0  0  0  0  0  0  0  0
    7.0840  -14.5384   19.7600 C   0  0  0  0  0  0  0  0  0  0  0  0
    7.7394  -14.3304   18.4529 C   0  0  0  0  0  0  0  0  0  0  0  0
    8.6590  -13.3291   18.1803 C   0  0  0  0  0  0  0  0  0  0  0  0
    9.0176  -13.4713   16.9014 N   0  0  0  0  0  0  0  0  0  0  0  0
    8.3703  -14.5109   16.3561 C   0  0  0  0  0  0  0  0  0  0  0  0
    7.5901  -15.0283   17.3186 N   0  0  0  0  0  0  0  0  0  0  0  0
    7.1961  -15.6507   21.9217 C   0  0  0  0  0  0  0  0  0  0  0  0
    5.9906  -15.9552   22.0585 O   0  0  0  0  0  0  0  0  0  0  0  0
    7.0580  -16.9134   24.6950 C   0  0  0  0  0  0  0  0  0  0  0  0
    7.4156  -15.4648   24.4321 C   0  0  2  0  0  0  0  0  0  0  0  0
    7.9404  -15.3334   23.0674 N   0  0  0  0  0  0  0  0  0  0  0  0
    8.4051  -15.0321   25.4236 C   0  0  0  0  0  0  0  0  0  0  0  0
    9.5636  -15.5804   25.4845 O   0  0  0  0  0  0  0  0  0  0  0  0
    8.0970  -13.9959   26.3335 N   0  0  0  0  0  0  0  0  0  0  0  0
    6.7653  -13.3644   26.4356 C   0  0  0  0  0  0  0  0  0  0  0  0
    6.8085  -12.8203   27.8435 C   0  0  0  0  0  0  0  0  0  0  0  0
    8.1977  -12.1644   27.8021 C   0  0  0  0  0  0  0  0  0  0  0  0
    8.9891  -13.3808   27.2915 C   0  0  1  0  0  0  0  0  0  0  0  0
    9.1254  -14.3414   28.4484 C   0  0  0  0  0  0  0  0  0  0  0  0
    8.3487  -15.2907   28.6433 O   0  0  0  0  0  0  0  0  0  0  0  0
   10.1758  -14.1570   29.3466 O   0  0  0  0  0  0  0  0  0  0  0  0
  2  1  1  6
  2  9  1  0
  2  3  1  0
  3  4  1  0
  4  8  1  0
  4  5  2  0
  5  6  1  0
  7  6  1  0
  8  7  2  0
  9 13  1  0
 10  9  2  0
 12 11  1  1
 12 14  1  0
 13 12  1  0
 14 16  1  0
 15 14  2  0
 16 20  1  0
 16 17  1  0
 17 18  1  0
 19 18  1  0
 20 19  1  0
 20 21  1  1
 21 23  1  0
 22 21  2  0
M  END
$$$$
