HAP.pdb
     RDKit          3D

 23 24  0  0  1  0  0  0  0  0999 V2000
    6.2869  -15.9457   19.7262 N   0  0  0  0  0  0  0  0  0  0  0  0
    7.3300  -15.4924   20.5876 C   0  0  1  0  0  0  0  0  0  0  0  0
    7.8894  -14.1584   20.1366 C   0  0  0  0  0  0  0  0  0  0  0  0
    8.3573  -14.2192   18.7371 C   0  0  0  0  0  0  0  0  0  0  0  0
    8.3460  -15.3598   17.9487 C   0  0  0  0  0  0  0  0  0  0  0  0
    8.8431  -15.0120   16.7586 N   0  0  0  0  0  0  0  0  0  0  0  0
    9.1662  -13.7111   16.7586 C   0  0  0  0  0  0  0  0  0  0  0  0
    8.8631  -13.2374   17.9778 N   0  0  0  0  0  0  0  0  0  0  0  0
    6.9182  -15.3659   22.0132 C   0  0  0  0  0  0  0  0  0  0  0  0
    5.9572  -14.6099   22.2764 O   0  0  0  0  0  0  0  0  0  0  0  0
    6.8776  -17.3001   25.0439 C   0  0  0  0  0  0  0  0  0  0  0  0
    7.1245  -15.9199   24.4699 C   0  0  2  0  0  0  0  0  0  0  0  0
    7.5451  -16.0439   23.0690 N   0  0  0  0  0  0  0  0  0  0  0  0
    8.1504  -15.2478   25.2730 C   0  0  0  0  0  0  0  0  0  0  0  0
    9.3943  -15.5241   25.1224 O   0  0  0  0  0  0  0  0  0  0  0  0
    7.7831  -14.2769   26.2318 N   0  0  0  0  0  0  0  0  0  0  0  0
    6.3832  -13.9243   26.5457 C   0  0  0  0  0  0  0  0  0  0  0  0
    6.5315  -13.3549   27.9364 C   0  0  0  0  0  0  0  0  0  0  0  0
    7.7366  -12.4340   27.6886 C   0  0  0  0  0  0  0  0  0  0  0  0
    8.6690  -13.4762   27.0477 C   0  0  1  0  0  0  0  0  0  0  0  0
    9.1724  -14.3667   28.1583 C   0  0  0  0  0  0  0  0  0  0  0  0
    8.6415  -15.4479   28.4608 O   0  0  0  0  0  0  0  0  0  0  0  0
   10.2905  -13.9580   28.8844 O   0  0  0  0  0  0  0  0  0  0  0  0
  2  1  1  6
  2  9  1  0
  2  3  1  0
  3  4  1  0
  4  8  1  0
  4  5  2  0
  5  6  1  0
  7  6  1  0
  8  7  2  0
  9 13  1  0
 10  9  2  0
 12 11  1  1
 12 14  1  0
 13 12  1  0
 14 16  1  0
 15 14  2  0
 16 20  1  0
 16 17  1  0
 17 18  1  0
 19 18  1  0
 20 19  1  0
 20 21  1  1
 21 23  1  0
 22 21  2  0
M  END
$$$$
