HAP.pdb
     RDKit          3D

 23 24  0  0  1  0  0  0  0  0999 V2000
    6.0262  -15.3050   20.7444 N   0  0  0  0  0  0  0  0  0  0  0  0
    7.1588  -15.8532   21.4168 C   0  0  1  0  0  0  0  0  0  0  0  0
    8.4598  -15.3516   20.8238 C   0  0  0  0  0  0  0  0  0  0  0  0
    8.2158  -14.3465   19.7695 C   0  0  0  0  0  0  0  0  0  0  0  0
    6.9640  -13.8840   19.3929 C   0  0  0  0  0  0  0  0  0  0  0  0
    7.1587  -12.9919   18.4179 N   0  0  0  0  0  0  0  0  0  0  0  0
    8.4690  -12.8700   18.1623 C   0  0  0  0  0  0  0  0  0  0  0  0
    9.1053  -13.7062   18.9982 N   0  0  0  0  0  0  0  0  0  0  0  0
    7.1785  -15.5787   22.8804 C   0  0  0  0  0  0  0  0  0  0  0  0
    6.6390  -14.5240   23.2819 O   0  0  0  0  0  0  0  0  0  0  0  0
    6.8979  -17.2923   25.9317 C   0  0  0  0  0  0  0  0  0  0  0  0
    7.7075  -16.1938   25.2734 C   0  0  2  0  0  0  0  0  0  0  0  0
    7.7647  -16.4327   23.8261 N   0  0  0  0  0  0  0  0  0  0  0  0
    9.0507  -16.1766   25.8605 C   0  0  0  0  0  0  0  0  0  0  0  0
    9.9566  -16.9939   25.4633 O   0  0  0  0  0  0  0  0  0  0  0  0
    9.3719  -15.2519   26.8795 N   0  0  0  0  0  0  0  0  0  0  0  0
    8.4555  -14.1881   27.3389 C   0  0  0  0  0  0  0  0  0  0  0  0
    8.9913  -13.9211   28.7252 C   0  0  0  0  0  0  0  0  0  0  0  0
   10.4888  -13.8398   28.3894 C   0  0  0  0  0  0  0  0  0  0  0  0
   10.6062  -15.1721   27.6293 C   0  0  1  0  0  0  0  0  0  0  0  0
   10.5705  -16.2767   28.6580 C   0  0  0  0  0  0  0  0  0  0  0  0
    9.5350  -16.8882   28.9683 O   0  0  0  0  0  0  0  0  0  0  0  0
   11.7590  -16.6320   29.2949 O   0  0  0  0  0  0  0  0  0  0  0  0
  2  1  1  6
  2  9  1  0
  2  3  1  0
  3  4  1  0
  4  8  1  0
  4  5  2  0
  5  6  1  0
  7  6  1  0
  8  7  2  0
  9 13  1  0
 10  9  2  0
 12 11  1  1
 12 14  1  0
 13 12  1  0
 14 16  1  0
 15 14  2  0
 16 20  1  0
 16 17  1  0
 17 18  1  0
 19 18  1  0
 20 19  1  0
 20 21  1  1
 21 23  1  0
 22 21  2  0
M  END
$$$$
