HAP.pdb
     RDKit          3D

 23 24  0  0  1  0  0  0  0  0999 V2000
    7.2817  -16.5159   20.1894 N   0  0  0  0  0  0  0  0  0  0  0  0
    7.7188  -15.3635   20.9079 C   0  0  1  0  0  0  0  0  0  0  0  0
    7.1794  -14.0852   20.2990 C   0  0  0  0  0  0  0  0  0  0  0  0
    7.6324  -13.9241   18.9025 C   0  0  0  0  0  0  0  0  0  0  0  0
    8.4161  -12.8773   18.4415 C   0  0  0  0  0  0  0  0  0  0  0  0
    8.6105  -13.0854   17.1364 N   0  0  0  0  0  0  0  0  0  0  0  0
    7.9890  -14.2097   16.7534 C   0  0  0  0  0  0  0  0  0  0  0  0
    7.3934  -14.7136   17.8462 N   0  0  0  0  0  0  0  0  0  0  0  0
    7.3524  -15.3817   22.3513 C   0  0  0  0  0  0  0  0  0  0  0  0
    6.2573  -14.8746   22.6800 O   0  0  0  0  0  0  0  0  0  0  0  0
    7.2419  -17.2551   25.1786 C   0  0  0  0  0  0  0  0  0  0  0  0
    7.8109  -15.9088   24.7795 C   0  0  2  0  0  0  0  0  0  0  0  0
    8.1629  -15.9328   23.3546 N   0  0  0  0  0  0  0  0  0  0  0  0
    8.9849  -15.6241   25.6101 C   0  0  0  0  0  0  0  0  0  0  0  0
   10.0887  -16.2541   25.4331 O   0  0  0  0  0  0  0  0  0  0  0  0
    8.9197  -14.6432   26.6251 N   0  0  0  0  0  0  0  0  0  0  0  0
    7.7206  -13.8243   26.8970 C   0  0  0  0  0  0  0  0  0  0  0  0
    7.9580  -13.4291   28.3349 C   0  0  0  0  0  0  0  0  0  0  0  0
    9.4286  -12.9971   28.2227 C   0  0  0  0  0  0  0  0  0  0  0  0
    9.9699  -14.2682   27.5462 C   0  0  1  0  0  0  0  0  0  0  0  0
   10.0343  -15.3433   28.6044 C   0  0  0  0  0  0  0  0  0  0  0  0
    9.1274  -16.1704   28.7940 O   0  0  0  0  0  0  0  0  0  0  0  0
   11.1683  -15.4150   29.4125 O   0  0  0  0  0  0  0  0  0  0  0  0
  2  1  1  6
  2  9  1  0
  2  3  1  0
  3  4  1  0
  4  8  1  0
  4  5  2  0
  5  6  1  0
  7  6  1  0
  8  7  2  0
  9 13  1  0
 10  9  2  0
 12 11  1  1
 12 14  1  0
 13 12  1  0
 14 16  1  0
 15 14  2  0
 16 20  1  0
 16 17  1  0
 17 18  1  0
 19 18  1  0
 20 19  1  0
 20 21  1  1
 21 23  1  0
 22 21  2  0
M  END
$$$$
