HAP.pdb
     RDKit          3D

 23 24  0  0  1  0  0  0  0  0999 V2000
    8.0069  -17.5889   19.9852 N   0  0  0  0  0  0  0  0  0  0  0  0
    8.8435  -16.8999   20.9131 C   0  0  1  0  0  0  0  0  0  0  0  0
    9.7064  -15.8613   20.2258 C   0  0  0  0  0  0  0  0  0  0  0  0
   10.7393  -16.4960   19.3823 C   0  0  0  0  0  0  0  0  0  0  0  0
   11.9957  -16.8800   19.8258 C   0  0  0  0  0  0  0  0  0  0  0  0
   12.6306  -17.4101   18.7768 N   0  0  0  0  0  0  0  0  0  0  0  0
   11.8375  -17.3788   17.6966 C   0  0  0  0  0  0  0  0  0  0  0  0
   10.6811  -16.8159   18.0821 N   0  0  0  0  0  0  0  0  0  0  0  0
    8.0952  -16.2293   22.0123 C   0  0  0  0  0  0  0  0  0  0  0  0
    7.4603  -15.1883   21.7333 O   0  0  0  0  0  0  0  0  0  0  0  0
    6.7444  -17.0658   25.3456 C   0  0  0  0  0  0  0  0  0  0  0  0
    7.3280  -16.0258   24.4111 C   0  0  2  0  0  0  0  0  0  0  0  0
    8.0638  -16.6985   23.3337 N   0  0  0  0  0  0  0  0  0  0  0  0
    8.2068  -15.1377   25.1781 C   0  0  0  0  0  0  0  0  0  0  0  0
    9.4597  -15.3878   25.2960 O   0  0  0  0  0  0  0  0  0  0  0  0
    7.6844  -13.9829   25.8028 N   0  0  0  0  0  0  0  0  0  0  0  0
    6.2744  -13.5569   25.6892 C   0  0  0  0  0  0  0  0  0  0  0  0
    6.1257  -12.7093   26.9300 C   0  0  0  0  0  0  0  0  0  0  0  0
    7.4096  -11.8743   26.8025 C   0  0  0  0  0  0  0  0  0  0  0  0
    8.4008  -13.0382   26.6311 C   0  0  1  0  0  0  0  0  0  0  0  0
    8.5727  -13.6805   27.9867 C   0  0  0  0  0  0  0  0  0  0  0  0
    7.9106  -14.6599   28.3675 O   0  0  0  0  0  0  0  0  0  0  0  0
    9.5224  -13.1503   28.8591 O   0  0  0  0  0  0  0  0  0  0  0  0
  2  1  1  6
  2  9  1  0
  2  3  1  0
  3  4  1  0
  4  8  1  0
  4  5  2  0
  5  6  1  0
  7  6  1  0
  8  7  2  0
  9 13  1  0
 10  9  2  0
 12 11  1  1
 12 14  1  0
 13 12  1  0
 14 16  1  0
 15 14  2  0
 16 20  1  0
 16 17  1  0
 17 18  1  0
 19 18  1  0
 20 19  1  0
 20 21  1  1
 21 23  1  0
 22 21  2  0
M  END
$$$$
