HAP.pdb
     RDKit          3D

 23 24  0  0  1  0  0  0  0  0999 V2000
    7.6012  -16.6783   19.9153 N   0  0  0  0  0  0  0  0  0  0  0  0
    7.8305  -15.4856   20.6639 C   0  0  1  0  0  0  0  0  0  0  0  0
    7.2316  -14.2721   19.9823 C   0  0  0  0  0  0  0  0  0  0  0  0
    7.8533  -14.0369   18.6634 C   0  0  0  0  0  0  0  0  0  0  0  0
    8.6839  -12.9689   18.3603 C   0  0  0  0  0  0  0  0  0  0  0  0
    9.0391  -13.1066   17.0799 N   0  0  0  0  0  0  0  0  0  0  0  0
    8.4742  -14.2068   16.5628 C   0  0  0  0  0  0  0  0  0  0  0  0
    7.7499  -14.7674   17.5445 N   0  0  0  0  0  0  0  0  0  0  0  0
    7.3075  -15.5418   22.0571 C   0  0  0  0  0  0  0  0  0  0  0  0
    6.0865  -15.3315   22.2292 O   0  0  0  0  0  0  0  0  0  0  0  0
    7.1596  -17.2427   24.9096 C   0  0  0  0  0  0  0  0  0  0  0  0
    7.5851  -15.8333   24.5516 C   0  0  2  0  0  0  0  0  0  0  0  0
    8.1040  -15.8160   23.1786 N   0  0  0  0  0  0  0  0  0  0  0  0
    8.6028  -15.3870   25.5078 C   0  0  0  0  0  0  0  0  0  0  0  0
    9.7447  -15.9679   25.5775 O   0  0  0  0  0  0  0  0  0  0  0  0
    8.3409  -14.3010   26.3731 N   0  0  0  0  0  0  0  0  0  0  0  0
    7.0972  -13.5047   26.3351 C   0  0  0  0  0  0  0  0  0  0  0  0
    7.0700  -12.9404   27.7354 C   0  0  0  0  0  0  0  0  0  0  0  0
    8.5288  -12.4660   27.8287 C   0  0  0  0  0  0  0  0  0  0  0  0
    9.2050  -13.7830   27.4109 C   0  0  1  0  0  0  0  0  0  0  0  0
    9.1026  -14.7283   28.5839 C   0  0  0  0  0  0  0  0  0  0  0  0
    8.1846  -15.5540   28.7176 O   0  0  0  0  0  0  0  0  0  0  0  0
   10.0869  -14.6748   29.5700 O   0  0  0  0  0  0  0  0  0  0  0  0
  2  1  1  6
  2  9  1  0
  2  3  1  0
  3  4  1  0
  4  8  1  0
  4  5  2  0
  5  6  1  0
  7  6  1  0
  8  7  2  0
  9 13  1  0
 10  9  2  0
 12 11  1  1
 12 14  1  0
 13 12  1  0
 14 16  1  0
 15 14  2  0
 16 20  1  0
 16 17  1  0
 17 18  1  0
 19 18  1  0
 20 19  1  0
 20 21  1  1
 21 23  1  0
 22 21  2  0
M  END
$$$$
