HAP.pdb
     RDKit          3D

 23 24  0  0  1  0  0  0  0  0999 V2000
   11.0117  -16.6118   20.3121 N   0  0  0  0  0  0  0  0  0  0  0  0
   10.9461  -17.2784   21.5718 C   0  0  1  0  0  0  0  0  0  0  0  0
   12.3154  -17.7264   22.0409 C   0  0  0  0  0  0  0  0  0  0  0  0
   12.7423  -18.9590   21.3483 C   0  0  0  0  0  0  0  0  0  0  0  0
   11.9876  -19.6360   20.4025 C   0  0  0  0  0  0  0  0  0  0  0  0
   12.7099  -20.6904   20.0141 N   0  0  0  0  0  0  0  0  0  0  0  0
   13.8802  -20.7108   20.6674 C   0  0  0  0  0  0  0  0  0  0  0  0
   13.8868  -19.6435   21.4821 N   0  0  0  0  0  0  0  0  0  0  0  0
   10.3291  -16.4600   22.6523 C   0  0  0  0  0  0  0  0  0  0  0  0
   10.7150  -15.2769   22.7784 O   0  0  0  0  0  0  0  0  0  0  0  0
    7.5274  -16.8241   25.1431 C   0  0  0  0  0  0  0  0  0  0  0  0
    8.7682  -16.1354   24.6126 C   0  0  2  0  0  0  0  0  0  0  0  0
    9.3458  -16.9405   23.5296 N   0  0  0  0  0  0  0  0  0  0  0  0
    9.7230  -15.9639   25.7118 C   0  0  0  0  0  0  0  0  0  0  0  0
   10.6723  -16.8063   25.9007 O   0  0  0  0  0  0  0  0  0  0  0  0
    9.6133  -14.8592   26.5860 N   0  0  0  0  0  0  0  0  0  0  0  0
    8.5842  -13.8078   26.4524 C   0  0  0  0  0  0  0  0  0  0  0  0
    8.5314  -13.2713   27.8629 C   0  0  0  0  0  0  0  0  0  0  0  0
   10.0401  -13.1314   28.1203 C   0  0  0  0  0  0  0  0  0  0  0  0
   10.4539  -14.5591   27.7242 C   0  0  1  0  0  0  0  0  0  0  0  0
   10.0237  -15.4750   28.8449 C   0  0  0  0  0  0  0  0  0  0  0  0
    8.9706  -16.1329   28.8234 O   0  0  0  0  0  0  0  0  0  0  0  0
   10.8481  -15.5911   29.9634 O   0  0  0  0  0  0  0  0  0  0  0  0
  2  1  1  6
  2  9  1  0
  2  3  1  0
  3  4  1  0
  4  8  1  0
  4  5  2  0
  5  6  1  0
  7  6  1  0
  8  7  2  0
  9 13  1  0
 10  9  2  0
 12 11  1  1
 12 14  1  0
 13 12  1  0
 14 16  1  0
 15 14  2  0
 16 20  1  0
 16 17  1  0
 17 18  1  0
 19 18  1  0
 20 19  1  0
 20 21  1  1
 21 23  1  0
 22 21  2  0
M  END
$$$$
