HAP.pdb
     RDKit          3D

 23 24  0  0  1  0  0  0  0  0999 V2000
    9.3582  -16.3168   19.5277 N   0  0  0  0  0  0  0  0  0  0  0  0
    9.6073  -16.7848   20.8522 C   0  0  1  0  0  0  0  0  0  0  0  0
   11.0847  -16.7589   21.1874 C   0  0  0  0  0  0  0  0  0  0  0  0
   11.8372  -17.7304   20.3680 C   0  0  0  0  0  0  0  0  0  0  0  0
   11.8188  -19.1041   20.5552 C   0  0  0  0  0  0  0  0  0  0  0  0
   12.6183  -19.6319   19.6242 N   0  0  0  0  0  0  0  0  0  0  0  0
   13.1383  -18.6600   18.8613 C   0  0  0  0  0  0  0  0  0  0  0  0
   12.6510  -17.4994   19.3284 N   0  0  0  0  0  0  0  0  0  0  0  0
    8.8784  -16.0236   21.9045 C   0  0  0  0  0  0  0  0  0  0  0  0
    9.0339  -14.7830   21.9382 O   0  0  0  0  0  0  0  0  0  0  0  0
    6.2899  -16.7860   24.5430 C   0  0  0  0  0  0  0  0  0  0  0  0
    7.2313  -15.8500   23.8127 C   0  0  2  0  0  0  0  0  0  0  0  0
    8.0331  -16.6183   22.8527 N   0  0  0  0  0  0  0  0  0  0  0  0
    8.0850  -15.1739   24.7941 C   0  0  0  0  0  0  0  0  0  0  0  0
    9.2730  -15.5933   25.0374 O   0  0  0  0  0  0  0  0  0  0  0  0
    7.6104  -14.0403   25.4916 N   0  0  0  0  0  0  0  0  0  0  0  0
    6.3050  -13.4019   25.2253 C   0  0  0  0  0  0  0  0  0  0  0  0
    6.0512  -12.7000   26.5379 C   0  0  0  0  0  0  0  0  0  0  0  0
    7.4315  -12.0526   26.7318 C   0  0  0  0  0  0  0  0  0  0  0  0
    8.2851  -13.3191   26.5483 C   0  0  1  0  0  0  0  0  0  0  0  0
    8.1398  -14.1407   27.8066 C   0  0  0  0  0  0  0  0  0  0  0  0
    8.7871  -13.9221   28.8438 O   0  0  0  0  0  0  0  0  0  0  0  0
    7.2335  -15.2003   27.8090 O   0  0  0  0  0  0  0  0  0  0  0  0
  2  1  1  6
  2  9  1  0
  2  3  1  0
  3  4  1  0
  4  8  1  0
  4  5  2  0
  5  6  1  0
  7  6  1  0
  8  7  2  0
  9 13  1  0
 10  9  2  0
 12 11  1  1
 12 14  1  0
 13 12  1  0
 14 16  1  0
 15 14  2  0
 16 20  1  0
 16 17  1  0
 17 18  1  0
 19 18  1  0
 20 19  1  0
 20 21  1  1
 21 23  1  0
 22 21  2  0
M  END
$$$$
