HAP.pdb
     RDKit          3D

 23 24  0  0  1  0  0  0  0  0999 V2000
    8.8268  -16.8856   19.6666 N   0  0  0  0  0  0  0  0  0  0  0  0
    9.3446  -17.0285   20.9883 C   0  0  1  0  0  0  0  0  0  0  0  0
   10.8108  -16.6530   21.0596 C   0  0  0  0  0  0  0  0  0  0  0  0
   11.6599  -17.6877   20.4353 C   0  0  0  0  0  0  0  0  0  0  0  0
   11.3432  -19.0360   20.3694 C   0  0  0  0  0  0  0  0  0  0  0  0
   12.3523  -19.6396   19.7354 N   0  0  0  0  0  0  0  0  0  0  0  0
   13.2871  -18.7396   19.3996 C   0  0  0  0  0  0  0  0  0  0  0  0
   12.8497  -17.5471   19.8347 N   0  0  0  0  0  0  0  0  0  0  0  0
    8.6102  -16.2316   22.0098 C   0  0  0  0  0  0  0  0  0  0  0  0
    8.4214  -15.0175   21.7752 O   0  0  0  0  0  0  0  0  0  0  0  0
    6.5991  -16.9118   25.1044 C   0  0  0  0  0  0  0  0  0  0  0  0
    7.3743  -15.9767   24.1989 C   0  0  2  0  0  0  0  0  0  0  0  0
    8.1223  -16.7648   23.2118 N   0  0  0  0  0  0  0  0  0  0  0  0
    8.2759  -15.1610   25.0181 C   0  0  0  0  0  0  0  0  0  0  0  0
    9.5162  -15.4663   25.1404 O   0  0  0  0  0  0  0  0  0  0  0  0
    7.7902  -14.0165   25.6895 N   0  0  0  0  0  0  0  0  0  0  0  0
    6.3994  -13.5306   25.5792 C   0  0  0  0  0  0  0  0  0  0  0  0
    6.2668  -12.7357   26.8562 C   0  0  0  0  0  0  0  0  0  0  0  0
    7.5837  -11.9469   26.7827 C   0  0  0  0  0  0  0  0  0  0  0  0
    8.5313  -13.1397   26.5692 C   0  0  1  0  0  0  0  0  0  0  0  0
    8.6597  -13.8499   27.8955 C   0  0  0  0  0  0  0  0  0  0  0  0
    7.9719  -14.8342   28.2127 O   0  0  0  0  0  0  0  0  0  0  0  0
    9.5973  -13.3800   28.8143 O   0  0  0  0  0  0  0  0  0  0  0  0
  2  1  1  6
  2  9  1  0
  2  3  1  0
  3  4  1  0
  4  8  1  0
  4  5  2  0
  5  6  1  0
  7  6  1  0
  8  7  2  0
  9 13  1  0
 10  9  2  0
 12 11  1  1
 12 14  1  0
 13 12  1  0
 14 16  1  0
 15 14  2  0
 16 20  1  0
 16 17  1  0
 17 18  1  0
 19 18  1  0
 20 19  1  0
 20 21  1  1
 21 23  1  0
 22 21  2  0
M  END
$$$$
