HAP.pdb
     RDKit          3D

 23 24  0  0  1  0  0  0  0  0999 V2000
    7.8960  -16.6691   19.8494 N   0  0  0  0  0  0  0  0  0  0  0  0
    8.7649  -16.0801   20.8157 C   0  0  1  0  0  0  0  0  0  0  0  0
    9.5084  -14.8880   20.2483 C   0  0  0  0  0  0  0  0  0  0  0  0
    8.7451  -14.2507   19.1562 C   0  0  0  0  0  0  0  0  0  0  0  0
    9.3053  -13.7297   17.9998 C   0  0  0  0  0  0  0  0  0  0  0  0
    8.2989  -13.2462   17.2665 N   0  0  0  0  0  0  0  0  0  0  0  0
    7.1346  -13.4366   17.9030 C   0  0  0  0  0  0  0  0  0  0  0  0
    7.4230  -14.0534   19.0602 N   0  0  0  0  0  0  0  0  0  0  0  0
    8.0718  -15.6464   22.0604 C   0  0  0  0  0  0  0  0  0  0  0  0
    7.3970  -14.5943   22.0142 O   0  0  0  0  0  0  0  0  0  0  0  0
    6.7375  -17.0377   25.1433 C   0  0  0  0  0  0  0  0  0  0  0  0
    7.4888  -15.8859   24.5073 C   0  0  2  0  0  0  0  0  0  0  0  0
    8.1342  -16.3489   23.2728 N   0  0  0  0  0  0  0  0  0  0  0  0
    8.4775  -15.3781   25.4632 C   0  0  0  0  0  0  0  0  0  0  0  0
    9.6686  -15.8539   25.4982 O   0  0  0  0  0  0  0  0  0  0  0  0
    8.1324  -14.3479   26.3667 N   0  0  0  0  0  0  0  0  0  0  0  0
    6.7953  -13.7223   26.4239 C   0  0  0  0  0  0  0  0  0  0  0  0
    6.7854  -13.1855   27.8353 C   0  0  0  0  0  0  0  0  0  0  0  0
    8.1725  -12.5238   27.8474 C   0  0  0  0  0  0  0  0  0  0  0  0
    8.9868  -13.7343   27.3595 C   0  0  1  0  0  0  0  0  0  0  0  0
    9.0853  -14.7004   28.5156 C   0  0  0  0  0  0  0  0  0  0  0  0
    8.2923  -15.6402   28.6901 O   0  0  0  0  0  0  0  0  0  0  0  0
   10.1181  -14.5327   29.4372 O   0  0  0  0  0  0  0  0  0  0  0  0
  2  1  1  6
  2  9  1  0
  2  3  1  0
  3  4  1  0
  4  8  1  0
  4  5  2  0
  5  6  1  0
  7  6  1  0
  8  7  2  0
  9 13  1  0
 10  9  2  0
 12 11  1  1
 12 14  1  0
 13 12  1  0
 14 16  1  0
 15 14  2  0
 16 20  1  0
 16 17  1  0
 17 18  1  0
 19 18  1  0
 20 19  1  0
 20 21  1  1
 21 23  1  0
 22 21  2  0
M  END
$$$$
