HAP.pdb
     RDKit          3D

 23 24  0  0  1  0  0  0  0  0999 V2000
    6.7588  -16.2002   19.5793 N   0  0  0  0  0  0  0  0  0  0  0  0
    7.6033  -15.4937   20.4867 C   0  0  1  0  0  0  0  0  0  0  0  0
    7.8702  -14.0780   20.0175 C   0  0  0  0  0  0  0  0  0  0  0  0
    8.4809  -14.0653   18.6728 C   0  0  0  0  0  0  0  0  0  0  0  0
    7.9831  -13.3639   17.5853 C   0  0  0  0  0  0  0  0  0  0  0  0
    8.8063  -13.6038   16.5609 N   0  0  0  0  0  0  0  0  0  0  0  0
    9.7961  -14.4202   16.9490 C   0  0  0  0  0  0  0  0  0  0  0  0
    9.5842  -14.6952   18.2460 N   0  0  0  0  0  0  0  0  0  0  0  0
    7.0710  -15.4306   21.8762 C   0  0  0  0  0  0  0  0  0  0  0  0
    5.9228  -14.9616   22.0387 O   0  0  0  0  0  0  0  0  0  0  0  0
    6.9434  -17.0642   24.9492 C   0  0  0  0  0  0  0  0  0  0  0  0
    7.2916  -15.7046   24.3783 C   0  0  2  0  0  0  0  0  0  0  0  0
    7.7822  -15.8655   23.0042 N   0  0  0  0  0  0  0  0  0  0  0  0
    8.3044  -15.0762   25.2318 C   0  0  0  0  0  0  0  0  0  0  0  0
    9.5319  -15.4469   25.1841 O   0  0  0  0  0  0  0  0  0  0  0  0
    7.9426  -14.0436   26.1260 N   0  0  0  0  0  0  0  0  0  0  0  0
    6.5651  -13.5291   26.2690 C   0  0  0  0  0  0  0  0  0  0  0  0
    6.6173  -12.9402   27.6585 C   0  0  0  0  0  0  0  0  0  0  0  0
    7.9395  -12.1660   27.5388 C   0  0  0  0  0  0  0  0  0  0  0  0
    8.8147  -13.3231   27.0272 C   0  0  1  0  0  0  0  0  0  0  0  0
    9.0837  -14.2318   28.2026 C   0  0  0  0  0  0  0  0  0  0  0  0
    8.4012  -15.2372   28.4591 O   0  0  0  0  0  0  0  0  0  0  0  0
   10.1523  -13.9306   29.0461 O   0  0  0  0  0  0  0  0  0  0  0  0
  2  1  1  6
  2  9  1  0
  2  3  1  0
  3  4  1  0
  4  8  1  0
  4  5  2  0
  5  6  1  0
  7  6  1  0
  8  7  2  0
  9 13  1  0
 10  9  2  0
 12 11  1  1
 12 14  1  0
 13 12  1  0
 14 16  1  0
 15 14  2  0
 16 20  1  0
 16 17  1  0
 17 18  1  0
 19 18  1  0
 20 19  1  0
 20 21  1  1
 21 23  1  0
 22 21  2  0
M  END
$$$$
