HAP.pdb
     RDKit          3D

 23 24  0  0  1  0  0  0  0  0999 V2000
    9.4250  -15.2536   19.2568 N   0  0  0  0  0  0  0  0  0  0  0  0
    9.9783  -15.2969   20.5711 C   0  0  1  0  0  0  0  0  0  0  0  0
   11.1462  -14.3432   20.7194 C   0  0  0  0  0  0  0  0  0  0  0  0
   12.3080  -14.7910   19.9250 C   0  0  0  0  0  0  0  0  0  0  0  0
   12.5584  -16.1059   19.5631 C   0  0  0  0  0  0  0  0  0  0  0  0
   13.6922  -16.1032   18.8567 N   0  0  0  0  0  0  0  0  0  0  0  0
   14.1673  -14.8538   18.7562 C   0  0  0  0  0  0  0  0  0  0  0  0
   13.3088  -14.0595   19.4156 N   0  0  0  0  0  0  0  0  0  0  0  0
    8.9933  -14.9967   21.6470 C   0  0  0  0  0  0  0  0  0  0  0  0
    8.4419  -13.8740   21.6343 O   0  0  0  0  0  0  0  0  0  0  0  0
    7.1852  -16.8112   24.3798 C   0  0  0  0  0  0  0  0  0  0  0  0
    7.7830  -15.5476   23.7956 C   0  0  2  0  0  0  0  0  0  0  0  0
    8.6527  -15.8982   22.6662 N   0  0  0  0  0  0  0  0  0  0  0  0
    8.5325  -14.8480   24.8435 C   0  0  0  0  0  0  0  0  0  0  0  0
    9.7736  -15.1003   25.0495 O   0  0  0  0  0  0  0  0  0  0  0  0
    7.8957  -13.8766   25.6482 N   0  0  0  0  0  0  0  0  0  0  0  0
    6.5126  -13.4074   25.4259 C   0  0  0  0  0  0  0  0  0  0  0  0
    6.1545  -12.8954   26.8006 C   0  0  0  0  0  0  0  0  0  0  0  0
    7.4256  -12.0811   27.0892 C   0  0  0  0  0  0  0  0  0  0  0  0
    8.4546  -13.1844   26.7886 C   0  0  1  0  0  0  0  0  0  0  0  0
    8.4250  -14.1496   27.9494 C   0  0  0  0  0  0  0  0  0  0  0  0
    9.0680  -13.9771   28.9978 O   0  0  0  0  0  0  0  0  0  0  0  0
    7.6366  -15.2947   27.8431 O   0  0  0  0  0  0  0  0  0  0  0  0
  2  1  1  6
  2  9  1  0
  2  3  1  0
  3  4  1  0
  4  8  1  0
  4  5  2  0
  5  6  1  0
  7  6  1  0
  8  7  2  0
  9 13  1  0
 10  9  2  0
 12 11  1  1
 12 14  1  0
 13 12  1  0
 14 16  1  0
 15 14  2  0
 16 20  1  0
 16 17  1  0
 17 18  1  0
 19 18  1  0
 20 19  1  0
 20 21  1  1
 21 23  1  0
 22 21  2  0
M  END
$$$$
