HAP.pdb
     RDKit          3D

 23 24  0  0  1  0  0  0  0  0999 V2000
    8.7989  -15.7209   20.2204 N   0  0  0  0  0  0  0  0  0  0  0  0
    8.1244  -14.5150   20.5757 C   0  0  1  0  0  0  0  0  0  0  0  0
    6.9924  -14.2028   19.6182 C   0  0  0  0  0  0  0  0  0  0  0  0
    7.4768  -14.1170   18.2255 C   0  0  0  0  0  0  0  0  0  0  0  0
    8.4516  -13.2370   17.7806 C   0  0  0  0  0  0  0  0  0  0  0  0
    8.6101  -13.4642   16.4738 N   0  0  0  0  0  0  0  0  0  0  0  0
    7.7847  -14.4421   16.0746 C   0  0  0  0  0  0  0  0  0  0  0  0
    7.0958  -14.8332   17.1587 N   0  0  0  0  0  0  0  0  0  0  0  0
    7.5746  -14.5204   21.9597 C   0  0  0  0  0  0  0  0  0  0  0  0
    7.0633  -13.4618   22.3869 O   0  0  0  0  0  0  0  0  0  0  0  0
    6.9113  -17.0228   24.6853 C   0  0  0  0  0  0  0  0  0  0  0  0
    7.1486  -15.6071   24.2008 C   0  0  2  0  0  0  0  0  0  0  0  0
    7.5988  -15.6402   22.8040 N   0  0  0  0  0  0  0  0  0  0  0  0
    8.1481  -14.9707   25.0641 C   0  0  0  0  0  0  0  0  0  0  0  0
    9.3885  -15.2894   24.9858 O   0  0  0  0  0  0  0  0  0  0  0  0
    7.7586  -13.9880   26.0018 N   0  0  0  0  0  0  0  0  0  0  0  0
    6.3660  -13.5256   26.1733 C   0  0  0  0  0  0  0  0  0  0  0  0
    6.4083  -12.9925   27.5854 C   0  0  0  0  0  0  0  0  0  0  0  0
    7.7035  -12.1708   27.4904 C   0  0  0  0  0  0  0  0  0  0  0  0
    8.6127  -13.2764   26.9271 C   0  0  1  0  0  0  0  0  0  0  0  0
    8.9193  -14.2230   28.0627 C   0  0  0  0  0  0  0  0  0  0  0  0
    9.8040  -14.0116   28.9084 O   0  0  0  0  0  0  0  0  0  0  0  0
    8.1734  -15.3960   28.1716 O   0  0  0  0  0  0  0  0  0  0  0  0
  2  1  1  6
  2  9  1  0
  2  3  1  0
  3  4  1  0
  4  8  1  0
  4  5  2  0
  5  6  1  0
  7  6  1  0
  8  7  2  0
  9 13  1  0
 10  9  2  0
 12 11  1  1
 12 14  1  0
 13 12  1  0
 14 16  1  0
 15 14  2  0
 16 20  1  0
 16 17  1  0
 17 18  1  0
 19 18  1  0
 20 19  1  0
 20 21  1  1
 21 23  1  0
 22 21  2  0
M  END
$$$$
