QHT.pdb
     RDKit          3D

 27 27  0  0  1  0  0  0  0  0999 V2000
   28.5790  -24.6192  -18.0469 N   0  0  0  0  0  0  0  0  0  0  0  0
   28.3194  -23.8807  -16.8336 C   0  0  0  0  0  0  0  0  0  0  0  0
   27.3916  -24.3094  -16.1203 O   0  0  0  0  0  0  0  0  0  0  0  0
   29.1719  -22.7220  -16.5834 C   0  0  0  0  0  0  0  0  0  0  0  0
   28.3996  -21.5994  -15.9847 C   0  0  0  0  0  0  0  0  0  0  0  0
   27.7323  -20.8055  -17.0825 C   0  0  2  0  0  0  0  0  0  0  0  0
   28.7091  -19.8177  -17.5173 N   0  0  0  0  0  0  0  0  0  0  0  0
   26.5555  -20.1447  -16.4447 C   0  0  0  0  0  0  0  0  0  0  0  0
   26.8034  -19.1736  -15.6722 O   0  0  0  0  0  0  0  0  0  0  0  0
   25.2310  -20.5763  -16.6869 N   0  0  0  0  0  0  0  0  0  0  0  0
   24.1580  -19.8623  -15.9680 C   0  0  1  0  0  0  0  0  0  0  0  0
   23.2305  -19.3355  -17.0038 C   0  0  0  0  0  0  0  0  0  0  0  0
   23.6525  -18.0322  -17.5359 C   0  0  0  0  0  0  0  0  0  0  0  0
   24.7631  -17.3161  -17.0552 C   0  0  0  0  0  0  0  0  0  0  0  0
   24.8979  -16.1621  -17.7367 N   0  0  0  0  0  0  0  0  0  0  0  0
   23.9056  -16.1330  -18.6298 C   0  0  0  0  0  0  0  0  0  0  0  0
   23.1747  -17.2446  -18.5023 N   0  0  0  0  0  0  0  0  0  0  0  0
   23.5627  -20.7817  -14.9737 C   0  0  0  0  0  0  0  0  0  0  0  0
   23.4341  -21.9857  -15.2195 O   0  0  0  0  0  0  0  0  0  0  0  0
   24.6891  -21.1764  -11.5164 C   0  0  0  0  0  0  0  0  0  0  0  0
   23.2136  -20.8687  -11.3665 C   0  0  1  0  0  0  0  0  0  0  0  0
   23.0084  -19.5465  -11.0268 O   0  0  0  0  0  0  0  0  0  0  0  0
   22.5588  -21.2226  -12.7074 C   0  0  2  0  0  0  0  0  0  0  0  0
   23.1068  -20.3340  -13.6840 N   0  0  0  0  0  0  0  0  0  0  0  0
   21.0837  -21.1339  -12.6197 C   0  0  0  0  0  0  0  0  0  0  0  0
   20.3985  -22.0700  -11.8821 O   0  0  0  0  0  0  0  0  0  0  0  0
   20.4692  -20.2140  -13.2127 O   0  0  0  0  0  0  0  0  0  0  0  0
  2  1  1  0
  3  2  2  0
  4  2  1  0
  5  4  1  0
  6  5  1  0
  6  7  1  1
  8  6  1  0
  8  9  2  0
 10 11  1  0
 10  8  1  0
 11 12  1  6
 12 13  1  0
 13 14  2  0
 13 17  1  0
 14 15  1  0
 15 16  1  0
 17 16  2  0
 18 11  1  0
 19 18  2  0
 21 20  1  6
 22 21  1  0
 23 21  1  0
 23 24  1  6
 24 18  1  0
 25 26  1  0
 25 23  1  0
 27 25  2  0
M  END
$$$$
