QHT.pdb
     RDKit          3D

 27 27  0  0  1  0  0  0  0  0999 V2000
   22.2424  -18.6638  -14.5816 N   0  0  0  0  0  0  0  0  0  0  0  0
   23.1546  -18.9750  -15.6567 C   0  0  0  0  0  0  0  0  0  0  0  0
   23.5025  -20.1681  -15.7507 O   0  0  0  0  0  0  0  0  0  0  0  0
   23.5612  -17.8598  -16.5070 C   0  0  0  0  0  0  0  0  0  0  0  0
   22.9846  -16.5741  -16.0282 C   0  0  0  0  0  0  0  0  0  0  0  0
   23.4895  -15.4430  -16.8922 C   0  0  2  0  0  0  0  0  0  0  0  0
   24.9249  -15.3687  -16.6617 N   0  0  0  0  0  0  0  0  0  0  0  0
   22.8059  -14.2148  -16.3896 C   0  0  0  0  0  0  0  0  0  0  0  0
   21.5536  -14.1556  -16.5608 O   0  0  0  0  0  0  0  0  0  0  0  0
   23.5148  -13.1690  -15.7547 N   0  0  0  0  0  0  0  0  0  0  0  0
   22.7442  -11.9586  -15.4093 C   0  0  1  0  0  0  0  0  0  0  0  0
   23.1767  -11.5548  -14.0453 C   0  0  0  0  0  0  0  0  0  0  0  0
   22.5509  -10.3030  -13.5968 C   0  0  0  0  0  0  0  0  0  0  0  0
   21.5451   -9.6328  -14.3156 C   0  0  0  0  0  0  0  0  0  0  0  0
   21.1708   -8.5196  -13.6560 N   0  0  0  0  0  0  0  0  0  0  0  0
   21.9113   -8.4717  -12.5458 C   0  0  0  0  0  0  0  0  0  0  0  0
   22.7245   -9.5320  -12.5209 N   0  0  0  0  0  0  0  0  0  0  0  0
   22.9422  -10.9524  -16.4754 C   0  0  0  0  0  0  0  0  0  0  0  0
   24.0050  -10.8927  -17.1026 O   0  0  0  0  0  0  0  0  0  0  0  0
   21.1059   -8.1678  -19.9295 C   0  0  0  0  0  0  0  0  0  0  0  0
   20.9799   -9.2681  -18.8963 C   0  0  1  0  0  0  0  0  0  0  0  0
   21.0623  -10.5166  -19.4796 O   0  0  0  0  0  0  0  0  0  0  0  0
   22.1038   -9.0376  -17.8785 C   0  0  2  0  0  0  0  0  0  0  0  0
   21.9249  -10.0008  -16.8375 N   0  0  0  0  0  0  0  0  0  0  0  0
   22.0897   -7.6453  -17.3757 C   0  0  0  0  0  0  0  0  0  0  0  0
   23.0575   -6.7681  -17.8041 O   0  0  0  0  0  0  0  0  0  0  0  0
   21.2036   -7.2736  -16.5682 O   0  0  0  0  0  0  0  0  0  0  0  0
  2  1  1  0
  3  2  2  0
  4  2  1  0
  5  4  1  0
  6  5  1  0
  6  7  1  1
  8  6  1  0
  8  9  2  0
 10 11  1  0
 10  8  1  0
 11 12  1  1
 12 13  1  0
 13 14  2  0
 13 17  1  0
 14 15  1  0
 15 16  1  0
 17 16  2  0
 18 11  1  0
 19 18  2  0
 21 20  1  6
 22 21  1  0
 23 21  1  0
 23 24  1  1
 24 18  1  0
 25 26  1  0
 25 23  1  0
 27 25  2  0
M  END
$$$$
