QHT.pdb
     RDKit          3D

 27 27  0  0  1  0  0  0  0  0999 V2000
   22.2060  -14.5991  -18.7830 N   0  0  0  0  0  0  0  0  0  0  0  0
   20.8504  -14.2949  -19.1759 C   0  0  0  0  0  0  0  0  0  0  0  0
   20.0206  -15.2141  -19.0346 O   0  0  0  0  0  0  0  0  0  0  0  0
   20.6093  -12.9498  -19.6902 C   0  0  0  0  0  0  0  0  0  0  0  0
   20.5806  -11.9460  -18.5919 C   0  0  0  0  0  0  0  0  0  0  0  0
   20.3103  -10.5765  -19.1682 C   0  0  2  0  0  0  0  0  0  0  0  0
   21.3924  -10.3122  -20.1054 N   0  0  0  0  0  0  0  0  0  0  0  0
   20.3658   -9.6338  -18.0122 C   0  0  0  0  0  0  0  0  0  0  0  0
   19.4653   -9.7649  -17.1330 O   0  0  0  0  0  0  0  0  0  0  0  0
   21.3694   -8.6440  -17.8996 N   0  0  0  0  0  0  0  0  0  0  0  0
   21.3016   -7.7609  -16.7190 C   0  0  1  0  0  0  0  0  0  0  0  0
   22.6778   -7.6925  -16.1605 C   0  0  0  0  0  0  0  0  0  0  0  0
   23.0437   -8.8951  -15.3991 C   0  0  0  0  0  0  0  0  0  0  0  0
   22.1947  -10.0045  -15.2382 C   0  0  0  0  0  0  0  0  0  0  0  0
   22.8042  -10.9475  -14.4941 N   0  0  0  0  0  0  0  0  0  0  0  0
   24.0093  -10.4630  -14.1838 C   0  0  0  0  0  0  0  0  0  0  0  0
   24.1404   -9.2479  -14.7245 N   0  0  0  0  0  0  0  0  0  0  0  0
   20.7042   -6.4709  -17.1278 C   0  0  0  0  0  0  0  0  0  0  0  0
   21.2229   -5.7833  -18.0137 O   0  0  0  0  0  0  0  0  0  0  0  0
   16.8530   -5.5568  -15.9572 C   0  0  0  0  0  0  0  0  0  0  0  0
   17.4518   -4.9580  -17.2130 C   0  0  1  0  0  0  0  0  0  0  0  0
   16.7918   -3.8033  -17.5826 O   0  0  0  0  0  0  0  0  0  0  0  0
   18.9315   -4.6971  -16.9056 C   0  0  2  0  0  0  0  0  0  0  0  0
   19.5040   -5.9511  -16.5270 N   0  0  0  0  0  0  0  0  0  0  0  0
   19.0835   -3.6615  -15.8587 C   0  0  0  0  0  0  0  0  0  0  0  0
   19.5718   -4.0218  -14.6253 O   0  0  0  0  0  0  0  0  0  0  0  0
   18.7694   -2.4700  -16.0977 O   0  0  0  0  0  0  0  0  0  0  0  0
  2  1  1  0
  3  2  2  0
  4  2  1  0
  5  4  1  0
  6  5  1  0
  6  7  1  6
  8  6  1  0
  8  9  2  0
 10 11  1  0
 10  8  1  0
 11 12  1  6
 12 13  1  0
 13 14  2  0
 13 17  1  0
 14 15  1  0
 15 16  1  0
 17 16  2  0
 18 11  1  0
 19 18  2  0
 21 20  1  1
 22 21  1  0
 23 21  1  0
 23 24  1  1
 24 18  1  0
 25 26  1  0
 25 23  1  0
 27 25  2  0
M  END
$$$$
