QHT.pdb
     RDKit          3D

 27 27  0  0  1  0  0  0  0  0999 V2000
   30.0942  -21.7653  -12.3477 N   0  0  0  0  0  0  0  0  0  0  0  0
   30.0429  -21.4450  -10.9407 C   0  0  0  0  0  0  0  0  0  0  0  0
   31.0119  -21.8282  -10.2569 O   0  0  0  0  0  0  0  0  0  0  0  0
   28.8664  -20.7107  -10.4841 C   0  0  0  0  0  0  0  0  0  0  0  0
   27.9635  -20.3731  -11.6180 C   0  0  0  0  0  0  0  0  0  0  0  0
   26.5330  -20.3546  -11.1344 C   0  0  2  0  0  0  0  0  0  0  0  0
   26.3627  -21.5566  -10.3312 N   0  0  0  0  0  0  0  0  0  0  0  0
   25.6900  -20.4134  -12.3649 C   0  0  0  0  0  0  0  0  0  0  0  0
   25.9608  -19.5774  -13.2753 O   0  0  0  0  0  0  0  0  0  0  0  0
   24.6424  -21.3517  -12.5118 N   0  0  0  0  0  0  0  0  0  0  0  0
   23.9778  -21.4043  -13.8285 C   0  0  1  0  0  0  0  0  0  0  0  0
   23.7707  -22.8428  -14.1423 C   0  0  0  0  0  0  0  0  0  0  0  0
   24.8656  -23.4154  -14.9380 C   0  0  0  0  0  0  0  0  0  0  0  0
   25.9178  -22.6546  -15.4778 C   0  0  0  0  0  0  0  0  0  0  0  0
   26.7649  -23.4539  -16.1544 N   0  0  0  0  0  0  0  0  0  0  0  0
   26.2757  -24.6925  -16.0552 C   0  0  0  0  0  0  0  0  0  0  0  0
   25.1515  -24.6581  -15.3332 N   0  0  0  0  0  0  0  0  0  0  0  0
   22.7566  -20.5712  -13.7748 C   0  0  0  0  0  0  0  0  0  0  0  0
   22.1302  -20.4302  -12.7192 O   0  0  0  0  0  0  0  0  0  0  0  0
   22.1923  -17.0984  -15.5812 C   0  0  0  0  0  0  0  0  0  0  0  0
   21.1258  -18.0829  -16.0142 C   0  0  1  0  0  0  0  0  0  0  0  0
   21.4357  -18.6558  -17.2313 O   0  0  0  0  0  0  0  0  0  0  0  0
   21.0247  -19.1306  -14.8987 C   0  0  2  0  0  0  0  0  0  0  0  0
   22.2365  -19.8883  -14.9300 N   0  0  0  0  0  0  0  0  0  0  0  0
   19.8201  -19.9742  -15.0678 C   0  0  0  0  0  0  0  0  0  0  0  0
   18.5845  -19.4432  -14.7832 O   0  0  0  0  0  0  0  0  0  0  0  0
   19.9291  -21.1594  -15.4665 O   0  0  0  0  0  0  0  0  0  0  0  0
  2  1  1  0
  3  2  2  0
  4  2  1  0
  5  4  1  0
  6  5  1  0
  6  7  1  1
  8  6  1  0
  8  9  2  0
 10 11  1  0
 10  8  1  0
 11 12  1  1
 12 13  1  0
 13 14  2  0
 13 17  1  0
 14 15  1  0
 15 16  1  0
 17 16  2  0
 18 11  1  0
 19 18  2  0
 21 20  1  1
 22 21  1  0
 23 21  1  0
 23 24  1  6
 24 18  1  0
 25 26  1  0
 25 23  1  0
 27 25  2  0
M  END
$$$$
