QHT.pdb
     RDKit          3D

 27 27  0  0  1  0  0  0  0  0999 V2000
   15.7719  -15.7453  -14.2337 N   0  0  0  0  0  0  0  0  0  0  0  0
   15.7915  -16.7962  -15.2237 C   0  0  0  0  0  0  0  0  0  0  0  0
   14.8368  -17.5966  -15.1907 O   0  0  0  0  0  0  0  0  0  0  0  0
   16.9232  -16.7983  -16.1464 C   0  0  0  0  0  0  0  0  0  0  0  0
   17.8279  -15.6430  -15.8982 C   0  0  0  0  0  0  0  0  0  0  0  0
   18.9062  -15.6116  -16.9551 C   0  0  2  0  0  0  0  0  0  0  0  0
   19.9584  -16.5009  -16.4848 N   0  0  0  0  0  0  0  0  0  0  0  0
   19.3853  -14.1987  -17.0013 C   0  0  0  0  0  0  0  0  0  0  0  0
   20.0431  -13.7925  -15.9995 O   0  0  0  0  0  0  0  0  0  0  0  0
   19.1213  -13.3532  -18.1035 N   0  0  0  0  0  0  0  0  0  0  0  0
   19.8162  -12.0513  -18.1233 C   0  0  1  0  0  0  0  0  0  0  0  0
   20.5139  -11.9623  -19.4332 C   0  0  0  0  0  0  0  0  0  0  0  0
   21.8189  -12.6379  -19.4303 C   0  0  0  0  0  0  0  0  0  0  0  0
   22.3788  -13.2479  -18.2936 C   0  0  0  0  0  0  0  0  0  0  0  0
   23.5771  -13.7814  -18.5997 N   0  0  0  0  0  0  0  0  0  0  0  0
   23.7855  -13.5244  -19.8934 C   0  0  0  0  0  0  0  0  0  0  0  0
   22.7387  -12.8473  -20.3750 N   0  0  0  0  0  0  0  0  0  0  0  0
   18.8301  -10.9853  -17.8413 C   0  0  0  0  0  0  0  0  0  0  0  0
   17.7886  -10.8936  -18.4997 O   0  0  0  0  0  0  0  0  0  0  0  0
   16.8215  -10.5219  -15.0911 C   0  0  0  0  0  0  0  0  0  0  0  0
   17.5836   -9.2130  -15.0809 C   0  0  1  0  0  0  0  0  0  0  0  0
   18.6312   -9.2489  -14.1825 O   0  0  0  0  0  0  0  0  0  0  0  0
   18.0701   -8.9836  -16.5171 C   0  0  2  0  0  0  0  0  0  0  0  0
   19.0240  -10.0098  -16.8010 N   0  0  0  0  0  0  0  0  0  0  0  0
   18.6310   -7.6232  -16.6786 C   0  0  0  0  0  0  0  0  0  0  0  0
   17.7936   -6.5371  -16.5837 O   0  0  0  0  0  0  0  0  0  0  0  0
   19.8567   -7.4667  -16.8995 O   0  0  0  0  0  0  0  0  0  0  0  0
  2  1  1  0
  3  2  2  0
  4  2  1  0
  5  4  1  0
  6  5  1  0
  6  7  1  1
  8  6  1  0
  8  9  2  0
 10 11  1  0
 10  8  1  0
 11 12  1  6
 12 13  1  0
 13 14  2  0
 13 17  1  0
 14 15  1  0
 15 16  1  0
 17 16  2  0
 18 11  1  0
 19 18  2  0
 21 20  1  6
 22 21  1  0
 23 21  1  0
 23 24  1  1
 24 18  1  0
 25 26  1  0
 25 23  1  0
 27 25  2  0
M  END
$$$$
