QHT.pdb
     RDKit          3D

 27 27  0  0  1  0  0  0  0  0999 V2000
   17.5596   -9.7679  -20.4987 N   0  0  0  0  0  0  0  0  0  0  0  0
   17.2846  -11.1620  -20.2424 C   0  0  0  0  0  0  0  0  0  0  0  0
   16.8301  -11.8151  -21.2016 O   0  0  0  0  0  0  0  0  0  0  0  0
   17.5713  -11.6435  -18.8941 C   0  0  0  0  0  0  0  0  0  0  0  0
   18.1121  -10.5565  -18.0333 C   0  0  0  0  0  0  0  0  0  0  0  0
   19.4120  -11.0071  -17.4103 C   0  0  2  0  0  0  0  0  0  0  0  0
   19.0506  -11.9371  -16.3503 N   0  0  0  0  0  0  0  0  0  0  0  0
   20.0378   -9.7749  -16.8461 C   0  0  0  0  0  0  0  0  0  0  0  0
   19.6178   -9.3960  -15.7142 O   0  0  0  0  0  0  0  0  0  0  0  0
   21.0473   -9.0640  -17.5352 N   0  0  0  0  0  0  0  0  0  0  0  0
   21.5567   -7.8393  -16.8881 C   0  0  1  0  0  0  0  0  0  0  0  0
   22.9658   -8.1170  -16.5034 C   0  0  0  0  0  0  0  0  0  0  0  0
   23.0774   -9.1226  -15.4376 C   0  0  0  0  0  0  0  0  0  0  0  0
   23.6248  -10.4037  -15.6284 C   0  0  0  0  0  0  0  0  0  0  0  0
   23.5915  -11.0961  -14.4734 N   0  0  0  0  0  0  0  0  0  0  0  0
   23.0400  -10.2880  -13.5646 C   0  0  0  0  0  0  0  0  0  0  0  0
   22.7396   -9.1227  -14.1460 N   0  0  0  0  0  0  0  0  0  0  0  0
   21.3493   -6.6985  -17.8068 C   0  0  0  0  0  0  0  0  0  0  0  0
   21.3799   -6.8562  -19.0318 O   0  0  0  0  0  0  0  0  0  0  0  0
   18.4517   -4.9203  -17.8677 C   0  0  0  0  0  0  0  0  0  0  0  0
   19.4901   -4.6672  -18.9409 C   0  0  1  0  0  0  0  0  0  0  0  0
   19.0781   -3.6823  -19.8160 O   0  0  0  0  0  0  0  0  0  0  0  0
   20.7819   -4.2793  -18.2110 C   0  0  2  0  0  0  0  0  0  0  0  0
   21.1041   -5.3613  -17.3341 N   0  0  0  0  0  0  0  0  0  0  0  0
   20.6236   -2.9931  -17.4953 C   0  0  0  0  0  0  0  0  0  0  0  0
   20.7729   -1.8165  -18.1902 O   0  0  0  0  0  0  0  0  0  0  0  0
   20.3564   -2.9806  -16.2690 O   0  0  0  0  0  0  0  0  0  0  0  0
  2  1  1  0
  3  2  2  0
  4  2  1  0
  5  4  1  0
  6  5  1  0
  6  7  1  1
  8  6  1  0
  8  9  2  0
 10 11  1  0
 10  8  1  0
 11 12  1  6
 12 13  1  0
 13 14  2  0
 13 17  1  0
 14 15  1  0
 15 16  1  0
 17 16  2  0
 18 11  1  0
 19 18  2  0
 21 20  1  1
 22 21  1  0
 23 21  1  0
 23 24  1  1
 24 18  1  0
 25 26  1  0
 25 23  1  0
 27 25  2  0
M  END
$$$$
