QHT.pdb
     RDKit          3D

 27 27  0  0  1  0  0  0  0  0999 V2000
   14.2239   -9.7810  -20.1311 N   0  0  0  0  0  0  0  0  0  0  0  0
   15.2904  -10.6035  -19.6107 C   0  0  0  0  0  0  0  0  0  0  0  0
   15.9791  -11.2060  -20.4569 O   0  0  0  0  0  0  0  0  0  0  0  0
   15.4387  -10.6328  -18.1585 C   0  0  0  0  0  0  0  0  0  0  0  0
   16.6947   -9.9607  -17.7276 C   0  0  0  0  0  0  0  0  0  0  0  0
   17.8524  -10.9206  -17.8657 C   0  0  2  0  0  0  0  0  0  0  0  0
   17.3434  -12.2262  -17.4715 N   0  0  0  0  0  0  0  0  0  0  0  0
   18.8903  -10.4423  -16.9054 C   0  0  0  0  0  0  0  0  0  0  0  0
   19.2372  -11.2538  -15.9986 O   0  0  0  0  0  0  0  0  0  0  0  0
   19.4598   -9.1515  -16.9986 N   0  0  0  0  0  0  0  0  0  0  0  0
   20.6197   -8.8731  -16.1295 C   0  0  1  0  0  0  0  0  0  0  0  0
   21.6804   -9.8415  -16.5138 C   0  0  0  0  0  0  0  0  0  0  0  0
   22.9631   -9.5749  -15.8480 C   0  0  0  0  0  0  0  0  0  0  0  0
   24.1254   -9.1699  -16.5280 C   0  0  0  0  0  0  0  0  0  0  0  0
   25.1368   -9.0041  -15.6540 N   0  0  0  0  0  0  0  0  0  0  0  0
   24.6439   -9.2928  -14.4470 C   0  0  0  0  0  0  0  0  0  0  0  0
   23.3567   -9.6293  -14.5734 N   0  0  0  0  0  0  0  0  0  0  0  0
   20.9727   -7.4422  -16.2570 C   0  0  0  0  0  0  0  0  0  0  0  0
   21.2496   -6.9521  -17.3569 O   0  0  0  0  0  0  0  0  0  0  0  0
   19.1811   -4.5890  -15.9452 C   0  0  0  0  0  0  0  0  0  0  0  0
   20.2221   -4.3214  -14.8780 C   0  0  1  0  0  0  0  0  0  0  0  0
   19.7336   -4.6036  -13.6181 O   0  0  0  0  0  0  0  0  0  0  0  0
   21.4355   -5.1914  -15.2285 C   0  0  2  0  0  0  0  0  0  0  0  0
   21.0133   -6.5532  -15.1258 N   0  0  0  0  0  0  0  0  0  0  0  0
   22.5846   -4.8826  -14.3477 C   0  0  0  0  0  0  0  0  0  0  0  0
   23.2578   -3.6959  -14.5152 O   0  0  0  0  0  0  0  0  0  0  0  0
   22.9372   -5.6966  -13.4597 O   0  0  0  0  0  0  0  0  0  0  0  0
  2  1  1  0
  3  2  2  0
  4  2  1  0
  5  4  1  0
  6  5  1  0
  6  7  1  1
  8  6  1  0
  8  9  2  0
 10 11  1  0
 10  8  1  0
 11 12  1  6
 12 13  1  0
 13 14  2  0
 13 17  1  0
 14 15  1  0
 15 16  1  0
 17 16  2  0
 18 11  1  0
 19 18  2  0
 21 20  1  6
 22 21  1  0
 23 21  1  0
 23 24  1  1
 24 18  1  0
 25 26  1  0
 25 23  1  0
 27 25  2  0
M  END
$$$$
