QHT.pdb
     RDKit          3D

 27 27  0  0  1  0  0  0  0  0999 V2000
   27.9290  -27.7727  -16.1187 N   0  0  0  0  0  0  0  0  0  0  0  0
   27.5883  -26.8237  -17.1522 C   0  0  0  0  0  0  0  0  0  0  0  0
   26.9055  -27.2654  -18.0968 O   0  0  0  0  0  0  0  0  0  0  0  0
   28.0804  -25.4610  -16.9708 C   0  0  0  0  0  0  0  0  0  0  0  0
   27.1062  -24.6286  -16.2139 C   0  0  0  0  0  0  0  0  0  0  0  0
   25.8321  -24.4924  -17.0134 C   0  0  2  0  0  0  0  0  0  0  0  0
   26.2034  -23.8285  -18.2545 N   0  0  0  0  0  0  0  0  0  0  0  0
   24.9328  -23.6263  -16.1953 C   0  0  0  0  0  0  0  0  0  0  0  0
   24.6809  -24.0241  -15.0209 O   0  0  0  0  0  0  0  0  0  0  0  0
   24.3878  -22.4233  -16.7004 N   0  0  0  0  0  0  0  0  0  0  0  0
   23.6405  -21.5808  -15.7465 C   0  0  1  0  0  0  0  0  0  0  0  0
   23.9242  -20.1685  -16.1145 C   0  0  0  0  0  0  0  0  0  0  0  0
   25.3078  -19.7703  -15.8196 C   0  0  0  0  0  0  0  0  0  0  0  0
   26.2554  -20.6236  -15.2270 C   0  0  0  0  0  0  0  0  0  0  0  0
   27.4296  -19.9794  -15.0830 N   0  0  0  0  0  0  0  0  0  0  0  0
   27.2468  -18.7485  -15.5672 C   0  0  0  0  0  0  0  0  0  0  0  0
   25.9875  -18.6356  -16.0005 N   0  0  0  0  0  0  0  0  0  0  0  0
   22.2174  -21.9837  -15.7748 C   0  0  0  0  0  0  0  0  0  0  0  0
   21.6059  -22.0796  -16.8441 O   0  0  0  0  0  0  0  0  0  0  0  0
   20.8363  -24.9854  -14.2112 C   0  0  0  0  0  0  0  0  0  0  0  0
   19.9780  -23.8767  -13.6383 C   0  0  1  0  0  0  0  0  0  0  0  0
   20.3738  -23.5462  -12.3577 O   0  0  0  0  0  0  0  0  0  0  0  0
   20.1053  -22.6890  -14.6002 C   0  0  2  0  0  0  0  0  0  0  0  0
   21.4755  -22.2822  -14.5781 N   0  0  0  0  0  0  0  0  0  0  0  0
   19.1799  -21.5967  -14.2233 C   0  0  0  0  0  0  0  0  0  0  0  0
   17.8247  -21.7966  -14.3382 O   0  0  0  0  0  0  0  0  0  0  0  0
   19.6305  -20.5027  -13.8043 O   0  0  0  0  0  0  0  0  0  0  0  0
  2  1  1  0
  3  2  2  0
  4  2  1  0
  5  4  1  0
  6  5  1  0
  6  7  1  6
  8  6  1  0
  8  9  2  0
 10 11  1  0
 10  8  1  0
 11 12  1  6
 12 13  1  0
 13 14  2  0
 13 17  1  0
 14 15  1  0
 15 16  1  0
 17 16  2  0
 18 11  1  0
 19 18  2  0
 21 20  1  6
 22 21  1  0
 23 21  1  0
 23 24  1  1
 24 18  1  0
 25 26  1  0
 25 23  1  0
 27 25  2  0
M  END
$$$$
