GYK.pdb
     RDKit          3D

 26 26  0  0  1  0  0  0  0  0999 V2000
   21.9775  -21.1598   -6.8270 N   0  0  0  0  0  0  0  0  0  0  0  0
   23.1650  -21.9252   -7.1139 C   0  0  0  0  0  0  0  0  0  0  0  0
   24.0951  -21.0883   -7.9145 C   0  0  0  0  0  0  0  0  0  0  0  0
   23.7513  -19.9181   -8.2556 O   0  0  0  0  0  0  0  0  0  0  0  0
   28.3776  -18.3370   -3.4723 O   0  0  0  0  0  0  0  0  0  0  0  0
   28.2073  -18.9393   -4.7348 C   0  0  0  0  0  0  0  0  0  0  0  0
   28.5288  -18.2466   -5.8709 C   0  0  0  0  0  0  0  0  0  0  0  0
   28.3581  -18.8478   -7.1196 C   0  0  0  0  0  0  0  0  0  0  0  0
   27.8726  -20.1251   -7.2347 C   0  0  0  0  0  0  0  0  0  0  0  0
   27.6875  -20.7775   -8.5204 C   0  0  0  0  0  0  0  0  0  0  0  0
   26.2946  -20.6894   -9.0978 C   0  0  2  0  0  0  0  0  0  0  0  0
   25.3653  -21.5154   -8.3318 N   0  0  0  0  0  0  0  0  0  0  0  0
   26.2103  -21.0826  -10.5218 C   0  0  0  0  0  0  0  0  0  0  0  0
   26.1647  -22.3095  -10.8477 O   0  0  0  0  0  0  0  0  0  0  0  0
   27.5616  -20.7866   -6.0701 C   0  0  0  0  0  0  0  0  0  0  0  0
   27.7212  -20.2158   -4.8348 C   0  0  0  0  0  0  0  0  0  0  0  0
   26.1705  -20.1634  -11.6071 N   0  0  0  0  0  0  0  0  0  0  0  0
   26.0315  -20.6305  -12.9999 C   0  0  1  0  0  0  0  0  0  0  0  0
   25.3323  -19.5498  -13.8108 C   0  0  0  0  0  0  0  0  0  0  0  0
   23.8983  -19.8717  -14.1251 C   0  0  0  0  0  0  0  0  0  0  0  0
   23.2512  -18.7674  -14.9430 C   0  0  0  0  0  0  0  0  0  0  0  0
   21.8338  -19.1068  -15.3071 C   0  0  0  0  0  0  0  0  0  0  0  0
   21.1706  -18.0475  -16.0106 N   0  0  0  0  0  0  0  0  0  0  0  0
   27.3254  -21.0364  -13.5556 C   0  0  0  0  0  0  0  0  0  0  0  0
   28.5328  -20.4851  -13.1649 O   0  0  0  0  0  0  0  0  0  0  0  0
   27.3848  -21.9293  -14.4382 O   0  0  0  0  0  0  0  0  0  0  0  0
  1  2  1  0
  2  3  1  0
  3 12  1  0
  3  4  2  0
  6 16  2  0
  6  5  1  0
  7  6  1  0
  8  9  1  0
  8  7  2  0
  9 15  2  0
 10  9  1  0
 11 10  1  1
 11 13  1  0
 12 11  1  0
 13 14  2  0
 13 17  1  0
 15 16  1  0
 17 18  1  0
 18 24  1  0
 18 19  1  6
 20 19  1  0
 21 20  1  0
 22 21  1  0
 23 22  1  0
 24 25  1  0
 26 24  2  0
M  END
$$$$
