GYK.pdb
     RDKit          3D

 26 26  0  0  1  0  0  0  0  0999 V2000
   28.6937  -23.0369  -17.3970 N   0  0  0  0  0  0  0  0  0  0  0  0
   28.3849  -21.7144  -16.9131 C   0  0  0  0  0  0  0  0  0  0  0  0
   27.7577  -21.8272  -15.5714 C   0  0  0  0  0  0  0  0  0  0  0  0
   27.0112  -22.8159  -15.3084 O   0  0  0  0  0  0  0  0  0  0  0  0
   25.9605  -20.2097   -6.9802 O   0  0  0  0  0  0  0  0  0  0  0  0
   26.4933  -20.1989   -8.2846 C   0  0  0  0  0  0  0  0  0  0  0  0
   27.5588  -21.0009   -8.5938 C   0  0  0  0  0  0  0  0  0  0  0  0
   28.0832  -20.9866   -9.8878 C   0  0  0  0  0  0  0  0  0  0  0  0
   27.5516  -20.1822  -10.8629 C   0  0  0  0  0  0  0  0  0  0  0  0
   28.0743  -20.1487  -12.2189 C   0  0  0  0  0  0  0  0  0  0  0  0
   27.3254  -20.9921  -13.2234 C   0  0  2  0  0  0  0  0  0  0  0  0
   27.9393  -20.8879  -14.5445 N   0  0  0  0  0  0  0  0  0  0  0  0
   25.8908  -20.6494  -13.3426 C   0  0  0  0  0  0  0  0  0  0  0  0
   25.5180  -19.6995  -14.0990 O   0  0  0  0  0  0  0  0  0  0  0  0
   26.4824  -19.3919  -10.5120 C   0  0  0  0  0  0  0  0  0  0  0  0
   25.9524  -19.3903   -9.2485 C   0  0  0  0  0  0  0  0  0  0  0  0
   24.8446  -21.3249  -12.6544 N   0  0  0  0  0  0  0  0  0  0  0  0
   23.4303  -20.9623  -12.8679 C   0  0  1  0  0  0  0  0  0  0  0  0
   22.7761  -22.0311  -13.7305 C   0  0  0  0  0  0  0  0  0  0  0  0
   21.3244  -21.7649  -14.0140 C   0  0  0  0  0  0  0  0  0  0  0  0
   20.7200  -22.8609  -14.8745 C   0  0  0  0  0  0  0  0  0  0  0  0
   19.2954  -22.5548  -15.2402 C   0  0  0  0  0  0  0  0  0  0  0  0
   18.6796  -23.6005  -16.0044 N   0  0  0  0  0  0  0  0  0  0  0  0
   22.7424  -20.7339  -11.5943 C   0  0  0  0  0  0  0  0  0  0  0  0
   21.6688  -19.8733  -11.4481 O   0  0  0  0  0  0  0  0  0  0  0  0
   23.1180  -21.3315  -10.5543 O   0  0  0  0  0  0  0  0  0  0  0  0
  1  2  1  0
  2  3  1  0
  3 12  1  0
  3  4  2  0
  6 16  2  0
  6  5  1  0
  7  6  1  0
  8  9  1  0
  8  7  2  0
  9 15  2  0
 10  9  1  0
 11 10  1  1
 11 13  1  0
 12 11  1  0
 13 14  2  0
 13 17  1  0
 15 16  1  0
 17 18  1  0
 18 24  1  0
 18 19  1  1
 20 19  1  0
 21 20  1  0
 22 21  1  0
 23 22  1  0
 24 25  1  0
 26 24  2  0
M  END
$$$$
