GYK.pdb
     RDKit          3D

 26 26  0  0  1  0  0  0  0  0999 V2000
   34.1533  -29.9135  -18.2552 N   0  0  0  0  0  0  0  0  0  0  0  0
   32.7642  -29.7768  -18.6160 C   0  0  0  0  0  0  0  0  0  0  0  0
   31.9540  -30.6832  -17.7626 C   0  0  0  0  0  0  0  0  0  0  0  0
   32.5326  -31.4729  -16.9592 O   0  0  0  0  0  0  0  0  0  0  0  0
   24.9713  -33.9311  -13.2960 O   0  0  0  0  0  0  0  0  0  0  0  0
   25.8672  -33.1581  -14.0612 C   0  0  0  0  0  0  0  0  0  0  0  0
   25.4897  -32.6946  -15.2927 C   0  0  0  0  0  0  0  0  0  0  0  0
   26.3811  -31.9291  -16.0471 C   0  0  0  0  0  0  0  0  0  0  0  0
   27.6347  -31.6286  -15.5793 C   0  0  0  0  0  0  0  0  0  0  0  0
   28.5823  -30.8315  -16.3406 C   0  0  0  0  0  0  0  0  0  0  0  0
   29.7474  -31.5935  -16.9263 C   0  0  2  0  0  0  0  0  0  0  0  0
   30.5513  -30.7275  -17.7845 N   0  0  0  0  0  0  0  0  0  0  0  0
   29.3517  -32.7895  -17.7027 C   0  0  0  0  0  0  0  0  0  0  0  0
   28.8931  -32.6676  -18.8809 O   0  0  0  0  0  0  0  0  0  0  0  0
   27.9752  -32.1128  -14.3382 C   0  0  0  0  0  0  0  0  0  0  0  0
   27.1163  -32.8658  -13.5814 C   0  0  0  0  0  0  0  0  0  0  0  0
   29.4480  -34.1255  -17.2229 N   0  0  0  0  0  0  0  0  0  0  0  0
   28.9919  -35.2661  -18.0406 C   0  0  1  0  0  0  0  0  0  0  0  0
   29.8191  -36.4901  -17.6772 C   0  0  0  0  0  0  0  0  0  0  0  0
   29.4747  -37.7070  -18.4891 C   0  0  0  0  0  0  0  0  0  0  0  0
   30.3534  -38.8878  -18.1139 C   0  0  0  0  0  0  0  0  0  0  0  0
   30.1693  -40.0379  -19.0627 C   0  0  0  0  0  0  0  0  0  0  0  0
   31.0289  -41.1471  -18.7667 N   0  0  0  0  0  0  0  0  0  0  0  0
   27.5474  -35.4727  -17.9053 C   0  0  0  0  0  0  0  0  0  0  0  0
   26.8186  -35.0785  -16.7972 O   0  0  0  0  0  0  0  0  0  0  0  0
   26.8985  -36.0363  -18.8223 O   0  0  0  0  0  0  0  0  0  0  0  0
  1  2  1  0
  2  3  1  0
  3 12  1  0
  3  4  2  0
  6 16  2  0
  6  5  1  0
  7  6  1  0
  8  9  1  0
  8  7  2  0
  9 15  2  0
 10  9  1  0
 11 10  1  6
 11 13  1  0
 12 11  1  0
 13 14  2  0
 13 17  1  0
 15 16  1  0
 17 18  1  0
 18 24  1  0
 18 19  1  1
 20 19  1  0
 21 20  1  0
 22 21  1  0
 23 22  1  0
 24 25  1  0
 26 24  2  0
M  END
$$$$
