GYK.pdb
     RDKit          3D

 26 26  0  0  1  0  0  0  0  0999 V2000
   28.3280  -11.6036  -16.4714 N   0  0  0  0  0  0  0  0  0  0  0  0
   27.0677  -11.5149  -15.7770 C   0  0  0  0  0  0  0  0  0  0  0  0
   26.1033  -10.7672  -16.6239 C   0  0  0  0  0  0  0  0  0  0  0  0
   26.4557  -10.3661  -17.7723 O   0  0  0  0  0  0  0  0  0  0  0  0
   23.8970  -14.7396  -21.1713 O   0  0  0  0  0  0  0  0  0  0  0  0
   23.5937  -13.7198  -20.2473 C   0  0  0  0  0  0  0  0  0  0  0  0
   23.3505  -12.4474  -20.6898 C   0  0  0  0  0  0  0  0  0  0  0  0
   23.0504  -11.4404  -19.7702 C   0  0  0  0  0  0  0  0  0  0  0  0
   22.9931  -11.6986  -18.4246 C   0  0  0  0  0  0  0  0  0  0  0  0
   22.6801  -10.6716  -17.4448 C   0  0  0  0  0  0  0  0  0  0  0  0
   23.8260   -9.7615  -17.0707 C   0  0  2  0  0  0  0  0  0  0  0  0
   24.7906  -10.4651  -16.2297 N   0  0  0  0  0  0  0  0  0  0  0  0
   23.4065   -8.5257  -16.3732 C   0  0  0  0  0  0  0  0  0  0  0  0
   23.3098   -8.5042  -15.1069 O   0  0  0  0  0  0  0  0  0  0  0  0
   23.2436  -12.9890  -18.0211 C   0  0  0  0  0  0  0  0  0  0  0  0
   23.5400  -13.9921  -18.9061 C   0  0  0  0  0  0  0  0  0  0  0  0
   23.0911   -7.3024  -17.0279 N   0  0  0  0  0  0  0  0  0  0  0  0
   22.6981   -6.1044  -16.2613 C   0  0  1  0  0  0  0  0  0  0  0  0
   22.7299   -4.8984  -17.1882 C   0  0  0  0  0  0  0  0  0  0  0  0
   22.4336   -3.6004  -16.4910 C   0  0  0  0  0  0  0  0  0  0  0  0
   22.4784   -2.4310  -17.4593 C   0  0  0  0  0  0  0  0  0  0  0  0
   22.0617   -1.1484  -16.7972 C   0  0  0  0  0  0  0  0  0  0  0  0
   22.0520   -0.0336  -17.6994 N   0  0  0  0  0  0  0  0  0  0  0  0
   21.4069   -6.2993  -15.5962 C   0  0  0  0  0  0  0  0  0  0  0  0
   21.1564   -5.9267  -14.2874 O   0  0  0  0  0  0  0  0  0  0  0  0
   20.4497   -6.8317  -16.2126 O   0  0  0  0  0  0  0  0  0  0  0  0
  1  2  1  0
  2  3  1  0
  3 12  1  0
  3  4  2  0
  6 16  2  0
  6  5  1  0
  7  6  1  0
  8  9  1  0
  8  7  2  0
  9 15  2  0
 10  9  1  0
 11 10  1  1
 11 13  1  0
 12 11  1  0
 13 14  2  0
 13 17  1  0
 15 16  1  0
 17 18  1  0
 18 24  1  0
 18 19  1  6
 20 19  1  0
 21 20  1  0
 22 21  1  0
 23 22  1  0
 24 25  1  0
 26 24  2  0
M  END
$$$$
