GYK.pdb
     RDKit          3D

 26 26  0  0  1  0  0  0  0  0999 V2000
   23.8276  -25.6155  -14.2347 N   0  0  0  0  0  0  0  0  0  0  0  0
   24.5281  -24.5144  -14.8472 C   0  0  0  0  0  0  0  0  0  0  0  0
   23.8821  -23.2428  -14.4325 C   0  0  0  0  0  0  0  0  0  0  0  0
   22.8210  -23.2737  -13.7420 O   0  0  0  0  0  0  0  0  0  0  0  0
   25.5195  -21.0484   -8.1668 O   0  0  0  0  0  0  0  0  0  0  0  0
   25.3153  -20.7435   -9.5273 C   0  0  0  0  0  0  0  0  0  0  0  0
   24.1711  -20.1023   -9.9193 C   0  0  0  0  0  0  0  0  0  0  0  0
   23.9735  -19.8025  -11.2686 C   0  0  0  0  0  0  0  0  0  0  0  0
   24.9058  -20.1378  -12.2168 C   0  0  0  0  0  0  0  0  0  0  0  0
   24.7287  -19.8356  -13.6276 C   0  0  0  0  0  0  0  0  0  0  0  0
   23.7470  -20.7181  -14.3614 C   0  0  2  0  0  0  0  0  0  0  0  0
   24.3793  -21.9722  -14.7616 N   0  0  0  0  0  0  0  0  0  0  0  0
   23.1538  -20.0863  -15.5609 C   0  0  0  0  0  0  0  0  0  0  0  0
   23.8133  -20.0200  -16.6445 O   0  0  0  0  0  0  0  0  0  0  0  0
   26.0409  -20.7807  -11.7823 C   0  0  0  0  0  0  0  0  0  0  0  0
   26.2550  -21.0845  -10.4635 C   0  0  0  0  0  0  0  0  0  0  0  0
   21.8477  -19.5239  -15.6087 N   0  0  0  0  0  0  0  0  0  0  0  0
   21.2858  -19.0020  -16.8694 C   0  0  1  0  0  0  0  0  0  0  0  0
   19.9011  -19.5987  -17.0718 C   0  0  0  0  0  0  0  0  0  0  0  0
   19.2521  -19.1798  -18.3610 C   0  0  0  0  0  0  0  0  0  0  0  0
   17.8940  -19.8375  -18.5346 C   0  0  0  0  0  0  0  0  0  0  0  0
   17.2250  -19.3980  -19.8059 C   0  0  0  0  0  0  0  0  0  0  0  0
   16.0291  -20.1368  -20.0900 N   0  0  0  0  0  0  0  0  0  0  0  0
   21.3024  -17.5368  -16.8918 C   0  0  0  0  0  0  0  0  0  0  0  0
   21.6009  -16.7922  -18.0192 O   0  0  0  0  0  0  0  0  0  0  0  0
   21.0383  -16.8833  -15.8512 O   0  0  0  0  0  0  0  0  0  0  0  0
  1  2  1  0
  2  3  1  0
  3 12  1  0
  3  4  2  0
  6 16  2  0
  6  5  1  0
  7  6  1  0
  8  9  1  0
  8  7  2  0
  9 15  2  0
 10  9  1  0
 11 10  1  6
 11 13  1  0
 12 11  1  0
 13 14  2  0
 13 17  1  0
 15 16  1  0
 17 18  1  0
 18 24  1  0
 18 19  1  1
 20 19  1  0
 21 20  1  0
 22 21  1  0
 23 22  1  0
 24 25  1  0
 26 24  2  0
M  END
$$$$
