GYK.pdb
     RDKit          3D

 26 26  0  0  1  0  0  0  0  0999 V2000
   25.3594  -17.9792  -18.2638 N   0  0  0  0  0  0  0  0  0  0  0  0
   24.4212  -17.7559  -17.1922 C   0  0  0  0  0  0  0  0  0  0  0  0
   24.0165  -19.0680  -16.6257 C   0  0  0  0  0  0  0  0  0  0  0  0
   23.6911  -20.0137  -17.4025 O   0  0  0  0  0  0  0  0  0  0  0  0
   29.1891  -22.9810  -16.9897 O   0  0  0  0  0  0  0  0  0  0  0  0
   28.1014  -22.5289  -16.2163 C   0  0  0  0  0  0  0  0  0  0  0  0
   28.1331  -21.2795  -15.6578 C   0  0  0  0  0  0  0  0  0  0  0  0
   27.0527  -20.8361  -14.8923 C   0  0  0  0  0  0  0  0  0  0  0  0
   25.9530  -21.6289  -14.6859 C   0  0  0  0  0  0  0  0  0  0  0  0
   24.8128  -21.1930  -13.8967 C   0  0  0  0  0  0  0  0  0  0  0  0
   23.6461  -20.6504  -14.6877 C   0  0  2  0  0  0  0  0  0  0  0  0
   23.9678  -19.3416  -15.2500 N   0  0  0  0  0  0  0  0  0  0  0  0
   22.3952  -20.5324  -13.9059 C   0  0  0  0  0  0  0  0  0  0  0  0
   22.3182  -19.7146  -12.9371 O   0  0  0  0  0  0  0  0  0  0  0  0
   25.9603  -22.8766  -15.2638 C   0  0  0  0  0  0  0  0  0  0  0  0
   27.0095  -23.3316  -16.0183 C   0  0  0  0  0  0  0  0  0  0  0  0
   21.2164  -21.2877  -14.1593 N   0  0  0  0  0  0  0  0  0  0  0  0
   19.9976  -21.0972  -13.3495 C   0  0  1  0  0  0  0  0  0  0  0  0
   18.7922  -21.0758  -14.2773 C   0  0  0  0  0  0  0  0  0  0  0  0
   18.5560  -19.7379  -14.9200 C   0  0  0  0  0  0  0  0  0  0  0  0
   17.3038  -19.7518  -15.7797 C   0  0  0  0  0  0  0  0  0  0  0  0
   17.1040  -18.4418  -16.4872 C   0  0  0  0  0  0  0  0  0  0  0  0
   16.0175  -18.4742  -17.4228 N   0  0  0  0  0  0  0  0  0  0  0  0
   19.9030  -22.1027  -12.2876 C   0  0  0  0  0  0  0  0  0  0  0  0
   20.5678  -23.3157  -12.3211 O   0  0  0  0  0  0  0  0  0  0  0  0
   19.1885  -21.8912  -11.2755 O   0  0  0  0  0  0  0  0  0  0  0  0
  1  2  1  0
  2  3  1  0
  3 12  1  0
  3  4  2  0
  6 16  2  0
  6  5  1  0
  7  6  1  0
  8  9  1  0
  8  7  2  0
  9 15  2  0
 10  9  1  0
 11 10  1  1
 11 13  1  0
 12 11  1  0
 13 14  2  0
 13 17  1  0
 15 16  1  0
 17 18  1  0
 18 24  1  0
 18 19  1  6
 20 19  1  0
 21 20  1  0
 22 21  1  0
 23 22  1  0
 24 25  1  0
 26 24  2  0
M  END
$$$$
