GYK.pdb
     RDKit          3D

 26 26  0  0  1  0  0  0  0  0999 V2000
   28.5254  -20.9062  -18.3474 N   0  0  0  0  0  0  0  0  0  0  0  0
   28.5871  -20.0302  -17.2039 C   0  0  0  0  0  0  0  0  0  0  0  0
   27.7781  -20.6163  -16.1047 C   0  0  0  0  0  0  0  0  0  0  0  0
   26.9003  -21.4903  -16.3683 O   0  0  0  0  0  0  0  0  0  0  0  0
   24.1262  -20.8939   -7.9348 O   0  0  0  0  0  0  0  0  0  0  0  0
   25.0041  -20.7947   -9.0326 C   0  0  0  0  0  0  0  0  0  0  0  0
   25.4537  -21.9296   -9.6522 C   0  0  0  0  0  0  0  0  0  0  0  0
   26.3235  -21.8260  -10.7396 C   0  0  0  0  0  0  0  0  0  0  0  0
   26.7404  -20.6050  -11.2045 C   0  0  0  0  0  0  0  0  0  0  0  0
   27.6424  -20.4664  -12.3359 C   0  0  0  0  0  0  0  0  0  0  0  0
   27.0208  -20.6979  -13.6928 C   0  0  2  0  0  0  0  0  0  0  0  0
   27.9221  -20.2594  -14.7550 N   0  0  0  0  0  0  0  0  0  0  0  0
   25.7151  -20.0261  -13.8762 C   0  0  0  0  0  0  0  0  0  0  0  0
   25.6582  -18.7690  -14.0488 O   0  0  0  0  0  0  0  0  0  0  0  0
   26.2662  -19.4898  -10.5548 C   0  0  0  0  0  0  0  0  0  0  0  0
   25.4123  -19.5686   -9.4861 C   0  0  0  0  0  0  0  0  0  0  0  0
   24.4607  -20.6977  -13.8795 N   0  0  0  0  0  0  0  0  0  0  0  0
   23.1964  -19.9550  -14.0444 C   0  0  1  0  0  0  0  0  0  0  0  0
   22.8888  -19.8364  -15.5296 C   0  0  0  0  0  0  0  0  0  0  0  0
   21.5827  -19.1507  -15.8169 C   0  0  0  0  0  0  0  0  0  0  0  0
   21.5524  -18.5899  -17.2282 C   0  0  0  0  0  0  0  0  0  0  0  0
   20.2903  -17.8183  -17.4898 C   0  0  0  0  0  0  0  0  0  0  0  0
   19.1073  -18.6110  -17.3190 N   0  0  0  0  0  0  0  0  0  0  0  0
   22.1150  -20.5682  -13.2684 C   0  0  0  0  0  0  0  0  0  0  0  0
   21.0856  -19.8479  -12.6888 O   0  0  0  0  0  0  0  0  0  0  0  0
   22.0852  -21.8127  -13.0952 O   0  0  0  0  0  0  0  0  0  0  0  0
  1  2  1  0
  2  3  1  0
  3 12  1  0
  3  4  2  0
  6 16  2  0
  6  5  1  0
  7  6  1  0
  8  9  1  0
  8  7  2  0
  9 15  2  0
 10  9  1  0
 11 10  1  1
 11 13  1  0
 12 11  1  0
 13 14  2  0
 13 17  1  0
 15 16  1  0
 17 18  1  0
 18 24  1  0
 18 19  1  6
 20 19  1  0
 21 20  1  0
 22 21  1  0
 23 22  1  0
 24 25  1  0
 26 24  2  0
M  END
$$$$
