GYK.pdb
     RDKit          3D

 26 26  0  0  1  0  0  0  0  0999 V2000
   28.6820  -23.1764  -17.7818 N   0  0  0  0  0  0  0  0  0  0  0  0
   28.3626  -21.8590  -17.2909 C   0  0  0  0  0  0  0  0  0  0  0  0
   27.4658  -21.9885  -16.1139 C   0  0  0  0  0  0  0  0  0  0  0  0
   26.8331  -23.0687  -15.9225 O   0  0  0  0  0  0  0  0  0  0  0  0
   23.8959  -20.8398   -8.0845 O   0  0  0  0  0  0  0  0  0  0  0  0
   24.6116  -20.6800   -9.2877 C   0  0  0  0  0  0  0  0  0  0  0  0
   24.0674  -19.9576  -10.3153 C   0  0  0  0  0  0  0  0  0  0  0  0
   24.7806  -19.8022  -11.5057 C   0  0  0  0  0  0  0  0  0  0  0  0
   26.0223  -20.3604  -11.6701 C   0  0  0  0  0  0  0  0  0  0  0  0
   26.7891  -20.2128  -12.8962 C   0  0  0  0  0  0  0  0  0  0  0  0
   26.3236  -21.0583  -14.0579 C   0  0  2  0  0  0  0  0  0  0  0  0
   27.2642  -20.9683  -15.1713 N   0  0  0  0  0  0  0  0  0  0  0  0
   24.9739  -20.7064  -14.5522 C   0  0  0  0  0  0  0  0  0  0  0  0
   24.7949  -19.6495  -15.2336 O   0  0  0  0  0  0  0  0  0  0  0  0
   26.5335  -21.0783  -10.6146 C   0  0  0  0  0  0  0  0  0  0  0  0
   25.8509  -21.2433   -9.4380 C   0  0  0  0  0  0  0  0  0  0  0  0
   23.8066  -21.4869  -14.3228 N   0  0  0  0  0  0  0  0  0  0  0  0
   22.4663  -20.9791  -14.6736 C   0  0  1  0  0  0  0  0  0  0  0  0
   21.9267  -21.7895  -15.8426 C   0  0  0  0  0  0  0  0  0  0  0  0
   22.4079  -21.3025  -17.1805 C   0  0  0  0  0  0  0  0  0  0  0  0
   23.5333  -22.1728  -17.7127 C   0  0  0  0  0  0  0  0  0  0  0  0
   24.0065  -21.7031  -19.0589 C   0  0  0  0  0  0  0  0  0  0  0  0
   25.0925  -22.4868  -19.5721 N   0  0  0  0  0  0  0  0  0  0  0  0
   21.5795  -20.9700  -13.5070 C   0  0  0  0  0  0  0  0  0  0  0  0
   21.7769  -21.7620  -12.3897 O   0  0  0  0  0  0  0  0  0  0  0  0
   20.5732  -20.2175  -13.4808 O   0  0  0  0  0  0  0  0  0  0  0  0
  1  2  1  0
  2  3  1  0
  3 12  1  0
  3  4  2  0
  6 16  2  0
  6  5  1  0
  7  6  1  0
  8  9  1  0
  8  7  2  0
  9 15  2  0
 10  9  1  0
 11 10  1  1
 11 13  1  0
 12 11  1  0
 13 14  2  0
 13 17  1  0
 15 16  1  0
 17 18  1  0
 18 24  1  0
 18 19  1  6
 20 19  1  0
 21 20  1  0
 22 21  1  0
 23 22  1  0
 24 25  1  0
 26 24  2  0
M  END
$$$$
