GYK.pdb
     RDKit          3D

 26 26  0  0  1  0  0  0  0  0999 V2000
   26.0307  -24.3753  -16.3797 N   0  0  0  0  0  0  0  0  0  0  0  0
   26.5951  -23.0855  -16.0693 C   0  0  0  0  0  0  0  0  0  0  0  0
   26.1844  -22.6986  -14.6953 C   0  0  0  0  0  0  0  0  0  0  0  0
   25.2276  -23.3071  -14.1312 O   0  0  0  0  0  0  0  0  0  0  0  0
   26.7997  -19.6526   -6.3734 O   0  0  0  0  0  0  0  0  0  0  0  0
   26.9799  -19.8841   -7.7516 C   0  0  0  0  0  0  0  0  0  0  0  0
   26.2563  -19.1658   -8.6652 C   0  0  0  0  0  0  0  0  0  0  0  0
   26.4385  -19.3989  -10.0298 C   0  0  0  0  0  0  0  0  0  0  0  0
   27.3319  -20.3374  -10.4790 C   0  0  0  0  0  0  0  0  0  0  0  0
   27.5448  -20.5993  -11.8929 C   0  0  0  0  0  0  0  0  0  0  0  0
   26.4084  -21.2978  -12.6013 C   0  0  2  0  0  0  0  0  0  0  0  0
   26.7998  -21.6763  -13.9564 N   0  0  0  0  0  0  0  0  0  0  0  0
   25.1664  -20.4968  -12.6764 C   0  0  0  0  0  0  0  0  0  0  0  0
   25.0796  -19.5207  -13.4845 O   0  0  0  0  0  0  0  0  0  0  0  0
   28.0387  -21.0373   -9.5298 C   0  0  0  0  0  0  0  0  0  0  0  0
   27.8756  -20.8246   -8.1861 C   0  0  0  0  0  0  0  0  0  0  0  0
   24.0069  -20.7385  -11.8881 N   0  0  0  0  0  0  0  0  0  0  0  0
   22.6775  -20.2641  -12.3184 C   0  0  1  0  0  0  0  0  0  0  0  0
   22.3797  -20.8294  -13.6991 C   0  0  0  0  0  0  0  0  0  0  0  0
   21.0176  -20.4597  -14.2155 C   0  0  0  0  0  0  0  0  0  0  0  0
   20.7558  -21.0814  -15.5764 C   0  0  0  0  0  0  0  0  0  0  0  0
   19.3983  -20.7103  -16.1021 C   0  0  0  0  0  0  0  0  0  0  0  0
   19.1356  -21.2576  -17.4015 N   0  0  0  0  0  0  0  0  0  0  0  0
   21.6519  -20.5811  -11.3208 C   0  0  0  0  0  0  0  0  0  0  0  0
   21.8708  -21.4112  -10.2356 O   0  0  0  0  0  0  0  0  0  0  0  0
   20.4974  -20.0944  -11.4210 O   0  0  0  0  0  0  0  0  0  0  0  0
  1  2  1  0
  2  3  1  0
  3 12  1  0
  3  4  2  0
  6 16  2  0
  6  5  1  0
  7  6  1  0
  8  9  1  0
  8  7  2  0
  9 15  2  0
 10  9  1  0
 11 10  1  6
 11 13  1  0
 12 11  1  0
 13 14  2  0
 13 17  1  0
 15 16  1  0
 17 18  1  0
 18 24  1  0
 18 19  1  6
 20 19  1  0
 21 20  1  0
 22 21  1  0
 23 22  1  0
 24 25  1  0
 26 24  2  0
M  END
$$$$
