GYK.pdb
     RDKit          3D

 26 26  0  0  1  0  0  0  0  0999 V2000
   21.5611  -11.6296  -17.7274 N   0  0  0  0  0  0  0  0  0  0  0  0
   22.0671  -10.3732  -17.2336 C   0  0  0  0  0  0  0  0  0  0  0  0
   21.0617   -9.7760  -16.3178 C   0  0  0  0  0  0  0  0  0  0  0  0
   19.8284   -9.9803  -16.5203 O   0  0  0  0  0  0  0  0  0  0  0  0
   17.1463   -6.6509   -9.0367 O   0  0  0  0  0  0  0  0  0  0  0  0
   18.0847   -7.0653  -10.0027 C   0  0  0  0  0  0  0  0  0  0  0  0
   18.8684   -6.1381  -10.6354 C   0  0  0  0  0  0  0  0  0  0  0  0
   19.7968   -6.5538  -11.5919 C   0  0  0  0  0  0  0  0  0  0  0  0
   19.9428   -7.8787  -11.9143 C   0  0  0  0  0  0  0  0  0  0  0  0
   20.9027   -8.3408  -12.9032 C   0  0  0  0  0  0  0  0  0  0  0  0
   20.4078   -8.3552  -14.3301 C   0  0  2  0  0  0  0  0  0  0  0  0
   21.3918   -8.9780  -15.2114 N   0  0  0  0  0  0  0  0  0  0  0  0
   20.0794   -7.0147  -14.8639 C   0  0  0  0  0  0  0  0  0  0  0  0
   21.0053   -6.2049  -15.1806 O   0  0  0  0  0  0  0  0  0  0  0  0
   19.1371   -8.7780  -11.2565 C   0  0  0  0  0  0  0  0  0  0  0  0
   18.2197   -8.3920  -10.3148 C   0  0  0  0  0  0  0  0  0  0  0  0
   18.7556   -6.5336  -15.0656 N   0  0  0  0  0  0  0  0  0  0  0  0
   18.5072   -5.1936  -15.6314 C   0  0  1  0  0  0  0  0  0  0  0  0
   17.5035   -5.3208  -16.7676 C   0  0  0  0  0  0  0  0  0  0  0  0
   17.0813   -3.9983  -17.3434 C   0  0  0  0  0  0  0  0  0  0  0  0
   16.1428   -4.1842  -18.5231 C   0  0  0  0  0  0  0  0  0  0  0  0
   15.7080   -2.8657  -19.0971 C   0  0  0  0  0  0  0  0  0  0  0  0
   14.7880   -3.0095  -20.1879 N   0  0  0  0  0  0  0  0  0  0  0  0
   18.0992   -4.2452  -14.5914 C   0  0  0  0  0  0  0  0  0  0  0  0
   18.4753   -2.9137  -14.5801 O   0  0  0  0  0  0  0  0  0  0  0  0
   17.3695   -4.6221  -13.6400 O   0  0  0  0  0  0  0  0  0  0  0  0
  1  2  1  0
  2  3  1  0
  3 12  1  0
  3  4  2  0
  6 16  2  0
  6  5  1  0
  7  6  1  0
  8  9  1  0
  8  7  2  0
  9 15  2  0
 10  9  1  0
 11 10  1  1
 11 13  1  0
 12 11  1  0
 13 14  2  0
 13 17  1  0
 15 16  1  0
 17 18  1  0
 18 24  1  0
 18 19  1  6
 20 19  1  0
 21 20  1  0
 22 21  1  0
 23 22  1  0
 24 25  1  0
 26 24  2  0
M  END
$$$$
