GYK.pdb
     RDKit          3D

 26 26  0  0  1  0  0  0  0  0999 V2000
   18.8050  -12.4698  -19.4045 N   0  0  0  0  0  0  0  0  0  0  0  0
   19.7914  -13.3965  -18.9079 C   0  0  0  0  0  0  0  0  0  0  0  0
   20.4042  -12.8335  -17.6775 C   0  0  0  0  0  0  0  0  0  0  0  0
   19.9930  -13.2125  -16.5413 O   0  0  0  0  0  0  0  0  0  0  0  0
   25.0299  -17.0092  -15.9865 O   0  0  0  0  0  0  0  0  0  0  0  0
   24.6547  -15.6553  -16.0960 C   0  0  0  0  0  0  0  0  0  0  0  0
   24.5328  -14.8871  -14.9695 C   0  0  0  0  0  0  0  0  0  0  0  0
   24.1608  -13.5461  -15.0833 C   0  0  0  0  0  0  0  0  0  0  0  0
   23.9131  -12.9769  -16.3062 C   0  0  0  0  0  0  0  0  0  0  0  0
   23.5275  -11.5834  -16.4555 C   0  0  0  0  0  0  0  0  0  0  0  0
   22.0403  -11.3212  -16.4802 C   0  0  2  0  0  0  0  0  0  0  0  0
   21.4371  -11.8832  -17.6856 N   0  0  0  0  0  0  0  0  0  0  0  0
   21.6831   -9.8874  -16.3997 C   0  0  0  0  0  0  0  0  0  0  0  0
   21.9220   -9.1102  -17.3755 O   0  0  0  0  0  0  0  0  0  0  0  0
   24.0464  -13.7821  -17.4128 C   0  0  0  0  0  0  0  0  0  0  0  0
   24.4103  -15.1001  -17.3239 C   0  0  0  0  0  0  0  0  0  0  0  0
   21.0640   -9.2768  -15.2735 N   0  0  0  0  0  0  0  0  0  0  0  0
   20.7960   -7.8261  -15.2416 C   0  0  1  0  0  0  0  0  0  0  0  0
   19.3022   -7.6005  -15.4204 C   0  0  0  0  0  0  0  0  0  0  0  0
   18.8592   -7.6391  -16.8560 C   0  0  0  0  0  0  0  0  0  0  0  0
   17.3552   -7.4630  -16.9745 C   0  0  0  0  0  0  0  0  0  0  0  0
   16.8947   -7.5835  -18.3994 C   0  0  0  0  0  0  0  0  0  0  0  0
   15.4688   -7.5058  -18.5323 N   0  0  0  0  0  0  0  0  0  0  0  0
   21.3411   -7.2118  -14.0279 C   0  0  0  0  0  0  0  0  0  0  0  0
   21.8668   -7.9369  -12.9732 O   0  0  0  0  0  0  0  0  0  0  0  0
   21.3487   -5.9617  -13.8979 O   0  0  0  0  0  0  0  0  0  0  0  0
  1  2  1  0
  2  3  1  0
  3 12  1  0
  3  4  2  0
  6 16  2  0
  6  5  1  0
  7  6  1  0
  8  9  1  0
  8  7  2  0
  9 15  2  0
 10  9  1  0
 11 10  1  6
 11 13  1  0
 12 11  1  0
 13 14  2  0
 13 17  1  0
 15 16  1  0
 17 18  1  0
 18 24  1  0
 18 19  1  1
 20 19  1  0
 21 20  1  0
 22 21  1  0
 23 22  1  0
 24 25  1  0
 26 24  2  0
M  END
$$$$
