GYK.pdb
     RDKit          3D

 26 26  0  0  1  0  0  0  0  0999 V2000
   31.1613  -21.9485  -10.7709 N   0  0  0  0  0  0  0  0  0  0  0  0
   30.4147  -20.7304  -10.5780 C   0  0  0  0  0  0  0  0  0  0  0  0
   29.0557  -21.0719  -10.0852 C   0  0  0  0  0  0  0  0  0  0  0  0
   28.7331  -22.2858   -9.9236 O   0  0  0  0  0  0  0  0  0  0  0  0
   29.1786  -20.2470   -3.3327 O   0  0  0  0  0  0  0  0  0  0  0  0
   28.4664  -20.0776   -4.5368 C   0  0  0  0  0  0  0  0  0  0  0  0
   27.6167  -21.0589   -4.9716 C   0  0  0  0  0  0  0  0  0  0  0  0
   26.9133  -20.8862   -6.1654 C   0  0  0  0  0  0  0  0  0  0  0  0
   27.0550  -19.7483   -6.9174 C   0  0  0  0  0  0  0  0  0  0  0  0
   26.3337  -19.5396   -8.1620 C   0  0  0  0  0  0  0  0  0  0  0  0
   26.7336  -20.4450   -9.3029 C   0  0  2  0  0  0  0  0  0  0  0  0
   28.0752  -20.1161   -9.7769 N   0  0  0  0  0  0  0  0  0  0  0  0
   25.8045  -20.4044  -10.4540 C   0  0  0  0  0  0  0  0  0  0  0  0
   25.7578  -19.3819  -11.2060 O   0  0  0  0  0  0  0  0  0  0  0  0
   27.9179  -18.7869   -6.4462 C   0  0  0  0  0  0  0  0  0  0  0  0
   28.6179  -18.9358   -5.2778 C   0  0  0  0  0  0  0  0  0  0  0  0
   24.9210  -21.4615  -10.8096 N   0  0  0  0  0  0  0  0  0  0  0  0
   24.1128  -21.4001  -12.0427 C   0  0  1  0  0  0  0  0  0  0  0  0
   24.2286  -22.7312  -12.7702 C   0  0  0  0  0  0  0  0  0  0  0  0
   23.3872  -22.8086  -14.0130 C   0  0  0  0  0  0  0  0  0  0  0  0
   23.5381  -24.1554  -14.6988 C   0  0  0  0  0  0  0  0  0  0  0  0
   22.7279  -24.2268  -15.9619 C   0  0  0  0  0  0  0  0  0  0  0  0
   22.8383  -25.4945  -16.6235 N   0  0  0  0  0  0  0  0  0  0  0  0
   22.7308  -21.0080  -11.7530 C   0  0  0  0  0  0  0  0  0  0  0  0
   22.1902  -20.9945  -10.4794 O   0  0  0  0  0  0  0  0  0  0  0  0
   21.9617  -20.6599  -12.6841 O   0  0  0  0  0  0  0  0  0  0  0  0
  1  2  1  0
  2  3  1  0
  3 12  1  0
  3  4  2  0
  6 16  2  0
  6  5  1  0
  7  6  1  0
  8  9  1  0
  8  7  2  0
  9 15  2  0
 10  9  1  0
 11 10  1  1
 11 13  1  0
 12 11  1  0
 13 14  2  0
 13 17  1  0
 15 16  1  0
 17 18  1  0
 18 24  1  0
 18 19  1  1
 20 19  1  0
 21 20  1  0
 22 21  1  0
 23 22  1  0
 24 25  1  0
 26 24  2  0
M  END
$$$$
