GYK.pdb
     RDKit          3D

 26 26  0  0  1  0  0  0  0  0999 V2000
   28.5700  -25.2915  -16.5048 N   0  0  0  0  0  0  0  0  0  0  0  0
   28.6892  -23.8572  -16.5888 C   0  0  0  0  0  0  0  0  0  0  0  0
   27.5225  -23.2369  -15.9105 C   0  0  0  0  0  0  0  0  0  0  0  0
   26.4669  -23.9136  -15.7323 O   0  0  0  0  0  0  0  0  0  0  0  0
   23.6522  -20.4656   -8.9719 O   0  0  0  0  0  0  0  0  0  0  0  0
   24.4584  -20.4554  -10.1275 C   0  0  0  0  0  0  0  0  0  0  0  0
   25.7293  -20.9616  -10.0782 C   0  0  0  0  0  0  0  0  0  0  0  0
   26.5242  -20.9491  -11.2261 C   0  0  0  0  0  0  0  0  0  0  0  0
   26.0577  -20.4379  -12.4100 C   0  0  0  0  0  0  0  0  0  0  0  0
   26.8610  -20.4146  -13.6213 C   0  0  0  0  0  0  0  0  0  0  0  0
   26.3779  -21.3107  -14.7370 C   0  0  2  0  0  0  0  0  0  0  0  0
   27.5069  -21.9149  -15.4393 N   0  0  0  0  0  0  0  0  0  0  0  0
   25.5199  -20.6240  -15.7281 C   0  0  0  0  0  0  0  0  0  0  0  0
   26.0307  -19.8356  -16.5830 O   0  0  0  0  0  0  0  0  0  0  0  0
   24.7763  -19.9392  -12.4178 C   0  0  0  0  0  0  0  0  0  0  0  0
   23.9794  -19.9415  -11.3032 C   0  0  0  0  0  0  0  0  0  0  0  0
   24.1082  -20.7804  -15.8124 N   0  0  0  0  0  0  0  0  0  0  0  0
   23.3042  -19.9722  -16.7493 C   0  0  1  0  0  0  0  0  0  0  0  0
   22.2062  -20.8485  -17.3332 C   0  0  0  0  0  0  0  0  0  0  0  0
   21.3471  -20.1383  -18.3414 C   0  0  0  0  0  0  0  0  0  0  0  0
   20.2871  -21.0639  -18.9131 C   0  0  0  0  0  0  0  0  0  0  0  0
   19.4350  -20.3651  -19.9341 C   0  0  0  0  0  0  0  0  0  0  0  0
   18.4630  -21.2315  -20.5352 N   0  0  0  0  0  0  0  0  0  0  0  0
   22.8032  -18.7547  -16.1056 C   0  0  0  0  0  0  0  0  0  0  0  0
   22.3811  -18.7035  -14.7889 O   0  0  0  0  0  0  0  0  0  0  0  0
   22.7358  -17.6779  -16.7504 O   0  0  0  0  0  0  0  0  0  0  0  0
  1  2  1  0
  2  3  1  0
  3 12  1  0
  3  4  2  0
  6 16  2  0
  6  5  1  0
  7  6  1  0
  8  9  1  0
  8  7  2  0
  9 15  2  0
 10  9  1  0
 11 10  1  1
 11 13  1  0
 12 11  1  0
 13 14  2  0
 13 17  1  0
 15 16  1  0
 17 18  1  0
 18 24  1  0
 18 19  1  1
 20 19  1  0
 21 20  1  0
 22 21  1  0
 23 22  1  0
 24 25  1  0
 26 24  2  0
M  END
$$$$
