GYK.pdb
     RDKit          3D

 26 26  0  0  1  0  0  0  0  0999 V2000
   22.0359  -22.2412   -6.4048 N   0  0  0  0  0  0  0  0  0  0  0  0
   23.4441  -22.5312   -6.5108 C   0  0  0  0  0  0  0  0  0  0  0  0
   24.0511  -21.6111   -7.5065 C   0  0  0  0  0  0  0  0  0  0  0  0
   23.3956  -20.6078   -7.9157 O   0  0  0  0  0  0  0  0  0  0  0  0
   28.8446  -18.7784   -3.5636 O   0  0  0  0  0  0  0  0  0  0  0  0
   28.5041  -19.2771   -4.8368 C   0  0  0  0  0  0  0  0  0  0  0  0
   28.8619  -20.5505   -5.1896 C   0  0  0  0  0  0  0  0  0  0  0  0
   28.5222  -21.0401   -6.4524 C   0  0  0  0  0  0  0  0  0  0  0  0
   27.8334  -20.2693   -7.3535 C   0  0  0  0  0  0  0  0  0  0  0  0
   27.4634  -20.7531   -8.6733 C   0  0  0  0  0  0  0  0  0  0  0  0
   25.9793  -20.8281   -8.9439 C   0  0  2  0  0  0  0  0  0  0  0  0
   25.3377  -21.7803   -8.0414 N   0  0  0  0  0  0  0  0  0  0  0  0
   25.6421  -21.1987  -10.3363 C   0  0  0  0  0  0  0  0  0  0  0  0
   25.9373  -22.3501  -10.7840 O   0  0  0  0  0  0  0  0  0  0  0  0
   27.4927  -18.9963   -6.9607 C   0  0  0  0  0  0  0  0  0  0  0  0
   27.8160  -18.4960   -5.7268 C   0  0  0  0  0  0  0  0  0  0  0  0
   24.9826  -20.3386  -11.2581 N   0  0  0  0  0  0  0  0  0  0  0  0
   24.6048  -20.8076  -12.6053 C   0  0  1  0  0  0  0  0  0  0  0  0
   23.3524  -20.0661  -13.0481 C   0  0  0  0  0  0  0  0  0  0  0  0
   22.6235  -20.7430  -14.1746 C   0  0  0  0  0  0  0  0  0  0  0  0
   21.4282  -19.9239  -14.6299 C   0  0  0  0  0  0  0  0  0  0  0  0
   20.6676  -20.6165  -15.7247 C   0  0  0  0  0  0  0  0  0  0  0  0
   19.4734  -19.9174  -16.1016 N   0  0  0  0  0  0  0  0  0  0  0  0
   25.7232  -20.6831  -13.5441 C   0  0  0  0  0  0  0  0  0  0  0  0
   25.9696  -21.5847  -14.5644 O   0  0  0  0  0  0  0  0  0  0  0  0
   26.5259  -19.7206  -13.4505 O   0  0  0  0  0  0  0  0  0  0  0  0
  1  2  1  0
  2  3  1  0
  3 12  1  0
  3  4  2  0
  6 16  2  0
  6  5  1  0
  7  6  1  0
  8  9  1  0
  8  7  2  0
  9 15  2  0
 10  9  1  0
 11 10  1  6
 11 13  1  0
 12 11  1  0
 13 14  2  0
 13 17  1  0
 15 16  1  0
 17 18  1  0
 18 24  1  0
 18 19  1  6
 20 19  1  0
 21 20  1  0
 22 21  1  0
 23 22  1  0
 24 25  1  0
 26 24  2  0
M  END
$$$$
