GYK.pdb
     RDKit          3D

 26 26  0  0  1  0  0  0  0  0999 V2000
   28.8163  -21.0125  -17.3912 N   0  0  0  0  0  0  0  0  0  0  0  0
   27.7432  -21.9719  -17.4715 C   0  0  0  0  0  0  0  0  0  0  0  0
   27.0410  -22.0191  -16.1635 C   0  0  0  0  0  0  0  0  0  0  0  0
   26.2719  -22.9897  -15.8984 O   0  0  0  0  0  0  0  0  0  0  0  0
   24.9497  -20.3620   -7.6814 O   0  0  0  0  0  0  0  0  0  0  0  0
   25.5527  -20.3953   -8.9546 C   0  0  0  0  0  0  0  0  0  0  0  0
   26.7100  -21.1015   -9.1439 C   0  0  0  0  0  0  0  0  0  0  0  0
   27.3036  -21.1315  -10.4074 C   0  0  0  0  0  0  0  0  0  0  0  0
   26.7500  -20.4651  -11.4705 C   0  0  0  0  0  0  0  0  0  0  0  0
   27.3435  -20.4810  -12.7972 C   0  0  0  0  0  0  0  0  0  0  0  0
   26.4797  -21.0704  -13.8870 C   0  0  2  0  0  0  0  0  0  0  0  0
   27.1736  -21.0350  -15.1715 N   0  0  0  0  0  0  0  0  0  0  0  0
   25.1693  -20.4004  -14.0412 C   0  0  0  0  0  0  0  0  0  0  0  0
   25.1080  -19.1880  -14.4150 O   0  0  0  0  0  0  0  0  0  0  0  0
   25.5878  -19.7677  -11.2388 C   0  0  0  0  0  0  0  0  0  0  0  0
   24.9887  -19.7250  -10.0073 C   0  0  0  0  0  0  0  0  0  0  0  0
   23.9147  -21.0262  -13.7991 N   0  0  0  0  0  0  0  0  0  0  0  0
   22.6479  -20.2865  -13.9588 C   0  0  1  0  0  0  0  0  0  0  0  0
   22.1115  -20.5321  -15.3611 C   0  0  0  0  0  0  0  0  0  0  0  0
   22.5139  -19.4736  -16.3492 C   0  0  0  0  0  0  0  0  0  0  0  0
   21.9551  -19.7670  -17.7307 C   0  0  0  0  0  0  0  0  0  0  0  0
   22.5123  -18.8290  -18.7635 C   0  0  0  0  0  0  0  0  0  0  0  0
   21.9908  -19.0734  -20.0769 N   0  0  0  0  0  0  0  0  0  0  0  0
   21.6960  -20.6281  -12.8983 C   0  0  0  0  0  0  0  0  0  0  0  0
   20.6075  -19.8417  -12.5649 O   0  0  0  0  0  0  0  0  0  0  0  0
   21.8415  -21.6830  -12.2307 O   0  0  0  0  0  0  0  0  0  0  0  0
  1  2  1  0
  2  3  1  0
  3 12  1  0
  3  4  2  0
  6 16  2  0
  6  5  1  0
  7  6  1  0
  8  9  1  0
  8  7  2  0
  9 15  2  0
 10  9  1  0
 11 10  1  1
 11 13  1  0
 12 11  1  0
 13 14  2  0
 13 17  1  0
 15 16  1  0
 17 18  1  0
 18 24  1  0
 18 19  1  6
 20 19  1  0
 21 20  1  0
 22 21  1  0
 23 22  1  0
 24 25  1  0
 26 24  2  0
M  END
$$$$
