VMS.pdb
     RDKit          3D

 22 21  0  0  1  0  0  0  0  0999 V2000
    7.7635  -13.3130   20.6659 C   0  0  0  0  0  0  0  0  0  0  0  0
    8.3552  -14.5701   20.1127 C   0  0  2  0  0  0  0  0  0  0  0  0
    7.5316  -15.0613   18.9613 C   0  0  0  0  0  0  0  0  0  0  0  0
    8.4829  -15.6691   21.1419 C   0  0  2  0  0  0  0  0  0  0  0  0
    7.2609  -16.3629   21.3954 N   0  0  0  0  0  0  0  0  0  0  0  0
    9.0637  -15.1536   22.4183 C   0  0  0  0  0  0  0  0  0  0  0  0
   10.2082  -14.6473   22.3948 O   0  0  0  0  0  0  0  0  0  0  0  0
    6.3102  -11.1697   26.2727 C   0  0  0  0  0  0  0  0  0  0  0  0
    6.6718  -12.4051   27.5775 S   0  0  0  0  0  0  0  0  0  0  0  0
    7.9978  -13.5241   26.9920 C   0  0  0  0  0  0  0  0  0  0  0  0
    7.6097  -14.0416   25.6559 C   0  0  0  0  0  0  0  0  0  0  0  0
    8.7155  -14.7830   24.9177 C   0  0  2  0  0  0  0  0  0  0  0  0
    8.3192  -15.2474   23.6086 N   0  0  0  0  0  0  0  0  0  0  0  0
    9.1153  -15.9261   25.7558 C   0  0  0  0  0  0  0  0  0  0  0  0
    8.2584  -16.8174   26.0744 O   0  0  0  0  0  0  0  0  0  0  0  0
   13.0855  -16.8550   26.5052 O   0  0  0  0  0  0  0  0  0  0  0  0
   12.0807  -17.8035   26.3633 C   0  0  0  0  0  0  0  0  0  0  0  0
   10.7924  -17.2657   26.9967 C   0  0  2  0  0  0  0  0  0  0  0  0
   10.4428  -16.0854   26.2372 N   0  0  0  0  0  0  0  0  0  0  0  0
   10.9840  -16.9283   28.4119 C   0  0  0  0  0  0  0  0  0  0  0  0
   11.3249  -17.8364   29.2150 O   0  0  0  0  0  0  0  0  0  0  0  0
   10.7985  -15.6272   28.8905 O   0  0  0  0  0  0  0  0  0  0  0  0
  2  1  1  1
  2  3  1  0
  4  2  1  0
  4  6  1  0
  4  5  1  1
  6 13  1  0
  6  7  2  0
  8  9  1  0
  9 10  1  0
 10 11  1  0
 12 11  1  1
 12 14  1  0
 13 12  1  0
 14 15  2  0
 16 17  1  0
 18 17  1  6
 18 20  1  0
 19 14  1  0
 19 18  1  0
 20 22  1  0
 21 20  2  0
M  END
$$$$
