VMS.pdb
     RDKit          3D

 22 21  0  0  1  0  0  0  0  0999 V2000
    7.4291  -20.5613   23.3440 C   0  0  0  0  0  0  0  0  0  0  0  0
    6.0240  -20.0702   23.4895 C   0  0  2  0  0  0  0  0  0  0  0  0
    5.0601  -21.1587   23.1270 C   0  0  0  0  0  0  0  0  0  0  0  0
    5.7337  -18.8454   22.6536 C   0  0  2  0  0  0  0  0  0  0  0  0
    5.6878  -19.1056   21.2504 N   0  0  0  0  0  0  0  0  0  0  0  0
    6.7005  -17.7449   22.9480 C   0  0  0  0  0  0  0  0  0  0  0  0
    7.6779  -17.5849   22.1825 O   0  0  0  0  0  0  0  0  0  0  0  0
    7.5007  -11.1619   27.4015 C   0  0  0  0  0  0  0  0  0  0  0  0
    6.4894  -12.6052   26.8979 S   0  0  0  0  0  0  0  0  0  0  0  0
    7.5244  -13.7455   25.9072 C   0  0  0  0  0  0  0  0  0  0  0  0
    6.6705  -14.8745   25.4597 C   0  0  0  0  0  0  0  0  0  0  0  0
    7.3682  -15.8743   24.5483 C   0  0  2  0  0  0  0  0  0  0  0  0
    6.4941  -16.9197   24.0688 N   0  0  0  0  0  0  0  0  0  0  0  0
    8.4827  -16.4624   25.3104 C   0  0  0  0  0  0  0  0  0  0  0  0
    8.2481  -17.3015   26.2437 O   0  0  0  0  0  0  0  0  0  0  0  0
   11.9986  -16.8351   23.5981 O   0  0  0  0  0  0  0  0  0  0  0  0
   12.1804  -16.5274   24.9404 C   0  0  0  0  0  0  0  0  0  0  0  0
   10.8968  -16.8629   25.7086 C   0  0  2  0  0  0  0  0  0  0  0  0
    9.8392  -16.1303   25.0476 N   0  0  0  0  0  0  0  0  0  0  0  0
   10.9909  -16.4695   27.1191 C   0  0  0  0  0  0  0  0  0  0  0  0
   11.8811  -16.9921   27.8404 O   0  0  0  0  0  0  0  0  0  0  0  0
   10.1195  -15.5311   27.6817 O   0  0  0  0  0  0  0  0  0  0  0  0
  2  1  1  6
  2  3  1  0
  4  2  1  0
  4  6  1  0
  4  5  1  6
  6 13  1  0
  6  7  2  0
  8  9  1  0
  9 10  1  0
 10 11  1  0
 12 11  1  1
 12 14  1  0
 13 12  1  0
 14 15  2  0
 16 17  1  0
 18 17  1  6
 18 20  1  0
 19 14  1  0
 19 18  1  0
 20 22  1  0
 21 20  2  0
M  END
$$$$
