VMS.pdb
     RDKit          3D

 22 21  0  0  1  0  0  0  0  0999 V2000
    6.8900  -13.6586   18.5061 C   0  0  0  0  0  0  0  0  0  0  0  0
    7.4688  -13.4028   19.8610 C   0  0  2  0  0  0  0  0  0  0  0  0
    8.5507  -12.3701   19.7700 C   0  0  0  0  0  0  0  0  0  0  0  0
    8.0191  -14.6482   20.5163 C   0  0  2  0  0  0  0  0  0  0  0  0
    7.0599  -15.6972   20.6519 N   0  0  0  0  0  0  0  0  0  0  0  0
    8.6410  -14.3370   21.8387 C   0  0  0  0  0  0  0  0  0  0  0  0
    9.7273  -13.7152   21.8589 O   0  0  0  0  0  0  0  0  0  0  0  0
    6.1383  -13.0330   27.8886 C   0  0  0  0  0  0  0  0  0  0  0  0
    6.7992  -11.8301   26.6738 S   0  0  0  0  0  0  0  0  0  0  0  0
    7.0646  -12.6793   25.0734 C   0  0  0  0  0  0  0  0  0  0  0  0
    7.4947  -14.0721   25.3546 C   0  0  0  0  0  0  0  0  0  0  0  0
    8.5097  -14.6332   24.3687 C   0  0  2  0  0  0  0  0  0  0  0  0
    7.9990  -14.7458   23.0222 N   0  0  0  0  0  0  0  0  0  0  0  0
    8.9180  -15.9590   24.8630 C   0  0  0  0  0  0  0  0  0  0  0  0
    8.0526  -16.8890   24.9913 O   0  0  0  0  0  0  0  0  0  0  0  0
   12.1109  -17.4419   23.8426 O   0  0  0  0  0  0  0  0  0  0  0  0
   12.0225  -17.8545   25.1660 C   0  0  0  0  0  0  0  0  0  0  0  0
   10.6045  -17.5817   25.6811 C   0  0  2  0  0  0  0  0  0  0  0  0
   10.2630  -16.2568   25.2119 N   0  0  0  0  0  0  0  0  0  0  0  0
   10.5393  -17.6410   27.1459 C   0  0  0  0  0  0  0  0  0  0  0  0
   10.1859  -16.6140   27.7831 O   0  0  0  0  0  0  0  0  0  0  0  0
   10.8584  -18.8062   27.8507 O   0  0  0  0  0  0  0  0  0  0  0  0
  2  1  1  6
  2  3  1  0
  4  2  1  0
  4  6  1  0
  4  5  1  1
  6 13  1  0
  6  7  2  0
  8  9  1  0
  9 10  1  0
 10 11  1  0
 12 11  1  1
 12 14  1  0
 13 12  1  0
 14 15  2  0
 16 17  1  0
 18 17  1  1
 18 20  1  0
 19 14  1  0
 19 18  1  0
 20 22  1  0
 21 20  2  0
M  END
$$$$
