VMS.pdb
     RDKit          3D

 22 21  0  0  1  0  0  0  0  0999 V2000
    7.7264  -12.3501   20.8249 C   0  0  0  0  0  0  0  0  0  0  0  0
    8.4380  -13.3776   20.0037 C   0  0  2  0  0  0  0  0  0  0  0  0
    7.8665  -13.4133   18.6190 C   0  0  0  0  0  0  0  0  0  0  0  0
    8.3800  -14.7626   20.6052 C   0  0  2  0  0  0  0  0  0  0  0  0
    7.0969  -15.3805   20.5008 N   0  0  0  0  0  0  0  0  0  0  0  0
    8.8418  -14.7577   22.0262 C   0  0  0  0  0  0  0  0  0  0  0  0
   10.0250  -14.4308   22.2710 O   0  0  0  0  0  0  0  0  0  0  0  0
    6.4797  -10.7657   26.6827 C   0  0  0  0  0  0  0  0  0  0  0  0
    7.0262  -12.5136   26.7567 S   0  0  0  0  0  0  0  0  0  0  0  0
    6.5143  -13.3668   25.2195 C   0  0  0  0  0  0  0  0  0  0  0  0
    6.9657  -14.7787   25.3020 C   0  0  0  0  0  0  0  0  0  0  0  0
    8.2005  -15.0989   24.4712 C   0  0  2  0  0  0  0  0  0  0  0  0
    7.9456  -15.1177   23.0495 N   0  0  0  0  0  0  0  0  0  0  0  0
    8.6976  -16.4141   24.9093 C   0  0  0  0  0  0  0  0  0  0  0  0
    8.0501  -17.4742   24.6143 O   0  0  0  0  0  0  0  0  0  0  0  0
   11.6430  -19.3824   24.5868 O   0  0  0  0  0  0  0  0  0  0  0  0
   11.6208  -18.0728   25.0490 C   0  0  0  0  0  0  0  0  0  0  0  0
   10.3990  -17.8831   25.9553 C   0  0  2  0  0  0  0  0  0  0  0  0
    9.8933  -16.5598   25.6632 N   0  0  0  0  0  0  0  0  0  0  0  0
   10.7543  -17.9959   27.3746 C   0  0  0  0  0  0  0  0  0  0  0  0
   10.8080  -16.9509   28.0753 O   0  0  0  0  0  0  0  0  0  0  0  0
   11.0338  -19.2314   27.9679 O   0  0  0  0  0  0  0  0  0  0  0  0
  2  1  1  1
  2  3  1  0
  4  2  1  0
  4  6  1  0
  4  5  1  1
  6 13  1  0
  6  7  2  0
  8  9  1  0
  9 10  1  0
 10 11  1  0
 12 11  1  1
 12 14  1  0
 13 12  1  0
 14 15  2  0
 16 17  1  0
 18 17  1  6
 18 20  1  0
 19 14  1  0
 19 18  1  0
 20 22  1  0
 21 20  2  0
M  END
$$$$
