VMS.pdb
     RDKit          3D

 22 21  0  0  1  0  0  0  0  0999 V2000
    7.9767  -12.3285   20.1057 C   0  0  0  0  0  0  0  0  0  0  0  0
    8.4970  -13.5350   19.3915 C   0  0  2  0  0  0  0  0  0  0  0  0
    7.8213  -13.6749   18.0614 C   0  0  0  0  0  0  0  0  0  0  0  0
    8.3219  -14.8126   20.1790 C   0  0  2  0  0  0  0  0  0  0  0  0
    6.9806  -15.3023   20.1878 N   0  0  0  0  0  0  0  0  0  0  0  0
    8.8314  -14.6643   21.5757 C   0  0  0  0  0  0  0  0  0  0  0  0
   10.0619  -14.5175   21.7526 O   0  0  0  0  0  0  0  0  0  0  0  0
    6.9524  -10.6951   26.4869 C   0  0  0  0  0  0  0  0  0  0  0  0
    6.3106  -12.3550   26.9254 S   0  0  0  0  0  0  0  0  0  0  0  0
    7.4566  -13.6297   26.2812 C   0  0  0  0  0  0  0  0  0  0  0  0
    7.1357  -13.8592   24.8500 C   0  0  0  0  0  0  0  0  0  0  0  0
    8.2409  -14.5389   24.0539 C   0  0  2  0  0  0  0  0  0  0  0  0
    7.9261  -14.6928   22.6525 N   0  0  0  0  0  0  0  0  0  0  0  0
    8.4753  -15.8589   24.6634 C   0  0  0  0  0  0  0  0  0  0  0  0
    7.5229  -16.7054   24.7440 O   0  0  0  0  0  0  0  0  0  0  0  0
   12.1225  -17.4164   24.7658 O   0  0  0  0  0  0  0  0  0  0  0  0
   10.9936  -18.2255   24.7873 C   0  0  0  0  0  0  0  0  0  0  0  0
    9.9340  -17.5815   25.6889 C   0  0  2  0  0  0  0  0  0  0  0  0
    9.7434  -16.2418   25.1780 N   0  0  0  0  0  0  0  0  0  0  0  0
   10.3673  -17.5405   27.0903 C   0  0  0  0  0  0  0  0  0  0  0  0
   10.5521  -16.4224   27.6395 O   0  0  0  0  0  0  0  0  0  0  0  0
   10.5794  -18.7084   27.8301 O   0  0  0  0  0  0  0  0  0  0  0  0
  2  1  1  1
  2  3  1  0
  4  2  1  0
  4  6  1  0
  4  5  1  1
  6 13  1  0
  6  7  2  0
  8  9  1  0
  9 10  1  0
 10 11  1  0
 12 11  1  1
 12 14  1  0
 13 12  1  0
 14 15  2  0
 16 17  1  0
 18 17  1  6
 18 20  1  0
 19 14  1  0
 19 18  1  0
 20 22  1  0
 21 20  2  0
M  END
$$$$
