VMS.pdb
     RDKit          3D

 22 21  0  0  1  0  0  0  0  0999 V2000
    3.4953  -16.9584   21.3447 C   0  0  0  0  0  0  0  0  0  0  0  0
    4.4987  -17.8179   20.6441 C   0  0  2  0  0  0  0  0  0  0  0  0
    3.8253  -19.0253   20.0661 C   0  0  0  0  0  0  0  0  0  0  0  0
    5.6325  -18.2581   21.5408 C   0  0  2  0  0  0  0  0  0  0  0  0
    5.2046  -18.9891   22.6904 N   0  0  0  0  0  0  0  0  0  0  0  0
    6.4849  -17.1003   21.9472 C   0  0  0  0  0  0  0  0  0  0  0  0
    7.0957  -16.4644   21.0587 O   0  0  0  0  0  0  0  0  0  0  0  0
    7.6763  -11.6223   27.5137 C   0  0  0  0  0  0  0  0  0  0  0  0
    6.6544  -12.9740   26.8153 S   0  0  0  0  0  0  0  0  0  0  0  0
    7.6762  -13.9626   25.6613 C   0  0  0  0  0  0  0  0  0  0  0  0
    6.8062  -14.9920   25.0389 C   0  0  0  0  0  0  0  0  0  0  0  0
    7.4477  -15.7510   23.8859 C   0  0  2  0  0  0  0  0  0  0  0  0
    6.5824  -16.7525   23.3072 N   0  0  0  0  0  0  0  0  0  0  0  0
    8.6728  -16.3843   24.4024 C   0  0  0  0  0  0  0  0  0  0  0  0
    8.5927  -17.3771   25.2013 O   0  0  0  0  0  0  0  0  0  0  0  0
   11.8849  -16.5229   22.0794 O   0  0  0  0  0  0  0  0  0  0  0  0
   12.2347  -16.2533   23.3964 C   0  0  0  0  0  0  0  0  0  0  0  0
   11.1224  -16.7585   24.3226 C   0  0  2  0  0  0  0  0  0  0  0  0
    9.9704  -15.9295   24.0435 N   0  0  0  0  0  0  0  0  0  0  0  0
   11.5031  -16.6507   25.7356 C   0  0  0  0  0  0  0  0  0  0  0  0
   12.5092  -17.2868   26.1469 O   0  0  0  0  0  0  0  0  0  0  0  0
   10.7793  -15.8613   26.6352 O   0  0  0  0  0  0  0  0  0  0  0  0
  2  1  1  1
  2  3  1  0
  4  2  1  0
  4  6  1  0
  4  5  1  1
  6 13  1  0
  6  7  2  0
  8  9  1  0
  9 10  1  0
 10 11  1  0
 12 11  1  1
 12 14  1  0
 13 12  1  0
 14 15  2  0
 16 17  1  0
 18 17  1  6
 18 20  1  0
 19 14  1  0
 19 18  1  0
 20 22  1  0
 21 20  2  0
M  END
$$$$
