VMS.pdb
     RDKit          3D

 22 21  0  0  1  0  0  0  0  0999 V2000
    7.7850  -12.5063   19.8400 C   0  0  0  0  0  0  0  0  0  0  0  0
    8.4973  -13.6703   19.2283 C   0  0  2  0  0  0  0  0  0  0  0  0
    7.8968  -13.9960   17.8947 C   0  0  0  0  0  0  0  0  0  0  0  0
    8.4777  -14.9036   20.1010 C   0  0  2  0  0  0  0  0  0  0  0  0
    7.2025  -15.5431   20.1627 N   0  0  0  0  0  0  0  0  0  0  0  0
    8.9772  -14.6038   21.4769 C   0  0  0  0  0  0  0  0  0  0  0  0
   10.1502  -14.1880   21.6116 O   0  0  0  0  0  0  0  0  0  0  0  0
    6.5819  -11.5184   28.2257 C   0  0  0  0  0  0  0  0  0  0  0  0
    6.1293  -12.3393   26.6507 S   0  0  0  0  0  0  0  0  0  0  0  0
    7.5678  -13.2913   26.0363 C   0  0  0  0  0  0  0  0  0  0  0  0
    7.2588  -13.7612   24.6624 C   0  0  0  0  0  0  0  0  0  0  0  0
    8.4102  -14.4669   23.9600 C   0  0  2  0  0  0  0  0  0  0  0  0
    8.1268  -14.7936   22.5817 N   0  0  0  0  0  0  0  0  0  0  0  0
    8.7018  -15.6958   24.7173 C   0  0  0  0  0  0  0  0  0  0  0  0
    7.8807  -16.6731   24.6930 O   0  0  0  0  0  0  0  0  0  0  0  0
   12.1508  -18.6373   25.6550 O   0  0  0  0  0  0  0  0  0  0  0  0
   11.6124  -17.4479   25.1808 C   0  0  0  0  0  0  0  0  0  0  0  0
   10.2979  -17.1653   25.9173 C   0  0  2  0  0  0  0  0  0  0  0  0
    9.8837  -15.8463   25.4920 N   0  0  0  0  0  0  0  0  0  0  0  0
   10.4735  -17.2042   27.3737 C   0  0  0  0  0  0  0  0  0  0  0  0
   10.4104  -16.1283   28.0250 O   0  0  0  0  0  0  0  0  0  0  0  0
   10.7081  -18.4028   28.0554 O   0  0  0  0  0  0  0  0  0  0  0  0
  2  1  1  1
  2  3  1  0
  4  2  1  0
  4  6  1  0
  4  5  1  1
  6 13  1  0
  6  7  2  0
  8  9  1  0
  9 10  1  0
 10 11  1  0
 12 11  1  1
 12 14  1  0
 13 12  1  0
 14 15  2  0
 16 17  1  0
 18 17  1  6
 18 20  1  0
 19 14  1  0
 19 18  1  0
 20 22  1  0
 21 20  2  0
M  END
$$$$
