VMS.pdb
     RDKit          3D

 22 21  0  0  1  0  0  0  0  0999 V2000
    6.2740  -18.4342   19.2973 C   0  0  0  0  0  0  0  0  0  0  0  0
    7.0832  -17.8902   20.4312 C   0  0  2  0  0  0  0  0  0  0  0  0
    6.7440  -18.6155   21.6978 C   0  0  0  0  0  0  0  0  0  0  0  0
    6.8925  -16.4055   20.6379 C   0  0  2  0  0  0  0  0  0  0  0  0
    7.1101  -15.6292   19.4593 N   0  0  0  0  0  0  0  0  0  0  0  0
    7.7408  -15.8995   21.7589 C   0  0  0  0  0  0  0  0  0  0  0  0
    8.9847  -15.9030   21.6183 O   0  0  0  0  0  0  0  0  0  0  0  0
    7.3361  -11.4133   28.3179 C   0  0  0  0  0  0  0  0  0  0  0  0
    6.4966  -12.1597   26.8697 S   0  0  0  0  0  0  0  0  0  0  0  0
    7.5455  -13.5001   26.1943 C   0  0  0  0  0  0  0  0  0  0  0  0
    6.9098  -14.0027   24.9505 C   0  0  0  0  0  0  0  0  0  0  0  0
    7.7929  -14.9158   24.1117 C   0  0  2  0  0  0  0  0  0  0  0  0
    7.1296  -15.4344   22.9379 N   0  0  0  0  0  0  0  0  0  0  0  0
    8.2247  -16.0271   24.9761 C   0  0  0  0  0  0  0  0  0  0  0  0
    7.3776  -16.8958   25.3737 O   0  0  0  0  0  0  0  0  0  0  0  0
   12.0768  -17.0143   25.1156 O   0  0  0  0  0  0  0  0  0  0  0  0
   11.1182  -17.9862   25.3721 C   0  0  0  0  0  0  0  0  0  0  0  0
    9.9597  -17.3525   26.1509 C   0  0  2  0  0  0  0  0  0  0  0  0
    9.5732  -16.1798   25.3976 N   0  0  0  0  0  0  0  0  0  0  0  0
   10.3615  -16.9798   27.5122 C   0  0  0  0  0  0  0  0  0  0  0  0
   10.3097  -15.7688   27.8538 O   0  0  0  0  0  0  0  0  0  0  0  0
   10.7992  -17.9327   28.4378 O   0  0  0  0  0  0  0  0  0  0  0  0
  2  1  1  6
  2  3  1  0
  4  2  1  0
  4  6  1  0
  4  5  1  6
  6 13  1  0
  6  7  2  0
  8  9  1  0
  9 10  1  0
 10 11  1  0
 12 11  1  1
 12 14  1  0
 13 12  1  0
 14 15  2  0
 16 17  1  0
 18 17  1  6
 18 20  1  0
 19 14  1  0
 19 18  1  0
 20 22  1  0
 21 20  2  0
M  END
$$$$
