VMS.pdb
     RDKit          3D

 22 21  0  0  1  0  0  0  0  0999 V2000
    7.5020  -12.4331   20.6610 C   0  0  0  0  0  0  0  0  0  0  0  0
    8.3553  -13.4449   19.9649 C   0  0  2  0  0  0  0  0  0  0  0  0
    7.8511  -13.6701   18.5720 C   0  0  0  0  0  0  0  0  0  0  0  0
    8.4219  -14.7672   20.6933 C   0  0  2  0  0  0  0  0  0  0  0  0
    7.2173  -15.5295   20.6104 N   0  0  0  0  0  0  0  0  0  0  0  0
    8.8241  -14.5820   22.1203 C   0  0  0  0  0  0  0  0  0  0  0  0
    9.9381  -14.0673   22.3673 O   0  0  0  0  0  0  0  0  0  0  0  0
    7.1979  -12.1187   27.7635 C   0  0  0  0  0  0  0  0  0  0  0  0
    7.4495  -12.0861   25.9483 S   0  0  0  0  0  0  0  0  0  0  0  0
    6.3778  -13.3518   25.1721 C   0  0  0  0  0  0  0  0  0  0  0  0
    6.9875  -14.6840   25.4115 C   0  0  0  0  0  0  0  0  0  0  0  0
    8.2186  -14.9787   24.5661 C   0  0  2  0  0  0  0  0  0  0  0  0
    7.9507  -14.9865   23.1467 N   0  0  0  0  0  0  0  0  0  0  0  0
    8.7378  -16.2913   24.9860 C   0  0  0  0  0  0  0  0  0  0  0  0
    7.9940  -17.3267   24.9153 O   0  0  0  0  0  0  0  0  0  0  0  0
   11.9846  -17.2019   24.0122 O   0  0  0  0  0  0  0  0  0  0  0  0
   11.9497  -17.8812   25.2233 C   0  0  0  0  0  0  0  0  0  0  0  0
   10.5361  -17.7865   25.8091 C   0  0  2  0  0  0  0  0  0  0  0  0
   10.0602  -16.4614   25.4778 N   0  0  0  0  0  0  0  0  0  0  0  0
   10.5376  -17.9836   27.2632 C   0  0  0  0  0  0  0  0  0  0  0  0
   10.1495  -17.0443   28.0068 O   0  0  0  0  0  0  0  0  0  0  0  0
   10.9577  -19.1851   27.8431 O   0  0  0  0  0  0  0  0  0  0  0  0
  2  1  1  1
  2  3  1  0
  4  2  1  0
  4  6  1  0
  4  5  1  1
  6 13  1  0
  6  7  2  0
  8  9  1  0
  9 10  1  0
 10 11  1  0
 12 11  1  1
 12 14  1  0
 13 12  1  0
 14 15  2  0
 16 17  1  0
 18 17  1  1
 18 20  1  0
 19 14  1  0
 19 18  1  0
 20 22  1  0
 21 20  2  0
M  END
$$$$
