VMS.pdb
     RDKit          3D

 22 21  0  0  1  0  0  0  0  0999 V2000
    7.8084  -17.7952   18.6890 C   0  0  0  0  0  0  0  0  0  0  0  0
    8.2767  -17.4231   20.0597 C   0  0  2  0  0  0  0  0  0  0  0  0
    7.3416  -17.9795   21.0899 C   0  0  0  0  0  0  0  0  0  0  0  0
    8.4088  -15.9308   20.2572 C   0  0  2  0  0  0  0  0  0  0  0  0
    9.2077  -15.2887   19.2630 N   0  0  0  0  0  0  0  0  0  0  0  0
    8.9178  -15.6064   21.6239 C   0  0  0  0  0  0  0  0  0  0  0  0
   10.1182  -15.8431   21.8885 O   0  0  0  0  0  0  0  0  0  0  0  0
    6.8303  -10.7897   26.2207 C   0  0  0  0  0  0  0  0  0  0  0  0
    6.2649  -12.4719   26.6790 S   0  0  0  0  0  0  0  0  0  0  0  0
    7.4941  -13.6969   26.0948 C   0  0  0  0  0  0  0  0  0  0  0  0
    7.2684  -13.9232   24.6451 C   0  0  0  0  0  0  0  0  0  0  0  0
    8.3451  -14.7513   23.9577 C   0  0  2  0  0  0  0  0  0  0  0  0
    8.0455  -15.0474   22.5760 N   0  0  0  0  0  0  0  0  0  0  0  0
    8.4913  -16.0034   24.7190 C   0  0  0  0  0  0  0  0  0  0  0  0
    7.5124  -16.8187   24.8050 O   0  0  0  0  0  0  0  0  0  0  0  0
   11.9464  -17.8931   25.0818 O   0  0  0  0  0  0  0  0  0  0  0  0
   10.7038  -18.5016   25.2050 C   0  0  0  0  0  0  0  0  0  0  0  0
    9.7984  -17.6187   26.0715 C   0  0  2  0  0  0  0  0  0  0  0  0
    9.7010  -16.3534   25.3775 N   0  0  0  0  0  0  0  0  0  0  0  0
   10.3548  -17.4262   27.4156 C   0  0  0  0  0  0  0  0  0  0  0  0
   10.6530  -16.2620   27.7918 O   0  0  0  0  0  0  0  0  0  0  0  0
   10.5616  -18.5000   28.2878 O   0  0  0  0  0  0  0  0  0  0  0  0
  2  1  1  6
  2  3  1  0
  4  2  1  0
  4  6  1  0
  4  5  1  6
  6 13  1  0
  6  7  2  0
  8  9  1  0
  9 10  1  0
 10 11  1  0
 12 11  1  1
 12 14  1  0
 13 12  1  0
 14 15  2  0
 16 17  1  0
 18 17  1  6
 18 20  1  0
 19 14  1  0
 19 18  1  0
 20 22  1  0
 21 20  2  0
M  END
$$$$
