VMS.pdb
     RDKit          3D

 22 21  0  0  1  0  0  0  0  0999 V2000
    7.5627  -12.3997   20.3754 C   0  0  0  0  0  0  0  0  0  0  0  0
    8.4263  -13.4278   19.7169 C   0  0  2  0  0  0  0  0  0  0  0  0
    7.8878  -13.7556   18.3576 C   0  0  0  0  0  0  0  0  0  0  0  0
    8.5565  -14.6988   20.5238 C   0  0  2  0  0  0  0  0  0  0  0  0
    7.3500  -15.4591   20.5959 N   0  0  0  0  0  0  0  0  0  0  0  0
    9.0797  -14.4206   21.8954 C   0  0  0  0  0  0  0  0  0  0  0  0
   10.2175  -13.9118   22.0113 O   0  0  0  0  0  0  0  0  0  0  0  0
    6.5137  -11.1222   26.5806 C   0  0  0  0  0  0  0  0  0  0  0  0
    6.6622  -12.7154   27.4745 S   0  0  0  0  0  0  0  0  0  0  0  0
    7.9622  -13.7300   26.6786 C   0  0  0  0  0  0  0  0  0  0  0  0
    7.5932  -13.9193   25.2532 C   0  0  0  0  0  0  0  0  0  0  0  0
    8.6628  -14.5938   24.4058 C   0  0  2  0  0  0  0  0  0  0  0  0
    8.2901  -14.7337   23.0172 N   0  0  0  0  0  0  0  0  0  0  0  0
    8.9187  -15.9201   24.9926 C   0  0  0  0  0  0  0  0  0  0  0  0
    7.9502  -16.7249   25.2034 O   0  0  0  0  0  0  0  0  0  0  0  0
   12.7636  -17.3260   25.6681 O   0  0  0  0  0  0  0  0  0  0  0  0
   11.7420  -18.1841   25.2814 C   0  0  0  0  0  0  0  0  0  0  0  0
   10.4191  -17.6858   25.8747 C   0  0  2  0  0  0  0  0  0  0  0  0
   10.2255  -16.3546   25.3431 N   0  0  0  0  0  0  0  0  0  0  0  0
   10.4611  -17.6527   27.3411 C   0  0  0  0  0  0  0  0  0  0  0  0
   10.3656  -16.5435   27.9296 O   0  0  0  0  0  0  0  0  0  0  0  0
   10.6039  -18.8188   28.1003 O   0  0  0  0  0  0  0  0  0  0  0  0
  2  1  1  1
  2  3  1  0
  4  2  1  0
  4  6  1  0
  4  5  1  1
  6 13  1  0
  6  7  2  0
  8  9  1  0
  9 10  1  0
 10 11  1  0
 12 11  1  1
 12 14  1  0
 13 12  1  0
 14 15  2  0
 16 17  1  0
 18 17  1  6
 18 20  1  0
 19 14  1  0
 19 18  1  0
 20 22  1  0
 21 20  2  0
M  END
$$$$
