VMS.pdb
     RDKit          3D

 22 21  0  0  1  0  0  0  0  0999 V2000
    7.9937  -20.1875   24.2293 C   0  0  0  0  0  0  0  0  0  0  0  0
    6.6359  -19.5878   24.0468 C   0  0  2  0  0  0  0  0  0  0  0  0
    5.6374  -20.6624   23.7411 C   0  0  0  0  0  0  0  0  0  0  0  0
    6.5914  -18.5390   22.9599 C   0  0  2  0  0  0  0  0  0  0  0  0
    6.8087  -19.0614   21.6488 N   0  0  0  0  0  0  0  0  0  0  0  0
    7.5455  -17.4240   23.2411 C   0  0  0  0  0  0  0  0  0  0  0  0
    8.6661  -17.4390   22.6836 O   0  0  0  0  0  0  0  0  0  0  0  0
    5.4472  -12.6501   27.2644 C   0  0  0  0  0  0  0  0  0  0  0  0
    6.9322  -11.8455   26.5525 S   0  0  0  0  0  0  0  0  0  0  0  0
    8.0482  -13.1333   25.8824 C   0  0  0  0  0  0  0  0  0  0  0  0
    7.2137  -14.1807   25.2417 C   0  0  0  0  0  0  0  0  0  0  0  0
    8.0015  -15.3130   24.5980 C   0  0  2  0  0  0  0  0  0  0  0  0
    7.1679  -16.3908   24.1185 N   0  0  0  0  0  0  0  0  0  0  0  0
    8.9474  -15.8206   25.6062 C   0  0  0  0  0  0  0  0  0  0  0  0
    8.5269  -16.5382   26.5749 O   0  0  0  0  0  0  0  0  0  0  0  0
   13.0999  -15.0096   25.5731 O   0  0  0  0  0  0  0  0  0  0  0  0
   12.5866  -16.2868   25.7595 C   0  0  0  0  0  0  0  0  0  0  0  0
   11.2384  -16.1834   26.4818 C   0  0  2  0  0  0  0  0  0  0  0  0
   10.3395  -15.5411   25.5482 N   0  0  0  0  0  0  0  0  0  0  0  0
   11.3440  -15.3981   27.7169 C   0  0  0  0  0  0  0  0  0  0  0  0
   12.1232  -15.7906   28.6249 O   0  0  0  0  0  0  0  0  0  0  0  0
   10.6035  -14.2275   27.9109 O   0  0  0  0  0  0  0  0  0  0  0  0
  2  1  1  6
  2  3  1  0
  4  2  1  0
  4  6  1  0
  4  5  1  6
  6 13  1  0
  6  7  2  0
  8  9  1  0
  9 10  1  0
 10 11  1  0
 12 11  1  1
 12 14  1  0
 13 12  1  0
 14 15  2  0
 16 17  1  0
 18 17  1  6
 18 20  1  0
 19 14  1  0
 19 18  1  0
 20 22  1  0
 21 20  2  0
M  END
$$$$
