FWG.pdb
     RDKit          3D

 30 32  0  0  1  0  0  0  0  0999 V2000
    9.0985  -18.3167   19.5609 N   0  0  0  0  0  0  0  0  0  0  0  0
    8.9024  -17.0459   20.1838 C   0  0  1  0  0  0  0  0  0  0  0  0
    7.5727  -16.4528   19.8515 C   0  0  0  0  0  0  0  0  0  0  0  0
    7.4883  -15.0875   20.4059 C   0  0  0  0  0  0  0  0  0  0  0  0
    8.2064  -14.0830   19.8235 C   0  0  0  0  0  0  0  0  0  0  0  0
    8.1065  -12.8209   20.3668 C   0  0  0  0  0  0  0  0  0  0  0  0
    7.3027  -12.5899   21.4657 C   0  0  0  0  0  0  0  0  0  0  0  0
    6.5720  -13.6132   22.0581 C   0  0  0  0  0  0  0  0  0  0  0  0
    6.6879  -14.8644   21.4981 C   0  0  0  0  0  0  0  0  0  0  0  0
    9.1395  -17.1054   21.6559 C   0  0  0  0  0  0  0  0  0  0  0  0
    9.4536  -18.2187   22.1975 O   0  0  0  0  0  0  0  0  0  0  0  0
    9.0440  -16.0030   22.5300 N   0  0  0  0  0  0  0  0  0  0  0  0
    9.8811  -15.8121   23.6864 C   0  0  1  0  0  0  0  0  0  0  0  0
    9.6128  -14.5261   24.3799 C   0  0  0  0  0  0  0  0  0  0  0  0
    8.2627  -14.3966   24.9574 C   0  0  0  0  0  0  0  0  0  0  0  0
    7.3176  -15.4121   25.0242 C   0  0  0  0  0  0  0  0  0  0  0  0
    6.1951  -14.9466   25.5878 N   0  0  0  0  0  0  0  0  0  0  0  0
    6.3580  -13.6477   25.9025 C   0  0  0  0  0  0  0  0  0  0  0  0
    5.4869  -12.7602   26.5013 C   0  0  0  0  0  0  0  0  0  0  0  0
    5.9363  -11.4778   26.7120 C   0  0  0  0  0  0  0  0  0  0  0  0
    7.2199  -11.0908   26.3357 C   0  0  0  0  0  0  0  0  0  0  0  0
    8.0481  -12.0173   25.7412 C   0  0  0  0  0  0  0  0  0  0  0  0
    7.6410  -13.3023   25.5128 C   0  0  0  0  0  0  0  0  0  0  0  0
    9.8246  -16.9983   24.5871 C   0  0  0  0  0  0  0  0  0  0  0  0
    8.7697  -17.2218   25.2208 O   0  0  0  0  0  0  0  0  0  0  0  0
   10.9234  -17.8822   24.7509 N   0  0  0  0  0  0  0  0  0  0  0  0
   10.8889  -19.0444   25.6126 C   0  0  0  0  0  0  0  0  0  0  0  0
   12.1370  -19.8201   25.5832 C   0  0  0  0  0  0  0  0  0  0  0  0
   13.0340  -19.4846   24.7710 O   0  0  0  0  0  0  0  0  0  0  0  0
   12.3602  -20.8979   26.4094 O   0  0  0  0  0  0  0  0  0  0  0  0
  2  1  1  1
  2  3  1  0
  2 10  1  0
  3  4  1  0
  4  5  2  0
  4  9  1  0
  5  6  1  0
  6  7  2  0
  8  7  1  0
  9  8  2  0
 10 11  2  0
 12 10  1  0
 12 13  1  0
 13 14  1  1
 14 15  1  0
 15 16  2  0
 16 17  1  0
 18 17  1  0
 19 18  2  0
 20 19  1  0
 21 22  1  0
 21 20  2  0
 22 23  2  0
 23 15  1  0
 23 18  1  0
 24 13  1  0
 24 25  2  0
 26 24  1  0
 27 26  1  0
 27 28  1  0
 28 29  2  0
 28 30  1  0
M  END
$$$$
