FWG.pdb
     RDKit          3D

 30 32  0  0  1  0  0  0  0  0999 V2000
    8.2102  -17.1998   21.6923 N   0  0  0  0  0  0  0  0  0  0  0  0
    8.5372  -15.8279   21.9212 C   0  0  1  0  0  0  0  0  0  0  0  0
    7.3584  -14.9285   21.7430 C   0  0  0  0  0  0  0  0  0  0  0  0
    7.5548  -14.0881   20.5457 C   0  0  0  0  0  0  0  0  0  0  0  0
    7.2485  -14.5939   19.3152 C   0  0  0  0  0  0  0  0  0  0  0  0
    7.4451  -13.7839   18.2184 C   0  0  0  0  0  0  0  0  0  0  0  0
    7.9370  -12.5024   18.3697 C   0  0  0  0  0  0  0  0  0  0  0  0
    8.2486  -11.9881   19.6228 C   0  0  0  0  0  0  0  0  0  0  0  0
    8.0439  -12.8155   20.7027 C   0  0  0  0  0  0  0  0  0  0  0  0
    9.2029  -15.6275   23.2417 C   0  0  0  0  0  0  0  0  0  0  0  0
    9.7597  -14.5077   23.5014 O   0  0  0  0  0  0  0  0  0  0  0  0
    9.2730  -16.5990   24.2613 N   0  0  0  0  0  0  0  0  0  0  0  0
    9.9791  -16.4189   25.5037 C   0  0  1  0  0  0  0  0  0  0  0  0
    9.0681  -16.3641   26.6758 C   0  0  0  0  0  0  0  0  0  0  0  0
    7.8869  -15.4978   26.5101 C   0  0  0  0  0  0  0  0  0  0  0  0
    6.6197  -15.9305   26.1411 C   0  0  0  0  0  0  0  0  0  0  0  0
    5.7905  -14.8814   26.0629 N   0  0  0  0  0  0  0  0  0  0  0  0
    6.4629  -13.7559   26.3691 C   0  0  0  0  0  0  0  0  0  0  0  0
    6.0285  -12.4471   26.4296 C   0  0  0  0  0  0  0  0  0  0  0  0
    6.9499  -11.4908   26.7868 C   0  0  0  0  0  0  0  0  0  0  0  0
    8.2691  -11.8305   27.0758 C   0  0  0  0  0  0  0  0  0  0  0  0
    8.6491  -13.1523   26.9994 C   0  0  0  0  0  0  0  0  0  0  0  0
    7.7653  -14.1345   26.6478 C   0  0  0  0  0  0  0  0  0  0  0  0
   11.0731  -17.4210   25.6452 C   0  0  0  0  0  0  0  0  0  0  0  0
   11.8640  -17.3151   26.6083 O   0  0  0  0  0  0  0  0  0  0  0  0
   11.2491  -18.4899   24.7277 N   0  0  0  0  0  0  0  0  0  0  0  0
   12.5321  -18.8544   24.1663 C   0  0  0  0  0  0  0  0  0  0  0  0
   13.4182  -19.5143   25.1357 C   0  0  0  0  0  0  0  0  0  0  0  0
   14.5267  -19.9496   24.7373 O   0  0  0  0  0  0  0  0  0  0  0  0
   13.0808  -19.6735   26.4605 O   0  0  0  0  0  0  0  0  0  0  0  0
  2  1  1  1
  2  3  1  0
  2 10  1  0
  3  4  1  0
  4  5  2  0
  4  9  1  0
  5  6  1  0
  6  7  2  0
  8  7  1  0
  9  8  2  0
 10 11  2  0
 12 10  1  0
 12 13  1  0
 13 14  1  1
 14 15  1  0
 15 16  2  0
 16 17  1  0
 18 17  1  0
 19 18  2  0
 20 19  1  0
 21 22  1  0
 21 20  2  0
 22 23  2  0
 23 15  1  0
 23 18  1  0
 24 13  1  0
 24 25  2  0
 26 24  1  0
 27 26  1  0
 27 28  1  0
 28 29  2  0
 28 30  1  0
M  END
$$$$
