FWG.pdb
     RDKit          3D

 30 32  0  0  1  0  0  0  0  0999 V2000
    7.2835  -17.6441   21.4006 N   0  0  0  0  0  0  0  0  0  0  0  0
    7.5839  -16.2522   21.5186 C   0  0  1  0  0  0  0  0  0  0  0  0
    6.5436  -15.3933   20.8781 C   0  0  0  0  0  0  0  0  0  0  0  0
    7.1928  -14.4151   19.9837 C   0  0  0  0  0  0  0  0  0  0  0  0
    7.6386  -14.8209   18.7588 C   0  0  0  0  0  0  0  0  0  0  0  0
    8.2415  -13.8833   17.9493 C   0  0  0  0  0  0  0  0  0  0  0  0
    8.3854  -12.5768   18.3731 C   0  0  0  0  0  0  0  0  0  0  0  0
    7.9313  -12.1644   19.6203 C   0  0  0  0  0  0  0  0  0  0  0  0
    7.3329  -13.1183   20.4106 C   0  0  0  0  0  0  0  0  0  0  0  0
    7.8456  -15.8577   22.9339 C   0  0  0  0  0  0  0  0  0  0  0  0
    7.3730  -14.7570   23.3772 O   0  0  0  0  0  0  0  0  0  0  0  0
    8.5939  -16.6196   23.8547 N   0  0  0  0  0  0  0  0  0  0  0  0
    9.6522  -16.0878   24.6741 C   0  0  1  0  0  0  0  0  0  0  0  0
    9.2193  -15.8330   26.0721 C   0  0  0  0  0  0  0  0  0  0  0  0
    7.9484  -15.0988   26.2095 C   0  0  0  0  0  0  0  0  0  0  0  0
    6.6823  -15.6563   26.0869 C   0  0  0  0  0  0  0  0  0  0  0  0
    5.7535  -14.7045   26.2475 N   0  0  0  0  0  0  0  0  0  0  0  0
    6.3581  -13.5233   26.4751 C   0  0  0  0  0  0  0  0  0  0  0  0
    5.8163  -12.2748   26.7047 C   0  0  0  0  0  0  0  0  0  0  0  0
    6.6908  -11.2356   26.9198 C   0  0  0  0  0  0  0  0  0  0  0  0
    8.0688  -11.4361   26.9062 C   0  0  0  0  0  0  0  0  0  0  0  0
    8.5557  -12.7032   26.6717 C   0  0  0  0  0  0  0  0  0  0  0  0
    7.7215  -13.7640   26.4526 C   0  0  0  0  0  0  0  0  0  0  0  0
   10.8783  -16.9292   24.5736 C   0  0  0  0  0  0  0  0  0  0  0  0
   10.9669  -17.9501   25.2907 O   0  0  0  0  0  0  0  0  0  0  0  0
   11.9472  -16.6141   23.6941 N   0  0  0  0  0  0  0  0  0  0  0  0
   13.1765  -17.3750   23.6301 C   0  0  0  0  0  0  0  0  0  0  0  0
   14.1276  -16.8502   22.6399 C   0  0  0  0  0  0  0  0  0  0  0  0
   14.8990  -15.9202   22.9818 O   0  0  0  0  0  0  0  0  0  0  0  0
   14.2053  -17.3374   21.3550 O   0  0  0  0  0  0  0  0  0  0  0  0
  2  1  1  1
  2  3  1  0
  2 10  1  0
  3  4  1  0
  4  5  2  0
  4  9  1  0
  5  6  1  0
  6  7  2  0
  8  7  1  0
  9  8  2  0
 10 11  2  0
 12 10  1  0
 12 13  1  0
 13 14  1  1
 14 15  1  0
 15 16  2  0
 16 17  1  0
 18 17  1  0
 19 18  2  0
 20 19  1  0
 21 22  1  0
 21 20  2  0
 22 23  2  0
 23 15  1  0
 23 18  1  0
 24 13  1  0
 24 25  2  0
 26 24  1  0
 27 26  1  0
 27 28  1  0
 28 29  2  0
 28 30  1  0
M  END
$$$$
