FWG.pdb
     RDKit          3D

 30 32  0  0  1  0  0  0  0  0999 V2000
    8.4420  -16.2441   21.5617 N   0  0  0  0  0  0  0  0  0  0  0  0
    9.1358  -15.0478   21.9207 C   0  0  1  0  0  0  0  0  0  0  0  0
    8.2744  -13.8346   21.7923 C   0  0  0  0  0  0  0  0  0  0  0  0
    7.8925  -13.6474   20.3790 C   0  0  0  0  0  0  0  0  0  0  0  0
    6.7871  -14.2854   19.8941 C   0  0  0  0  0  0  0  0  0  0  0  0
    6.4595  -14.0905   18.5703 C   0  0  0  0  0  0  0  0  0  0  0  0
    7.2314  -13.2737   17.7677 C   0  0  0  0  0  0  0  0  0  0  0  0
    8.3566  -12.6246   18.2621 C   0  0  0  0  0  0  0  0  0  0  0  0
    8.6635  -12.8345   19.5865 C   0  0  0  0  0  0  0  0  0  0  0  0
    9.7625  -15.1521   23.2711 C   0  0  0  0  0  0  0  0  0  0  0  0
   10.5931  -14.2586   23.6493 O   0  0  0  0  0  0  0  0  0  0  0  0
    9.5089  -16.1854   24.1965 N   0  0  0  0  0  0  0  0  0  0  0  0
   10.1258  -16.2788   25.4946 C   0  0  1  0  0  0  0  0  0  0  0  0
    9.1314  -16.3670   26.5947 C   0  0  0  0  0  0  0  0  0  0  0  0
    7.9239  -15.5408   26.4141 C   0  0  0  0  0  0  0  0  0  0  0  0
    6.6766  -16.0158   26.0300 C   0  0  0  0  0  0  0  0  0  0  0  0
    5.8136  -14.9951   25.9411 N   0  0  0  0  0  0  0  0  0  0  0  0
    6.4442  -13.8477   26.2548 C   0  0  0  0  0  0  0  0  0  0  0  0
    5.9654  -12.5542   26.3092 C   0  0  0  0  0  0  0  0  0  0  0  0
    6.8497  -11.5675   26.6769 C   0  0  0  0  0  0  0  0  0  0  0  0
    8.1760  -11.8627   26.9821 C   0  0  0  0  0  0  0  0  0  0  0  0
    8.6010  -13.1710   26.9112 C   0  0  0  0  0  0  0  0  0  0  0  0
    7.7550  -14.1823   26.5495 C   0  0  0  0  0  0  0  0  0  0  0  0
   11.1449  -17.3659   25.5236 C   0  0  0  0  0  0  0  0  0  0  0  0
   11.7113  -17.6299   26.6070 O   0  0  0  0  0  0  0  0  0  0  0  0
   11.4949  -18.1117   24.3674 N   0  0  0  0  0  0  0  0  0  0  0  0
   12.5073  -19.1458   24.3631 C   0  0  0  0  0  0  0  0  0  0  0  0
   13.8302  -18.6546   23.9519 C   0  0  0  0  0  0  0  0  0  0  0  0
   14.2759  -18.9968   22.8289 O   0  0  0  0  0  0  0  0  0  0  0  0
   14.5981  -17.8359   24.7484 O   0  0  0  0  0  0  0  0  0  0  0  0
  2  1  1  1
  2  3  1  0
  2 10  1  0
  3  4  1  0
  4  5  2  0
  4  9  1  0
  5  6  1  0
  6  7  2  0
  8  7  1  0
  9  8  2  0
 10 11  2  0
 12 10  1  0
 12 13  1  0
 13 14  1  1
 14 15  1  0
 15 16  2  0
 16 17  1  0
 18 17  1  0
 19 18  2  0
 20 19  1  0
 21 22  1  0
 21 20  2  0
 22 23  2  0
 23 15  1  0
 23 18  1  0
 24 13  1  0
 24 25  2  0
 26 24  1  0
 27 26  1  0
 27 28  1  0
 28 29  2  0
 28 30  1  0
M  END
$$$$
