FWG.pdb
     RDKit          3D

 30 32  0  0  1  0  0  0  0  0999 V2000
    8.8094  -16.6480   21.5672 N   0  0  0  0  0  0  0  0  0  0  0  0
    9.2324  -15.3700   22.0462 C   0  0  1  0  0  0  0  0  0  0  0  0
    8.1688  -14.3318   21.9013 C   0  0  0  0  0  0  0  0  0  0  0  0
    8.0096  -13.9832   20.4760 C   0  0  0  0  0  0  0  0  0  0  0  0
    8.7927  -14.6016   19.5441 C   0  0  0  0  0  0  0  0  0  0  0  0
    8.6199  -14.2519   18.2229 C   0  0  0  0  0  0  0  0  0  0  0  0
    7.6816  -13.3048   17.8630 C   0  0  0  0  0  0  0  0  0  0  0  0
    6.8847  -12.6757   18.8123 C   0  0  0  0  0  0  0  0  0  0  0  0
    7.0754  -13.0412   20.1247 C   0  0  0  0  0  0  0  0  0  0  0  0
    9.7588  -15.4451   23.4406 C   0  0  0  0  0  0  0  0  0  0  0  0
   10.5230  -14.5182   23.8746 O   0  0  0  0  0  0  0  0  0  0  0  0
    9.4766  -16.4844   24.3508 N   0  0  0  0  0  0  0  0  0  0  0  0
   10.0338  -16.5734   25.6759 C   0  0  1  0  0  0  0  0  0  0  0  0
    8.9905  -16.6254   26.7321 C   0  0  0  0  0  0  0  0  0  0  0  0
    7.8577  -15.7021   26.5384 C   0  0  0  0  0  0  0  0  0  0  0  0
    6.5752  -16.0744   26.1571 C   0  0  0  0  0  0  0  0  0  0  0  0
    5.8020  -14.9854   26.0536 N   0  0  0  0  0  0  0  0  0  0  0  0
    6.5272  -13.8917   26.3547 C   0  0  0  0  0  0  0  0  0  0  0  0
    6.1598  -12.5617   26.3920 C   0  0  0  0  0  0  0  0  0  0  0  0
    7.1242  -11.6491   26.7498 C   0  0  0  0  0  0  0  0  0  0  0  0
    8.4201  -12.0518   27.0619 C   0  0  0  0  0  0  0  0  0  0  0  0
    8.7328  -13.3923   27.0080 C   0  0  0  0  0  0  0  0  0  0  0  0
    7.8045  -14.3326   26.6567 C   0  0  0  0  0  0  0  0  0  0  0  0
   11.0266  -17.6816   25.7634 C   0  0  0  0  0  0  0  0  0  0  0  0
   11.4929  -17.9834   26.8840 O   0  0  0  0  0  0  0  0  0  0  0  0
   11.4607  -18.4060   24.6222 N   0  0  0  0  0  0  0  0  0  0  0  0
   12.3546  -19.5419   24.6927 C   0  0  0  0  0  0  0  0  0  0  0  0
   13.7598  -19.1845   24.4516 C   0  0  0  0  0  0  0  0  0  0  0  0
   14.0664  -17.9690   24.3776 O   0  0  0  0  0  0  0  0  0  0  0  0
   14.7505  -20.1284   24.3040 O   0  0  0  0  0  0  0  0  0  0  0  0
  2  1  1  1
  2  3  1  0
  2 10  1  0
  3  4  1  0
  4  5  2  0
  4  9  1  0
  5  6  1  0
  6  7  2  0
  8  7  1  0
  9  8  2  0
 10 11  2  0
 12 10  1  0
 12 13  1  0
 13 14  1  1
 14 15  1  0
 15 16  2  0
 16 17  1  0
 18 17  1  0
 19 18  2  0
 20 19  1  0
 21 22  1  0
 21 20  2  0
 22 23  2  0
 23 15  1  0
 23 18  1  0
 24 13  1  0
 24 25  2  0
 26 24  1  0
 27 26  1  0
 27 28  1  0
 28 29  2  0
 28 30  1  0
M  END
$$$$
