FWG.pdb
     RDKit          3D

 30 32  0  0  1  0  0  0  0  0999 V2000
   10.9092  -17.1237   21.2048 N   0  0  0  0  0  0  0  0  0  0  0  0
   10.1807  -16.3481   22.1584 C   0  0  1  0  0  0  0  0  0  0  0  0
    8.7056  -16.4207   21.9373 C   0  0  0  0  0  0  0  0  0  0  0  0
    8.1876  -15.0767   21.6154 C   0  0  0  0  0  0  0  0  0  0  0  0
    9.0494  -14.0184   21.5781 C   0  0  0  0  0  0  0  0  0  0  0  0
    8.5331  -12.7774   21.2763 C   0  0  0  0  0  0  0  0  0  0  0  0
    7.1852  -12.6195   21.0211 C   0  0  0  0  0  0  0  0  0  0  0  0
    6.3085  -13.6974   21.0592 C   0  0  0  0  0  0  0  0  0  0  0  0
    6.8471  -14.9263   21.3628 C   0  0  0  0  0  0  0  0  0  0  0  0
   10.5569  -16.6940   23.5605 C   0  0  0  0  0  0  0  0  0  0  0  0
   11.5683  -17.4446   23.7730 O   0  0  0  0  0  0  0  0  0  0  0  0
    9.8704  -16.2494   24.7091 N   0  0  0  0  0  0  0  0  0  0  0  0
   10.4629  -16.1491   26.0181 C   0  0  1  0  0  0  0  0  0  0  0  0
    9.6580  -15.3149   26.9471 C   0  0  0  0  0  0  0  0  0  0  0  0
    8.3354  -14.9096   26.4376 C   0  0  0  0  0  0  0  0  0  0  0  0
    7.3584  -15.7753   25.9631 C   0  0  0  0  0  0  0  0  0  0  0  0
    6.2918  -15.0728   25.5590 N   0  0  0  0  0  0  0  0  0  0  0  0
    6.5228  -13.7600   25.7484 C   0  0  0  0  0  0  0  0  0  0  0  0
    5.7188  -12.6679   25.4915 C   0  0  0  0  0  0  0  0  0  0  0  0
    6.2213  -11.4259   25.8012 C   0  0  0  0  0  0  0  0  0  0  0  0
    7.4915  -11.2770   26.3523 C   0  0  0  0  0  0  0  0  0  0  0  0
    8.2519  -12.4012   26.5877 C   0  0  0  0  0  0  0  0  0  0  0  0
    7.7910  -13.6544   26.2942 C   0  0  0  0  0  0  0  0  0  0  0  0
   10.7903  -17.4983   26.5599 C   0  0  0  0  0  0  0  0  0  0  0  0
   11.3301  -17.5791   27.6853 O   0  0  0  0  0  0  0  0  0  0  0  0
   10.5114  -18.6932   25.8458 N   0  0  0  0  0  0  0  0  0  0  0  0
   10.8099  -20.0140   26.3562 C   0  0  0  0  0  0  0  0  0  0  0  0
   10.3390  -21.0918   25.4746 C   0  0  0  0  0  0  0  0  0  0  0  0
    9.4920  -21.9052   25.9196 O   0  0  0  0  0  0  0  0  0  0  0  0
   10.7896  -21.2441   24.1831 O   0  0  0  0  0  0  0  0  0  0  0  0
  2  1  1  6
  2  3  1  0
  2 10  1  0
  3  4  1  0
  4  5  2  0
  4  9  1  0
  5  6  1  0
  6  7  2  0
  8  7  1  0
  9  8  2  0
 10 11  2  0
 12 10  1  0
 12 13  1  0
 13 14  1  1
 14 15  1  0
 15 16  2  0
 16 17  1  0
 18 17  1  0
 19 18  2  0
 20 19  1  0
 21 22  1  0
 21 20  2  0
 22 23  2  0
 23 15  1  0
 23 18  1  0
 24 13  1  0
 24 25  2  0
 26 24  1  0
 27 26  1  0
 27 28  1  0
 28 29  2  0
 28 30  1  0
M  END
$$$$
