FWG.pdb
     RDKit          3D

 30 32  0  0  1  0  0  0  0  0999 V2000
    8.2600  -16.4489   21.9481 N   0  0  0  0  0  0  0  0  0  0  0  0
    9.2406  -15.4485   22.2291 C   0  0  1  0  0  0  0  0  0  0  0  0
    8.6927  -14.0659   22.0928 C   0  0  0  0  0  0  0  0  0  0  0  0
    8.1986  -13.8639   20.7168 C   0  0  0  0  0  0  0  0  0  0  0  0
    8.1533  -14.9252   19.8592 C   0  0  0  0  0  0  0  0  0  0  0  0
    7.6886  -14.7020   18.5816 C   0  0  0  0  0  0  0  0  0  0  0  0
    7.2839  -13.4408   18.1909 C   0  0  0  0  0  0  0  0  0  0  0  0
    7.3303  -12.3608   19.0646 C   0  0  0  0  0  0  0  0  0  0  0  0
    7.7979  -12.6083   20.3345 C   0  0  0  0  0  0  0  0  0  0  0  0
    9.8940  -15.6664   23.5530 C   0  0  0  0  0  0  0  0  0  0  0  0
   10.9078  -14.9604   23.8774 O   0  0  0  0  0  0  0  0  0  0  0  0
    9.4755  -16.6151   24.5087 N   0  0  0  0  0  0  0  0  0  0  0  0
   10.0020  -16.7028   25.8464 C   0  0  1  0  0  0  0  0  0  0  0  0
    8.9557  -16.5217   26.8852 C   0  0  0  0  0  0  0  0  0  0  0  0
    7.8772  -15.5817   26.5295 C   0  0  0  0  0  0  0  0  0  0  0  0
    6.6625  -15.9339   25.9557 C   0  0  0  0  0  0  0  0  0  0  0  0
    5.9280  -14.8337   25.7448 N   0  0  0  0  0  0  0  0  0  0  0  0
    6.6132  -13.7519   26.1606 C   0  0  0  0  0  0  0  0  0  0  0  0
    6.2614  -12.4173   26.1523 C   0  0  0  0  0  0  0  0  0  0  0  0
    7.1722  -11.5201   26.6589 C   0  0  0  0  0  0  0  0  0  0  0  0
    8.4007  -11.9425   27.1604 C   0  0  0  0  0  0  0  0  0  0  0  0
    8.7006  -13.2869   27.1440 C   0  0  0  0  0  0  0  0  0  0  0  0
    7.8243  -14.2123   26.6490 C   0  0  0  0  0  0  0  0  0  0  0  0
   10.8077  -17.9443   26.0219 C   0  0  0  0  0  0  0  0  0  0  0  0
   11.4648  -18.0902   27.0760 O   0  0  0  0  0  0  0  0  0  0  0  0
   10.8554  -18.9658   25.0371 N   0  0  0  0  0  0  0  0  0  0  0  0
   11.9179  -19.0824   24.0615 C   0  0  0  0  0  0  0  0  0  0  0  0
   13.2046  -19.4725   24.6555 C   0  0  0  0  0  0  0  0  0  0  0  0
   13.5431  -20.6811   24.6154 O   0  0  0  0  0  0  0  0  0  0  0  0
   14.0511  -18.5665   25.2528 O   0  0  0  0  0  0  0  0  0  0  0  0
  2  1  1  1
  2  3  1  0
  2 10  1  0
  3  4  1  0
  4  5  2  0
  4  9  1  0
  5  6  1  0
  6  7  2  0
  8  7  1  0
  9  8  2  0
 10 11  2  0
 12 10  1  0
 12 13  1  0
 13 14  1  1
 14 15  1  0
 15 16  2  0
 16 17  1  0
 18 17  1  0
 19 18  2  0
 20 19  1  0
 21 22  1  0
 21 20  2  0
 22 23  2  0
 23 15  1  0
 23 18  1  0
 24 13  1  0
 24 25  2  0
 26 24  1  0
 27 26  1  0
 27 28  1  0
 28 29  2  0
 28 30  1  0
M  END
$$$$
