FWG.pdb
     RDKit          3D

 30 32  0  0  1  0  0  0  0  0999 V2000
    5.0475  -19.2393   23.2243 N   0  0  0  0  0  0  0  0  0  0  0  0
    6.2799  -19.1724   23.9442 C   0  0  1  0  0  0  0  0  0  0  0  0
    7.0222  -20.4679   23.9156 C   0  0  0  0  0  0  0  0  0  0  0  0
    6.3932  -21.4184   24.8533 C   0  0  0  0  0  0  0  0  0  0  0  0
    5.5524  -22.3790   24.3693 C   0  0  0  0  0  0  0  0  0  0  0  0
    4.9806  -23.2489   25.2716 C   0  0  0  0  0  0  0  0  0  0  0  0
    5.2559  -23.1441   26.6208 C   0  0  0  0  0  0  0  0  0  0  0  0
    6.1120  -22.1658   27.1128 C   0  0  0  0  0  0  0  0  0  0  0  0
    6.6707  -21.3090   26.1929 C   0  0  0  0  0  0  0  0  0  0  0  0
    7.1264  -18.0292   23.4928 C   0  0  0  0  0  0  0  0  0  0  0  0
    7.1356  -17.7031   22.2579 O   0  0  0  0  0  0  0  0  0  0  0  0
    7.9439  -17.2520   24.3390 N   0  0  0  0  0  0  0  0  0  0  0  0
    8.7959  -16.1838   23.8835 C   0  0  1  0  0  0  0  0  0  0  0  0
    8.9584  -15.1106   24.8977 C   0  0  0  0  0  0  0  0  0  0  0  0
    7.7000  -14.5626   25.4356 C   0  0  0  0  0  0  0  0  0  0  0  0
    6.5720  -15.3073   25.7549 C   0  0  0  0  0  0  0  0  0  0  0  0
    5.6043  -14.4928   26.1957 N   0  0  0  0  0  0  0  0  0  0  0  0
    6.0489  -13.2220   26.1827 C   0  0  0  0  0  0  0  0  0  0  0  0
    5.4155  -12.0528   26.5530 C   0  0  0  0  0  0  0  0  0  0  0  0
    6.1305  -10.8835   26.4412 C   0  0  0  0  0  0  0  0  0  0  0  0
    7.4419  -10.8802   25.9727 C   0  0  0  0  0  0  0  0  0  0  0  0
    8.0255  -12.0761   25.6165 C   0  0  0  0  0  0  0  0  0  0  0  0
    7.3503  -13.2611   25.7115 C   0  0  0  0  0  0  0  0  0  0  0  0
   10.0885  -16.7164   23.3667 C   0  0  0  0  0  0  0  0  0  0  0  0
   10.9668  -17.0624   24.1872 O   0  0  0  0  0  0  0  0  0  0  0  0
   10.3577  -16.8452   21.9788 N   0  0  0  0  0  0  0  0  0  0  0  0
   11.2942  -16.0016   21.2677 C   0  0  0  0  0  0  0  0  0  0  0  0
   12.5832  -16.6602   21.0123 C   0  0  0  0  0  0  0  0  0  0  0  0
   12.6518  -17.5094   20.0898 O   0  0  0  0  0  0  0  0  0  0  0  0
   13.7157  -16.3829   21.7437 O   0  0  0  0  0  0  0  0  0  0  0  0
  2  1  1  6
  2  3  1  0
  2 10  1  0
  3  4  1  0
  4  5  2  0
  4  9  1  0
  5  6  1  0
  6  7  2  0
  8  7  1  0
  9  8  2  0
 10 11  2  0
 12 10  1  0
 12 13  1  0
 13 14  1  1
 14 15  1  0
 15 16  2  0
 16 17  1  0
 18 17  1  0
 19 18  2  0
 20 19  1  0
 21 22  1  0
 21 20  2  0
 22 23  2  0
 23 15  1  0
 23 18  1  0
 24 13  1  0
 24 25  2  0
 26 24  1  0
 27 26  1  0
 27 28  1  0
 28 29  2  0
 28 30  1  0
M  END
$$$$
