FWG.pdb
     RDKit          3D

 30 32  0  0  1  0  0  0  0  0999 V2000
    6.0451  -18.8520   22.1430 N   0  0  0  0  0  0  0  0  0  0  0  0
    5.8352  -17.5139   21.6882 C   0  0  1  0  0  0  0  0  0  0  0  0
    4.4478  -17.0346   21.9629 C   0  0  0  0  0  0  0  0  0  0  0  0
    3.4749  -18.0263   21.4647 C   0  0  0  0  0  0  0  0  0  0  0  0
    3.2241  -18.1034   20.1248 C   0  0  0  0  0  0  0  0  0  0  0  0
    2.3093  -19.0386   19.6933 C   0  0  0  0  0  0  0  0  0  0  0  0
    1.6716  -19.8671   20.5955 C   0  0  0  0  0  0  0  0  0  0  0  0
    1.9274  -19.7880   21.9594 C   0  0  0  0  0  0  0  0  0  0  0  0
    2.8445  -18.8467   22.3663 C   0  0  0  0  0  0  0  0  0  0  0  0
    6.8691  -16.5775   22.2186 C   0  0  0  0  0  0  0  0  0  0  0  0
    6.8173  -15.3406   21.9044 O   0  0  0  0  0  0  0  0  0  0  0  0
    7.9333  -16.9518   23.0647 N   0  0  0  0  0  0  0  0  0  0  0  0
    8.9126  -16.0343   23.5878 C   0  0  1  0  0  0  0  0  0  0  0  0
    8.8473  -15.9110   25.0667 C   0  0  0  0  0  0  0  0  0  0  0  0
    7.6804  -15.1719   25.5819 C   0  0  0  0  0  0  0  0  0  0  0  0
    6.4218  -15.7147   25.8062 C   0  0  0  0  0  0  0  0  0  0  0  0
    5.5934  -14.7618   26.2534 N   0  0  0  0  0  0  0  0  0  0  0  0
    6.2584  -13.5941   26.3368 C   0  0  0  0  0  0  0  0  0  0  0  0
    5.8257  -12.3500   26.7496 C   0  0  0  0  0  0  0  0  0  0  0  0
    6.7434  -11.3260   26.7401 C   0  0  0  0  0  0  0  0  0  0  0  0
    8.0574  -11.5369   26.3298 C   0  0  0  0  0  0  0  0  0  0  0  0
    8.4356  -12.7988   25.9273 C   0  0  0  0  0  0  0  0  0  0  0  0
    7.5551  -13.8446   25.9209 C   0  0  0  0  0  0  0  0  0  0  0  0
   10.2742  -16.3591   23.0761 C   0  0  0  0  0  0  0  0  0  0  0  0
   11.2366  -15.6447   23.4336 O   0  0  0  0  0  0  0  0  0  0  0  0
   10.5176  -17.4488   22.1994 N   0  0  0  0  0  0  0  0  0  0  0  0
   11.8181  -17.7435   21.6372 C   0  0  0  0  0  0  0  0  0  0  0  0
   12.7252  -18.3929   22.5942 C   0  0  0  0  0  0  0  0  0  0  0  0
   12.2950  -18.6609   23.7431 O   0  0  0  0  0  0  0  0  0  0  0  0
   14.0254  -18.7180   22.2807 O   0  0  0  0  0  0  0  0  0  0  0  0
  2  1  1  1
  2  3  1  0
  2 10  1  0
  3  4  1  0
  4  5  2  0
  4  9  1  0
  5  6  1  0
  6  7  2  0
  8  7  1  0
  9  8  2  0
 10 11  2  0
 12 10  1  0
 12 13  1  0
 13 14  1  1
 14 15  1  0
 15 16  2  0
 16 17  1  0
 18 17  1  0
 19 18  2  0
 20 19  1  0
 21 22  1  0
 21 20  2  0
 22 23  2  0
 23 15  1  0
 23 18  1  0
 24 13  1  0
 24 25  2  0
 26 24  1  0
 27 26  1  0
 27 28  1  0
 28 29  2  0
 28 30  1  0
M  END
$$$$
