FWG.pdb
     RDKit          3D

 30 32  0  0  1  0  0  0  0  0999 V2000
    7.9315  -17.7691   21.5962 N   0  0  0  0  0  0  0  0  0  0  0  0
    8.2052  -16.3705   21.4941 C   0  0  1  0  0  0  0  0  0  0  0  0
    6.9711  -15.5704   21.2353 C   0  0  0  0  0  0  0  0  0  0  0  0
    7.2983  -14.4261   20.3626 C   0  0  0  0  0  0  0  0  0  0  0  0
    7.1779  -13.1565   20.8500 C   0  0  0  0  0  0  0  0  0  0  0  0
    7.4895  -12.1110   20.0088 C   0  0  0  0  0  0  0  0  0  0  0  0
    7.9093  -12.3504   18.7152 C   0  0  0  0  0  0  0  0  0  0  0  0
    8.0316  -13.6432   18.2196 C   0  0  0  0  0  0  0  0  0  0  0  0
    7.7149  -14.6705   19.0780 C   0  0  0  0  0  0  0  0  0  0  0  0
    8.9659  -15.8651   22.6744 C   0  0  0  0  0  0  0  0  0  0  0  0
    9.5123  -14.7117   22.6230 O   0  0  0  0  0  0  0  0  0  0  0  0
    9.1396  -16.5733   23.8812 N   0  0  0  0  0  0  0  0  0  0  0  0
    9.9265  -16.1006   24.9911 C   0  0  1  0  0  0  0  0  0  0  0  0
    9.1805  -16.1336   26.2753 C   0  0  0  0  0  0  0  0  0  0  0  0
    7.8827  -15.4345   26.2631 C   0  0  0  0  0  0  0  0  0  0  0  0
    6.6418  -16.0479   26.1496 C   0  0  0  0  0  0  0  0  0  0  0  0
    5.6778  -15.1179   26.1501 N   0  0  0  0  0  0  0  0  0  0  0  0
    6.2342  -13.8969   26.2612 C   0  0  0  0  0  0  0  0  0  0  0  0
    5.6439  -12.6502   26.3123 C   0  0  0  0  0  0  0  0  0  0  0  0
    6.4747  -11.5620   26.4409 C   0  0  0  0  0  0  0  0  0  0  0  0
    7.8570  -11.7129   26.5163 C   0  0  0  0  0  0  0  0  0  0  0  0
    8.3932  -12.9805   26.4599 C   0  0  0  0  0  0  0  0  0  0  0  0
    7.6036  -14.0892   26.3319 C   0  0  0  0  0  0  0  0  0  0  0  0
   11.2420  -16.7987   25.0476 C   0  0  0  0  0  0  0  0  0  0  0  0
   11.9731  -16.6229   26.0471 O   0  0  0  0  0  0  0  0  0  0  0  0
   11.6940  -17.6551   24.0095 N   0  0  0  0  0  0  0  0  0  0  0  0
   12.9344  -18.3979   24.0734 C   0  0  0  0  0  0  0  0  0  0  0  0
   14.0781  -17.6569   23.5227 C   0  0  0  0  0  0  0  0  0  0  0  0
   14.1243  -17.4569   22.2838 O   0  0  0  0  0  0  0  0  0  0  0  0
   15.0986  -17.1749   24.3104 O   0  0  0  0  0  0  0  0  0  0  0  0
  2  1  1  1
  2  3  1  0
  2 10  1  0
  3  4  1  0
  4  5  2  0
  4  9  1  0
  5  6  1  0
  6  7  2  0
  8  7  1  0
  9  8  2  0
 10 11  2  0
 12 10  1  0
 12 13  1  0
 13 14  1  1
 14 15  1  0
 15 16  2  0
 16 17  1  0
 18 17  1  0
 19 18  2  0
 20 19  1  0
 21 22  1  0
 21 20  2  0
 22 23  2  0
 23 15  1  0
 23 18  1  0
 24 13  1  0
 24 25  2  0
 26 24  1  0
 27 26  1  0
 27 28  1  0
 28 29  2  0
 28 30  1  0
M  END
$$$$
