FWG.pdb
     RDKit          3D

 30 32  0  0  1  0  0  0  0  0999 V2000
   10.3707  -17.9790   19.5254 N   0  0  0  0  0  0  0  0  0  0  0  0
    9.9486  -18.3905   20.8269 C   0  0  1  0  0  0  0  0  0  0  0  0
   10.7973  -19.4905   21.3747 C   0  0  0  0  0  0  0  0  0  0  0  0
   10.6493  -20.6942   20.5336 C   0  0  0  0  0  0  0  0  0  0  0  0
    9.5706  -21.5107   20.7170 C   0  0  0  0  0  0  0  0  0  0  0  0
    9.4636  -22.6267   19.9165 C   0  0  0  0  0  0  0  0  0  0  0  0
   10.4227  -22.9018   18.9617 C   0  0  0  0  0  0  0  0  0  0  0  0
   11.5207  -22.0701   18.7756 C   0  0  0  0  0  0  0  0  0  0  0  0
   11.6058  -20.9622   19.5865 C   0  0  0  0  0  0  0  0  0  0  0  0
    9.8455  -17.2375   21.7687 C   0  0  0  0  0  0  0  0  0  0  0  0
   10.6193  -16.2324   21.6189 O   0  0  0  0  0  0  0  0  0  0  0  0
    8.9381  -17.1585   22.8452 N   0  0  0  0  0  0  0  0  0  0  0  0
    8.8201  -16.0224   23.7225 C   0  0  1  0  0  0  0  0  0  0  0  0
    7.5756  -16.0534   24.5332 C   0  0  0  0  0  0  0  0  0  0  0  0
    7.2931  -14.8221   25.2930 C   0  0  0  0  0  0  0  0  0  0  0  0
    6.2647  -13.9293   25.0207 C   0  0  0  0  0  0  0  0  0  0  0  0
    6.3100  -12.9111   25.8900 N   0  0  0  0  0  0  0  0  0  0  0  0
    7.3387  -13.0935   26.7393 C   0  0  0  0  0  0  0  0  0  0  0  0
    7.7686  -12.3183   27.7972 C   0  0  0  0  0  0  0  0  0  0  0  0
    8.8587  -12.7650   28.5066 C   0  0  0  0  0  0  0  0  0  0  0  0
    9.5028  -13.9528   28.1700 C   0  0  0  0  0  0  0  0  0  0  0  0
    9.0318  -14.6875   27.1041 C   0  0  0  0  0  0  0  0  0  0  0  0
    7.9517  -14.2795   26.3720 C   0  0  0  0  0  0  0  0  0  0  0  0
   10.0568  -15.8457   24.5353 C   0  0  0  0  0  0  0  0  0  0  0  0
   10.2611  -14.7416   25.0862 O   0  0  0  0  0  0  0  0  0  0  0  0
   11.0094  -16.8843   24.7066 N   0  0  0  0  0  0  0  0  0  0  0  0
   12.2187  -16.7348   25.4874 C   0  0  0  0  0  0  0  0  0  0  0  0
   12.2463  -17.5975   26.6771 C   0  0  0  0  0  0  0  0  0  0  0  0
   11.2770  -17.5527   27.4743 O   0  0  0  0  0  0  0  0  0  0  0  0
   13.2910  -18.4505   26.9509 O   0  0  0  0  0  0  0  0  0  0  0  0
  2  1  1  6
  2  3  1  0
  2 10  1  0
  3  4  1  0
  4  5  2  0
  4  9  1  0
  5  6  1  0
  6  7  2  0
  8  7  1  0
  9  8  2  0
 10 11  2  0
 12 10  1  0
 12 13  1  0
 13 14  1  1
 14 15  1  0
 15 16  2  0
 16 17  1  0
 18 17  1  0
 19 18  2  0
 20 19  1  0
 21 22  1  0
 21 20  2  0
 22 23  2  0
 23 15  1  0
 23 18  1  0
 24 13  1  0
 24 25  2  0
 26 24  1  0
 27 26  1  0
 27 28  1  0
 28 29  2  0
 28 30  1  0
M  END
$$$$
