FWG.pdb
     RDKit          3D

 30 32  0  0  1  0  0  0  0  0999 V2000
    6.4022  -18.0149   21.6093 N   0  0  0  0  0  0  0  0  0  0  0  0
    7.0562  -16.7755   21.3306 C   0  0  1  0  0  0  0  0  0  0  0  0
    6.1646  -15.8144   20.6153 C   0  0  0  0  0  0  0  0  0  0  0  0
    6.9564  -14.6594   20.1490 C   0  0  0  0  0  0  0  0  0  0  0  0
    6.8406  -13.4631   20.7965 C   0  0  0  0  0  0  0  0  0  0  0  0
    7.5922  -12.4050   20.3347 C   0  0  0  0  0  0  0  0  0  0  0  0
    8.4332  -12.5601   19.2504 C   0  0  0  0  0  0  0  0  0  0  0  0
    8.5506  -13.7783   18.5916 C   0  0  0  0  0  0  0  0  0  0  0  0
    7.7903  -14.8199   19.0709 C   0  0  0  0  0  0  0  0  0  0  0  0
    7.6594  -16.1767   22.5573 C   0  0  0  0  0  0  0  0  0  0  0  0
    6.9538  -15.4079   23.2937 O   0  0  0  0  0  0  0  0  0  0  0  0
    8.9845  -16.3932   22.9883 N   0  0  0  0  0  0  0  0  0  0  0  0
    9.5695  -15.7730   24.1491 C   0  0  1  0  0  0  0  0  0  0  0  0
    8.8745  -16.1463   25.4078 C   0  0  0  0  0  0  0  0  0  0  0  0
    7.7081  -15.3119   25.7494 C   0  0  0  0  0  0  0  0  0  0  0  0
    6.3824  -15.7207   25.6847 C   0  0  0  0  0  0  0  0  0  0  0  0
    5.5809  -14.7086   26.0418 N   0  0  0  0  0  0  0  0  0  0  0  0
    6.3290  -13.6312   26.3453 C   0  0  0  0  0  0  0  0  0  0  0  0
    5.9492  -12.3733   26.7679 C   0  0  0  0  0  0  0  0  0  0  0  0
    6.9480  -11.4614   27.0169 C   0  0  0  0  0  0  0  0  0  0  0  0
    8.2895  -11.7950   26.8489 C   0  0  0  0  0  0  0  0  0  0  0  0
    8.6125  -13.0651   26.4245 C   0  0  0  0  0  0  0  0  0  0  0  0
    7.6509  -14.0019   26.1652 C   0  0  0  0  0  0  0  0  0  0  0  0
   11.0417  -16.0015   24.1907 C   0  0  0  0  0  0  0  0  0  0  0  0
   11.6968  -15.5269   25.1446 O   0  0  0  0  0  0  0  0  0  0  0  0
   11.7259  -16.7379   23.1881 N   0  0  0  0  0  0  0  0  0  0  0  0
   13.1448  -17.0189   23.2352 C   0  0  0  0  0  0  0  0  0  0  0  0
   13.6199  -17.7798   22.0708 C   0  0  0  0  0  0  0  0  0  0  0  0
   12.7720  -18.3327   21.3276 O   0  0  0  0  0  0  0  0  0  0  0  0
   14.9553  -17.9099   21.7642 O   0  0  0  0  0  0  0  0  0  0  0  0
  2  1  1  1
  2  3  1  0
  2 10  1  0
  3  4  1  0
  4  5  2  0
  4  9  1  0
  5  6  1  0
  6  7  2  0
  8  7  1  0
  9  8  2  0
 10 11  2  0
 12 10  1  0
 12 13  1  0
 13 14  1  1
 14 15  1  0
 15 16  2  0
 16 17  1  0
 18 17  1  0
 19 18  2  0
 20 19  1  0
 21 22  1  0
 21 20  2  0
 22 23  2  0
 23 15  1  0
 23 18  1  0
 24 13  1  0
 24 25  2  0
 26 24  1  0
 27 26  1  0
 27 28  1  0
 28 29  2  0
 28 30  1  0
M  END
$$$$
