FWG.pdb
     RDKit          3D

 30 32  0  0  1  0  0  0  0  0999 V2000
    7.2720  -14.6438   22.2405 N   0  0  0  0  0  0  0  0  0  0  0  0
    8.4720  -15.4018   22.0765 C   0  0  1  0  0  0  0  0  0  0  0  0
    9.3563  -14.8373   21.0137 C   0  0  0  0  0  0  0  0  0  0  0  0
    8.5298  -14.3344   19.8991 C   0  0  0  0  0  0  0  0  0  0  0  0
    8.4093  -12.9876   19.7097 C   0  0  0  0  0  0  0  0  0  0  0  0
    7.6291  -12.5517   18.6614 C   0  0  0  0  0  0  0  0  0  0  0  0
    6.9933  -13.4564   17.8342 C   0  0  0  0  0  0  0  0  0  0  0  0
    7.1165  -14.8273   18.0276 C   0  0  0  0  0  0  0  0  0  0  0  0
    7.9005  -15.2385   19.0806 C   0  0  0  0  0  0  0  0  0  0  0  0
    9.1941  -15.5867   23.3694 C   0  0  0  0  0  0  0  0  0  0  0  0
    9.9565  -14.6577   23.8019 O   0  0  0  0  0  0  0  0  0  0  0  0
    9.1050  -16.7358   24.1819 N   0  0  0  0  0  0  0  0  0  0  0  0
    9.8052  -16.9012   25.4295 C   0  0  1  0  0  0  0  0  0  0  0  0
    8.9627  -16.5663   26.6063 C   0  0  0  0  0  0  0  0  0  0  0  0
    7.8687  -15.6143   26.3418 C   0  0  0  0  0  0  0  0  0  0  0  0
    6.6293  -15.9440   25.8088 C   0  0  0  0  0  0  0  0  0  0  0  0
    5.8854  -14.8374   25.6802 N   0  0  0  0  0  0  0  0  0  0  0  0
    6.5883  -13.7732   26.1117 C   0  0  0  0  0  0  0  0  0  0  0  0
    6.2358  -12.4404   26.1782 C   0  0  0  0  0  0  0  0  0  0  0  0
    7.1682  -11.5641   26.6819 C   0  0  0  0  0  0  0  0  0  0  0  0
    8.4185  -12.0051   27.1079 C   0  0  0  0  0  0  0  0  0  0  0  0
    8.7181  -13.3467   27.0187 C   0  0  0  0  0  0  0  0  0  0  0  0
    7.8206  -14.2516   26.5238 C   0  0  0  0  0  0  0  0  0  0  0  0
   10.4362  -18.2489   25.5121 C   0  0  0  0  0  0  0  0  0  0  0  0
    9.7171  -19.2598   25.3530 O   0  0  0  0  0  0  0  0  0  0  0  0
   11.8220  -18.4260   25.7642 N   0  0  0  0  0  0  0  0  0  0  0  0
   12.4683  -19.7207   25.7863 C   0  0  0  0  0  0  0  0  0  0  0  0
   13.9286  -19.6328   25.9287 C   0  0  0  0  0  0  0  0  0  0  0  0
   14.6003  -19.1859   24.9664 O   0  0  0  0  0  0  0  0  0  0  0  0
   14.5871  -20.0208   27.0733 O   0  0  0  0  0  0  0  0  0  0  0  0
  2  1  1  1
  2  3  1  0
  2 10  1  0
  3  4  1  0
  4  5  2  0
  4  9  1  0
  5  6  1  0
  6  7  2  0
  8  7  1  0
  9  8  2  0
 10 11  2  0
 12 10  1  0
 12 13  1  0
 13 14  1  1
 14 15  1  0
 15 16  2  0
 16 17  1  0
 18 17  1  0
 19 18  2  0
 20 19  1  0
 21 22  1  0
 21 20  2  0
 22 23  2  0
 23 15  1  0
 23 18  1  0
 24 13  1  0
 24 25  2  0
 26 24  1  0
 27 26  1  0
 27 28  1  0
 28 29  2  0
 28 30  1  0
M  END
$$$$
