FWG.pdb
     RDKit          3D

 30 32  0  0  1  0  0  0  0  0999 V2000
    6.9042  -16.6552   20.1833 N   0  0  0  0  0  0  0  0  0  0  0  0
    7.6180  -17.3438   21.2118 C   0  0  1  0  0  0  0  0  0  0  0  0
    8.4862  -18.4300   20.6671 C   0  0  0  0  0  0  0  0  0  0  0  0
    7.6463  -19.5652   20.2380 C   0  0  0  0  0  0  0  0  0  0  0  0
    8.2435  -20.7019   19.7738 C   0  0  0  0  0  0  0  0  0  0  0  0
    7.4306  -21.7420   19.3798 C   0  0  0  0  0  0  0  0  0  0  0  0
    6.0565  -21.6283   19.4557 C   0  0  0  0  0  0  0  0  0  0  0  0
    5.4493  -20.4707   19.9283 C   0  0  0  0  0  0  0  0  0  0  0  0
    6.2814  -19.4461   20.3159 C   0  0  0  0  0  0  0  0  0  0  0  0
    8.3767  -16.4034   22.0876 C   0  0  0  0  0  0  0  0  0  0  0  0
    8.7362  -15.2674   21.6274 O   0  0  0  0  0  0  0  0  0  0  0  0
    8.7430  -16.6684   23.4232 N   0  0  0  0  0  0  0  0  0  0  0  0
    9.4315  -15.7327   24.2746 C   0  0  1  0  0  0  0  0  0  0  0  0
    8.8828  -15.7054   25.6548 C   0  0  0  0  0  0  0  0  0  0  0  0
    7.6044  -14.9871   25.8057 C   0  0  0  0  0  0  0  0  0  0  0  0
    6.3442  -15.5519   25.6578 C   0  0  0  0  0  0  0  0  0  0  0  0
    5.4057  -14.6137   25.8408 N   0  0  0  0  0  0  0  0  0  0  0  0
    5.9981  -13.4345   26.1080 C   0  0  0  0  0  0  0  0  0  0  0  0
    5.4434  -12.1984   26.3714 C   0  0  0  0  0  0  0  0  0  0  0  0
    6.3070  -11.1585   26.6236 C   0  0  0  0  0  0  0  0  0  0  0  0
    7.6868  -11.3461   26.6133 C   0  0  0  0  0  0  0  0  0  0  0  0
    8.1868  -12.6011   26.3439 C   0  0  0  0  0  0  0  0  0  0  0  0
    7.3637  -13.6622   26.0874 C   0  0  0  0  0  0  0  0  0  0  0  0
   10.9051  -15.9494   24.2230 C   0  0  0  0  0  0  0  0  0  0  0  0
   11.6632  -14.9825   24.4571 O   0  0  0  0  0  0  0  0  0  0  0  0
   11.4782  -17.2121   23.9187 N   0  0  0  0  0  0  0  0  0  0  0  0
   12.9034  -17.4630   23.9287 C   0  0  0  0  0  0  0  0  0  0  0  0
   13.2518  -18.8225   23.4918 C   0  0  0  0  0  0  0  0  0  0  0  0
   12.4557  -19.4336   22.7371 O   0  0  0  0  0  0  0  0  0  0  0  0
   14.4142  -19.4506   23.8773 O   0  0  0  0  0  0  0  0  0  0  0  0
  2  1  1  6
  2  3  1  0
  2 10  1  0
  3  4  1  0
  4  5  2  0
  4  9  1  0
  5  6  1  0
  6  7  2  0
  8  7  1  0
  9  8  2  0
 10 11  2  0
 12 10  1  0
 12 13  1  0
 13 14  1  1
 14 15  1  0
 15 16  2  0
 16 17  1  0
 18 17  1  0
 19 18  2  0
 20 19  1  0
 21 22  1  0
 21 20  2  0
 22 23  2  0
 23 15  1  0
 23 18  1  0
 24 13  1  0
 24 25  2  0
 26 24  1  0
 27 26  1  0
 27 28  1  0
 28 29  2  0
 28 30  1  0
M  END
$$$$
