FWG.pdb
     RDKit          3D

 30 32  0  0  1  0  0  0  0  0999 V2000
    6.9119  -15.1677   21.7356 N   0  0  0  0  0  0  0  0  0  0  0  0
    8.3243  -14.9517   21.7371 C   0  0  1  0  0  0  0  0  0  0  0  0
    8.7112  -13.7373   20.9588 C   0  0  0  0  0  0  0  0  0  0  0  0
    8.1827  -13.8422   19.5847 C   0  0  0  0  0  0  0  0  0  0  0  0
    7.3739  -14.8922   19.2569 C   0  0  0  0  0  0  0  0  0  0  0  0
    6.8991  -14.9611   17.9655 C   0  0  0  0  0  0  0  0  0  0  0  0
    7.2365  -13.9936   17.0396 C   0  0  0  0  0  0  0  0  0  0  0  0
    8.0600  -12.9250   17.3741 C   0  0  0  0  0  0  0  0  0  0  0  0
    8.5216  -12.8777   18.6692 C   0  0  0  0  0  0  0  0  0  0  0  0
    8.8829  -14.9343   23.1209 C   0  0  0  0  0  0  0  0  0  0  0  0
    9.0255  -13.8192   23.7271 O   0  0  0  0  0  0  0  0  0  0  0  0
    9.2798  -16.0797   23.8412 N   0  0  0  0  0  0  0  0  0  0  0  0
    9.9768  -16.0423   25.1010 C   0  0  1  0  0  0  0  0  0  0  0  0
    9.0763  -16.2752   26.2593 C   0  0  0  0  0  0  0  0  0  0  0  0
    7.8409  -15.4708   26.2628 C   0  0  0  0  0  0  0  0  0  0  0  0
    6.5843  -15.9284   25.8878 C   0  0  0  0  0  0  0  0  0  0  0  0
    5.6936  -14.9330   25.9893 N   0  0  0  0  0  0  0  0  0  0  0  0
    6.3146  -13.8195   26.4221 C   0  0  0  0  0  0  0  0  0  0  0  0
    5.8095  -12.5614   26.6813 C   0  0  0  0  0  0  0  0  0  0  0  0
    6.6908  -11.6064   27.1311 C   0  0  0  0  0  0  0  0  0  0  0  0
    8.0396  -11.8982   27.3174 C   0  0  0  0  0  0  0  0  0  0  0  0
    8.4905  -13.1706   27.0428 C   0  0  0  0  0  0  0  0  0  0  0  0
    7.6484  -14.1495   26.5935 C   0  0  0  0  0  0  0  0  0  0  0  0
   11.1653  -16.9414   25.0796 C   0  0  0  0  0  0  0  0  0  0  0  0
   11.8030  -17.1197   26.1407 O   0  0  0  0  0  0  0  0  0  0  0  0
   11.5984  -17.6020   23.9000 N   0  0  0  0  0  0  0  0  0  0  0  0
   12.7499  -18.4774   23.8546 C   0  0  0  0  0  0  0  0  0  0  0  0
   14.0270  -17.7498   23.8631 C   0  0  0  0  0  0  0  0  0  0  0  0
   14.1623  -16.7646   23.0963 O   0  0  0  0  0  0  0  0  0  0  0  0
   15.0782  -18.1057   24.6771 O   0  0  0  0  0  0  0  0  0  0  0  0
  2  1  1  1
  2  3  1  0
  2 10  1  0
  3  4  1  0
  4  5  2  0
  4  9  1  0
  5  6  1  0
  6  7  2  0
  8  7  1  0
  9  8  2  0
 10 11  2  0
 12 10  1  0
 12 13  1  0
 13 14  1  1
 14 15  1  0
 15 16  2  0
 16 17  1  0
 18 17  1  0
 19 18  2  0
 20 19  1  0
 21 22  1  0
 21 20  2  0
 22 23  2  0
 23 15  1  0
 23 18  1  0
 24 13  1  0
 24 25  2  0
 26 24  1  0
 27 26  1  0
 27 28  1  0
 28 29  2  0
 28 30  1  0
M  END
$$$$
