ACG.pdb
     RDKit          3D

 16 15  0  0  1  0  0  0  0  0999 V2000
    7.9163  -18.8415   19.0088 C   0  0  0  0  0  0  0  0  0  0  0  0
    7.8162  -17.3630   18.7749 C   0  0  2  0  0  0  0  0  0  0  0  0
    8.3583  -16.9677   17.4913 N   0  0  0  0  0  0  0  0  0  0  0  0
    8.4830  -16.6722   19.8959 C   0  0  0  0  0  0  0  0  0  0  0  0
    9.7036  -16.4105   19.7743 O   0  0  0  0  0  0  0  0  0  0  0  0
    7.8411  -16.2880   21.0912 N   0  0  0  0  0  0  0  0  0  0  0  0
    8.5638  -15.5570   22.0733 C   0  0  1  0  0  0  0  0  0  0  0  0
    7.7281  -15.0516   23.2176 C   0  0  0  0  0  0  0  0  0  0  0  0
    8.8092  -14.0110   24.2459 S   0  0  0  0  0  0  0  0  0  0  0  0
    9.5974  -16.4703   22.6795 C   0  0  0  0  0  0  0  0  0  0  0  0
    9.2599  -17.6443   22.9733 O   0  0  0  0  0  0  0  0  0  0  0  0
   10.9125  -16.0574   22.9247 N   0  0  0  0  0  0  0  0  0  0  0  0
   11.8715  -16.9737   23.4817 C   0  0  0  0  0  0  0  0  0  0  0  0
   13.1779  -16.3114   23.6265 C   0  0  0  0  0  0  0  0  0  0  0  0
   14.0361  -16.1761   22.5195 O   0  0  0  0  0  0  0  0  0  0  0  0
   13.5312  -15.8632   24.7449 O   0  0  0  0  0  0  0  0  0  0  0  0
  2  3  1  0
  2  1  1  1
  4  2  1  0
  5  4  2  0
  6  4  1  0
  7  6  1  0
  7  8  1  1
  9  8  1  0
 10  7  1  0
 10 12  1  0
 11 10  2  0
 13 12  1  0
 14 13  1  0
 15 14  1  0
 16 14  2  0
M  END
$$$$
