ACG.pdb
     RDKit          3D

 16 15  0  0  1  0  0  0  0  0999 V2000
    8.5122  -15.1536   17.9740 C   0  0  0  0  0  0  0  0  0  0  0  0
    7.9424  -14.1794   18.9623 C   0  0  2  0  0  0  0  0  0  0  0  0
    7.8970  -12.8277   18.4439 N   0  0  0  0  0  0  0  0  0  0  0  0
    8.7304  -14.2706   20.2070 C   0  0  0  0  0  0  0  0  0  0  0  0
    9.8723  -13.7520   20.2117 O   0  0  0  0  0  0  0  0  0  0  0  0
    8.2861  -14.9002   21.3880 N   0  0  0  0  0  0  0  0  0  0  0  0
    9.0518  -14.7788   22.5797 C   0  0  1  0  0  0  0  0  0  0  0  0
    8.3188  -15.1631   23.8359 C   0  0  0  0  0  0  0  0  0  0  0  0
    6.8476  -14.0982   23.9394 S   0  0  0  0  0  0  0  0  0  0  0  0
   10.2330  -15.7087   22.4816 C   0  0  0  0  0  0  0  0  0  0  0  0
   10.0655  -16.8348   21.9502 O   0  0  0  0  0  0  0  0  0  0  0  0
   11.5026  -15.3624   22.9594 N   0  0  0  0  0  0  0  0  0  0  0  0
   12.6376  -16.2031   22.6864 C   0  0  0  0  0  0  0  0  0  0  0  0
   12.9501  -17.0281   23.8647 C   0  0  0  0  0  0  0  0  0  0  0  0
   14.2826  -17.1971   24.2843 O   0  0  0  0  0  0  0  0  0  0  0  0
   12.0228  -17.5858   24.5014 O   0  0  0  0  0  0  0  0  0  0  0  0
  2  3  1  0
  2  1  1  6
  4  2  1  0
  5  4  2  0
  6  4  1  0
  7  6  1  0
  7  8  1  1
  9  8  1  0
 10  7  1  0
 10 12  1  0
 11 10  2  0
 13 12  1  0
 14 13  1  0
 15 14  1  0
 16 14  2  0
M  END
$$$$
