ACG.pdb
     RDKit          3D

 16 15  0  0  1  0  0  0  0  0999 V2000
    7.5883  -13.0428   19.7241 C   0  0  0  0  0  0  0  0  0  0  0  0
    7.5852  -14.4015   20.3603 C   0  0  2  0  0  0  0  0  0  0  0  0
    6.2677  -15.0031   20.3742 N   0  0  0  0  0  0  0  0  0  0  0  0
    8.1531  -14.2770   21.7169 C   0  0  0  0  0  0  0  0  0  0  0  0
    9.3676  -13.9795   21.8140 O   0  0  0  0  0  0  0  0  0  0  0  0
    7.4231  -14.4698   22.9080 N   0  0  0  0  0  0  0  0  0  0  0  0
    8.0739  -14.3193   24.1630 C   0  0  1  0  0  0  0  0  0  0  0  0
    7.1445  -14.1287   25.3306 C   0  0  0  0  0  0  0  0  0  0  0  0
    6.0514  -12.7346   24.9172 S   0  0  0  0  0  0  0  0  0  0  0  0
    8.8530  -15.5770   24.4474 C   0  0  0  0  0  0  0  0  0  0  0  0
    8.2246  -16.5981   24.8228 O   0  0  0  0  0  0  0  0  0  0  0  0
   10.2445  -15.6456   24.3084 N   0  0  0  0  0  0  0  0  0  0  0  0
   10.9460  -16.8673   24.5994 C   0  0  0  0  0  0  0  0  0  0  0  0
   12.3859  -16.6954   24.3472 C   0  0  0  0  0  0  0  0  0  0  0  0
   13.2946  -17.7194   24.6725 O   0  0  0  0  0  0  0  0  0  0  0  0
   12.8086  -15.6282   23.8384 O   0  0  0  0  0  0  0  0  0  0  0  0
  2  3  1  0
  2  1  1  1
  4  2  1  0
  5  4  2  0
  6  4  1  0
  7  6  1  0
  7  8  1  1
  9  8  1  0
 10  7  1  0
 10 12  1  0
 11 10  2  0
 13 12  1  0
 14 13  1  0
 15 14  1  0
 16 14  2  0
M  END
$$$$
