ACG.pdb
     RDKit          3D

 16 15  0  0  1  0  0  0  0  0999 V2000
    7.3073  -17.6183   19.1269 C   0  0  0  0  0  0  0  0  0  0  0  0
    7.7179  -18.0055   20.5169 C   0  0  2  0  0  0  0  0  0  0  0  0
    6.5867  -18.3563   21.3507 N   0  0  0  0  0  0  0  0  0  0  0  0
    8.5080  -16.8984   21.0900 C   0  0  0  0  0  0  0  0  0  0  0  0
    9.5136  -16.5090   20.4495 O   0  0  0  0  0  0  0  0  0  0  0  0
    8.2083  -16.2509   22.3064 N   0  0  0  0  0  0  0  0  0  0  0  0
    9.0747  -15.2341   22.7930 C   0  0  1  0  0  0  0  0  0  0  0  0
    8.4083  -14.2144   23.6759 C   0  0  0  0  0  0  0  0  0  0  0  0
    6.7448  -13.9300   22.9970 S   0  0  0  0  0  0  0  0  0  0  0  0
   10.1432  -15.8832   23.6336 C   0  0  0  0  0  0  0  0  0  0  0  0
    9.8048  -16.4337   24.7110 O   0  0  0  0  0  0  0  0  0  0  0  0
   11.4916  -15.8935   23.2568 N   0  0  0  0  0  0  0  0  0  0  0  0
   12.4757  -16.5304   24.0907 C   0  0  0  0  0  0  0  0  0  0  0  0
   13.8161  -16.3669   23.5050 C   0  0  0  0  0  0  0  0  0  0  0  0
   13.9746  -15.7678   22.2415 O   0  0  0  0  0  0  0  0  0  0  0  0
   14.8267  -16.7640   24.1354 O   0  0  0  0  0  0  0  0  0  0  0  0
  2  3  1  0
  2  1  1  6
  4  2  1  0
  5  4  2  0
  6  4  1  0
  7  6  1  0
  7  8  1  1
  9  8  1  0
 10  7  1  0
 10 12  1  0
 11 10  2  0
 13 12  1  0
 14 13  1  0
 15 14  1  0
 16 14  2  0
M  END
$$$$
