ACG.pdb
     RDKit          3D

 16 15  0  0  1  0  0  0  0  0999 V2000
   -1.9941  -28.1798   28.1347 C   0  0  0  0  0  0  0  0  0  0  0  0
   -1.9734  -26.7167   28.4657 C   0  0  2  0  0  0  0  0  0  0  0  0
   -0.7934  -26.3352   29.2139 N   0  0  0  0  0  0  0  0  0  0  0  0
   -3.2185  -26.3893   29.1875 C   0  0  0  0  0  0  0  0  0  0  0  0
   -4.3057  -26.6228   28.6075 O   0  0  0  0  0  0  0  0  0  0  0  0
   -3.2669  -25.8328   30.4824 N   0  0  0  0  0  0  0  0  0  0  0  0
   -4.5241  -25.6402   31.1178 C   0  0  1  0  0  0  0  0  0  0  0  0
   -4.5102  -25.8475   32.6077 C   0  0  0  0  0  0  0  0  0  0  0  0
   -4.2899  -27.6304   32.8939 S   0  0  0  0  0  0  0  0  0  0  0  0
   -4.9542  -24.2134   30.8963 C   0  0  0  0  0  0  0  0  0  0  0  0
   -4.0916  -23.3057   30.9991 O   0  0  0  0  0  0  0  0  0  0  0  0
   -6.2738  -23.8674   30.5818 N   0  0  0  0  0  0  0  0  0  0  0  0
   -6.6087  -22.5113   30.2377 C   0  0  0  0  0  0  0  0  0  0  0  0
   -8.0499  -22.4021   29.9592 C   0  0  0  0  0  0  0  0  0  0  0  0
   -8.8531  -23.5556   29.8914 O   0  0  0  0  0  0  0  0  0  0  0  0
   -8.5685  -21.2727   29.7805 O   0  0  0  0  0  0  0  0  0  0  0  0
  2  3  1  0
  2  1  1  1
  4  2  1  0
  5  4  2  0
  6  4  1  0
  7  6  1  0
  7  8  1  1
  9  8  1  0
 10  7  1  0
 10 12  1  0
 11 10  2  0
 13 12  1  0
 14 13  1  0
 15 14  1  0
 16 14  2  0
M  END
$$$$
