ACG.pdb
     RDKit          3D

 16 15  0  0  1  0  0  0  0  0999 V2000
    6.2376  -15.7092   21.1274 C   0  0  0  0  0  0  0  0  0  0  0  0
    6.8858  -14.3567   21.1645 C   0  0  2  0  0  0  0  0  0  0  0  0
    7.7376  -14.1195   20.0173 N   0  0  0  0  0  0  0  0  0  0  0  0
    7.6219  -14.2325   22.4377 C   0  0  0  0  0  0  0  0  0  0  0  0
    8.8418  -14.5237   22.4351 O   0  0  0  0  0  0  0  0  0  0  0  0
    7.0465  -13.8094   23.6537 N   0  0  0  0  0  0  0  0  0  0  0  0
    7.8562  -13.7139   24.8184 C   0  0  1  0  0  0  0  0  0  0  0  0
    7.2791  -12.8581   25.9128 C   0  0  0  0  0  0  0  0  0  0  0  0
    5.5416  -13.3567   26.1167 S   0  0  0  0  0  0  0  0  0  0  0  0
    8.0123  -15.0938   25.4024 C   0  0  0  0  0  0  0  0  0  0  0  0
    6.9789  -15.7805   25.5995 O   0  0  0  0  0  0  0  0  0  0  0  0
    9.2620  -15.6330   25.7306 N   0  0  0  0  0  0  0  0  0  0  0  0
    9.3608  -16.9560   26.2868 C   0  0  0  0  0  0  0  0  0  0  0  0
   10.7632  -17.2646   26.6100 C   0  0  0  0  0  0  0  0  0  0  0  0
   11.1049  -18.4941   27.2033 O   0  0  0  0  0  0  0  0  0  0  0  0
   11.6627  -16.4264   26.3554 O   0  0  0  0  0  0  0  0  0  0  0  0
  2  3  1  0
  2  1  1  6
  4  2  1  0
  5  4  2  0
  6  4  1  0
  7  6  1  0
  7  8  1  1
  9  8  1  0
 10  7  1  0
 10 12  1  0
 11 10  2  0
 13 12  1  0
 14 13  1  0
 15 14  1  0
 16 14  2  0
M  END
$$$$
