ACG.pdb
     RDKit          3D

 16 15  0  0  1  0  0  0  0  0999 V2000
    8.2324  -19.4569   18.8529 C   0  0  0  0  0  0  0  0  0  0  0  0
    7.3072  -18.2895   19.0316 C   0  0  2  0  0  0  0  0  0  0  0  0
    6.1659  -18.3466   18.1417 N   0  0  0  0  0  0  0  0  0  0  0  0
    8.0885  -17.0500   18.8538 C   0  0  0  0  0  0  0  0  0  0  0  0
    9.1228  -17.1108   18.1471 O   0  0  0  0  0  0  0  0  0  0  0  0
    7.7504  -15.8054   19.4241 N   0  0  0  0  0  0  0  0  0  0  0  0
    8.5698  -14.6713   19.1720 C   0  0  1  0  0  0  0  0  0  0  0  0
    7.8718  -13.3479   19.3292 C   0  0  0  0  0  0  0  0  0  0  0  0
    9.1001  -12.0540   18.9746 S   0  0  0  0  0  0  0  0  0  0  0  0
    9.6996  -14.6711   20.1686 C   0  0  0  0  0  0  0  0  0  0  0  0
    9.4259  -14.5043   21.3834 O   0  0  0  0  0  0  0  0  0  0  0  0
   11.0354  -14.8494   19.7890 N   0  0  0  0  0  0  0  0  0  0  0  0
   12.0757  -14.8870   20.7818 C   0  0  0  0  0  0  0  0  0  0  0  0
   13.3670  -15.2004   20.1488 C   0  0  0  0  0  0  0  0  0  0  0  0
   14.3314  -14.1935   19.9581 O   0  0  0  0  0  0  0  0  0  0  0  0
   13.6119  -16.3739   19.7755 O   0  0  0  0  0  0  0  0  0  0  0  0
  2  3  1  0
  2  1  1  6
  4  2  1  0
  5  4  2  0
  6  4  1  0
  7  6  1  0
  7  8  1  1
  9  8  1  0
 10  7  1  0
 10 12  1  0
 11 10  2  0
 13 12  1  0
 14 13  1  0
 15 14  1  0
 16 14  2  0
M  END
$$$$
