ACG.pdb
     RDKit          3D

 16 15  0  0  1  0  0  0  0  0999 V2000
    7.0651  -18.9906   18.6319 C   0  0  0  0  0  0  0  0  0  0  0  0
    7.3037  -17.8174   17.7277 C   0  0  2  0  0  0  0  0  0  0  0  0
    7.8564  -18.2088   16.4474 N   0  0  0  0  0  0  0  0  0  0  0  0
    8.1714  -16.8571   18.4370 C   0  0  0  0  0  0  0  0  0  0  0  0
    9.3798  -17.1609   18.5803 O   0  0  0  0  0  0  0  0  0  0  0  0
    7.7337  -15.6241   18.9628 N   0  0  0  0  0  0  0  0  0  0  0  0
    8.6821  -14.7169   19.5095 C   0  0  1  0  0  0  0  0  0  0  0  0
    8.1617  -13.3218   19.7239 C   0  0  0  0  0  0  0  0  0  0  0  0
    7.7455  -12.6523   18.0845 S   0  0  0  0  0  0  0  0  0  0  0  0
    9.0962  -15.2239   20.8664 C   0  0  0  0  0  0  0  0  0  0  0  0
    8.1986  -15.5484   21.6834 O   0  0  0  0  0  0  0  0  0  0  0  0
   10.4387  -15.3447   21.2450 N   0  0  0  0  0  0  0  0  0  0  0  0
   10.7884  -15.9368   22.5085 C   0  0  0  0  0  0  0  0  0  0  0  0
   12.2456  -15.8778   22.7078 C   0  0  0  0  0  0  0  0  0  0  0  0
   12.8182  -16.3089   23.9188 O   0  0  0  0  0  0  0  0  0  0  0  0
   12.9848  -15.4402   21.7922 O   0  0  0  0  0  0  0  0  0  0  0  0
  2  3  1  0
  2  1  1  1
  4  2  1  0
  5  4  2  0
  6  4  1  0
  7  6  1  0
  7  8  1  1
  9  8  1  0
 10  7  1  0
 10 12  1  0
 11 10  2  0
 13 12  1  0
 14 13  1  0
 15 14  1  0
 16 14  2  0
M  END
$$$$
