ACG.pdb
     RDKit          3D

 16 15  0  0  1  0  0  0  0  0999 V2000
    6.1544  -19.5950   20.4514 C   0  0  0  0  0  0  0  0  0  0  0  0
    6.0429  -18.5764   19.3556 C   0  0  2  0  0  0  0  0  0  0  0  0
    6.2410  -19.1529   18.0418 N   0  0  0  0  0  0  0  0  0  0  0  0
    7.0023  -17.4904   19.6358 C   0  0  0  0  0  0  0  0  0  0  0  0
    8.2143  -17.7094   19.3992 O   0  0  0  0  0  0  0  0  0  0  0  0
    6.6479  -16.2262   20.1506 N   0  0  0  0  0  0  0  0  0  0  0  0
    7.6496  -15.2323   20.3242 C   0  0  1  0  0  0  0  0  0  0  0  0
    7.1291  -13.8217   20.3739 C   0  0  0  0  0  0  0  0  0  0  0  0
    8.5653  -12.7342   20.6265 S   0  0  0  0  0  0  0  0  0  0  0  0
    8.3343  -15.4741   21.6442 C   0  0  0  0  0  0  0  0  0  0  0  0
    7.6244  -15.5889   22.6743 O   0  0  0  0  0  0  0  0  0  0  0  0
    9.7259  -15.5746   21.7606 N   0  0  0  0  0  0  0  0  0  0  0  0
   10.3390  -15.7323   23.0524 C   0  0  0  0  0  0  0  0  0  0  0  0
   11.8023  -15.8058   22.9114 C   0  0  0  0  0  0  0  0  0  0  0  0
   12.6274  -15.8549   24.0503 O   0  0  0  0  0  0  0  0  0  0  0  0
   12.3202  -15.8249   21.7677 O   0  0  0  0  0  0  0  0  0  0  0  0
  2  3  1  0
  2  1  1  1
  4  2  1  0
  5  4  2  0
  6  4  1  0
  7  6  1  0
  7  8  1  1
  9  8  1  0
 10  7  1  0
 10 12  1  0
 11 10  2  0
 13 12  1  0
 14 13  1  0
 15 14  1  0
 16 14  2  0
M  END
$$$$
