ACG.pdb
     RDKit          3D

 16 15  0  0  1  0  0  0  0  0999 V2000
    6.9051  -15.8400   21.9841 C   0  0  0  0  0  0  0  0  0  0  0  0
    6.9894  -14.3457   22.0874 C   0  0  2  0  0  0  0  0  0  0  0  0
    7.7089  -13.7539   20.9783 N   0  0  0  0  0  0  0  0  0  0  0  0
    7.5984  -14.0067   23.3884 C   0  0  0  0  0  0  0  0  0  0  0  0
    8.8493  -13.9359   23.4443 O   0  0  0  0  0  0  0  0  0  0  0  0
    6.8694  -13.7578   24.5696 N   0  0  0  0  0  0  0  0  0  0  0  0
    7.5516  -13.3174   25.7366 C   0  0  1  0  0  0  0  0  0  0  0  0
    6.6526  -12.8332   26.8414 C   0  0  0  0  0  0  0  0  0  0  0  0
    6.0271  -11.2002   26.3400 S   0  0  0  0  0  0  0  0  0  0  0  0
    8.3233  -14.4809   26.3028 C   0  0  0  0  0  0  0  0  0  0  0  0
    7.7027  -15.5430   26.5581 O   0  0  0  0  0  0  0  0  0  0  0  0
    9.6996  -14.4187   26.5521 N   0  0  0  0  0  0  0  0  0  0  0  0
   10.3682  -15.5030   27.2204 C   0  0  0  0  0  0  0  0  0  0  0  0
   10.6689  -16.5786   26.2616 C   0  0  0  0  0  0  0  0  0  0  0  0
   11.5573  -16.3547   25.1935 O   0  0  0  0  0  0  0  0  0  0  0  0
   10.1299  -17.7046   26.3958 O   0  0  0  0  0  0  0  0  0  0  0  0
  2  3  1  0
  2  1  1  6
  4  2  1  0
  5  4  2  0
  6  4  1  0
  7  6  1  0
  7  8  1  1
  9  8  1  0
 10  7  1  0
 10 12  1  0
 11 10  2  0
 13 12  1  0
 14 13  1  0
 15 14  1  0
 16 14  2  0
M  END
$$$$
