ACG.pdb
     RDKit          3D

 16 15  0  0  1  0  0  0  0  0999 V2000
    7.8840  -19.0648   19.0308 C   0  0  0  0  0  0  0  0  0  0  0  0
    7.5423  -18.5853   20.4107 C   0  0  2  0  0  0  0  0  0  0  0  0
    6.1332  -18.2850   20.5592 N   0  0  0  0  0  0  0  0  0  0  0  0
    8.3939  -17.4198   20.7184 C   0  0  0  0  0  0  0  0  0  0  0  0
    9.2523  -17.0858   19.8671 O   0  0  0  0  0  0  0  0  0  0  0  0
    8.3069  -16.6588   21.9024 N   0  0  0  0  0  0  0  0  0  0  0  0
    9.1248  -15.5063   22.0585 C   0  0  1  0  0  0  0  0  0  0  0  0
    8.3763  -14.2527   22.4209 C   0  0  0  0  0  0  0  0  0  0  0  0
    7.2196  -14.6913   23.7545 S   0  0  0  0  0  0  0  0  0  0  0  0
   10.0910  -15.7594   23.1863 C   0  0  0  0  0  0  0  0  0  0  0  0
    9.6286  -15.9521   24.3385 O   0  0  0  0  0  0  0  0  0  0  0  0
   11.4777  -15.7868   22.9949 N   0  0  0  0  0  0  0  0  0  0  0  0
   12.3624  -16.0010   24.1088 C   0  0  0  0  0  0  0  0  0  0  0  0
   13.7632  -15.9121   23.6655 C   0  0  0  0  0  0  0  0  0  0  0  0
   14.8139  -16.0114   24.5964 O   0  0  0  0  0  0  0  0  0  0  0  0
   14.0248  -15.7467   22.4487 O   0  0  0  0  0  0  0  0  0  0  0  0
  2  3  1  0
  2  1  1  6
  4  2  1  0
  5  4  2  0
  6  4  1  0
  7  6  1  0
  7  8  1  1
  9  8  1  0
 10  7  1  0
 10 12  1  0
 11 10  2  0
 13 12  1  0
 14 13  1  0
 15 14  1  0
 16 14  2  0
M  END
$$$$
