ACG.pdb
     RDKit          3D

 16 15  0  0  1  0  0  0  0  0999 V2000
   -4.6713  -20.7531   25.5843 C   0  0  0  0  0  0  0  0  0  0  0  0
   -5.3365  -22.0620   25.8928 C   0  0  2  0  0  0  0  0  0  0  0  0
   -6.6874  -22.1318   25.3751 N   0  0  0  0  0  0  0  0  0  0  0  0
   -5.2900  -22.2704   27.3532 C   0  0  0  0  0  0  0  0  0  0  0  0
   -4.1725  -22.1902   27.9169 O   0  0  0  0  0  0  0  0  0  0  0  0
   -6.4153  -22.5528   28.1547 N   0  0  0  0  0  0  0  0  0  0  0  0
   -6.2421  -22.8163   29.5411 C   0  0  1  0  0  0  0  0  0  0  0  0
   -7.4022  -22.4044   30.4057 C   0  0  0  0  0  0  0  0  0  0  0  0
   -7.2884  -20.6021   30.6240 S   0  0  0  0  0  0  0  0  0  0  0  0
   -6.0878  -24.3035   29.7258 C   0  0  0  0  0  0  0  0  0  0  0  0
   -6.9392  -25.0632   29.2001 O   0  0  0  0  0  0  0  0  0  0  0  0
   -5.0345  -24.8636   30.4587 N   0  0  0  0  0  0  0  0  0  0  0  0
   -4.9013  -26.2919   30.5666 C   0  0  0  0  0  0  0  0  0  0  0  0
   -3.6746  -26.6303   31.3064 C   0  0  0  0  0  0  0  0  0  0  0  0
   -3.7307  -27.4667   32.4367 O   0  0  0  0  0  0  0  0  0  0  0  0
   -2.5692  -26.1705   30.9280 O   0  0  0  0  0  0  0  0  0  0  0  0
  2  3  1  0
  2  1  1  1
  4  2  1  0
  5  4  2  0
  6  4  1  0
  7  6  1  0
  7  8  1  1
  9  8  1  0
 10  7  1  0
 10 12  1  0
 11 10  2  0
 13 12  1  0
 14 13  1  0
 15 14  1  0
 16 14  2  0
M  END
$$$$
