ACG.pdb
     RDKit          3D

 16 15  0  0  1  0  0  0  0  0999 V2000
    7.3581  -19.6420   18.9175 C   0  0  0  0  0  0  0  0  0  0  0  0
    7.3128  -18.2785   18.2933 C   0  0  2  0  0  0  0  0  0  0  0  0
    7.9749  -18.2369   17.0058 N   0  0  0  0  0  0  0  0  0  0  0  0
    7.8939  -17.3144   19.2480 C   0  0  0  0  0  0  0  0  0  0  0  0
    9.1437  -17.2181   19.2892 O   0  0  0  0  0  0  0  0  0  0  0  0
    7.1396  -16.4966   20.1144 N   0  0  0  0  0  0  0  0  0  0  0  0
    7.8080  -15.6324   21.0241 C   0  0  1  0  0  0  0  0  0  0  0  0
    6.9168  -14.6275   21.7018 C   0  0  0  0  0  0  0  0  0  0  0  0
    7.9733  -13.6386   22.8040 S   0  0  0  0  0  0  0  0  0  0  0  0
    8.4067  -16.4713   22.1230 C   0  0  0  0  0  0  0  0  0  0  0  0
    7.7450  -17.4460   22.5596 O   0  0  0  0  0  0  0  0  0  0  0  0
    9.6671  -16.2030   22.6703 N   0  0  0  0  0  0  0  0  0  0  0  0
   10.2797  -17.1349   23.5789 C   0  0  0  0  0  0  0  0  0  0  0  0
   11.5412  -16.5807   24.0965 C   0  0  0  0  0  0  0  0  0  0  0  0
   11.7868  -16.5378   25.4814 O   0  0  0  0  0  0  0  0  0  0  0  0
   12.4058  -16.1425   23.2984 O   0  0  0  0  0  0  0  0  0  0  0  0
  2  3  1  0
  2  1  1  1
  4  2  1  0
  5  4  2  0
  6  4  1  0
  7  6  1  0
  7  8  1  1
  9  8  1  0
 10  7  1  0
 10 12  1  0
 11 10  2  0
 13 12  1  0
 14 13  1  0
 15 14  1  0
 16 14  2  0
M  END
$$$$
