ACG.pdb
     RDKit          3D

 16 15  0  0  1  0  0  0  0  0999 V2000
    7.6010  -12.9658   18.2552 C   0  0  0  0  0  0  0  0  0  0  0  0
    8.0428  -14.3071   18.7616 C   0  0  2  0  0  0  0  0  0  0  0  0
    7.0113  -15.3154   18.6305 N   0  0  0  0  0  0  0  0  0  0  0  0
    8.4895  -14.1484   20.1593 C   0  0  0  0  0  0  0  0  0  0  0  0
    9.5383  -13.4916   20.3637 O   0  0  0  0  0  0  0  0  0  0  0  0
    7.8176  -14.6845   21.2772 N   0  0  0  0  0  0  0  0  0  0  0  0
    8.3838  -14.5397   22.5733 C   0  0  1  0  0  0  0  0  0  0  0  0
    7.3862  -14.2606   23.6641 C   0  0  0  0  0  0  0  0  0  0  0  0
    8.3142  -14.1883   25.2270 S   0  0  0  0  0  0  0  0  0  0  0  0
    9.0594  -15.8345   22.9433 C   0  0  0  0  0  0  0  0  0  0  0  0
    8.3515  -16.8653   23.0649 O   0  0  0  0  0  0  0  0  0  0  0  0
   10.4403  -15.9270   23.1548 N   0  0  0  0  0  0  0  0  0  0  0  0
   11.0563  -17.2048   23.3942 C   0  0  0  0  0  0  0  0  0  0  0  0
   12.2157  -17.0472   24.2872 C   0  0  0  0  0  0  0  0  0  0  0  0
   13.3712  -16.3769   23.8449 O   0  0  0  0  0  0  0  0  0  0  0  0
   12.1755  -17.5133   25.4524 O   0  0  0  0  0  0  0  0  0  0  0  0
  2  3  1  0
  2  1  1  1
  4  2  1  0
  5  4  2  0
  6  4  1  0
  7  6  1  0
  7  8  1  1
  9  8  1  0
 10  7  1  0
 10 12  1  0
 11 10  2  0
 13 12  1  0
 14 13  1  0
 15 14  1  0
 16 14  2  0
M  END
$$$$
