ACG.pdb
     RDKit          3D

 16 15  0  0  1  0  0  0  0  0999 V2000
    6.6144  -19.4888   23.8116 C   0  0  0  0  0  0  0  0  0  0  0  0
    5.8959  -18.2927   23.2604 C   0  0  2  0  0  0  0  0  0  0  0  0
    5.3827  -18.5220   21.9255 N   0  0  0  0  0  0  0  0  0  0  0  0
    6.8144  -17.1385   23.3115 C   0  0  0  0  0  0  0  0  0  0  0  0
    7.6440  -17.0137   22.3792 O   0  0  0  0  0  0  0  0  0  0  0  0
    6.8214  -16.1694   24.3358 N   0  0  0  0  0  0  0  0  0  0  0  0
    7.7547  -15.0982   24.2833 C   0  0  1  0  0  0  0  0  0  0  0  0
    7.3626  -13.8872   25.0852 C   0  0  0  0  0  0  0  0  0  0  0  0
    6.0251  -14.4021   26.2054 S   0  0  0  0  0  0  0  0  0  0  0  0
    9.0613  -15.5784   24.8593 C   0  0  0  0  0  0  0  0  0  0  0  0
    9.0303  -16.3909   25.8171 O   0  0  0  0  0  0  0  0  0  0  0  0
   10.3006  -15.1525   24.3665 N   0  0  0  0  0  0  0  0  0  0  0  0
   11.5222  -15.6270   24.9598 C   0  0  0  0  0  0  0  0  0  0  0  0
   12.3257  -16.3441   23.9564 C   0  0  0  0  0  0  0  0  0  0  0  0
   13.6289  -15.9138   23.6457 O   0  0  0  0  0  0  0  0  0  0  0  0
   11.8468  -17.3472   23.3725 O   0  0  0  0  0  0  0  0  0  0  0  0
  2  3  1  0
  2  1  1  6
  4  2  1  0
  5  4  2  0
  6  4  1  0
  7  6  1  0
  7  8  1  1
  9  8  1  0
 10  7  1  0
 10 12  1  0
 11 10  2  0
 13 12  1  0
 14 13  1  0
 15 14  1  0
 16 14  2  0
M  END
$$$$
