WFQ.pdb
     RDKit          3D

 35 37  0  0  1  0  0  0  0  0999 V2000
    8.5045  -17.6101   22.1942 N   0  0  0  0  0  0  0  0  0  0  0  0
    9.6778  -16.7490   22.1541 C   0  0  1  0  0  0  0  0  0  0  0  0
    9.2902  -15.3143   22.2752 C   0  0  0  0  0  0  0  0  0  0  0  0
    8.2460  -14.8661   21.3338 C   0  0  0  0  0  0  0  0  0  0  0  0
    6.9558  -15.4011   21.3052 C   0  0  0  0  0  0  0  0  0  0  0  0
    6.2643  -14.7667   20.3765 N   0  0  0  0  0  0  0  0  0  0  0  0
    7.0207  -13.8173   19.7619 C   0  0  0  0  0  0  0  0  0  0  0  0
    6.7350  -12.9316   18.7499 C   0  0  0  0  0  0  0  0  0  0  0  0
    7.7062  -12.0709   18.3046 C   0  0  0  0  0  0  0  0  0  0  0  0
    8.9480  -12.1233   18.8917 C   0  0  0  0  0  0  0  0  0  0  0  0
    9.2236  -13.0136   19.9042 C   0  0  0  0  0  0  0  0  0  0  0  0
    8.2655  -13.8943   20.3771 C   0  0  0  0  0  0  0  0  0  0  0  0
   10.7191  -17.1181   23.1135 C   0  0  0  0  0  0  0  0  0  0  0  0
   11.9541  -16.8686   22.9283 O   0  0  0  0  0  0  0  0  0  0  0  0
   10.3078  -17.7867   24.3144 N   0  0  0  0  0  0  0  0  0  0  0  0
   10.5984  -17.2020   25.6098 C   0  0  1  0  0  0  0  0  0  0  0  0
    9.5319  -16.1740   25.9544 C   0  0  0  0  0  0  0  0  0  0  0  0
    9.7566  -15.5328   27.2594 C   0  0  0  0  0  0  0  0  0  0  0  0
   10.0178  -14.1861   27.3103 C   0  0  0  0  0  0  0  0  0  0  0  0
   10.2325  -13.5662   28.5238 C   0  0  0  0  0  0  0  0  0  0  0  0
   10.1867  -14.2941   29.6953 C   0  0  0  0  0  0  0  0  0  0  0  0
    9.9270  -15.6444   29.6719 C   0  0  0  0  0  0  0  0  0  0  0  0
    9.7161  -16.2353   28.4370 C   0  0  0  0  0  0  0  0  0  0  0  0
   10.6930  -18.2680   26.6033 C   0  0  0  0  0  0  0  0  0  0  0  0
   10.5486  -18.0097   27.8242 O   0  0  0  0  0  0  0  0  0  0  0  0
   15.5624  -17.9852   24.7446 N   0  0  0  0  0  0  0  0  0  0  0  0
   14.8576  -18.8575   23.8736 C   0  0  0  0  0  0  0  0  0  0  0  0
   14.8521  -18.6105   22.6366 O   0  0  0  0  0  0  0  0  0  0  0  0
   14.1466  -20.0347   24.3825 C   0  0  0  0  0  0  0  0  0  0  0  0
   12.7614  -19.7296   24.7900 C   0  0  0  0  0  0  0  0  0  0  0  0
   12.3058  -20.1718   26.1503 C   0  0  2  0  0  0  0  0  0  0  0  0
   10.9464  -19.6373   26.2805 N   0  0  0  0  0  0  0  0  0  0  0  0
   13.1617  -19.9331   27.2841 C   0  0  0  0  0  0  0  0  0  0  0  0
   13.1669  -18.6685   27.9087 O   0  0  0  0  0  0  0  0  0  0  0  0
   13.9516  -20.7753   27.7970 O   0  0  0  0  0  0  0  0  0  0  0  0
  2  1  1  1
  3  2  1  0
  4  3  1  0
  4  5  2  0
  6  5  1  0
  7  6  1  0
  8  7  2  0
  9  8  1  0
 10  9  2  0
 10 11  1  0
 11 12  2  0
 12  7  1  0
 12  4  1  0
 13 14  2  0
 13  2  1  0
 15 13  1  0
 16 15  1  0
 16 17  1  1
 18 19  2  0
 18 17  1  0
 20 19  1  0
 21 20  2  0
 22 21  1  0
 22 23  2  0
 23 18  1  0
 24 25  2  0
 24 16  1  0
 26 27  1  0
 27 28  2  0
 29 27  1  0
 29 30  1  0
 31 30  1  6
 31 32  1  0
 32 24  1  0
 33 31  1  0
 34 33  1  0
 35 33  2  0
M  END
$$$$
