WFQ.pdb
     RDKit          3D

 35 37  0  0  1  0  0  0  0  0999 V2000
   11.1301  -17.8898   20.9615 N   0  0  0  0  0  0  0  0  0  0  0  0
   10.0380  -16.9749   21.2615 C   0  0  1  0  0  0  0  0  0  0  0  0
    8.7573  -17.4632   20.6746 C   0  0  0  0  0  0  0  0  0  0  0  0
    7.9709  -16.4448   19.9523 C   0  0  0  0  0  0  0  0  0  0  0  0
    6.8576  -16.7489   19.1652 C   0  0  0  0  0  0  0  0  0  0  0  0
    6.3671  -15.6203   18.6868 N   0  0  0  0  0  0  0  0  0  0  0  0
    7.0935  -14.5499   19.1086 C   0  0  0  0  0  0  0  0  0  0  0  0
    6.9657  -13.2028   18.8657 C   0  0  0  0  0  0  0  0  0  0  0  0
    7.8603  -12.3234   19.4212 C   0  0  0  0  0  0  0  0  0  0  0  0
    8.8673  -12.8242   20.2116 C   0  0  0  0  0  0  0  0  0  0  0  0
    8.9862  -14.1745   20.4486 C   0  0  0  0  0  0  0  0  0  0  0  0
    8.0994  -15.0879   19.9040 C   0  0  0  0  0  0  0  0  0  0  0  0
    9.9029  -16.6564   22.6832 C   0  0  0  0  0  0  0  0  0  0  0  0
   10.5886  -17.2281   23.5914 O   0  0  0  0  0  0  0  0  0  0  0  0
    8.9519  -15.6464   23.0492 N   0  0  0  0  0  0  0  0  0  0  0  0
    8.8816  -15.1742   24.4190 C   0  0  1  0  0  0  0  0  0  0  0  0
    7.8087  -14.1022   24.5328 C   0  0  0  0  0  0  0  0  0  0  0  0
    7.7119  -13.5318   25.8855 C   0  0  0  0  0  0  0  0  0  0  0  0
    6.6468  -12.7249   26.1999 C   0  0  0  0  0  0  0  0  0  0  0  0
    6.5383  -12.1792   27.4622 C   0  0  0  0  0  0  0  0  0  0  0  0
    7.4986  -12.4398   28.4184 C   0  0  0  0  0  0  0  0  0  0  0  0
    8.5755  -13.2448   28.1292 C   0  0  0  0  0  0  0  0  0  0  0  0
    8.6538  -13.7764   26.8524 C   0  0  0  0  0  0  0  0  0  0  0  0
    8.6362  -16.3106   25.3028 C   0  0  0  0  0  0  0  0  0  0  0  0
    7.7608  -17.1625   25.0098 O   0  0  0  0  0  0  0  0  0  0  0  0
   12.4588  -20.3118   24.3359 N   0  0  0  0  0  0  0  0  0  0  0  0
   11.4273  -20.6444   25.2534 C   0  0  0  0  0  0  0  0  0  0  0  0
   11.5726  -21.6548   25.9943 O   0  0  0  0  0  0  0  0  0  0  0  0
   10.2081  -19.8363   25.3578 C   0  0  0  0  0  0  0  0  0  0  0  0
   10.4843  -18.4380   25.7406 C   0  0  0  0  0  0  0  0  0  0  0  0
    9.7778  -17.8753   26.9396 C   0  0  2  0  0  0  0  0  0  0  0  0
    9.3445  -16.5375   26.5235 N   0  0  0  0  0  0  0  0  0  0  0  0
   10.4306  -17.9290   28.2225 C   0  0  0  0  0  0  0  0  0  0  0  0
   10.1485  -18.9860   29.1126 O   0  0  0  0  0  0  0  0  0  0  0  0
   11.2629  -17.0839   28.6578 O   0  0  0  0  0  0  0  0  0  0  0  0
  2  1  1  1
  3  2  1  0
  4  3  1  0
  4  5  2  0
  6  5  1  0
  7  6  1  0
  8  7  2  0
  9  8  1  0
 10  9  2  0
 10 11  1  0
 11 12  2  0
 12  7  1  0
 12  4  1  0
 13 14  2  0
 13  2  1  0
 15 13  1  0
 16 15  1  0
 16 17  1  6
 18 19  2  0
 18 17  1  0
 20 19  1  0
 21 20  2  0
 22 21  1  0
 22 23  2  0
 23 18  1  0
 24 25  2  0
 24 16  1  0
 26 27  1  0
 27 28  2  0
 29 27  1  0
 29 30  1  0
 31 30  1  6
 31 32  1  0
 32 24  1  0
 33 31  1  0
 34 33  1  0
 35 33  2  0
M  END
$$$$
