WFQ.pdb
     RDKit          3D

 35 37  0  0  1  0  0  0  0  0999 V2000
    8.6574  -18.3333   21.3830 N   0  0  0  0  0  0  0  0  0  0  0  0
    9.7576  -17.3851   21.2815 C   0  0  1  0  0  0  0  0  0  0  0  0
    9.7105  -16.6512   19.9844 C   0  0  0  0  0  0  0  0  0  0  0  0
    8.4799  -15.8713   19.7505 C   0  0  0  0  0  0  0  0  0  0  0  0
    7.2319  -16.4551   19.5197 C   0  0  0  0  0  0  0  0  0  0  0  0
    6.3419  -15.4899   19.3799 N   0  0  0  0  0  0  0  0  0  0  0  0
    6.9209  -14.2648   19.5034 C   0  0  0  0  0  0  0  0  0  0  0  0
    6.4015  -12.9941   19.4276 C   0  0  0  0  0  0  0  0  0  0  0  0
    7.2284  -11.9106   19.5842 C   0  0  0  0  0  0  0  0  0  0  0  0
    8.5652  -12.1339   19.8141 C   0  0  0  0  0  0  0  0  0  0  0  0
    9.0749  -13.4099   19.8883 C   0  0  0  0  0  0  0  0  0  0  0  0
    8.2672  -14.5242   19.7359 C   0  0  0  0  0  0  0  0  0  0  0  0
    9.8654  -16.4751   22.4222 C   0  0  0  0  0  0  0  0  0  0  0  0
   10.8128  -15.6342   22.5529 O   0  0  0  0  0  0  0  0  0  0  0  0
    8.8431  -16.5464   23.4264 N   0  0  0  0  0  0  0  0  0  0  0  0
    8.8499  -15.6168   24.5400 C   0  0  1  0  0  0  0  0  0  0  0  0
    7.4404  -15.0972   24.7771 C   0  0  0  0  0  0  0  0  0  0  0  0
    7.3855  -14.0391   25.7979 C   0  0  0  0  0  0  0  0  0  0  0  0
    6.4883  -13.0104   25.6518 C   0  0  0  0  0  0  0  0  0  0  0  0
    6.4220  -12.0079   26.5972 C   0  0  0  0  0  0  0  0  0  0  0  0
    7.2560  -12.0310   27.6963 C   0  0  0  0  0  0  0  0  0  0  0  0
    8.1637  -13.0501   27.8663 C   0  0  0  0  0  0  0  0  0  0  0  0
    8.2041  -14.0405   26.8987 C   0  0  0  0  0  0  0  0  0  0  0  0
    9.4078  -16.2832   25.7136 C   0  0  0  0  0  0  0  0  0  0  0  0
    8.6568  -16.9084   26.5030 O   0  0  0  0  0  0  0  0  0  0  0  0
    9.6605  -20.7599   23.6898 N   0  0  0  0  0  0  0  0  0  0  0  0
   10.0893  -20.6308   25.0373 C   0  0  0  0  0  0  0  0  0  0  0  0
    9.4071  -21.1735   25.9490 O   0  0  0  0  0  0  0  0  0  0  0  0
   11.3053  -19.8882   25.3842 C   0  0  0  0  0  0  0  0  0  0  0  0
   11.1608  -18.4339   25.1794 C   0  0  0  0  0  0  0  0  0  0  0  0
   11.5445  -17.5153   26.3029 C   0  0  2  0  0  0  0  0  0  0  0  0
   10.7982  -16.2793   26.0458 N   0  0  0  0  0  0  0  0  0  0  0  0
   12.9405  -17.3282   26.6049 C   0  0  0  0  0  0  0  0  0  0  0  0
   13.5871  -18.1940   27.5114 O   0  0  0  0  0  0  0  0  0  0  0  0
   13.6794  -16.4220   26.1263 O   0  0  0  0  0  0  0  0  0  0  0  0
  2  1  1  1
  3  2  1  0
  4  3  1  0
  4  5  2  0
  6  5  1  0
  7  6  1  0
  8  7  2  0
  9  8  1  0
 10  9  2  0
 10 11  1  0
 11 12  2  0
 12  7  1  0
 12  4  1  0
 13 14  2  0
 13  2  1  0
 15 13  1  0
 16 15  1  0
 16 17  1  1
 18 19  2  0
 18 17  1  0
 20 19  1  0
 21 20  2  0
 22 21  1  0
 22 23  2  0
 23 18  1  0
 24 25  2  0
 24 16  1  0
 26 27  1  0
 27 28  2  0
 29 27  1  0
 29 30  1  0
 31 30  1  6
 31 32  1  0
 32 24  1  0
 33 31  1  0
 34 33  1  0
 35 33  2  0
M  END
$$$$
