WFQ.pdb
     RDKit          3D

 35 37  0  0  1  0  0  0  0  0999 V2000
   10.8925  -15.6035   21.2333 N   0  0  0  0  0  0  0  0  0  0  0  0
    9.7024  -16.0357   21.9522 C   0  0  1  0  0  0  0  0  0  0  0  0
    8.7853  -16.7963   21.0558 C   0  0  0  0  0  0  0  0  0  0  0  0
    8.1111  -15.9902   20.0199 C   0  0  0  0  0  0  0  0  0  0  0  0
    7.2103  -16.5245   19.0954 C   0  0  0  0  0  0  0  0  0  0  0  0
    6.7665  -15.5419   18.3333 N   0  0  0  0  0  0  0  0  0  0  0  0
    7.3220  -14.3524   18.6906 C   0  0  0  0  0  0  0  0  0  0  0  0
    7.1691  -13.0819   18.1879 C   0  0  0  0  0  0  0  0  0  0  0  0
    7.8716  -12.0418   18.7419 C   0  0  0  0  0  0  0  0  0  0  0  0
    8.7158  -12.3074   19.7938 C   0  0  0  0  0  0  0  0  0  0  0  0
    8.8615  -13.5828   20.2895 C   0  0  0  0  0  0  0  0  0  0  0  0
    8.1662  -14.6537   19.7538 C   0  0  0  0  0  0  0  0  0  0  0  0
    9.9867  -16.7627   23.1897 C   0  0  0  0  0  0  0  0  0  0  0  0
    9.4635  -17.8896   23.4692 O   0  0  0  0  0  0  0  0  0  0  0  0
   10.9043  -16.1631   24.1155 N   0  0  0  0  0  0  0  0  0  0  0  0
   10.4306  -15.6707   25.3951 C   0  0  1  0  0  0  0  0  0  0  0  0
    9.2906  -14.6890   25.1717 C   0  0  0  0  0  0  0  0  0  0  0  0
    8.9128  -13.9640   26.3948 C   0  0  0  0  0  0  0  0  0  0  0  0
    9.8628  -13.7300   27.3578 C   0  0  0  0  0  0  0  0  0  0  0  0
    9.5285  -13.0531   28.5124 C   0  0  0  0  0  0  0  0  0  0  0  0
    8.2378  -12.6060   28.7086 C   0  0  0  0  0  0  0  0  0  0  0  0
    7.2673  -12.8274   27.7596 C   0  0  0  0  0  0  0  0  0  0  0  0
    7.6367  -13.5101   26.6123 C   0  0  0  0  0  0  0  0  0  0  0  0
   10.0399  -16.8054   26.2272 C   0  0  0  0  0  0  0  0  0  0  0  0
    8.9927  -16.7517   26.9191 O   0  0  0  0  0  0  0  0  0  0  0  0
   13.4381  -21.1549   25.4219 N   0  0  0  0  0  0  0  0  0  0  0  0
   12.1714  -21.2100   24.7827 C   0  0  0  0  0  0  0  0  0  0  0  0
   12.0992  -21.6710   23.6108 O   0  0  0  0  0  0  0  0  0  0  0  0
   10.9542  -20.7493   25.4583 C   0  0  0  0  0  0  0  0  0  0  0  0
   11.2117  -20.2747   26.8318 C   0  0  0  0  0  0  0  0  0  0  0  0
   10.4808  -19.0547   27.3121 C   0  0  2  0  0  0  0  0  0  0  0  0
   10.7865  -18.0210   26.3177 N   0  0  0  0  0  0  0  0  0  0  0  0
   10.6386  -18.6419   28.6832 C   0  0  0  0  0  0  0  0  0  0  0  0
   11.5461  -17.6124   29.0087 O   0  0  0  0  0  0  0  0  0  0  0  0
   10.0261  -19.1343   29.6725 O   0  0  0  0  0  0  0  0  0  0  0  0
  2  1  1  6
  3  2  1  0
  4  3  1  0
  4  5  2  0
  6  5  1  0
  7  6  1  0
  8  7  2  0
  9  8  1  0
 10  9  2  0
 10 11  1  0
 11 12  2  0
 12  7  1  0
 12  4  1  0
 13 14  2  0
 13  2  1  0
 15 13  1  0
 16 15  1  0
 16 17  1  6
 18 19  2  0
 18 17  1  0
 20 19  1  0
 21 20  2  0
 22 21  1  0
 22 23  2  0
 23 18  1  0
 24 25  2  0
 24 16  1  0
 26 27  1  0
 27 28  2  0
 29 27  1  0
 29 30  1  0
 31 30  1  6
 31 32  1  0
 32 24  1  0
 33 31  1  0
 34 33  1  0
 35 33  2  0
M  END
$$$$
