WFQ.pdb
     RDKit          3D

 35 37  0  0  1  0  0  0  0  0999 V2000
    6.7487  -19.0424   25.4503 N   0  0  0  0  0  0  0  0  0  0  0  0
    6.8252  -17.6164   25.1669 C   0  0  1  0  0  0  0  0  0  0  0  0
    7.4935  -16.8866   26.2822 C   0  0  0  0  0  0  0  0  0  0  0  0
    6.9390  -15.5515   26.5780 C   0  0  0  0  0  0  0  0  0  0  0  0
    5.6033  -15.3332   26.9240 C   0  0  0  0  0  0  0  0  0  0  0  0
    5.4395  -14.0433   27.1527 N   0  0  0  0  0  0  0  0  0  0  0  0
    6.6037  -13.3609   26.9791 C   0  0  0  0  0  0  0  0  0  0  0  0
    6.9096  -12.0257   27.0971 C   0  0  0  0  0  0  0  0  0  0  0  0
    8.1891  -11.5963   26.8508 C   0  0  0  0  0  0  0  0  0  0  0  0
    9.1346  -12.5264   26.4894 C   0  0  0  0  0  0  0  0  0  0  0  0
    8.8181  -13.8607   26.3743 C   0  0  0  0  0  0  0  0  0  0  0  0
    7.5369  -14.3263   26.6171 C   0  0  0  0  0  0  0  0  0  0  0  0
    7.4222  -17.2994   23.8692 C   0  0  0  0  0  0  0  0  0  0  0  0
    8.3037  -18.0309   23.3128 O   0  0  0  0  0  0  0  0  0  0  0  0
    6.9760  -16.1072   23.2073 N   0  0  0  0  0  0  0  0  0  0  0  0
    7.5805  -15.7008   21.9528 C   0  0  1  0  0  0  0  0  0  0  0  0
    6.9594  -14.3921   21.4896 C   0  0  0  0  0  0  0  0  0  0  0  0
    7.4928  -13.9319   20.1980 C   0  0  0  0  0  0  0  0  0  0  0  0
    7.3529  -14.7305   19.0903 C   0  0  0  0  0  0  0  0  0  0  0  0
    7.8473  -14.3178   17.8703 C   0  0  0  0  0  0  0  0  0  0  0  0
    8.4858  -13.1001   17.7536 C   0  0  0  0  0  0  0  0  0  0  0  0
    8.6392  -12.2812   18.8478 C   0  0  0  0  0  0  0  0  0  0  0  0
    8.1312  -12.7258   20.0574 C   0  0  0  0  0  0  0  0  0  0  0  0
    9.0268  -15.6045   22.1299 C   0  0  0  0  0  0  0  0  0  0  0  0
    9.5057  -14.9042   23.0563 O   0  0  0  0  0  0  0  0  0  0  0  0
   13.4305  -17.2118   25.9102 N   0  0  0  0  0  0  0  0  0  0  0  0
   12.5822  -17.4089   24.7887 C   0  0  0  0  0  0  0  0  0  0  0  0
   11.8044  -18.4019   24.7794 O   0  0  0  0  0  0  0  0  0  0  0  0
   12.5903  -16.4818   23.6525 C   0  0  0  0  0  0  0  0  0  0  0  0
   11.8688  -17.0137   22.4801 C   0  0  0  0  0  0  0  0  0  0  0  0
   11.4211  -16.0481   21.4216 C   0  0  2  0  0  0  0  0  0  0  0  0
    9.9773  -16.2734   21.2976 N   0  0  0  0  0  0  0  0  0  0  0  0
   12.1365  -16.0020   20.1721 C   0  0  0  0  0  0  0  0  0  0  0  0
   12.7646  -17.1637   19.6770 O   0  0  0  0  0  0  0  0  0  0  0  0
   12.2735  -14.9795   19.4427 O   0  0  0  0  0  0  0  0  0  0  0  0
  2  1  1  1
  3  2  1  0
  4  3  1  0
  4  5  2  0
  6  5  1  0
  7  6  1  0
  8  7  2  0
  9  8  1  0
 10  9  2  0
 10 11  1  0
 11 12  2  0
 12  7  1  0
 12  4  1  0
 13 14  2  0
 13  2  1  0
 15 13  1  0
 16 15  1  0
 16 17  1  1
 18 19  2  0
 18 17  1  0
 20 19  1  0
 21 20  2  0
 22 21  1  0
 22 23  2  0
 23 18  1  0
 24 25  2  0
 24 16  1  0
 26 27  1  0
 27 28  2  0
 29 27  1  0
 29 30  1  0
 31 30  1  1
 31 32  1  0
 32 24  1  0
 33 31  1  0
 34 33  1  0
 35 33  2  0
M  END
$$$$
