WFQ.pdb
     RDKit          3D

 35 37  0  0  1  0  0  0  0  0999 V2000
   10.9258  -15.0339   20.1996 N   0  0  0  0  0  0  0  0  0  0  0  0
    9.6628  -15.3663   20.8430 C   0  0  1  0  0  0  0  0  0  0  0  0
    8.9793  -16.4832   20.1298 C   0  0  0  0  0  0  0  0  0  0  0  0
    8.2353  -16.0899   18.9177 C   0  0  0  0  0  0  0  0  0  0  0  0
    7.6157  -17.0065   18.0647 C   0  0  0  0  0  0  0  0  0  0  0  0
    7.0155  -16.3347   17.0995 N   0  0  0  0  0  0  0  0  0  0  0  0
    7.1940  -14.9941   17.2481 C   0  0  0  0  0  0  0  0  0  0  0  0
    6.7678  -13.9241   16.4974 C   0  0  0  0  0  0  0  0  0  0  0  0
    7.1049  -12.6494   16.8766 C   0  0  0  0  0  0  0  0  0  0  0  0
    7.8673  -12.4820   18.0081 C   0  0  0  0  0  0  0  0  0  0  0  0
    8.2887  -13.5598   18.7526 C   0  0  0  0  0  0  0  0  0  0  0  0
    7.9647  -14.8584   18.3977 C   0  0  0  0  0  0  0  0  0  0  0  0
    9.7763  -15.6215   22.2793 C   0  0  0  0  0  0  0  0  0  0  0  0
   10.8354  -16.0735   22.8229 O   0  0  0  0  0  0  0  0  0  0  0  0
    8.6313  -15.3375   23.0959 N   0  0  0  0  0  0  0  0  0  0  0  0
    8.8012  -14.9974   24.4958 C   0  0  1  0  0  0  0  0  0  0  0  0
    7.5841  -14.2266   24.9831 C   0  0  0  0  0  0  0  0  0  0  0  0
    7.6721  -13.8588   26.4049 C   0  0  0  0  0  0  0  0  0  0  0  0
    6.9874  -14.6013   27.3347 C   0  0  0  0  0  0  0  0  0  0  0  0
    7.0559  -14.2722   28.6726 C   0  0  0  0  0  0  0  0  0  0  0  0
    7.8123  -13.1949   29.0869 C   0  0  0  0  0  0  0  0  0  0  0  0
    8.5077  -12.4348   28.1758 C   0  0  0  0  0  0  0  0  0  0  0  0
    8.4173  -12.7927   26.8407 C   0  0  0  0  0  0  0  0  0  0  0  0
    9.0338  -16.2208   25.2585 C   0  0  0  0  0  0  0  0  0  0  0  0
    8.1998  -17.1594   25.2188 O   0  0  0  0  0  0  0  0  0  0  0  0
   13.9449  -20.1952   24.8523 N   0  0  0  0  0  0  0  0  0  0  0  0
   12.6618  -19.6304   24.6266 C   0  0  0  0  0  0  0  0  0  0  0  0
   12.3789  -19.2003   23.4750 O   0  0  0  0  0  0  0  0  0  0  0  0
   11.6655  -19.5445   25.6991 C   0  0  0  0  0  0  0  0  0  0  0  0
   11.6736  -18.2344   26.3784 C   0  0  0  0  0  0  0  0  0  0  0  0
   10.3661  -17.6718   26.8554 C   0  0  2  0  0  0  0  0  0  0  0  0
   10.1837  -16.4414   26.0786 N   0  0  0  0  0  0  0  0  0  0  0  0
   10.1419  -17.5329   28.2716 C   0  0  0  0  0  0  0  0  0  0  0  0
    9.9353  -18.6787   29.0676 O   0  0  0  0  0  0  0  0  0  0  0  0
   10.1011  -16.4398   28.9039 O   0  0  0  0  0  0  0  0  0  0  0  0
  2  1  1  6
  3  2  1  0
  4  3  1  0
  4  5  2  0
  6  5  1  0
  7  6  1  0
  8  7  2  0
  9  8  1  0
 10  9  2  0
 10 11  1  0
 11 12  2  0
 12  7  1  0
 12  4  1  0
 13 14  2  0
 13  2  1  0
 15 13  1  0
 16 15  1  0
 16 17  1  1
 18 19  2  0
 18 17  1  0
 20 19  1  0
 21 20  2  0
 22 21  1  0
 22 23  2  0
 23 18  1  0
 24 25  2  0
 24 16  1  0
 26 27  1  0
 27 28  2  0
 29 27  1  0
 29 30  1  0
 31 30  1  1
 31 32  1  0
 32 24  1  0
 33 31  1  0
 34 33  1  0
 35 33  2  0
M  END
$$$$
