WFQ.pdb
     RDKit          3D

 35 37  0  0  1  0  0  0  0  0999 V2000
   10.1408  -16.0138   19.2597 N   0  0  0  0  0  0  0  0  0  0  0  0
    9.9220  -16.7431   20.5007 C   0  0  1  0  0  0  0  0  0  0  0  0
   10.8636  -17.8934   20.6158 C   0  0  0  0  0  0  0  0  0  0  0  0
   10.6497  -18.7628   21.7887 C   0  0  0  0  0  0  0  0  0  0  0  0
    9.3885  -19.1972   22.2038 C   0  0  0  0  0  0  0  0  0  0  0  0
    9.5447  -19.9785   23.2566 N   0  0  0  0  0  0  0  0  0  0  0  0
   10.8588  -20.1022   23.5872 C   0  0  0  0  0  0  0  0  0  0  0  0
   11.4891  -20.7948   24.5938 C   0  0  0  0  0  0  0  0  0  0  0  0
   12.8553  -20.7386   24.7063 C   0  0  0  0  0  0  0  0  0  0  0  0
   13.5574  -19.9823   23.7982 C   0  0  0  0  0  0  0  0  0  0  0  0
   12.9167  -19.2930   22.7942 C   0  0  0  0  0  0  0  0  0  0  0  0
   11.5398  -19.3298   22.6526 C   0  0  0  0  0  0  0  0  0  0  0  0
    9.9380  -15.9000   21.6965 C   0  0  0  0  0  0  0  0  0  0  0  0
   10.9513  -15.2139   22.0491 O   0  0  0  0  0  0  0  0  0  0  0  0
    8.7448  -15.8543   22.4918 N   0  0  0  0  0  0  0  0  0  0  0  0
    8.6637  -14.9622   23.6329 C   0  0  1  0  0  0  0  0  0  0  0  0
    7.3378  -14.2178   23.6030 C   0  0  0  0  0  0  0  0  0  0  0  0
    7.1238  -13.3834   24.7957 C   0  0  0  0  0  0  0  0  0  0  0  0
    7.8213  -12.2084   24.9277 C   0  0  0  0  0  0  0  0  0  0  0  0
    7.6360  -11.4125   26.0391 C   0  0  0  0  0  0  0  0  0  0  0  0
    6.7489  -11.7905   27.0262 C   0  0  0  0  0  0  0  0  0  0  0  0
    6.0379  -12.9627   26.9184 C   0  0  0  0  0  0  0  0  0  0  0  0
    6.2478  -13.7382   25.7899 C   0  0  0  0  0  0  0  0  0  0  0  0
    8.8455  -15.7371   24.8573 C   0  0  0  0  0  0  0  0  0  0  0  0
    8.3633  -16.8932   24.9519 O   0  0  0  0  0  0  0  0  0  0  0  0
   14.3415  -17.2985   25.2213 N   0  0  0  0  0  0  0  0  0  0  0  0
   13.0645  -17.6083   25.7595 C   0  0  0  0  0  0  0  0  0  0  0  0
   12.7045  -18.8158   25.8191 O   0  0  0  0  0  0  0  0  0  0  0  0
   12.1664  -16.5575   26.2489 C   0  0  0  0  0  0  0  0  0  0  0  0
   10.8651  -17.0872   26.7005 C   0  0  0  0  0  0  0  0  0  0  0  0
    9.8229  -16.1127   27.1669 C   0  0  2  0  0  0  0  0  0  0  0  0
    9.5590  -15.2625   26.0014 N   0  0  0  0  0  0  0  0  0  0  0  0
   10.0369  -15.4002   28.4004 C   0  0  0  0  0  0  0  0  0  0  0  0
   10.3339  -16.1110   29.5819 O   0  0  0  0  0  0  0  0  0  0  0  0
    9.9754  -14.1463   28.5433 O   0  0  0  0  0  0  0  0  0  0  0  0
  2  1  1  6
  3  2  1  0
  4  3  1  0
  4  5  2  0
  6  5  1  0
  7  6  1  0
  8  7  2  0
  9  8  1  0
 10  9  2  0
 10 11  1  0
 11 12  2  0
 12  7  1  0
 12  4  1  0
 13 14  2  0
 13  2  1  0
 15 13  1  0
 16 15  1  0
 16 17  1  1
 18 19  2  0
 18 17  1  0
 20 19  1  0
 21 20  2  0
 22 21  1  0
 22 23  2  0
 23 18  1  0
 24 25  2  0
 24 16  1  0
 26 27  1  0
 27 28  2  0
 29 27  1  0
 29 30  1  0
 31 30  1  6
 31 32  1  0
 32 24  1  0
 33 31  1  0
 34 33  1  0
 35 33  2  0
M  END
$$$$
