WFQ.pdb
     RDKit          3D

 35 37  0  0  1  0  0  0  0  0999 V2000
    8.1129  -19.2426   22.3312 N   0  0  0  0  0  0  0  0  0  0  0  0
    8.6792  -18.2204   21.4628 C   0  0  1  0  0  0  0  0  0  0  0  0
    8.1459  -18.3443   20.0759 C   0  0  0  0  0  0  0  0  0  0  0  0
    8.1694  -19.7091   19.5156 C   0  0  0  0  0  0  0  0  0  0  0  0
    7.0170  -20.4618   19.2763 C   0  0  0  0  0  0  0  0  0  0  0  0
    7.3782  -21.6168   18.7484 N   0  0  0  0  0  0  0  0  0  0  0  0
    8.7298  -21.6950   18.6131 C   0  0  0  0  0  0  0  0  0  0  0  0
    9.5462  -22.6892   18.1280 C   0  0  0  0  0  0  0  0  0  0  0  0
   10.9059  -22.5068   18.1138 C   0  0  0  0  0  0  0  0  0  0  0  0
   11.4135  -21.3219   18.5913 C   0  0  0  0  0  0  0  0  0  0  0  0
   10.5875  -20.3330   19.0746 C   0  0  0  0  0  0  0  0  0  0  0  0
    9.2115  -20.4853   19.1016 C   0  0  0  0  0  0  0  0  0  0  0  0
    8.5455  -16.8588   21.9816 C   0  0  0  0  0  0  0  0  0  0  0  0
    8.8569  -15.8246   21.3069 O   0  0  0  0  0  0  0  0  0  0  0  0
    8.0330  -16.7036   23.3127 N   0  0  0  0  0  0  0  0  0  0  0  0
    8.1905  -15.4421   24.0114 C   0  0  1  0  0  0  0  0  0  0  0  0
    7.1062  -15.3081   25.0694 C   0  0  0  0  0  0  0  0  0  0  0  0
    7.1619  -14.0241   25.7854 C   0  0  0  0  0  0  0  0  0  0  0  0
    8.1026  -13.8433   26.7687 C   0  0  0  0  0  0  0  0  0  0  0  0
    8.1705  -12.6472   27.4527 C   0  0  0  0  0  0  0  0  0  0  0  0
    7.2942  -11.6237   27.1544 C   0  0  0  0  0  0  0  0  0  0  0  0
    6.3424  -11.7792   26.1739 C   0  0  0  0  0  0  0  0  0  0  0  0
    6.3017  -12.9924   25.5067 C   0  0  0  0  0  0  0  0  0  0  0  0
    9.5362  -15.3740   24.5744 C   0  0  0  0  0  0  0  0  0  0  0  0
   10.1395  -14.2741   24.6407 O   0  0  0  0  0  0  0  0  0  0  0  0
   11.7675  -18.1970   29.4160 N   0  0  0  0  0  0  0  0  0  0  0  0
   10.5064  -18.1378   28.7662 C   0  0  0  0  0  0  0  0  0  0  0  0
    9.4962  -18.6166   29.3506 O   0  0  0  0  0  0  0  0  0  0  0  0
   10.3579  -17.5290   27.4404 C   0  0  0  0  0  0  0  0  0  0  0  0
   11.6309  -17.0021   26.9114 C   0  0  0  0  0  0  0  0  0  0  0  0
   11.6403  -16.4205   25.5276 C   0  0  2  0  0  0  0  0  0  0  0  0
   10.2475  -16.5077   25.0767 N   0  0  0  0  0  0  0  0  0  0  0  0
   12.6150  -16.8943   24.5786 C   0  0  0  0  0  0  0  0  0  0  0  0
   13.1386  -16.0149   23.6082 O   0  0  0  0  0  0  0  0  0  0  0  0
   13.0654  -18.0731   24.5166 O   0  0  0  0  0  0  0  0  0  0  0  0
  2  1  1  1
  3  2  1  0
  4  3  1  0
  4  5  2  0
  6  5  1  0
  7  6  1  0
  8  7  2  0
  9  8  1  0
 10  9  2  0
 10 11  1  0
 11 12  2  0
 12  7  1  0
 12  4  1  0
 13 14  2  0
 13  2  1  0
 15 13  1  0
 16 15  1  0
 16 17  1  1
 18 19  2  0
 18 17  1  0
 20 19  1  0
 21 20  2  0
 22 21  1  0
 22 23  2  0
 23 18  1  0
 24 25  2  0
 24 16  1  0
 26 27  1  0
 27 28  2  0
 29 27  1  0
 29 30  1  0
 31 30  1  1
 31 32  1  0
 32 24  1  0
 33 31  1  0
 34 33  1  0
 35 33  2  0
M  END
$$$$
