WFQ.pdb
     RDKit          3D

 35 37  0  0  1  0  0  0  0  0999 V2000
    5.5005  -19.6952   22.7636 N   0  0  0  0  0  0  0  0  0  0  0  0
    6.2505  -19.0077   23.8050 C   0  0  1  0  0  0  0  0  0  0  0  0
    7.0205  -19.9774   24.6356 C   0  0  0  0  0  0  0  0  0  0  0  0
    7.0275  -19.6944   26.0838 C   0  0  0  0  0  0  0  0  0  0  0  0
    6.1187  -20.2593   26.9819 C   0  0  0  0  0  0  0  0  0  0  0  0
    6.4123  -19.8288   28.1950 N   0  0  0  0  0  0  0  0  0  0  0  0
    7.4840  -18.9907   28.1739 C   0  0  0  0  0  0  0  0  0  0  0  0
    8.1329  -18.3077   29.1752 C   0  0  0  0  0  0  0  0  0  0  0  0
    9.2039  -17.5068   28.8692 C   0  0  0  0  0  0  0  0  0  0  0  0
    9.5975  -17.4121   27.5555 C   0  0  0  0  0  0  0  0  0  0  0  0
    8.9411  -18.1001   26.5608 C   0  0  0  0  0  0  0  0  0  0  0  0
    7.8579  -18.9173   26.8365 C   0  0  0  0  0  0  0  0  0  0  0  0
    7.0940  -17.9193   23.3101 C   0  0  0  0  0  0  0  0  0  0  0  0
    7.9304  -18.0652   22.3609 O   0  0  0  0  0  0  0  0  0  0  0  0
    6.9528  -16.6348   23.9335 N   0  0  0  0  0  0  0  0  0  0  0  0
    7.8567  -15.5541   23.5878 C   0  0  1  0  0  0  0  0  0  0  0  0
    7.1117  -14.2295   23.6475 C   0  0  0  0  0  0  0  0  0  0  0  0
    7.1860  -13.5911   24.9709 C   0  0  0  0  0  0  0  0  0  0  0  0
    6.1254  -13.7092   25.8344 C   0  0  0  0  0  0  0  0  0  0  0  0
    6.1748  -13.1170   27.0793 C   0  0  0  0  0  0  0  0  0  0  0  0
    7.2896  -12.4018   27.4665 C   0  0  0  0  0  0  0  0  0  0  0  0
    8.3656  -12.2683   26.6204 C   0  0  0  0  0  0  0  0  0  0  0  0
    8.2832  -12.8753   25.3780 C   0  0  0  0  0  0  0  0  0  0  0  0
    9.0089  -15.5915   24.4842 C   0  0  0  0  0  0  0  0  0  0  0  0
    8.8682  -15.9457   25.6812 O   0  0  0  0  0  0  0  0  0  0  0  0
   12.0231  -20.0211   23.3614 N   0  0  0  0  0  0  0  0  0  0  0  0
   11.7327  -19.1604   22.2700 C   0  0  0  0  0  0  0  0  0  0  0  0
   11.8891  -19.5915   21.0950 O   0  0  0  0  0  0  0  0  0  0  0  0
   11.2522  -17.7915   22.4835 C   0  0  0  0  0  0  0  0  0  0  0  0
   11.0844  -17.4647   23.9128 C   0  0  0  0  0  0  0  0  0  0  0  0
   11.4915  -16.0986   24.3833 C   0  0  2  0  0  0  0  0  0  0  0  0
   10.3375  -15.2431   24.0882 N   0  0  0  0  0  0  0  0  0  0  0  0
   12.7629  -15.5668   23.9639 C   0  0  0  0  0  0  0  0  0  0  0  0
   13.9531  -16.0368   24.5569 O   0  0  0  0  0  0  0  0  0  0  0  0
   12.9308  -14.6754   23.0843 O   0  0  0  0  0  0  0  0  0  0  0  0
  2  1  1  6
  3  2  1  0
  4  3  1  0
  4  5  2  0
  6  5  1  0
  7  6  1  0
  8  7  2  0
  9  8  1  0
 10  9  2  0
 10 11  1  0
 11 12  2  0
 12  7  1  0
 12  4  1  0
 13 14  2  0
 13  2  1  0
 15 13  1  0
 16 15  1  0
 16 17  1  1
 18 19  2  0
 18 17  1  0
 20 19  1  0
 21 20  2  0
 22 21  1  0
 22 23  2  0
 23 18  1  0
 24 25  2  0
 24 16  1  0
 26 27  1  0
 27 28  2  0
 29 27  1  0
 29 30  1  0
 31 30  1  6
 31 32  1  0
 32 24  1  0
 33 31  1  0
 34 33  1  0
 35 33  2  0
M  END
$$$$
