WFQ.pdb
     RDKit          3D

 35 37  0  0  1  0  0  0  0  0999 V2000
    8.2490  -17.8537   22.3380 N   0  0  0  0  0  0  0  0  0  0  0  0
    8.3429  -16.4102   22.1728 C   0  0  1  0  0  0  0  0  0  0  0  0
    7.0519  -15.8443   21.6869 C   0  0  0  0  0  0  0  0  0  0  0  0
    7.1235  -15.1447   20.3898 C   0  0  0  0  0  0  0  0  0  0  0  0
    6.5813  -15.6574   19.2088 C   0  0  0  0  0  0  0  0  0  0  0  0
    6.7870  -14.7808   18.2431 N   0  0  0  0  0  0  0  0  0  0  0  0
    7.4483  -13.6853   18.7054 C   0  0  0  0  0  0  0  0  0  0  0  0
    7.8774  -12.5407   18.0761 C   0  0  0  0  0  0  0  0  0  0  0  0
    8.5425  -11.5785   18.7930 C   0  0  0  0  0  0  0  0  0  0  0  0
    8.7610  -11.7932   20.1331 C   0  0  0  0  0  0  0  0  0  0  0  0
    8.3272  -12.9424   20.7534 C   0  0  0  0  0  0  0  0  0  0  0  0
    7.6523  -13.9319   20.0587 C   0  0  0  0  0  0  0  0  0  0  0  0
    8.8383  -15.7074   23.3567 C   0  0  0  0  0  0  0  0  0  0  0  0
    9.5200  -14.6337   23.2925 O   0  0  0  0  0  0  0  0  0  0  0  0
    8.5259  -16.2679   24.6399 N   0  0  0  0  0  0  0  0  0  0  0  0
    9.2213  -15.8050   25.8258 C   0  0  1  0  0  0  0  0  0  0  0  0
    8.2109  -15.4974   26.9202 C   0  0  0  0  0  0  0  0  0  0  0  0
    7.5936  -14.1703   26.7715 C   0  0  0  0  0  0  0  0  0  0  0  0
    6.2459  -14.0797   26.5268 C   0  0  0  0  0  0  0  0  0  0  0  0
    5.6482  -12.8447   26.3829 C   0  0  0  0  0  0  0  0  0  0  0  0
    6.3993  -11.6915   26.4837 C   0  0  0  0  0  0  0  0  0  0  0  0
    7.7512  -11.7546   26.7283 C   0  0  0  0  0  0  0  0  0  0  0  0
    8.3195  -13.0102   26.8675 C   0  0  0  0  0  0  0  0  0  0  0  0
   10.1975  -16.8132   26.2298 C   0  0  0  0  0  0  0  0  0  0  0  0
   10.6425  -16.8282   27.4045 O   0  0  0  0  0  0  0  0  0  0  0  0
    8.9011  -22.1632   26.4736 N   0  0  0  0  0  0  0  0  0  0  0  0
   10.2878  -22.4112   26.6516 C   0  0  0  0  0  0  0  0  0  0  0  0
   10.6594  -23.5580   27.0231 O   0  0  0  0  0  0  0  0  0  0  0  0
   11.2881  -21.3672   26.4073 C   0  0  0  0  0  0  0  0  0  0  0  0
   10.6804  -20.0699   26.0528 C   0  0  0  0  0  0  0  0  0  0  0  0
   11.5886  -18.8956   25.8303 C   0  0  2  0  0  0  0  0  0  0  0  0
   10.7050  -17.8251   25.3569 N   0  0  0  0  0  0  0  0  0  0  0  0
   12.7880  -19.0788   25.0538 C   0  0  0  0  0  0  0  0  0  0  0  0
   13.7090  -18.0190   24.9199 O   0  0  0  0  0  0  0  0  0  0  0  0
   13.1128  -20.1370   24.4447 O   0  0  0  0  0  0  0  0  0  0  0  0
  2  1  1  1
  3  2  1  0
  4  3  1  0
  4  5  2  0
  6  5  1  0
  7  6  1  0
  8  7  2  0
  9  8  1  0
 10  9  2  0
 10 11  1  0
 11 12  2  0
 12  7  1  0
 12  4  1  0
 13 14  2  0
 13  2  1  0
 15 13  1  0
 16 15  1  0
 16 17  1  1
 18 19  2  0
 18 17  1  0
 20 19  1  0
 21 20  2  0
 22 21  1  0
 22 23  2  0
 23 18  1  0
 24 25  2  0
 24 16  1  0
 26 27  1  0
 27 28  2  0
 29 27  1  0
 29 30  1  0
 31 30  1  6
 31 32  1  0
 32 24  1  0
 33 31  1  0
 34 33  1  0
 35 33  2  0
M  END
$$$$
