WFQ.pdb
     RDKit          3D

 35 37  0  0  1  0  0  0  0  0999 V2000
    8.2966  -17.1434   20.6768 N   0  0  0  0  0  0  0  0  0  0  0  0
    9.5193  -16.3897   20.9151 C   0  0  1  0  0  0  0  0  0  0  0  0
    9.5908  -15.1952   20.0256 C   0  0  0  0  0  0  0  0  0  0  0  0
    9.0028  -15.3770   18.6845 C   0  0  0  0  0  0  0  0  0  0  0  0
    8.7875  -16.6287   18.1027 C   0  0  0  0  0  0  0  0  0  0  0  0
    8.2247  -16.4462   16.9224 N   0  0  0  0  0  0  0  0  0  0  0  0
    8.0425  -15.1230   16.6632 C   0  0  0  0  0  0  0  0  0  0  0  0
    7.5104  -14.4665   15.5787 C   0  0  0  0  0  0  0  0  0  0  0  0
    7.4541  -13.0958   15.5734 C   0  0  0  0  0  0  0  0  0  0  0  0
    7.9378  -12.4155   16.6657 C   0  0  0  0  0  0  0  0  0  0  0  0
    8.4683  -13.0823   17.7462 C   0  0  0  0  0  0  0  0  0  0  0  0
    8.5386  -14.4647   17.7832 C   0  0  0  0  0  0  0  0  0  0  0  0
    9.7388  -16.0413   22.3191 C   0  0  0  0  0  0  0  0  0  0  0  0
   10.8684  -15.6680   22.7738 O   0  0  0  0  0  0  0  0  0  0  0  0
    8.6150  -16.1257   23.2070 N   0  0  0  0  0  0  0  0  0  0  0  0
    8.6616  -15.4788   24.5046 C   0  0  1  0  0  0  0  0  0  0  0  0
    7.3357  -14.7842   24.7742 C   0  0  0  0  0  0  0  0  0  0  0  0
    7.3700  -13.9331   25.9738 C   0  0  0  0  0  0  0  0  0  0  0  0
    6.9498  -12.6293   25.8848 C   0  0  0  0  0  0  0  0  0  0  0  0
    6.9752  -11.8145   26.9977 C   0  0  0  0  0  0  0  0  0  0  0  0
    7.4228  -12.3029   28.2083 C   0  0  0  0  0  0  0  0  0  0  0  0
    7.8493  -13.6052   28.3243 C   0  0  0  0  0  0  0  0  0  0  0  0
    7.8107  -14.3960   27.1877 C   0  0  0  0  0  0  0  0  0  0  0  0
    8.9917  -16.4736   25.5214 C   0  0  0  0  0  0  0  0  0  0  0  0
    8.1861  -17.4009   25.7845 O   0  0  0  0  0  0  0  0  0  0  0  0
   13.5613  -19.8160   25.2720 N   0  0  0  0  0  0  0  0  0  0  0  0
   13.9376  -18.5532   25.8011 C   0  0  0  0  0  0  0  0  0  0  0  0
   15.1241  -18.1551   25.6438 O   0  0  0  0  0  0  0  0  0  0  0  0
   12.9765  -17.7076   26.5166 C   0  0  0  0  0  0  0  0  0  0  0  0
   11.6339  -18.3150   26.5953 C   0  0  0  0  0  0  0  0  0  0  0  0
   10.5320  -17.5251   27.2398 C   0  0  2  0  0  0  0  0  0  0  0  0
   10.2099  -16.4737   26.2694 N   0  0  0  0  0  0  0  0  0  0  0  0
   10.7027  -17.0672   28.5948 C   0  0  0  0  0  0  0  0  0  0  0  0
   10.9166  -17.9992   29.6315 O   0  0  0  0  0  0  0  0  0  0  0  0
   10.6715  -15.8614   28.9709 O   0  0  0  0  0  0  0  0  0  0  0  0
  2  1  1  1
  3  2  1  0
  4  3  1  0
  4  5  2  0
  6  5  1  0
  7  6  1  0
  8  7  2  0
  9  8  1  0
 10  9  2  0
 10 11  1  0
 11 12  2  0
 12  7  1  0
 12  4  1  0
 13 14  2  0
 13  2  1  0
 15 13  1  0
 16 15  1  0
 16 17  1  1
 18 19  2  0
 18 17  1  0
 20 19  1  0
 21 20  2  0
 22 21  1  0
 22 23  2  0
 23 18  1  0
 24 25  2  0
 24 16  1  0
 26 27  1  0
 27 28  2  0
 29 27  1  0
 29 30  1  0
 31 30  1  6
 31 32  1  0
 32 24  1  0
 33 31  1  0
 34 33  1  0
 35 33  2  0
M  END
$$$$
