REN.pdb
     RDKit          3D

 29 28  0  0  1  0  0  0  0  0999 V2000
    7.3295  -14.0818   17.0333 N   0  0  0  0  0  0  0  0  0  0  0  0
    7.6462  -13.1253   18.0196 C   0  0  0  0  0  0  0  0  0  0  0  0
    8.4951  -12.1998   17.7199 N   0  0  0  0  0  0  0  0  0  0  0  0
    7.0569  -13.1618   19.3117 N   0  0  0  0  0  0  0  0  0  0  0  0
    7.4898  -14.0854   20.3179 C   0  0  0  0  0  0  0  0  0  0  0  0
    8.8067  -14.7463   19.9756 C   0  0  0  0  0  0  0  0  0  0  0  0
    9.2604  -15.7086   21.0332 C   0  0  0  0  0  0  0  0  0  0  0  0
   10.5349  -16.4107   20.7341 C   0  0  2  0  0  0  0  0  0  0  0  0
   10.3693  -17.3896   19.6616 N   0  0  0  0  0  0  0  0  0  0  0  0
   11.0560  -17.0970   21.9267 C   0  0  0  0  0  0  0  0  0  0  0  0
   10.6204  -18.2034   22.2824 O   0  0  0  0  0  0  0  0  0  0  0  0
    8.8084  -11.4561   18.3471 N   0  0  0  0  0  0  0  0  0  0  0  0
   12.0812  -16.4969   22.7062 C   0  0  2  0  0  0  0  0  0  0  0  0
   12.5826  -17.1488   23.8671 C   0  0  0  0  0  0  0  0  0  0  0  0
   13.9622  -16.7322   24.2371 C   0  0  0  0  0  0  0  0  0  0  0  0
   15.0302  -16.9184   23.2338 C   0  0  0  0  0  0  0  0  0  0  0  0
   16.1908  -16.0233   23.3003 O   0  0  0  0  0  0  0  0  0  0  0  0
   16.9352  -15.7927   22.3389 C   0  0  0  0  0  0  0  0  0  0  0  0
   11.6122  -16.9013   24.9783 O   0  0  0  0  0  0  0  0  0  0  0  0
   10.7948  -15.9263   24.9455 O   0  0  0  0  0  0  0  0  0  0  0  0
   16.4824  -15.3892   24.5188 N   0  0  0  0  0  0  0  0  0  0  0  0
    7.9244  -18.9760   27.8068 C   0  0  0  0  0  0  0  0  0  0  0  0
    8.1306  -19.0012   26.3899 O   0  0  0  0  0  0  0  0  0  0  0  0
    7.1911  -19.4152   25.6855 C   0  0  0  0  0  0  0  0  0  0  0  0
    9.4030  -18.5517   25.8354 C   0  0  1  0  0  0  0  0  0  0  0  0
   10.3821  -17.9969   26.8201 N   0  0  0  0  0  0  0  0  0  0  0  0
   11.6305  -17.7895   26.0755 C   0  0  0  0  0  0  0  0  0  0  0  0
   10.6995  -18.9141   27.9367 O   0  0  0  0  0  0  0  0  0  0  0  0
   10.5793  -18.4519   29.2438 O   0  0  0  0  0  0  0  0  0  0  0  0
  2  3  2  0
  2  1  1  0
  4  2  1  0
  5  6  1  0
  5  4  1  0
  7  6  1  0
  8 10  1  0
  8  7  1  0
  8  9  1  6
 10 11  2  0
 12 13  1  0
 12 10  1  0
 13 14  1  6
 14 15  1  0
 16 20  1  0
 16 15  1  0
 17 16  2  0
 18 19  2  0
 18 13  1  0
 21 22  1  0
 22 23  2  0
 22 24  1  0
 25 24  1  6
 25 26  1  0
 26 18  1  0
 27 25  1  0
 27 28  1  0
 29 27  2  0
M  END
$$$$
