REN.pdb
     RDKit          3D

 29 28  0  0  1  0  0  0  0  0999 V2000
    7.5256  -11.9582   18.7117 N   0  0  0  0  0  0  0  0  0  0  0  0
    8.5598  -12.6645   19.3594 C   0  0  0  0  0  0  0  0  0  0  0  0
    9.7008  -12.0776   19.5031 N   0  0  0  0  0  0  0  0  0  0  0  0
    8.3701  -13.9849   19.8482 N   0  0  0  0  0  0  0  0  0  0  0  0
    7.0661  -14.5599   19.9957 C   0  0  0  0  0  0  0  0  0  0  0  0
    6.7024  -14.8185   21.4410 C   0  0  0  0  0  0  0  0  0  0  0  0
    7.5654  -15.8703   22.0729 C   0  0  0  0  0  0  0  0  0  0  0  0
    7.8732  -17.0329   21.2009 C   0  0  2  0  0  0  0  0  0  0  0  0
    6.7586  -17.9769   21.1518 N   0  0  0  0  0  0  0  0  0  0  0  0
    9.0756  -17.7421   21.6659 C   0  0  0  0  0  0  0  0  0  0  0  0
    8.9981  -18.8005   22.3094 O   0  0  0  0  0  0  0  0  0  0  0  0
   10.5611  -12.5239   19.8278 N   0  0  0  0  0  0  0  0  0  0  0  0
   10.3670  -17.2205   21.3847 C   0  0  2  0  0  0  0  0  0  0  0  0
   11.5347  -17.9632   21.7147 C   0  0  0  0  0  0  0  0  0  0  0  0
   12.7719  -17.4499   21.0669 C   0  0  0  0  0  0  0  0  0  0  0  0
   14.0271  -18.1955   21.2914 C   0  0  0  0  0  0  0  0  0  0  0  0
   15.2416  -17.6977   20.6360 O   0  0  0  0  0  0  0  0  0  0  0  0
   16.3852  -18.0493   20.9525 C   0  0  0  0  0  0  0  0  0  0  0  0
   11.6547  -17.9766   23.2058 O   0  0  0  0  0  0  0  0  0  0  0  0
   11.6687  -16.8995   23.8837 O   0  0  0  0  0  0  0  0  0  0  0  0
   15.1097  -16.7691   19.5910 N   0  0  0  0  0  0  0  0  0  0  0  0
   10.8777  -19.9225   28.1279 C   0  0  0  0  0  0  0  0  0  0  0  0
   11.2940  -20.8779   27.1458 O   0  0  0  0  0  0  0  0  0  0  0  0
   11.7333  -21.9664   27.5613 C   0  0  0  0  0  0  0  0  0  0  0  0
   11.1914  -20.5502   25.7279 C   0  0  1  0  0  0  0  0  0  0  0  0
   11.8201  -19.2590   25.3114 N   0  0  0  0  0  0  0  0  0  0  0  0
   11.7533  -19.2315   23.8449 C   0  0  0  0  0  0  0  0  0  0  0  0
   13.2492  -19.1394   25.6750 O   0  0  0  0  0  0  0  0  0  0  0  0
   13.5856  -18.7514   26.9685 O   0  0  0  0  0  0  0  0  0  0  0  0
  2  3  2  0
  2  1  1  0
  4  2  1  0
  5  6  1  0
  5  4  1  0
  7  6  1  0
  8 10  1  0
  8  7  1  0
  8  9  1  1
 10 11  2  0
 12 13  1  0
 12 10  1  0
 13 14  1  6
 14 15  1  0
 16 20  1  0
 16 15  1  0
 17 16  2  0
 18 19  2  0
 18 13  1  0
 21 22  1  0
 22 23  2  0
 22 24  1  0
 25 24  1  1
 25 26  1  0
 26 18  1  0
 27 25  1  0
 27 28  1  0
 29 27  2  0
M  END
$$$$
