REN.pdb
     RDKit          3D

 29 28  0  0  1  0  0  0  0  0999 V2000
    9.4463  -11.8992   19.1136 N   0  0  0  0  0  0  0  0  0  0  0  0
    8.3458  -12.4880   19.7694 C   0  0  0  0  0  0  0  0  0  0  0  0
    8.0120  -12.0298   20.9296 N   0  0  0  0  0  0  0  0  0  0  0  0
    7.6119  -13.5551   19.1856 N   0  0  0  0  0  0  0  0  0  0  0  0
    7.8601  -14.9240   19.5280 C   0  0  0  0  0  0  0  0  0  0  0  0
    6.6374  -15.6164   20.0881 C   0  0  0  0  0  0  0  0  0  0  0  0
    6.6605  -15.7048   21.5854 C   0  0  0  0  0  0  0  0  0  0  0  0
    7.8707  -16.3516   22.1546 C   0  0  2  0  0  0  0  0  0  0  0  0
    8.1752  -17.6103   21.4773 N   0  0  0  0  0  0  0  0  0  0  0  0
    7.7058  -16.6144   23.5929 C   0  0  0  0  0  0  0  0  0  0  0  0
    7.1951  -15.7763   24.3525 O   0  0  0  0  0  0  0  0  0  0  0  0
    7.2367  -12.3710   21.5017 N   0  0  0  0  0  0  0  0  0  0  0  0
    8.1358  -17.8496   24.1479 C   0  0  1  0  0  0  0  0  0  0  0  0
    8.0182  -18.0951   25.5444 C   0  0  0  0  0  0  0  0  0  0  0  0
    7.8896  -19.5369   25.8886 C   0  0  0  0  0  0  0  0  0  0  0  0
    6.5392  -20.0561   26.1863 C   0  0  0  0  0  0  0  0  0  0  0  0
    6.4109  -21.4855   26.4910 O   0  0  0  0  0  0  0  0  0  0  0  0
    7.3664  -22.2719   26.5072 C   0  0  0  0  0  0  0  0  0  0  0  0
    9.2004  -17.4689   26.2138 O   0  0  0  0  0  0  0  0  0  0  0  0
   10.2947  -17.2773   25.5928 O   0  0  0  0  0  0  0  0  0  0  0  0
    5.1369  -22.0000   26.7804 N   0  0  0  0  0  0  0  0  0  0  0  0
    9.7229  -14.3470   26.4946 C   0  0  0  0  0  0  0  0  0  0  0  0
    9.5250  -14.1275   27.8958 O   0  0  0  0  0  0  0  0  0  0  0  0
    9.1621  -12.9896   28.2478 C   0  0  0  0  0  0  0  0  0  0  0  0
    9.7501  -15.2181   28.8383 C   0  0  2  0  0  0  0  0  0  0  0  0
   10.2281  -16.5040   28.2432 N   0  0  0  0  0  0  0  0  0  0  0  0
    9.0652  -17.0937   27.5680 C   0  0  0  0  0  0  0  0  0  0  0  0
   10.6895  -17.4949   29.2401 O   0  0  0  0  0  0  0  0  0  0  0  0
   11.8901  -17.2712   29.9073 O   0  0  0  0  0  0  0  0  0  0  0  0
  2  3  2  0
  2  1  1  0
  4  2  1  0
  5  6  1  0
  5  4  1  0
  7  6  1  0
  8 10  1  0
  8  7  1  0
  8  9  1  6
 10 11  2  0
 12 13  1  0
 12 10  1  0
 13 14  1  1
 14 15  1  0
 16 20  1  0
 16 15  1  0
 17 16  2  0
 18 19  2  0
 18 13  1  0
 21 22  1  0
 22 23  2  0
 22 24  1  0
 25 24  1  6
 25 26  1  0
 26 18  1  0
 27 25  1  0
 27 28  1  0
 29 27  2  0
M  END
$$$$
