REN.pdb
     RDKit          3D

 29 28  0  0  1  0  0  0  0  0999 V2000
    8.0554  -11.7084   18.1294 N   0  0  0  0  0  0  0  0  0  0  0  0
    7.5287  -12.6810   19.0038 C   0  0  0  0  0  0  0  0  0  0  0  0
    7.7444  -12.5428   20.2693 N   0  0  0  0  0  0  0  0  0  0  0  0
    6.7781  -13.7880   18.5248 N   0  0  0  0  0  0  0  0  0  0  0  0
    6.3310  -14.8354   19.3941 C   0  0  0  0  0  0  0  0  0  0  0  0
    7.4035  -15.8674   19.6641 C   0  0  0  0  0  0  0  0  0  0  0  0
    8.0964  -15.6483   20.9764 C   0  0  0  0  0  0  0  0  0  0  0  0
    9.5641  -15.8768   20.9539 C   0  0  2  0  0  0  0  0  0  0  0  0
    9.9750  -16.6087   19.7575 N   0  0  0  0  0  0  0  0  0  0  0  0
   10.0035  -16.6250   22.1423 C   0  0  0  0  0  0  0  0  0  0  0  0
    9.6223  -16.3166   23.2824 O   0  0  0  0  0  0  0  0  0  0  0  0
    7.4761  -13.2120   20.9937 N   0  0  0  0  0  0  0  0  0  0  0  0
   10.8865  -17.7297   22.0056 C   0  0  1  0  0  0  0  0  0  0  0  0
   11.3251  -18.4512   23.1506 C   0  0  0  0  0  0  0  0  0  0  0  0
   11.5231  -19.9046   22.9011 C   0  0  0  0  0  0  0  0  0  0  0  0
   11.8317  -20.7665   24.0603 C   0  0  0  0  0  0  0  0  0  0  0  0
   12.0977  -22.1860   23.8018 O   0  0  0  0  0  0  0  0  0  0  0  0
   13.1787  -22.7369   24.0461 C   0  0  0  0  0  0  0  0  0  0  0  0
   12.5775  -17.7979   23.6432 O   0  0  0  0  0  0  0  0  0  0  0  0
   13.1715  -18.2012   24.6941 O   0  0  0  0  0  0  0  0  0  0  0  0
   11.0756  -22.9715   23.2451 N   0  0  0  0  0  0  0  0  0  0  0  0
   16.8720  -17.0571   25.7076 C   0  0  0  0  0  0  0  0  0  0  0  0
   16.4816  -17.2097   24.3383 O   0  0  0  0  0  0  0  0  0  0  0  0
   17.3866  -17.1923   23.4833 C   0  0  0  0  0  0  0  0  0  0  0  0
   15.0719  -17.3761   24.0017 C   0  0  1  0  0  0  0  0  0  0  0  0
   14.4983  -16.3503   23.0771 N   0  0  0  0  0  0  0  0  0  0  0  0
   13.0856  -16.7098   22.9010 C   0  0  0  0  0  0  0  0  0  0  0  0
   15.1078  -16.3457   21.7291 O   0  0  0  0  0  0  0  0  0  0  0  0
   16.3434  -15.7309   21.5499 O   0  0  0  0  0  0  0  0  0  0  0  0
  2  3  2  0
  2  1  1  0
  4  2  1  0
  5  6  1  0
  5  4  1  0
  7  6  1  0
  8 10  1  0
  8  7  1  0
  8  9  1  6
 10 11  2  0
 12 13  1  0
 12 10  1  0
 13 14  1  1
 14 15  1  0
 16 20  1  0
 16 15  1  0
 17 16  2  0
 18 19  2  0
 18 13  1  0
 21 22  1  0
 22 23  2  0
 22 24  1  0
 25 24  1  1
 25 26  1  0
 26 18  1  0
 27 25  1  0
 27 28  1  0
 29 27  2  0
M  END
$$$$
