REN.pdb
     RDKit          3D

 29 28  0  0  1  0  0  0  0  0999 V2000
   10.6248  -13.1385   18.8484 N   0  0  0  0  0  0  0  0  0  0  0  0
    9.2628  -13.4232   18.6205 C   0  0  0  0  0  0  0  0  0  0  0  0
    8.6165  -12.6789   17.7865 N   0  0  0  0  0  0  0  0  0  0  0  0
    8.6035  -14.4952   19.2794 N   0  0  0  0  0  0  0  0  0  0  0  0
    8.7035  -14.6929   20.6949 C   0  0  0  0  0  0  0  0  0  0  0  0
    7.4605  -14.2508   21.4351 C   0  0  0  0  0  0  0  0  0  0  0  0
    6.8064  -15.3736   22.1847 C   0  0  0  0  0  0  0  0  0  0  0  0
    7.5781  -16.6428   22.2076 C   0  0  2  0  0  0  0  0  0  0  0  0
    6.8133  -17.7463   21.6306 N   0  0  0  0  0  0  0  0  0  0  0  0
    7.9685  -17.0024   23.5799 C   0  0  0  0  0  0  0  0  0  0  0  0
    7.1283  -17.3480   24.4254 O   0  0  0  0  0  0  0  0  0  0  0  0
    7.6385  -12.8015   17.5162 N   0  0  0  0  0  0  0  0  0  0  0  0
    9.3342  -16.9587   23.9695 C   0  0  2  0  0  0  0  0  0  0  0  0
    9.7134  -17.2449   25.3105 C   0  0  0  0  0  0  0  0  0  0  0  0
   10.8088  -18.2457   25.4208 C   0  0  0  0  0  0  0  0  0  0  0  0
   11.3386  -18.5412   26.7677 C   0  0  0  0  0  0  0  0  0  0  0  0
   12.4525  -19.4907   26.8681 O   0  0  0  0  0  0  0  0  0  0  0  0
   12.9190  -19.8897   27.9428 C   0  0  0  0  0  0  0  0  0  0  0  0
   10.0790  -15.9491   25.9624 O   0  0  0  0  0  0  0  0  0  0  0  0
   10.9451  -15.1673   25.4538 O   0  0  0  0  0  0  0  0  0  0  0  0
   13.0293  -19.9788   25.6846 N   0  0  0  0  0  0  0  0  0  0  0  0
    8.4498  -12.7947   25.6853 C   0  0  0  0  0  0  0  0  0  0  0  0
    7.8184  -13.3395   26.8494 O   0  0  0  0  0  0  0  0  0  0  0  0
    6.6003  -13.5858   26.7733 C   0  0  0  0  0  0  0  0  0  0  0  0
    8.6053  -13.5808   28.0539 C   0  0  2  0  0  0  0  0  0  0  0  0
    9.8469  -14.3932   27.8680 N   0  0  0  0  0  0  0  0  0  0  0  0
    9.4290  -15.6159   27.1706 C   0  0  0  0  0  0  0  0  0  0  0  0
   10.4826  -14.8209   29.1336 O   0  0  0  0  0  0  0  0  0  0  0  0
   10.5841  -16.1809   29.4112 O   0  0  0  0  0  0  0  0  0  0  0  0
  2  3  2  0
  2  1  1  0
  4  2  1  0
  5  6  1  0
  5  4  1  0
  7  6  1  0
  8 10  1  0
  8  7  1  0
  8  9  1  1
 10 11  2  0
 12 13  1  0
 12 10  1  0
 13 14  1  6
 14 15  1  0
 16 20  1  0
 16 15  1  0
 17 16  2  0
 18 19  2  0
 18 13  1  0
 21 22  1  0
 22 23  2  0
 22 24  1  0
 25 24  1  6
 25 26  1  0
 26 18  1  0
 27 25  1  0
 27 28  1  0
 29 27  2  0
M  END
$$$$
