REN.pdb
     RDKit          3D

 29 28  0  0  1  0  0  0  0  0999 V2000
    7.5436  -12.6434   18.0863 N   0  0  0  0  0  0  0  0  0  0  0  0
    7.8992  -12.1399   19.3543 C   0  0  0  0  0  0  0  0  0  0  0  0
    8.7383  -11.1599   19.4069 N   0  0  0  0  0  0  0  0  0  0  0  0
    7.3589  -12.6816   20.5514 N   0  0  0  0  0  0  0  0  0  0  0  0
    6.4713  -13.8063   20.5429 C   0  0  0  0  0  0  0  0  0  0  0  0
    7.1662  -15.0953   20.1639 C   0  0  0  0  0  0  0  0  0  0  0  0
    8.3096  -15.4237   21.0777 C   0  0  0  0  0  0  0  0  0  0  0  0
    9.4403  -16.1388   20.4319 C   0  0  2  0  0  0  0  0  0  0  0  0
    8.9669  -17.1732   19.5144 N   0  0  0  0  0  0  0  0  0  0  0  0
   10.3184  -16.7604   21.4356 C   0  0  0  0  0  0  0  0  0  0  0  0
   10.7369  -16.1248   22.4160 O   0  0  0  0  0  0  0  0  0  0  0  0
    9.0703  -10.7082   20.2615 N   0  0  0  0  0  0  0  0  0  0  0  0
   10.7111  -18.1190   21.2989 C   0  0  1  0  0  0  0  0  0  0  0  0
   11.6354  -18.7001   22.2110 C   0  0  0  0  0  0  0  0  0  0  0  0
   11.6363  -20.1879   22.1937 C   0  0  0  0  0  0  0  0  0  0  0  0
   10.4229  -20.8830   22.6695 C   0  0  0  0  0  0  0  0  0  0  0  0
   10.4244  -22.3499   22.6450 O   0  0  0  0  0  0  0  0  0  0  0  0
   10.7265  -23.0519   23.6185 C   0  0  0  0  0  0  0  0  0  0  0  0
   12.9879  -18.1415   21.9004 O   0  0  0  0  0  0  0  0  0  0  0  0
   13.5375  -18.3164   20.7658 O   0  0  0  0  0  0  0  0  0  0  0  0
   10.0659  -23.0032   21.4550 N   0  0  0  0  0  0  0  0  0  0  0  0
   16.6453  -15.7220   20.5818 C   0  0  0  0  0  0  0  0  0  0  0  0
   15.3700  -15.0778   20.6779 O   0  0  0  0  0  0  0  0  0  0  0  0
   15.1552  -14.1234   19.9076 C   0  0  0  0  0  0  0  0  0  0  0  0
   14.3915  -15.5509   21.6511 C   0  0  2  0  0  0  0  0  0  0  0  0
   14.8498  -16.6533   22.5514 N   0  0  0  0  0  0  0  0  0  0  0  0
   13.6433  -17.4079   22.9129 C   0  0  0  0  0  0  0  0  0  0  0  0
   15.4548  -16.1853   23.8178 O   0  0  0  0  0  0  0  0  0  0  0  0
   14.7667  -16.3902   25.0099 O   0  0  0  0  0  0  0  0  0  0  0  0
  2  3  2  0
  2  1  1  0
  4  2  1  0
  5  6  1  0
  5  4  1  0
  7  6  1  0
  8 10  1  0
  8  7  1  0
  8  9  1  6
 10 11  2  0
 12 13  1  0
 12 10  1  0
 13 14  1  1
 14 15  1  0
 16 20  1  0
 16 15  1  0
 17 16  2  0
 18 19  2  0
 18 13  1  0
 21 22  1  0
 22 23  2  0
 22 24  1  0
 25 24  1  6
 25 26  1  0
 26 18  1  0
 27 25  1  0
 27 28  1  0
 29 27  2  0
M  END
$$$$
