REN.pdb
     RDKit          3D

 29 28  0  0  1  0  0  0  0  0999 V2000
    8.6408  -12.0735   20.6724 N   0  0  0  0  0  0  0  0  0  0  0  0
    8.6901  -12.6997   19.4102 C   0  0  0  0  0  0  0  0  0  0  0  0
    9.5462  -12.2639   18.5473 N   0  0  0  0  0  0  0  0  0  0  0  0
    7.8313  -13.7819   19.0792 N   0  0  0  0  0  0  0  0  0  0  0  0
    7.1511  -14.5457   20.0826 C   0  0  0  0  0  0  0  0  0  0  0  0
    7.8145  -15.8783   20.3514 C   0  0  0  0  0  0  0  0  0  0  0  0
    8.1398  -16.6244   19.0913 C   0  0  0  0  0  0  0  0  0  0  0  0
    8.7778  -17.9501   19.2970 C   0  0  2  0  0  0  0  0  0  0  0  0
    7.8705  -18.8853   19.9588 N   0  0  0  0  0  0  0  0  0  0  0  0
   10.0047  -17.8303   20.1003 C   0  0  0  0  0  0  0  0  0  0  0  0
   10.2736  -18.6404   21.0012 O   0  0  0  0  0  0  0  0  0  0  0  0
    9.6161  -12.5693   17.5744 N   0  0  0  0  0  0  0  0  0  0  0  0
   10.9174  -16.7687   19.8576 C   0  0  2  0  0  0  0  0  0  0  0  0
   12.2773  -16.8775   20.2611 C   0  0  0  0  0  0  0  0  0  0  0  0
   13.2233  -16.1458   19.3760 C   0  0  0  0  0  0  0  0  0  0  0  0
   13.2878  -14.6755   19.5028 C   0  0  0  0  0  0  0  0  0  0  0  0
   14.1784  -13.9515   18.5888 O   0  0  0  0  0  0  0  0  0  0  0  0
   15.2059  -13.3656   18.9530 C   0  0  0  0  0  0  0  0  0  0  0  0
   12.3668  -16.4059   21.6780 O   0  0  0  0  0  0  0  0  0  0  0  0
   13.4886  -16.2127   22.2473 O   0  0  0  0  0  0  0  0  0  0  0  0
   13.8548  -13.9144   17.2229 N   0  0  0  0  0  0  0  0  0  0  0  0
    7.4873  -15.8475   23.4115 C   0  0  0  0  0  0  0  0  0  0  0  0
    8.8044  -15.4610   23.8194 O   0  0  0  0  0  0  0  0  0  0  0  0
    9.0785  -14.2470   23.7816 C   0  0  0  0  0  0  0  0  0  0  0  0
    9.7554  -16.4783   24.2543 C   0  0  2  0  0  0  0  0  0  0  0  0
   11.1752  -16.2621   23.8378 N   0  0  0  0  0  0  0  0  0  0  0  0
   11.1584  -16.1800   22.3719 C   0  0  0  0  0  0  0  0  0  0  0  0
   12.0834  -17.3751   24.1916 O   0  0  0  0  0  0  0  0  0  0  0  0
   13.2023  -17.1093   24.9753 O   0  0  0  0  0  0  0  0  0  0  0  0
  2  3  2  0
  2  1  1  0
  4  2  1  0
  5  6  1  0
  5  4  1  0
  7  6  1  0
  8 10  1  0
  8  7  1  0
  8  9  1  1
 10 11  2  0
 12 13  1  0
 12 10  1  0
 13 14  1  6
 14 15  1  0
 16 20  1  0
 16 15  1  0
 17 16  2  0
 18 19  2  0
 18 13  1  0
 21 22  1  0
 22 23  2  0
 22 24  1  0
 25 24  1  1
 25 26  1  0
 26 18  1  0
 27 25  1  0
 27 28  1  0
 29 27  2  0
M  END
$$$$
