REN.pdb
     RDKit          3D

 29 28  0  0  1  0  0  0  0  0999 V2000
    7.9007  -12.8337   18.4620 N   0  0  0  0  0  0  0  0  0  0  0  0
    7.9676  -12.3231   19.7746 C   0  0  0  0  0  0  0  0  0  0  0  0
    8.7238  -11.2993   19.9918 N   0  0  0  0  0  0  0  0  0  0  0  0
    7.2299  -12.9042   20.8405 N   0  0  0  0  0  0  0  0  0  0  0  0
    6.4270  -14.0767   20.6576 C   0  0  0  0  0  0  0  0  0  0  0  0
    7.1800  -15.1996   19.9791 C   0  0  0  0  0  0  0  0  0  0  0  0
    8.2453  -15.7903   20.8546 C   0  0  0  0  0  0  0  0  0  0  0  0
    8.9855  -16.9305   20.2555 C   0  0  2  0  0  0  0  0  0  0  0  0
    8.1108  -18.0795   20.0310 N   0  0  0  0  0  0  0  0  0  0  0  0
   10.1053  -17.3470   21.1143 C   0  0  0  0  0  0  0  0  0  0  0  0
   10.0503  -18.3813   21.7980 O   0  0  0  0  0  0  0  0  0  0  0  0
    8.9032  -10.8772   20.9052 N   0  0  0  0  0  0  0  0  0  0  0  0
   11.2871  -16.5610   21.1797 C   0  0  2  0  0  0  0  0  0  0  0  0
   12.3961  -16.9861   21.9629 C   0  0  0  0  0  0  0  0  0  0  0  0
   13.6076  -16.1395   21.7917 C   0  0  0  0  0  0  0  0  0  0  0  0
   14.2497  -16.1171   20.4616 C   0  0  0  0  0  0  0  0  0  0  0  0
   14.7872  -14.8374   19.9862 O   0  0  0  0  0  0  0  0  0  0  0  0
   15.7608  -14.2698   20.4978 C   0  0  0  0  0  0  0  0  0  0  0  0
   11.9496  -17.0323   23.3899 O   0  0  0  0  0  0  0  0  0  0  0  0
   11.2939  -16.0761   23.9151 O   0  0  0  0  0  0  0  0  0  0  0  0
   14.1686  -14.2131   18.8911 N   0  0  0  0  0  0  0  0  0  0  0  0
   11.2821  -19.1608   28.1465 C   0  0  0  0  0  0  0  0  0  0  0  0
   10.5223  -19.6727   27.0460 O   0  0  0  0  0  0  0  0  0  0  0  0
    9.6092  -20.4770   27.3102 C   0  0  0  0  0  0  0  0  0  0  0  0
   10.8371  -19.2444   25.6873 C   0  0  1  0  0  0  0  0  0  0  0  0
   11.9061  -18.2061   25.5638 N   0  0  0  0  0  0  0  0  0  0  0  0
   12.2807  -18.1786   24.1443 C   0  0  0  0  0  0  0  0  0  0  0  0
   13.1375  -18.5153   26.3233 O   0  0  0  0  0  0  0  0  0  0  0  0
   13.1013  -18.4701   27.7138 O   0  0  0  0  0  0  0  0  0  0  0  0
  2  3  2  0
  2  1  1  0
  4  2  1  0
  5  6  1  0
  5  4  1  0
  7  6  1  0
  8 10  1  0
  8  7  1  0
  8  9  1  1
 10 11  2  0
 12 13  1  0
 12 10  1  0
 13 14  1  6
 14 15  1  0
 16 20  1  0
 16 15  1  0
 17 16  2  0
 18 19  2  0
 18 13  1  0
 21 22  1  0
 22 23  2  0
 22 24  1  0
 25 24  1  6
 25 26  1  0
 26 18  1  0
 27 25  1  0
 27 28  1  0
 29 27  2  0
M  END
$$$$
