REN.pdb
     RDKit          3D

 29 28  0  0  1  0  0  0  0  0999 V2000
    6.8364  -11.3992   20.9747 N   0  0  0  0  0  0  0  0  0  0  0  0
    7.5364  -12.2869   20.1321 C   0  0  0  0  0  0  0  0  0  0  0  0
    7.8940  -11.8646   18.9655 N   0  0  0  0  0  0  0  0  0  0  0  0
    7.8497  -13.6116   20.5383 N   0  0  0  0  0  0  0  0  0  0  0  0
    7.5588  -14.0904   21.8570 C   0  0  0  0  0  0  0  0  0  0  0  0
    7.9096  -15.5506   22.0383 C   0  0  0  0  0  0  0  0  0  0  0  0
    9.3901  -15.7924   22.0331 C   0  0  0  0  0  0  0  0  0  0  0  0
    9.8388  -16.9029   21.1543 C   0  0  2  0  0  0  0  0  0  0  0  0
    9.3078  -18.1890   21.6013 N   0  0  0  0  0  0  0  0  0  0  0  0
   11.3072  -16.9853   21.1103 C   0  0  0  0  0  0  0  0  0  0  0  0
   11.9194  -17.9471   21.6005 O   0  0  0  0  0  0  0  0  0  0  0  0
    8.4128  -12.4067   18.2714 N   0  0  0  0  0  0  0  0  0  0  0  0
   12.0634  -15.9496   20.4984 C   0  0  2  0  0  0  0  0  0  0  0  0
   13.4769  -16.0592   20.3800 C   0  0  0  0  0  0  0  0  0  0  0  0
   14.0725  -15.0920   19.4190 C   0  0  0  0  0  0  0  0  0  0  0  0
   15.5277  -15.1690   19.1772 C   0  0  0  0  0  0  0  0  0  0  0  0
   16.1059  -14.2392   18.2006 O   0  0  0  0  0  0  0  0  0  0  0  0
   15.6162  -14.0246   17.0844 C   0  0  0  0  0  0  0  0  0  0  0  0
   14.0577  -15.9078   21.7503 O   0  0  0  0  0  0  0  0  0  0  0  0
   13.5622  -15.0995   22.5994 O   0  0  0  0  0  0  0  0  0  0  0  0
   17.2813  -13.5507   18.5413 N   0  0  0  0  0  0  0  0  0  0  0  0
   17.2830  -18.8826   25.5320 C   0  0  0  0  0  0  0  0  0  0  0  0
   16.1445  -18.0223   25.4122 O   0  0  0  0  0  0  0  0  0  0  0  0
   15.7553  -17.4465   26.4453 C   0  0  0  0  0  0  0  0  0  0  0  0
   15.4968  -17.8549   24.1158 C   0  0  2  0  0  0  0  0  0  0  0  0
   15.7591  -16.5574   23.4202 N   0  0  0  0  0  0  0  0  0  0  0  0
   15.1829  -16.6954   22.0767 C   0  0  0  0  0  0  0  0  0  0  0  0
   17.1949  -16.2504   23.2383 O   0  0  0  0  0  0  0  0  0  0  0  0
   17.7732  -16.4466   21.9878 O   0  0  0  0  0  0  0  0  0  0  0  0
  2  3  2  0
  2  1  1  0
  4  2  1  0
  5  6  1  0
  5  4  1  0
  7  6  1  0
  8 10  1  0
  8  7  1  0
  8  9  1  1
 10 11  2  0
 12 13  1  0
 12 10  1  0
 13 14  1  6
 14 15  1  0
 16 20  1  0
 16 15  1  0
 17 16  2  0
 18 19  2  0
 18 13  1  0
 21 22  1  0
 22 23  2  0
 22 24  1  0
 25 24  1  1
 25 26  1  0
 26 18  1  0
 27 25  1  0
 27 28  1  0
 29 27  2  0
M  END
$$$$
