REN.pdb
     RDKit          3D

 29 28  0  0  1  0  0  0  0  0999 V2000
    9.4535  -14.4578   17.7326 N   0  0  0  0  0  0  0  0  0  0  0  0
    9.1045  -13.3556   18.5397 C   0  0  0  0  0  0  0  0  0  0  0  0
    9.9242  -12.3597   18.5977 N   0  0  0  0  0  0  0  0  0  0  0  0
    7.8890  -13.3230   19.2743 N   0  0  0  0  0  0  0  0  0  0  0  0
    7.7422  -13.9978   20.5297 C   0  0  0  0  0  0  0  0  0  0  0  0
    6.4533  -14.7841   20.6224 C   0  0  0  0  0  0  0  0  0  0  0  0
    6.6751  -16.2655   20.5426 C   0  0  0  0  0  0  0  0  0  0  0  0
    7.2767  -16.8737   21.7571 C   0  0  2  0  0  0  0  0  0  0  0  0
    7.0610  -16.0400   22.9378 N   0  0  0  0  0  0  0  0  0  0  0  0
    8.7223  -17.0866   21.5841 C   0  0  0  0  0  0  0  0  0  0  0  0
    9.1662  -17.8765   20.7360 O   0  0  0  0  0  0  0  0  0  0  0  0
    9.7587  -11.4832   19.0967 N   0  0  0  0  0  0  0  0  0  0  0  0
    9.6510  -16.3832   22.3974 C   0  0  1  0  0  0  0  0  0  0  0  0
   11.0426  -16.6685   22.3190 C   0  0  0  0  0  0  0  0  0  0  0  0
   11.8540  -15.5422   21.7835 C   0  0  0  0  0  0  0  0  0  0  0  0
   13.3111  -15.7449   21.6515 C   0  0  0  0  0  0  0  0  0  0  0  0
   14.1173  -14.6105   21.1871 O   0  0  0  0  0  0  0  0  0  0  0  0
   15.2797  -14.3986   21.5554 C   0  0  0  0  0  0  0  0  0  0  0  0
   11.4968  -17.0787   23.6840 O   0  0  0  0  0  0  0  0  0  0  0  0
   11.2273  -16.3818   24.7143 O   0  0  0  0  0  0  0  0  0  0  0  0
   13.5467  -13.7084   20.2747 N   0  0  0  0  0  0  0  0  0  0  0  0
   10.4428  -21.4999   24.5954 C   0  0  0  0  0  0  0  0  0  0  0  0
   11.0573  -20.5305   25.4516 O   0  0  0  0  0  0  0  0  0  0  0  0
   10.3582  -20.0535   26.3649 C   0  0  0  0  0  0  0  0  0  0  0  0
   12.4468  -20.1455   25.2292 C   0  0  2  0  0  0  0  0  0  0  0  0
   12.7068  -18.6763   25.1294 N   0  0  0  0  0  0  0  0  0  0  0  0
   12.2410  -18.2731   23.7966 C   0  0  0  0  0  0  0  0  0  0  0  0
   14.1381  -18.3106   25.2090 O   0  0  0  0  0  0  0  0  0  0  0  0
   14.7212  -18.1377   26.4608 O   0  0  0  0  0  0  0  0  0  0  0  0
  2  3  2  0
  2  1  1  0
  4  2  1  0
  5  6  1  0
  5  4  1  0
  7  6  1  0
  8 10  1  0
  8  7  1  0
  8  9  1  1
 10 11  2  0
 12 13  1  0
 12 10  1  0
 13 14  1  6
 14 15  1  0
 16 20  1  0
 16 15  1  0
 17 16  2  0
 18 19  2  0
 18 13  1  0
 21 22  1  0
 22 23  2  0
 22 24  1  0
 25 24  1  1
 25 26  1  0
 26 18  1  0
 27 25  1  0
 27 28  1  0
 29 27  2  0
M  END
$$$$
