REN.pdb
     RDKit          3D

 29 28  0  0  1  0  0  0  0  0999 V2000
    7.4367  -11.9236   18.5254 N   0  0  0  0  0  0  0  0  0  0  0  0
    8.6683  -12.5129   18.8773 C   0  0  0  0  0  0  0  0  0  0  0  0
    9.6312  -11.7363   19.2474 N   0  0  0  0  0  0  0  0  0  0  0  0
    8.8629  -13.9194   18.8334 N   0  0  0  0  0  0  0  0  0  0  0  0
    7.8425  -14.8131   18.3720 C   0  0  0  0  0  0  0  0  0  0  0  0
    6.6275  -14.8266   19.2731 C   0  0  0  0  0  0  0  0  0  0  0  0
    6.5487  -16.0653   20.1154 C   0  0  0  0  0  0  0  0  0  0  0  0
    6.7750  -15.8490   21.5676 C   0  0  2  0  0  0  0  0  0  0  0  0
    7.0610  -14.4466   21.8631 N   0  0  0  0  0  0  0  0  0  0  0  0
    7.8888  -16.6745   22.0605 C   0  0  0  0  0  0  0  0  0  0  0  0
    7.8921  -17.9084   21.9269 O   0  0  0  0  0  0  0  0  0  0  0  0
   10.5877  -12.0329   19.4519 N   0  0  0  0  0  0  0  0  0  0  0  0
    8.9969  -16.0665   22.7094 C   0  0  1  0  0  0  0  0  0  0  0  0
   10.0449  -16.8628   23.2495 C   0  0  0  0  0  0  0  0  0  0  0  0
   11.4046  -16.3197   22.9846 C   0  0  0  0  0  0  0  0  0  0  0  0
   11.8500  -16.2337   21.5789 C   0  0  0  0  0  0  0  0  0  0  0  0
   13.1745  -15.6590   21.3180 O   0  0  0  0  0  0  0  0  0  0  0  0
   13.7834  -14.9449   22.1249 C   0  0  0  0  0  0  0  0  0  0  0  0
    9.7855  -17.0168   24.7147 O   0  0  0  0  0  0  0  0  0  0  0  0
    9.3457  -16.0525   25.4194 O   0  0  0  0  0  0  0  0  0  0  0  0
   13.7935  -15.9270   20.0865 N   0  0  0  0  0  0  0  0  0  0  0  0
    8.2211  -19.0851   29.2800 C   0  0  0  0  0  0  0  0  0  0  0  0
    8.6058  -20.0057   28.2529 O   0  0  0  0  0  0  0  0  0  0  0  0
    8.7402  -21.1995   28.5799 C   0  0  0  0  0  0  0  0  0  0  0  0
    8.8213  -19.5241   26.8927 C   0  0  1  0  0  0  0  0  0  0  0  0
    9.8277  -18.4284   26.7424 N   0  0  0  0  0  0  0  0  0  0  0  0
   10.0461  -18.2755   25.2984 C   0  0  0  0  0  0  0  0  0  0  0  0
   11.1452  -18.7334   27.3424 O   0  0  0  0  0  0  0  0  0  0  0  0
   11.4420  -18.2340   28.6070 O   0  0  0  0  0  0  0  0  0  0  0  0
  2  3  2  0
  2  1  1  0
  4  2  1  0
  5  6  1  0
  5  4  1  0
  7  6  1  0
  8 10  1  0
  8  7  1  0
  8  9  1  6
 10 11  2  0
 12 13  1  0
 12 10  1  0
 13 14  1  6
 14 15  1  0
 16 20  1  0
 16 15  1  0
 17 16  2  0
 18 19  2  0
 18 13  1  0
 21 22  1  0
 22 23  2  0
 22 24  1  0
 25 24  1  6
 25 26  1  0
 26 18  1  0
 27 25  1  0
 27 28  1  0
 29 27  2  0
M  END
$$$$
