REN.pdb
     RDKit          3D

 29 28  0  0  1  0  0  0  0  0999 V2000
    8.8123  -11.2243   19.9654 N   0  0  0  0  0  0  0  0  0  0  0  0
    7.9678  -12.3016   19.6276 C   0  0  0  0  0  0  0  0  0  0  0  0
    7.7264  -12.5173   18.3776 N   0  0  0  0  0  0  0  0  0  0  0  0
    7.3907  -13.1380   20.6204 N   0  0  0  0  0  0  0  0  0  0  0  0
    6.4971  -14.2071   20.2868 C   0  0  0  0  0  0  0  0  0  0  0  0
    7.2021  -15.3740   19.6316 C   0  0  0  0  0  0  0  0  0  0  0  0
    8.5801  -15.5968   20.1809 C   0  0  0  0  0  0  0  0  0  0  0  0
    9.3147  -16.7402   19.5811 C   0  0  2  0  0  0  0  0  0  0  0  0
    8.6000  -17.9997   19.7777 N   0  0  0  0  0  0  0  0  0  0  0  0
   10.6635  -16.8652   20.1557 C   0  0  0  0  0  0  0  0  0  0  0  0
   10.9974  -17.8585   20.8207 O   0  0  0  0  0  0  0  0  0  0  0  0
    7.1105  -13.2450   18.0091 N   0  0  0  0  0  0  0  0  0  0  0  0
   11.6228  -15.8357   19.9588 C   0  0  2  0  0  0  0  0  0  0  0  0
   12.9371  -15.9607   20.4889 C   0  0  0  0  0  0  0  0  0  0  0  0
   13.9008  -14.9713   19.9356 C   0  0  0  0  0  0  0  0  0  0  0  0
   14.3133  -15.1258   18.5257 C   0  0  0  0  0  0  0  0  0  0  0  0
   15.2018  -14.1045   17.9601 O   0  0  0  0  0  0  0  0  0  0  0  0
   16.0730  -13.5157   18.6128 C   0  0  0  0  0  0  0  0  0  0  0  0
   12.8344  -15.8613   21.9780 O   0  0  0  0  0  0  0  0  0  0  0  0
   11.7643  -15.4753   22.5487 O   0  0  0  0  0  0  0  0  0  0  0  0
   15.0630  -13.7684   16.6039 N   0  0  0  0  0  0  0  0  0  0  0  0
   10.7947  -18.9504   24.8514 C   0  0  0  0  0  0  0  0  0  0  0  0
   11.8412  -17.9880   25.0227 O   0  0  0  0  0  0  0  0  0  0  0  0
   11.7934  -17.2704   26.0391 C   0  0  0  0  0  0  0  0  0  0  0  0
   12.9003  -17.8848   24.0247 C   0  0  2  0  0  0  0  0  0  0  0  0
   13.7667  -16.6697   24.1188 N   0  0  0  0  0  0  0  0  0  0  0  0
   13.9709  -16.2111   22.7390 C   0  0  0  0  0  0  0  0  0  0  0  0
   15.1090  -16.9287   24.6846 O   0  0  0  0  0  0  0  0  0  0  0  0
   15.6373  -18.2138   24.6060 O   0  0  0  0  0  0  0  0  0  0  0  0
  2  3  2  0
  2  1  1  0
  4  2  1  0
  5  6  1  0
  5  4  1  0
  7  6  1  0
  8 10  1  0
  8  7  1  0
  8  9  1  1
 10 11  2  0
 12 13  1  0
 12 10  1  0
 13 14  1  6
 14 15  1  0
 16 20  1  0
 16 15  1  0
 17 16  2  0
 18 19  2  0
 18 13  1  0
 21 22  1  0
 22 23  2  0
 22 24  1  0
 25 24  1  1
 25 26  1  0
 26 18  1  0
 27 25  1  0
 27 28  1  0
 29 27  2  0
M  END
$$$$
