REN.pdb
     RDKit          3D

 29 28  0  0  1  0  0  0  0  0999 V2000
    9.4398  -14.3533   16.4200 N   0  0  0  0  0  0  0  0  0  0  0  0
    8.3339  -13.5560   16.0603 C   0  0  0  0  0  0  0  0  0  0  0  0
    8.1549  -13.2920   14.8092 N   0  0  0  0  0  0  0  0  0  0  0  0
    7.4305  -13.0498   17.0328 N   0  0  0  0  0  0  0  0  0  0  0  0
    7.6544  -13.2183   18.4379 C   0  0  0  0  0  0  0  0  0  0  0  0
    7.4575  -14.6474   18.8929 C   0  0  0  0  0  0  0  0  0  0  0  0
    7.6249  -14.8084   20.3749 C   0  0  0  0  0  0  0  0  0  0  0  0
    9.0296  -14.9683   20.8314 C   0  0  2  0  0  0  0  0  0  0  0  0
    9.8707  -15.5483   19.7864 N   0  0  0  0  0  0  0  0  0  0  0  0
    9.1052  -15.8201   22.0288 C   0  0  0  0  0  0  0  0  0  0  0  0
    8.2650  -15.7389   22.9385 O   0  0  0  0  0  0  0  0  0  0  0  0
    7.3451  -12.8091   14.4145 N   0  0  0  0  0  0  0  0  0  0  0  0
   10.1577  -16.7642   22.1693 C   0  0  1  0  0  0  0  0  0  0  0  0
   10.3210  -17.4904   23.3818 C   0  0  0  0  0  0  0  0  0  0  0  0
   11.3357  -18.5752   23.2962 C   0  0  0  0  0  0  0  0  0  0  0  0
   11.3465  -19.4137   22.0802 C   0  0  0  0  0  0  0  0  0  0  0  0
   12.3759  -20.4542   21.9795 O   0  0  0  0  0  0  0  0  0  0  0  0
   12.8772  -21.0203   22.9592 C   0  0  0  0  0  0  0  0  0  0  0  0
   10.6529  -16.5047   24.4570 O   0  0  0  0  0  0  0  0  0  0  0  0
   11.5522  -15.6186   24.2952 O   0  0  0  0  0  0  0  0  0  0  0  0
   12.8251  -20.8351   20.7047 N   0  0  0  0  0  0  0  0  0  0  0  0
    8.2075  -12.7205   28.0624 C   0  0  0  0  0  0  0  0  0  0  0  0
    9.1703  -13.7776   27.9842 O   0  0  0  0  0  0  0  0  0  0  0  0
   10.0475  -13.8147   28.8671 C   0  0  0  0  0  0  0  0  0  0  0  0
    9.0912  -14.7501   26.8995 C   0  0  1  0  0  0  0  0  0  0  0  0
   10.2759  -15.6491   26.7442 N   0  0  0  0  0  0  0  0  0  0  0  0
    9.9327  -16.5876   25.6683 C   0  0  0  0  0  0  0  0  0  0  0  0
   10.5748  -16.4649   27.9417 O   0  0  0  0  0  0  0  0  0  0  0  0
   10.2322  -17.8138   27.9413 O   0  0  0  0  0  0  0  0  0  0  0  0
  2  3  2  0
  2  1  1  0
  4  2  1  0
  5  6  1  0
  5  4  1  0
  7  6  1  0
  8 10  1  0
  8  7  1  0
  8  9  1  6
 10 11  2  0
 12 13  1  0
 12 10  1  0
 13 14  1  1
 14 15  1  0
 16 20  1  0
 16 15  1  0
 17 16  2  0
 18 19  2  0
 18 13  1  0
 21 22  1  0
 22 23  2  0
 22 24  1  0
 25 24  1  6
 25 26  1  0
 26 18  1  0
 27 25  1  0
 27 28  1  0
 29 27  2  0
M  END
$$$$
