REN.pdb
     RDKit          3D

 29 28  0  0  1  0  0  0  0  0999 V2000
    7.1555  -15.1653   20.7458 N   0  0  0  0  0  0  0  0  0  0  0  0
    7.1315  -13.9405   21.4438 C   0  0  0  0  0  0  0  0  0  0  0  0
    6.2551  -13.7903   22.3800 N   0  0  0  0  0  0  0  0  0  0  0  0
    8.0389  -12.8902   21.1408 N   0  0  0  0  0  0  0  0  0  0  0  0
    8.3597  -12.5295   19.7919 C   0  0  0  0  0  0  0  0  0  0  0  0
    8.5609  -13.7331   18.8980 C   0  0  0  0  0  0  0  0  0  0  0  0
    9.8612  -13.6853   18.1514 C   0  0  0  0  0  0  0  0  0  0  0  0
   10.7912  -14.8062   18.4436 C   0  0  2  0  0  0  0  0  0  0  0  0
   10.0691  -16.0117   18.8452 N   0  0  0  0  0  0  0  0  0  0  0  0
   11.7407  -14.4450   19.5081 C   0  0  0  0  0  0  0  0  0  0  0  0
   12.4938  -13.4643   19.4020 O   0  0  0  0  0  0  0  0  0  0  0  0
    6.1261  -12.9467   22.9424 N   0  0  0  0  0  0  0  0  0  0  0  0
   11.8157  -15.2241   20.6939 C   0  0  1  0  0  0  0  0  0  0  0  0
   12.8564  -15.0047   21.6388 C   0  0  0  0  0  0  0  0  0  0  0  0
   12.5046  -15.4233   23.0226 C   0  0  0  0  0  0  0  0  0  0  0  0
   12.0164  -16.8032   23.2215 C   0  0  0  0  0  0  0  0  0  0  0  0
   11.7062  -17.2250   24.5921 O   0  0  0  0  0  0  0  0  0  0  0  0
   11.8854  -18.3749   25.0131 C   0  0  0  0  0  0  0  0  0  0  0  0
   14.0762  -15.7120   21.1392 O   0  0  0  0  0  0  0  0  0  0  0  0
   14.0178  -16.5455   20.1791 O   0  0  0  0  0  0  0  0  0  0  0  0
   11.1748  -16.2788   25.4831 N   0  0  0  0  0  0  0  0  0  0  0  0
   17.5193  -13.3007   18.1258 C   0  0  0  0  0  0  0  0  0  0  0  0
   16.4486  -14.0842   18.6646 O   0  0  0  0  0  0  0  0  0  0  0  0
   15.8400  -14.8334   17.8781 C   0  0  0  0  0  0  0  0  0  0  0  0
   16.1168  -13.9796   20.0814 C   0  0  2  0  0  0  0  0  0  0  0  0
   16.4755  -15.1626   20.9227 N   0  0  0  0  0  0  0  0  0  0  0  0
   15.3059  -15.4252   21.7705 C   0  0  0  0  0  0  0  0  0  0  0  0
   17.6182  -14.9306   21.8334 O   0  0  0  0  0  0  0  0  0  0  0  0
   18.9049  -15.2168   21.3872 O   0  0  0  0  0  0  0  0  0  0  0  0
  2  3  2  0
  2  1  1  0
  4  2  1  0
  5  6  1  0
  5  4  1  0
  7  6  1  0
  8 10  1  0
  8  7  1  0
  8  9  1  1
 10 11  2  0
 12 13  1  0
 12 10  1  0
 13 14  1  1
 14 15  1  0
 16 20  1  0
 16 15  1  0
 17 16  2  0
 18 19  2  0
 18 13  1  0
 21 22  1  0
 22 23  2  0
 22 24  1  0
 25 24  1  6
 25 26  1  0
 26 18  1  0
 27 25  1  0
 27 28  1  0
 29 27  2  0
M  END
$$$$
