REN.pdb
     RDKit          3D

 29 28  0  0  1  0  0  0  0  0999 V2000
    7.7180  -12.5977   19.6420 N   0  0  0  0  0  0  0  0  0  0  0  0
    7.4374  -13.5377   20.6547 C   0  0  0  0  0  0  0  0  0  0  0  0
    6.4695  -13.2831   21.4705 N   0  0  0  0  0  0  0  0  0  0  0  0
    8.1864  -14.7374   20.7885 N   0  0  0  0  0  0  0  0  0  0  0  0
    9.4195  -14.9447   20.0889 C   0  0  0  0  0  0  0  0  0  0  0  0
   10.0485  -16.2848   20.3996 C   0  0  0  0  0  0  0  0  0  0  0  0
   11.2931  -16.5361   19.6006 C   0  0  0  0  0  0  0  0  0  0  0  0
   11.8638  -17.9000   19.7453 C   0  0  2  0  0  0  0  0  0  0  0  0
   10.8793  -18.9307   19.4225 N   0  0  0  0  0  0  0  0  0  0  0  0
   12.3577  -18.1270   21.1126 C   0  0  0  0  0  0  0  0  0  0  0  0
   11.8949  -19.0279   21.8297 O   0  0  0  0  0  0  0  0  0  0  0  0
    6.2011  -13.8591   22.2711 N   0  0  0  0  0  0  0  0  0  0  0  0
   13.3874  -17.3063   21.6463 C   0  0  2  0  0  0  0  0  0  0  0  0
   13.9242  -17.5674   22.9377 C   0  0  0  0  0  0  0  0  0  0  0  0
   15.1227  -16.7479   23.2631 C   0  0  0  0  0  0  0  0  0  0  0  0
   16.4515  -17.3598   23.0589 C   0  0  0  0  0  0  0  0  0  0  0  0
   17.6308  -16.5108   23.2616 O   0  0  0  0  0  0  0  0  0  0  0  0
   18.7937  -16.9022   23.1004 C   0  0  0  0  0  0  0  0  0  0  0  0
   12.8262  -17.3627   23.9328 O   0  0  0  0  0  0  0  0  0  0  0  0
   11.9958  -16.4044   23.8224 O   0  0  0  0  0  0  0  0  0  0  0  0
   17.4398  -15.1786   23.6622 N   0  0  0  0  0  0  0  0  0  0  0  0
   11.2473  -20.6282   24.9347 C   0  0  0  0  0  0  0  0  0  0  0  0
   10.1740  -19.6819   24.8780 O   0  0  0  0  0  0  0  0  0  0  0  0
    9.0817  -20.0862   24.4378 C   0  0  0  0  0  0  0  0  0  0  0  0
   10.3929  -18.3112   25.3270 C   0  0  1  0  0  0  0  0  0  0  0  0
   11.6938  -18.0528   26.0177 N   0  0  0  0  0  0  0  0  0  0  0  0
   12.7377  -18.2723   25.0088 C   0  0  0  0  0  0  0  0  0  0  0  0
   11.9785  -18.9810   27.1340 O   0  0  0  0  0  0  0  0  0  0  0  0
   13.0657  -19.8438   27.0329 O   0  0  0  0  0  0  0  0  0  0  0  0
  2  3  2  0
  2  1  1  0
  4  2  1  0
  5  6  1  0
  5  4  1  0
  7  6  1  0
  8 10  1  0
  8  7  1  0
  8  9  1  1
 10 11  2  0
 12 13  1  0
 12 10  1  0
 13 14  1  6
 14 15  1  0
 16 20  1  0
 16 15  1  0
 17 16  2  0
 18 19  2  0
 18 13  1  0
 21 22  1  0
 22 23  2  0
 22 24  1  0
 25 24  1  6
 25 26  1  0
 26 18  1  0
 27 25  1  0
 27 28  1  0
 29 27  2  0
M  END
$$$$
