WHI.pdb
     RDKit          3D

 33 35  0  0  1  0  0  0  0  0999 V2000
   28.0372  -21.5157   -9.1985 N   0  0  0  0  0  0  0  0  0  0  0  0
   26.6707  -21.1102   -9.2924 C   0  0  1  0  0  0  0  0  0  0  0  0
   26.3979  -19.9397   -8.4087 C   0  0  0  0  0  0  0  0  0  0  0  0
   26.7065  -20.2711   -7.0120 C   0  0  0  0  0  0  0  0  0  0  0  0
   26.0101  -21.2070   -6.2319 C   0  0  0  0  0  0  0  0  0  0  0  0
   26.5711  -21.2874   -5.0317 N   0  0  0  0  0  0  0  0  0  0  0  0
   27.6150  -20.4415   -4.9767 C   0  0  0  0  0  0  0  0  0  0  0  0
   28.5046  -20.1637   -3.9403 C   0  0  0  0  0  0  0  0  0  0  0  0
   29.4912  -19.2311   -4.1559 C   0  0  0  0  0  0  0  0  0  0  0  0
   29.6006  -18.5840   -5.3667 C   0  0  0  0  0  0  0  0  0  0  0  0
   28.7101  -18.8618   -6.4065 C   0  0  0  0  0  0  0  0  0  0  0  0
   27.7192  -19.8033   -6.1836 C   0  0  0  0  0  0  0  0  0  0  0  0
   26.3583  -20.8268  -10.7228 C   0  0  0  0  0  0  0  0  0  0  0  0
   26.9981  -19.9190  -11.3583 O   0  0  0  0  0  0  0  0  0  0  0  0
   25.3745  -21.5086  -11.4586 N   0  0  0  0  0  0  0  0  0  0  0  0
   25.0554  -21.1756  -12.8689 C   0  0  1  0  0  0  0  0  0  0  0  0
   25.3293  -22.4404  -13.6160 C   0  0  0  0  0  0  0  0  0  0  0  0
   25.0530  -22.4230  -15.0582 C   0  0  0  0  0  0  0  0  0  0  0  0
   25.7843  -21.7861  -16.0347 C   0  0  0  0  0  0  0  0  0  0  0  0
   25.2040  -21.9701  -17.2475 N   0  0  0  0  0  0  0  0  0  0  0  0
   24.1131  -22.7190  -17.0280 C   0  0  0  0  0  0  0  0  0  0  0  0
   24.0138  -22.9956  -15.7192 N   0  0  0  0  0  0  0  0  0  0  0  0
   23.6652  -20.7098  -12.8581 C   0  0  0  0  0  0  0  0  0  0  0  0
   23.1392  -20.2622  -11.7825 O   0  0  0  0  0  0  0  0  0  0  0  0
   19.8262  -17.5526  -12.2013 C   0  0  0  0  0  0  0  0  0  0  0  0
   20.2001  -17.9474  -13.6347 C   0  0  0  0  0  0  0  0  0  0  0  0
   21.5363  -18.6310  -13.6691 C   0  0  2  0  0  0  0  0  0  0  0  0
   22.3746  -17.9867  -14.7391 C   0  0  0  0  0  0  0  0  0  0  0  0
   21.4554  -20.1172  -13.9340 C   0  0  2  0  0  0  0  0  0  0  0  0
   22.7899  -20.7029  -14.0048 N   0  0  0  0  0  0  0  0  0  0  0  0
   20.5837  -20.4852  -15.0527 C   0  0  0  0  0  0  0  0  0  0  0  0
   20.9870  -21.1133  -16.2051 O   0  0  0  0  0  0  0  0  0  0  0  0
   19.3508  -20.2106  -14.9764 O   0  0  0  0  0  0  0  0  0  0  0  0
  2  1  1  6
  3  2  1  0
  4  3  1  0
  5  4  2  0
  6  7  1  0
  6  5  1  0
  7 12  2  0
  8  9  2  0
  8  7  1  0
  9 10  1  0
 10 11  2  0
 12 11  1  0
 12  4  1  0
 13  2  1  0
 13 14  2  0
 15 13  1  0
 16 15  1  0
 16 17  1  6
 18 17  1  0
 19 18  2  0
 20 21  1  0
 20 19  1  0
 21 22  2  0
 22 18  1  0
 23 16  1  0
 24 23  2  0
 26 25  1  0
 27 26  1  0
 27 28  1  6
 29 27  1  0
 29 30  1  6
 30 23  1  0
 31 29  1  0
 32 31  1  0
 33 31  2  0
M  END
$$$$
