WHI.pdb
     RDKit          3D

 33 35  0  0  1  0  0  0  0  0999 V2000
   15.1373  -14.9557    5.3007 N   0  0  0  0  0  0  0  0  0  0  0  0
   16.4082  -15.5996    5.4054 C   0  0  1  0  0  0  0  0  0  0  0  0
   17.2167  -15.0110    6.5124 C   0  0  0  0  0  0  0  0  0  0  0  0
   17.9721  -13.8477    6.0306 C   0  0  0  0  0  0  0  0  0  0  0  0
   17.4544  -12.8318    5.2126 C   0  0  0  0  0  0  0  0  0  0  0  0
   18.3920  -11.9178    4.9954 N   0  0  0  0  0  0  0  0  0  0  0  0
   19.5175  -12.2819    5.6349 C   0  0  0  0  0  0  0  0  0  0  0  0
   20.7636  -11.6612    5.7040 C   0  0  0  0  0  0  0  0  0  0  0  0
   21.7579  -12.2673    6.4345 C   0  0  0  0  0  0  0  0  0  0  0  0
   21.5316  -13.4606    7.0836 C   0  0  0  0  0  0  0  0  0  0  0  0
   20.2833  -14.0836    7.0157 C   0  0  0  0  0  0  0  0  0  0  0  0
   19.2852  -13.4674    6.2794 C   0  0  0  0  0  0  0  0  0  0  0  0
   16.1841  -17.0633    5.5822 C   0  0  0  0  0  0  0  0  0  0  0  0
   15.6254  -17.5099    6.6432 O   0  0  0  0  0  0  0  0  0  0  0  0
   16.5538  -18.0315    4.6334 N   0  0  0  0  0  0  0  0  0  0  0  0
   16.5521  -19.4851    4.9309 C   0  0  1  0  0  0  0  0  0  0  0  0
   16.2269  -20.1277    3.6216 C   0  0  0  0  0  0  0  0  0  0  0  0
   16.2770  -21.5948    3.5809 C   0  0  0  0  0  0  0  0  0  0  0  0
   16.7649  -22.4350    4.5555 C   0  0  0  0  0  0  0  0  0  0  0  0
   16.6727  -23.7261    4.1481 N   0  0  0  0  0  0  0  0  0  0  0  0
   16.1293  -23.6914    2.9223 C   0  0  0  0  0  0  0  0  0  0  0  0
   15.8886  -22.4187    2.5734 N   0  0  0  0  0  0  0  0  0  0  0  0
   17.8764  -19.7735    5.4903 C   0  0  0  0  0  0  0  0  0  0  0  0
   18.9204  -19.2167    5.0065 O   0  0  0  0  0  0  0  0  0  0  0  0
   21.5316  -19.5049    9.9816 C   0  0  0  0  0  0  0  0  0  0  0  0
   21.2000  -20.4421    8.8145 C   0  0  0  0  0  0  0  0  0  0  0  0
   19.8651  -20.1011    8.2182 C   0  0  2  0  0  0  0  0  0  0  0  0
   18.8149  -20.2448    9.2855 C   0  0  0  0  0  0  0  0  0  0  0  0
   19.4868  -20.9624    7.0348 C   0  0  2  0  0  0  0  0  0  0  0  0
   18.1273  -20.6673    6.5945 N   0  0  0  0  0  0  0  0  0  0  0  0
   19.7569  -22.3910    7.2160 C   0  0  0  0  0  0  0  0  0  0  0  0
   20.9976  -22.9783    7.1866 O   0  0  0  0  0  0  0  0  0  0  0  0
   18.7813  -23.1717    7.4162 O   0  0  0  0  0  0  0  0  0  0  0  0
  2  1  1  1
  3  2  1  0
  4  3  1  0
  5  4  2  0
  6  7  1  0
  6  5  1  0
  7 12  2  0
  8  9  2  0
  8  7  1  0
  9 10  1  0
 10 11  2  0
 12 11  1  0
 12  4  1  0
 13  2  1  0
 13 14  2  0
 15 13  1  0
 16 15  1  0
 16 17  1  6
 18 17  1  0
 19 18  2  0
 20 21  1  0
 20 19  1  0
 21 22  2  0
 22 18  1  0
 23 16  1  0
 24 23  2  0
 26 25  1  0
 27 26  1  0
 27 28  1  1
 29 27  1  0
 29 30  1  1
 30 23  1  0
 31 29  1  0
 32 31  1  0
 33 31  2  0
M  END
$$$$
