WHI.pdb
     RDKit          3D

 33 35  0  0  1  0  0  0  0  0999 V2000
   19.7466  -21.3479  -15.9707 N   0  0  0  0  0  0  0  0  0  0  0  0
   20.5494  -20.4381  -15.2167 C   0  0  1  0  0  0  0  0  0  0  0  0
   20.8297  -20.9750  -13.8534 C   0  0  0  0  0  0  0  0  0  0  0  0
   20.4273  -20.0031  -12.8290 C   0  0  0  0  0  0  0  0  0  0  0  0
   19.5563  -18.9231  -13.0391 C   0  0  0  0  0  0  0  0  0  0  0  0
   19.3798  -18.2686  -11.8980 N   0  0  0  0  0  0  0  0  0  0  0  0
   20.0991  -18.8669  -10.9321 C   0  0  0  0  0  0  0  0  0  0  0  0
   20.2453  -18.5521   -9.5822 C   0  0  0  0  0  0  0  0  0  0  0  0
   21.0646  -19.3412   -8.8104 C   0  0  0  0  0  0  0  0  0  0  0  0
   21.7275  -20.4182   -9.3553 C   0  0  0  0  0  0  0  0  0  0  0  0
   21.5816  -20.7352  -10.7079 C   0  0  0  0  0  0  0  0  0  0  0  0
   20.7538  -19.9374  -11.4799 C   0  0  0  0  0  0  0  0  0  0  0  0
   21.7970  -20.1593  -15.9847 C   0  0  0  0  0  0  0  0  0  0  0  0
   22.4683  -21.1187  -16.5008 O   0  0  0  0  0  0  0  0  0  0  0  0
   22.3143  -18.8701  -16.1953 N   0  0  0  0  0  0  0  0  0  0  0  0
   23.6682  -18.6324  -16.7541 C   0  0  1  0  0  0  0  0  0  0  0  0
   23.5297  -17.3589  -17.5234 C   0  0  0  0  0  0  0  0  0  0  0  0
   24.1940  -17.3079  -18.8321 C   0  0  0  0  0  0  0  0  0  0  0  0
   23.7240  -17.8179  -20.0208 C   0  0  0  0  0  0  0  0  0  0  0  0
   24.6287  -17.6067  -21.0098 N   0  0  0  0  0  0  0  0  0  0  0  0
   25.6608  -16.9674  -20.4396 C   0  0  0  0  0  0  0  0  0  0  0  0
   25.4099  -16.7837  -19.1346 N   0  0  0  0  0  0  0  0  0  0  0  0
   24.5709  -18.6043  -15.5990 C   0  0  0  0  0  0  0  0  0  0  0  0
   24.5186  -17.6431  -14.7579 O   0  0  0  0  0  0  0  0  0  0  0  0
   26.3873  -21.1585  -10.6821 C   0  0  0  0  0  0  0  0  0  0  0  0
   26.8628  -20.2028  -11.7825 C   0  0  0  0  0  0  0  0  0  0  0  0
   26.0218  -20.3493  -13.0174 C   0  0  2  0  0  0  0  0  0  0  0  0
   26.0635  -21.7879  -13.4552 C   0  0  0  0  0  0  0  0  0  0  0  0
   26.4645  -19.4713  -14.1656 C   0  0  2  0  0  0  0  0  0  0  0  0
   25.5601  -19.6115  -15.3020 N   0  0  0  0  0  0  0  0  0  0  0  0
   27.8819  -19.6003  -14.5136 C   0  0  0  0  0  0  0  0  0  0  0  0
   28.9346  -19.1699  -13.7444 O   0  0  0  0  0  0  0  0  0  0  0  0
   28.1889  -20.1496  -15.6115 O   0  0  0  0  0  0  0  0  0  0  0  0
  2  1  1  6
  3  2  1  0
  4  3  1  0
  5  4  2  0
  6  7  1  0
  6  5  1  0
  7 12  2  0
  8  9  2  0
  8  7  1  0
  9 10  1  0
 10 11  2  0
 12 11  1  0
 12  4  1  0
 13  2  1  0
 13 14  2  0
 15 13  1  0
 16 15  1  0
 16 17  1  1
 18 17  1  0
 19 18  2  0
 20 21  1  0
 20 19  1  0
 21 22  2  0
 22 18  1  0
 23 16  1  0
 24 23  2  0
 26 25  1  0
 27 26  1  0
 27 28  1  6
 29 27  1  0
 29 30  1  6
 30 23  1  0
 31 29  1  0
 32 31  1  0
 33 31  2  0
M  END
$$$$
