WHI.pdb
     RDKit          3D

 33 35  0  0  1  0  0  0  0  0999 V2000
   24.5906  -29.4039  -21.9793 N   0  0  0  0  0  0  0  0  0  0  0  0
   23.7053  -29.9819  -21.0186 C   0  0  1  0  0  0  0  0  0  0  0  0
   22.5617  -30.6666  -21.6886 C   0  0  0  0  0  0  0  0  0  0  0  0
   21.6367  -29.6781  -22.2571 C   0  0  0  0  0  0  0  0  0  0  0  0
   21.6020  -29.2868  -23.6043 C   0  0  0  0  0  0  0  0  0  0  0  0
   20.6254  -28.4062  -23.7841 N   0  0  0  0  0  0  0  0  0  0  0  0
   20.0053  -28.1913  -22.6104 C   0  0  0  0  0  0  0  0  0  0  0  0
   18.9363  -27.3572  -22.2879 C   0  0  0  0  0  0  0  0  0  0  0  0
   18.5010  -27.3242  -20.9844 C   0  0  0  0  0  0  0  0  0  0  0  0
   19.1055  -28.0957  -20.0169 C   0  0  0  0  0  0  0  0  0  0  0  0
   20.1767  -28.9325  -20.3388 C   0  0  0  0  0  0  0  0  0  0  0  0
   20.6097  -28.9625  -21.6539 C   0  0  0  0  0  0  0  0  0  0  0  0
   24.4889  -30.9054  -20.1484 C   0  0  0  0  0  0  0  0  0  0  0  0
   25.3926  -31.6590  -20.6512 O   0  0  0  0  0  0  0  0  0  0  0  0
   24.3048  -31.0164  -18.7599 N   0  0  0  0  0  0  0  0  0  0  0  0
   25.1069  -31.9375  -17.9173 C   0  0  1  0  0  0  0  0  0  0  0  0
   25.8660  -31.0317  -17.0029 C   0  0  0  0  0  0  0  0  0  0  0  0
   26.6152  -31.6752  -15.9160 C   0  0  0  0  0  0  0  0  0  0  0  0
   26.1284  -32.0579  -14.6869 C   0  0  0  0  0  0  0  0  0  0  0  0
   27.1245  -32.5914  -13.9356 N   0  0  0  0  0  0  0  0  0  0  0  0
   28.2299  -32.5410  -14.6936 C   0  0  0  0  0  0  0  0  0  0  0  0
   27.9351  -31.9935  -15.8822 N   0  0  0  0  0  0  0  0  0  0  0  0
   24.1373  -32.8397  -17.2881 C   0  0  0  0  0  0  0  0  0  0  0  0
   22.9239  -32.4740  -17.1217 O   0  0  0  0  0  0  0  0  0  0  0  0
   24.0470  -38.2755  -18.0841 C   0  0  0  0  0  0  0  0  0  0  0  0
   23.7219  -36.7905  -17.8855 C   0  0  0  0  0  0  0  0  0  0  0  0
   23.6455  -36.4511  -16.4251 C   0  0  2  0  0  0  0  0  0  0  0  0
   22.5232  -37.2413  -15.8096 C   0  0  0  0  0  0  0  0  0  0  0  0
   23.4223  -34.9813  -16.1505 C   0  0  2  0  0  0  0  0  0  0  0  0
   24.4350  -34.1711  -16.8191 N   0  0  0  0  0  0  0  0  0  0  0  0
   23.2362  -34.6523  -14.7349 C   0  0  0  0  0  0  0  0  0  0  0  0
   22.0277  -34.5578  -14.0900 O   0  0  0  0  0  0  0  0  0  0  0  0
   24.2596  -34.4300  -14.0246 O   0  0  0  0  0  0  0  0  0  0  0  0
  2  1  1  6
  3  2  1  0
  4  3  1  0
  5  4  2  0
  6  7  1  0
  6  5  1  0
  7 12  2  0
  8  9  2  0
  8  7  1  0
  9 10  1  0
 10 11  2  0
 12 11  1  0
 12  4  1  0
 13  2  1  0
 13 14  2  0
 15 13  1  0
 16 15  1  0
 16 17  1  1
 18 17  1  0
 19 18  2  0
 20 21  1  0
 20 19  1  0
 21 22  2  0
 22 18  1  0
 23 16  1  0
 24 23  2  0
 26 25  1  0
 27 26  1  0
 27 28  1  6
 29 27  1  0
 29 30  1  1
 30 23  1  0
 31 29  1  0
 32 31  1  0
 33 31  2  0
M  END
$$$$
