WHI.pdb
     RDKit          3D

 33 35  0  0  1  0  0  0  0  0999 V2000
   27.9542  -19.3199   -9.8078 N   0  0  0  0  0  0  0  0  0  0  0  0
   26.9234  -20.2689   -9.5293 C   0  0  1  0  0  0  0  0  0  0  0  0
   26.2453  -19.9587   -8.2373 C   0  0  0  0  0  0  0  0  0  0  0  0
   27.2318  -19.5606   -7.2253 C   0  0  0  0  0  0  0  0  0  0  0  0
   27.4086  -18.2558   -6.7401 C   0  0  0  0  0  0  0  0  0  0  0  0
   28.3563  -18.2540   -5.8108 N   0  0  0  0  0  0  0  0  0  0  0  0
   28.8219  -19.5059   -5.6550 C   0  0  0  0  0  0  0  0  0  0  0  0
   29.8131  -20.0076   -4.8134 C   0  0  0  0  0  0  0  0  0  0  0  0
   30.0995  -21.3510   -4.8664 C   0  0  0  0  0  0  0  0  0  0  0  0
   29.4250  -22.1846   -5.7305 C   0  0  0  0  0  0  0  0  0  0  0  0
   28.4310  -21.6833   -6.5743 C   0  0  0  0  0  0  0  0  0  0  0  0
   28.1460  -20.3293   -6.5152 C   0  0  0  0  0  0  0  0  0  0  0  0
   25.9737  -20.2870  -10.6790 C   0  0  0  0  0  0  0  0  0  0  0  0
   25.4723  -19.1965  -11.1226 O   0  0  0  0  0  0  0  0  0  0  0  0
   25.5699  -21.4583  -11.3417 N   0  0  0  0  0  0  0  0  0  0  0  0
   24.8347  -21.4358  -12.6303 C   0  0  1  0  0  0  0  0  0  0  0  0
   25.4221  -22.5685  -13.4082 C   0  0  0  0  0  0  0  0  0  0  0  0
   26.5542  -22.2439  -14.2854 C   0  0  0  0  0  0  0  0  0  0  0  0
   27.0711  -20.9950  -14.5441 C   0  0  0  0  0  0  0  0  0  0  0  0
   28.0959  -21.0877  -15.4287 N   0  0  0  0  0  0  0  0  0  0  0  0
   28.2177  -22.3909  -15.7216 C   0  0  0  0  0  0  0  0  0  0  0  0
   27.2983  -23.0921  -15.0416 N   0  0  0  0  0  0  0  0  0  0  0  0
   23.4166  -21.5512  -12.2760 C   0  0  0  0  0  0  0  0  0  0  0  0
   23.0458  -22.3223  -11.3264 O   0  0  0  0  0  0  0  0  0  0  0  0
   19.4313  -17.5942  -13.4883 C   0  0  0  0  0  0  0  0  0  0  0  0
   20.2104  -18.9017  -13.6724 C   0  0  0  0  0  0  0  0  0  0  0  0
   20.2595  -19.6795  -12.3893 C   0  0  2  0  0  0  0  0  0  0  0  0
   20.9674  -18.8485  -11.3543 C   0  0  0  0  0  0  0  0  0  0  0  0
   20.9570  -21.0151  -12.5109 C   0  0  2  0  0  0  0  0  0  0  0  0
   22.3445  -20.8376  -12.9261 N   0  0  0  0  0  0  0  0  0  0  0  0
   20.2235  -22.0109  -13.2965 C   0  0  0  0  0  0  0  0  0  0  0  0
   20.6710  -22.6033  -14.4515 O   0  0  0  0  0  0  0  0  0  0  0  0
   19.0772  -22.3714  -12.8997 O   0  0  0  0  0  0  0  0  0  0  0  0
  2  1  1  6
  3  2  1  0
  4  3  1  0
  5  4  2  0
  6  7  1  0
  6  5  1  0
  7 12  2  0
  8  9  2  0
  8  7  1  0
  9 10  1  0
 10 11  2  0
 12 11  1  0
 12  4  1  0
 13  2  1  0
 13 14  2  0
 15 13  1  0
 16 15  1  0
 16 17  1  6
 18 17  1  0
 19 18  2  0
 20 21  1  0
 20 19  1  0
 21 22  2  0
 22 18  1  0
 23 16  1  0
 24 23  2  0
 26 25  1  0
 27 26  1  0
 27 28  1  1
 29 27  1  0
 29 30  1  6
 30 23  1  0
 31 29  1  0
 32 31  1  0
 33 31  2  0
M  END
$$$$
