WHI.pdb
     RDKit          3D

 33 35  0  0  1  0  0  0  0  0999 V2000
   24.9413  -19.6770  -20.0494 N   0  0  0  0  0  0  0  0  0  0  0  0
   24.2859  -20.5733  -19.1506 C   0  0  1  0  0  0  0  0  0  0  0  0
   25.0587  -21.8404  -19.0001 C   0  0  0  0  0  0  0  0  0  0  0  0
   24.9552  -22.6499  -20.2207 C   0  0  0  0  0  0  0  0  0  0  0  0
   26.0428  -23.1033  -20.9828 C   0  0  0  0  0  0  0  0  0  0  0  0
   25.5979  -23.8358  -21.9964 N   0  0  0  0  0  0  0  0  0  0  0  0
   24.2553  -23.8901  -21.9438 C   0  0  0  0  0  0  0  0  0  0  0  0
   23.3389  -24.5240  -22.7810 C   0  0  0  0  0  0  0  0  0  0  0  0
   21.9996  -24.4066  -22.4948 C   0  0  0  0  0  0  0  0  0  0  0  0
   21.5697  -23.6794  -21.4071 C   0  0  0  0  0  0  0  0  0  0  0  0
   22.4869  -23.0439  -20.5668 C   0  0  0  0  0  0  0  0  0  0  0  0
   23.8349  -23.1671  -20.8596 C   0  0  0  0  0  0  0  0  0  0  0  0
   24.0830  -19.8740  -17.8491 C   0  0  0  0  0  0  0  0  0  0  0  0
   24.9935  -19.1102  -17.3749 O   0  0  0  0  0  0  0  0  0  0  0  0
   22.9197  -19.9932  -17.0701 N   0  0  0  0  0  0  0  0  0  0  0  0
   22.6813  -19.1726  -15.8571 C   0  0  1  0  0  0  0  0  0  0  0  0
   21.3894  -18.4745  -16.1340 C   0  0  0  0  0  0  0  0  0  0  0  0
   20.8042  -17.7133  -15.0228 C   0  0  0  0  0  0  0  0  0  0  0  0
   20.9603  -16.3706  -14.7647 C   0  0  0  0  0  0  0  0  0  0  0  0
   20.2936  -16.0320  -13.6324 N   0  0  0  0  0  0  0  0  0  0  0  0
   19.7236  -17.1606  -13.1847 C   0  0  0  0  0  0  0  0  0  0  0  0
   20.0237  -18.1739  -14.0110 N   0  0  0  0  0  0  0  0  0  0  0  0
   22.6875  -20.1173  -14.7358 C   0  0  0  0  0  0  0  0  0  0  0  0
   22.1067  -21.2512  -14.8396 O   0  0  0  0  0  0  0  0  0  0  0  0
   26.6695  -20.4940  -10.7375 C   0  0  0  0  0  0  0  0  0  0  0  0
   25.6307  -20.8816  -11.7963 C   0  0  0  0  0  0  0  0  0  0  0  0
   24.2398  -20.5923  -11.3110 C   0  0  2  0  0  0  0  0  0  0  0  0
   23.9574  -21.4689  -10.1215 C   0  0  0  0  0  0  0  0  0  0  0  0
   23.1696  -20.8173  -12.3547 C   0  0  2  0  0  0  0  0  0  0  0  0
   23.3231  -19.8803  -13.4626 N   0  0  0  0  0  0  0  0  0  0  0  0
   21.8077  -20.8874  -11.8187 C   0  0  0  0  0  0  0  0  0  0  0  0
   21.1095  -22.0415  -11.5627 O   0  0  0  0  0  0  0  0  0  0  0  0
   21.2006  -19.8069  -11.5633 O   0  0  0  0  0  0  0  0  0  0  0  0
  2  1  1  6
  3  2  1  0
  4  3  1  0
  5  4  2  0
  6  7  1  0
  6  5  1  0
  7 12  2  0
  8  9  2  0
  8  7  1  0
  9 10  1  0
 10 11  2  0
 12 11  1  0
 12  4  1  0
 13  2  1  0
 13 14  2  0
 15 13  1  0
 16 15  1  0
 16 17  1  6
 18 17  1  0
 19 18  2  0
 20 21  1  0
 20 19  1  0
 21 22  2  0
 22 18  1  0
 23 16  1  0
 24 23  2  0
 26 25  1  0
 27 26  1  0
 27 28  1  1
 29 27  1  0
 29 30  1  6
 30 23  1  0
 31 29  1  0
 32 31  1  0
 33 31  2  0
M  END
$$$$
