WHI.pdb
     RDKit          3D

 33 35  0  0  1  0  0  0  0  0999 V2000
   27.4376  -20.0691  -11.0627 N   0  0  0  0  0  0  0  0  0  0  0  0
   26.5301  -21.1699  -11.1371 C   0  0  1  0  0  0  0  0  0  0  0  0
   25.8729  -21.4116   -9.8198 C   0  0  0  0  0  0  0  0  0  0  0  0
   26.6840  -20.8480   -8.7333 C   0  0  0  0  0  0  0  0  0  0  0  0
   26.2377  -19.8970   -7.8029 C   0  0  0  0  0  0  0  0  0  0  0  0
   27.2100  -19.6333   -6.9388 N   0  0  0  0  0  0  0  0  0  0  0  0
   28.2903  -20.3693   -7.2543 C   0  0  0  0  0  0  0  0  0  0  0  0
   29.5476  -20.4386   -6.6567 C   0  0  0  0  0  0  0  0  0  0  0  0
   30.4855  -21.2841   -7.1998 C   0  0  0  0  0  0  0  0  0  0  0  0
   30.1931  -22.0461   -8.3090 C   0  0  0  0  0  0  0  0  0  0  0  0
   28.9334  -21.9782   -8.9087 C   0  0  0  0  0  0  0  0  0  0  0  0
   27.9923  -21.1255   -8.3561 C   0  0  0  0  0  0  0  0  0  0  0  0
   25.5439  -20.8976  -12.2221 C   0  0  0  0  0  0  0  0  0  0  0  0
   25.2797  -19.6952  -12.5710 O   0  0  0  0  0  0  0  0  0  0  0  0
   24.8533  -21.9017  -12.9215 N   0  0  0  0  0  0  0  0  0  0  0  0
   24.0338  -21.6191  -14.1257 C   0  0  1  0  0  0  0  0  0  0  0  0
   24.5281  -22.5950  -15.1437 C   0  0  0  0  0  0  0  0  0  0  0  0
   25.8275  -22.2978  -15.7600 C   0  0  0  0  0  0  0  0  0  0  0  0
   26.9758  -23.0519  -15.6780 C   0  0  0  0  0  0  0  0  0  0  0  0
   27.9840  -22.4423  -16.3513 N   0  0  0  0  0  0  0  0  0  0  0  0
   27.4662  -21.3106  -16.8516 C   0  0  0  0  0  0  0  0  0  0  0  0
   26.1745  -21.2148  -16.5026 N   0  0  0  0  0  0  0  0  0  0  0  0
   22.6398  -21.7704  -13.6970 C   0  0  0  0  0  0  0  0  0  0  0  0
   22.2776  -22.7892  -13.0151 O   0  0  0  0  0  0  0  0  0  0  0  0
   19.3257  -17.5621  -12.2159 C   0  0  0  0  0  0  0  0  0  0  0  0
   20.0090  -18.9343  -12.2411 C   0  0  0  0  0  0  0  0  0  0  0  0
   19.4657  -19.7812  -13.3554 C   0  0  2  0  0  0  0  0  0  0  0  0
   18.0212  -20.0837  -13.0641 C   0  0  0  0  0  0  0  0  0  0  0  0
   20.2115  -21.0810  -13.5541 C   0  0  2  0  0  0  0  0  0  0  0  0
   21.5840  -20.8292  -13.9809 N   0  0  0  0  0  0  0  0  0  0  0  0
   19.5033  -22.0646  -14.3773 C   0  0  0  0  0  0  0  0  0  0  0  0
   19.8435  -22.4268  -15.6572 O   0  0  0  0  0  0  0  0  0  0  0  0
   18.4875  -22.6424  -13.8918 O   0  0  0  0  0  0  0  0  0  0  0  0
  2  1  1  1
  3  2  1  0
  4  3  1  0
  5  4  2  0
  6  7  1  0
  6  5  1  0
  7 12  2  0
  8  9  2  0
  8  7  1  0
  9 10  1  0
 10 11  2  0
 12 11  1  0
 12  4  1  0
 13  2  1  0
 13 14  2  0
 15 13  1  0
 16 15  1  0
 16 17  1  6
 18 17  1  0
 19 18  2  0
 20 21  1  0
 20 19  1  0
 21 22  2  0
 22 18  1  0
 23 16  1  0
 24 23  2  0
 26 25  1  0
 27 26  1  0
 27 28  1  1
 29 27  1  0
 29 30  1  6
 30 23  1  0
 31 29  1  0
 32 31  1  0
 33 31  2  0
M  END
$$$$
