WHI.pdb
     RDKit          3D

 33 35  0  0  1  0  0  0  0  0999 V2000
   28.8167  -20.1206  -14.5906 N   0  0  0  0  0  0  0  0  0  0  0  0
   27.8091  -20.8020  -13.8415 C   0  0  1  0  0  0  0  0  0  0  0  0
   27.7508  -20.2961  -12.4394 C   0  0  0  0  0  0  0  0  0  0  0  0
   29.0892  -20.3088  -11.8357 C   0  0  0  0  0  0  0  0  0  0  0  0
   29.7870  -19.1734  -11.3961 C   0  0  0  0  0  0  0  0  0  0  0  0
   30.9484  -19.5437  -10.8709 N   0  0  0  0  0  0  0  0  0  0  0  0
   31.0565  -20.8822  -10.9423 C   0  0  0  0  0  0  0  0  0  0  0  0
   32.0821  -21.7332  -10.5343 C   0  0  0  0  0  0  0  0  0  0  0  0
   31.9332  -23.0842  -10.7393 C   0  0  0  0  0  0  0  0  0  0  0  0
   30.7984  -23.5886  -11.3345 C   0  0  0  0  0  0  0  0  0  0  0  0
   29.7694  -22.7371  -11.7436 C   0  0  0  0  0  0  0  0  0  0  0  0
   29.9246  -21.3771  -11.5330 C   0  0  0  0  0  0  0  0  0  0  0  0
   26.5074  -20.6522  -14.5537 C   0  0  0  0  0  0  0  0  0  0  0  0
   26.1205  -19.5028  -14.9619 O   0  0  0  0  0  0  0  0  0  0  0  0
   25.6359  -21.7208  -14.8235 N   0  0  0  0  0  0  0  0  0  0  0  0
   24.2922  -21.5261  -15.4221 C   0  0  1  0  0  0  0  0  0  0  0  0
   24.2576  -22.4857  -16.5670 C   0  0  0  0  0  0  0  0  0  0  0  0
   24.9160  -22.0522  -17.8060 C   0  0  0  0  0  0  0  0  0  0  0  0
   25.4664  -20.8176  -18.0642 C   0  0  0  0  0  0  0  0  0  0  0  0
   25.9566  -20.7800  -19.3290 N   0  0  0  0  0  0  0  0  0  0  0  0
   25.7119  -21.9877  -19.8588 C   0  0  0  0  0  0  0  0  0  0  0  0
   25.0886  -22.7573  -18.9541 N   0  0  0  0  0  0  0  0  0  0  0  0
   23.3386  -21.7693  -14.3352 C   0  0  0  0  0  0  0  0  0  0  0  0
   23.2233  -22.9342  -13.8218 O   0  0  0  0  0  0  0  0  0  0  0  0
   23.3027  -20.1060   -9.5304 C   0  0  0  0  0  0  0  0  0  0  0  0
   23.0447  -20.8769  -10.8303 C   0  0  0  0  0  0  0  0  0  0  0  0
   21.7384  -20.4655  -11.4451 C   0  0  2  0  0  0  0  0  0  0  0  0
   20.6312  -20.8049  -10.4849 C   0  0  0  0  0  0  0  0  0  0  0  0
   21.4557  -21.1236  -12.7764 C   0  0  2  0  0  0  0  0  0  0  0  0
   22.4770  -20.7677  -13.7560 N   0  0  0  0  0  0  0  0  0  0  0  0
   20.0829  -20.9491  -13.2577 C   0  0  0  0  0  0  0  0  0  0  0  0
   19.7141  -20.2519  -14.3815 O   0  0  0  0  0  0  0  0  0  0  0  0
   19.1384  -21.4738  -12.5989 O   0  0  0  0  0  0  0  0  0  0  0  0
  2  1  1  6
  3  2  1  0
  4  3  1  0
  5  4  2  0
  6  7  1  0
  6  5  1  0
  7 12  2  0
  8  9  2  0
  8  7  1  0
  9 10  1  0
 10 11  2  0
 12 11  1  0
 12  4  1  0
 13  2  1  0
 13 14  2  0
 15 13  1  0
 16 15  1  0
 16 17  1  6
 18 17  1  0
 19 18  2  0
 20 21  1  0
 20 19  1  0
 21 22  2  0
 22 18  1  0
 23 16  1  0
 24 23  2  0
 26 25  1  0
 27 26  1  0
 27 28  1  1
 29 27  1  0
 29 30  1  6
 30 23  1  0
 31 29  1  0
 32 31  1  0
 33 31  2  0
M  END
$$$$
