WHI.pdb
     RDKit          3D

 33 35  0  0  1  0  0  0  0  0999 V2000
   26.8241  -22.2662  -12.5702 N   0  0  0  0  0  0  0  0  0  0  0  0
   26.0910  -21.2312  -11.9128 C   0  0  1  0  0  0  0  0  0  0  0  0
   26.9889  -20.1071  -11.5185 C   0  0  0  0  0  0  0  0  0  0  0  0
   27.9286  -20.5445  -10.4785 C   0  0  0  0  0  0  0  0  0  0  0  0
   29.2233  -21.0317  -10.7140 C   0  0  0  0  0  0  0  0  0  0  0  0
   29.8121  -21.3013   -9.5554 N   0  0  0  0  0  0  0  0  0  0  0  0
   28.9625  -21.0149   -8.5532 C   0  0  0  0  0  0  0  0  0  0  0  0
   29.1142  -21.1330   -7.1727 C   0  0  0  0  0  0  0  0  0  0  0  0
   28.0630  -20.7704   -6.3646 C   0  0  0  0  0  0  0  0  0  0  0  0
   26.8855  -20.3015   -6.9032 C   0  0  0  0  0  0  0  0  0  0  0  0
   26.7321  -20.1821   -8.2865 C   0  0  0  0  0  0  0  0  0  0  0  0
   27.7952  -20.5476   -9.0954 C   0  0  0  0  0  0  0  0  0  0  0  0
   24.9878  -20.7878  -12.8128 C   0  0  0  0  0  0  0  0  0  0  0  0
   25.1447  -19.7762  -13.5806 O   0  0  0  0  0  0  0  0  0  0  0  0
   23.7362  -21.4219  -12.8872 N   0  0  0  0  0  0  0  0  0  0  0  0
   22.6921  -21.0203  -13.8621 C   0  0  1  0  0  0  0  0  0  0  0  0
   23.1953  -21.5343  -15.1718 C   0  0  0  0  0  0  0  0  0  0  0  0
   24.2676  -20.7611  -15.8114 C   0  0  0  0  0  0  0  0  0  0  0  0
   25.5777  -21.1457  -15.9834 C   0  0  0  0  0  0  0  0  0  0  0  0
   26.2798  -20.1547  -16.5888 N   0  0  0  0  0  0  0  0  0  0  0  0
   25.4101  -19.1542  -16.7932 C   0  0  0  0  0  0  0  0  0  0  0  0
   24.2016  -19.5078  -16.3307 N   0  0  0  0  0  0  0  0  0  0  0  0
   21.4436  -21.6067  -13.3650 C   0  0  0  0  0  0  0  0  0  0  0  0
   21.4313  -22.7869  -12.8743 O   0  0  0  0  0  0  0  0  0  0  0  0
   16.4302  -20.3176  -10.1938 C   0  0  0  0  0  0  0  0  0  0  0  0
   17.0167  -21.2459  -11.2637 C   0  0  0  0  0  0  0  0  0  0  0  0
   18.3000  -20.6892  -11.8086 C   0  0  2  0  0  0  0  0  0  0  0  0
   18.0094  -19.3598  -12.4499 C   0  0  0  0  0  0  0  0  0  0  0  0
   18.9748  -21.5876  -12.8200 C   0  0  2  0  0  0  0  0  0  0  0  0
   20.1622  -20.9439  -13.3721 N   0  0  0  0  0  0  0  0  0  0  0  0
   18.0729  -22.1419  -13.8330 C   0  0  0  0  0  0  0  0  0  0  0  0
   18.1199  -21.8693  -15.1779 O   0  0  0  0  0  0  0  0  0  0  0  0
   17.1637  -22.9406  -13.4632 O   0  0  0  0  0  0  0  0  0  0  0  0
  2  1  1  6
  3  2  1  0
  4  3  1  0
  5  4  2  0
  6  7  1  0
  6  5  1  0
  7 12  2  0
  8  9  2  0
  8  7  1  0
  9 10  1  0
 10 11  2  0
 12 11  1  0
 12  4  1  0
 13  2  1  0
 13 14  2  0
 15 13  1  0
 16 15  1  0
 16 17  1  6
 18 17  1  0
 19 18  2  0
 20 21  1  0
 20 19  1  0
 21 22  2  0
 22 18  1  0
 23 16  1  0
 24 23  2  0
 26 25  1  0
 27 26  1  0
 27 28  1  6
 29 27  1  0
 29 30  1  6
 30 23  1  0
 31 29  1  0
 32 31  1  0
 33 31  2  0
M  END
$$$$
