WHI.pdb
     RDKit          3D

 33 35  0  0  1  0  0  0  0  0999 V2000
   27.2977  -21.7495  -10.7368 N   0  0  0  0  0  0  0  0  0  0  0  0
   26.5342  -20.8274   -9.9572 C   0  0  1  0  0  0  0  0  0  0  0  0
   27.3979  -19.7342   -9.4240 C   0  0  0  0  0  0  0  0  0  0  0  0
   28.3538  -20.2691   -8.4463 C   0  0  0  0  0  0  0  0  0  0  0  0
   29.4798  -21.0456   -8.7601 C   0  0  0  0  0  0  0  0  0  0  0  0
   30.1449  -21.3304   -7.6474 N   0  0  0  0  0  0  0  0  0  0  0  0
   29.5083  -20.7763   -6.6005 C   0  0  0  0  0  0  0  0  0  0  0  0
   29.8090  -20.7987   -5.2397 C   0  0  0  0  0  0  0  0  0  0  0  0
   28.9675  -20.1444   -4.3718 C   0  0  0  0  0  0  0  0  0  0  0  0
   27.8518  -19.4816   -4.8328 C   0  0  0  0  0  0  0  0  0  0  0  0
   27.5493  -19.4578   -6.1963 C   0  0  0  0  0  0  0  0  0  0  0  0
   28.4017  -20.1176   -7.0659 C   0  0  0  0  0  0  0  0  0  0  0  0
   25.4165  -20.3093  -10.7975 C   0  0  0  0  0  0  0  0  0  0  0  0
   25.4726  -19.1324  -11.2968 O   0  0  0  0  0  0  0  0  0  0  0  0
   24.2573  -21.0445  -11.0972 N   0  0  0  0  0  0  0  0  0  0  0  0
   23.2851  -20.6187  -12.1341 C   0  0  1  0  0  0  0  0  0  0  0  0
   24.0799  -20.6058  -13.3995 C   0  0  0  0  0  0  0  0  0  0  0  0
   23.3759  -20.1673  -14.6114 C   0  0  0  0  0  0  0  0  0  0  0  0
   22.0556  -19.7927  -14.7135 C   0  0  0  0  0  0  0  0  0  0  0  0
   21.7568  -19.4805  -15.9999 N   0  0  0  0  0  0  0  0  0  0  0  0
   22.8875  -19.6605  -16.6985 C   0  0  0  0  0  0  0  0  0  0  0  0
   23.8636  -20.0722  -15.8755 N   0  0  0  0  0  0  0  0  0  0  0  0
   22.1848  -21.5851  -12.0622 C   0  0  0  0  0  0  0  0  0  0  0  0
   22.4216  -22.8410  -12.0892 O   0  0  0  0  0  0  0  0  0  0  0  0
   16.8794  -20.2987  -10.1949 C   0  0  0  0  0  0  0  0  0  0  0  0
   17.9426  -20.6281  -11.2492 C   0  0  0  0  0  0  0  0  0  0  0  0
   18.6859  -21.8806  -10.8851 C   0  0  2  0  0  0  0  0  0  0  0  0
   19.3184  -21.6847   -9.5344 C   0  0  0  0  0  0  0  0  0  0  0  0
   19.7569  -22.2663  -11.8799 C   0  0  2  0  0  0  0  0  0  0  0  0
   20.7890  -21.2374  -11.9531 N   0  0  0  0  0  0  0  0  0  0  0  0
   19.2447  -22.6894  -13.1859 C   0  0  0  0  0  0  0  0  0  0  0  0
   19.4879  -22.0584  -14.3808 O   0  0  0  0  0  0  0  0  0  0  0  0
   18.5123  -23.7197  -13.2449 O   0  0  0  0  0  0  0  0  0  0  0  0
  2  1  1  6
  3  2  1  0
  4  3  1  0
  5  4  2  0
  6  7  1  0
  6  5  1  0
  7 12  2  0
  8  9  2  0
  8  7  1  0
  9 10  1  0
 10 11  2  0
 12 11  1  0
 12  4  1  0
 13  2  1  0
 13 14  2  0
 15 13  1  0
 16 15  1  0
 16 17  1  6
 18 17  1  0
 19 18  2  0
 20 21  1  0
 20 19  1  0
 21 22  2  0
 22 18  1  0
 23 16  1  0
 24 23  2  0
 26 25  1  0
 27 26  1  0
 27 28  1  1
 29 27  1  0
 29 30  1  6
 30 23  1  0
 31 29  1  0
 32 31  1  0
 33 31  2  0
M  END
$$$$
