WHI.pdb
     RDKit          3D

 33 35  0  0  1  0  0  0  0  0999 V2000
   24.8233  -20.2920  -17.1521 N   0  0  0  0  0  0  0  0  0  0  0  0
   23.5084  -19.8732  -16.7827 C   0  0  1  0  0  0  0  0  0  0  0  0
   22.7855  -19.2885  -17.9493 C   0  0  0  0  0  0  0  0  0  0  0  0
   23.3405  -17.9716  -18.2865 C   0  0  0  0  0  0  0  0  0  0  0  0
   24.3929  -17.7460  -19.1870 C   0  0  0  0  0  0  0  0  0  0  0  0
   24.6191  -16.4418  -19.2853 N   0  0  0  0  0  0  0  0  0  0  0  0
   23.7604  -15.7851  -18.4855 C   0  0  0  0  0  0  0  0  0  0  0  0
   23.6096  -14.4212  -18.2411 C   0  0  0  0  0  0  0  0  0  0  0  0
   22.6405  -14.0178  -17.3536 C   0  0  0  0  0  0  0  0  0  0  0  0
   21.8359  -14.9375  -16.7184 C   0  0  0  0  0  0  0  0  0  0  0  0
   21.9856  -16.3046  -16.9626 C   0  0  0  0  0  0  0  0  0  0  0  0
   22.9627  -16.7047  -17.8588 C   0  0  0  0  0  0  0  0  0  0  0  0
   22.7880  -21.0390  -16.1946 C   0  0  0  0  0  0  0  0  0  0  0  0
   22.8701  -22.1937  -16.7399 O   0  0  0  0  0  0  0  0  0  0  0  0
   21.9929  -20.9652  -15.0386 N   0  0  0  0  0  0  0  0  0  0  0  0
   21.3356  -22.1542  -14.4420 C   0  0  1  0  0  0  0  0  0  0  0  0
   22.1567  -22.4590  -13.2313 C   0  0  0  0  0  0  0  0  0  0  0  0
   22.0745  -21.4976  -12.1242 C   0  0  0  0  0  0  0  0  0  0  0  0
   22.9576  -20.4805  -11.8422 C   0  0  0  0  0  0  0  0  0  0  0  0
   22.5677  -19.8205  -10.7224 N   0  0  0  0  0  0  0  0  0  0  0  0
   21.4447  -20.4248  -10.3066 C   0  0  0  0  0  0  0  0  0  0  0  0
   21.1409  -21.4311  -11.1399 N   0  0  0  0  0  0  0  0  0  0  0  0
   19.9441  -21.7572  -14.2060 C   0  0  0  0  0  0  0  0  0  0  0  0
   19.6539  -20.5442  -13.9263 O   0  0  0  0  0  0  0  0  0  0  0  0
   14.4277  -22.4126  -16.5232 C   0  0  0  0  0  0  0  0  0  0  0  0
   15.1904  -22.0462  -15.2448 C   0  0  0  0  0  0  0  0  0  0  0  0
   16.5870  -22.5958  -15.2799 C   0  0  2  0  0  0  0  0  0  0  0  0
   16.5087  -24.0980  -15.2846 C   0  0  0  0  0  0  0  0  0  0  0  0
   17.4480  -22.1504  -14.1199 C   0  0  2  0  0  0  0  0  0  0  0  0
   18.8115  -22.6488  -14.2671 N   0  0  0  0  0  0  0  0  0  0  0  0
   16.8619  -22.4014  -12.8007 C   0  0  0  0  0  0  0  0  0  0  0  0
   15.8730  -21.6528  -12.2117 O   0  0  0  0  0  0  0  0  0  0  0  0
   17.2865  -23.3839  -12.1257 O   0  0  0  0  0  0  0  0  0  0  0  0
  2  1  1  6
  3  2  1  0
  4  3  1  0
  5  4  2  0
  6  7  1  0
  6  5  1  0
  7 12  2  0
  8  9  2  0
  8  7  1  0
  9 10  1  0
 10 11  2  0
 12 11  1  0
 12  4  1  0
 13  2  1  0
 13 14  2  0
 15 13  1  0
 16 15  1  0
 16 17  1  1
 18 17  1  0
 19 18  2  0
 20 21  1  0
 20 19  1  0
 21 22  2  0
 22 18  1  0
 23 16  1  0
 24 23  2  0
 26 25  1  0
 27 26  1  0
 27 28  1  1
 29 27  1  0
 29 30  1  1
 30 23  1  0
 31 29  1  0
 32 31  1  0
 33 31  2  0
M  END
$$$$
