DVC.pdb
     RDKit          3D

 22 21  0  0  1  0  0  0  0  0999 V2000
    8.4163  -17.8815   16.1643 N   0  0  0  0  0  0  0  0  0  0  0  0
    7.5839  -17.6413   17.3212 C   0  0  1  0  0  0  0  0  0  0  0  0
    7.2070  -18.9469   17.9455 C   0  0  0  0  0  0  0  0  0  0  0  0
    6.1853  -19.5931   17.0817 C   0  0  0  0  0  0  0  0  0  0  0  0
    6.5028  -20.3512   16.1351 O   0  0  0  0  0  0  0  0  0  0  0  0
    8.2798  -16.7255   18.2531 C   0  0  0  0  0  0  0  0  0  0  0  0
    9.5320  -16.8960   18.3603 O   0  0  0  0  0  0  0  0  0  0  0  0
    4.8533  -19.3403   17.3437 O   0  0  0  0  0  0  0  0  0  0  0  0
    6.4009  -14.0757   20.9485 C   0  0  0  0  0  0  0  0  0  0  0  0
    7.6813  -13.6689   20.2974 C   0  0  1  0  0  0  0  0  0  0  0  0
    8.4633  -12.7308   21.1815 C   0  0  0  0  0  0  0  0  0  0  0  0
    8.4699  -14.8507   19.8392 C   0  0  2  0  0  0  0  0  0  0  0  0
    7.6303  -15.7120   18.9956 N   0  0  0  0  0  0  0  0  0  0  0  0
    8.8654  -15.6555   21.0066 C   0  0  0  0  0  0  0  0  0  0  0  0
    7.9498  -16.4253   21.5005 O   0  0  0  0  0  0  0  0  0  0  0  0
   10.1355  -15.6316   21.5778 N   0  0  0  0  0  0  0  0  0  0  0  0
   10.3657  -16.4932   22.7436 C   0  0  1  0  0  0  0  0  0  0  0  0
   11.1824  -17.6743   22.2069 C   0  0  0  0  0  0  0  0  0  0  0  0
   12.6564  -16.9818   21.4153 S   0  0  0  0  0  0  0  0  0  0  0  0
   11.1379  -15.7566   23.7319 C   0  0  0  0  0  0  0  0  0  0  0  0
   11.3981  -16.2894   24.9864 O   0  0  0  0  0  0  0  0  0  0  0  0
   11.5926  -14.6210   23.4859 O   0  0  0  0  0  0  0  0  0  0  0  0
  2  1  1  6
  3  2  1  0
  3  4  1  0
  4  8  1  0
  5  4  2  0
  6  2  1  0
  6  7  2  0
 10  9  1  1
 10 12  1  0
 11 10  1  0
 12 14  1  0
 12 13  1  6
 13  6  1  0
 14 15  2  0
 16 14  1  0
 16 17  1  0
 17 20  1  0
 18 19  1  0
 17 18  1  6
 20 22  2  0
 20 21  1  0
M  END
$$$$
