DVC.pdb
     RDKit          3D

 22 21  0  0  1  0  0  0  0  0999 V2000
    8.9018  -15.7083   20.6473 N   0  0  0  0  0  0  0  0  0  0  0  0
    8.2014  -16.1146   21.8445 C   0  0  1  0  0  0  0  0  0  0  0  0
    8.4397  -17.5698   22.0935 C   0  0  0  0  0  0  0  0  0  0  0  0
    7.9141  -18.3288   20.9294 C   0  0  0  0  0  0  0  0  0  0  0  0
    6.9005  -17.9507   20.2959 O   0  0  0  0  0  0  0  0  0  0  0  0
    8.6095  -15.2520   22.9763 C   0  0  0  0  0  0  0  0  0  0  0  0
    9.8596  -15.1235   23.1478 O   0  0  0  0  0  0  0  0  0  0  0  0
    8.5735  -19.4806   20.5483 O   0  0  0  0  0  0  0  0  0  0  0  0
    5.9796  -13.6242   25.8599 C   0  0  0  0  0  0  0  0  0  0  0  0
    7.2147  -12.8785   25.4766 C   0  0  1  0  0  0  0  0  0  0  0  0
    7.7025  -12.0186   26.6150 C   0  0  0  0  0  0  0  0  0  0  0  0
    8.2629  -13.7879   24.9265 C   0  0  2  0  0  0  0  0  0  0  0  0
    7.6988  -14.5944   23.8356 N   0  0  0  0  0  0  0  0  0  0  0  0
    8.6898  -14.7300   25.9738 C   0  0  0  0  0  0  0  0  0  0  0  0
    7.9839  -15.8087   26.0876 O   0  0  0  0  0  0  0  0  0  0  0  0
    9.7829  -14.5234   26.8120 N   0  0  0  0  0  0  0  0  0  0  0  0
   10.1246  -15.5991   27.7504 C   0  0  1  0  0  0  0  0  0  0  0  0
   11.5508  -16.0150   27.3724 C   0  0  0  0  0  0  0  0  0  0  0  0
   12.0957  -17.2197   28.6095 S   0  0  0  0  0  0  0  0  0  0  0  0
   10.0979  -15.0717   29.1056 C   0  0  0  0  0  0  0  0  0  0  0  0
    9.9844  -15.9121   30.2040 O   0  0  0  0  0  0  0  0  0  0  0  0
   10.1759  -13.8462   29.3272 O   0  0  0  0  0  0  0  0  0  0  0  0
  2  1  1  6
  3  2  1  0
  3  4  1  0
  4  8  1  0
  5  4  2  0
  6  2  1  0
  6  7  2  0
 10  9  1  1
 10 12  1  0
 11 10  1  0
 12 14  1  0
 12 13  1  6
 13  6  1  0
 14 15  2  0
 16 14  1  0
 16 17  1  0
 17 20  1  0
 18 19  1  0
 17 18  1  6
 20 22  2  0
 20 21  1  0
M  END
$$$$
