DVC.pdb
     RDKit          3D

 22 21  0  0  1  0  0  0  0  0999 V2000
    8.8863  -15.5211   20.8405 N   0  0  0  0  0  0  0  0  0  0  0  0
    8.1790  -16.0395   21.9894 C   0  0  1  0  0  0  0  0  0  0  0  0
    8.3958  -17.5160   22.0855 C   0  0  0  0  0  0  0  0  0  0  0  0
    7.6948  -18.1600   20.9447 C   0  0  0  0  0  0  0  0  0  0  0  0
    7.2048  -17.4896   20.0054 O   0  0  0  0  0  0  0  0  0  0  0  0
    8.5987  -15.3054   23.2046 C   0  0  0  0  0  0  0  0  0  0  0  0
    9.8376  -15.0480   23.2920 O   0  0  0  0  0  0  0  0  0  0  0  0
    7.5897  -19.5368   20.9350 O   0  0  0  0  0  0  0  0  0  0  0  0
    7.6493  -12.6710   27.2502 C   0  0  0  0  0  0  0  0  0  0  0  0
    7.1618  -13.3661   26.0223 C   0  0  1  0  0  0  0  0  0  0  0  0
    6.3966  -12.4194   25.1327 C   0  0  0  0  0  0  0  0  0  0  0  0
    8.2642  -14.0848   25.3176 C   0  0  2  0  0  0  0  0  0  0  0  0
    7.7101  -14.8980   24.2267 N   0  0  0  0  0  0  0  0  0  0  0  0
    8.9154  -15.0164   26.2531 C   0  0  0  0  0  0  0  0  0  0  0  0
    8.1953  -16.0156   26.6507 O   0  0  0  0  0  0  0  0  0  0  0  0
   10.2250  -14.8795   26.7071 N   0  0  0  0  0  0  0  0  0  0  0  0
   10.7203  -15.8907   27.6487 C   0  0  1  0  0  0  0  0  0  0  0  0
   12.2479  -15.8014   27.5570 C   0  0  0  0  0  0  0  0  0  0  0  0
   12.9190  -16.8821   28.8455 S   0  0  0  0  0  0  0  0  0  0  0  0
   10.2767  -15.5461   28.9904 C   0  0  0  0  0  0  0  0  0  0  0  0
   10.1347  -14.2235   29.3851 O   0  0  0  0  0  0  0  0  0  0  0  0
   10.0090  -16.4275   29.8321 O   0  0  0  0  0  0  0  0  0  0  0  0
  2  1  1  6
  3  2  1  0
  3  4  1  0
  4  8  1  0
  5  4  2  0
  6  2  1  0
  6  7  2  0
 10  9  1  1
 10 12  1  0
 11 10  1  0
 12 14  1  0
 12 13  1  6
 13  6  1  0
 14 15  2  0
 16 14  1  0
 16 17  1  0
 17 20  1  0
 18 19  1  0
 17 18  1  1
 20 22  2  0
 20 21  1  0
M  END
$$$$
