DVC.pdb
     RDKit          3D

 22 21  0  0  1  0  0  0  0  0999 V2000
   10.6312  -16.2893   20.2309 N   0  0  0  0  0  0  0  0  0  0  0  0
   10.4086  -17.0818   21.4189 C   0  0  1  0  0  0  0  0  0  0  0  0
   11.5309  -18.0556   21.5878 C   0  0  0  0  0  0  0  0  0  0  0  0
   11.4717  -19.0265   20.4648 C   0  0  0  0  0  0  0  0  0  0  0  0
   10.4816  -19.7753   20.2888 O   0  0  0  0  0  0  0  0  0  0  0  0
   10.2272  -16.1886   22.5856 C   0  0  0  0  0  0  0  0  0  0  0  0
   11.1365  -15.3223   22.7624 O   0  0  0  0  0  0  0  0  0  0  0  0
   12.5462  -19.0924   19.6001 O   0  0  0  0  0  0  0  0  0  0  0  0
    6.8441  -16.1600   25.1963 C   0  0  0  0  0  0  0  0  0  0  0  0
    7.5939  -14.9326   24.7963 C   0  0  1  0  0  0  0  0  0  0  0  0
    7.3963  -13.8265   25.8018 C   0  0  0  0  0  0  0  0  0  0  0  0
    9.0291  -15.2280   24.5113 C   0  0  2  0  0  0  0  0  0  0  0  0
    9.1271  -16.2612   23.4714 N   0  0  0  0  0  0  0  0  0  0  0  0
    9.6627  -15.7806   25.7197 C   0  0  0  0  0  0  0  0  0  0  0  0
   10.1485  -16.9750   25.6090 O   0  0  0  0  0  0  0  0  0  0  0  0
    9.7650  -15.0983   26.9296 N   0  0  0  0  0  0  0  0  0  0  0  0
   10.5542  -15.7297   27.9939 C   0  0  1  0  0  0  0  0  0  0  0  0
   10.5871  -14.6974   29.1268 C   0  0  0  0  0  0  0  0  0  0  0  0
   10.6866  -13.0642   28.3513 S   0  0  0  0  0  0  0  0  0  0  0  0
    9.8744  -16.9376   28.4348 C   0  0  0  0  0  0  0  0  0  0  0  0
   10.4492  -17.7883   29.3682 O   0  0  0  0  0  0  0  0  0  0  0  0
    8.7516  -17.2502   27.9891 O   0  0  0  0  0  0  0  0  0  0  0  0
  2  1  1  6
  3  2  1  0
  3  4  1  0
  4  8  1  0
  5  4  2  0
  6  2  1  0
  6  7  2  0
 10  9  1  1
 10 12  1  0
 11 10  1  0
 12 14  1  0
 12 13  1  6
 13  6  1  0
 14 15  2  0
 16 14  1  0
 16 17  1  0
 17 20  1  0
 18 19  1  0
 17 18  1  1
 20 22  2  0
 20 21  1  0
M  END
$$$$
