DVC.pdb
     RDKit          3D

 22 21  0  0  1  0  0  0  0  0999 V2000
    9.5392  -18.9386   22.3476 N   0  0  0  0  0  0  0  0  0  0  0  0
   10.7212  -18.1886   21.9879 C   0  0  1  0  0  0  0  0  0  0  0  0
   11.0745  -18.4663   20.5616 C   0  0  0  0  0  0  0  0  0  0  0  0
   11.5408  -19.8739   20.4679 C   0  0  0  0  0  0  0  0  0  0  0  0
   12.1590  -20.4301   21.4060 O   0  0  0  0  0  0  0  0  0  0  0  0
   10.5026  -16.7515   22.2682 C   0  0  0  0  0  0  0  0  0  0  0  0
   11.5152  -16.0019   22.1223 O   0  0  0  0  0  0  0  0  0  0  0  0
   11.2769  -20.5742   19.3074 O   0  0  0  0  0  0  0  0  0  0  0  0
    7.4650  -14.5808   21.0986 C   0  0  0  0  0  0  0  0  0  0  0  0
    7.8258  -14.2619   22.5117 C   0  0  1  0  0  0  0  0  0  0  0  0
    6.7580  -14.7390   23.4633 C   0  0  0  0  0  0  0  0  0  0  0  0
    9.1931  -14.7505   22.8583 C   0  0  2  0  0  0  0  0  0  0  0  0
    9.2623  -16.2066   22.6744 N   0  0  0  0  0  0  0  0  0  0  0  0
    9.4578  -14.4895   24.2826 C   0  0  0  0  0  0  0  0  0  0  0  0
    9.4217  -13.2483   24.6474 O   0  0  0  0  0  0  0  0  0  0  0  0
    9.7285  -15.4820   25.2216 N   0  0  0  0  0  0  0  0  0  0  0  0
    9.9813  -15.0519   26.6020 C   0  0  1  0  0  0  0  0  0  0  0  0
    8.6340  -14.5193   27.1030 C   0  0  0  0  0  0  0  0  0  0  0  0
    8.7678  -12.7144   27.1617 S   0  0  0  0  0  0  0  0  0  0  0  0
   10.3901  -16.2042   27.3898 C   0  0  0  0  0  0  0  0  0  0  0  0
   10.7508  -16.0742   28.7234 O   0  0  0  0  0  0  0  0  0  0  0  0
   10.4306  -17.3485   26.8939 O   0  0  0  0  0  0  0  0  0  0  0  0
  2  1  1  6
  3  2  1  0
  3  4  1  0
  4  8  1  0
  5  4  2  0
  6  2  1  0
  6  7  2  0
 10  9  1  6
 10 12  1  0
 11 10  1  0
 12 14  1  0
 12 13  1  1
 13  6  1  0
 14 15  2  0
 16 14  1  0
 16 17  1  0
 17 20  1  0
 18 19  1  0
 17 18  1  1
 20 22  2  0
 20 21  1  0
M  END
$$$$
