DVC.pdb
     RDKit          3D

 22 21  0  0  1  0  0  0  0  0999 V2000
    8.7433  -17.0944   16.4814 N   0  0  0  0  0  0  0  0  0  0  0  0
    8.2179  -17.4504   17.7799 C   0  0  1  0  0  0  0  0  0  0  0  0
    8.4061  -18.9159   18.0106 C   0  0  0  0  0  0  0  0  0  0  0  0
    7.5146  -19.6482   17.0744 C   0  0  0  0  0  0  0  0  0  0  0  0
    7.9179  -20.0571   15.9600 O   0  0  0  0  0  0  0  0  0  0  0  0
    8.8499  -16.6077   18.8202 C   0  0  0  0  0  0  0  0  0  0  0  0
   10.1177  -16.5741   18.8063 O   0  0  0  0  0  0  0  0  0  0  0  0
    6.2082  -19.8760   17.4591 O   0  0  0  0  0  0  0  0  0  0  0  0
    7.6589  -12.9504   19.9039 C   0  0  0  0  0  0  0  0  0  0  0  0
    8.0256  -13.8148   21.0644 C   0  0  1  0  0  0  0  0  0  0  0  0
    6.7995  -14.2334   21.8356 C   0  0  0  0  0  0  0  0  0  0  0  0
    8.8885  -14.9607   20.6512 C   0  0  2  0  0  0  0  0  0  0  0  0
    8.1257  -15.8709   19.7861 N   0  0  0  0  0  0  0  0  0  0  0  0
    9.2768  -15.7333   21.8425 C   0  0  0  0  0  0  0  0  0  0  0  0
    8.5087  -16.7295   22.1469 O   0  0  0  0  0  0  0  0  0  0  0  0
   10.3958  -15.4548   22.6236 N   0  0  0  0  0  0  0  0  0  0  0  0
   10.6482  -16.3300   23.7746 C   0  0  1  0  0  0  0  0  0  0  0  0
   12.1649  -16.5531   23.7763 C   0  0  0  0  0  0  0  0  0  0  0  0
   12.5685  -17.4541   22.2584 S   0  0  0  0  0  0  0  0  0  0  0  0
   10.2403  -15.6435   24.9902 C   0  0  0  0  0  0  0  0  0  0  0  0
   10.3094  -16.2670   26.2279 O   0  0  0  0  0  0  0  0  0  0  0  0
    9.8143  -14.4711   24.9621 O   0  0  0  0  0  0  0  0  0  0  0  0
  2  1  1  6
  3  2  1  0
  3  4  1  0
  4  8  1  0
  5  4  2  0
  6  2  1  0
  6  7  2  0
 10  9  1  6
 10 12  1  0
 11 10  1  0
 12 14  1  0
 12 13  1  6
 13  6  1  0
 14 15  2  0
 16 14  1  0
 16 17  1  0
 17 20  1  0
 18 19  1  0
 17 18  1  1
 20 22  2  0
 20 21  1  0
M  END
$$$$
