DVC.pdb
     RDKit          3D

 22 21  0  0  1  0  0  0  0  0999 V2000
    8.0051  -16.0682   21.0803 N   0  0  0  0  0  0  0  0  0  0  0  0
    7.4584  -16.3761   22.3824 C   0  0  1  0  0  0  0  0  0  0  0  0
    7.5830  -17.8435   22.6425 C   0  0  0  0  0  0  0  0  0  0  0  0
    6.5586  -18.5449   21.8264 C   0  0  0  0  0  0  0  0  0  0  0  0
    6.7777  -18.8865   20.6403 O   0  0  0  0  0  0  0  0  0  0  0  0
    8.1203  -15.5406   23.4098 C   0  0  0  0  0  0  0  0  0  0  0  0
    9.3828  -15.4570   23.3219 O   0  0  0  0  0  0  0  0  0  0  0  0
    5.3364  -18.8204   22.4070 O   0  0  0  0  0  0  0  0  0  0  0  0
    6.1674  -13.7176   26.6857 C   0  0  0  0  0  0  0  0  0  0  0  0
    7.3384  -13.0488   26.0452 C   0  0  1  0  0  0  0  0  0  0  0  0
    8.0672  -12.1726   27.0323 C   0  0  0  0  0  0  0  0  0  0  0  0
    8.2253  -14.0290   25.3516 C   0  0  2  0  0  0  0  0  0  0  0  0
    7.4290  -14.8619   24.4402 N   0  0  0  0  0  0  0  0  0  0  0  0
    8.8204  -14.9369   26.3458 C   0  0  0  0  0  0  0  0  0  0  0  0
    8.0633  -15.9035   26.7550 O   0  0  0  0  0  0  0  0  0  0  0  0
   10.1157  -14.8110   26.8421 N   0  0  0  0  0  0  0  0  0  0  0  0
   10.5561  -15.8002   27.8330 C   0  0  1  0  0  0  0  0  0  0  0  0
   12.0388  -16.0363   27.5236 C   0  0  0  0  0  0  0  0  0  0  0  0
   12.1582  -16.4004   25.7538 S   0  0  0  0  0  0  0  0  0  0  0  0
   10.4047  -15.2361   29.1651 C   0  0  0  0  0  0  0  0  0  0  0  0
   10.6704  -15.9881   30.3006 O   0  0  0  0  0  0  0  0  0  0  0  0
   10.0309  -14.0575   29.3325 O   0  0  0  0  0  0  0  0  0  0  0  0
  2  1  1  6
  3  2  1  0
  3  4  1  0
  4  8  1  0
  5  4  2  0
  6  2  1  0
  6  7  2  0
 10  9  1  1
 10 12  1  0
 11 10  1  0
 12 14  1  0
 12 13  1  6
 13  6  1  0
 14 15  2  0
 16 14  1  0
 16 17  1  0
 17 20  1  0
 18 19  1  0
 17 18  1  6
 20 22  2  0
 20 21  1  0
M  END
$$$$
