HRW.pdb
     RDKit          3D

 36 38  0  0  1  0  0  0  0  0999 V2000
    7.6364  -16.5539   19.4319 N   0  0  0  0  0  0  0  0  0  0  0  0
    8.1550  -15.7346   20.4829 C   0  0  1  0  0  0  0  0  0  0  0  0
    7.5281  -14.3735   20.5316 C   0  0  0  0  0  0  0  0  0  0  0  0
    7.7601  -13.7319   19.2017 C   0  0  0  0  0  0  0  0  0  0  0  0
    8.4776  -12.5959   18.9193 C   0  0  0  0  0  0  0  0  0  0  0  0
    8.4376  -12.3654   17.5719 N   0  0  0  0  0  0  0  0  0  0  0  0
    7.7053  -13.3517   17.0414 C   0  0  0  0  0  0  0  0  0  0  0  0
    7.2866  -14.1931   18.0315 N   0  0  0  0  0  0  0  0  0  0  0  0
    8.2484  -16.4474   21.7562 C   0  0  0  0  0  0  0  0  0  0  0  0
    7.2469  -16.5681   22.4824 O   0  0  0  0  0  0  0  0  0  0  0  0
    9.5433  -22.5120   21.8384 N   0  0  0  0  0  0  0  0  0  0  0  0
   10.5910  -22.7684   22.7541 C   0  0  0  0  0  0  0  0  0  0  0  0
   11.5279  -23.6097   22.4394 N   0  0  0  0  0  0  0  0  0  0  0  0
   10.6385  -22.1337   24.0014 N   0  0  0  0  0  0  0  0  0  0  0  0
    9.6776  -21.1827   24.4730 C   0  0  0  0  0  0  0  0  0  0  0  0
   10.2475  -19.7879   24.5874 C   0  0  0  0  0  0  0  0  0  0  0  0
   10.1817  -19.0306   23.2777 C   0  0  0  0  0  0  0  0  0  0  0  0
    9.5379  -17.6877   23.4550 C   0  0  2  0  0  0  0  0  0  0  0  0
    9.4676  -17.0218   22.2066 N   0  0  0  0  0  0  0  0  0  0  0  0
   10.1150  -16.8952   24.5701 C   0  0  0  0  0  0  0  0  0  0  0  0
   11.2413  -16.3772   24.4065 O   0  0  0  0  0  0  0  0  0  0  0  0
   12.2826  -23.8350   23.1323 N   0  0  0  0  0  0  0  0  0  0  0  0
    9.4263  -16.7168   25.7916 C   0  0  2  0  0  0  0  0  0  0  0  0
    9.9617  -15.9760   26.9126 C   0  0  0  0  0  0  0  0  0  0  0  0
    8.8417  -15.3966   27.7365 C   0  0  0  0  0  0  0  0  0  0  0  0
    7.7280  -14.9350   26.8927 C   0  0  0  0  0  0  0  0  0  0  0  0
    6.7902  -15.6860   26.2663 N   0  0  0  0  0  0  0  0  0  0  0  0
    5.9513  -14.8726   25.6035 C   0  0  0  0  0  0  0  0  0  0  0  0
    6.3686  -13.5997   25.8156 C   0  0  0  0  0  0  0  0  0  0  0  0
    5.8846  -12.3711   25.3813 C   0  0  0  0  0  0  0  0  0  0  0  0
    6.5017  -11.1900   25.7478 C   0  0  0  0  0  0  0  0  0  0  0  0
    7.6246  -11.1987   26.5598 C   0  0  0  0  0  0  0  0  0  0  0  0
    8.0885  -12.4386   26.9785 C   0  0  0  0  0  0  0  0  0  0  0  0
    7.4734  -13.6025   26.6145 C   0  0  0  0  0  0  0  0  0  0  0  0
   10.8572  -16.8460   27.7440 O   0  0  0  0  0  0  0  0  0  0  0  0
   11.0586  -18.1763   27.4275 O   0  0  0  0  0  0  0  0  0  0  0  0
  2  3  1  0
  2  1  1  6
  4  3  1  0
  5  4  2  0
  6  7  1  0
  6  5  1  0
  7  8  2  0
  8  4  1  0
  9 10  2  0
  9  2  1  0
 11 12  1  0
 12 13  2  0
 14 15  1  0
 14 12  1  0
 16 15  1  0
 16 17  1  0
 18 17  1  6
 18 20  1  0
 18 19  1  0
 19  9  1  0
 20 21  2  0
 22 20  1  0
 22 23  1  0
 23 24  1  6
 24 25  1  0
 25 33  1  0
 26 25  2  0
 26 27  1  0
 27 28  1  0
 28 29  1  0
 29 30  2  0
 31 30  1  0
 32 31  2  0
 33 28  2  0
 33 32  1  0
 34 35  1  0
 34 23  1  0
 36 34  2  0
M  END
$$$$
