HRW.pdb
     RDKit          3D

 36 38  0  0  1  0  0  0  0  0999 V2000
    9.5628  -20.6390   21.7667 N   0  0  0  0  0  0  0  0  0  0  0  0
   10.6989  -20.0137   21.1641 C   0  0  1  0  0  0  0  0  0  0  0  0
   11.0540  -20.5992   19.8303 C   0  0  0  0  0  0  0  0  0  0  0  0
   11.0750  -22.0852   19.9911 C   0  0  0  0  0  0  0  0  0  0  0  0
   12.1490  -22.8957   20.2644 C   0  0  0  0  0  0  0  0  0  0  0  0
   11.7237  -24.1937   20.3319 N   0  0  0  0  0  0  0  0  0  0  0  0
   10.4053  -24.1715   20.1038 C   0  0  0  0  0  0  0  0  0  0  0  0
    9.9994  -22.8851   19.8945 N   0  0  0  0  0  0  0  0  0  0  0  0
   10.6383  -18.5543   21.2321 C   0  0  0  0  0  0  0  0  0  0  0  0
   11.5845  -17.8670   20.8109 O   0  0  0  0  0  0  0  0  0  0  0  0
    7.9365  -11.4186   18.7762 N   0  0  0  0  0  0  0  0  0  0  0  0
    7.7776  -12.6698   18.1350 C   0  0  0  0  0  0  0  0  0  0  0  0
    8.0015  -12.7716   16.8605 N   0  0  0  0  0  0  0  0  0  0  0  0
    7.3784  -13.8070   18.8478 N   0  0  0  0  0  0  0  0  0  0  0  0
    7.1632  -13.8525   20.2626 C   0  0  0  0  0  0  0  0  0  0  0  0
    8.3480  -14.4145   21.0134 C   0  0  0  0  0  0  0  0  0  0  0  0
    8.3244  -15.9274   21.0752 C   0  0  0  0  0  0  0  0  0  0  0  0
    9.4906  -16.4605   21.8532 C   0  0  2  0  0  0  0  0  0  0  0  0
    9.5136  -17.8747   21.7728 N   0  0  0  0  0  0  0  0  0  0  0  0
    9.5986  -15.8967   23.2225 C   0  0  0  0  0  0  0  0  0  0  0  0
    8.5937  -15.3364   23.7122 O   0  0  0  0  0  0  0  0  0  0  0  0
    7.9063  -13.7021   16.3857 N   0  0  0  0  0  0  0  0  0  0  0  0
   10.7949  -15.9814   23.9707 C   0  0  1  0  0  0  0  0  0  0  0  0
   10.8349  -16.0213   25.4160 C   0  0  0  0  0  0  0  0  0  0  0  0
    9.4431  -16.1726   25.9715 C   0  0  0  0  0  0  0  0  0  0  0  0
    9.0129  -14.9670   26.6974 C   0  0  0  0  0  0  0  0  0  0  0  0
    9.3501  -14.5854   27.9530 N   0  0  0  0  0  0  0  0  0  0  0  0
    8.7454  -13.4187   28.2315 C   0  0  0  0  0  0  0  0  0  0  0  0
    8.0210  -13.0666   27.1403 C   0  0  0  0  0  0  0  0  0  0  0  0
    7.2090  -11.9715   26.8688 C   0  0  0  0  0  0  0  0  0  0  0  0
    6.5692  -11.8409   25.6508 C   0  0  0  0  0  0  0  0  0  0  0  0
    6.7191  -12.8024   24.6642 C   0  0  0  0  0  0  0  0  0  0  0  0
    7.5340  -13.8866   24.9611 C   0  0  0  0  0  0  0  0  0  0  0  0
    8.1652  -14.0095   26.1661 C   0  0  0  0  0  0  0  0  0  0  0  0
   11.7350  -17.1232   25.8913 O   0  0  0  0  0  0  0  0  0  0  0  0
   12.2357  -17.1338   27.1795 O   0  0  0  0  0  0  0  0  0  0  0  0
  2  3  1  0
  2  1  1  6
  4  3  1  0
  5  4  2  0
  6  7  1  0
  6  5  1  0
  7  8  2  0
  8  4  1  0
  9 10  2  0
  9  2  1  0
 11 12  1  0
 12 13  2  0
 14 15  1  0
 14 12  1  0
 16 15  1  0
 16 17  1  0
 18 17  1  1
 18 20  1  0
 18 19  1  0
 19  9  1  0
 20 21  2  0
 22 20  1  0
 22 23  1  0
 23 24  1  1
 24 25  1  0
 25 33  1  0
 26 25  2  0
 26 27  1  0
 27 28  1  0
 28 29  1  0
 29 30  2  0
 31 30  1  0
 32 31  2  0
 33 28  2  0
 33 32  1  0
 34 35  1  0
 34 23  1  0
 36 34  2  0
M  END
$$$$
