HRW.pdb
     RDKit          3D

 36 38  0  0  1  0  0  0  0  0999 V2000
    8.6361  -16.5450   19.3317 N   0  0  0  0  0  0  0  0  0  0  0  0
    8.7204  -15.6620   20.4533 C   0  0  1  0  0  0  0  0  0  0  0  0
    7.7002  -14.5640   20.4156 C   0  0  0  0  0  0  0  0  0  0  0  0
    7.8613  -13.8554   19.1094 C   0  0  0  0  0  0  0  0  0  0  0  0
    8.6892  -12.8018   18.8101 C   0  0  0  0  0  0  0  0  0  0  0  0
    8.5246  -12.4635   17.4953 N   0  0  0  0  0  0  0  0  0  0  0  0
    7.6080  -13.3038   17.0009 C   0  0  0  0  0  0  0  0  0  0  0  0
    7.1965  -14.1595   17.9816 N   0  0  0  0  0  0  0  0  0  0  0  0
    8.8515  -16.3771   21.7220 C   0  0  0  0  0  0  0  0  0  0  0  0
    7.8485  -16.8553   22.2791 O   0  0  0  0  0  0  0  0  0  0  0  0
   14.2126  -21.0492   23.3648 N   0  0  0  0  0  0  0  0  0  0  0  0
   13.8275  -21.2881   22.0244 C   0  0  0  0  0  0  0  0  0  0  0  0
   14.0057  -22.4639   21.5045 N   0  0  0  0  0  0  0  0  0  0  0  0
   13.2581  -20.2775   21.2401 N   0  0  0  0  0  0  0  0  0  0  0  0
   13.0925  -18.9165   21.6527 C   0  0  0  0  0  0  0  0  0  0  0  0
   11.6430  -18.5450   21.8639 C   0  0  0  0  0  0  0  0  0  0  0  0
   11.3001  -18.3773   23.3293 C   0  0  0  0  0  0  0  0  0  0  0  0
   10.2290  -17.3459   23.5251 C   0  0  2  0  0  0  0  0  0  0  0  0
   10.1102  -16.5516   22.3581 N   0  0  0  0  0  0  0  0  0  0  0  0
   10.3542  -16.5943   24.7994 C   0  0  0  0  0  0  0  0  0  0  0  0
   10.9681  -15.5051   24.7857 O   0  0  0  0  0  0  0  0  0  0  0  0
   13.7994  -22.6230   20.4884 N   0  0  0  0  0  0  0  0  0  0  0  0
    9.8004  -17.0778   26.0068 C   0  0  1  0  0  0  0  0  0  0  0  0
    9.9474  -16.4082   27.2805 C   0  0  0  0  0  0  0  0  0  0  0  0
    8.6006  -16.2196   27.9281 C   0  0  0  0  0  0  0  0  0  0  0  0
    7.6677  -15.5021   27.0447 C   0  0  0  0  0  0  0  0  0  0  0  0
    6.7083  -16.0260   26.2441 N   0  0  0  0  0  0  0  0  0  0  0  0
    6.0760  -15.0255   25.6089 C   0  0  0  0  0  0  0  0  0  0  0  0
    6.6457  -13.8634   26.0145 C   0  0  0  0  0  0  0  0  0  0  0  0
    6.3962  -12.5350   25.6898 C   0  0  0  0  0  0  0  0  0  0  0  0
    7.1317  -11.5109   26.2558 C   0  0  0  0  0  0  0  0  0  0  0  0
    8.1425  -11.7817   27.1643 C   0  0  0  0  0  0  0  0  0  0  0  0
    8.3723  -13.1163   27.4702 C   0  0  0  0  0  0  0  0  0  0  0  0
    7.6410  -14.1242   26.9089 C   0  0  0  0  0  0  0  0  0  0  0  0
   10.8812  -17.1687   28.1747 O   0  0  0  0  0  0  0  0  0  0  0  0
   11.4345  -18.3710   27.7761 O   0  0  0  0  0  0  0  0  0  0  0  0
  2  3  1  0
  2  1  1  6
  4  3  1  0
  5  4  2  0
  6  7  1  0
  6  5  1  0
  7  8  2  0
  8  4  1  0
  9 10  2  0
  9  2  1  0
 11 12  1  0
 12 13  2  0
 14 15  1  0
 14 12  1  0
 16 15  1  0
 16 17  1  0
 18 17  1  6
 18 20  1  0
 18 19  1  0
 19  9  1  0
 20 21  2  0
 22 20  1  0
 22 23  1  0
 23 24  1  6
 24 25  1  0
 25 33  1  0
 26 25  2  0
 26 27  1  0
 27 28  1  0
 28 29  1  0
 29 30  2  0
 31 30  1  0
 32 31  2  0
 33 28  2  0
 33 32  1  0
 34 35  1  0
 34 23  1  0
 36 34  2  0
M  END
$$$$
