HRW.pdb
     RDKit          3D

 36 38  0  0  1  0  0  0  0  0999 V2000
    7.0434  -16.1479   19.1932 N   0  0  0  0  0  0  0  0  0  0  0  0
    8.2910  -15.7785   19.7863 C   0  0  1  0  0  0  0  0  0  0  0  0
    8.5832  -14.3120   19.6763 C   0  0  0  0  0  0  0  0  0  0  0  0
    8.4151  -13.9342   18.2399 C   0  0  0  0  0  0  0  0  0  0  0  0
    7.6517  -12.9232   17.7104 C   0  0  0  0  0  0  0  0  0  0  0  0
    7.7883  -12.9259   16.3496 N   0  0  0  0  0  0  0  0  0  0  0  0
    8.6270  -13.9263   16.0561 C   0  0  0  0  0  0  0  0  0  0  0  0
    9.0161  -14.5489   17.2069 N   0  0  0  0  0  0  0  0  0  0  0  0
    8.4841  -16.3771   21.1063 C   0  0  0  0  0  0  0  0  0  0  0  0
    7.6047  -16.2703   21.9782 O   0  0  0  0  0  0  0  0  0  0  0  0
   13.2822  -19.3629   17.7941 N   0  0  0  0  0  0  0  0  0  0  0  0
   12.8989  -20.3758   18.7047 C   0  0  0  0  0  0  0  0  0  0  0  0
   12.2899  -21.4355   18.2680 N   0  0  0  0  0  0  0  0  0  0  0  0
   13.1605  -20.2586   20.0753 N   0  0  0  0  0  0  0  0  0  0  0  0
   12.1714  -20.3409   21.1073 C   0  0  0  0  0  0  0  0  0  0  0  0
   11.4111  -19.0477   21.2887 C   0  0  0  0  0  0  0  0  0  0  0  0
   10.4469  -19.1062   22.4549 C   0  0  0  0  0  0  0  0  0  0  0  0
    9.7706  -17.7852   22.6714 C   0  0  2  0  0  0  0  0  0  0  0  0
    9.6651  -17.0938   21.4394 N   0  0  0  0  0  0  0  0  0  0  0  0
   10.3424  -17.0026   23.7961 C   0  0  0  0  0  0  0  0  0  0  0  0
   11.3417  -16.2858   23.5700 O   0  0  0  0  0  0  0  0  0  0  0  0
   11.8994  -22.1318   18.9484 N   0  0  0  0  0  0  0  0  0  0  0  0
    9.7870  -17.0505   25.0951 C   0  0  1  0  0  0  0  0  0  0  0  0
   10.4152  -16.4618   26.2574 C   0  0  0  0  0  0  0  0  0  0  0  0
    9.9700  -15.0323   26.4221 C   0  0  0  0  0  0  0  0  0  0  0  0
    8.5031  -14.9161   26.4246 C   0  0  0  0  0  0  0  0  0  0  0  0
    7.5885  -15.9039   26.2710 N   0  0  0  0  0  0  0  0  0  0  0  0
    6.3567  -15.3729   26.3423 C   0  0  0  0  0  0  0  0  0  0  0  0
    6.5009  -14.0391   26.5413 C   0  0  0  0  0  0  0  0  0  0  0  0
    5.5789  -13.0094   26.6897 C   0  0  0  0  0  0  0  0  0  0  0  0
    5.9904  -11.7052   26.8889 C   0  0  0  0  0  0  0  0  0  0  0  0
    7.3380  -11.3872   26.9447 C   0  0  0  0  0  0  0  0  0  0  0  0
    8.2379  -12.4334   26.7922 C   0  0  0  0  0  0  0  0  0  0  0  0
    7.8254  -13.7208   26.5973 C   0  0  0  0  0  0  0  0  0  0  0  0
   10.1203  -17.2702   27.4860 O   0  0  0  0  0  0  0  0  0  0  0  0
   10.7503  -17.0040   28.6871 O   0  0  0  0  0  0  0  0  0  0  0  0
  2  3  1  0
  2  1  1  1
  4  3  1  0
  5  4  2  0
  6  7  1  0
  6  5  1  0
  7  8  2  0
  8  4  1  0
  9 10  2  0
  9  2  1  0
 11 12  1  0
 12 13  2  0
 14 15  1  0
 14 12  1  0
 16 15  1  0
 16 17  1  0
 18 17  1  6
 18 20  1  0
 18 19  1  0
 19  9  1  0
 20 21  2  0
 22 20  1  0
 22 23  1  0
 23 24  1  6
 24 25  1  0
 25 33  1  0
 26 25  2  0
 26 27  1  0
 27 28  1  0
 28 29  1  0
 29 30  2  0
 31 30  1  0
 32 31  2  0
 33 28  2  0
 33 32  1  0
 34 35  1  0
 34 23  1  0
 36 34  2  0
M  END
$$$$
