HRW.pdb
     RDKit          3D

 36 38  0  0  1  0  0  0  0  0999 V2000
    8.7744  -16.8163   18.4824 N   0  0  0  0  0  0  0  0  0  0  0  0
    8.5907  -16.0045   19.6452 C   0  0  1  0  0  0  0  0  0  0  0  0
    7.5074  -14.9808   19.4828 C   0  0  0  0  0  0  0  0  0  0  0  0
    7.8360  -14.1787   18.2651 C   0  0  0  0  0  0  0  0  0  0  0  0
    8.4226  -12.9392   18.1962 C   0  0  0  0  0  0  0  0  0  0  0  0
    8.5438  -12.5744   16.8838 N   0  0  0  0  0  0  0  0  0  0  0  0
    8.0381  -13.5822   16.1633 C   0  0  0  0  0  0  0  0  0  0  0  0
    7.6027  -14.5687   17.0003 N   0  0  0  0  0  0  0  0  0  0  0  0
    8.5563  -16.7897   20.8782 C   0  0  0  0  0  0  0  0  0  0  0  0
    7.9186  -17.8556   20.9255 O   0  0  0  0  0  0  0  0  0  0  0  0
    7.9271  -22.5462   21.7944 N   0  0  0  0  0  0  0  0  0  0  0  0
    8.9824  -22.4423   20.8576 C   0  0  0  0  0  0  0  0  0  0  0  0
    8.8970  -23.0650   19.7219 N   0  0  0  0  0  0  0  0  0  0  0  0
   10.1253  -21.6810   21.1310 N   0  0  0  0  0  0  0  0  0  0  0  0
   10.3403  -20.9288   22.3301 C   0  0  0  0  0  0  0  0  0  0  0  0
    9.4973  -19.6762   22.3900 C   0  0  0  0  0  0  0  0  0  0  0  0
   10.3347  -18.4277   22.5725 C   0  0  0  0  0  0  0  0  0  0  0  0
    9.5111  -17.2895   23.0976 C   0  0  2  0  0  0  0  0  0  0  0  0
    9.2397  -16.3727   22.0523 N   0  0  0  0  0  0  0  0  0  0  0  0
   10.0496  -16.6935   24.3463 C   0  0  0  0  0  0  0  0  0  0  0  0
   11.0279  -15.9198   24.2582 O   0  0  0  0  0  0  0  0  0  0  0  0
    9.6626  -22.9647   19.0119 N   0  0  0  0  0  0  0  0  0  0  0  0
    9.4858  -16.9780   25.6109 C   0  0  1  0  0  0  0  0  0  0  0  0
    9.8521  -16.2841   26.8260 C   0  0  0  0  0  0  0  0  0  0  0  0
    8.6263  -16.0026   27.6547 C   0  0  0  0  0  0  0  0  0  0  0  0
    7.5810  -15.3283   26.8685 C   0  0  0  0  0  0  0  0  0  0  0  0
    6.5114  -15.8865   26.2520 N   0  0  0  0  0  0  0  0  0  0  0  0
    5.8018  -14.9188   25.6483 C   0  0  0  0  0  0  0  0  0  0  0  0
    6.4338  -13.7429   25.8878 C   0  0  0  0  0  0  0  0  0  0  0  0
    6.1508  -12.4345   25.5133 C   0  0  0  0  0  0  0  0  0  0  0  0
    6.9690  -11.3887   25.8967 C   0  0  0  0  0  0  0  0  0  0  0  0
    8.0986  -11.6172   26.6662 C   0  0  0  0  0  0  0  0  0  0  0  0
    8.3594  -12.9327   27.0254 C   0  0  0  0  0  0  0  0  0  0  0  0
    7.5462  -13.9621   26.6450 C   0  0  0  0  0  0  0  0  0  0  0  0
   10.8659  -17.0721   27.6015 O   0  0  0  0  0  0  0  0  0  0  0  0
   11.5034  -16.5322   28.7026 O   0  0  0  0  0  0  0  0  0  0  0  0
  2  3  1  0
  2  1  1  6
  4  3  1  0
  5  4  2  0
  6  7  1  0
  6  5  1  0
  7  8  2  0
  8  4  1  0
  9 10  2  0
  9  2  1  0
 11 12  1  0
 12 13  2  0
 14 15  1  0
 14 12  1  0
 16 15  1  0
 16 17  1  0
 18 17  1  6
 18 20  1  0
 18 19  1  0
 19  9  1  0
 20 21  2  0
 22 20  1  0
 22 23  1  0
 23 24  1  6
 24 25  1  0
 25 33  1  0
 26 25  2  0
 26 27  1  0
 27 28  1  0
 28 29  1  0
 29 30  2  0
 31 30  1  0
 32 31  2  0
 33 28  2  0
 33 32  1  0
 34 35  1  0
 34 23  1  0
 36 34  2  0
M  END
$$$$
