HRW.pdb
     RDKit          3D

 36 38  0  0  1  0  0  0  0  0999 V2000
    9.3334  -16.7773   18.0851 N   0  0  0  0  0  0  0  0  0  0  0  0
    8.7900  -16.0550   19.1932 C   0  0  1  0  0  0  0  0  0  0  0  0
    7.4746  -15.4054   18.8839 C   0  0  0  0  0  0  0  0  0  0  0  0
    7.6966  -14.4868   17.7257 C   0  0  0  0  0  0  0  0  0  0  0  0
    8.0866  -13.1705   17.7472 C   0  0  0  0  0  0  0  0  0  0  0  0
    8.1727  -12.7090   16.4627 N   0  0  0  0  0  0  0  0  0  0  0  0
    7.8403  -13.7343   15.6698 C   0  0  0  0  0  0  0  0  0  0  0  0
    7.5477  -14.8268   16.4341 N   0  0  0  0  0  0  0  0  0  0  0  0
    8.8577  -16.8105   20.4433 C   0  0  0  0  0  0  0  0  0  0  0  0
    8.1506  -17.8199   20.6053 O   0  0  0  0  0  0  0  0  0  0  0  0
   13.2253  -20.0943   25.4664 N   0  0  0  0  0  0  0  0  0  0  0  0
   12.1701  -21.0064   25.7044 C   0  0  0  0  0  0  0  0  0  0  0  0
   12.3328  -21.9678   26.5611 N   0  0  0  0  0  0  0  0  0  0  0  0
   10.9478  -20.8966   25.0301 N   0  0  0  0  0  0  0  0  0  0  0  0
   10.8064  -20.6553   23.6259 C   0  0  0  0  0  0  0  0  0  0  0  0
   11.2187  -19.2559   23.2319 C   0  0  0  0  0  0  0  0  0  0  0  0
   10.2619  -18.6334   22.2367 C   0  0  0  0  0  0  0  0  0  0  0  0
    9.8678  -17.2470   22.6516 C   0  0  2  0  0  0  0  0  0  0  0  0
    9.7210  -16.4278   21.5052 N   0  0  0  0  0  0  0  0  0  0  0  0
   10.7173  -16.6867   23.7327 C   0  0  0  0  0  0  0  0  0  0  0  0
   11.8555  -17.1754   23.9038 O   0  0  0  0  0  0  0  0  0  0  0  0
   11.5832  -22.6912   26.6836 N   0  0  0  0  0  0  0  0  0  0  0  0
   10.2720  -15.6282   24.5569 C   0  0  2  0  0  0  0  0  0  0  0  0
    9.9528  -15.7841   25.9590 C   0  0  0  0  0  0  0  0  0  0  0  0
    8.5008  -16.1485   26.1251 C   0  0  0  0  0  0  0  0  0  0  0  0
    7.6139  -15.1300   25.5406 C   0  0  0  0  0  0  0  0  0  0  0  0
    6.9122  -15.2008   24.3838 N   0  0  0  0  0  0  0  0  0  0  0  0
    6.2240  -14.0588   24.2204 C   0  0  0  0  0  0  0  0  0  0  0  0
    6.4984  -13.2642   25.2847 C   0  0  0  0  0  0  0  0  0  0  0  0
    6.0703  -11.9893   25.6364 C   0  0  0  0  0  0  0  0  0  0  0  0
    6.5036  -11.3863   26.8020 C   0  0  0  0  0  0  0  0  0  0  0  0
    7.3809  -12.0380   27.6540 C   0  0  0  0  0  0  0  0  0  0  0  0
    7.7943  -13.3093   27.2790 C   0  0  0  0  0  0  0  0  0  0  0  0
    7.3613  -13.9009   26.1265 C   0  0  0  0  0  0  0  0  0  0  0  0
   10.8480  -16.8052   26.5962 O   0  0  0  0  0  0  0  0  0  0  0  0
   10.9371  -16.9220   27.9705 O   0  0  0  0  0  0  0  0  0  0  0  0
  2  3  1  0
  2  1  1  6
  4  3  1  0
  5  4  2  0
  6  7  1  0
  6  5  1  0
  7  8  2  0
  8  4  1  0
  9 10  2  0
  9  2  1  0
 11 12  1  0
 12 13  2  0
 14 15  1  0
 14 12  1  0
 16 15  1  0
 16 17  1  0
 18 17  1  6
 18 20  1  0
 18 19  1  0
 19  9  1  0
 20 21  2  0
 22 20  1  0
 22 23  1  0
 23 24  1  6
 24 25  1  0
 25 33  1  0
 26 25  2  0
 26 27  1  0
 27 28  1  0
 28 29  1  0
 29 30  2  0
 31 30  1  0
 32 31  2  0
 33 28  2  0
 33 32  1  0
 34 35  1  0
 34 23  1  0
 36 34  2  0
M  END
$$$$
