HRW.pdb
     RDKit          3D

 36 38  0  0  1  0  0  0  0  0999 V2000
    9.4399  -15.8745   19.2273 N   0  0  0  0  0  0  0  0  0  0  0  0
    8.6321  -15.1769   20.1789 C   0  0  1  0  0  0  0  0  0  0  0  0
    7.3512  -14.6595   19.5961 C   0  0  0  0  0  0  0  0  0  0  0  0
    7.6997  -13.9338   18.3367 C   0  0  0  0  0  0  0  0  0  0  0  0
    8.1480  -12.6439   18.1950 C   0  0  0  0  0  0  0  0  0  0  0  0
    8.3490  -12.3839   16.8674 N   0  0  0  0  0  0  0  0  0  0  0  0
    8.0280  -13.5044   16.2102 C   0  0  0  0  0  0  0  0  0  0  0  0
    7.6297  -14.4586   17.1014 N   0  0  0  0  0  0  0  0  0  0  0  0
    8.5201  -15.8903   21.4503 C   0  0  0  0  0  0  0  0  0  0  0  0
    7.8481  -15.4126   22.3806 O   0  0  0  0  0  0  0  0  0  0  0  0
   11.5713  -21.9798   23.4206 N   0  0  0  0  0  0  0  0  0  0  0  0
   10.2863  -22.5701   23.4670 C   0  0  0  0  0  0  0  0  0  0  0  0
   10.0325  -23.4884   24.3484 N   0  0  0  0  0  0  0  0  0  0  0  0
    9.2769  -22.1861   22.5758 N   0  0  0  0  0  0  0  0  0  0  0  0
    9.4544  -21.2863   21.4762 C   0  0  0  0  0  0  0  0  0  0  0  0
    8.8644  -19.9206   21.7412 C   0  0  0  0  0  0  0  0  0  0  0  0
    9.6068  -19.1750   22.8302 C   0  0  0  0  0  0  0  0  0  0  0  0
    9.1310  -17.7571   22.9433 C   0  0  2  0  0  0  0  0  0  0  0  0
    9.1640  -17.1380   21.6696 N   0  0  0  0  0  0  0  0  0  0  0  0
    9.7831  -16.9976   24.0398 C   0  0  0  0  0  0  0  0  0  0  0  0
   10.9166  -16.5129   23.8307 O   0  0  0  0  0  0  0  0  0  0  0  0
    9.0837  -23.9345   24.3803 N   0  0  0  0  0  0  0  0  0  0  0  0
    9.1567  -16.8138   25.2936 C   0  0  2  0  0  0  0  0  0  0  0  0
    9.7709  -16.1159   26.4016 C   0  0  0  0  0  0  0  0  0  0  0  0
    8.7130  -15.5776   27.3288 C   0  0  0  0  0  0  0  0  0  0  0  0
    7.6336  -14.9035   26.5899 C   0  0  0  0  0  0  0  0  0  0  0  0
    6.5477  -15.4642   26.0048 N   0  0  0  0  0  0  0  0  0  0  0  0
    5.8076  -14.4958   25.4402 C   0  0  0  0  0  0  0  0  0  0  0  0
    6.4367  -13.3169   25.6726 C   0  0  0  0  0  0  0  0  0  0  0  0
    6.1279  -12.0066   25.3262 C   0  0  0  0  0  0  0  0  0  0  0  0
    6.9494  -10.9578   25.6938 C   0  0  0  0  0  0  0  0  0  0  0  0
    8.1082  -11.1850   26.4190 C   0  0  0  0  0  0  0  0  0  0  0  0
    8.3943  -12.5025   26.7509 C   0  0  0  0  0  0  0  0  0  0  0  0
    7.5777  -13.5349   26.3862 C   0  0  0  0  0  0  0  0  0  0  0  0
   10.7282  -17.0133   27.1284 O   0  0  0  0  0  0  0  0  0  0  0  0
   10.8701  -18.3429   26.7784 O   0  0  0  0  0  0  0  0  0  0  0  0
  2  3  1  0
  2  1  1  6
  4  3  1  0
  5  4  2  0
  6  7  1  0
  6  5  1  0
  7  8  2  0
  8  4  1  0
  9 10  2  0
  9  2  1  0
 11 12  1  0
 12 13  2  0
 14 15  1  0
 14 12  1  0
 16 15  1  0
 16 17  1  0
 18 17  1  6
 18 20  1  0
 18 19  1  0
 19  9  1  0
 20 21  2  0
 22 20  1  0
 22 23  1  0
 23 24  1  6
 24 25  1  0
 25 33  1  0
 26 25  2  0
 26 27  1  0
 27 28  1  0
 28 29  1  0
 29 30  2  0
 31 30  1  0
 32 31  2  0
 33 28  2  0
 33 32  1  0
 34 35  1  0
 34 23  1  0
 36 34  2  0
M  END
$$$$
