HRW.pdb
     RDKit          3D

 36 38  0  0  1  0  0  0  0  0999 V2000
    7.0968  -16.6676   19.6301 N   0  0  0  0  0  0  0  0  0  0  0  0
    8.1334  -15.9922   20.3471 C   0  0  1  0  0  0  0  0  0  0  0  0
    7.8422  -14.5387   20.5721 C   0  0  0  0  0  0  0  0  0  0  0  0
    7.8880  -13.8669   19.2376 C   0  0  0  0  0  0  0  0  0  0  0  0
    8.0992  -14.4360   18.0060 C   0  0  0  0  0  0  0  0  0  0  0  0
    8.0574  -13.4595   17.0494 N   0  0  0  0  0  0  0  0  0  0  0  0
    7.8214  -12.3102   17.6928 C   0  0  0  0  0  0  0  0  0  0  0  0
    7.7160  -12.5499   19.0325 N   0  0  0  0  0  0  0  0  0  0  0  0
    8.5923  -16.7458   21.5132 C   0  0  0  0  0  0  0  0  0  0  0  0
    7.7799  -17.3741   22.2134 O   0  0  0  0  0  0  0  0  0  0  0  0
   15.1458  -22.7184   23.7444 N   0  0  0  0  0  0  0  0  0  0  0  0
   14.0134  -22.1798   24.3997 C   0  0  0  0  0  0  0  0  0  0  0  0
   13.1384  -22.9779   24.9310 N   0  0  0  0  0  0  0  0  0  0  0  0
   13.8122  -20.7968   24.4858 N   0  0  0  0  0  0  0  0  0  0  0  0
   13.3670  -19.9658   23.4081 C   0  0  0  0  0  0  0  0  0  0  0  0
   12.0414  -19.3002   23.6963 C   0  0  0  0  0  0  0  0  0  0  0  0
   11.6469  -18.3134   22.6173 C   0  0  0  0  0  0  0  0  0  0  0  0
   10.3913  -17.5786   22.9819 C   0  0  2  0  0  0  0  0  0  0  0  0
    9.9628  -16.7898   21.8859 N   0  0  0  0  0  0  0  0  0  0  0  0
   10.4743  -16.8710   24.2845 C   0  0  0  0  0  0  0  0  0  0  0  0
   11.3090  -15.9476   24.4037 O   0  0  0  0  0  0  0  0  0  0  0  0
   12.3274  -22.5827   25.4660 N   0  0  0  0  0  0  0  0  0  0  0  0
    9.6407  -17.2143   25.3732 C   0  0  2  0  0  0  0  0  0  0  0  0
    9.7985  -16.6731   26.7052 C   0  0  0  0  0  0  0  0  0  0  0  0
    8.4505  -16.4244   27.3294 C   0  0  0  0  0  0  0  0  0  0  0  0
    7.6442  -15.4895   26.5287 C   0  0  0  0  0  0  0  0  0  0  0  0
    6.6969  -15.7848   25.6061 N   0  0  0  0  0  0  0  0  0  0  0  0
    6.1980  -14.6399   25.1112 C   0  0  0  0  0  0  0  0  0  0  0  0
    6.8400  -13.6173   25.7289 C   0  0  0  0  0  0  0  0  0  0  0  0
    6.7303  -12.2364   25.6127 C   0  0  0  0  0  0  0  0  0  0  0  0
    7.5144  -11.3908   26.3743 C   0  0  0  0  0  0  0  0  0  0  0  0
    8.4358  -11.8984   27.2765 C   0  0  0  0  0  0  0  0  0  0  0  0
    8.5267  -13.2805   27.3721 C   0  0  0  0  0  0  0  0  0  0  0  0
    7.7479  -14.1114   26.6180 C   0  0  0  0  0  0  0  0  0  0  0  0
   10.6325  -17.5869   27.5534 O   0  0  0  0  0  0  0  0  0  0  0  0
   11.1446  -18.7663   27.0463 O   0  0  0  0  0  0  0  0  0  0  0  0
  2  3  1  0
  2  1  1  1
  4  3  1  0
  5  4  2  0
  6  7  1  0
  6  5  1  0
  7  8  2  0
  8  4  1  0
  9 10  2  0
  9  2  1  0
 11 12  1  0
 12 13  2  0
 14 15  1  0
 14 12  1  0
 16 15  1  0
 16 17  1  0
 18 17  1  6
 18 20  1  0
 18 19  1  0
 19  9  1  0
 20 21  2  0
 22 20  1  0
 22 23  1  0
 23 24  1  6
 24 25  1  0
 25 33  1  0
 26 25  2  0
 26 27  1  0
 27 28  1  0
 28 29  1  0
 29 30  2  0
 31 30  1  0
 32 31  2  0
 33 28  2  0
 33 32  1  0
 34 35  1  0
 34 23  1  0
 36 34  2  0
M  END
$$$$
