HRW.pdb
     RDKit          3D

 36 38  0  0  1  0  0  0  0  0999 V2000
    8.7612  -16.4832   18.2291 N   0  0  0  0  0  0  0  0  0  0  0  0
    8.5147  -15.5311   19.2672 C   0  0  1  0  0  0  0  0  0  0  0  0
    7.4600  -14.5281   18.9073 C   0  0  0  0  0  0  0  0  0  0  0  0
    7.8479  -13.9307   17.5932 C   0  0  0  0  0  0  0  0  0  0  0  0
    8.2384  -12.6415   17.3275 C   0  0  0  0  0  0  0  0  0  0  0  0
    8.5069  -12.5222   15.9918 N   0  0  0  0  0  0  0  0  0  0  0  0
    8.2838  -13.7263   15.4525 C   0  0  0  0  0  0  0  0  0  0  0  0
    7.8804  -14.5949   16.4253 N   0  0  0  0  0  0  0  0  0  0  0  0
    8.3882  -16.1557   20.5832 C   0  0  0  0  0  0  0  0  0  0  0  0
    7.4340  -15.8669   21.3255 O   0  0  0  0  0  0  0  0  0  0  0  0
    8.7438  -21.7529   25.2223 N   0  0  0  0  0  0  0  0  0  0  0  0
    7.5927  -22.1966   24.5295 C   0  0  0  0  0  0  0  0  0  0  0  0
    7.1118  -23.3774   24.7727 N   0  0  0  0  0  0  0  0  0  0  0  0
    6.9586  -21.3871   23.5792 N   0  0  0  0  0  0  0  0  0  0  0  0
    7.3879  -20.0732   23.2059 C   0  0  0  0  0  0  0  0  0  0  0  0
    8.8590  -19.8461   23.4661 C   0  0  0  0  0  0  0  0  0  0  0  0
    9.5376  -19.1123   22.3285 C   0  0  0  0  0  0  0  0  0  0  0  0
    9.2268  -17.6454   22.3622 C   0  0  2  0  0  0  0  0  0  0  0  0
    9.3352  -17.1029   21.0581 N   0  0  0  0  0  0  0  0  0  0  0  0
    9.9575  -16.9079   23.4237 C   0  0  0  0  0  0  0  0  0  0  0  0
   11.1147  -16.5051   23.1744 O   0  0  0  0  0  0  0  0  0  0  0  0
    6.2459  -23.7014   24.2773 N   0  0  0  0  0  0  0  0  0  0  0  0
    9.3788  -16.6554   24.6885 C   0  0  2  0  0  0  0  0  0  0  0  0
   10.1085  -16.0998   25.8069 C   0  0  0  0  0  0  0  0  0  0  0  0
    9.7001  -14.6681   26.0356 C   0  0  0  0  0  0  0  0  0  0  0  0
    8.2421  -14.4957   25.9363 C   0  0  0  0  0  0  0  0  0  0  0  0
    7.2957  -15.4572   25.8111 N   0  0  0  0  0  0  0  0  0  0  0  0
    6.0863  -14.8749   25.7594 C   0  0  0  0  0  0  0  0  0  0  0  0
    6.2769  -13.5353   25.8518 C   0  0  0  0  0  0  0  0  0  0  0  0
    5.3938  -12.4618   25.8532 C   0  0  0  0  0  0  0  0  0  0  0  0
    5.8495  -11.1618   25.9649 C   0  0  0  0  0  0  0  0  0  0  0  0
    7.2042  -10.8923   26.0775 C   0  0  0  0  0  0  0  0  0  0  0  0
    8.0648  -11.9818   26.0720 C   0  0  0  0  0  0  0  0  0  0  0  0
    7.6085  -13.2646   25.9629 C   0  0  0  0  0  0  0  0  0  0  0  0
    9.9023  -16.9295   27.0394 O   0  0  0  0  0  0  0  0  0  0  0  0
    8.9905  -17.9681   27.0595 O   0  0  0  0  0  0  0  0  0  0  0  0
  2  3  1  0
  2  1  1  6
  4  3  1  0
  5  4  2  0
  6  7  1  0
  6  5  1  0
  7  8  2  0
  8  4  1  0
  9 10  2  0
  9  2  1  0
 11 12  1  0
 12 13  2  0
 14 15  1  0
 14 12  1  0
 16 15  1  0
 16 17  1  0
 18 17  1  6
 18 20  1  0
 18 19  1  0
 19  9  1  0
 20 21  2  0
 22 20  1  0
 22 23  1  0
 23 24  1  6
 24 25  1  0
 25 33  1  0
 26 25  2  0
 26 27  1  0
 27 28  1  0
 28 29  1  0
 29 30  2  0
 31 30  1  0
 32 31  2  0
 33 28  2  0
 33 32  1  0
 34 35  1  0
 34 23  1  0
 36 34  2  0
M  END
$$$$
