HRW.pdb
     RDKit          3D

 36 38  0  0  1  0  0  0  0  0999 V2000
    8.7111  -16.4735   18.4630 N   0  0  0  0  0  0  0  0  0  0  0  0
    8.3892  -15.6857   19.6121 C   0  0  1  0  0  0  0  0  0  0  0  0
    7.1601  -14.8477   19.4252 C   0  0  0  0  0  0  0  0  0  0  0  0
    7.3800  -14.0050   18.2104 C   0  0  0  0  0  0  0  0  0  0  0  0
    7.9403  -12.7539   18.1336 C   0  0  0  0  0  0  0  0  0  0  0  0
    7.9528  -12.3492   16.8272 N   0  0  0  0  0  0  0  0  0  0  0  0
    7.4077  -13.3446   16.1182 C   0  0  0  0  0  0  0  0  0  0  0  0
    7.0544  -14.3624   16.9564 N   0  0  0  0  0  0  0  0  0  0  0  0
    8.4651  -16.4504   20.8562 C   0  0  0  0  0  0  0  0  0  0  0  0
    7.4393  -16.9507   21.3486 O   0  0  0  0  0  0  0  0  0  0  0  0
   13.5530  -20.6985   21.4587 N   0  0  0  0  0  0  0  0  0  0  0  0
   13.6198  -21.0355   22.8312 C   0  0  0  0  0  0  0  0  0  0  0  0
   14.7752  -21.2330   23.3888 N   0  0  0  0  0  0  0  0  0  0  0  0
   12.4605  -21.1650   23.6057 N   0  0  0  0  0  0  0  0  0  0  0  0
   11.1240  -21.0665   23.1015 C   0  0  0  0  0  0  0  0  0  0  0  0
   10.4620  -19.7564   23.4604 C   0  0  0  0  0  0  0  0  0  0  0  0
   10.3639  -18.8183   22.2757 C   0  0  0  0  0  0  0  0  0  0  0  0
    9.7660  -17.5007   22.6705 C   0  0  2  0  0  0  0  0  0  0  0  0
    9.6946  -16.6495   21.5404 N   0  0  0  0  0  0  0  0  0  0  0  0
   10.3874  -16.9053   23.8804 C   0  0  0  0  0  0  0  0  0  0  0  0
   11.6238  -17.0201   24.0276 O   0  0  0  0  0  0  0  0  0  0  0  0
   14.8260  -21.5857   24.3754 N   0  0  0  0  0  0  0  0  0  0  0  0
    9.6211  -16.2214   24.8516 C   0  0  2  0  0  0  0  0  0  0  0  0
   10.0476  -16.0310   26.2205 C   0  0  0  0  0  0  0  0  0  0  0  0
    8.8598  -16.0683   27.1460 C   0  0  0  0  0  0  0  0  0  0  0  0
    7.7191  -15.3175   26.5978 C   0  0  0  0  0  0  0  0  0  0  0  0
    6.5484  -15.8085   26.1243 N   0  0  0  0  0  0  0  0  0  0  0  0
    5.7765  -14.7849   25.7231 C   0  0  0  0  0  0  0  0  0  0  0  0
    6.4710  -13.6415   25.9462 C   0  0  0  0  0  0  0  0  0  0  0  0
    6.1665  -12.3030   25.7267 C   0  0  0  0  0  0  0  0  0  0  0  0
    7.0645  -11.3036   26.0504 C   0  0  0  0  0  0  0  0  0  0  0  0
    8.2978  -11.6098   26.6030 C   0  0  0  0  0  0  0  0  0  0  0  0
    8.5778  -12.9538   26.8106 C   0  0  0  0  0  0  0  0  0  0  0  0
    7.6856  -13.9372   26.4903 C   0  0  0  0  0  0  0  0  0  0  0  0
   11.0711  -17.0581   26.6046 O   0  0  0  0  0  0  0  0  0  0  0  0
   11.4751  -18.0349   25.7141 O   0  0  0  0  0  0  0  0  0  0  0  0
  2  3  1  0
  2  1  1  6
  4  3  1  0
  5  4  2  0
  6  7  1  0
  6  5  1  0
  7  8  2  0
  8  4  1  0
  9 10  2  0
  9  2  1  0
 11 12  1  0
 12 13  2  0
 14 15  1  0
 14 12  1  0
 16 15  1  0
 16 17  1  0
 18 17  1  6
 18 20  1  0
 18 19  1  0
 19  9  1  0
 20 21  2  0
 22 20  1  0
 22 23  1  0
 23 24  1  1
 24 25  1  0
 25 33  1  0
 26 25  2  0
 26 27  1  0
 27 28  1  0
 28 29  1  0
 29 30  2  0
 31 30  1  0
 32 31  2  0
 33 28  2  0
 33 32  1  0
 34 35  1  0
 34 23  1  0
 36 34  2  0
M  END
$$$$
