HRW.pdb
     RDKit          3D

 36 38  0  0  1  0  0  0  0  0999 V2000
    7.6323  -20.7450   22.5053 N   0  0  0  0  0  0  0  0  0  0  0  0
    7.1385  -19.5619   23.1387 C   0  0  1  0  0  0  0  0  0  0  0  0
    6.7439  -19.7810   24.5685 C   0  0  0  0  0  0  0  0  0  0  0  0
    5.7958  -20.9364   24.5934 C   0  0  0  0  0  0  0  0  0  0  0  0
    5.4275  -21.7565   23.5556 C   0  0  0  0  0  0  0  0  0  0  0  0
    4.5403  -22.6896   24.0166 N   0  0  0  0  0  0  0  0  0  0  0  0
    4.3730  -22.4401   25.3205 C   0  0  0  0  0  0  0  0  0  0  0  0
    5.1378  -21.3688   25.6825 N   0  0  0  0  0  0  0  0  0  0  0  0
    7.9745  -18.3921   22.8727 C   0  0  0  0  0  0  0  0  0  0  0  0
    9.2131  -18.4801   22.9301 O   0  0  0  0  0  0  0  0  0  0  0  0
    8.1989  -12.4037   18.1044 N   0  0  0  0  0  0  0  0  0  0  0  0
    8.7248  -13.7141   18.1935 C   0  0  0  0  0  0  0  0  0  0  0  0
   10.0010  -13.8844   18.3583 N   0  0  0  0  0  0  0  0  0  0  0  0
    7.8952  -14.8386   18.1040 N   0  0  0  0  0  0  0  0  0  0  0  0
    6.7892  -15.1109   18.9716 C   0  0  0  0  0  0  0  0  0  0  0  0
    7.1795  -15.9520   20.1648 C   0  0  0  0  0  0  0  0  0  0  0  0
    7.7335  -15.1171   21.3003 C   0  0  0  0  0  0  0  0  0  0  0  0
    8.2347  -15.9808   22.4193 C   0  0  2  0  0  0  0  0  0  0  0  0
    7.4137  -17.1287   22.5426 N   0  0  0  0  0  0  0  0  0  0  0  0
    8.4839  -15.2354   23.6790 C   0  0  0  0  0  0  0  0  0  0  0  0
    7.5180  -14.6607   24.2269 O   0  0  0  0  0  0  0  0  0  0  0  0
   10.3952  -14.8545   18.4204 N   0  0  0  0  0  0  0  0  0  0  0  0
    9.7700  -15.1658   24.2613 C   0  0  1  0  0  0  0  0  0  0  0  0
   10.0177  -15.3217   25.6778 C   0  0  0  0  0  0  0  0  0  0  0  0
    8.8604  -16.0277   26.3343 C   0  0  0  0  0  0  0  0  0  0  0  0
    7.6347  -15.2144   26.2966 C   0  0  0  0  0  0  0  0  0  0  0  0
    6.3732  -15.6207   26.0150 N   0  0  0  0  0  0  0  0  0  0  0  0
    5.5467  -14.5647   26.0946 C   0  0  0  0  0  0  0  0  0  0  0  0
    6.2981  -13.4859   26.4281 C   0  0  0  0  0  0  0  0  0  0  0  0
    5.9758  -12.1510   26.6440 C   0  0  0  0  0  0  0  0  0  0  0  0
    6.9463  -11.2277   26.9842 C   0  0  0  0  0  0  0  0  0  0  0  0
    8.2719  -11.6087   27.1183 C   0  0  0  0  0  0  0  0  0  0  0  0
    8.5673  -12.9470   26.8958 C   0  0  0  0  0  0  0  0  0  0  0  0
    7.6036  -13.8554   26.5615 C   0  0  0  0  0  0  0  0  0  0  0  0
   11.3069  -16.0515   25.9135 O   0  0  0  0  0  0  0  0  0  0  0  0
   12.0844  -16.4912   24.8587 O   0  0  0  0  0  0  0  0  0  0  0  0
  2  3  1  0
  2  1  1  1
  4  3  1  0
  5  4  2  0
  6  7  1  0
  6  5  1  0
  7  8  2  0
  8  4  1  0
  9 10  2  0
  9  2  1  0
 11 12  1  0
 12 13  2  0
 14 15  1  0
 14 12  1  0
 16 15  1  0
 16 17  1  0
 18 17  1  6
 18 20  1  0
 18 19  1  0
 19  9  1  0
 20 21  2  0
 22 20  1  0
 22 23  1  0
 23 24  1  1
 24 25  1  0
 25 33  1  0
 26 25  2  0
 26 27  1  0
 27 28  1  0
 28 29  1  0
 29 30  2  0
 31 30  1  0
 32 31  2  0
 33 28  2  0
 33 32  1  0
 34 35  1  0
 34 23  1  0
 36 34  2  0
M  END
$$$$
