HRW.pdb
     RDKit          3D

 36 38  0  0  1  0  0  0  0  0999 V2000
    5.3457  -20.4941   21.4351 N   0  0  0  0  0  0  0  0  0  0  0  0
    5.4473  -19.0848   21.6548 C   0  0  1  0  0  0  0  0  0  0  0  0
    4.3634  -18.5480   22.5408 C   0  0  0  0  0  0  0  0  0  0  0  0
    3.0588  -18.8530   21.8780 C   0  0  0  0  0  0  0  0  0  0  0  0
    2.8415  -19.4930   20.6829 C   0  0  0  0  0  0  0  0  0  0  0  0
    1.4953  -19.5660   20.4533 N   0  0  0  0  0  0  0  0  0  0  0  0
    0.9014  -18.9784   21.4985 C   0  0  0  0  0  0  0  0  0  0  0  0
    1.8506  -18.5392   22.3758 N   0  0  0  0  0  0  0  0  0  0  0  0
    6.8102  -18.6635   21.9758 C   0  0  0  0  0  0  0  0  0  0  0  0
    7.5136  -19.3451   22.7411 O   0  0  0  0  0  0  0  0  0  0  0  0
   15.0031  -14.8105   18.7687 N   0  0  0  0  0  0  0  0  0  0  0  0
   13.5933  -14.8123   18.6491 C   0  0  0  0  0  0  0  0  0  0  0  0
   13.0388  -14.3348   17.5771 N   0  0  0  0  0  0  0  0  0  0  0  0
   12.7774  -15.3176   19.6687 N   0  0  0  0  0  0  0  0  0  0  0  0
   11.3458  -15.3142   19.6490 C   0  0  0  0  0  0  0  0  0  0  0  0
   10.7461  -16.0507   20.8243 C   0  0  0  0  0  0  0  0  0  0  0  0
    9.2402  -16.1716   20.7196 C   0  0  0  0  0  0  0  0  0  0  0  0
    8.6899  -17.0773   21.7808 C   0  0  2  0  0  0  0  0  0  0  0  0
    7.3760  -17.4778   21.4342 N   0  0  0  0  0  0  0  0  0  0  0  0
    8.8536  -16.5467   23.1578 C   0  0  0  0  0  0  0  0  0  0  0  0
    8.1319  -15.5891   23.5123 O   0  0  0  0  0  0  0  0  0  0  0  0
   13.6366  -13.9430   16.8094 N   0  0  0  0  0  0  0  0  0  0  0  0
    9.7927  -17.0955   24.0607 C   0  0  1  0  0  0  0  0  0  0  0  0
   10.0918  -16.5203   25.3537 C   0  0  0  0  0  0  0  0  0  0  0  0
    9.0505  -16.9330   26.3606 C   0  0  0  0  0  0  0  0  0  0  0  0
    7.9037  -16.0109   26.3664 C   0  0  0  0  0  0  0  0  0  0  0  0
    6.6900  -16.1867   25.7904 N   0  0  0  0  0  0  0  0  0  0  0  0
    5.9294  -15.1073   26.0375 C   0  0  0  0  0  0  0  0  0  0  0  0
    6.6744  -14.2463   26.7744 C   0  0  0  0  0  0  0  0  0  0  0  0
    6.4019  -12.9915   27.3071 C   0  0  0  0  0  0  0  0  0  0  0  0
    7.3513  -12.3050   28.0401 C   0  0  0  0  0  0  0  0  0  0  0  0
    8.6057  -12.8501   28.2633 C   0  0  0  0  0  0  0  0  0  0  0  0
    8.8527  -14.1034   27.7193 C   0  0  0  0  0  0  0  0  0  0  0  0
    7.9099  -14.7780   26.9971 C   0  0  0  0  0  0  0  0  0  0  0  0
   11.4691  -16.9106   25.8018 O   0  0  0  0  0  0  0  0  0  0  0  0
   12.2500  -17.7696   25.0517 O   0  0  0  0  0  0  0  0  0  0  0  0
  2  3  1  0
  2  1  1  1
  4  3  1  0
  5  4  2  0
  6  7  1  0
  6  5  1  0
  7  8  2  0
  8  4  1  0
  9 10  2  0
  9  2  1  0
 11 12  1  0
 12 13  2  0
 14 15  1  0
 14 12  1  0
 16 15  1  0
 16 17  1  0
 18 17  1  6
 18 20  1  0
 18 19  1  0
 19  9  1  0
 20 21  2  0
 22 20  1  0
 22 23  1  0
 23 24  1  1
 24 25  1  0
 25 33  1  0
 26 25  2  0
 26 27  1  0
 27 28  1  0
 28 29  1  0
 29 30  2  0
 31 30  1  0
 32 31  2  0
 33 28  2  0
 33 32  1  0
 34 35  1  0
 34 23  1  0
 36 34  2  0
M  END
$$$$
