HRW.pdb
     RDKit          3D

 36 38  0  0  1  0  0  0  0  0999 V2000
    7.4508  -21.8706   23.6052 N   0  0  0  0  0  0  0  0  0  0  0  0
    7.1080  -20.5480   24.0270 C   0  0  1  0  0  0  0  0  0  0  0  0
    7.2778  -20.3383   25.5018 C   0  0  0  0  0  0  0  0  0  0  0  0
    6.2974  -21.2315   26.1912 C   0  0  0  0  0  0  0  0  0  0  0  0
    5.3688  -22.0708   25.6267 C   0  0  0  0  0  0  0  0  0  0  0  0
    4.6792  -22.7078   26.6212 N   0  0  0  0  0  0  0  0  0  0  0  0
    5.1847  -22.2617   27.7770 C   0  0  0  0  0  0  0  0  0  0  0  0
    6.1759  -21.3580   27.5236 N   0  0  0  0  0  0  0  0  0  0  0  0
    7.6764  -19.5171   23.1596 C   0  0  0  0  0  0  0  0  0  0  0  0
    8.8520  -19.6067   22.7661 O   0  0  0  0  0  0  0  0  0  0  0  0
    8.0223  -13.9387   17.2120 N   0  0  0  0  0  0  0  0  0  0  0  0
    8.4929  -13.2236   18.3385 C   0  0  0  0  0  0  0  0  0  0  0  0
    9.0850  -12.0805   18.1725 N   0  0  0  0  0  0  0  0  0  0  0  0
    8.3367  -13.7259   19.6362 N   0  0  0  0  0  0  0  0  0  0  0  0
    7.1646  -14.3898   20.1213 C   0  0  0  0  0  0  0  0  0  0  0  0
    7.3192  -14.8784   21.5429 C   0  0  0  0  0  0  0  0  0  0  0  0
    6.6688  -16.2285   21.7609 C   0  0  0  0  0  0  0  0  0  0  0  0
    7.5247  -17.1154   22.6154 C   0  0  2  0  0  0  0  0  0  0  0  0
    6.9197  -18.3905   22.7382 N   0  0  0  0  0  0  0  0  0  0  0  0
    7.9470  -16.4833   23.8908 C   0  0  0  0  0  0  0  0  0  0  0  0
    7.2435  -16.6741   24.9068 O   0  0  0  0  0  0  0  0  0  0  0  0
    9.4303  -11.5448   19.0056 N   0  0  0  0  0  0  0  0  0  0  0  0
    9.1103  -15.6849   23.9770 C   0  0  1  0  0  0  0  0  0  0  0  0
    9.8312  -15.4496   25.2086 C   0  0  0  0  0  0  0  0  0  0  0  0
    8.9468  -15.7386   26.3931 C   0  0  0  0  0  0  0  0  0  0  0  0
    7.6995  -14.9595   26.3438 C   0  0  0  0  0  0  0  0  0  0  0  0
    6.4291  -15.4241   26.2653 N   0  0  0  0  0  0  0  0  0  0  0  0
    5.5832  -14.3807   26.2491 C   0  0  0  0  0  0  0  0  0  0  0  0
    6.3310  -13.2512   26.3166 C   0  0  0  0  0  0  0  0  0  0  0  0
    5.9917  -11.9033   26.3353 C   0  0  0  0  0  0  0  0  0  0  0  0
    6.9629  -10.9231   26.4133 C   0  0  0  0  0  0  0  0  0  0  0  0
    8.3061  -11.2585   26.4738 C   0  0  0  0  0  0  0  0  0  0  0  0
    8.6181  -12.6113   26.4521 C   0  0  0  0  0  0  0  0  0  0  0  0
    7.6539  -13.5757   26.3765 C   0  0  0  0  0  0  0  0  0  0  0  0
   11.0871  -16.2688   25.2526 O   0  0  0  0  0  0  0  0  0  0  0  0
   11.4755  -17.0430   24.1756 O   0  0  0  0  0  0  0  0  0  0  0  0
  2  3  1  0
  2  1  1  6
  4  3  1  0
  5  4  2  0
  6  7  1  0
  6  5  1  0
  7  8  2  0
  8  4  1  0
  9 10  2  0
  9  2  1  0
 11 12  1  0
 12 13  2  0
 14 15  1  0
 14 12  1  0
 16 15  1  0
 16 17  1  0
 18 17  1  1
 18 20  1  0
 18 19  1  0
 19  9  1  0
 20 21  2  0
 22 20  1  0
 22 23  1  0
 23 24  1  1
 24 25  1  0
 25 33  1  0
 26 25  2  0
 26 27  1  0
 27 28  1  0
 28 29  1  0
 29 30  2  0
 31 30  1  0
 32 31  2  0
 33 28  2  0
 33 32  1  0
 34 35  1  0
 34 23  1  0
 36 34  2  0
M  END
$$$$
