HRW.pdb
     RDKit          3D

 36 38  0  0  1  0  0  0  0  0999 V2000
    8.1340  -16.6371   18.9059 N   0  0  0  0  0  0  0  0  0  0  0  0
    8.4530  -15.8151   20.0316 C   0  0  1  0  0  0  0  0  0  0  0  0
    7.5565  -14.6202   20.1604 C   0  0  0  0  0  0  0  0  0  0  0  0
    7.7398  -13.7949   18.9277 C   0  0  0  0  0  0  0  0  0  0  0  0
    8.2275  -12.5155   18.8259 C   0  0  0  0  0  0  0  0  0  0  0  0
    8.2302  -12.1416   17.5104 N   0  0  0  0  0  0  0  0  0  0  0  0
    7.7512  -13.1833   16.8206 C   0  0  0  0  0  0  0  0  0  0  0  0
    7.4486  -14.2000   17.6798 N   0  0  0  0  0  0  0  0  0  0  0  0
    8.6702  -16.5925   21.2508 C   0  0  0  0  0  0  0  0  0  0  0  0
    7.7469  -17.2679   21.7370 O   0  0  0  0  0  0  0  0  0  0  0  0
   11.0294  -23.7230   23.4752 N   0  0  0  0  0  0  0  0  0  0  0  0
   10.9906  -23.0491   24.7187 C   0  0  0  0  0  0  0  0  0  0  0  0
   10.8589  -23.7309   25.8152 N   0  0  0  0  0  0  0  0  0  0  0  0
   11.0884  -21.6543   24.7934 N   0  0  0  0  0  0  0  0  0  0  0  0
   11.0779  -20.7714   23.6663 C   0  0  0  0  0  0  0  0  0  0  0  0
   11.3129  -19.3300   24.0543 C   0  0  0  0  0  0  0  0  0  0  0  0
   11.1909  -18.3895   22.8737 C   0  0  0  0  0  0  0  0  0  0  0  0
   10.1116  -17.3718   23.0954 C   0  0  2  0  0  0  0  0  0  0  0  0
    9.9252  -16.6074   21.9174 N   0  0  0  0  0  0  0  0  0  0  0  0
   10.2818  -16.5884   24.3451 C   0  0  0  0  0  0  0  0  0  0  0  0
   11.0417  -15.5956   24.3218 O   0  0  0  0  0  0  0  0  0  0  0  0
   10.8276  -23.2347   26.7388 N   0  0  0  0  0  0  0  0  0  0  0  0
    9.6112  -16.9367   25.5397 C   0  0  2  0  0  0  0  0  0  0  0  0
    9.8442  -16.2836   26.8091 C   0  0  0  0  0  0  0  0  0  0  0  0
    8.5419  -16.0853   27.5395 C   0  0  0  0  0  0  0  0  0  0  0  0
    7.5813  -15.3102   26.7384 C   0  0  0  0  0  0  0  0  0  0  0  0
    6.5937  -15.7792   25.9379 N   0  0  0  0  0  0  0  0  0  0  0  0
    5.9427  -14.7382   25.3929 C   0  0  0  0  0  0  0  0  0  0  0  0
    6.5289  -13.6060   25.8553 C   0  0  0  0  0  0  0  0  0  0  0  0
    6.2720  -12.2588   25.6288 C   0  0  0  0  0  0  0  0  0  0  0  0
    7.0291  -11.2750   26.2363 C   0  0  0  0  0  0  0  0  0  0  0  0
    8.0696  -11.6062   27.0895 C   0  0  0  0  0  0  0  0  0  0  0  0
    8.3062  -12.9584   27.2976 C   0  0  0  0  0  0  0  0  0  0  0  0
    7.5536  -13.9263   26.6958 C   0  0  0  0  0  0  0  0  0  0  0  0
   10.8204  -17.0662   27.6366 O   0  0  0  0  0  0  0  0  0  0  0  0
   11.2947  -16.5763   28.8388 O   0  0  0  0  0  0  0  0  0  0  0  0
  2  3  1  0
  2  1  1  6
  4  3  1  0
  5  4  2  0
  6  7  1  0
  6  5  1  0
  7  8  2  0
  8  4  1  0
  9 10  2  0
  9  2  1  0
 11 12  1  0
 12 13  2  0
 14 15  1  0
 14 12  1  0
 16 15  1  0
 16 17  1  0
 18 17  1  6
 18 20  1  0
 18 19  1  0
 19  9  1  0
 20 21  2  0
 22 20  1  0
 22 23  1  0
 23 24  1  6
 24 25  1  0
 25 33  1  0
 26 25  2  0
 26 27  1  0
 27 28  1  0
 28 29  1  0
 29 30  2  0
 31 30  1  0
 32 31  2  0
 33 28  2  0
 33 32  1  0
 34 35  1  0
 34 23  1  0
 36 34  2  0
M  END
$$$$
