HRW.pdb
     RDKit          3D

 36 38  0  0  1  0  0  0  0  0999 V2000
    6.4037  -19.8969   20.7009 N   0  0  0  0  0  0  0  0  0  0  0  0
    6.3090  -18.7175   21.5039 C   0  0  1  0  0  0  0  0  0  0  0  0
    5.6738  -18.9645   22.8394 C   0  0  0  0  0  0  0  0  0  0  0  0
    4.3202  -19.5452   22.5846 C   0  0  0  0  0  0  0  0  0  0  0  0
    3.4808  -19.3116   21.5234 C   0  0  0  0  0  0  0  0  0  0  0  0
    2.3420  -20.0518   21.6830 N   0  0  0  0  0  0  0  0  0  0  0  0
    2.4890  -20.7291   22.8277 C   0  0  0  0  0  0  0  0  0  0  0  0
    3.6970  -20.4255   23.3863 N   0  0  0  0  0  0  0  0  0  0  0  0
    7.5497  -17.9438   21.5133 C   0  0  0  0  0  0  0  0  0  0  0  0
    8.6497  -18.5218   21.4833 O   0  0  0  0  0  0  0  0  0  0  0  0
    9.7011  -14.6498   16.8821 N   0  0  0  0  0  0  0  0  0  0  0  0
    8.6282  -13.8162   16.4870 C   0  0  0  0  0  0  0  0  0  0  0  0
    8.4215  -13.5895   15.2258 N   0  0  0  0  0  0  0  0  0  0  0  0
    7.7812  -13.2240   17.4317 N   0  0  0  0  0  0  0  0  0  0  0  0
    8.0456  -13.1522   18.8370 C   0  0  0  0  0  0  0  0  0  0  0  0
    8.3489  -14.5035   19.4416 C   0  0  0  0  0  0  0  0  0  0  0  0
    8.5253  -14.4347   20.9441 C   0  0  0  0  0  0  0  0  0  0  0  0
    8.7625  -15.7952   21.5290 C   0  0  2  0  0  0  0  0  0  0  0  0
    7.5476  -16.5233   21.5557 N   0  0  0  0  0  0  0  0  0  0  0  0
    9.5196  -15.7688   22.8059 C   0  0  0  0  0  0  0  0  0  0  0  0
   10.5689  -15.0907   22.8573 O   0  0  0  0  0  0  0  0  0  0  0  0
    7.6463  -12.9477   14.9303 N   0  0  0  0  0  0  0  0  0  0  0  0
    9.0832  -16.4822   23.9456 C   0  0  1  0  0  0  0  0  0  0  0  0
    9.7488  -16.4276   25.2286 C   0  0  0  0  0  0  0  0  0  0  0  0
    9.5670  -15.0686   25.8522 C   0  0  0  0  0  0  0  0  0  0  0  0
    8.1462  -14.6958   25.9398 C   0  0  0  0  0  0  0  0  0  0  0  0
    7.0641  -15.4703   25.6851 N   0  0  0  0  0  0  0  0  0  0  0  0
    5.9514  -14.7464   25.8908 C   0  0  0  0  0  0  0  0  0  0  0  0
    6.3403  -13.5057   26.2768 C   0  0  0  0  0  0  0  0  0  0  0  0
    5.6245  -12.3638   26.6175 C   0  0  0  0  0  0  0  0  0  0  0  0
    6.2707  -11.1993   26.9870 C   0  0  0  0  0  0  0  0  0  0  0  0
    7.6545  -11.1378   27.0264 C   0  0  0  0  0  0  0  0  0  0  0  0
    8.3455  -12.2913   26.6802 C   0  0  0  0  0  0  0  0  0  0  0  0
    7.7014  -13.4399   26.3175 C   0  0  0  0  0  0  0  0  0  0  0  0
    9.2473  -17.5144   26.1327 O   0  0  0  0  0  0  0  0  0  0  0  0
    8.2189  -18.3520   25.7440 O   0  0  0  0  0  0  0  0  0  0  0  0
  2  3  1  0
  2  1  1  1
  4  3  1  0
  5  4  2  0
  6  7  1  0
  6  5  1  0
  7  8  2  0
  8  4  1  0
  9 10  2  0
  9  2  1  0
 11 12  1  0
 12 13  2  0
 14 15  1  0
 14 12  1  0
 16 15  1  0
 16 17  1  0
 18 17  1  1
 18 20  1  0
 18 19  1  0
 19  9  1  0
 20 21  2  0
 22 20  1  0
 22 23  1  0
 23 24  1  1
 24 25  1  0
 25 33  1  0
 26 25  2  0
 26 27  1  0
 27 28  1  0
 28 29  1  0
 29 30  2  0
 31 30  1  0
 32 31  2  0
 33 28  2  0
 33 32  1  0
 34 35  1  0
 34 23  1  0
 36 34  2  0
M  END
$$$$
