FGP.pdb
     RDKit          3D

 23 24  0  0  1  0  0  0  0  0999 V2000
   25.0188  -20.8706   -7.7777 N   0  0  0  0  0  0  0  0  0  0  0  0
   26.2755  -20.5161   -8.3585 C   0  0  1  0  0  0  0  0  0  0  0  0
   27.4543  -21.1064   -7.6147 C   0  0  0  0  0  0  0  0  0  0  0  0
   27.8156  -20.3025   -6.4317 C   0  0  0  0  0  0  0  0  0  0  0  0
   28.2566  -20.9618   -5.2792 C   0  0  0  0  0  0  0  0  0  0  0  0
   28.5975  -20.2281   -4.1674 C   0  0  0  0  0  0  0  0  0  0  0  0
   28.4945  -18.8518   -4.2197 C   0  0  0  0  0  0  0  0  0  0  0  0
   28.0612  -18.2055   -5.3525 C   0  0  0  0  0  0  0  0  0  0  0  0
   27.7173  -18.9285   -6.4709 C   0  0  0  0  0  0  0  0  0  0  0  0
   26.2911  -20.9753   -9.7714 C   0  0  0  0  0  0  0  0  0  0  0  0
   25.4770  -21.8358  -10.1997 O   0  0  0  0  0  0  0  0  0  0  0  0
   27.2435  -20.4420  -10.6842 N   0  0  0  0  0  0  0  0  0  0  0  0
   27.2349  -20.8401  -12.0577 C   0  0  0  0  0  0  0  0  0  0  0  0
   26.5444  -19.8030  -12.8624 C   0  0  0  0  0  0  0  0  0  0  0  0
   25.6736  -19.0343  -12.3418 O   0  0  0  0  0  0  0  0  0  0  0  0
   26.8809  -19.6876  -14.2387 N   0  0  0  0  0  0  0  0  0  0  0  0
   27.8448  -20.5137  -14.8863 C   0  0  0  0  0  0  0  0  0  0  0  0
   27.8542  -20.1351  -16.3228 C   0  0  0  0  0  0  0  0  0  0  0  0
   27.3238  -18.7007  -16.2793 C   0  0  0  0  0  0  0  0  0  0  0  0
   26.3139  -18.7436  -15.1478 C   0  0  1  0  0  0  0  0  0  0  0  0
   24.9897  -19.2043  -15.6130 C   0  0  0  0  0  0  0  0  0  0  0  0
   24.1370  -18.3182  -16.2230 O   0  0  0  0  0  0  0  0  0  0  0  0
   24.6900  -20.4131  -15.4281 O   0  0  0  0  0  0  0  0  0  0  0  0
  2 10  1  0
  2  1  1  1
  3  2  1  0
  4  3  1  0
  5  4  2  0
  6  5  1  0
  7  8  1  0
  7  6  2  0
  8  9  2  0
  9  4  1  0
 10 12  1  0
 11 10  2  0
 12 13  1  0
 13 14  1  0
 14 16  1  0
 15 14  2  0
 16 20  1  0
 16 17  1  0
 17 18  1  0
 19 18  1  0
 20 21  1  6
 20 19  1  0
 21 22  1  0
 23 21  2  0
M  END
$$$$
