FGP.pdb
     RDKit          3D

 23 24  0  0  1  0  0  0  0  0999 V2000
   26.6850  -21.7252   -7.9045 N   0  0  0  0  0  0  0  0  0  0  0  0
   25.6421  -20.7684   -7.7073 C   0  0  1  0  0  0  0  0  0  0  0  0
   25.5860  -20.2439   -6.2884 C   0  0  0  0  0  0  0  0  0  0  0  0
   26.9337  -20.0570   -5.7184 C   0  0  0  0  0  0  0  0  0  0  0  0
   27.2898  -20.7872   -4.5794 C   0  0  0  0  0  0  0  0  0  0  0  0
   28.5420  -20.6254   -4.0349 C   0  0  0  0  0  0  0  0  0  0  0  0
   29.4190  -19.7408   -4.6313 C   0  0  0  0  0  0  0  0  0  0  0  0
   29.0679  -19.0241   -5.7501 C   0  0  0  0  0  0  0  0  0  0  0  0
   27.8183  -19.1773   -6.3040 C   0  0  0  0  0  0  0  0  0  0  0  0
   25.8482  -19.6408   -8.6526 C   0  0  0  0  0  0  0  0  0  0  0  0
   26.2755  -18.5202   -8.2675 O   0  0  0  0  0  0  0  0  0  0  0  0
   25.5616  -19.8086  -10.0361 N   0  0  0  0  0  0  0  0  0  0  0  0
   26.6044  -20.1327  -10.9596 C   0  0  0  0  0  0  0  0  0  0  0  0
   26.0762  -20.0449  -12.3428 C   0  0  0  0  0  0  0  0  0  0  0  0
   24.8447  -19.8134  -12.5662 O   0  0  0  0  0  0  0  0  0  0  0  0
   26.9851  -20.2271  -13.4206 N   0  0  0  0  0  0  0  0  0  0  0  0
   28.3396  -20.6356  -13.2489 C   0  0  0  0  0  0  0  0  0  0  0  0
   28.9297  -20.7826  -14.6043 C   0  0  0  0  0  0  0  0  0  0  0  0
   28.0405  -19.8617  -15.4422 C   0  0  0  0  0  0  0  0  0  0  0  0
   26.6758  -20.0270  -14.8003 C   0  0  1  0  0  0  0  0  0  0  0  0
   25.9533  -21.1955  -15.3433 C   0  0  0  0  0  0  0  0  0  0  0  0
   25.9188  -22.3665  -14.6278 O   0  0  0  0  0  0  0  0  0  0  0  0
   25.3876  -21.0690  -16.4610 O   0  0  0  0  0  0  0  0  0  0  0  0
  2 10  1  0
  2  1  1  1
  3  2  1  0
  4  3  1  0
  5  4  2  0
  6  5  1  0
  7  8  1  0
  7  6  2  0
  8  9  2  0
  9  4  1  0
 10 12  1  0
 11 10  2  0
 12 13  1  0
 13 14  1  0
 14 16  1  0
 15 14  2  0
 16 20  1  0
 16 17  1  0
 17 18  1  0
 19 18  1  0
 20 21  1  6
 20 19  1  0
 21 22  1  0
 23 21  2  0
M  END
$$$$
