FGP.pdb
     RDKit          3D

 23 24  0  0  1  0  0  0  0  0999 V2000
   24.6265  -17.0196  -16.1206 N   0  0  0  0  0  0  0  0  0  0  0  0
   25.9892  -16.8209  -15.7387 C   0  0  1  0  0  0  0  0  0  0  0  0
   26.3332  -15.3623  -15.5254 C   0  0  0  0  0  0  0  0  0  0  0  0
   26.2464  -14.5887  -16.7785 C   0  0  0  0  0  0  0  0  0  0  0  0
   27.1242  -14.8986  -17.8229 C   0  0  0  0  0  0  0  0  0  0  0  0
   27.0571  -14.1876  -18.9979 C   0  0  0  0  0  0  0  0  0  0  0  0
   26.1190  -13.1809  -19.1152 C   0  0  0  0  0  0  0  0  0  0  0  0
   25.2573  -12.8775  -18.0885 C   0  0  0  0  0  0  0  0  0  0  0  0
   25.3147  -13.5816  -16.9083 C   0  0  0  0  0  0  0  0  0  0  0  0
   26.2485  -17.5863  -14.4920 C   0  0  0  0  0  0  0  0  0  0  0  0
   25.5161  -17.4670  -13.4741 O   0  0  0  0  0  0  0  0  0  0  0  0
   27.3493  -18.4852  -14.4230 N   0  0  0  0  0  0  0  0  0  0  0  0
   27.5483  -19.3022  -13.2662 C   0  0  0  0  0  0  0  0  0  0  0  0
   26.4487  -20.2933  -13.1735 C   0  0  0  0  0  0  0  0  0  0  0  0
   25.9624  -20.8397  -14.2151 O   0  0  0  0  0  0  0  0  0  0  0  0
   25.9473  -20.6201  -11.8840 N   0  0  0  0  0  0  0  0  0  0  0  0
   26.3929  -19.9949  -10.6834 C   0  0  0  0  0  0  0  0  0  0  0  0
   25.5826  -20.5528   -9.5703 C   0  0  0  0  0  0  0  0  0  0  0  0
   25.1422  -21.9026  -10.1402 C   0  0  0  0  0  0  0  0  0  0  0  0
   24.9483  -21.6044  -11.6151 C   0  0  1  0  0  0  0  0  0  0  0  0
   23.6016  -21.0639  -11.8920 C   0  0  0  0  0  0  0  0  0  0  0  0
   22.5435  -21.9235  -12.0523 O   0  0  0  0  0  0  0  0  0  0  0  0
   23.4754  -19.8137  -11.9715 O   0  0  0  0  0  0  0  0  0  0  0  0
  2 10  1  0
  2  1  1  1
  3  2  1  0
  4  3  1  0
  5  4  2  0
  6  5  1  0
  7  8  1  0
  7  6  2  0
  8  9  2  0
  9  4  1  0
 10 12  1  0
 11 10  2  0
 12 13  1  0
 13 14  1  0
 14 16  1  0
 15 14  2  0
 16 20  1  0
 16 17  1  0
 17 18  1  0
 19 18  1  0
 20 21  1  1
 20 19  1  0
 21 22  1  0
 23 21  2  0
M  END
$$$$
