FGP.pdb
     RDKit          3D

 23 24  0  0  1  0  0  0  0  0999 V2000
   21.1660  -19.8857  -15.5101 N   0  0  0  0  0  0  0  0  0  0  0  0
   22.2592  -20.6798  -15.0446 C   0  0  1  0  0  0  0  0  0  0  0  0
   23.2359  -21.0378  -16.1442 C   0  0  0  0  0  0  0  0  0  0  0  0
   23.4792  -19.9022  -17.0539 C   0  0  0  0  0  0  0  0  0  0  0  0
   24.4510  -18.9577  -16.7062 C   0  0  0  0  0  0  0  0  0  0  0  0
   24.6907  -17.8929  -17.5425 C   0  0  0  0  0  0  0  0  0  0  0  0
   23.9607  -17.7847  -18.7099 C   0  0  0  0  0  0  0  0  0  0  0  0
   23.0064  -18.7132  -19.0502 C   0  0  0  0  0  0  0  0  0  0  0  0
   22.7576  -19.7826  -18.2218 C   0  0  0  0  0  0  0  0  0  0  0  0
   22.9631  -19.9338  -13.9697 C   0  0  0  0  0  0  0  0  0  0  0  0
   22.6668  -18.7435  -13.6830 O   0  0  0  0  0  0  0  0  0  0  0  0
   24.0043  -20.5612  -13.2304 N   0  0  0  0  0  0  0  0  0  0  0  0
   24.5489  -19.9331  -12.0667 C   0  0  0  0  0  0  0  0  0  0  0  0
   24.6030  -20.9189  -10.9599 C   0  0  0  0  0  0  0  0  0  0  0  0
   24.1895  -22.1123  -11.1175 O   0  0  0  0  0  0  0  0  0  0  0  0
   25.1313  -20.4955   -9.7099 N   0  0  0  0  0  0  0  0  0  0  0  0
   25.6357  -19.1842   -9.4708 C   0  0  0  0  0  0  0  0  0  0  0  0
   26.0215  -19.1160   -8.0379 C   0  0  0  0  0  0  0  0  0  0  0  0
   26.2705  -20.5879   -7.7029 C   0  0  0  0  0  0  0  0  0  0  0  0
   25.2324  -21.3099   -8.5412 C   0  0  1  0  0  0  0  0  0  0  0  0
   23.9288  -21.3878   -7.8506 C   0  0  0  0  0  0  0  0  0  0  0  0
   23.7456  -22.3040   -6.8449 O   0  0  0  0  0  0  0  0  0  0  0  0
   23.0209  -20.5968   -8.2185 O   0  0  0  0  0  0  0  0  0  0  0  0
  2 10  1  0
  2  1  1  6
  3  2  1  0
  4  3  1  0
  5  4  2  0
  6  5  1  0
  7  8  1  0
  7  6  2  0
  8  9  2  0
  9  4  1  0
 10 12  1  0
 11 10  2  0
 12 13  1  0
 13 14  1  0
 14 16  1  0
 15 14  2  0
 16 20  1  0
 16 17  1  0
 17 18  1  0
 19 18  1  0
 20 21  1  1
 20 19  1  0
 21 22  1  0
 23 21  2  0
M  END
$$$$
