FGP.pdb
     RDKit          3D

 23 24  0  0  1  0  0  0  0  0999 V2000
   26.3496  -18.7116   -7.9711 N   0  0  0  0  0  0  0  0  0  0  0  0
   26.7319  -20.0688   -8.2038 C   0  0  1  0  0  0  0  0  0  0  0  0
   26.8496  -20.8735   -6.9272 C   0  0  0  0  0  0  0  0  0  0  0  0
   27.8625  -20.3104   -6.0144 C   0  0  0  0  0  0  0  0  0  0  0  0
   27.4389  -19.4933   -4.9608 C   0  0  0  0  0  0  0  0  0  0  0  0
   28.3695  -18.9600   -4.1005 C   0  0  0  0  0  0  0  0  0  0  0  0
   29.7052  -19.2478   -4.3017 C   0  0  0  0  0  0  0  0  0  0  0  0
   30.1200  -20.0507   -5.3371 C   0  0  0  0  0  0  0  0  0  0  0  0
   29.1985  -20.5899   -6.2042 C   0  0  0  0  0  0  0  0  0  0  0  0
   25.7295  -20.6960   -9.1033 C   0  0  0  0  0  0  0  0  0  0  0  0
   24.5377  -20.8845   -8.7416 O   0  0  0  0  0  0  0  0  0  0  0  0
   26.1036  -21.1033  -10.4143 N   0  0  0  0  0  0  0  0  0  0  0  0
   25.1252  -21.1947  -11.4532 C   0  0  0  0  0  0  0  0  0  0  0  0
   25.8039  -21.4900  -12.7385 C   0  0  0  0  0  0  0  0  0  0  0  0
   27.0721  -21.5700  -12.8126 O   0  0  0  0  0  0  0  0  0  0  0  0
   24.9982  -21.6824  -13.8938 N   0  0  0  0  0  0  0  0  0  0  0  0
   23.5772  -21.5742  -13.8906 C   0  0  0  0  0  0  0  0  0  0  0  0
   23.1183  -21.7687  -15.2900 C   0  0  0  0  0  0  0  0  0  0  0  0
   24.2691  -22.5752  -15.8951 C   0  0  0  0  0  0  0  0  0  0  0  0
   25.4895  -22.0085  -15.1944 C   0  0  1  0  0  0  0  0  0  0  0  0
   25.9986  -20.7993  -15.8733 C   0  0  0  0  0  0  0  0  0  0  0  0
   26.8416  -20.9273  -16.9491 O   0  0  0  0  0  0  0  0  0  0  0  0
   25.6326  -19.6789  -15.4304 O   0  0  0  0  0  0  0  0  0  0  0  0
  2 10  1  0
  2  1  1  1
  3  2  1  0
  4  3  1  0
  5  4  2  0
  6  5  1  0
  7  8  1  0
  7  6  2  0
  8  9  2  0
  9  4  1  0
 10 12  1  0
 11 10  2  0
 12 13  1  0
 13 14  1  0
 14 16  1  0
 15 14  2  0
 16 20  1  0
 16 17  1  0
 17 18  1  0
 19 18  1  0
 20 21  1  6
 20 19  1  0
 21 22  1  0
 23 21  2  0
M  END
$$$$
