FGP.pdb
     RDKit          3D

 23 24  0  0  1  0  0  0  0  0999 V2000
   23.9545  -20.8137  -11.9519 N   0  0  0  0  0  0  0  0  0  0  0  0
   25.2805  -21.0328  -11.4662 C   0  0  1  0  0  0  0  0  0  0  0  0
   26.3238  -20.9812  -12.5618 C   0  0  0  0  0  0  0  0  0  0  0  0
   27.6920  -21.1010  -12.0233 C   0  0  0  0  0  0  0  0  0  0  0  0
   27.9983  -22.1900  -11.2002 C   0  0  0  0  0  0  0  0  0  0  0  0
   29.2686  -22.3172  -10.6897 C   0  0  0  0  0  0  0  0  0  0  0  0
   30.2129  -21.3603  -11.0056 C   0  0  0  0  0  0  0  0  0  0  0  0
   29.9107  -20.2910  -11.8143 C   0  0  0  0  0  0  0  0  0  0  0  0
   28.6435  -20.1528  -12.3310 C   0  0  0  0  0  0  0  0  0  0  0  0
   25.5830  -20.0073  -10.4347 C   0  0  0  0  0  0  0  0  0  0  0  0
   25.9029  -18.8286  -10.7430 O   0  0  0  0  0  0  0  0  0  0  0  0
   25.5160  -20.3433   -9.0537 N   0  0  0  0  0  0  0  0  0  0  0  0
   26.1505  -19.5173   -8.0738 C   0  0  0  0  0  0  0  0  0  0  0  0
   27.0804  -20.3441   -7.2665 C   0  0  0  0  0  0  0  0  0  0  0  0
   27.2395  -21.5840   -7.5061 O   0  0  0  0  0  0  0  0  0  0  0  0
   27.7943  -19.7138   -6.2110 N   0  0  0  0  0  0  0  0  0  0  0  0
   27.7101  -18.3203   -5.9247 C   0  0  0  0  0  0  0  0  0  0  0  0
   28.5358  -18.0692   -4.7156 C   0  0  0  0  0  0  0  0  0  0  0  0
   29.5203  -19.2397   -4.7516 C   0  0  0  0  0  0  0  0  0  0  0  0
   28.6819  -20.3749   -5.3087 C   0  0  1  0  0  0  0  0  0  0  0  0
   27.9211  -21.0656   -4.2475 C   0  0  0  0  0  0  0  0  0  0  0  0
   28.5824  -21.8581   -3.3425 O   0  0  0  0  0  0  0  0  0  0  0  0
   26.6738  -20.8972   -4.2144 O   0  0  0  0  0  0  0  0  0  0  0  0
  2 10  1  0
  2  1  1  6
  3  2  1  0
  4  3  1  0
  5  4  2  0
  6  5  1  0
  7  8  1  0
  7  6  2  0
  8  9  2  0
  9  4  1  0
 10 12  1  0
 11 10  2  0
 12 13  1  0
 13 14  1  0
 14 16  1  0
 15 14  2  0
 16 20  1  0
 16 17  1  0
 17 18  1  0
 19 18  1  0
 20 21  1  1
 20 19  1  0
 21 22  1  0
 23 21  2  0
M  END
$$$$
