FGP.pdb
     RDKit          3D

 23 24  0  0  1  0  0  0  0  0999 V2000
   24.6457  -20.7019   -7.8662 N   0  0  0  0  0  0  0  0  0  0  0  0
   25.9106  -20.2314   -8.3362 C   0  0  1  0  0  0  0  0  0  0  0  0
   27.0755  -21.0214   -7.7793 C   0  0  0  0  0  0  0  0  0  0  0  0
   27.5956  -20.4280   -6.5328 C   0  0  0  0  0  0  0  0  0  0  0  0
   27.4619  -19.0493   -6.3369 C   0  0  0  0  0  0  0  0  0  0  0  0
   27.9410  -18.4796   -5.1808 C   0  0  0  0  0  0  0  0  0  0  0  0
   28.5448  -19.2895   -4.2391 C   0  0  0  0  0  0  0  0  0  0  0  0
   28.6755  -20.6438   -4.4329 C   0  0  0  0  0  0  0  0  0  0  0  0
   28.2002  -21.2253   -5.5852 C   0  0  0  0  0  0  0  0  0  0  0  0
   25.9201  -20.2997   -9.8203 C   0  0  0  0  0  0  0  0  0  0  0  0
   25.0175  -19.7633  -10.5163 O   0  0  0  0  0  0  0  0  0  0  0  0
   26.9683  -20.9848  -10.4960 N   0  0  0  0  0  0  0  0  0  0  0  0
   27.6358  -20.3776  -11.6054 C   0  0  0  0  0  0  0  0  0  0  0  0
   26.6572  -20.1430  -12.6951 C   0  0  0  0  0  0  0  0  0  0  0  0
   25.4039  -20.1727  -12.4751 O   0  0  0  0  0  0  0  0  0  0  0  0
   27.1566  -19.8827  -14.0004 N   0  0  0  0  0  0  0  0  0  0  0  0
   28.5413  -19.9158  -14.3357 C   0  0  0  0  0  0  0  0  0  0  0  0
   28.6461  -19.6664  -15.7963 C   0  0  0  0  0  0  0  0  0  0  0  0
   27.3489  -18.9087  -16.0857 C   0  0  0  0  0  0  0  0  0  0  0  0
   26.3566  -19.5544  -15.1368 C   0  0  1  0  0  0  0  0  0  0  0  0
   25.7576  -20.7736  -15.7175 C   0  0  0  0  0  0  0  0  0  0  0  0
   24.7573  -20.6616  -16.6509 O   0  0  0  0  0  0  0  0  0  0  0  0
   26.1959  -21.8871  -15.3262 O   0  0  0  0  0  0  0  0  0  0  0  0
  2 10  1  0
  2  1  1  1
  3  2  1  0
  4  3  1  0
  5  4  2  0
  6  5  1  0
  7  8  1  0
  7  6  2  0
  8  9  2  0
  9  4  1  0
 10 12  1  0
 11 10  2  0
 12 13  1  0
 13 14  1  0
 14 16  1  0
 15 14  2  0
 16 20  1  0
 16 17  1  0
 17 18  1  0
 19 18  1  0
 20 21  1  6
 20 19  1  0
 21 22  1  0
 23 21  2  0
M  END
$$$$
