FGP.pdb
     RDKit          3D

 23 24  0  0  1  0  0  0  0  0999 V2000
   21.5770  -17.6196  -17.5267 N   0  0  0  0  0  0  0  0  0  0  0  0
   21.5798  -19.0344  -17.3255 C   0  0  1  0  0  0  0  0  0  0  0  0
   21.4633  -19.8123  -18.6188 C   0  0  0  0  0  0  0  0  0  0  0  0
   20.1554  -19.6045  -19.2688 C   0  0  0  0  0  0  0  0  0  0  0  0
   20.0926  -18.8029  -20.4136 C   0  0  0  0  0  0  0  0  0  0  0  0
   18.8817  -18.5986  -21.0321 C   0  0  0  0  0  0  0  0  0  0  0  0
   17.7539  -19.1942  -20.5026 C   0  0  0  0  0  0  0  0  0  0  0  0
   17.8169  -19.9815  -19.3779 C   0  0  0  0  0  0  0  0  0  0  0  0
   19.0224  -20.1933  -18.7504 C   0  0  0  0  0  0  0  0  0  0  0  0
   22.8339  -19.4109  -16.6233 C   0  0  0  0  0  0  0  0  0  0  0  0
   23.7739  -18.5894  -16.4554 O   0  0  0  0  0  0  0  0  0  0  0  0
   22.9997  -20.7306  -16.1181 N   0  0  0  0  0  0  0  0  0  0  0  0
   24.1412  -21.0662  -15.3246 C   0  0  0  0  0  0  0  0  0  0  0  0
   23.7120  -21.2924  -13.9229 C   0  0  0  0  0  0  0  0  0  0  0  0
   22.4829  -21.4311  -13.6227 O   0  0  0  0  0  0  0  0  0  0  0  0
   24.7137  -21.3505  -12.9159 N   0  0  0  0  0  0  0  0  0  0  0  0
   26.1009  -21.1473  -13.1714 C   0  0  0  0  0  0  0  0  0  0  0  0
   26.8032  -21.2141  -11.8640 C   0  0  0  0  0  0  0  0  0  0  0  0
   25.8376  -22.0530  -11.0245 C   0  0  0  0  0  0  0  0  0  0  0  0
   24.4759  -21.6191  -11.5337 C   0  0  1  0  0  0  0  0  0  0  0  0
   23.9959  -20.4033  -10.8455 C   0  0  0  0  0  0  0  0  0  0  0  0
   24.1757  -19.1747  -11.4308 O   0  0  0  0  0  0  0  0  0  0  0  0
   23.4309  -20.5445   -9.7292 O   0  0  0  0  0  0  0  0  0  0  0  0
  2 10  1  0
  2  1  1  6
  3  2  1  0
  4  3  1  0
  5  4  2  0
  6  5  1  0
  7  8  1  0
  7  6  2  0
  8  9  2  0
  9  4  1  0
 10 12  1  0
 11 10  2  0
 12 13  1  0
 13 14  1  0
 14 16  1  0
 15 14  2  0
 16 20  1  0
 16 17  1  0
 17 18  1  0
 19 18  1  0
 20 21  1  1
 20 19  1  0
 21 22  1  0
 23 21  2  0
M  END
$$$$
