FGP.pdb
     RDKit          3D

 23 24  0  0  1  0  0  0  0  0999 V2000
   22.8347  -21.2299  -10.7326 N   0  0  0  0  0  0  0  0  0  0  0  0
   23.9784  -20.4816  -11.1499 C   0  0  1  0  0  0  0  0  0  0  0  0
   23.6412  -19.4084  -12.1628 C   0  0  0  0  0  0  0  0  0  0  0  0
   23.0526  -19.9771  -13.3901 C   0  0  0  0  0  0  0  0  0  0  0  0
   23.9048  -20.3472  -14.4361 C   0  0  0  0  0  0  0  0  0  0  0  0
   23.3732  -20.8789  -15.5873 C   0  0  0  0  0  0  0  0  0  0  0  0
   22.0040  -21.0337  -15.6797 C   0  0  0  0  0  0  0  0  0  0  0  0
   21.1680  -20.6697  -14.6514 C   0  0  0  0  0  0  0  0  0  0  0  0
   21.6878  -20.1368  -13.4949 C   0  0  0  0  0  0  0  0  0  0  0  0
   24.6037  -19.8640   -9.9520 C   0  0  0  0  0  0  0  0  0  0  0  0
   23.9228  -19.5193   -8.9499 O   0  0  0  0  0  0  0  0  0  0  0  0
   26.0093  -19.6463   -9.9134 N   0  0  0  0  0  0  0  0  0  0  0  0
   26.6133  -18.9992   -8.7902 C   0  0  0  0  0  0  0  0  0  0  0  0
   27.2285  -20.0223   -7.9100 C   0  0  0  0  0  0  0  0  0  0  0  0
   27.0948  -21.2654   -8.1485 O   0  0  0  0  0  0  0  0  0  0  0  0
   27.9760  -19.5778   -6.7855 N   0  0  0  0  0  0  0  0  0  0  0  0
   28.1707  -18.2036   -6.4618 C   0  0  0  0  0  0  0  0  0  0  0  0
   28.9336  -18.1558   -5.1881 C   0  0  0  0  0  0  0  0  0  0  0  0
   29.6436  -19.5110   -5.1891 C   0  0  0  0  0  0  0  0  0  0  0  0
   28.6274  -20.4291   -5.8421 C   0  0  1  0  0  0  0  0  0  0  0  0
   27.6551  -20.9549   -4.8621 C   0  0  0  0  0  0  0  0  0  0  0  0
   26.3800  -20.4477   -4.8299 O   0  0  0  0  0  0  0  0  0  0  0  0
   28.0414  -21.8637   -4.0810 O   0  0  0  0  0  0  0  0  0  0  0  0
  2 10  1  0
  2  1  1  1
  3  2  1  0
  4  3  1  0
  5  4  2  0
  6  5  1  0
  7  8  1  0
  7  6  2  0
  8  9  2  0
  9  4  1  0
 10 12  1  0
 11 10  2  0
 12 13  1  0
 13 14  1  0
 14 16  1  0
 15 14  2  0
 16 20  1  0
 16 17  1  0
 17 18  1  0
 19 18  1  0
 20 21  1  1
 20 19  1  0
 21 22  1  0
 23 21  2  0
M  END
$$$$
