FGP.pdb
     RDKit          3D

 23 24  0  0  1  0  0  0  0  0999 V2000
   24.8481  -20.4879   -7.8032 N   0  0  0  0  0  0  0  0  0  0  0  0
   26.1628  -20.3397   -8.3433 C   0  0  1  0  0  0  0  0  0  0  0  0
   27.2160  -21.0661   -7.5343 C   0  0  0  0  0  0  0  0  0  0  0  0
   27.6153  -20.3000   -6.3386 C   0  0  0  0  0  0  0  0  0  0  0  0
   27.9388  -18.9467   -6.4834 C   0  0  0  0  0  0  0  0  0  0  0  0
   28.3130  -18.2175   -5.3794 C   0  0  0  0  0  0  0  0  0  0  0  0
   28.3594  -18.8455   -4.1502 C   0  0  0  0  0  0  0  0  0  0  0  0
   28.0413  -20.1750   -4.0093 C   0  0  0  0  0  0  0  0  0  0  0  0
   27.6656  -20.9148   -5.1062 C   0  0  0  0  0  0  0  0  0  0  0  0
   26.1618  -20.8478   -9.7394 C   0  0  0  0  0  0  0  0  0  0  0  0
   25.3010  -21.6727  -10.1460 O   0  0  0  0  0  0  0  0  0  0  0  0
   27.1513  -20.4040  -10.6606 N   0  0  0  0  0  0  0  0  0  0  0  0
   27.0543  -20.7386  -12.0476 C   0  0  0  0  0  0  0  0  0  0  0  0
   26.4812  -19.5884  -12.7883 C   0  0  0  0  0  0  0  0  0  0  0  0
   25.4811  -18.9438  -12.3362 O   0  0  0  0  0  0  0  0  0  0  0  0
   27.0799  -19.2211  -14.0242 N   0  0  0  0  0  0  0  0  0  0  0  0
   28.2143  -19.8827  -14.5779 C   0  0  0  0  0  0  0  0  0  0  0  0
   28.4860  -19.2588  -15.8984 C   0  0  0  0  0  0  0  0  0  0  0  0
   27.8516  -17.8761  -15.7358 C   0  0  0  0  0  0  0  0  0  0  0  0
   26.6396  -18.1558  -14.8671 C   0  0  1  0  0  0  0  0  0  0  0  0
   25.4754  -18.5800  -15.6716 C   0  0  0  0  0  0  0  0  0  0  0  0
   25.1923  -19.9165  -15.8061 O   0  0  0  0  0  0  0  0  0  0  0  0
   24.7765  -17.6829  -16.2119 O   0  0  0  0  0  0  0  0  0  0  0  0
  2 10  1  0
  2  1  1  1
  3  2  1  0
  4  3  1  0
  5  4  2  0
  6  5  1  0
  7  8  1  0
  7  6  2  0
  8  9  2  0
  9  4  1  0
 10 12  1  0
 11 10  2  0
 12 13  1  0
 13 14  1  0
 14 16  1  0
 15 14  2  0
 16 20  1  0
 16 17  1  0
 17 18  1  0
 19 18  1  0
 20 21  1  6
 20 19  1  0
 21 22  1  0
 23 21  2  0
M  END
$$$$
