FGP.pdb
     RDKit          3D

 23 24  0  0  1  0  0  0  0  0999 V2000
   28.8198  -21.2943   -8.8303 N   0  0  0  0  0  0  0  0  0  0  0  0
   27.4204  -21.0070   -8.7918 C   0  0  1  0  0  0  0  0  0  0  0  0
   27.1025  -19.7326   -8.0393 C   0  0  0  0  0  0  0  0  0  0  0  0
   27.5647  -19.7915   -6.6396 C   0  0  0  0  0  0  0  0  0  0  0  0
   28.5822  -18.9231   -6.2299 C   0  0  0  0  0  0  0  0  0  0  0  0
   29.0252  -18.9644   -4.9289 C   0  0  0  0  0  0  0  0  0  0  0  0
   28.4497  -19.8678   -4.0571 C   0  0  0  0  0  0  0  0  0  0  0  0
   27.4502  -20.7203   -4.4609 C   0  0  0  0  0  0  0  0  0  0  0  0
   26.9987  -20.6884   -5.7597 C   0  0  0  0  0  0  0  0  0  0  0  0
   26.9186  -20.9061  -10.1866 C   0  0  0  0  0  0  0  0  0  0  0  0
   27.5181  -20.2259  -11.0611 O   0  0  0  0  0  0  0  0  0  0  0  0
   25.7297  -21.5883  -10.5679 N   0  0  0  0  0  0  0  0  0  0  0  0
   25.2326  -21.4890  -11.9051 C   0  0  0  0  0  0  0  0  0  0  0  0
   24.0224  -20.6314  -11.9136 C   0  0  0  0  0  0  0  0  0  0  0  0
   23.6207  -20.0454  -10.8576 O   0  0  0  0  0  0  0  0  0  0  0  0
   23.3169  -20.4791  -13.1384 N   0  0  0  0  0  0  0  0  0  0  0  0
   23.7712  -21.0092  -14.3808 C   0  0  0  0  0  0  0  0  0  0  0  0
   22.7299  -20.7050  -15.3957 C   0  0  0  0  0  0  0  0  0  0  0  0
   22.0293  -19.4913  -14.7817 C   0  0  0  0  0  0  0  0  0  0  0  0
   22.0793  -19.7840  -13.2938 C   0  0  1  0  0  0  0  0  0  0  0  0
   20.9505  -20.6349  -12.8649 C   0  0  0  0  0  0  0  0  0  0  0  0
   19.7513  -20.0564  -12.5306 O   0  0  0  0  0  0  0  0  0  0  0  0
   21.1362  -21.8795  -12.8221 O   0  0  0  0  0  0  0  0  0  0  0  0
  2 10  1  0
  2  1  1  6
  3  2  1  0
  4  3  1  0
  5  4  2  0
  6  5  1  0
  7  8  1  0
  7  6  2  0
  8  9  2  0
  9  4  1  0
 10 12  1  0
 11 10  2  0
 12 13  1  0
 13 14  1  0
 14 16  1  0
 15 14  2  0
 16 20  1  0
 16 17  1  0
 17 18  1  0
 19 18  1  0
 20 21  1  6
 20 19  1  0
 21 22  1  0
 23 21  2  0
M  END
$$$$
