FGP.pdb
     RDKit          3D

 23 24  0  0  1  0  0  0  0  0999 V2000
   25.0231  -20.8804   -8.0464 N   0  0  0  0  0  0  0  0  0  0  0  0
   26.0755  -20.0543   -8.5485 C   0  0  1  0  0  0  0  0  0  0  0  0
   27.4519  -20.5779   -8.1983 C   0  0  0  0  0  0  0  0  0  0  0  0
   27.8688  -20.1648   -6.8449 C   0  0  0  0  0  0  0  0  0  0  0  0
   27.9881  -18.7992   -6.5650 C   0  0  0  0  0  0  0  0  0  0  0  0
   28.3754  -18.3964   -5.3087 C   0  0  0  0  0  0  0  0  0  0  0  0
   28.6377  -19.3572   -4.3519 C   0  0  0  0  0  0  0  0  0  0  0  0
   28.5201  -20.6983   -4.6282 C   0  0  0  0  0  0  0  0  0  0  0  0
   28.1334  -21.1136   -5.8811 C   0  0  0  0  0  0  0  0  0  0  0  0
   25.9361  -19.9536  -10.0242 C   0  0  0  0  0  0  0  0  0  0  0  0
   25.1668  -20.7116  -10.6725 O   0  0  0  0  0  0  0  0  0  0  0  0
   26.6827  -18.9811  -10.7464 N   0  0  0  0  0  0  0  0  0  0  0  0
   26.4255  -18.7521  -12.1344 C   0  0  0  0  0  0  0  0  0  0  0  0
   26.6844  -20.0010  -12.8915 C   0  0  0  0  0  0  0  0  0  0  0  0
   26.7908  -21.1225  -12.2990 O   0  0  0  0  0  0  0  0  0  0  0  0
   26.8118  -19.9144  -14.3047 N   0  0  0  0  0  0  0  0  0  0  0  0
   26.8273  -18.6823  -15.0207 C   0  0  0  0  0  0  0  0  0  0  0  0
   27.0497  -19.0087  -16.4527 C   0  0  0  0  0  0  0  0  0  0  0  0
   26.5427  -20.4498  -16.5352 C   0  0  0  0  0  0  0  0  0  0  0  0
   26.9365  -21.0286  -15.1892 C   0  0  1  0  0  0  0  0  0  0  0  0
   28.3254  -21.5318  -15.1948 C   0  0  0  0  0  0  0  0  0  0  0  0
   29.3269  -20.7704  -14.6455 O   0  0  0  0  0  0  0  0  0  0  0  0
   28.5396  -22.6593  -15.7126 O   0  0  0  0  0  0  0  0  0  0  0  0
  2 10  1  0
  2  1  1  6
  3  2  1  0
  4  3  1  0
  5  4  2  0
  6  5  1  0
  7  8  1  0
  7  6  2  0
  8  9  2  0
  9  4  1  0
 10 12  1  0
 11 10  2  0
 12 13  1  0
 13 14  1  0
 14 16  1  0
 15 14  2  0
 16 20  1  0
 16 17  1  0
 17 18  1  0
 19 18  1  0
 20 21  1  6
 20 19  1  0
 21 22  1  0
 23 21  2  0
M  END
$$$$
