FGP.pdb
     RDKit          3D

 23 24  0  0  1  0  0  0  0  0999 V2000
   28.0853  -22.5743  -12.6917 N   0  0  0  0  0  0  0  0  0  0  0  0
   27.4550  -21.5901  -11.8692 C   0  0  1  0  0  0  0  0  0  0  0  0
   28.3996  -20.4859  -11.4452 C   0  0  0  0  0  0  0  0  0  0  0  0
   29.5168  -21.0012  -10.6314 C   0  0  0  0  0  0  0  0  0  0  0  0
   30.6927  -21.3981  -11.2771 C   0  0  0  0  0  0  0  0  0  0  0  0
   31.7441  -21.8808  -10.5340 C   0  0  0  0  0  0  0  0  0  0  0  0
   31.6091  -21.9610   -9.1619 C   0  0  0  0  0  0  0  0  0  0  0  0
   30.4534  -21.5708   -8.5287 C   0  0  0  0  0  0  0  0  0  0  0  0
   29.3949  -21.0863   -9.2613 C   0  0  0  0  0  0  0  0  0  0  0  0
   26.3082  -21.0120  -12.6162 C   0  0  0  0  0  0  0  0  0  0  0  0
   26.2878  -20.9706  -13.8750 O   0  0  0  0  0  0  0  0  0  0  0  0
   25.1908  -20.4843  -11.9108 N   0  0  0  0  0  0  0  0  0  0  0  0
   24.0514  -19.9908  -12.6202 C   0  0  0  0  0  0  0  0  0  0  0  0
   23.1058  -21.1076  -12.8626 C   0  0  0  0  0  0  0  0  0  0  0  0
   23.4693  -22.3206  -12.7334 O   0  0  0  0  0  0  0  0  0  0  0  0
   21.7746  -20.7882  -13.2456 N   0  0  0  0  0  0  0  0  0  0  0  0
   21.2983  -19.4543  -13.4029 C   0  0  0  0  0  0  0  0  0  0  0  0
   19.8938  -19.5422  -13.8787 C   0  0  0  0  0  0  0  0  0  0  0  0
   19.4732  -20.9264  -13.3810 C   0  0  0  0  0  0  0  0  0  0  0  0
   20.7460  -21.7405  -13.5180 C   0  0  1  0  0  0  0  0  0  0  0  0
   20.8992  -22.2922  -14.8798 C   0  0  0  0  0  0  0  0  0  0  0  0
   20.2618  -23.4607  -15.2159 O   0  0  0  0  0  0  0  0  0  0  0  0
   21.6213  -21.6577  -15.6929 O   0  0  0  0  0  0  0  0  0  0  0  0
  2 10  1  0
  2  1  1  6
  3  2  1  0
  4  3  1  0
  5  4  2  0
  6  5  1  0
  7  8  1  0
  7  6  2  0
  8  9  2  0
  9  4  1  0
 10 12  1  0
 11 10  2  0
 12 13  1  0
 13 14  1  0
 14 16  1  0
 15 14  2  0
 16 20  1  0
 16 17  1  0
 17 18  1  0
 19 18  1  0
 20 21  1  6
 20 19  1  0
 21 22  1  0
 23 21  2  0
M  END
$$$$
