FGP.pdb
     RDKit          3D

 23 24  0  0  1  0  0  0  0  0999 V2000
   24.6685  -17.7977  -16.3452 N   0  0  0  0  0  0  0  0  0  0  0  0
   26.0762  -17.6777  -16.1299 C   0  0  1  0  0  0  0  0  0  0  0  0
   26.5870  -16.2702  -16.3525 C   0  0  0  0  0  0  0  0  0  0  0  0
   26.4814  -15.8649  -17.7670 C   0  0  0  0  0  0  0  0  0  0  0  0
   27.4732  -16.2803  -18.6619 C   0  0  0  0  0  0  0  0  0  0  0  0
   27.3905  -15.9117  -19.9840 C   0  0  0  0  0  0  0  0  0  0  0  0
   26.3236  -15.1366  -20.3943 C   0  0  0  0  0  0  0  0  0  0  0  0
   25.3499  -14.7292  -19.5141 C   0  0  0  0  0  0  0  0  0  0  0  0
   25.4217  -15.0916  -18.1893 C   0  0  0  0  0  0  0  0  0  0  0  0
   26.3820  -18.1101  -14.7418 C   0  0  0  0  0  0  0  0  0  0  0  0
   25.8806  -17.5337  -13.7403 O   0  0  0  0  0  0  0  0  0  0  0  0
   27.2633  -19.2036  -14.5133 N   0  0  0  0  0  0  0  0  0  0  0  0
   27.4680  -19.7070  -13.1905 C   0  0  0  0  0  0  0  0  0  0  0  0
   26.5058  -20.8057  -12.9318 C   0  0  0  0  0  0  0  0  0  0  0  0
   26.2310  -21.6675  -13.8274 O   0  0  0  0  0  0  0  0  0  0  0  0
   25.8934  -20.8733  -11.6507 N   0  0  0  0  0  0  0  0  0  0  0  0
   26.2118  -19.9915  -10.5775 C   0  0  0  0  0  0  0  0  0  0  0  0
   25.3133  -20.3344   -9.4453 C   0  0  0  0  0  0  0  0  0  0  0  0
   24.9565  -21.7907   -9.7495 C   0  0  0  0  0  0  0  0  0  0  0  0
   24.8947  -21.8183  -11.2652 C   0  0  1  0  0  0  0  0  0  0  0  0
   23.5686  -21.4033  -11.7668 C   0  0  0  0  0  0  0  0  0  0  0  0
   22.5338  -22.3053  -11.7804 O   0  0  0  0  0  0  0  0  0  0  0  0
   23.4375  -20.2175  -12.1693 O   0  0  0  0  0  0  0  0  0  0  0  0
  2 10  1  0
  2  1  1  1
  3  2  1  0
  4  3  1  0
  5  4  2  0
  6  5  1  0
  7  8  1  0
  7  6  2  0
  8  9  2  0
  9  4  1  0
 10 12  1  0
 11 10  2  0
 12 13  1  0
 13 14  1  0
 14 16  1  0
 15 14  2  0
 16 20  1  0
 16 17  1  0
 17 18  1  0
 19 18  1  0
 20 21  1  1
 20 19  1  0
 21 22  1  0
 23 21  2  0
M  END
$$$$
