FGP.pdb
     RDKit          3D

 23 24  0  0  1  0  0  0  0  0999 V2000
   25.9984  -21.3882   -7.7486 N   0  0  0  0  0  0  0  0  0  0  0  0
   26.7189  -20.2201   -8.1467 C   0  0  1  0  0  0  0  0  0  0  0  0
   28.1313  -20.1868   -7.6032 C   0  0  0  0  0  0  0  0  0  0  0  0
   28.1559  -19.9108   -6.1543 C   0  0  0  0  0  0  0  0  0  0  0  0
   28.4427  -20.9597   -5.2741 C   0  0  0  0  0  0  0  0  0  0  0  0
   28.4697  -20.7201   -3.9204 C   0  0  0  0  0  0  0  0  0  0  0  0
   28.2115  -19.4424   -3.4644 C   0  0  0  0  0  0  0  0  0  0  0  0
   27.9299  -18.4128   -4.3301 C   0  0  0  0  0  0  0  0  0  0  0  0
   27.8999  -18.6401   -5.6863 C   0  0  0  0  0  0  0  0  0  0  0  0
   26.7497  -20.1650   -9.6310 C   0  0  0  0  0  0  0  0  0  0  0  0
   27.0186  -19.1021  -10.2513 O   0  0  0  0  0  0  0  0  0  0  0  0
   26.4708  -21.3331  -10.3940 N   0  0  0  0  0  0  0  0  0  0  0  0
   26.8693  -21.4174  -11.7649 C   0  0  0  0  0  0  0  0  0  0  0  0
   25.8465  -20.7569  -12.6120 C   0  0  0  0  0  0  0  0  0  0  0  0
   24.6265  -20.7026  -12.2532 O   0  0  0  0  0  0  0  0  0  0  0  0
   26.2648  -20.1821  -13.8431 N   0  0  0  0  0  0  0  0  0  0  0  0
   27.6153  -20.1899  -14.2981 C   0  0  0  0  0  0  0  0  0  0  0  0
   27.6288  -19.5657  -15.6460 C   0  0  0  0  0  0  0  0  0  0  0  0
   26.3692  -18.6980  -15.6096 C   0  0  0  0  0  0  0  0  0  0  0  0
   25.4076  -19.5256  -14.7777 C   0  0  1  0  0  0  0  0  0  0  0  0
   24.6844  -20.5164  -15.6009 C   0  0  0  0  0  0  0  0  0  0  0  0
   25.0564  -21.8371  -15.5586 O   0  0  0  0  0  0  0  0  0  0  0  0
   23.7385  -20.1029  -16.3217 O   0  0  0  0  0  0  0  0  0  0  0  0
  2 10  1  0
  2  1  1  6
  3  2  1  0
  4  3  1  0
  5  4  2  0
  6  5  1  0
  7  8  1  0
  7  6  2  0
  8  9  2  0
  9  4  1  0
 10 12  1  0
 11 10  2  0
 12 13  1  0
 13 14  1  0
 14 16  1  0
 15 14  2  0
 16 20  1  0
 16 17  1  0
 17 18  1  0
 19 18  1  0
 20 21  1  6
 20 19  1  0
 21 22  1  0
 23 21  2  0
M  END
$$$$
