RIQ.pdb
     RDKit          3D

 29 28  0  0  1  0  0  0  0  0999 V2000
   25.5302  -26.1776  -16.5303 N   0  0  0  0  0  0  0  0  0  0  0  0
   26.5331  -25.5624  -17.3083 C   0  0  0  0  0  0  0  0  0  0  0  0
   26.8874  -26.0829  -18.4206 N   0  0  0  0  0  0  0  0  0  0  0  0
   27.1724  -24.3526  -16.8761 N   0  0  0  0  0  0  0  0  0  0  0  0
   26.7799  -23.6665  -15.6551 C   0  0  0  0  0  0  0  0  0  0  0  0
   25.5538  -22.8614  -15.9672 C   0  0  0  0  0  0  0  0  0  0  0  0
   25.0415  -22.0715  -14.7944 C   0  0  0  0  0  0  0  0  0  0  0  0
   26.1523  -21.0782  -14.4274 C   0  0  2  0  0  0  0  0  0  0  0  0
   26.7908  -21.6087  -13.2473 N   0  0  0  0  0  0  0  0  0  0  0  0
   25.6109  -19.7215  -14.2226 C   0  0  0  0  0  0  0  0  0  0  0  0
   24.9799  -19.5044  -13.1565 O   0  0  0  0  0  0  0  0  0  0  0  0
   27.5744  -25.6655  -19.0760 C   0  0  0  0  0  0  0  0  0  0  0  0
   26.6200  -13.8936  -15.8110 C   0  0  0  0  0  0  0  0  0  0  0  0
   25.5988  -14.8715  -15.2481 C   0  0  2  0  0  0  0  0  0  0  0  0
   26.1430  -16.2581  -15.4878 C   0  0  0  0  0  0  0  0  0  0  0  0
   26.3392  -16.4278  -16.9795 C   0  0  2  0  0  0  0  0  0  0  0  0
   25.2350  -17.3329  -14.9407 N   0  0  0  0  0  0  0  0  0  0  0  0
   25.7498  -18.6524  -15.1344 C   0  0  0  0  0  0  0  0  0  0  0  0
   23.9501  -17.2308  -15.7156 O   0  0  0  0  0  0  0  0  0  0  0  0
   23.8564  -17.6559  -16.9036 N   0  0  0  0  0  0  0  0  0  0  0  0
   18.3319  -17.4706  -13.1313 C   0  0  0  0  0  0  0  0  0  0  0  0
   17.9980  -17.3812  -14.4940 O   0  0  0  0  0  0  0  0  0  0  0  0
   16.7875  -17.4650  -14.8556 C   0  0  0  0  0  0  0  0  0  0  0  0
   19.0753  -17.1885  -15.4979 C   0  0  0  0  0  0  0  0  0  0  0  0
   20.4196  -17.1323  -14.7837 C   0  0  1  0  0  0  0  0  0  0  0  0
   21.5208  -16.7584  -15.7821 N   0  0  0  0  0  0  0  0  0  0  0  0
   22.7953  -16.6546  -15.1450 C   0  0  0  0  0  0  0  0  0  0  0  0
   21.1468  -15.4992  -16.4699 O   0  0  0  0  0  0  0  0  0  0  0  0
   20.5336  -15.5594  -17.5631 O   0  0  0  0  0  0  0  0  0  0  0  0
  2  3  2  0
  2  1  1  0
  4  2  1  0
  5  4  1  0
  5  6  1  0
  7  6  1  0
  8  7  1  0
  8  9  1  1
 10 11  2  0
 10  8  1  0
 12 13  1  0
 13 14  1  0
 14 16  1  0
 14 15  1  1
 16 18  1  0
 16 17  1  6
 17 10  1  0
 18 26  1  0
 19 18  2  0
 20 21  1  0
 21 22  2  0
 21 23  1  0
 23 24  1  0
 25 24  1  6
 25 27  1  0
 26 25  1  0
 27 28  2  0
 27 29  1  0
M  END
$$$$
