RIQ.pdb
     RDKit          3D

 29 28  0  0  1  0  0  0  0  0999 V2000
   28.9166  -19.4495  -19.5354 N   0  0  0  0  0  0  0  0  0  0  0  0
   28.5365  -18.0918  -19.4963 C   0  0  0  0  0  0  0  0  0  0  0  0
   28.0419  -17.5371  -20.5362 N   0  0  0  0  0  0  0  0  0  0  0  0
   28.6934  -17.3095  -18.3036 N   0  0  0  0  0  0  0  0  0  0  0  0
   28.7797  -17.9202  -16.9863 C   0  0  0  0  0  0  0  0  0  0  0  0
   27.6268  -18.8704  -16.8560 C   0  0  0  0  0  0  0  0  0  0  0  0
   26.9849  -18.8501  -15.4961 C   0  0  0  0  0  0  0  0  0  0  0  0
   27.8057  -19.8055  -14.6194 C   0  0  2  0  0  0  0  0  0  0  0  0
   28.5912  -20.6069  -15.5263 N   0  0  0  0  0  0  0  0  0  0  0  0
   26.9332  -20.6169  -13.7498 C   0  0  0  0  0  0  0  0  0  0  0  0
   26.3094  -21.5703  -14.2826 O   0  0  0  0  0  0  0  0  0  0  0  0
   27.7581  -16.5413  -20.5962 C   0  0  0  0  0  0  0  0  0  0  0  0
   26.3622  -19.5645   -8.0999 C   0  0  0  0  0  0  0  0  0  0  0  0
   26.0982  -19.5891   -9.5984 C   0  0  2  0  0  0  0  0  0  0  0  0
   26.2550  -21.0213  -10.0465 C   0  0  0  0  0  0  0  0  0  0  0  0
   27.6783  -21.4459   -9.7530 C   0  0  1  0  0  0  0  0  0  0  0  0
   25.9322  -21.2028  -11.5099 N   0  0  0  0  0  0  0  0  0  0  0  0
   26.7485  -20.4010  -12.3667 C   0  0  0  0  0  0  0  0  0  0  0  0
   24.5096  -20.7475  -11.6851 O   0  0  0  0  0  0  0  0  0  0  0  0
   24.2151  -19.5229  -11.8054 N   0  0  0  0  0  0  0  0  0  0  0  0
   19.3868  -21.6115  -14.3925 C   0  0  0  0  0  0  0  0  0  0  0  0
   20.6189  -22.0338  -14.9217 O   0  0  0  0  0  0  0  0  0  0  0  0
   20.7981  -22.0463  -16.1751 C   0  0  0  0  0  0  0  0  0  0  0  0
   21.7007  -22.4625  -13.9990 C   0  0  0  0  0  0  0  0  0  0  0  0
   21.2276  -22.2921  -12.5611 C   0  0  2  0  0  0  0  0  0  0  0  0
   22.0893  -21.2402  -11.8540 N   0  0  0  0  0  0  0  0  0  0  0  0
   23.4445  -21.6725  -11.7223 C   0  0  0  0  0  0  0  0  0  0  0  0
   21.4848  -20.9206  -10.5383 O   0  0  0  0  0  0  0  0  0  0  0  0
   22.0725  -21.2859   -9.4914 O   0  0  0  0  0  0  0  0  0  0  0  0
  2  3  2  0
  2  1  1  0
  4  2  1  0
  5  4  1  0
  5  6  1  0
  7  6  1  0
  8  7  1  0
  8  9  1  6
 10 11  2  0
 10  8  1  0
 12 13  1  0
 13 14  1  0
 14 16  1  0
 14 15  1  1
 16 18  1  0
 16 17  1  6
 17 10  1  0
 18 26  1  0
 19 18  2  0
 20 21  1  0
 21 22  2  0
 21 23  1  0
 23 24  1  0
 25 24  1  6
 25 27  1  0
 26 25  1  0
 27 28  2  0
 27 29  1  0
M  END
$$$$
