RIQ.pdb
     RDKit          3D

 29 28  0  0  1  0  0  0  0  0999 V2000
   16.2954  -21.0369  -12.7674 N   0  0  0  0  0  0  0  0  0  0  0  0
   17.0101  -21.9696  -11.9872 C   0  0  0  0  0  0  0  0  0  0  0  0
   16.3795  -22.7980  -11.2457 N   0  0  0  0  0  0  0  0  0  0  0  0
   18.4443  -22.0113  -12.0060 N   0  0  0  0  0  0  0  0  0  0  0  0
   19.2301  -21.1397  -12.8656 C   0  0  0  0  0  0  0  0  0  0  0  0
   19.3987  -21.8403  -14.1808 C   0  0  0  0  0  0  0  0  0  0  0  0
   20.7923  -21.7416  -14.7374 C   0  0  0  0  0  0  0  0  0  0  0  0
   21.7369  -22.1825  -13.6112 C   0  0  2  0  0  0  0  0  0  0  0  0
   20.9084  -22.3774  -12.4462 N   0  0  0  0  0  0  0  0  0  0  0  0
   22.8071  -21.1914  -13.3913 C   0  0  0  0  0  0  0  0  0  0  0  0
   22.4776  -20.0835  -12.8954 O   0  0  0  0  0  0  0  0  0  0  0  0
   16.8286  -23.5213  -10.6533 C   0  0  0  0  0  0  0  0  0  0  0  0
   27.3199  -21.9355  -10.7291 C   0  0  0  0  0  0  0  0  0  0  0  0
   26.0688  -21.3167  -11.3356 C   0  0  2  0  0  0  0  0  0  0  0  0
   26.3999  -20.9754  -12.7675 C   0  0  0  0  0  0  0  0  0  0  0  0
   27.5329  -19.9711  -12.7547 C   0  0  2  0  0  0  0  0  0  0  0  0
   25.2085  -20.4302  -13.5172 N   0  0  0  0  0  0  0  0  0  0  0  0
   24.1703  -21.3963  -13.6966 C   0  0  0  0  0  0  0  0  0  0  0  0
   25.7111  -20.0481  -14.8822 O   0  0  0  0  0  0  0  0  0  0  0  0
   26.0321  -20.9216  -15.7394 N   0  0  0  0  0  0  0  0  0  0  0  0
   22.5405  -15.4291  -17.0383 C   0  0  0  0  0  0  0  0  0  0  0  0
   23.1151  -15.9097  -18.2279 O   0  0  0  0  0  0  0  0  0  0  0  0
   22.6927  -15.4950  -19.3472 C   0  0  0  0  0  0  0  0  0  0  0  0
   24.2165  -16.9034  -18.1566 C   0  0  0  0  0  0  0  0  0  0  0  0
   24.4524  -17.2841  -16.7006 C   0  0  2  0  0  0  0  0  0  0  0  0
   25.6183  -18.2746  -16.6071 N   0  0  0  0  0  0  0  0  0  0  0  0
   25.8444  -18.6952  -15.2607 C   0  0  0  0  0  0  0  0  0  0  0  0
   26.8293  -17.6579  -17.2001 O   0  0  0  0  0  0  0  0  0  0  0  0
   27.1869  -16.5191  -16.8124 O   0  0  0  0  0  0  0  0  0  0  0  0
  2  3  2  0
  2  1  1  0
  4  2  1  0
  5  4  1  0
  5  6  1  0
  7  6  1  0
  8  7  1  0
  8  9  1  1
 10 11  2  0
 10  8  1  0
 12 13  1  0
 13 14  1  0
 14 16  1  0
 14 15  1  6
 16 18  1  0
 16 17  1  1
 17 10  1  0
 18 26  1  0
 19 18  2  0
 20 21  1  0
 21 22  2  0
 21 23  1  0
 23 24  1  0
 25 24  1  6
 25 27  1  0
 26 25  1  0
 27 28  2  0
 27 29  1  0
M  END
$$$$
