RIQ.pdb
     RDKit          3D

 29 28  0  0  1  0  0  0  0  0999 V2000
   21.6515  -26.7307  -12.7442 N   0  0  0  0  0  0  0  0  0  0  0  0
   21.1151  -25.4589  -13.0344 C   0  0  0  0  0  0  0  0  0  0  0  0
   19.9162  -25.1783  -12.6916 N   0  0  0  0  0  0  0  0  0  0  0  0
   21.8918  -24.4611  -13.7128 N   0  0  0  0  0  0  0  0  0  0  0  0
   23.0488  -24.8046  -14.5249 C   0  0  0  0  0  0  0  0  0  0  0  0
   24.2183  -24.0348  -13.9877 C   0  0  0  0  0  0  0  0  0  0  0  0
   23.9095  -22.5879  -13.7172 C   0  0  0  0  0  0  0  0  0  0  0  0
   25.2532  -21.9113  -13.4144 C   0  0  2  0  0  0  0  0  0  0  0  0
   25.6162  -22.3203  -12.0793 N   0  0  0  0  0  0  0  0  0  0  0  0
   25.1588  -20.4461  -13.5569 C   0  0  0  0  0  0  0  0  0  0  0  0
   24.6366  -19.8044  -12.6096 O   0  0  0  0  0  0  0  0  0  0  0  0
   19.4454  -24.2728  -12.8764 C   0  0  0  0  0  0  0  0  0  0  0  0
   28.9580  -18.0427  -16.0641 C   0  0  0  0  0  0  0  0  0  0  0  0
   27.9247  -17.8714  -14.9600 C   0  0  2  0  0  0  0  0  0  0  0  0
   26.5895  -17.6815  -15.6365 C   0  0  0  0  0  0  0  0  0  0  0  0
   26.3662  -16.1945  -15.8130 C   0  0  2  0  0  0  0  0  0  0  0  0
   25.4575  -18.3048  -14.8561 N   0  0  0  0  0  0  0  0  0  0  0  0
   25.6111  -19.7147  -14.6768 C   0  0  0  0  0  0  0  0  0  0  0  0
   24.2143  -18.0859  -15.6735 O   0  0  0  0  0  0  0  0  0  0  0  0
   23.9934  -18.7409  -16.7332 N   0  0  0  0  0  0  0  0  0  0  0  0
   18.2089  -18.3438  -16.1516 C   0  0  0  0  0  0  0  0  0  0  0  0
   18.6628  -17.2757  -15.3581 O   0  0  0  0  0  0  0  0  0  0  0  0
   18.2548  -17.1556  -14.1655 C   0  0  0  0  0  0  0  0  0  0  0  0
   19.6205  -16.2963  -15.9318 C   0  0  0  0  0  0  0  0  0  0  0  0
   20.9252  -16.3553  -15.1479 C   0  0  2  0  0  0  0  0  0  0  0  0
   22.0198  -16.9910  -16.0121 N   0  0  0  0  0  0  0  0  0  0  0  0
   23.2426  -17.1379  -15.2882 C   0  0  0  0  0  0  0  0  0  0  0  0
   22.2029  -16.1797  -17.2397 O   0  0  0  0  0  0  0  0  0  0  0  0
   23.0462  -15.2504  -17.2373 O   0  0  0  0  0  0  0  0  0  0  0  0
  2  3  2  0
  2  1  1  0
  4  2  1  0
  5  4  1  0
  5  6  1  0
  7  6  1  0
  8  7  1  0
  8  9  1  1
 10 11  2  0
 10  8  1  0
 12 13  1  0
 13 14  1  0
 14 16  1  0
 14 15  1  6
 16 18  1  0
 16 17  1  1
 17 10  1  0
 18 26  1  0
 19 18  2  0
 20 21  1  0
 21 22  2  0
 21 23  1  0
 23 24  1  0
 25 24  1  1
 25 27  1  0
 26 25  1  0
 27 28  2  0
 27 29  1  0
M  END
$$$$
