RIQ.pdb
     RDKit          3D

 29 28  0  0  1  0  0  0  0  0999 V2000
   25.1767  -18.9671  -20.2952 N   0  0  0  0  0  0  0  0  0  0  0  0
   24.9445  -18.5723  -18.9612 C   0  0  0  0  0  0  0  0  0  0  0  0
   23.8136  -18.0776  -18.6295 N   0  0  0  0  0  0  0  0  0  0  0  0
   25.9588  -18.7142  -17.9561 N   0  0  0  0  0  0  0  0  0  0  0  0
   27.2644  -19.2825  -18.2528 C   0  0  0  0  0  0  0  0  0  0  0  0
   27.8852  -19.6851  -16.9484 C   0  0  0  0  0  0  0  0  0  0  0  0
   26.9493  -20.4450  -16.0491 C   0  0  0  0  0  0  0  0  0  0  0  0
   27.7529  -20.7936  -14.7890 C   0  0  2  0  0  0  0  0  0  0  0  0
   28.7203  -21.7853  -15.1920 N   0  0  0  0  0  0  0  0  0  0  0  0
   26.8705  -21.2644  -13.7047 C   0  0  0  0  0  0  0  0  0  0  0  0
   25.9793  -22.0998  -14.0045 O   0  0  0  0  0  0  0  0  0  0  0  0
   23.5720  -17.7408  -17.6787 C   0  0  0  0  0  0  0  0  0  0  0  0
   26.0642  -20.5919   -7.5634 C   0  0  0  0  0  0  0  0  0  0  0  0
   25.5178  -21.1502   -8.8694 C   0  0  2  0  0  0  0  0  0  0  0  0
   26.4492  -20.6921   -9.9644 C   0  0  0  0  0  0  0  0  0  0  0  0
   26.4253  -19.1785   -9.9905 C   0  0  2  0  0  0  0  0  0  0  0  0
   26.0719  -21.2577  -11.3121 N   0  0  0  0  0  0  0  0  0  0  0  0
   26.9542  -20.8460  -12.3588 C   0  0  0  0  0  0  0  0  0  0  0  0
   24.7076  -20.7101  -11.6296 O   0  0  0  0  0  0  0  0  0  0  0  0
   24.5467  -19.5199  -12.0275 N   0  0  0  0  0  0  0  0  0  0  0  0
   20.5004  -23.6346  -14.7970 C   0  0  0  0  0  0  0  0  0  0  0  0
   19.7461  -22.5111  -14.4156 O   0  0  0  0  0  0  0  0  0  0  0  0
   18.5907  -22.3304  -14.9009 C   0  0  0  0  0  0  0  0  0  0  0  0
   20.3171  -21.5451  -13.4427 C   0  0  0  0  0  0  0  0  0  0  0  0
   21.6848  -22.0406  -12.9909 C   0  0  1  0  0  0  0  0  0  0  0  0
   22.2812  -21.0592  -11.9758 N   0  0  0  0  0  0  0  0  0  0  0  0
   23.5502  -21.5061  -11.4951 C   0  0  0  0  0  0  0  0  0  0  0  0
   21.3153  -20.8572  -10.8690 O   0  0  0  0  0  0  0  0  0  0  0  0
   21.4998  -21.4544   -9.7809 O   0  0  0  0  0  0  0  0  0  0  0  0
  2  3  2  0
  2  1  1  0
  4  2  1  0
  5  4  1  0
  5  6  1  0
  7  6  1  0
  8  7  1  0
  8  9  1  6
 10 11  2  0
 10  8  1  0
 12 13  1  0
 13 14  1  0
 14 16  1  0
 14 15  1  6
 16 18  1  0
 16 17  1  6
 17 10  1  0
 18 26  1  0
 19 18  2  0
 20 21  1  0
 21 22  2  0
 21 23  1  0
 23 24  1  0
 25 24  1  6
 25 27  1  0
 26 25  1  0
 27 28  2  0
 27 29  1  0
M  END
$$$$
