RIQ.pdb
     RDKit          3D

 29 28  0  0  1  0  0  0  0  0999 V2000
   27.0591  -20.6847  -21.3204 N   0  0  0  0  0  0  0  0  0  0  0  0
   25.7077  -20.4095  -21.0250 C   0  0  0  0  0  0  0  0  0  0  0  0
   24.7958  -20.7100  -21.8687 N   0  0  0  0  0  0  0  0  0  0  0  0
   25.3276  -19.7934  -19.7861 N   0  0  0  0  0  0  0  0  0  0  0  0
   26.2908  -19.5290  -18.7286 C   0  0  0  0  0  0  0  0  0  0  0  0
   26.4476  -20.7937  -17.9382 C   0  0  0  0  0  0  0  0  0  0  0  0
   25.4359  -20.9396  -16.8350 C   0  0  0  0  0  0  0  0  0  0  0  0
   26.2023  -20.7400  -15.5204 C   0  0  2  0  0  0  0  0  0  0  0  0
   27.4151  -21.5120  -15.6421 N   0  0  0  0  0  0  0  0  0  0  0  0
   25.3855  -21.1393  -14.3588 C   0  0  0  0  0  0  0  0  0  0  0  0
   24.5355  -22.0497  -14.5337 O   0  0  0  0  0  0  0  0  0  0  0  0
   23.7810  -20.5525  -21.7231 C   0  0  0  0  0  0  0  0  0  0  0  0
   26.6538  -22.0473  -10.4347 C   0  0  0  0  0  0  0  0  0  0  0  0
   26.5013  -20.5359  -10.3421 C   0  0  1  0  0  0  0  0  0  0  0  0
   25.0652  -20.2199  -10.6799 C   0  0  0  0  0  0  0  0  0  0  0  0
   24.2042  -20.6817   -9.5233 C   0  0  2  0  0  0  0  0  0  0  0  0
   24.6235  -20.8684  -11.9696 N   0  0  0  0  0  0  0  0  0  0  0  0
   25.4890  -20.5747  -13.0687 C   0  0  0  0  0  0  0  0  0  0  0  0
   23.2735  -20.2882  -12.2897 O   0  0  0  0  0  0  0  0  0  0  0  0
   23.1502  -19.2436  -12.9929 N   0  0  0  0  0  0  0  0  0  0  0  0
   20.8691  -22.9021  -16.1911 C   0  0  0  0  0  0  0  0  0  0  0  0
   19.7065  -22.1667  -15.9013 O   0  0  0  0  0  0  0  0  0  0  0  0
   18.7287  -22.1861  -16.7054 C   0  0  0  0  0  0  0  0  0  0  0  0
   19.6396  -21.3717  -14.6486 C   0  0  0  0  0  0  0  0  0  0  0  0
   20.9658  -21.4923  -13.9089 C   0  0  1  0  0  0  0  0  0  0  0  0
   20.8641  -20.7958  -12.5475 N   0  0  0  0  0  0  0  0  0  0  0  0
   22.0877  -20.8892  -11.8161 C   0  0  0  0  0  0  0  0  0  0  0  0
   19.7268  -21.3716  -11.7901 O   0  0  0  0  0  0  0  0  0  0  0  0
   19.9267  -22.3649  -11.0496 O   0  0  0  0  0  0  0  0  0  0  0  0
  2  3  2  0
  2  1  1  0
  4  2  1  0
  5  4  1  0
  5  6  1  0
  7  6  1  0
  8  7  1  0
  8  9  1  6
 10 11  2  0
 10  8  1  0
 12 13  1  0
 13 14  1  0
 14 16  1  0
 14 15  1  1
 16 18  1  0
 16 17  1  6
 17 10  1  0
 18 26  1  0
 19 18  2  0
 20 21  1  0
 21 22  2  0
 21 23  1  0
 23 24  1  0
 25 24  1  6
 25 27  1  0
 26 25  1  0
 27 28  2  0
 27 29  1  0
M  END
$$$$
