RIQ.pdb
     RDKit          3D

 29 28  0  0  1  0  0  0  0  0999 V2000
   26.1029  -25.5069  -16.2619 N   0  0  0  0  0  0  0  0  0  0  0  0
   26.4553  -25.8030  -17.5951 C   0  0  0  0  0  0  0  0  0  0  0  0
   27.3480  -26.6847  -17.8387 N   0  0  0  0  0  0  0  0  0  0  0  0
   25.8286  -25.1306  -18.6971 N   0  0  0  0  0  0  0  0  0  0  0  0
   24.7863  -24.1351  -18.5013 C   0  0  0  0  0  0  0  0  0  0  0  0
   25.4627  -22.8157  -18.2766 C   0  0  0  0  0  0  0  0  0  0  0  0
   25.7441  -22.5261  -16.8278 C   0  0  0  0  0  0  0  0  0  0  0  0
   24.6469  -21.5596  -16.3620 C   0  0  2  0  0  0  0  0  0  0  0  0
   25.2642  -20.2576  -16.2882 N   0  0  0  0  0  0  0  0  0  0  0  0
   24.0655  -21.9895  -15.0762 C   0  0  0  0  0  0  0  0  0  0  0  0
   23.5543  -23.1376  -15.0266 O   0  0  0  0  0  0  0  0  0  0  0  0
   27.6233  -27.0004  -18.7876 C   0  0  0  0  0  0  0  0  0  0  0  0
   24.3484  -20.8213   -9.0413 C   0  0  0  0  0  0  0  0  0  0  0  0
   23.5343  -21.4587  -10.1580 C   0  0  2  0  0  0  0  0  0  0  0  0
   24.1469  -21.0043  -11.4598 C   0  0  0  0  0  0  0  0  0  0  0  0
   24.0806  -19.4922  -11.5006 C   0  0  2  0  0  0  0  0  0  0  0  0
   23.4543  -21.6039  -12.6596 N   0  0  0  0  0  0  0  0  0  0  0  0
   24.0416  -21.2072  -13.9010 C   0  0  0  0  0  0  0  0  0  0  0  0
   22.0457  -21.0774  -12.6372 O   0  0  0  0  0  0  0  0  0  0  0  0
   21.7849  -19.8692  -12.9077 N   0  0  0  0  0  0  0  0  0  0  0  0
   16.9116  -24.4099  -13.8033 C   0  0  0  0  0  0  0  0  0  0  0  0
   16.4162  -23.0965  -13.7249 O   0  0  0  0  0  0  0  0  0  0  0  0
   15.2360  -22.8418  -14.1062 C   0  0  0  0  0  0  0  0  0  0  0  0
   17.2880  -22.0185  -13.1927 C   0  0  0  0  0  0  0  0  0  0  0  0
   18.6987  -22.5627  -13.0072 C   0  0  2  0  0  0  0  0  0  0  0  0
   19.6078  -21.4634  -12.4465 N   0  0  0  0  0  0  0  0  0  0  0  0
   20.9568  -21.9140  -12.3125 C   0  0  0  0  0  0  0  0  0  0  0  0
   19.0569  -20.9884  -11.1544 O   0  0  0  0  0  0  0  0  0  0  0  0
   19.3192  -21.6277  -10.1069 O   0  0  0  0  0  0  0  0  0  0  0  0
  2  3  2  0
  2  1  1  0
  4  2  1  0
  5  4  1  0
  5  6  1  0
  7  6  1  0
  8  7  1  0
  8  9  1  1
 10 11  2  0
 10  8  1  0
 12 13  1  0
 13 14  1  0
 14 16  1  0
 14 15  1  6
 16 18  1  0
 16 17  1  6
 17 10  1  0
 18 26  1  0
 19 18  2  0
 20 21  1  0
 21 22  2  0
 21 23  1  0
 23 24  1  0
 25 24  1  6
 25 27  1  0
 26 25  1  0
 27 28  2  0
 27 29  1  0
M  END
$$$$
