RIQ.pdb
     RDKit          3D

 29 28  0  0  1  0  0  0  0  0999 V2000
   27.7677  -26.0093  -22.1914 N   0  0  0  0  0  0  0  0  0  0  0  0
   28.7838  -26.3401  -21.2708 C   0  0  0  0  0  0  0  0  0  0  0  0
   29.5767  -27.3119  -21.5172 N   0  0  0  0  0  0  0  0  0  0  0  0
   28.9508  -25.6036  -20.0507 N   0  0  0  0  0  0  0  0  0  0  0  0
   28.0732  -24.5015  -19.6887 C   0  0  0  0  0  0  0  0  0  0  0  0
   26.7949  -25.0955  -19.1770 C   0  0  0  0  0  0  0  0  0  0  0  0
   26.0591  -24.1991  -18.2194 C   0  0  0  0  0  0  0  0  0  0  0  0
   27.0450  -23.8780  -17.0880 C   0  0  2  0  0  0  0  0  0  0  0  0
   27.4074  -25.1449  -16.5003 N   0  0  0  0  0  0  0  0  0  0  0  0
   26.4533  -22.9441  -16.1114 C   0  0  0  0  0  0  0  0  0  0  0  0
   25.9013  -23.4405  -15.0961 O   0  0  0  0  0  0  0  0  0  0  0  0
   30.3521  -27.6133  -20.8978 C   0  0  0  0  0  0  0  0  0  0  0  0
   28.9304  -19.7439  -16.1205 C   0  0  0  0  0  0  0  0  0  0  0  0
   28.1444  -19.4424  -14.8527 C   0  0  2  0  0  0  0  0  0  0  0  0
   26.6981  -19.3006  -15.2583 C   0  0  0  0  0  0  0  0  0  0  0  0
   26.0435  -18.3213  -14.3070 C   0  0  2  0  0  0  0  0  0  0  0  0
   25.9689  -20.6223  -15.2529 N   0  0  0  0  0  0  0  0  0  0  0  0
   26.4620  -21.5375  -16.2342 C   0  0  0  0  0  0  0  0  0  0  0  0
   24.5388  -20.3136  -15.6011 O   0  0  0  0  0  0  0  0  0  0  0  0
   24.2000  -19.9711  -16.7711 N   0  0  0  0  0  0  0  0  0  0  0  0
   18.7435  -23.1836  -13.3252 C   0  0  0  0  0  0  0  0  0  0  0  0
   19.9588  -22.5617  -12.9895 O   0  0  0  0  0  0  0  0  0  0  0  0
   20.2664  -22.3889  -11.7734 C   0  0  0  0  0  0  0  0  0  0  0  0
   20.8718  -22.1127  -14.0714 C   0  0  0  0  0  0  0  0  0  0  0  0
   21.2012  -20.6395  -13.8678 C   0  0  2  0  0  0  0  0  0  0  0  0
   22.1483  -20.1633  -14.9747 N   0  0  0  0  0  0  0  0  0  0  0  0
   23.5159  -20.3944  -14.6323 C   0  0  0  0  0  0  0  0  0  0  0  0
   21.8874  -18.7309  -15.2554 O   0  0  0  0  0  0  0  0  0  0  0  0
   22.5836  -17.8593  -14.6807 O   0  0  0  0  0  0  0  0  0  0  0  0
  2  3  2  0
  2  1  1  0
  4  2  1  0
  5  4  1  0
  5  6  1  0
  7  6  1  0
  8  7  1  0
  8  9  1  1
 10 11  2  0
 10  8  1  0
 12 13  1  0
 13 14  1  0
 14 16  1  0
 14 15  1  6
 16 18  1  0
 16 17  1  1
 17 10  1  0
 18 26  1  0
 19 18  2  0
 20 21  1  0
 21 22  2  0
 21 23  1  0
 23 24  1  0
 25 24  1  6
 25 27  1  0
 26 25  1  0
 27 28  2  0
 27 29  1  0
M  END
$$$$
