RIQ.pdb
     RDKit          3D

 29 28  0  0  1  0  0  0  0  0999 V2000
   30.4747  -26.0502  -16.6068 N   0  0  0  0  0  0  0  0  0  0  0  0
   29.3098  -26.7752  -16.9336 C   0  0  0  0  0  0  0  0  0  0  0  0
   29.4057  -27.9634  -17.3949 N   0  0  0  0  0  0  0  0  0  0  0  0
   28.0048  -26.2046  -16.7586 N   0  0  0  0  0  0  0  0  0  0  0  0
   27.8061  -24.9187  -16.1084 C   0  0  0  0  0  0  0  0  0  0  0  0
   27.3142  -23.9600  -17.1514 C   0  0  0  0  0  0  0  0  0  0  0  0
   25.9056  -23.4889  -16.9149 C   0  0  0  0  0  0  0  0  0  0  0  0
   25.7629  -23.3058  -15.3979 C   0  0  2  0  0  0  0  0  0  0  0  0
   24.9298  -24.3909  -14.9396 N   0  0  0  0  0  0  0  0  0  0  0  0
   25.2059  -21.9801  -15.0689 C   0  0  0  0  0  0  0  0  0  0  0  0
   24.1109  -21.9490  -14.4509 O   0  0  0  0  0  0  0  0  0  0  0  0
   28.6011  -28.5565  -17.6717 C   0  0  0  0  0  0  0  0  0  0  0  0
   28.5526  -18.7718  -16.0544 C   0  0  0  0  0  0  0  0  0  0  0  0
   27.6440  -18.5085  -14.8623 C   0  0  2  0  0  0  0  0  0  0  0  0
   26.2477  -18.3348  -15.4069 C   0  0  0  0  0  0  0  0  0  0  0  0
   25.7191  -17.0050  -14.9122 C   0  0  2  0  0  0  0  0  0  0  0  0
   25.3293  -19.4617  -15.0003 N   0  0  0  0  0  0  0  0  0  0  0  0
   25.8117  -20.7476  -15.3968 C   0  0  0  0  0  0  0  0  0  0  0  0
   24.0304  -19.2246  -15.7203 O   0  0  0  0  0  0  0  0  0  0  0  0
   23.9357  -19.3488  -16.9758 N   0  0  0  0  0  0  0  0  0  0  0  0
   18.7184  -22.1701  -15.3141 C   0  0  0  0  0  0  0  0  0  0  0  0
   19.7054  -21.6937  -14.4336 O   0  0  0  0  0  0  0  0  0  0  0  0
   19.6084  -21.9209  -13.1917 C   0  0  0  0  0  0  0  0  0  0  0  0
   20.8559  -20.9257  -14.9740 C   0  0  0  0  0  0  0  0  0  0  0  0
   20.4865  -19.4491  -15.0348 C   0  0  2  0  0  0  0  0  0  0  0  0
   21.6202  -18.6590  -15.6977 N   0  0  0  0  0  0  0  0  0  0  0  0
   22.8628  -18.8530  -15.0201 C   0  0  0  0  0  0  0  0  0  0  0  0
   21.2450  -17.2257  -15.7561 O   0  0  0  0  0  0  0  0  0  0  0  0
   21.8133  -16.4138  -14.9862 O   0  0  0  0  0  0  0  0  0  0  0  0
  2  3  2  0
  2  1  1  0
  4  2  1  0
  5  4  1  0
  5  6  1  0
  7  6  1  0
  8  7  1  0
  8  9  1  6
 10 11  2  0
 10  8  1  0
 12 13  1  0
 13 14  1  0
 14 16  1  0
 14 15  1  6
 16 18  1  0
 16 17  1  1
 17 10  1  0
 18 26  1  0
 19 18  2  0
 20 21  1  0
 21 22  2  0
 21 23  1  0
 23 24  1  0
 25 24  1  6
 25 27  1  0
 26 25  1  0
 27 28  2  0
 27 29  1  0
M  END
$$$$
