RIQ.pdb
     RDKit          3D

 29 28  0  0  1  0  0  0  0  0999 V2000
   22.6651  -17.4092  -16.3384 N   0  0  0  0  0  0  0  0  0  0  0  0
   23.5023  -17.2000  -17.4541 C   0  0  0  0  0  0  0  0  0  0  0  0
   23.3919  -16.1292  -18.1433 N   0  0  0  0  0  0  0  0  0  0  0  0
   24.4861  -18.1714  -17.8384 N   0  0  0  0  0  0  0  0  0  0  0  0
   25.0854  -19.0841  -16.8773 C   0  0  0  0  0  0  0  0  0  0  0  0
   26.5083  -18.6546  -16.6779 C   0  0  0  0  0  0  0  0  0  0  0  0
   26.8620  -18.4041  -15.2378 C   0  0  0  0  0  0  0  0  0  0  0  0
   27.7718  -19.5639  -14.8109 C   0  0  2  0  0  0  0  0  0  0  0  0
   27.9256  -20.4023  -15.9751 N   0  0  0  0  0  0  0  0  0  0  0  0
   27.2090  -20.2886  -13.6559 C   0  0  0  0  0  0  0  0  0  0  0  0
   26.4213  -21.2392  -13.8962 O   0  0  0  0  0  0  0  0  0  0  0  0
   23.9046  -15.9382  -19.0244 C   0  0  0  0  0  0  0  0  0  0  0  0
   29.4057  -21.8084  -10.0884 C   0  0  0  0  0  0  0  0  0  0  0  0
   29.0475  -20.3391   -9.9184 C   0  0  1  0  0  0  0  0  0  0  0  0
   27.5418  -20.2592   -9.8674 C   0  0  0  0  0  0  0  0  0  0  0  0
   27.0671  -21.1621   -8.7485 C   0  0  2  0  0  0  0  0  0  0  0  0
   26.9022  -20.6484  -11.1782 N   0  0  0  0  0  0  0  0  0  0  0  0
   27.4903  -19.9927  -12.3042 C   0  0  0  0  0  0  0  0  0  0  0  0
   25.4683  -20.2027  -11.0938 O   0  0  0  0  0  0  0  0  0  0  0  0
   25.1499  -19.0828  -10.5987 N   0  0  0  0  0  0  0  0  0  0  0  0
   21.3813  -20.7290  -15.4916 C   0  0  0  0  0  0  0  0  0  0  0  0
   20.5770  -20.1670  -14.4847 O   0  0  0  0  0  0  0  0  0  0  0  0
   19.4102  -19.7601  -14.7605 C   0  0  0  0  0  0  0  0  0  0  0  0
   21.1090  -20.0570  -13.1025 C   0  0  0  0  0  0  0  0  0  0  0  0
   22.5172  -20.6365  -13.0616 C   0  0  2  0  0  0  0  0  0  0  0  0
   23.0764  -20.5372  -11.6380 N   0  0  0  0  0  0  0  0  0  0  0  0
   24.4190  -21.0199  -11.5655 C   0  0  0  0  0  0  0  0  0  0  0  0
   22.1795  -21.2682  -10.7108 O   0  0  0  0  0  0  0  0  0  0  0  0
   22.5041  -22.4181  -10.3269 O   0  0  0  0  0  0  0  0  0  0  0  0
  2  3  2  0
  2  1  1  0
  4  2  1  0
  5  4  1  0
  5  6  1  0
  7  6  1  0
  8  7  1  0
  8  9  1  6
 10 11  2  0
 10  8  1  0
 12 13  1  0
 13 14  1  0
 14 16  1  0
 14 15  1  1
 16 18  1  0
 16 17  1  6
 17 10  1  0
 18 26  1  0
 19 18  2  0
 20 21  1  0
 21 22  2  0
 21 23  1  0
 23 24  1  0
 25 24  1  6
 25 27  1  0
 26 25  1  0
 27 28  2  0
 27 29  1  0
M  END
$$$$
