RIQ.pdb
     RDKit          3D

 29 28  0  0  1  0  0  0  0  0999 V2000
   25.1923  -18.6772  -20.0199 N   0  0  0  0  0  0  0  0  0  0  0  0
   25.4024  -17.8357  -18.9076 C   0  0  0  0  0  0  0  0  0  0  0  0
   25.4521  -16.5683  -19.0663 N   0  0  0  0  0  0  0  0  0  0  0  0
   25.5634  -18.3741  -17.5873 N   0  0  0  0  0  0  0  0  0  0  0  0
   25.5222  -19.8047  -17.3274 C   0  0  0  0  0  0  0  0  0  0  0  0
   24.1187  -20.1472  -16.9250 C   0  0  0  0  0  0  0  0  0  0  0  0
   23.7766  -19.7207  -15.5239 C   0  0  0  0  0  0  0  0  0  0  0  0
   23.2393  -20.9705  -14.8136 C   0  0  2  0  0  0  0  0  0  0  0  0
   22.5555  -21.7424  -15.8227 N   0  0  0  0  0  0  0  0  0  0  0  0
   22.3653  -20.6087  -13.6817 C   0  0  0  0  0  0  0  0  0  0  0  0
   22.8669  -19.9129  -12.7619 O   0  0  0  0  0  0  0  0  0  0  0  0
   25.6372  -15.8848  -18.3085 C   0  0  0  0  0  0  0  0  0  0  0  0
   18.8778  -17.1804  -13.9024 C   0  0  0  0  0  0  0  0  0  0  0  0
   19.9271  -18.1932  -13.4674 C   0  0  2  0  0  0  0  0  0  0  0  0
   19.1848  -19.4343  -13.0373 C   0  0  0  0  0  0  0  0  0  0  0  0
   18.2040  -19.0363  -11.9547 C   0  0  2  0  0  0  0  0  0  0  0  0
   20.1147  -20.5174  -12.5465 N   0  0  0  0  0  0  0  0  0  0  0  0
   21.0105  -20.9862  -13.5571 C   0  0  0  0  0  0  0  0  0  0  0  0
   19.2388  -21.6730  -12.1475 O   0  0  0  0  0  0  0  0  0  0  0  0
   18.6505  -22.3880  -13.0097 N   0  0  0  0  0  0  0  0  0  0  0  0
   18.4592  -24.0359   -6.2920 C   0  0  0  0  0  0  0  0  0  0  0  0
   17.9377  -25.0497   -7.1147 O   0  0  0  0  0  0  0  0  0  0  0  0
   17.4856  -26.1137   -6.5982 C   0  0  0  0  0  0  0  0  0  0  0  0
   17.9235  -24.8589   -8.5874 C   0  0  0  0  0  0  0  0  0  0  0  0
   18.5716  -23.5221   -8.9243 C   0  0  2  0  0  0  0  0  0  0  0  0
   18.3712  -23.2100  -10.4114 N   0  0  0  0  0  0  0  0  0  0  0  0
   19.0389  -22.0054  -10.7907 C   0  0  0  0  0  0  0  0  0  0  0  0
   16.9189  -23.1481  -10.7041 O   0  0  0  0  0  0  0  0  0  0  0  0
   16.3061  -22.0672  -10.5282 O   0  0  0  0  0  0  0  0  0  0  0  0
  2  3  2  0
  2  1  1  0
  4  2  1  0
  5  4  1  0
  5  6  1  0
  7  6  1  0
  8  7  1  0
  8  9  1  6
 10 11  2  0
 10  8  1  0
 12 13  1  0
 13 14  1  0
 14 16  1  0
 14 15  1  6
 16 18  1  0
 16 17  1  1
 17 10  1  0
 18 26  1  0
 19 18  2  0
 20 21  1  0
 21 22  2  0
 21 23  1  0
 23 24  1  0
 25 24  1  6
 25 27  1  0
 26 25  1  0
 27 28  2  0
 27 29  1  0
M  END
$$$$
