RIQ.pdb
     RDKit          3D

 29 28  0  0  1  0  0  0  0  0999 V2000
   17.1711  -16.7364  -14.9844 N   0  0  0  0  0  0  0  0  0  0  0  0
   17.6069  -15.7451  -15.8882 C   0  0  0  0  0  0  0  0  0  0  0  0
   18.5102  -16.0194  -16.7498 N   0  0  0  0  0  0  0  0  0  0  0  0
   17.0542  -14.4211  -15.8633 N   0  0  0  0  0  0  0  0  0  0  0  0
   16.0754  -14.0124  -14.8680 C   0  0  0  0  0  0  0  0  0  0  0  0
   15.5886  -12.6469  -15.2519 C   0  0  0  0  0  0  0  0  0  0  0  0
   15.8078  -11.6109  -14.1840 C   0  0  0  0  0  0  0  0  0  0  0  0
   14.5287  -11.5904  -13.3364 C   0  0  2  0  0  0  0  0  0  0  0  0
   13.4396  -11.8458  -14.2477 N   0  0  0  0  0  0  0  0  0  0  0  0
   14.3833  -10.3106  -12.6175 C   0  0  0  0  0  0  0  0  0  0  0  0
   13.9388   -9.3290  -13.2662 O   0  0  0  0  0  0  0  0  0  0  0  0
   18.8433  -15.3676  -17.4846 C   0  0  0  0  0  0  0  0  0  0  0  0
   11.7368   -9.7954   -8.0921 C   0  0  0  0  0  0  0  0  0  0  0  0
   12.3332   -9.5180   -9.4645 C   0  0  2  0  0  0  0  0  0  0  0  0
   13.7607   -9.0837   -9.2412 C   0  0  0  0  0  0  0  0  0  0  0  0
   13.7348   -7.8005   -8.4380 C   0  0  2  0  0  0  0  0  0  0  0  0
   14.5105   -8.8901  -10.5370 N   0  0  0  0  0  0  0  0  0  0  0  0
   14.7062  -10.1090  -11.2578 C   0  0  0  0  0  0  0  0  0  0  0  0
   15.8684   -8.3642  -10.1611 O   0  0  0  0  0  0  0  0  0  0  0  0
   16.7439   -9.1075   -9.6302 N   0  0  0  0  0  0  0  0  0  0  0  0
   20.0990   -7.4029  -13.4572 C   0  0  0  0  0  0  0  0  0  0  0  0
   20.6849   -6.7308  -12.3702 O   0  0  0  0  0  0  0  0  0  0  0  0
   21.8958   -6.3657  -12.4304 C   0  0  0  0  0  0  0  0  0  0  0  0
   19.8716   -6.4559  -11.1584 C   0  0  0  0  0  0  0  0  0  0  0  0
   18.4659   -7.0050  -11.3649 C   0  0  1  0  0  0  0  0  0  0  0  0
   17.5612   -6.5583  -10.2112 N   0  0  0  0  0  0  0  0  0  0  0  0
   16.2194   -7.0162  -10.3872 C   0  0  0  0  0  0  0  0  0  0  0  0
   17.6252   -5.0822  -10.0862 O   0  0  0  0  0  0  0  0  0  0  0  0
   16.7524   -4.3827  -10.6552 O   0  0  0  0  0  0  0  0  0  0  0  0
  2  3  2  0
  2  1  1  0
  4  2  1  0
  5  4  1  0
  5  6  1  0
  7  6  1  0
  8  7  1  0
  8  9  1  6
 10 11  2  0
 10  8  1  0
 12 13  1  0
 13 14  1  0
 14 16  1  0
 14 15  1  1
 16 18  1  0
 16 17  1  6
 17 10  1  0
 18 26  1  0
 19 18  2  0
 20 21  1  0
 21 22  2  0
 21 23  1  0
 23 24  1  0
 25 24  1  1
 25 27  1  0
 26 25  1  0
 27 28  2  0
 27 29  1  0
M  END
$$$$
