RIQ.pdb
     RDKit          3D

 29 28  0  0  1  0  0  0  0  0999 V2000
   24.9391  -23.0883  -16.0727 N   0  0  0  0  0  0  0  0  0  0  0  0
   23.5421  -22.9148  -15.9845 C   0  0  0  0  0  0  0  0  0  0  0  0
   22.7571  -23.8275  -16.4140 N   0  0  0  0  0  0  0  0  0  0  0  0
   22.9746  -21.7249  -15.4179 N   0  0  0  0  0  0  0  0  0  0  0  0
   23.8021  -20.6496  -14.8938 C   0  0  0  0  0  0  0  0  0  0  0  0
   24.3188  -21.0919  -13.5573 C   0  0  0  0  0  0  0  0  0  0  0  0
   24.4822  -19.9644  -12.5754 C   0  0  0  0  0  0  0  0  0  0  0  0
   25.7663  -20.2619  -11.7895 C   0  0  2  0  0  0  0  0  0  0  0  0
   26.5590  -21.1269  -12.6292 N   0  0  0  0  0  0  0  0  0  0  0  0
   25.4633  -20.8620  -10.4765 C   0  0  0  0  0  0  0  0  0  0  0  0
   25.1788  -22.0869  -10.4511 O   0  0  0  0  0  0  0  0  0  0  0  0
   21.7220  -23.7621  -16.4195 C   0  0  0  0  0  0  0  0  0  0  0  0
   27.8397  -18.5800   -6.3701 C   0  0  0  0  0  0  0  0  0  0  0  0
   27.4005  -19.9053   -6.9756 C   0  0  2  0  0  0  0  0  0  0  0  0
   25.8989  -19.9700   -6.8436 C   0  0  0  0  0  0  0  0  0  0  0  0
   25.5777  -20.5931   -5.5017 C   0  0  2  0  0  0  0  0  0  0  0  0
   25.2579  -20.7515   -7.9649 N   0  0  0  0  0  0  0  0  0  0  0  0
   25.4698  -20.1624   -9.2500 C   0  0  0  0  0  0  0  0  0  0  0  0
   23.7782  -20.7319   -7.6972 O   0  0  0  0  0  0  0  0  0  0  0  0
   23.0925  -19.6780   -7.8381 N   0  0  0  0  0  0  0  0  0  0  0  0
   19.8924  -25.6898   -7.5081 C   0  0  0  0  0  0  0  0  0  0  0  0
   19.0277  -24.6248   -7.2003 O   0  0  0  0  0  0  0  0  0  0  0  0
   17.7859  -24.8352   -7.0711 C   0  0  0  0  0  0  0  0  0  0  0  0
   19.5848  -23.2588   -7.0295 C   0  0  0  0  0  0  0  0  0  0  0  0
   21.0897  -23.3003   -7.2620 C   0  0  1  0  0  0  0  0  0  0  0  0
   21.6786  -21.8956   -7.0915 N   0  0  0  0  0  0  0  0  0  0  0  0
   23.0951  -21.8930   -7.2768 C   0  0  0  0  0  0  0  0  0  0  0  0
   21.2985  -21.3671   -5.7593 O   0  0  0  0  0  0  0  0  0  0  0  0
   20.2816  -20.6386   -5.6588 O   0  0  0  0  0  0  0  0  0  0  0  0
  2  3  2  0
  2  1  1  0
  4  2  1  0
  5  4  1  0
  5  6  1  0
  7  6  1  0
  8  7  1  0
  8  9  1  6
 10 11  2  0
 10  8  1  0
 12 13  1  0
 13 14  1  0
 14 16  1  0
 14 15  1  6
 16 18  1  0
 16 17  1  6
 17 10  1  0
 18 26  1  0
 19 18  2  0
 20 21  1  0
 21 22  2  0
 21 23  1  0
 23 24  1  0
 25 24  1  6
 25 27  1  0
 26 25  1  0
 27 28  2  0
 27 29  1  0
M  END
$$$$
