RIQ.pdb
     RDKit          3D

 29 28  0  0  1  0  0  0  0  0999 V2000
   24.8100  -23.5473  -20.7402 N   0  0  0  0  0  0  0  0  0  0  0  0
   25.7112  -24.3318  -21.4897 C   0  0  0  0  0  0  0  0  0  0  0  0
   26.0564  -23.9617  -22.6634 N   0  0  0  0  0  0  0  0  0  0  0  0
   26.2559  -25.5493  -20.9603 N   0  0  0  0  0  0  0  0  0  0  0  0
   26.7622  -25.6403  -19.5998 C   0  0  0  0  0  0  0  0  0  0  0  0
   25.7305  -25.0343  -18.6958 C   0  0  0  0  0  0  0  0  0  0  0  0
   26.1766  -24.9300  -17.2633 C   0  0  0  0  0  0  0  0  0  0  0  0
   27.4171  -24.0265  -17.2643 C   0  0  2  0  0  0  0  0  0  0  0  0
   28.5420  -24.8896  -16.9971 N   0  0  0  0  0  0  0  0  0  0  0  0
   27.2866  -22.9370  -16.2785 C   0  0  0  0  0  0  0  0  0  0  0  0
   27.5368  -23.2103  -15.0766 O   0  0  0  0  0  0  0  0  0  0  0  0
   26.6933  -24.4923  -23.2868 C   0  0  0  0  0  0  0  0  0  0  0  0
   28.4463  -17.6935  -17.5557 C   0  0  0  0  0  0  0  0  0  0  0  0
   28.4157  -19.0245  -16.8184 C   0  0  2  0  0  0  0  0  0  0  0  0
   27.0213  -19.1858  -16.2652 C   0  0  0  0  0  0  0  0  0  0  0  0
   26.7956  -18.0865  -15.2488 C   0  0  2  0  0  0  0  0  0  0  0  0
   26.8049  -20.5440  -15.6429 N   0  0  0  0  0  0  0  0  0  0  0  0
   26.9022  -21.6137  -16.5863 C   0  0  0  0  0  0  0  0  0  0  0  0
   25.3998  -20.5406  -15.1068 O   0  0  0  0  0  0  0  0  0  0  0  0
   24.3965  -20.5984  -15.8755 N   0  0  0  0  0  0  0  0  0  0  0  0
   23.5747  -20.2898   -9.0050 C   0  0  0  0  0  0  0  0  0  0  0  0
   22.3556  -20.4221   -9.6926 O   0  0  0  0  0  0  0  0  0  0  0  0
   21.2693  -20.4949   -9.0462 C   0  0  0  0  0  0  0  0  0  0  0  0
   22.3572  -20.4751  -11.1768 C   0  0  0  0  0  0  0  0  0  0  0  0
   23.7949  -20.4195  -11.6771 C   0  0  2  0  0  0  0  0  0  0  0  0
   23.8117  -20.4648  -13.2091 N   0  0  0  0  0  0  0  0  0  0  0  0
   25.1457  -20.4724  -13.7204 C   0  0  0  0  0  0  0  0  0  0  0  0
   23.0277  -19.3229  -13.7382 O   0  0  0  0  0  0  0  0  0  0  0  0
   23.5895  -18.2097  -13.8794 O   0  0  0  0  0  0  0  0  0  0  0  0
  2  3  2  0
  2  1  1  0
  4  2  1  0
  5  4  1  0
  5  6  1  0
  7  6  1  0
  8  7  1  0
  8  9  1  1
 10 11  2  0
 10  8  1  0
 12 13  1  0
 13 14  1  0
 14 16  1  0
 14 15  1  6
 16 18  1  0
 16 17  1  1
 17 10  1  0
 18 26  1  0
 19 18  2  0
 20 21  1  0
 21 22  2  0
 21 23  1  0
 23 24  1  0
 25 24  1  1
 25 27  1  0
 26 25  1  0
 27 28  2  0
 27 29  1  0
M  END
$$$$
