RIQ.pdb
     RDKit          3D

 29 28  0  0  1  0  0  0  0  0999 V2000
   18.3162  -21.8827  -12.6620 N   0  0  0  0  0  0  0  0  0  0  0  0
   19.3550  -22.8194  -12.8433 C   0  0  0  0  0  0  0  0  0  0  0  0
   19.1813  -24.0392  -12.5031 N   0  0  0  0  0  0  0  0  0  0  0  0
   20.6164  -22.4316  -13.4068 N   0  0  0  0  0  0  0  0  0  0  0  0
   20.9371  -21.0429  -13.6974 C   0  0  0  0  0  0  0  0  0  0  0  0
   20.1801  -20.6569  -14.9331 C   0  0  0  0  0  0  0  0  0  0  0  0
   21.0626  -20.1613  -16.0455 C   0  0  0  0  0  0  0  0  0  0  0  0
   21.9016  -19.0212  -15.4527 C   0  0  2  0  0  0  0  0  0  0  0  0
   21.1657  -17.8068  -15.7086 N   0  0  0  0  0  0  0  0  0  0  0  0
   23.2586  -18.9989  -16.0305 C   0  0  0  0  0  0  0  0  0  0  0  0
   23.3600  -19.1357  -17.2767 O   0  0  0  0  0  0  0  0  0  0  0  0
   19.8760  -24.7964  -12.6435 C   0  0  0  0  0  0  0  0  0  0  0  0
   28.3416  -17.0844  -16.5306 C   0  0  0  0  0  0  0  0  0  0  0  0
   28.1684  -18.1806  -15.4892 C   0  0  2  0  0  0  0  0  0  0  0  0
   26.7561  -18.0709  -14.9699 C   0  0  0  0  0  0  0  0  0  0  0  0
   26.7382  -18.6135  -13.5565 C   0  0  2  0  0  0  0  0  0  0  0  0
   25.7665  -18.8079  -15.8396 N   0  0  0  0  0  0  0  0  0  0  0  0
   24.4482  -18.8355  -15.2876 C   0  0  0  0  0  0  0  0  0  0  0  0
   26.2536  -20.2286  -15.9178 O   0  0  0  0  0  0  0  0  0  0  0  0
   26.1260  -21.0280  -14.9454 N   0  0  0  0  0  0  0  0  0  0  0  0
   25.3813  -24.3663  -19.3237 C   0  0  0  0  0  0  0  0  0  0  0  0
   26.6167  -24.9520  -18.9961 O   0  0  0  0  0  0  0  0  0  0  0  0
   26.7604  -26.2079  -19.0686 C   0  0  0  0  0  0  0  0  0  0  0  0
   27.7439  -24.0856  -18.5668 C   0  0  0  0  0  0  0  0  0  0  0  0
   27.2853  -22.6330  -18.5660 C   0  0  2  0  0  0  0  0  0  0  0  0
   27.3740  -22.0632  -17.1459 N   0  0  0  0  0  0  0  0  0  0  0  0
   26.8741  -20.7264  -17.0834 C   0  0  0  0  0  0  0  0  0  0  0  0
   28.7774  -22.1469  -16.6749 O   0  0  0  0  0  0  0  0  0  0  0  0
   29.5416  -21.1681  -16.8556 O   0  0  0  0  0  0  0  0  0  0  0  0
  2  3  2  0
  2  1  1  0
  4  2  1  0
  5  4  1  0
  5  6  1  0
  7  6  1  0
  8  7  1  0
  8  9  1  6
 10 11  2  0
 10  8  1  0
 12 13  1  0
 13 14  1  0
 14 16  1  0
 14 15  1  6
 16 18  1  0
 16 17  1  6
 17 10  1  0
 18 26  1  0
 19 18  2  0
 20 21  1  0
 21 22  2  0
 21 23  1  0
 23 24  1  0
 25 24  1  1
 25 27  1  0
 26 25  1  0
 27 28  2  0
 27 29  1  0
M  END
$$$$
