RIQ.pdb
     RDKit          3D

 29 28  0  0  1  0  0  0  0  0999 V2000
   19.0726  -13.1272  -22.9225 N   0  0  0  0  0  0  0  0  0  0  0  0
   18.4620  -14.2136  -22.2618 C   0  0  0  0  0  0  0  0  0  0  0  0
   17.8549  -15.1125  -22.9380 N   0  0  0  0  0  0  0  0  0  0  0  0
   18.5065  -14.3353  -20.8327 N   0  0  0  0  0  0  0  0  0  0  0  0
   19.0703  -13.2946  -19.9871 C   0  0  0  0  0  0  0  0  0  0  0  0
   20.5625  -13.4347  -20.0381 C   0  0  0  0  0  0  0  0  0  0  0  0
   21.2888  -12.4088  -19.2123 C   0  0  0  0  0  0  0  0  0  0  0  0
   22.4417  -13.1506  -18.5225 C   0  0  2  0  0  0  0  0  0  0  0  0
   21.9107  -14.4299  -18.1187 N   0  0  0  0  0  0  0  0  0  0  0  0
   22.9778  -12.3718  -17.3903 C   0  0  0  0  0  0  0  0  0  0  0  0
   22.3418  -12.4131  -16.3060 O   0  0  0  0  0  0  0  0  0  0  0  0
   17.4055  -15.9544  -22.5320 C   0  0  0  0  0  0  0  0  0  0  0  0
   28.3323  -11.7574  -16.3428 C   0  0  0  0  0  0  0  0  0  0  0  0
   26.8360  -12.0101  -16.2282 C   0  0  2  0  0  0  0  0  0  0  0  0
   26.1548  -10.6705  -16.3617 C   0  0  0  0  0  0  0  0  0  0  0  0
   26.6267   -9.7945  -15.2205 C   0  0  2  0  0  0  0  0  0  0  0  0
   24.6500  -10.7896  -16.3594 N   0  0  0  0  0  0  0  0  0  0  0  0
   24.1500  -11.5860  -17.4361 C   0  0  0  0  0  0  0  0  0  0  0  0
   24.1187   -9.3948  -16.5443 O   0  0  0  0  0  0  0  0  0  0  0  0
   24.4324   -8.6934  -17.5494 N   0  0  0  0  0  0  0  0  0  0  0  0
   19.7234   -7.8624  -18.9817 C   0  0  0  0  0  0  0  0  0  0  0  0
   19.9533   -6.5778  -18.4586 O   0  0  0  0  0  0  0  0  0  0  0  0
   19.3352   -5.5808  -18.9350 C   0  0  0  0  0  0  0  0  0  0  0  0
   20.9235   -6.4056  -17.3475 C   0  0  0  0  0  0  0  0  0  0  0  0
   21.5790   -7.7467  -17.0440 C   0  0  2  0  0  0  0  0  0  0  0  0
   22.5600   -7.5909  -15.8768 N   0  0  0  0  0  0  0  0  0  0  0  0
   23.2464   -8.8128  -15.6000 C   0  0  0  0  0  0  0  0  0  0  0  0
   21.8269   -7.0919  -14.6884 O   0  0  0  0  0  0  0  0  0  0  0  0
   21.4434   -5.8972  -14.6648 O   0  0  0  0  0  0  0  0  0  0  0  0
  2  3  2  0
  2  1  1  0
  4  2  1  0
  5  4  1  0
  5  6  1  0
  7  6  1  0
  8  7  1  0
  8  9  1  1
 10 11  2  0
 10  8  1  0
 12 13  1  0
 13 14  1  0
 14 16  1  0
 14 15  1  6
 16 18  1  0
 16 17  1  1
 17 10  1  0
 18 26  1  0
 19 18  2  0
 20 21  1  0
 21 22  2  0
 21 23  1  0
 23 24  1  0
 25 24  1  6
 25 27  1  0
 26 25  1  0
 27 28  2  0
 27 29  1  0
M  END
$$$$
