LCC.pdb
     RDKit          3D

 21 20  0  0  1  0  0  0  0  0999 V2000
    7.2510  -12.8668   20.1655 C   0  0  0  0  0  0  0  0  0  0  0  0
    7.2795  -14.3950   20.2223 C   0  0  2  0  0  0  0  0  0  0  0  0
    5.8950  -14.8834   19.9313 C   0  0  0  0  0  0  0  0  0  0  0  0
    7.7723  -14.7556   21.5855 C   0  0  0  0  0  0  0  0  0  0  0  0
    9.1632  -14.2643   21.9064 C   0  0  2  0  0  0  0  0  0  0  0  0
   10.0417  -14.9009   20.9303 N   0  0  0  0  0  0  0  0  0  0  0  0
    9.5159  -14.6279   23.2780 C   0  0  0  0  0  0  0  0  0  0  0  0
   10.3448  -15.5371   23.5289 O   0  0  0  0  0  0  0  0  0  0  0  0
    8.9561  -13.9894   24.4364 N   0  0  0  0  0  0  0  0  0  0  0  0
    9.3884  -14.3311   25.7775 C   0  0  1  0  0  0  0  0  0  0  0  0
    8.4552  -13.5819   26.7311 C   0  0  0  0  0  0  0  0  0  0  0  0
    9.0003  -13.9817   28.4221 S   0  0  0  0  0  0  0  0  0  0  0  0
    9.2051  -15.7778   26.0628 C   0  0  0  0  0  0  0  0  0  0  0  0
    8.0635  -16.3030   25.9955 O   0  0  0  0  0  0  0  0  0  0  0  0
   10.3215  -16.5847   26.4157 N   0  0  0  0  0  0  0  0  0  0  0  0
   10.2002  -17.9581   26.8357 C   0  0  1  0  0  0  0  0  0  0  0  0
   11.2683  -18.8368   26.2225 C   0  0  0  0  0  0  0  0  0  0  0  0
   11.2216  -18.7410   24.4125 S   0  0  0  0  0  0  0  0  0  0  0  0
   10.1400  -18.0928   28.3095 C   0  0  0  0  0  0  0  0  0  0  0  0
    9.9754  -19.3186   28.9336 O   0  0  0  0  0  0  0  0  0  0  0  0
   10.2391  -17.0770   29.0391 O   0  0  0  0  0  0  0  0  0  0  0  0
  2  1  1  1
  2  3  1  0
  4  2  1  0
  5  4  1  0
  5  6  1  6
  7  5  1  0
  7  8  2  0
  9  7  1  0
 10 13  1  0
 10  9  1  0
 10 11  1  1
 12 11  1  0
 13 15  1  0
 14 13  2  0
 15 16  1  0
 16 19  1  0
 17 18  1  0
 16 17  1  1
 19 21  2  0
 19 20  1  0
M  END
$$$$
