LCC.pdb
     RDKit          3D

 21 20  0  0  1  0  0  0  0  0999 V2000
    9.4189  -13.4006   19.7875 C   0  0  0  0  0  0  0  0  0  0  0  0
    8.0838  -13.5953   19.0670 C   0  0  2  0  0  0  0  0  0  0  0  0
    7.5844  -12.2419   18.6684 C   0  0  0  0  0  0  0  0  0  0  0  0
    7.1892  -14.3100   20.0261 C   0  0  0  0  0  0  0  0  0  0  0  0
    7.7505  -15.5995   20.5749 C   0  0  2  0  0  0  0  0  0  0  0  0
    7.2546  -16.6522   19.6942 N   0  0  0  0  0  0  0  0  0  0  0  0
    7.3073  -15.7882   21.9554 C   0  0  0  0  0  0  0  0  0  0  0  0
    6.0917  -15.7649   22.2689 O   0  0  0  0  0  0  0  0  0  0  0  0
    8.2063  -16.0124   23.0530 N   0  0  0  0  0  0  0  0  0  0  0  0
    7.7220  -16.2124   24.4049 C   0  0  1  0  0  0  0  0  0  0  0  0
    8.0018  -17.6775   24.7465 C   0  0  0  0  0  0  0  0  0  0  0  0
    7.4462  -17.9326   26.4620 S   0  0  0  0  0  0  0  0  0  0  0  0
    8.4842  -15.4002   25.3882 C   0  0  0  0  0  0  0  0  0  0  0  0
    9.7289  -15.2569   25.2710 O   0  0  0  0  0  0  0  0  0  0  0  0
    7.8121  -14.7753   26.4744 N   0  0  0  0  0  0  0  0  0  0  0  0
    8.4766  -13.9208   27.4261 C   0  0  1  0  0  0  0  0  0  0  0  0
    7.5073  -13.0077   28.1443 C   0  0  0  0  0  0  0  0  0  0  0  0
    5.9952  -12.7782   27.1706 S   0  0  0  0  0  0  0  0  0  0  0  0
    9.3317  -14.6826   28.3655 C   0  0  0  0  0  0  0  0  0  0  0  0
   10.1673  -14.0578   29.2768 O   0  0  0  0  0  0  0  0  0  0  0  0
    9.3164  -15.9370   28.3549 O   0  0  0  0  0  0  0  0  0  0  0  0
  2  1  1  1
  2  3  1  0
  4  2  1  0
  5  4  1  0
  5  6  1  6
  7  5  1  0
  7  8  2  0
  9  7  1  0
 10 13  1  0
 10  9  1  0
 10 11  1  1
 12 11  1  0
 13 15  1  0
 14 13  2  0
 15 16  1  0
 16 19  1  0
 17 18  1  0
 16 17  1  1
 19 21  2  0
 19 20  1  0
M  END
$$$$
