LCC.pdb
     RDKit          3D

 21 20  0  0  1  0  0  0  0  0999 V2000
    5.1749  -18.5238   21.5854 C   0  0  0  0  0  0  0  0  0  0  0  0
    6.5391  -19.0487   22.0358 C   0  0  2  0  0  0  0  0  0  0  0  0
    6.3165  -20.3699   22.7027 C   0  0  0  0  0  0  0  0  0  0  0  0
    7.1131  -18.0063   22.9386 C   0  0  0  0  0  0  0  0  0  0  0  0
    7.3243  -16.6575   22.2944 C   0  0  2  0  0  0  0  0  0  0  0  0
    8.2439  -16.8894   21.1853 N   0  0  0  0  0  0  0  0  0  0  0  0
    7.8731  -15.7189   23.2721 C   0  0  0  0  0  0  0  0  0  0  0  0
    9.0871  -15.7319   23.5924 O   0  0  0  0  0  0  0  0  0  0  0  0
    7.0869  -14.7189   23.9391 N   0  0  0  0  0  0  0  0  0  0  0  0
    7.6305  -13.9185   25.0189 C   0  0  1  0  0  0  0  0  0  0  0  0
    6.5033  -12.9865   25.4691 C   0  0  0  0  0  0  0  0  0  0  0  0
    7.1323  -12.0549   26.9019 S   0  0  0  0  0  0  0  0  0  0  0  0
    7.9815  -14.7512   26.1983 C   0  0  0  0  0  0  0  0  0  0  0  0
    7.1147  -15.4798   26.7473 O   0  0  0  0  0  0  0  0  0  0  0  0
    9.3044  -14.7324   26.7194 N   0  0  0  0  0  0  0  0  0  0  0  0
    9.7182  -15.5264   27.8490 C   0  0  1  0  0  0  0  0  0  0  0  0
   10.7750  -16.5419   27.4737 C   0  0  0  0  0  0  0  0  0  0  0  0
   12.2660  -15.7205   26.8496 S   0  0  0  0  0  0  0  0  0  0  0  0
   10.1250  -14.6931   29.0039 C   0  0  0  0  0  0  0  0  0  0  0  0
   10.4304  -15.2407   30.2393 O   0  0  0  0  0  0  0  0  0  0  0  0
   10.2030  -13.4466   28.8846 O   0  0  0  0  0  0  0  0  0  0  0  0
  2  1  1  1
  2  3  1  0
  4  2  1  0
  5  4  1  0
  5  6  1  6
  7  5  1  0
  7  8  2  0
  9  7  1  0
 10 13  1  0
 10  9  1  0
 10 11  1  1
 12 11  1  0
 13 15  1  0
 14 13  2  0
 15 16  1  0
 16 19  1  0
 17 18  1  0
 16 17  1  6
 19 21  2  0
 19 20  1  0
M  END
$$$$
