LCC.pdb
     RDKit          3D

 21 20  0  0  1  0  0  0  0  0999 V2000
    9.2276  -12.3840   19.5759 C   0  0  0  0  0  0  0  0  0  0  0  0
    8.1861  -13.4869   19.3796 C   0  0  2  0  0  0  0  0  0  0  0  0
    6.8337  -12.8542   19.4837 C   0  0  0  0  0  0  0  0  0  0  0  0
    8.4554  -14.5114   20.4327 C   0  0  0  0  0  0  0  0  0  0  0  0
    9.0672  -15.7949   19.9255 C   0  0  2  0  0  0  0  0  0  0  0  0
    8.0103  -16.4670   19.1766 N   0  0  0  0  0  0  0  0  0  0  0  0
    9.5372  -16.6016   21.0509 C   0  0  0  0  0  0  0  0  0  0  0  0
    8.7398  -17.1345   21.8613 O   0  0  0  0  0  0  0  0  0  0  0  0
   10.9254  -16.8504   21.3229 N   0  0  0  0  0  0  0  0  0  0  0  0
   11.3454  -17.7085   22.4135 C   0  0  1  0  0  0  0  0  0  0  0  0
   12.7277  -18.2412   22.0299 C   0  0  0  0  0  0  0  0  0  0  0  0
   12.4742  -19.9008   21.3243 S   0  0  0  0  0  0  0  0  0  0  0  0
   11.5262  -16.9456   23.6756 C   0  0  0  0  0  0  0  0  0  0  0  0
   11.4370  -15.6904   23.6823 O   0  0  0  0  0  0  0  0  0  0  0  0
   11.8024  -17.6290   24.8916 N   0  0  0  0  0  0  0  0  0  0  0  0
   11.5434  -17.0619   26.1911 C   0  0  1  0  0  0  0  0  0  0  0  0
   10.1591  -16.4583   26.2825 C   0  0  0  0  0  0  0  0  0  0  0  0
    9.9103  -15.6554   27.8890 S   0  0  0  0  0  0  0  0  0  0  0  0
   11.8114  -18.0211   27.2875 C   0  0  0  0  0  0  0  0  0  0  0  0
   12.5093  -17.6625   28.4292 O   0  0  0  0  0  0  0  0  0  0  0  0
   11.4029  -19.2043   27.2027 O   0  0  0  0  0  0  0  0  0  0  0  0
  2  1  1  1
  2  3  1  0
  4  2  1  0
  5  4  1  0
  5  6  1  1
  7  5  1  0
  7  8  2  0
  9  7  1  0
 10 13  1  0
 10  9  1  0
 10 11  1  6
 12 11  1  0
 13 15  1  0
 14 13  2  0
 15 16  1  0
 16 19  1  0
 17 18  1  0
 16 17  1  6
 19 21  2  0
 19 20  1  0
M  END
$$$$
