LCC.pdb
     RDKit          3D

 21 20  0  0  1  0  0  0  0  0999 V2000
    6.0176  -12.0584   25.2097 C   0  0  0  0  0  0  0  0  0  0  0  0
    6.1804  -12.7748   26.5512 C   0  0  2  0  0  0  0  0  0  0  0  0
    6.8699  -11.8310   27.4861 C   0  0  0  0  0  0  0  0  0  0  0  0
    6.9557  -14.0203   26.2710 C   0  0  0  0  0  0  0  0  0  0  0  0
    6.3465  -14.9237   25.2260 C   0  0  2  0  0  0  0  0  0  0  0  0
    5.4882  -15.8502   25.9572 N   0  0  0  0  0  0  0  0  0  0  0  0
    7.4025  -15.6200   24.4926 C   0  0  0  0  0  0  0  0  0  0  0  0
    7.9980  -16.6144   24.9754 O   0  0  0  0  0  0  0  0  0  0  0  0
    7.8429  -15.2350   23.1808 N   0  0  0  0  0  0  0  0  0  0  0  0
    8.9086  -15.9421   22.4977 C   0  0  1  0  0  0  0  0  0  0  0  0
    9.1148  -15.2195   21.1646 C   0  0  0  0  0  0  0  0  0  0  0  0
   10.3471  -16.1813   20.2305 S   0  0  0  0  0  0  0  0  0  0  0  0
   10.1959  -15.8404   23.2326 C   0  0  0  0  0  0  0  0  0  0  0  0
   10.4495  -14.8318   23.9413 O   0  0  0  0  0  0  0  0  0  0  0  0
   11.1564  -16.8850   23.1418 N   0  0  0  0  0  0  0  0  0  0  0  0
   12.0119  -17.2668   24.2371 C   0  0  1  0  0  0  0  0  0  0  0  0
   11.2249  -17.5845   25.4895 C   0  0  0  0  0  0  0  0  0  0  0  0
   12.3315  -18.0705   26.8409 S   0  0  0  0  0  0  0  0  0  0  0  0
   12.9454  -18.3563   23.8688 C   0  0  0  0  0  0  0  0  0  0  0  0
   14.2623  -18.3779   24.2984 O   0  0  0  0  0  0  0  0  0  0  0  0
   12.5539  -19.3028   23.1444 O   0  0  0  0  0  0  0  0  0  0  0  0
  2  1  1  6
  2  3  1  0
  4  2  1  0
  5  4  1  0
  5  6  1  1
  7  5  1  0
  7  8  2  0
  9  7  1  0
 10 13  1  0
 10  9  1  0
 10 11  1  6
 12 11  1  0
 13 15  1  0
 14 13  2  0
 15 16  1  0
 16 19  1  0
 17 18  1  0
 16 17  1  1
 19 21  2  0
 19 20  1  0
M  END
$$$$
