LCC.pdb
     RDKit          3D

 21 20  0  0  1  0  0  0  0  0999 V2000
    9.2403  -14.0148   19.6349 C   0  0  0  0  0  0  0  0  0  0  0  0
    7.7249  -13.8978   19.4630 C   0  0  2  0  0  0  0  0  0  0  0  0
    7.4187  -12.4747   19.1153 C   0  0  0  0  0  0  0  0  0  0  0  0
    7.1199  -14.3473   20.7526 C   0  0  0  0  0  0  0  0  0  0  0  0
    7.3257  -15.8081   21.0733 C   0  0  2  0  0  0  0  0  0  0  0  0
    6.3306  -16.5291   20.2861 N   0  0  0  0  0  0  0  0  0  0  0  0
    7.1543  -16.0321   22.5080 C   0  0  0  0  0  0  0  0  0  0  0  0
    6.0736  -15.7749   23.0932 O   0  0  0  0  0  0  0  0  0  0  0  0
    8.1873  -16.5558   23.3576 N   0  0  0  0  0  0  0  0  0  0  0  0
    8.0051  -16.6779   24.7908 C   0  0  1  0  0  0  0  0  0  0  0  0
    8.3718  -18.1203   25.1468 C   0  0  0  0  0  0  0  0  0  0  0  0
    6.8075  -18.9978   25.4618 S   0  0  0  0  0  0  0  0  0  0  0  0
    8.9480  -15.8087   25.5413 C   0  0  0  0  0  0  0  0  0  0  0  0
   10.0509  -15.4754   25.0353 O   0  0  0  0  0  0  0  0  0  0  0  0
    8.6118  -15.3441   26.8425 N   0  0  0  0  0  0  0  0  0  0  0  0
    9.4692  -14.4838   27.6184 C   0  0  1  0  0  0  0  0  0  0  0  0
    8.7436  -13.2502   28.1089 C   0  0  0  0  0  0  0  0  0  0  0  0
    7.9283  -12.3925   26.7352 S   0  0  0  0  0  0  0  0  0  0  0  0
   10.1495  -15.2090   28.7162 C   0  0  0  0  0  0  0  0  0  0  0  0
   11.0675  -14.5933   29.5512 O   0  0  0  0  0  0  0  0  0  0  0  0
    9.9027  -16.4226   28.9169 O   0  0  0  0  0  0  0  0  0  0  0  0
  2  1  1  1
  2  3  1  0
  4  2  1  0
  5  4  1  0
  5  6  1  6
  7  5  1  0
  7  8  2  0
  9  7  1  0
 10 13  1  0
 10  9  1  0
 10 11  1  1
 12 11  1  0
 13 15  1  0
 14 13  2  0
 15 16  1  0
 16 19  1  0
 17 18  1  0
 16 17  1  1
 19 21  2  0
 19 20  1  0
M  END
$$$$
