LCC.pdb
     RDKit          3D

 21 20  0  0  1  0  0  0  0  0999 V2000
    8.2434  -14.3604   18.2334 C   0  0  0  0  0  0  0  0  0  0  0  0
    7.8685  -13.5734   19.4902 C   0  0  2  0  0  0  0  0  0  0  0  0
    7.8226  -12.1244   19.1184 C   0  0  0  0  0  0  0  0  0  0  0  0
    8.9045  -13.9006   20.5153 C   0  0  0  0  0  0  0  0  0  0  0  0
    8.8130  -15.2956   21.0850 C   0  0  2  0  0  0  0  0  0  0  0  0
    7.4161  -15.6914   20.9373 N   0  0  0  0  0  0  0  0  0  0  0  0
    9.2344  -15.2907   22.4851 C   0  0  0  0  0  0  0  0  0  0  0  0
   10.4187  -15.0403   22.8186 O   0  0  0  0  0  0  0  0  0  0  0  0
    8.3476  -15.5664   23.5809 N   0  0  0  0  0  0  0  0  0  0  0  0
    8.8265  -15.6411   24.9474 C   0  0  1  0  0  0  0  0  0  0  0  0
    7.6663  -15.1805   25.8324 C   0  0  0  0  0  0  0  0  0  0  0  0
    6.2328  -16.2179   25.4019 S   0  0  0  0  0  0  0  0  0  0  0  0
    9.1297  -17.0393   25.3485 C   0  0  0  0  0  0  0  0  0  0  0  0
    8.7714  -18.0041   24.6245 O   0  0  0  0  0  0  0  0  0  0  0  0
    9.8298  -17.3009   26.5583 N   0  0  0  0  0  0  0  0  0  0  0  0
   10.6472  -18.4710   26.7589 C   0  0  1  0  0  0  0  0  0  0  0  0
   11.7807  -18.5508   25.7600 C   0  0  0  0  0  0  0  0  0  0  0  0
   12.8136  -20.0079   26.0718 S   0  0  0  0  0  0  0  0  0  0  0  0
   11.1208  -18.5937   28.1569 C   0  0  0  0  0  0  0  0  0  0  0  0
   11.2710  -19.8213   28.7812 O   0  0  0  0  0  0  0  0  0  0  0  0
   11.4019  -17.5659   28.8190 O   0  0  0  0  0  0  0  0  0  0  0  0
  2  1  1  6
  2  3  1  0
  4  2  1  0
  5  4  1  0
  5  6  1  1
  7  5  1  0
  7  8  2  0
  9  7  1  0
 10 13  1  0
 10  9  1  0
 10 11  1  1
 12 11  1  0
 13 15  1  0
 14 13  2  0
 15 16  1  0
 16 19  1  0
 17 18  1  0
 16 17  1  6
 19 21  2  0
 19 20  1  0
M  END
$$$$
