LCC.pdb
     RDKit          3D

 21 20  0  0  1  0  0  0  0  0999 V2000
   17.3514  -16.7344   16.1873 C   0  0  0  0  0  0  0  0  0  0  0  0
   15.8413  -16.7652   16.4286 C   0  0  2  0  0  0  0  0  0  0  0  0
   15.3089  -18.0138   15.7980 C   0  0  0  0  0  0  0  0  0  0  0  0
   15.2951  -15.5087   15.8336 C   0  0  0  0  0  0  0  0  0  0  0  0
   13.7931  -15.3751   15.9055 C   0  0  2  0  0  0  0  0  0  0  0  0
   13.4409  -14.3493   14.9290 N   0  0  0  0  0  0  0  0  0  0  0  0
   13.3905  -15.0008   17.2604 C   0  0  0  0  0  0  0  0  0  0  0  0
   13.8102  -13.9525   17.8093 O   0  0  0  0  0  0  0  0  0  0  0  0
   12.4969  -15.7844   18.0669 N   0  0  0  0  0  0  0  0  0  0  0  0
   12.1676  -15.4045   19.4268 C   0  0  1  0  0  0  0  0  0  0  0  0
   10.8250  -16.0674   19.7423 C   0  0  0  0  0  0  0  0  0  0  0  0
   10.4399  -15.6744   21.4784 S   0  0  0  0  0  0  0  0  0  0  0  0
   13.1447  -15.9522   20.4030 C   0  0  0  0  0  0  0  0  0  0  0  0
   13.5982  -17.1182   20.2680 O   0  0  0  0  0  0  0  0  0  0  0  0
   13.5777  -15.1613   21.5025 N   0  0  0  0  0  0  0  0  0  0  0  0
   14.5182  -15.6301   22.4890 C   0  0  1  0  0  0  0  0  0  0  0  0
   15.7441  -14.7472   22.5708 C   0  0  0  0  0  0  0  0  0  0  0  0
   17.0233  -15.5135   23.6020 S   0  0  0  0  0  0  0  0  0  0  0  0
   13.8878  -15.8400   23.8128 C   0  0  0  0  0  0  0  0  0  0  0  0
   14.3946  -16.7370   24.7388 O   0  0  0  0  0  0  0  0  0  0  0  0
   12.8591  -15.1954   24.1296 O   0  0  0  0  0  0  0  0  0  0  0  0
  2  1  1  6
  2  3  1  0
  4  2  1  0
  5  4  1  0
  5  6  1  6
  7  5  1  0
  7  8  2  0
  9  7  1  0
 10 13  1  0
 10  9  1  0
 10 11  1  1
 12 11  1  0
 13 15  1  0
 14 13  2  0
 15 16  1  0
 16 19  1  0
 17 18  1  0
 16 17  1  1
 19 21  2  0
 19 20  1  0
M  END
$$$$
