LCC.pdb
     RDKit          3D

 21 20  0  0  1  0  0  0  0  0999 V2000
    9.1614  -13.0343   19.1850 C   0  0  0  0  0  0  0  0  0  0  0  0
    7.8005  -13.7284   19.2585 C   0  0  2  0  0  0  0  0  0  0  0  0
    6.7958  -12.8205   18.6210 C   0  0  0  0  0  0  0  0  0  0  0  0
    7.5415  -13.9933   20.7055 C   0  0  0  0  0  0  0  0  0  0  0  0
    8.5312  -14.9224   21.3660 C   0  0  2  0  0  0  0  0  0  0  0  0
    8.3790  -16.2067   20.6899 N   0  0  0  0  0  0  0  0  0  0  0  0
    8.2444  -15.0206   22.7964 C   0  0  0  0  0  0  0  0  0  0  0  0
    8.2589  -14.0125   23.5447 O   0  0  0  0  0  0  0  0  0  0  0  0
    7.9269  -16.2551   23.4583 N   0  0  0  0  0  0  0  0  0  0  0  0
    7.7260  -16.3199   24.8928 C   0  0  1  0  0  0  0  0  0  0  0  0
    7.3080  -17.7593   25.2011 C   0  0  0  0  0  0  0  0  0  0  0  0
    8.7226  -18.8216   24.7684 S   0  0  0  0  0  0  0  0  0  0  0  0
    8.9901  -16.0826   25.6367 C   0  0  0  0  0  0  0  0  0  0  0  0
   10.0964  -16.4217   25.1419 O   0  0  0  0  0  0  0  0  0  0  0  0
    8.9616  -15.4681   26.9187 N   0  0  0  0  0  0  0  0  0  0  0  0
   10.1454  -15.2312   27.7060 C   0  0  1  0  0  0  0  0  0  0  0  0
   10.2295  -13.8003   28.1902 C   0  0  0  0  0  0  0  0  0  0  0  0
    8.9740  -12.7713   27.3826 S   0  0  0  0  0  0  0  0  0  0  0  0
   10.2915  -16.2073   28.8105 C   0  0  0  0  0  0  0  0  0  0  0  0
   11.4319  -16.2711   29.5944 O   0  0  0  0  0  0  0  0  0  0  0  0
    9.3649  -17.0142   29.0643 O   0  0  0  0  0  0  0  0  0  0  0  0
  2  1  1  1
  2  3  1  0
  4  2  1  0
  5  4  1  0
  5  6  1  6
  7  5  1  0
  7  8  2  0
  9  7  1  0
 10 13  1  0
 10  9  1  0
 10 11  1  6
 12 11  1  0
 13 15  1  0
 14 13  2  0
 15 16  1  0
 16 19  1  0
 17 18  1  0
 16 17  1  1
 19 21  2  0
 19 20  1  0
M  END
$$$$
