LCC.pdb
     RDKit          3D

 21 20  0  0  1  0  0  0  0  0999 V2000
    9.5318  -12.9644   18.9494 C   0  0  0  0  0  0  0  0  0  0  0  0
    8.2775  -13.5234   18.2758 C   0  0  2  0  0  0  0  0  0  0  0  0
    7.3536  -12.3746   18.0178 C   0  0  0  0  0  0  0  0  0  0  0  0
    7.7204  -14.5478   19.2093 C   0  0  0  0  0  0  0  0  0  0  0  0
    8.7171  -15.5744   19.6906 C   0  0  2  0  0  0  0  0  0  0  0  0
    8.6079  -16.6957   18.7630 N   0  0  0  0  0  0  0  0  0  0  0  0
    8.4031  -15.9682   21.0633 C   0  0  0  0  0  0  0  0  0  0  0  0
    7.3475  -16.5848   21.3495 O   0  0  0  0  0  0  0  0  0  0  0  0
    9.2583  -15.6898   22.1832 N   0  0  0  0  0  0  0  0  0  0  0  0
    8.8674  -16.0197   23.5399 C   0  0  1  0  0  0  0  0  0  0  0  0
    9.9163  -17.0056   24.0590 C   0  0  0  0  0  0  0  0  0  0  0  0
   11.5082  -16.1211   24.0716 S   0  0  0  0  0  0  0  0  0  0  0  0
    8.9284  -14.8343   24.4337 C   0  0  0  0  0  0  0  0  0  0  0  0
    9.2118  -13.6988   23.9713 O   0  0  0  0  0  0  0  0  0  0  0  0
    8.6661  -14.9725   25.8245 N   0  0  0  0  0  0  0  0  0  0  0  0
    8.1478  -13.9023   26.6391 C   0  0  1  0  0  0  0  0  0  0  0  0
    6.8783  -13.3136   26.0641 C   0  0  0  0  0  0  0  0  0  0  0  0
    6.1974  -12.0465   27.1678 S   0  0  0  0  0  0  0  0  0  0  0  0
    7.9904  -14.3000   28.0572 C   0  0  0  0  0  0  0  0  0  0  0  0
    8.2743  -13.4367   29.1028 O   0  0  0  0  0  0  0  0  0  0  0  0
    7.5879  -15.4524   28.3470 O   0  0  0  0  0  0  0  0  0  0  0  0
  2  1  1  1
  2  3  1  0
  4  2  1  0
  5  4  1  0
  5  6  1  6
  7  5  1  0
  7  8  2  0
  9  7  1  0
 10 13  1  0
 10  9  1  0
 10 11  1  1
 12 11  1  0
 13 15  1  0
 14 13  2  0
 15 16  1  0
 16 19  1  0
 17 18  1  0
 16 17  1  6
 19 21  2  0
 19 20  1  0
M  END
$$$$
