LCC.pdb
     RDKit          3D

 21 20  0  0  1  0  0  0  0  0999 V2000
    9.0051  -13.3074   18.7407 C   0  0  0  0  0  0  0  0  0  0  0  0
    7.6159  -13.6463   19.2835 C   0  0  2  0  0  0  0  0  0  0  0  0
    6.9008  -12.3551   19.5313 C   0  0  0  0  0  0  0  0  0  0  0  0
    7.8337  -14.4614   20.5161 C   0  0  0  0  0  0  0  0  0  0  0  0
    8.4914  -15.8000   20.2819 C   0  0  2  0  0  0  0  0  0  0  0  0
    7.4744  -16.6342   19.6498 N   0  0  0  0  0  0  0  0  0  0  0  0
    8.9455  -16.3612   21.5534 C   0  0  0  0  0  0  0  0  0  0  0  0
    8.1432  -16.8609   22.3800 O   0  0  0  0  0  0  0  0  0  0  0  0
   10.3225  -16.3897   21.9607 N   0  0  0  0  0  0  0  0  0  0  0  0
   10.7187  -16.8635   23.2725 C   0  0  1  0  0  0  0  0  0  0  0  0
   12.2058  -17.2097   23.1705 C   0  0  0  0  0  0  0  0  0  0  0  0
   12.6869  -17.9371   24.7692 S   0  0  0  0  0  0  0  0  0  0  0  0
   10.6068  -15.7961   24.3000 C   0  0  0  0  0  0  0  0  0  0  0  0
   10.5518  -14.5855   23.9609 O   0  0  0  0  0  0  0  0  0  0  0  0
   10.5608  -16.1336   25.6806 N   0  0  0  0  0  0  0  0  0  0  0  0
   10.3874  -15.1564   26.7258 C   0  0  1  0  0  0  0  0  0  0  0  0
    9.1217  -14.3479   26.5440 C   0  0  0  0  0  0  0  0  0  0  0  0
    8.9453  -13.1199   27.8663 S   0  0  0  0  0  0  0  0  0  0  0  0
   10.4824  -15.7550   28.0773 C   0  0  0  0  0  0  0  0  0  0  0  0
   10.7694  -14.9988   29.2020 O   0  0  0  0  0  0  0  0  0  0  0  0
   10.3007  -16.9863   28.2348 O   0  0  0  0  0  0  0  0  0  0  0  0
  2  1  1  1
  2  3  1  0
  4  2  1  0
  5  4  1  0
  5  6  1  1
  7  5  1  0
  7  8  2  0
  9  7  1  0
 10 13  1  0
 10  9  1  0
 10 11  1  6
 12 11  1  0
 13 15  1  0
 14 13  2  0
 15 16  1  0
 16 19  1  0
 17 18  1  0
 16 17  1  6
 19 21  2  0
 19 20  1  0
M  END
$$$$
