LCC.pdb
     RDKit          3D

 21 20  0  0  1  0  0  0  0  0999 V2000
   -1.1150  -19.7375   23.4723 C   0  0  0  0  0  0  0  0  0  0  0  0
   -0.8904  -21.1598   22.9567 C   0  0  2  0  0  0  0  0  0  0  0  0
   -0.9494  -21.1126   21.4619 C   0  0  0  0  0  0  0  0  0  0  0  0
   -1.9556  -22.0042   23.5760 C   0  0  0  0  0  0  0  0  0  0  0  0
   -1.9962  -21.9664   25.0846 C   0  0  2  0  0  0  0  0  0  0  0  0
   -0.7022  -22.4759   25.5272 N   0  0  0  0  0  0  0  0  0  0  0  0
   -3.1029  -22.7872   25.5740 C   0  0  0  0  0  0  0  0  0  0  0  0
   -4.2562  -22.7020   25.0849 O   0  0  0  0  0  0  0  0  0  0  0  0
   -2.9705  -23.7444   26.6366 N   0  0  0  0  0  0  0  0  0  0  0  0
   -4.0731  -24.5982   27.0337 C   0  0  1  0  0  0  0  0  0  0  0  0
   -3.4452  -25.8264   27.6962 C   0  0  0  0  0  0  0  0  0  0  0  0
   -2.5079  -26.7001   26.4021 S   0  0  0  0  0  0  0  0  0  0  0  0
   -4.9234  -23.9536   28.0676 C   0  0  0  0  0  0  0  0  0  0  0  0
   -4.4044  -23.2630   28.9827 O   0  0  0  0  0  0  0  0  0  0  0  0
   -6.3362  -24.1116   28.0326 N   0  0  0  0  0  0  0  0  0  0  0  0
   -7.2305  -23.4064   28.9161 C   0  0  1  0  0  0  0  0  0  0  0  0
   -8.1978  -22.5229   28.1594 C   0  0  0  0  0  0  0  0  0  0  0  0
   -7.3091  -21.2692   27.1974 S   0  0  0  0  0  0  0  0  0  0  0  0
   -7.9206  -24.3148   29.8608 C   0  0  0  0  0  0  0  0  0  0  0  0
   -8.6146  -23.8452   30.9640 O   0  0  0  0  0  0  0  0  0  0  0  0
   -7.8902  -25.5555   29.6772 O   0  0  0  0  0  0  0  0  0  0  0  0
  2  1  1  1
  2  3  1  0
  4  2  1  0
  5  4  1  0
  5  6  1  1
  7  5  1  0
  7  8  2  0
  9  7  1  0
 10 13  1  0
 10  9  1  0
 10 11  1  1
 12 11  1  0
 13 15  1  0
 14 13  2  0
 15 16  1  0
 16 19  1  0
 17 18  1  0
 16 17  1  6
 19 21  2  0
 19 20  1  0
M  END
$$$$
