LCC.pdb
     RDKit          3D

 21 20  0  0  1  0  0  0  0  0999 V2000
    9.0053  -14.1781   18.5911 C   0  0  0  0  0  0  0  0  0  0  0  0
    7.6365  -13.9479   19.2337 C   0  0  2  0  0  0  0  0  0  0  0  0
    6.9751  -12.8255   18.4970 C   0  0  0  0  0  0  0  0  0  0  0  0
    7.8932  -13.6546   20.6756 C   0  0  0  0  0  0  0  0  0  0  0  0
    8.4935  -14.7982   21.4572 C   0  0  2  0  0  0  0  0  0  0  0  0
    7.5854  -15.9249   21.2683 N   0  0  0  0  0  0  0  0  0  0  0  0
    8.6184  -14.4274   22.8661 C   0  0  0  0  0  0  0  0  0  0  0  0
    9.4076  -13.5278   23.2458 O   0  0  0  0  0  0  0  0  0  0  0  0
    7.8638  -15.0478   23.9190 N   0  0  0  0  0  0  0  0  0  0  0  0
    8.0856  -14.7147   25.3126 C   0  0  1  0  0  0  0  0  0  0  0  0
    6.7941  -15.0767   26.0492 C   0  0  0  0  0  0  0  0  0  0  0  0
    6.0895  -13.5172   26.6721 S   0  0  0  0  0  0  0  0  0  0  0  0
    9.1583  -15.5488   25.9137 C   0  0  0  0  0  0  0  0  0  0  0  0
    9.3570  -16.7237   25.5091 O   0  0  0  0  0  0  0  0  0  0  0  0
    9.9730  -15.0255   26.9550 N   0  0  0  0  0  0  0  0  0  0  0  0
   10.9917  -15.7966   27.6222 C   0  0  1  0  0  0  0  0  0  0  0  0
   11.7363  -14.9812   28.6564 C   0  0  0  0  0  0  0  0  0  0  0  0
   10.6357  -13.7710   29.4383 S   0  0  0  0  0  0  0  0  0  0  0  0
   10.4641  -17.0635   28.1793 C   0  0  0  0  0  0  0  0  0  0  0  0
   11.2958  -18.0771   28.6267 O   0  0  0  0  0  0  0  0  0  0  0  0
    9.2259  -17.2488   28.2593 O   0  0  0  0  0  0  0  0  0  0  0  0
  2  1  1  6
  2  3  1  0
  4  2  1  0
  5  4  1  0
  5  6  1  1
  7  5  1  0
  7  8  2  0
  9  7  1  0
 10 13  1  0
 10  9  1  0
 10 11  1  1
 12 11  1  0
 13 15  1  0
 14 13  2  0
 15 16  1  0
 16 19  1  0
 17 18  1  0
 16 17  1  1
 19 21  2  0
 19 20  1  0
M  END
$$$$
