LCC.pdb
     RDKit          3D

 21 20  0  0  1  0  0  0  0  0999 V2000
    6.0071  -14.1549   20.0164 C   0  0  0  0  0  0  0  0  0  0  0  0
    7.1781  -13.8229   20.9427 C   0  0  2  0  0  0  0  0  0  0  0  0
    7.7338  -12.5017   20.5119 C   0  0  0  0  0  0  0  0  0  0  0  0
    8.1459  -14.9539   20.8183 C   0  0  0  0  0  0  0  0  0  0  0  0
    9.2983  -14.9109   21.7926 C   0  0  2  0  0  0  0  0  0  0  0  0
   10.2143  -15.9643   21.3670 N   0  0  0  0  0  0  0  0  0  0  0  0
    8.8089  -15.1292   23.1530 C   0  0  0  0  0  0  0  0  0  0  0  0
    8.7604  -16.2757   23.6625 O   0  0  0  0  0  0  0  0  0  0  0  0
    8.3495  -14.0716   24.0095 N   0  0  0  0  0  0  0  0  0  0  0  0
    8.3106  -14.2222   25.4510 C   0  0  1  0  0  0  0  0  0  0  0  0
    7.5242  -13.0228   25.9847 C   0  0  0  0  0  0  0  0  0  0  0  0
    5.7856  -13.2797   25.5073 S   0  0  0  0  0  0  0  0  0  0  0  0
    7.5531  -15.4340   25.8575 C   0  0  0  0  0  0  0  0  0  0  0  0
    6.4337  -15.6908   25.3429 O   0  0  0  0  0  0  0  0  0  0  0  0
    8.0876  -16.3178   26.8348 N   0  0  0  0  0  0  0  0  0  0  0  0
    7.7524  -17.7181   26.8990 C   0  0  1  0  0  0  0  0  0  0  0  0
    7.8699  -18.3934   25.5502 C   0  0  0  0  0  0  0  0  0  0  0  0
    7.5762  -20.1767   25.6939 S   0  0  0  0  0  0  0  0  0  0  0  0
    8.5118  -18.4310   27.9520 C   0  0  0  0  0  0  0  0  0  0  0  0
    7.9404  -19.4235   28.7317 O   0  0  0  0  0  0  0  0  0  0  0  0
    9.7146  -18.1444   28.1643 O   0  0  0  0  0  0  0  0  0  0  0  0
  2  1  1  6
  2  3  1  0
  4  2  1  0
  5  4  1  0
  5  6  1  6
  7  5  1  0
  7  8  2  0
  9  7  1  0
 10 13  1  0
 10  9  1  0
 10 11  1  1
 12 11  1  0
 13 15  1  0
 14 13  2  0
 15 16  1  0
 16 19  1  0
 17 18  1  0
 16 17  1  6
 19 21  2  0
 19 20  1  0
M  END
$$$$
