WLA.pdb
     RDKit          3D

 28 29  0  0  1  0  0  0  0  0999 V2000
   17.5986   -9.4271  -13.4025 N   0  0  0  0  0  0  0  0  0  0  0  0
   18.0939   -8.3615  -12.5272 C   0  0  1  0  0  0  0  0  0  0  0  0
   19.2844   -7.6983  -13.1289 C   0  0  0  0  0  0  0  0  0  0  0  0
   20.5169   -8.5038  -13.0377 C   0  0  0  0  0  0  0  0  0  0  0  0
   21.1418   -9.1077  -14.1359 C   0  0  0  0  0  0  0  0  0  0  0  0
   22.2488   -9.7389  -13.7211 N   0  0  0  0  0  0  0  0  0  0  0  0
   22.3993   -9.5854  -12.3733 C   0  0  0  0  0  0  0  0  0  0  0  0
   23.3615  -10.0433  -11.4928 C   0  0  0  0  0  0  0  0  0  0  0  0
   23.2624   -9.7408  -10.1620 C   0  0  0  0  0  0  0  0  0  0  0  0
   22.1982   -8.9817   -9.7304 C   0  0  0  0  0  0  0  0  0  0  0  0
   21.2460   -8.5316  -10.6203 C   0  0  0  0  0  0  0  0  0  0  0  0
   21.3192   -8.8212  -11.9760 C   0  0  0  0  0  0  0  0  0  0  0  0
   16.9724   -7.5070  -12.1411 C   0  0  0  0  0  0  0  0  0  0  0  0
   16.0625   -7.2457  -13.0012 O   0  0  0  0  0  0  0  0  0  0  0  0
   13.2500   -7.1232   -9.3394 C   0  0  0  0  0  0  0  0  0  0  0  0
   14.6258   -7.3196   -8.7206 C   0  0  2  0  0  0  0  0  0  0  0  0
   14.4086   -7.4233   -7.2215 C   0  0  0  0  0  0  0  0  0  0  0  0
   15.4395   -6.1308   -9.0902 C   0  0  0  0  0  0  0  0  0  0  0  0
   15.6866   -5.9982  -10.5855 C   0  0  2  0  0  0  0  0  0  0  0  0
   16.7683   -6.9123  -10.8612 N   0  0  0  0  0  0  0  0  0  0  0  0
   16.0662   -4.6375  -10.9650 C   0  0  0  0  0  0  0  0  0  0  0  0
   17.1547   -4.0967  -10.5556 O   0  0  0  0  0  0  0  0  0  0  0  0
   14.9220   -2.1237  -13.4213 C   0  0  0  0  0  0  0  0  0  0  0  0
   15.7463   -2.4901  -12.1784 C   0  0  2  0  0  0  0  0  0  0  0  0
   15.2658   -3.8257  -11.8080 N   0  0  0  0  0  0  0  0  0  0  0  0
   15.5165   -1.4978  -11.1258 C   0  0  0  0  0  0  0  0  0  0  0  0
   15.9994   -0.3458  -11.0874 O   0  0  0  0  0  0  0  0  0  0  0  0
   14.6878   -1.8422  -10.0567 O   0  0  0  0  0  0  0  0  0  0  0  0
  2  1  1  6
  2 13  1  0
  3  2  1  0
  4  3  1  0
  5  4  2  0
  6  7  1  0
  6  5  1  0
  7 12  2  0
  8  9  2  0
  8  7  1  0
  9 10  1  0
 10 11  2  0
 12 11  1  0
 12  4  1  0
 13 14  2  0
 16 18  1  0
 16 15  1  6
 17 16  1  0
 19 18  1  1
 20 13  1  0
 20 19  1  0
 21 25  1  0
 21 19  1  0
 22 21  2  0
 24 23  1  6
 24 26  1  0
 24 25  1  0
 26 28  1  0
 27 26  2  0
M  END
$$$$
