WLA.pdb
     RDKit          3D

 28 29  0  0  1  0  0  0  0  0999 V2000
   14.2406  -19.4585    5.3511 N   0  0  0  0  0  0  0  0  0  0  0  0
   15.6012  -19.0109    5.0424 C   0  0  1  0  0  0  0  0  0  0  0  0
   15.5849  -17.6340    4.4738 C   0  0  0  0  0  0  0  0  0  0  0  0
   16.5456  -17.4402    3.3711 C   0  0  0  0  0  0  0  0  0  0  0  0
   16.8376  -18.4118    2.4057 C   0  0  0  0  0  0  0  0  0  0  0  0
   17.7241  -17.9137    1.5330 N   0  0  0  0  0  0  0  0  0  0  0  0
   18.0475  -16.6319    1.8726 C   0  0  0  0  0  0  0  0  0  0  0  0
   18.9050  -15.7122    1.2985 C   0  0  0  0  0  0  0  0  0  0  0  0
   19.0474  -14.4734    1.8621 C   0  0  0  0  0  0  0  0  0  0  0  0
   18.3268  -14.1722    2.9958 C   0  0  0  0  0  0  0  0  0  0  0  0
   17.4749  -15.0997    3.5573 C   0  0  0  0  0  0  0  0  0  0  0  0
   17.3086  -16.3641    3.0086 C   0  0  0  0  0  0  0  0  0  0  0  0
   16.4523  -19.2463    6.2073 C   0  0  0  0  0  0  0  0  0  0  0  0
   15.9115  -19.3734    7.3594 O   0  0  0  0  0  0  0  0  0  0  0  0
   22.2309  -20.6976    7.4073 C   0  0  0  0  0  0  0  0  0  0  0  0
   20.8436  -20.6379    8.0284 C   0  0  2  0  0  0  0  0  0  0  0  0
   20.5826  -22.0105    8.6226 C   0  0  0  0  0  0  0  0  0  0  0  0
   19.8933  -20.3094    6.9324 C   0  0  0  0  0  0  0  0  0  0  0  0
   18.6465  -19.5749    7.4020 C   0  0  2  0  0  0  0  0  0  0  0  0
   17.8739  -19.3596    6.2027 N   0  0  0  0  0  0  0  0  0  0  0  0
   18.9639  -18.2950    8.0350 C   0  0  0  0  0  0  0  0  0  0  0  0
   19.5417  -18.2271    9.1780 O   0  0  0  0  0  0  0  0  0  0  0  0
   19.3232  -14.8003    7.0733 C   0  0  0  0  0  0  0  0  0  0  0  0
   18.9535  -15.8114    8.1684 C   0  0  2  0  0  0  0  0  0  0  0  0
   18.6605  -17.0471    7.4342 N   0  0  0  0  0  0  0  0  0  0  0  0
   17.7992  -15.3186    8.9234 C   0  0  0  0  0  0  0  0  0  0  0  0
   16.6585  -15.8292    8.9333 O   0  0  0  0  0  0  0  0  0  0  0  0
   17.9580  -14.1777    9.7117 O   0  0  0  0  0  0  0  0  0  0  0  0
  2  1  1  1
  2 13  1  0
  3  2  1  0
  4  3  1  0
  5  4  2  0
  6  7  1  0
  6  5  1  0
  7 12  2  0
  8  9  2  0
  8  7  1  0
  9 10  1  0
 10 11  2  0
 12 11  1  0
 12  4  1  0
 13 14  2  0
 16 18  1  0
 16 15  1  6
 17 16  1  0
 19 18  1  6
 20 13  1  0
 20 19  1  0
 21 25  1  0
 21 19  1  0
 22 21  2  0
 24 23  1  6
 24 26  1  0
 24 25  1  0
 26 28  1  0
 27 26  2  0
M  END
$$$$
