WLA.pdb
     RDKit          3D

 28 29  0  0  1  0  0  0  0  0999 V2000
   26.6069  -18.3775   -8.7381 N   0  0  0  0  0  0  0  0  0  0  0  0
   26.8146  -19.7542   -9.1948 C   0  0  1  0  0  0  0  0  0  0  0  0
   26.6294  -20.7142   -8.0708 C   0  0  0  0  0  0  0  0  0  0  0  0
   27.1767  -20.2329   -6.7882 C   0  0  0  0  0  0  0  0  0  0  0  0
   26.4965  -19.3700   -5.9199 C   0  0  0  0  0  0  0  0  0  0  0  0
   27.2524  -19.1498   -4.8354 N   0  0  0  0  0  0  0  0  0  0  0  0
   28.4284  -19.8352   -4.9361 C   0  0  0  0  0  0  0  0  0  0  0  0
   29.5197  -19.9268   -4.0927 C   0  0  0  0  0  0  0  0  0  0  0  0
   30.5919  -20.6975   -4.4517 C   0  0  0  0  0  0  0  0  0  0  0  0
   30.5560  -21.3677   -5.6537 C   0  0  0  0  0  0  0  0  0  0  0  0
   29.4603  -21.2671   -6.4848 C   0  0  0  0  0  0  0  0  0  0  0  0
   28.3574  -20.4940   -6.1483 C   0  0  0  0  0  0  0  0  0  0  0  0
   26.0241  -19.9756  -10.4043 C   0  0  0  0  0  0  0  0  0  0  0  0
   24.9194  -19.3477  -10.5510 O   0  0  0  0  0  0  0  0  0  0  0  0
   27.3197  -19.2693  -14.7011 C   0  0  0  0  0  0  0  0  0  0  0  0
   27.8560  -20.5146  -14.0114 C   0  0  2  0  0  0  0  0  0  0  0  0
   28.8422  -21.1464  -14.9776 C   0  0  0  0  0  0  0  0  0  0  0  0
   26.6886  -21.3962  -13.7426 C   0  0  0  0  0  0  0  0  0  0  0  0
   25.6886  -20.8060  -12.7596 C   0  0  2  0  0  0  0  0  0  0  0  0
   26.3618  -20.8436  -11.4841 N   0  0  0  0  0  0  0  0  0  0  0  0
   24.4491  -21.5803  -12.6995 C   0  0  0  0  0  0  0  0  0  0  0  0
   24.4487  -22.8629  -12.6991 O   0  0  0  0  0  0  0  0  0  0  0  0
   20.8738  -20.9759  -12.0444 C   0  0  0  0  0  0  0  0  0  0  0  0
   21.9736  -21.8211  -12.7035 C   0  0  2  0  0  0  0  0  0  0  0  0
   23.1691  -20.9738  -12.6354 N   0  0  0  0  0  0  0  0  0  0  0  0
   21.5891  -22.1415  -14.0801 C   0  0  0  0  0  0  0  0  0  0  0  0
   20.6725  -22.9192  -14.4223 O   0  0  0  0  0  0  0  0  0  0  0  0
   22.2922  -21.5387  -15.1244 O   0  0  0  0  0  0  0  0  0  0  0  0
  2  1  1  1
  2 13  1  0
  3  2  1  0
  4  3  1  0
  5  4  2  0
  6  7  1  0
  6  5  1  0
  7 12  2  0
  8  9  2  0
  8  7  1  0
  9 10  1  0
 10 11  2  0
 12 11  1  0
 12  4  1  0
 13 14  2  0
 16 18  1  0
 16 15  1  6
 17 16  1  0
 19 18  1  6
 20 13  1  0
 20 19  1  0
 21 25  1  0
 21 19  1  0
 22 21  2  0
 24 23  1  6
 24 26  1  0
 24 25  1  0
 26 28  1  0
 27 26  2  0
M  END
$$$$
