WLA.pdb
     RDKit          3D

 28 29  0  0  1  0  0  0  0  0999 V2000
   24.3725  -19.4464   -9.3610 N   0  0  0  0  0  0  0  0  0  0  0  0
   25.6832  -20.0882   -9.4919 C   0  0  1  0  0  0  0  0  0  0  0  0
   25.7739  -21.2827   -8.6063 C   0  0  0  0  0  0  0  0  0  0  0  0
   25.7133  -20.9568   -7.1688 C   0  0  0  0  0  0  0  0  0  0  0  0
   24.6101  -21.2269   -6.3494 C   0  0  0  0  0  0  0  0  0  0  0  0
   24.8846  -20.8359   -5.0974 N   0  0  0  0  0  0  0  0  0  0  0  0
   26.1410  -20.3064   -5.0360 C   0  0  0  0  0  0  0  0  0  0  0  0
   26.8677  -19.7702   -3.9895 C   0  0  0  0  0  0  0  0  0  0  0  0
   28.1310  -19.2946   -4.2141 C   0  0  0  0  0  0  0  0  0  0  0  0
   28.6503  -19.3630   -5.4872 C   0  0  0  0  0  0  0  0  0  0  0  0
   27.9137  -19.9008   -6.5214 C   0  0  0  0  0  0  0  0  0  0  0  0
   26.6301  -20.3919   -6.3250 C   0  0  0  0  0  0  0  0  0  0  0  0
   25.9760  -20.2805  -10.9111 C   0  0  0  0  0  0  0  0  0  0  0  0
   25.3279  -19.6008  -11.7793 O   0  0  0  0  0  0  0  0  0  0  0  0
   30.0146  -19.6257  -12.1356 C   0  0  0  0  0  0  0  0  0  0  0  0
   29.7361  -21.0562  -11.6995 C   0  0  2  0  0  0  0  0  0  0  0  0
   31.0851  -21.7485  -11.6199 C   0  0  0  0  0  0  0  0  0  0  0  0
   28.8545  -21.6595  -12.7343 C   0  0  0  0  0  0  0  0  0  0  0  0
   27.4674  -21.0375  -12.7959 C   0  0  2  0  0  0  0  0  0  0  0  0
   26.9450  -21.1726  -11.4578 N   0  0  0  0  0  0  0  0  0  0  0  0
   26.5957  -21.7228  -13.7499 C   0  0  0  0  0  0  0  0  0  0  0  0
   26.8614  -21.7650  -15.0040 O   0  0  0  0  0  0  0  0  0  0  0  0
   24.0255  -24.2676  -13.7801 C   0  0  0  0  0  0  0  0  0  0  0  0
   24.5332  -22.9546  -14.3939 C   0  0  2  0  0  0  0  0  0  0  0  0
   25.4051  -22.3867  -13.3599 N   0  0  0  0  0  0  0  0  0  0  0  0
   23.3959  -22.0871  -14.7093 C   0  0  0  0  0  0  0  0  0  0  0  0
   23.0940  -21.0302  -14.1145 O   0  0  0  0  0  0  0  0  0  0  0  0
   22.5566  -22.4482  -15.7644 O   0  0  0  0  0  0  0  0  0  0  0  0
  2  1  1  6
  2 13  1  0
  3  2  1  0
  4  3  1  0
  5  4  2  0
  6  7  1  0
  6  5  1  0
  7 12  2  0
  8  9  2  0
  8  7  1  0
  9 10  1  0
 10 11  2  0
 12 11  1  0
 12  4  1  0
 13 14  2  0
 16 18  1  0
 16 15  1  6
 17 16  1  0
 19 18  1  1
 20 13  1  0
 20 19  1  0
 21 25  1  0
 21 19  1  0
 22 21  2  0
 24 23  1  1
 24 26  1  0
 24 25  1  0
 26 28  1  0
 27 26  2  0
M  END
$$$$
