WLA.pdb
     RDKit          3D

 28 29  0  0  1  0  0  0  0  0999 V2000
   26.4072  -21.1379  -12.1528 N   0  0  0  0  0  0  0  0  0  0  0  0
   25.4751  -20.5697  -11.1755 C   0  0  1  0  0  0  0  0  0  0  0  0
   24.0672  -20.8826  -11.5487 C   0  0  0  0  0  0  0  0  0  0  0  0
   23.5308  -20.0100  -12.6103 C   0  0  0  0  0  0  0  0  0  0  0  0
   24.1868  -19.7538  -13.8207 C   0  0  0  0  0  0  0  0  0  0  0  0
   23.4244  -18.9492  -14.5738 N   0  0  0  0  0  0  0  0  0  0  0  0
   22.2677  -18.6472  -13.9150 C   0  0  0  0  0  0  0  0  0  0  0  0
   21.1828  -17.8651  -14.2640 C   0  0  0  0  0  0  0  0  0  0  0  0
   20.1379  -17.7260  -13.3914 C   0  0  0  0  0  0  0  0  0  0  0  0
   20.1944  -18.3742  -12.1782 C   0  0  0  0  0  0  0  0  0  0  0  0
   21.2832  -19.1515  -11.8438 C   0  0  0  0  0  0  0  0  0  0  0  0
   22.3579  -19.3124  -12.7077 C   0  0  0  0  0  0  0  0  0  0  0  0
   25.9127  -20.9434   -9.8317 C   0  0  0  0  0  0  0  0  0  0  0  0
   26.1961  -22.1661   -9.5857 O   0  0  0  0  0  0  0  0  0  0  0  0
   29.2456  -20.3559   -6.7640 C   0  0  0  0  0  0  0  0  0  0  0  0
   28.4371  -19.1352   -7.1767 C   0  0  2  0  0  0  0  0  0  0  0  0
   29.0884  -17.9429   -6.4989 C   0  0  0  0  0  0  0  0  0  0  0  0
   27.0447  -19.3593   -6.7045 C   0  0  0  0  0  0  0  0  0  0  0  0
   26.3476  -20.5282   -7.3847 C   0  0  2  0  0  0  0  0  0  0  0  0
   26.0700  -20.0622   -8.7216 N   0  0  0  0  0  0  0  0  0  0  0  0
   25.1035  -20.8987   -6.7104 C   0  0  0  0  0  0  0  0  0  0  0  0
   24.0445  -20.1802   -6.7958 O   0  0  0  0  0  0  0  0  0  0  0  0
   23.7007  -23.8764   -5.0718 C   0  0  0  0  0  0  0  0  0  0  0  0
   23.7012  -22.3521   -5.2590 C   0  0  2  0  0  0  0  0  0  0  0  0
   24.9789  -22.0708   -5.9224 N   0  0  0  0  0  0  0  0  0  0  0  0
   23.5886  -21.6963   -3.9541 C   0  0  0  0  0  0  0  0  0  0  0  0
   24.4975  -21.0689   -3.3690 O   0  0  0  0  0  0  0  0  0  0  0  0
   22.3680  -21.7614   -3.2802 O   0  0  0  0  0  0  0  0  0  0  0  0
  2  1  1  6
  2 13  1  0
  3  2  1  0
  4  3  1  0
  5  4  2  0
  6  7  1  0
  6  5  1  0
  7 12  2  0
  8  9  2  0
  8  7  1  0
  9 10  1  0
 10 11  2  0
 12 11  1  0
 12  4  1  0
 13 14  2  0
 16 18  1  0
 16 15  1  1
 17 16  1  0
 19 18  1  1
 20 13  1  0
 20 19  1  0
 21 25  1  0
 21 19  1  0
 22 21  2  0
 24 23  1  1
 24 26  1  0
 24 25  1  0
 26 28  1  0
 27 26  2  0
M  END
$$$$
