WLA.pdb
     RDKit          3D

 28 29  0  0  1  0  0  0  0  0999 V2000
   27.9990  -20.9953  -14.1372 N   0  0  0  0  0  0  0  0  0  0  0  0
   27.0160  -20.1211  -13.4919 C   0  0  1  0  0  0  0  0  0  0  0  0
   26.0116  -19.6397  -14.4812 C   0  0  0  0  0  0  0  0  0  0  0  0
   26.5870  -18.7858  -15.5377 C   0  0  0  0  0  0  0  0  0  0  0  0
   26.8376  -19.2185  -16.8458 C   0  0  0  0  0  0  0  0  0  0  0  0
   27.3322  -18.1985  -17.5604 N   0  0  0  0  0  0  0  0  0  0  0  0
   27.4280  -17.0823  -16.7808 C   0  0  0  0  0  0  0  0  0  0  0  0
   27.8748  -15.8023  -17.0506 C   0  0  0  0  0  0  0  0  0  0  0  0
   27.8678  -14.8583  -16.0599 C   0  0  0  0  0  0  0  0  0  0  0  0
   27.4120  -15.2105  -14.8095 C   0  0  0  0  0  0  0  0  0  0  0  0
   26.9690  -16.4912  -14.5551 C   0  0  0  0  0  0  0  0  0  0  0  0
   26.9632  -17.4704  -15.5392 C   0  0  0  0  0  0  0  0  0  0  0  0
   26.5114  -20.7828  -12.2901 C   0  0  0  0  0  0  0  0  0  0  0  0
   26.4314  -22.0591  -12.2679 O   0  0  0  0  0  0  0  0  0  0  0  0
   27.8657  -21.4016   -8.3780 C   0  0  0  0  0  0  0  0  0  0  0  0
   27.3440  -19.9869   -8.5790 C   0  0  2  0  0  0  0  0  0  0  0  0
   27.7217  -19.2111   -7.3297 C   0  0  0  0  0  0  0  0  0  0  0  0
   25.8705  -20.0904   -8.7529 C   0  0  0  0  0  0  0  0  0  0  0  0
   25.4529  -20.8482  -10.0043 C   0  0  2  0  0  0  0  0  0  0  0  0
   26.0858  -20.1400  -11.0904 N   0  0  0  0  0  0  0  0  0  0  0  0
   24.0015  -20.8587  -10.1861 C   0  0  0  0  0  0  0  0  0  0  0  0
   23.2065  -21.2956   -9.2794 O   0  0  0  0  0  0  0  0  0  0  0  0
   21.5214  -19.4407  -12.5022 C   0  0  0  0  0  0  0  0  0  0  0  0
   21.9233  -20.5477  -11.5166 C   0  0  2  0  0  0  0  0  0  0  0  0
   23.3739  -20.3883  -11.3672 N   0  0  0  0  0  0  0  0  0  0  0  0
   21.5549  -21.8540  -12.0673 C   0  0  0  0  0  0  0  0  0  0  0  0
   22.3490  -22.7165  -12.5004 O   0  0  0  0  0  0  0  0  0  0  0  0
   20.2022  -22.1933  -12.1261 O   0  0  0  0  0  0  0  0  0  0  0  0
  2  1  1  6
  2 13  1  0
  3  2  1  0
  4  3  1  0
  5  4  2  0
  6  7  1  0
  6  5  1  0
  7 12  2  0
  8  9  2  0
  8  7  1  0
  9 10  1  0
 10 11  2  0
 12 11  1  0
 12  4  1  0
 13 14  2  0
 16 18  1  0
 16 15  1  1
 17 16  1  0
 19 18  1  1
 20 13  1  0
 20 19  1  0
 21 25  1  0
 21 19  1  0
 22 21  2  0
 24 23  1  6
 24 26  1  0
 24 25  1  0
 26 28  1  0
 27 26  2  0
M  END
$$$$
