WLA.pdb
     RDKit          3D

 28 29  0  0  1  0  0  0  0  0999 V2000
   17.3057  -13.0973  -17.8737 N   0  0  0  0  0  0  0  0  0  0  0  0
   18.3184  -12.1963  -18.4301 C   0  0  1  0  0  0  0  0  0  0  0  0
   17.8318  -11.5755  -19.6939 C   0  0  0  0  0  0  0  0  0  0  0  0
   17.9440  -12.4621  -20.8676 C   0  0  0  0  0  0  0  0  0  0  0  0
   17.3602  -13.7324  -20.9492 C   0  0  0  0  0  0  0  0  0  0  0  0
   17.6248  -14.2628  -22.1511 N   0  0  0  0  0  0  0  0  0  0  0  0
   18.3719  -13.3943  -22.8931 C   0  0  0  0  0  0  0  0  0  0  0  0
   18.8917  -13.4810  -24.1710 C   0  0  0  0  0  0  0  0  0  0  0  0
   19.6260  -12.4429  -24.6766 C   0  0  0  0  0  0  0  0  0  0  0  0
   19.8299  -11.3294  -23.8932 C   0  0  0  0  0  0  0  0  0  0  0  0
   19.3050  -11.2570  -22.6202 C   0  0  0  0  0  0  0  0  0  0  0  0
   18.5555  -12.2930  -22.0797 C   0  0  0  0  0  0  0  0  0  0  0  0
   18.7821  -11.2969  -17.3751 C   0  0  0  0  0  0  0  0  0  0  0  0
   17.9721  -10.9553  -16.4462 O   0  0  0  0  0  0  0  0  0  0  0  0
   23.8083  -10.2962  -14.3291 C   0  0  0  0  0  0  0  0  0  0  0  0
   22.4648   -9.6459  -14.6228 C   0  0  2  0  0  0  0  0  0  0  0  0
   21.6633   -9.7219  -13.3355 C   0  0  0  0  0  0  0  0  0  0  0  0
   21.8381  -10.4268  -15.7226 C   0  0  0  0  0  0  0  0  0  0  0  0
   20.4835   -9.8900  -16.1604 C   0  0  2  0  0  0  0  0  0  0  0  0
   20.0895  -10.7394  -17.2580 N   0  0  0  0  0  0  0  0  0  0  0  0
   20.5564   -8.4970  -16.6008 C   0  0  0  0  0  0  0  0  0  0  0  0
   21.3309   -8.1253  -17.5532 O   0  0  0  0  0  0  0  0  0  0  0  0
   18.5384   -5.4554  -16.1915 C   0  0  0  0  0  0  0  0  0  0  0  0
   19.8856   -6.1027  -16.5442 C   0  0  2  0  0  0  0  0  0  0  0  0
   19.7807   -7.4660  -16.0130 N   0  0  0  0  0  0  0  0  0  0  0  0
   20.9739   -5.3409  -15.9272 C   0  0  0  0  0  0  0  0  0  0  0  0
   21.6555   -5.7028  -14.9442 O   0  0  0  0  0  0  0  0  0  0  0  0
   21.3013   -4.0949  -16.4646 O   0  0  0  0  0  0  0  0  0  0  0  0
  2  1  1  1
  2 13  1  0
  3  2  1  0
  4  3  1  0
  5  4  2  0
  6  7  1  0
  6  5  1  0
  7 12  2  0
  8  9  2  0
  8  7  1  0
  9 10  1  0
 10 11  2  0
 12 11  1  0
 12  4  1  0
 13 14  2  0
 16 18  1  0
 16 15  1  1
 17 16  1  0
 19 18  1  6
 20 13  1  0
 20 19  1  0
 21 25  1  0
 21 19  1  0
 22 21  2  0
 24 23  1  1
 24 26  1  0
 24 25  1  0
 26 28  1  0
 27 26  2  0
M  END
$$$$
