WLA.pdb
     RDKit          3D

 28 29  0  0  1  0  0  0  0  0999 V2000
   25.7476  -19.7723  -17.3917 N   0  0  0  0  0  0  0  0  0  0  0  0
   25.1193  -19.1180  -16.2411 C   0  0  1  0  0  0  0  0  0  0  0  0
   24.1629  -18.0683  -16.6913 C   0  0  0  0  0  0  0  0  0  0  0  0
   24.8206  -16.8377  -17.1702 C   0  0  0  0  0  0  0  0  0  0  0  0
   24.6630  -16.3154  -18.4600 C   0  0  0  0  0  0  0  0  0  0  0  0
   25.3676  -15.1804  -18.5653 N   0  0  0  0  0  0  0  0  0  0  0  0
   26.0023  -14.9112  -17.3873 C   0  0  0  0  0  0  0  0  0  0  0  0
   26.8362  -13.8783  -17.0020 C   0  0  0  0  0  0  0  0  0  0  0  0
   27.3501  -13.8582  -15.7339 C   0  0  0  0  0  0  0  0  0  0  0  0
   27.0204  -14.8756  -14.8670 C   0  0  0  0  0  0  0  0  0  0  0  0
   26.1870  -15.8993  -15.2653 C   0  0  0  0  0  0  0  0  0  0  0  0
   25.6496  -15.9473  -16.5444 C   0  0  0  0  0  0  0  0  0  0  0  0
   24.6114  -20.1443  -15.3325 C   0  0  0  0  0  0  0  0  0  0  0  0
   24.2572  -21.2778  -15.8075 O   0  0  0  0  0  0  0  0  0  0  0  0
   26.5654  -22.4282  -12.7442 C   0  0  0  0  0  0  0  0  0  0  0  0
   26.2866  -21.0826  -12.0916 C   0  0  2  0  0  0  0  0  0  0  0  0
   27.1026  -21.0518  -10.8116 C   0  0  0  0  0  0  0  0  0  0  0  0
   24.8240  -21.0252  -11.8278 C   0  0  0  0  0  0  0  0  0  0  0  0
   23.9714  -21.0900  -13.0863 C   0  0  2  0  0  0  0  0  0  0  0  0
   24.4650  -20.0205  -13.9194 N   0  0  0  0  0  0  0  0  0  0  0  0
   22.5500  -20.8939  -12.8021 C   0  0  0  0  0  0  0  0  0  0  0  0
   21.8975  -21.6798  -12.0264 O   0  0  0  0  0  0  0  0  0  0  0  0
   19.9282  -18.3932  -13.6102 C   0  0  0  0  0  0  0  0  0  0  0  0
   20.3446  -19.8004  -13.1577 C   0  0  2  0  0  0  0  0  0  0  0  0
   21.7976  -19.8281  -13.3573 N   0  0  0  0  0  0  0  0  0  0  0  0
   19.6468  -20.8033  -13.9655 C   0  0  0  0  0  0  0  0  0  0  0  0
   20.1581  -21.5039  -14.8653 O   0  0  0  0  0  0  0  0  0  0  0  0
   18.2875  -21.0175  -13.7311 O   0  0  0  0  0  0  0  0  0  0  0  0
  2  1  1  6
  2 13  1  0
  3  2  1  0
  4  3  1  0
  5  4  2  0
  6  7  1  0
  6  5  1  0
  7 12  2  0
  8  9  2  0
  8  7  1  0
  9 10  1  0
 10 11  2  0
 12 11  1  0
 12  4  1  0
 13 14  2  0
 16 18  1  0
 16 15  1  1
 17 16  1  0
 19 18  1  1
 20 13  1  0
 20 19  1  0
 21 25  1  0
 21 19  1  0
 22 21  2  0
 24 23  1  6
 24 26  1  0
 24 25  1  0
 26 28  1  0
 27 26  2  0
M  END
$$$$
