WLA.pdb
     RDKit          3D

 28 29  0  0  1  0  0  0  0  0999 V2000
   21.8260  -19.5668  -13.6157 N   0  0  0  0  0  0  0  0  0  0  0  0
   22.2788  -20.7871  -14.2883 C   0  0  1  0  0  0  0  0  0  0  0  0
   21.4032  -21.1014  -15.4519 C   0  0  0  0  0  0  0  0  0  0  0  0
   20.0147  -21.4263  -15.0740 C   0  0  0  0  0  0  0  0  0  0  0  0
   18.9730  -20.4911  -15.0366 C   0  0  0  0  0  0  0  0  0  0  0  0
   17.8376  -21.1096  -14.6844 N   0  0  0  0  0  0  0  0  0  0  0  0
   18.0714  -22.4386  -14.4794 C   0  0  0  0  0  0  0  0  0  0  0  0
   17.2385  -23.4764  -14.1049 C   0  0  0  0  0  0  0  0  0  0  0  0
   17.7485  -24.7383  -13.9632 C   0  0  0  0  0  0  0  0  0  0  0  0
   19.0891  -24.9438  -14.1994 C   0  0  0  0  0  0  0  0  0  0  0  0
   19.9078  -23.8989  -14.5726 C   0  0  0  0  0  0  0  0  0  0  0  0
   19.4201  -22.6081  -14.7252 C   0  0  0  0  0  0  0  0  0  0  0  0
   23.7156  -20.6847  -14.5374 C   0  0  0  0  0  0  0  0  0  0  0  0
   24.1760  -19.6384  -15.1111 O   0  0  0  0  0  0  0  0  0  0  0  0
   27.2676  -19.1438  -13.3680 C   0  0  0  0  0  0  0  0  0  0  0  0
   26.6947  -20.2804  -12.5349 C   0  0  2  0  0  0  0  0  0  0  0  0
   27.4841  -20.2991  -11.2382 C   0  0  0  0  0  0  0  0  0  0  0  0
   26.8777  -21.5284  -13.3230 C   0  0  0  0  0  0  0  0  0  0  0  0
   26.0775  -21.5592  -14.6166 C   0  0  2  0  0  0  0  0  0  0  0  0
   24.7013  -21.6566  -14.1946 N   0  0  0  0  0  0  0  0  0  0  0  0
   26.4299  -22.7027  -15.4579 C   0  0  0  0  0  0  0  0  0  0  0  0
   27.6207  -22.8791  -15.9006 O   0  0  0  0  0  0  0  0  0  0  0  0
   25.0009  -25.9434  -16.3971 C   0  0  0  0  0  0  0  0  0  0  0  0
   25.9049  -24.7560  -16.7595 C   0  0  2  0  0  0  0  0  0  0  0  0
   25.4886  -23.6920  -15.8396 N   0  0  0  0  0  0  0  0  0  0  0  0
   25.7033  -24.3953  -18.1648 C   0  0  0  0  0  0  0  0  0  0  0  0
   25.0818  -23.3946  -18.5820 O   0  0  0  0  0  0  0  0  0  0  0  0
   26.2428  -25.2257  -19.1485 O   0  0  0  0  0  0  0  0  0  0  0  0
  2  1  1  6
  2 13  1  0
  3  2  1  0
  4  3  1  0
  5  4  2  0
  6  7  1  0
  6  5  1  0
  7 12  2  0
  8  9  2  0
  8  7  1  0
  9 10  1  0
 10 11  2  0
 12 11  1  0
 12  4  1  0
 13 14  2  0
 16 18  1  0
 16 15  1  6
 17 16  1  0
 19 18  1  1
 20 13  1  0
 20 19  1  0
 21 25  1  0
 21 19  1  0
 22 21  2  0
 24 23  1  1
 24 26  1  0
 24 25  1  0
 26 28  1  0
 27 26  2  0
M  END
$$$$
