WLA.pdb
     RDKit          3D

 28 29  0  0  1  0  0  0  0  0999 V2000
   15.5943  -19.4786    1.1168 N   0  0  0  0  0  0  0  0  0  0  0  0
   15.0361  -18.6588    2.1953 C   0  0  1  0  0  0  0  0  0  0  0  0
   13.8634  -19.3356    2.8166 C   0  0  0  0  0  0  0  0  0  0  0  0
   12.6859  -19.4064    1.9307 C   0  0  0  0  0  0  0  0  0  0  0  0
   12.2019  -20.5916    1.3631 C   0  0  0  0  0  0  0  0  0  0  0  0
   11.1091  -20.3186    0.6371 N   0  0  0  0  0  0  0  0  0  0  0  0
   10.8317  -18.9833    0.6906 C   0  0  0  0  0  0  0  0  0  0  0  0
    9.8304  -18.2237    0.1153 C   0  0  0  0  0  0  0  0  0  0  0  0
    9.7922  -16.8735    0.3341 C   0  0  0  0  0  0  0  0  0  0  0  0
   10.7602  -16.3013    1.1284 C   0  0  0  0  0  0  0  0  0  0  0  0
   11.7530  -17.0717    1.6959 C   0  0  0  0  0  0  0  0  0  0  0  0
   11.8180  -18.4436    1.4932 C   0  0  0  0  0  0  0  0  0  0  0  0
   16.1203  -18.2436    3.0835 C   0  0  0  0  0  0  0  0  0  0  0  0
   17.1017  -19.0391    3.2837 O   0  0  0  0  0  0  0  0  0  0  0  0
   19.2500  -15.2426    2.8801 C   0  0  0  0  0  0  0  0  0  0  0  0
   17.8493  -14.7120    3.1455 C   0  0  2  0  0  0  0  0  0  0  0  0
   17.9385  -13.2000    3.0398 C   0  0  0  0  0  0  0  0  0  0  0  0
   17.4697  -15.1589    4.5123 C   0  0  0  0  0  0  0  0  0  0  0  0
   17.3162  -16.6668    4.6434 C   0  0  2  0  0  0  0  0  0  0  0  0
   16.2129  -17.0002    3.7754 N   0  0  0  0  0  0  0  0  0  0  0  0
   17.0199  -17.0755    6.0163 C   0  0  0  0  0  0  0  0  0  0  0  0
   15.8494  -16.9490    6.5252 O   0  0  0  0  0  0  0  0  0  0  0  0
   18.7645  -18.8168    8.7838 C   0  0  0  0  0  0  0  0  0  0  0  0
   17.6568  -17.8787    8.2824 C   0  0  2  0  0  0  0  0  0  0  0  0
   17.9969  -17.6386    6.8758 N   0  0  0  0  0  0  0  0  0  0  0  0
   17.6558  -16.6493    9.0785 C   0  0  0  0  0  0  0  0  0  0  0  0
   17.9876  -15.5144    8.6736 O   0  0  0  0  0  0  0  0  0  0  0  0
   17.2525  -16.7214   10.4129 O   0  0  0  0  0  0  0  0  0  0  0  0
  2  1  1  6
  2 13  1  0
  3  2  1  0
  4  3  1  0
  5  4  2  0
  6  7  1  0
  6  5  1  0
  7 12  2  0
  8  9  2  0
  8  7  1  0
  9 10  1  0
 10 11  2  0
 12 11  1  0
 12  4  1  0
 13 14  2  0
 16 18  1  0
 16 15  1  1
 17 16  1  0
 19 18  1  1
 20 13  1  0
 20 19  1  0
 21 25  1  0
 21 19  1  0
 22 21  2  0
 24 23  1  1
 24 26  1  0
 24 25  1  0
 26 28  1  0
 27 26  2  0
M  END
$$$$
