WLA.pdb
     RDKit          3D

 28 29  0  0  1  0  0  0  0  0999 V2000
   26.8977  -21.2231  -15.2092 N   0  0  0  0  0  0  0  0  0  0  0  0
   26.4703  -20.2777  -14.1747 C   0  0  1  0  0  0  0  0  0  0  0  0
   25.5367  -19.2648  -14.7419 C   0  0  0  0  0  0  0  0  0  0  0  0
   26.1130  -18.4918  -15.8584 C   0  0  0  0  0  0  0  0  0  0  0  0
   25.3520  -17.8641  -16.8525 C   0  0  0  0  0  0  0  0  0  0  0  0
   26.1722  -17.2254  -17.6982 N   0  0  0  0  0  0  0  0  0  0  0  0
   27.4702  -17.3978  -17.3129 C   0  0  0  0  0  0  0  0  0  0  0  0
   28.6614  -16.9490  -17.8518 C   0  0  0  0  0  0  0  0  0  0  0  0
   29.8456  -17.2834  -17.2532 C   0  0  0  0  0  0  0  0  0  0  0  0
   29.8201  -18.0647  -16.1200 C   0  0  0  0  0  0  0  0  0  0  0  0
   28.6241  -18.5049  -15.5936 C   0  0  0  0  0  0  0  0  0  0  0  0
   27.4067  -18.1820  -16.1775 C   0  0  0  0  0  0  0  0  0  0  0  0
   26.0167  -21.0290  -13.0057 C   0  0  0  0  0  0  0  0  0  0  0  0
   25.7580  -22.2757  -13.1274 O   0  0  0  0  0  0  0  0  0  0  0  0
   27.6375  -21.8504   -9.2691 C   0  0  0  0  0  0  0  0  0  0  0  0
   27.0454  -20.4492   -9.2778 C   0  0  2  0  0  0  0  0  0  0  0  0
   27.4826  -19.7931   -7.9803 C   0  0  0  0  0  0  0  0  0  0  0  0
   25.5685  -20.6047   -9.3598 C   0  0  0  0  0  0  0  0  0  0  0  0
   25.0880  -21.2102  -10.6702 C   0  0  2  0  0  0  0  0  0  0  0  0
   25.8272  -20.5087  -11.6915 N   0  0  0  0  0  0  0  0  0  0  0  0
   23.6507  -21.0259  -10.8705 C   0  0  0  0  0  0  0  0  0  0  0  0
   22.7877  -21.4332  -10.0136 O   0  0  0  0  0  0  0  0  0  0  0  0
   21.4197  -19.1404  -13.1108 C   0  0  0  0  0  0  0  0  0  0  0  0
   21.6571  -20.3503  -12.1952 C   0  0  2  0  0  0  0  0  0  0  0  0
   23.1126  -20.3867  -12.0160 N   0  0  0  0  0  0  0  0  0  0  0  0
   21.1388  -21.5612  -12.8359 C   0  0  0  0  0  0  0  0  0  0  0  0
   21.8260  -22.5040  -13.2839 O   0  0  0  0  0  0  0  0  0  0  0  0
   19.7568  -21.7020  -12.9721 O   0  0  0  0  0  0  0  0  0  0  0  0
  2  1  1  6
  2 13  1  0
  3  2  1  0
  4  3  1  0
  5  4  2  0
  6  7  1  0
  6  5  1  0
  7 12  2  0
  8  9  2  0
  8  7  1  0
  9 10  1  0
 10 11  2  0
 12 11  1  0
 12  4  1  0
 13 14  2  0
 16 18  1  0
 16 15  1  1
 17 16  1  0
 19 18  1  1
 20 13  1  0
 20 19  1  0
 21 25  1  0
 21 19  1  0
 22 21  2  0
 24 23  1  6
 24 26  1  0
 24 25  1  0
 26 28  1  0
 27 26  2  0
M  END
$$$$
