WLA.pdb
     RDKit          3D

 28 29  0  0  1  0  0  0  0  0999 V2000
   23.2076  -21.1717  -10.5230 N   0  0  0  0  0  0  0  0  0  0  0  0
   23.1132  -21.5630   -9.1142 C   0  0  1  0  0  0  0  0  0  0  0  0
   23.8439  -20.5942   -8.2499 C   0  0  0  0  0  0  0  0  0  0  0  0
   25.3108  -20.6748   -8.3836 C   0  0  0  0  0  0  0  0  0  0  0  0
   25.9723  -21.0208   -9.5684 C   0  0  0  0  0  0  0  0  0  0  0  0
   27.2959  -20.9738   -9.3644 N   0  0  0  0  0  0  0  0  0  0  0  0
   27.5593  -20.6069   -8.0764 C   0  0  0  0  0  0  0  0  0  0  0  0
   28.7463  -20.4258   -7.3915 C   0  0  0  0  0  0  0  0  0  0  0  0
   28.7200  -20.0545   -6.0747 C   0  0  0  0  0  0  0  0  0  0  0  0
   27.5019  -19.8692   -5.4605 C   0  0  0  0  0  0  0  0  0  0  0  0
   26.3259  -20.0534   -6.1565 C   0  0  0  0  0  0  0  0  0  0  0  0
   26.3199  -20.4291   -7.4930 C   0  0  0  0  0  0  0  0  0  0  0  0
   21.7129  -21.8289   -8.7899 C   0  0  0  0  0  0  0  0  0  0  0  0
   20.8553  -20.8876   -8.9100 O   0  0  0  0  0  0  0  0  0  0  0  0
   18.1132  -22.9414  -10.6782 C   0  0  0  0  0  0  0  0  0  0  0  0
   19.3413  -23.8366  -10.6114 C   0  0  2  0  0  0  0  0  0  0  0  0
   19.1201  -24.9412  -11.6293 C   0  0  0  0  0  0  0  0  0  0  0  0
   19.4194  -24.3599   -9.2214 C   0  0  0  0  0  0  0  0  0  0  0  0
   19.7572  -23.2984   -8.1851 C   0  0  2  0  0  0  0  0  0  0  0  0
   21.1733  -23.0704   -8.3415 N   0  0  0  0  0  0  0  0  0  0  0  0
   19.4646  -23.7426   -6.8225 C   0  0  0  0  0  0  0  0  0  0  0  0
   20.3812  -24.1798   -6.0390 O   0  0  0  0  0  0  0  0  0  0  0  0
   16.4416  -24.0555   -4.6733 C   0  0  0  0  0  0  0  0  0  0  0  0
   17.9236  -24.3356   -4.9626 C   0  0  2  0  0  0  0  0  0  0  0  0
   18.1577  -23.7198   -6.2732 N   0  0  0  0  0  0  0  0  0  0  0  0
   18.1584  -25.7813   -4.9704 C   0  0  0  0  0  0  0  0  0  0  0  0
   18.0825  -26.5302   -5.9681 O   0  0  0  0  0  0  0  0  0  0  0  0
   18.4995  -26.4061   -3.7698 O   0  0  0  0  0  0  0  0  0  0  0  0
  2  1  1  6
  2 13  1  0
  3  2  1  0
  4  3  1  0
  5  4  2  0
  6  7  1  0
  6  5  1  0
  7 12  2  0
  8  9  2  0
  8  7  1  0
  9 10  1  0
 10 11  2  0
 12 11  1  0
 12  4  1  0
 13 14  2  0
 16 18  1  0
 16 15  1  1
 17 16  1  0
 19 18  1  6
 20 13  1  0
 20 19  1  0
 21 25  1  0
 21 19  1  0
 22 21  2  0
 24 23  1  6
 24 26  1  0
 24 25  1  0
 26 28  1  0
 27 26  2  0
M  END
$$$$
