WLA.pdb
     RDKit          3D

 28 29  0  0  1  0  0  0  0  0999 V2000
   26.4985  -22.8216  -12.3453 N   0  0  0  0  0  0  0  0  0  0  0  0
   25.8101  -21.5352  -12.2107 C   0  0  1  0  0  0  0  0  0  0  0  0
   26.7855  -20.4440  -11.9330 C   0  0  0  0  0  0  0  0  0  0  0  0
   27.6787  -20.7275  -10.7937 C   0  0  0  0  0  0  0  0  0  0  0  0
   29.0226  -21.0991  -10.9245 C   0  0  0  0  0  0  0  0  0  0  0  0
   29.5577  -21.2546   -9.7058 N   0  0  0  0  0  0  0  0  0  0  0  0
   28.6208  -21.0013   -8.7462 C   0  0  0  0  0  0  0  0  0  0  0  0
   28.6808  -21.0312   -7.3655 C   0  0  0  0  0  0  0  0  0  0  0  0
   27.5651  -20.7334   -6.6313 C   0  0  0  0  0  0  0  0  0  0  0  0
   26.4017  -20.4088   -7.2920 C   0  0  0  0  0  0  0  0  0  0  0  0
   26.3569  -20.3828   -8.6699 C   0  0  0  0  0  0  0  0  0  0  0  0
   27.4719  -20.6793   -9.4422 C   0  0  0  0  0  0  0  0  0  0  0  0
   24.9109  -21.3585  -13.3496 C   0  0  0  0  0  0  0  0  0  0  0  0
   25.2525  -20.5708  -14.2976 O   0  0  0  0  0  0  0  0  0  0  0  0
   25.4159  -24.7472  -15.8404 C   0  0  0  0  0  0  0  0  0  0  0  0
   24.1847  -24.2301  -15.1118 C   0  0  2  0  0  0  0  0  0  0  0  0
   23.0813  -25.2411  -15.3678 C   0  0  0  0  0  0  0  0  0  0  0  0
   23.8701  -22.8958  -15.6886 C   0  0  0  0  0  0  0  0  0  0  0  0
   22.9714  -22.0429  -14.8055 C   0  0  2  0  0  0  0  0  0  0  0  0
   23.6477  -21.9946  -13.5319 N   0  0  0  0  0  0  0  0  0  0  0  0
   21.6384  -22.6241  -14.6478 C   0  0  0  0  0  0  0  0  0  0  0  0
   20.8703  -22.8444  -15.6510 O   0  0  0  0  0  0  0  0  0  0  0  0
   19.3796  -23.8404  -12.0026 C   0  0  0  0  0  0  0  0  0  0  0  0
   19.6588  -22.8741  -13.1630 C   0  0  2  0  0  0  0  0  0  0  0  0
   21.1045  -22.9851  -13.3849 N   0  0  0  0  0  0  0  0  0  0  0  0
   19.2503  -21.5194  -12.7841 C   0  0  0  0  0  0  0  0  0  0  0  0
   20.0183  -20.5790  -12.4877 O   0  0  0  0  0  0  0  0  0  0  0  0
   17.8870  -21.2233  -12.7417 O   0  0  0  0  0  0  0  0  0  0  0  0
  2  1  1  6
  2 13  1  0
  3  2  1  0
  4  3  1  0
  5  4  2  0
  6  7  1  0
  6  5  1  0
  7 12  2  0
  8  9  2  0
  8  7  1  0
  9 10  1  0
 10 11  2  0
 12 11  1  0
 12  4  1  0
 13 14  2  0
 16 18  1  0
 16 15  1  6
 17 16  1  0
 19 18  1  6
 20 13  1  0
 20 19  1  0
 21 25  1  0
 21 19  1  0
 22 21  2  0
 24 23  1  1
 24 26  1  0
 24 25  1  0
 26 28  1  0
 27 26  2  0
M  END
$$$$
