WLA.pdb
     RDKit          3D

 28 29  0  0  1  0  0  0  0  0999 V2000
   26.0394  -18.3927   -9.4035 N   0  0  0  0  0  0  0  0  0  0  0  0
   26.3663  -19.8166   -9.5153 C   0  0  1  0  0  0  0  0  0  0  0  0
   26.3560  -20.4649   -8.1741 C   0  0  0  0  0  0  0  0  0  0  0  0
   27.1017  -19.7105   -7.1489 C   0  0  0  0  0  0  0  0  0  0  0  0
   27.0992  -18.3138   -7.0466 C   0  0  0  0  0  0  0  0  0  0  0  0
   27.8487  -17.9471   -5.9980 N   0  0  0  0  0  0  0  0  0  0  0  0
   28.3639  -19.0501   -5.3809 C   0  0  0  0  0  0  0  0  0  0  0  0
   29.1867  -19.1930   -4.2794 C   0  0  0  0  0  0  0  0  0  0  0  0
   29.5639  -20.4437   -3.8719 C   0  0  0  0  0  0  0  0  0  0  0  0
   29.1104  -21.5368   -4.5752 C   0  0  0  0  0  0  0  0  0  0  0  0
   28.2898  -21.3789   -5.6721 C   0  0  0  0  0  0  0  0  0  0  0  0
   27.8894  -20.1236   -6.1094 C   0  0  0  0  0  0  0  0  0  0  0  0
   25.5311  -20.4133  -10.5561 C   0  0  0  0  0  0  0  0  0  0  0  0
   24.2833  -20.1345  -10.5906 O   0  0  0  0  0  0  0  0  0  0  0  0
   28.2567  -19.3473  -14.0508 C   0  0  0  0  0  0  0  0  0  0  0  0
   28.4684  -20.6198  -13.2447 C   0  0  2  0  0  0  0  0  0  0  0  0
   29.7665  -21.2296  -13.7429 C   0  0  0  0  0  0  0  0  0  0  0  0
   27.2971  -21.4979  -13.5078 C   0  0  0  0  0  0  0  0  0  0  0  0
   25.9836  -20.9423  -12.9779 C   0  0  2  0  0  0  0  0  0  0  0  0
   25.9696  -21.3027  -11.5810 N   0  0  0  0  0  0  0  0  0  0  0  0
   24.8244  -21.5178  -13.6597 C   0  0  0  0  0  0  0  0  0  0  0  0
   24.6896  -21.4635  -14.9340 O   0  0  0  0  0  0  0  0  0  0  0  0
   21.9982  -23.7376  -12.8521 C   0  0  0  0  0  0  0  0  0  0  0  0
   22.5923  -22.6136  -13.7135 C   0  0  2  0  0  0  0  0  0  0  0  0
   23.7760  -22.1742  -12.9667 N   0  0  0  0  0  0  0  0  0  0  0  0
   21.6034  -21.5458  -13.8790 C   0  0  0  0  0  0  0  0  0  0  0  0
   21.6618  -20.4077  -13.3659 O   0  0  0  0  0  0  0  0  0  0  0  0
   20.4846  -21.7933  -14.6761 O   0  0  0  0  0  0  0  0  0  0  0  0
  2  1  1  1
  2 13  1  0
  3  2  1  0
  4  3  1  0
  5  4  2  0
  6  7  1  0
  6  5  1  0
  7 12  2  0
  8  9  2  0
  8  7  1  0
  9 10  1  0
 10 11  2  0
 12 11  1  0
 12  4  1  0
 13 14  2  0
 16 18  1  0
 16 15  1  6
 17 16  1  0
 19 18  1  6
 20 13  1  0
 20 19  1  0
 21 25  1  0
 21 19  1  0
 22 21  2  0
 24 23  1  1
 24 26  1  0
 24 25  1  0
 26 28  1  0
 27 26  2  0
M  END
$$$$
