NRF.pdb
     RDKit          3D

 31 31  0  0  1  0  0  0  0  0999 V2000
    9.6078  -14.1904   16.8135 N   0  0  0  0  0  0  0  0  0  0  0  0
    8.4205  -13.6002   17.2743 C   0  0  0  0  0  0  0  0  0  0  0  0
    7.7773  -12.7264   16.6378 O   0  0  0  0  0  0  0  0  0  0  0  0
    7.8637  -14.0066   18.5828 C   0  0  0  0  0  0  0  0  0  0  0  0
    8.6871  -15.0652   19.2799 C   0  0  2  0  0  0  0  0  0  0  0  0
    8.9163  -16.2344   18.4949 N   0  0  0  0  0  0  0  0  0  0  0  0
    8.0998  -15.3292   20.6096 C   0  0  0  0  0  0  0  0  0  0  0  0
    7.0006  -14.8291   20.9620 O   0  0  0  0  0  0  0  0  0  0  0  0
    6.9800  -21.9454   25.4987 N   0  0  0  0  0  0  0  0  0  0  0  0
    5.9592  -22.0473   24.5223 C   0  0  0  0  0  0  0  0  0  0  0  0
    4.8851  -22.6965   24.8696 N   0  0  0  0  0  0  0  0  0  0  0  0
    6.0532  -21.4949   23.2290 N   0  0  0  0  0  0  0  0  0  0  0  0
    7.2283  -20.7708   22.7463 C   0  0  0  0  0  0  0  0  0  0  0  0
    7.2208  -19.3474   23.1937 C   0  0  0  0  0  0  0  0  0  0  0  0
    7.7847  -18.4130   22.2180 C   0  0  0  0  0  0  0  0  0  0  0  0
    7.9794  -16.9856   22.5028 C   0  0  2  0  0  0  0  0  0  0  0  0
    8.7280  -16.1696   21.6046 N   0  0  0  0  0  0  0  0  0  0  0  0
    8.5039  -16.7242   23.8817 C   0  0  0  0  0  0  0  0  0  0  0  0
    9.7330  -16.7621   24.1273 O   0  0  0  0  0  0  0  0  0  0  0  0
    4.0412  -22.7704   24.2654 N   0  0  0  0  0  0  0  0  0  0  0  0
    7.6342  -16.4226   24.9667 C   0  0  2  0  0  0  0  0  0  0  0  0
    8.1419  -16.1341   26.3126 C   0  0  0  0  0  0  0  0  0  0  0  0
    7.1274  -15.3432   27.0960 C   0  0  0  0  0  0  0  0  0  0  0  0
    7.0573  -13.9283   26.6816 C   0  0  0  0  0  0  0  0  0  0  0  0
    5.8671  -13.2278   26.6232 C   0  0  0  0  0  0  0  0  0  0  0  0
    5.8959  -11.9079   26.2447 C   0  0  0  0  0  0  0  0  0  0  0  0
    7.0448  -11.2394   25.9189 C   0  0  0  0  0  0  0  0  0  0  0  0
    8.2286  -11.9400   25.9779 C   0  0  0  0  0  0  0  0  0  0  0  0
    8.2272  -13.2545   26.3517 C   0  0  0  0  0  0  0  0  0  0  0  0
    8.5678  -17.3727   26.9904 O   0  0  0  0  0  0  0  0  0  0  0  0
    9.5607  -17.3311   27.9775 O   0  0  0  0  0  0  0  0  0  0  0  0
  2  1  1  0
  3  2  2  0
  4  2  1  0
  5  4  1  0
  5  6  1  6
  7  8  2  0
  7  5  1  0
  9 10  1  0
 10 12  1  0
 10 11  2  0
 12 13  1  0
 14 13  1  0
 15 14  1  0
 16 15  1  6
 16 17  1  0
 17  7  1  0
 18 16  1  0
 19 18  2  0
 20 18  1  0
 21 20  1  0
 22 23  1  0
 21 22  1  6
 23 28  2  0
 24 25  2  0
 24 23  1  0
 25 26  1  0
 26 27  2  0
 28 27  1  0
 29 21  1  0
 29 30  1  0
 31 29  2  0
M  END
$$$$
