NRF.pdb
     RDKit          3D

 31 31  0  0  1  0  0  0  0  0999 V2000
    7.1972  -15.3055   15.0499 N   0  0  0  0  0  0  0  0  0  0  0  0
    7.9801  -14.3233   15.6766 C   0  0  0  0  0  0  0  0  0  0  0  0
    8.9918  -13.7909   15.1518 O   0  0  0  0  0  0  0  0  0  0  0  0
    7.6228  -13.8631   17.0359 C   0  0  0  0  0  0  0  0  0  0  0  0
    8.7698  -13.9487   18.0166 C   0  0  2  0  0  0  0  0  0  0  0  0
   10.0420  -14.1615   17.4068 N   0  0  0  0  0  0  0  0  0  0  0  0
    8.4270  -14.9271   19.0692 C   0  0  0  0  0  0  0  0  0  0  0  0
    7.2916  -14.9510   19.6103 O   0  0  0  0  0  0  0  0  0  0  0  0
   10.2731  -19.5806   17.0206 N   0  0  0  0  0  0  0  0  0  0  0  0
    9.8610  -20.8111   17.5876 C   0  0  0  0  0  0  0  0  0  0  0  0
    9.6455  -21.7908   16.7572 N   0  0  0  0  0  0  0  0  0  0  0  0
    9.6775  -21.0151   18.9701 N   0  0  0  0  0  0  0  0  0  0  0  0
   10.3900  -20.2566   19.9974 C   0  0  0  0  0  0  0  0  0  0  0  0
   10.3092  -18.7869   19.7529 C   0  0  0  0  0  0  0  0  0  0  0  0
    9.7510  -18.0263   20.8722 C   0  0  0  0  0  0  0  0  0  0  0  0
    9.0703  -16.7369   20.6980 C   0  0  2  0  0  0  0  0  0  0  0  0
    9.3519  -15.9238   19.5611 N   0  0  0  0  0  0  0  0  0  0  0  0
    9.1564  -15.8551   21.9063 C   0  0  0  0  0  0  0  0  0  0  0  0
   10.1290  -15.0827   22.0790 O   0  0  0  0  0  0  0  0  0  0  0  0
    9.3672  -22.7465   17.0602 N   0  0  0  0  0  0  0  0  0  0  0  0
    8.1427  -15.8557   22.9049 C   0  0  2  0  0  0  0  0  0  0  0  0
    8.1835  -14.9447   24.0542 C   0  0  0  0  0  0  0  0  0  0  0  0
    6.9964  -14.0181   24.0296 C   0  0  0  0  0  0  0  0  0  0  0  0
    6.9429  -13.1216   25.2010 C   0  0  0  0  0  0  0  0  0  0  0  0
    7.6162  -11.9152   25.2465 C   0  0  0  0  0  0  0  0  0  0  0  0
    7.4958  -11.1340   26.3696 C   0  0  0  0  0  0  0  0  0  0  0  0
    6.7412  -11.4834   27.4565 C   0  0  0  0  0  0  0  0  0  0  0  0
    6.0720  -12.6856   27.4082 C   0  0  0  0  0  0  0  0  0  0  0  0
    6.1751  -13.4816   26.3020 C   0  0  0  0  0  0  0  0  0  0  0  0
    8.3126  -15.6964   25.3164 O   0  0  0  0  0  0  0  0  0  0  0  0
    9.1591  -15.2315   26.3309 O   0  0  0  0  0  0  0  0  0  0  0  0
  2  1  1  0
  3  2  2  0
  4  2  1  0
  5  4  1  0
  5  6  1  6
  7  8  2  0
  7  5  1  0
  9 10  1  0
 10 12  1  0
 10 11  2  0
 12 13  1  0
 14 13  1  0
 15 14  1  0
 16 15  1  1
 16 17  1  0
 17  7  1  0
 18 16  1  0
 19 18  2  0
 20 18  1  0
 21 20  1  0
 22 23  1  0
 21 22  1  6
 23 28  2  0
 24 25  2  0
 24 23  1  0
 25 26  1  0
 26 27  2  0
 28 27  1  0
 29 21  1  0
 29 30  1  0
 31 29  2  0
M  END
$$$$
