NRF.pdb
     RDKit          3D

 31 31  0  0  1  0  0  0  0  0999 V2000
    9.2642  -12.9627   16.9917 N   0  0  0  0  0  0  0  0  0  0  0  0
    7.9154  -13.2775   17.2202 C   0  0  0  0  0  0  0  0  0  0  0  0
    6.9989  -13.0938   16.3785 O   0  0  0  0  0  0  0  0  0  0  0  0
    7.5123  -13.8617   18.5177 C   0  0  0  0  0  0  0  0  0  0  0  0
    8.6306  -13.8891   19.5342 C   0  0  2  0  0  0  0  0  0  0  0  0
    9.8568  -14.4216   19.0357 N   0  0  0  0  0  0  0  0  0  0  0  0
    8.1403  -14.5387   20.7672 C   0  0  0  0  0  0  0  0  0  0  0  0
    7.0709  -14.1830   21.3259 O   0  0  0  0  0  0  0  0  0  0  0  0
    8.6629  -19.7200   18.4647 N   0  0  0  0  0  0  0  0  0  0  0  0
    7.3588  -20.2475   18.6278 C   0  0  0  0  0  0  0  0  0  0  0  0
    6.7348  -20.6021   17.5411 N   0  0  0  0  0  0  0  0  0  0  0  0
    6.7249  -20.3992   19.8775 N   0  0  0  0  0  0  0  0  0  0  0  0
    7.2925  -19.9091   21.1329 C   0  0  0  0  0  0  0  0  0  0  0  0
    7.2176  -18.4220   21.2283 C   0  0  0  0  0  0  0  0  0  0  0  0
    8.0591  -17.8491   22.2803 C   0  0  0  0  0  0  0  0  0  0  0  0
    8.2369  -16.4023   22.4583 C   0  0  2  0  0  0  0  0  0  0  0  0
    8.8366  -15.6202   21.4278 N   0  0  0  0  0  0  0  0  0  0  0  0
    8.9215  -16.0445   23.7421 C   0  0  0  0  0  0  0  0  0  0  0  0
   10.1607  -15.8585   23.7877 O   0  0  0  0  0  0  0  0  0  0  0  0
    5.8004  -21.0599   17.5418 N   0  0  0  0  0  0  0  0  0  0  0  0
    8.1983  -15.9006   24.9590 C   0  0  2  0  0  0  0  0  0  0  0  0
    8.8655  -15.5835   26.2266 C   0  0  0  0  0  0  0  0  0  0  0  0
    7.8987  -14.9269   27.1766 C   0  0  0  0  0  0  0  0  0  0  0  0
    7.3165  -13.6832   26.6355 C   0  0  0  0  0  0  0  0  0  0  0  0
    8.0726  -12.7331   25.9750 C   0  0  0  0  0  0  0  0  0  0  0  0
    7.4455  -11.6130   25.4868 C   0  0  0  0  0  0  0  0  0  0  0  0
    6.1033  -11.3802   25.6174 C   0  0  0  0  0  0  0  0  0  0  0  0
    5.3529  -12.3283   26.2760 C   0  0  0  0  0  0  0  0  0  0  0  0
    5.9528  -13.4520   26.7712 C   0  0  0  0  0  0  0  0  0  0  0  0
    9.5183  -16.7797   26.7906 O   0  0  0  0  0  0  0  0  0  0  0  0
   10.3777  -16.6618   27.8904 O   0  0  0  0  0  0  0  0  0  0  0  0
  2  1  1  0
  3  2  2  0
  4  2  1  0
  5  4  1  0
  5  6  1  6
  7  8  2  0
  7  5  1  0
  9 10  1  0
 10 12  1  0
 10 11  2  0
 12 13  1  0
 14 13  1  0
 15 14  1  0
 16 15  1  6
 16 17  1  0
 17  7  1  0
 18 16  1  0
 19 18  2  0
 20 18  1  0
 21 20  1  0
 22 23  1  0
 21 22  1  6
 23 28  2  0
 24 25  2  0
 24 23  1  0
 25 26  1  0
 26 27  2  0
 28 27  1  0
 29 21  1  0
 29 30  1  0
 31 29  2  0
M  END
$$$$
