NRF.pdb
     RDKit          3D

 31 31  0  0  1  0  0  0  0  0999 V2000
   11.5651  -11.8997   18.7541 N   0  0  0  0  0  0  0  0  0  0  0  0
   10.7807  -12.9624   18.2789 C   0  0  0  0  0  0  0  0  0  0  0  0
   10.7796  -13.3550   17.0839 O   0  0  0  0  0  0  0  0  0  0  0  0
    9.8904  -13.6862   19.2120 C   0  0  0  0  0  0  0  0  0  0  0  0
   10.6164  -14.7010   20.0649 C   0  0  2  0  0  0  0  0  0  0  0  0
   11.1831  -15.7825   19.3266 N   0  0  0  0  0  0  0  0  0  0  0  0
    9.7307  -15.1165   21.1719 C   0  0  0  0  0  0  0  0  0  0  0  0
    9.0940  -14.2806   21.8634 O   0  0  0  0  0  0  0  0  0  0  0  0
    8.5217  -21.9831   17.9572 N   0  0  0  0  0  0  0  0  0  0  0  0
    8.1310  -21.0578   18.9556 C   0  0  0  0  0  0  0  0  0  0  0  0
    7.9478  -19.8279   18.5690 N   0  0  0  0  0  0  0  0  0  0  0  0
    7.9393  -21.3996   20.3095 N   0  0  0  0  0  0  0  0  0  0  0  0
    7.4715  -20.4524   21.3206 C   0  0  0  0  0  0  0  0  0  0  0  0
    8.2340  -19.1708   21.2700 C   0  0  0  0  0  0  0  0  0  0  0  0
    7.8264  -18.1944   22.2816 C   0  0  0  0  0  0  0  0  0  0  0  0
    8.4959  -16.8987   22.4530 C   0  0  2  0  0  0  0  0  0  0  0  0
    9.5242  -16.4967   21.5509 N   0  0  0  0  0  0  0  0  0  0  0  0
    9.0138  -16.6803   23.8419 C   0  0  0  0  0  0  0  0  0  0  0  0
   10.2418  -16.7244   24.0918 O   0  0  0  0  0  0  0  0  0  0  0  0
    7.6185  -19.0720   19.2037 N   0  0  0  0  0  0  0  0  0  0  0  0
    8.1388  -16.4142   24.9319 C   0  0  2  0  0  0  0  0  0  0  0  0
    8.6327  -16.2558   26.3042 C   0  0  0  0  0  0  0  0  0  0  0  0
    7.6135  -15.5355   27.1472 C   0  0  0  0  0  0  0  0  0  0  0  0
    7.3137  -14.1779   26.6514 C   0  0  0  0  0  0  0  0  0  0  0  0
    8.0238  -13.0635   27.0571 C   0  0  0  0  0  0  0  0  0  0  0  0
    7.6895  -11.8400   26.5304 C   0  0  0  0  0  0  0  0  0  0  0  0
    6.6850  -11.6578   25.6190 C   0  0  0  0  0  0  0  0  0  0  0  0
    5.9795  -12.7697   25.2170 C   0  0  0  0  0  0  0  0  0  0  0  0
    6.2924  -13.9989   25.7260 C   0  0  0  0  0  0  0  0  0  0  0  0
    9.0448  -17.5549   26.8677 O   0  0  0  0  0  0  0  0  0  0  0  0
    8.6370  -18.7489   26.2595 O   0  0  0  0  0  0  0  0  0  0  0  0
  2  1  1  0
  3  2  2  0
  4  2  1  0
  5  4  1  0
  5  6  1  6
  7  8  2  0
  7  5  1  0
  9 10  1  0
 10 12  1  0
 10 11  2  0
 12 13  1  0
 14 13  1  0
 15 14  1  0
 16 15  1  1
 16 17  1  0
 17  7  1  0
 18 16  1  0
 19 18  2  0
 20 18  1  0
 21 20  1  0
 22 23  1  0
 21 22  1  6
 23 28  2  0
 24 25  2  0
 24 23  1  0
 25 26  1  0
 26 27  2  0
 28 27  1  0
 29 21  1  0
 29 30  1  0
 31 29  2  0
M  END
$$$$
