NRF.pdb
     RDKit          3D

 31 31  0  0  1  0  0  0  0  0999 V2000
   14.7449  -14.1620   18.3175 N   0  0  0  0  0  0  0  0  0  0  0  0
   14.5404  -14.3633   19.6916 C   0  0  0  0  0  0  0  0  0  0  0  0
   15.4582  -14.6443   20.5046 O   0  0  0  0  0  0  0  0  0  0  0  0
   13.1765  -14.2456   20.2512 C   0  0  0  0  0  0  0  0  0  0  0  0
   12.7196  -15.4891   20.9788 C   0  0  2  0  0  0  0  0  0  0  0  0
   12.5738  -16.6337   20.1394 N   0  0  0  0  0  0  0  0  0  0  0  0
   11.5206  -15.1624   21.7778 C   0  0  0  0  0  0  0  0  0  0  0  0
   11.4905  -14.1766   22.5586 O   0  0  0  0  0  0  0  0  0  0  0  0
    8.0794  -15.0247   17.3668 N   0  0  0  0  0  0  0  0  0  0  0  0
    8.0686  -13.7365   17.9550 C   0  0  0  0  0  0  0  0  0  0  0  0
    8.7107  -12.8004   17.3168 N   0  0  0  0  0  0  0  0  0  0  0  0
    7.4142  -13.4328   19.1659 N   0  0  0  0  0  0  0  0  0  0  0  0
    6.7012  -14.4268   19.9670 C   0  0  0  0  0  0  0  0  0  0  0  0
    7.5811  -15.5756   20.3307 C   0  0  0  0  0  0  0  0  0  0  0  0
    7.7986  -15.7274   21.7703 C   0  0  0  0  0  0  0  0  0  0  0  0
    9.1087  -15.5279   22.4031 C   0  0  2  0  0  0  0  0  0  0  0  0
   10.2995  -15.9355   21.7332 N   0  0  0  0  0  0  0  0  0  0  0  0
    9.1787  -16.0665   23.7995 C   0  0  0  0  0  0  0  0  0  0  0  0
   10.0392  -16.9185   24.1249 O   0  0  0  0  0  0  0  0  0  0  0  0
    8.7870  -11.8219   17.6621 N   0  0  0  0  0  0  0  0  0  0  0  0
    8.2764  -15.6359   24.8120 C   0  0  1  0  0  0  0  0  0  0  0  0
    8.3186  -16.1808   26.1735 C   0  0  0  0  0  0  0  0  0  0  0  0
    7.3435  -15.4511   27.0595 C   0  0  0  0  0  0  0  0  0  0  0  0
    7.3522  -13.9910   26.8434 C   0  0  0  0  0  0  0  0  0  0  0  0
    8.4726  -13.2123   27.0650 C   0  0  0  0  0  0  0  0  0  0  0  0
    8.3977  -11.8631   26.8201 C   0  0  0  0  0  0  0  0  0  0  0  0
    7.2681  -11.2385   26.3654 C   0  0  0  0  0  0  0  0  0  0  0  0
    6.1538  -12.0167   26.1459 C   0  0  0  0  0  0  0  0  0  0  0  0
    6.2022  -13.3620   26.3817 C   0  0  0  0  0  0  0  0  0  0  0  0
    8.1176  -17.6418   26.1615 O   0  0  0  0  0  0  0  0  0  0  0  0
    8.5295  -18.4195   27.2512 O   0  0  0  0  0  0  0  0  0  0  0  0
  2  1  1  0
  3  2  2  0
  4  2  1  0
  5  4  1  0
  5  6  1  6
  7  8  2  0
  7  5  1  0
  9 10  1  0
 10 12  1  0
 10 11  2  0
 12 13  1  0
 14 13  1  0
 15 14  1  0
 16 15  1  6
 16 17  1  0
 17  7  1  0
 18 16  1  0
 19 18  2  0
 20 18  1  0
 21 20  1  0
 22 23  1  0
 21 22  1  1
 23 28  2  0
 24 25  2  0
 24 23  1  0
 25 26  1  0
 26 27  2  0
 28 27  1  0
 29 21  1  0
 29 30  1  0
 31 29  2  0
M  END
$$$$
