NRF.pdb
     RDKit          3D

 31 31  0  0  1  0  0  0  0  0999 V2000
    7.2152  -22.0657   20.7408 N   0  0  0  0  0  0  0  0  0  0  0  0
    6.3458  -21.0970   20.2153 C   0  0  0  0  0  0  0  0  0  0  0  0
    5.4669  -21.3383   19.3483 O   0  0  0  0  0  0  0  0  0  0  0  0
    6.4409  -19.6985   20.6868 C   0  0  0  0  0  0  0  0  0  0  0  0
    7.4939  -19.4973   21.7524 C   0  0  2  0  0  0  0  0  0  0  0  0
    7.0541  -19.8151   23.0720 N   0  0  0  0  0  0  0  0  0  0  0  0
    8.0657  -18.1425   21.6100 C   0  0  0  0  0  0  0  0  0  0  0  0
    9.1656  -17.9424   21.0334 O   0  0  0  0  0  0  0  0  0  0  0  0
    8.5509  -12.4532   16.6705 N   0  0  0  0  0  0  0  0  0  0  0  0
    8.5447  -13.7078   17.3275 C   0  0  0  0  0  0  0  0  0  0  0  0
    8.6643  -14.7610   16.5709 N   0  0  0  0  0  0  0  0  0  0  0  0
    8.4165  -13.8617   18.7226 N   0  0  0  0  0  0  0  0  0  0  0  0
    7.8885  -12.8199   19.6024 C   0  0  0  0  0  0  0  0  0  0  0  0
    7.8539  -13.2659   21.0259 C   0  0  0  0  0  0  0  0  0  0  0  0
    7.3041  -14.6092   21.2164 C   0  0  0  0  0  0  0  0  0  0  0  0
    7.9985  -15.6526   21.9815 C   0  0  2  0  0  0  0  0  0  0  0  0
    7.4219  -16.9499   22.1141 N   0  0  0  0  0  0  0  0  0  0  0  0
    8.4078  -15.2069   23.3522 C   0  0  0  0  0  0  0  0  0  0  0  0
    7.9598  -14.1477   23.8518 O   0  0  0  0  0  0  0  0  0  0  0  0
    8.7135  -15.7308   16.9446 N   0  0  0  0  0  0  0  0  0  0  0  0
    9.3179  -15.9631   24.1425 C   0  0  1  0  0  0  0  0  0  0  0  0
    9.5991  -15.6243   25.5420 C   0  0  0  0  0  0  0  0  0  0  0  0
    8.3259  -15.6251   26.3464 C   0  0  0  0  0  0  0  0  0  0  0  0
    7.6359  -14.3203   26.3314 C   0  0  0  0  0  0  0  0  0  0  0  0
    6.2804  -14.1977   26.0897 C   0  0  0  0  0  0  0  0  0  0  0  0
    5.7164  -12.9457   26.1130 C   0  0  0  0  0  0  0  0  0  0  0  0
    6.4243  -11.8018   26.3639 C   0  0  0  0  0  0  0  0  0  0  0  0
    7.7742  -11.9272   26.6041 C   0  0  0  0  0  0  0  0  0  0  0  0
    8.3599  -13.1619   26.5867 C   0  0  0  0  0  0  0  0  0  0  0  0
   10.6421  -16.5070   26.0971 O   0  0  0  0  0  0  0  0  0  0  0  0
   11.1739  -16.2575   27.3687 O   0  0  0  0  0  0  0  0  0  0  0  0
  2  1  1  0
  3  2  2  0
  4  2  1  0
  5  4  1  0
  5  6  1  1
  7  8  2  0
  7  5  1  0
  9 10  1  0
 10 12  1  0
 10 11  2  0
 12 13  1  0
 14 13  1  0
 15 14  1  0
 16 15  1  1
 16 17  1  0
 17  7  1  0
 18 16  1  0
 19 18  2  0
 20 18  1  0
 21 20  1  0
 22 23  1  0
 21 22  1  6
 23 28  2  0
 24 25  2  0
 24 23  1  0
 25 26  1  0
 26 27  2  0
 28 27  1  0
 29 21  1  0
 29 30  1  0
 31 29  2  0
M  END
$$$$
