NRF.pdb
     RDKit          3D

 31 31  0  0  1  0  0  0  0  0999 V2000
    8.7490  -15.2434   17.7745 N   0  0  0  0  0  0  0  0  0  0  0  0
    7.9080  -14.1217   17.7038 C   0  0  0  0  0  0  0  0  0  0  0  0
    7.0771  -13.9238   16.7803 O   0  0  0  0  0  0  0  0  0  0  0  0
    7.9763  -13.0907   18.7619 C   0  0  0  0  0  0  0  0  0  0  0  0
    8.9109  -13.4555   19.8924 C   0  0  2  0  0  0  0  0  0  0  0  0
   10.1637  -13.9865   19.4631 N   0  0  0  0  0  0  0  0  0  0  0  0
    8.1855  -14.3082   20.8564 C   0  0  0  0  0  0  0  0  0  0  0  0
    7.1231  -13.9278   21.4122 O   0  0  0  0  0  0  0  0  0  0  0  0
    8.2448  -21.2077   24.8781 N   0  0  0  0  0  0  0  0  0  0  0  0
    6.8884  -21.4759   24.5716 C   0  0  0  0  0  0  0  0  0  0  0  0
    6.2382  -22.2236   25.4167 N   0  0  0  0  0  0  0  0  0  0  0  0
    6.2317  -20.9853   23.4251 N   0  0  0  0  0  0  0  0  0  0  0  0
    6.8840  -20.1459   22.4210 C   0  0  0  0  0  0  0  0  0  0  0  0
    7.0697  -18.7477   22.9077 C   0  0  0  0  0  0  0  0  0  0  0  0
    7.6699  -17.8479   21.9212 C   0  0  0  0  0  0  0  0  0  0  0  0
    7.9276  -16.4278   22.1917 C   0  0  2  0  0  0  0  0  0  0  0  0
    8.6277  -15.6307   21.2390 N   0  0  0  0  0  0  0  0  0  0  0  0
    8.5651  -16.1865   23.5260 C   0  0  0  0  0  0  0  0  0  0  0  0
    9.8102  -16.2293   23.6684 O   0  0  0  0  0  0  0  0  0  0  0  0
    5.2488  -22.5146   25.2790 N   0  0  0  0  0  0  0  0  0  0  0  0
    7.7889  -15.8991   24.6833 C   0  0  2  0  0  0  0  0  0  0  0  0
    8.4038  -15.6866   25.9983 C   0  0  0  0  0  0  0  0  0  0  0  0
    7.4899  -14.8746   26.8781 C   0  0  0  0  0  0  0  0  0  0  0  0
    7.3596  -13.4733   26.4331 C   0  0  0  0  0  0  0  0  0  0  0  0
    8.3985  -12.7810   25.8397 C   0  0  0  0  0  0  0  0  0  0  0  0
    8.1841  -11.4851   25.4388 C   0  0  0  0  0  0  0  0  0  0  0  0
    6.9911  -10.8329   25.5940 C   0  0  0  0  0  0  0  0  0  0  0  0
    5.9583  -11.5251   26.1856 C   0  0  0  0  0  0  0  0  0  0  0  0
    6.1457  -12.8160   26.5934 C   0  0  0  0  0  0  0  0  0  0  0  0
    8.8094  -16.9694   26.6024 O   0  0  0  0  0  0  0  0  0  0  0  0
    9.6567  -16.9873   27.7176 O   0  0  0  0  0  0  0  0  0  0  0  0
  2  1  1  0
  3  2  2  0
  4  2  1  0
  5  4  1  0
  5  6  1  6
  7  8  2  0
  7  5  1  0
  9 10  1  0
 10 12  1  0
 10 11  2  0
 12 13  1  0
 14 13  1  0
 15 14  1  0
 16 15  1  6
 16 17  1  0
 17  7  1  0
 18 16  1  0
 19 18  2  0
 20 18  1  0
 21 20  1  0
 22 23  1  0
 21 22  1  6
 23 28  2  0
 24 25  2  0
 24 23  1  0
 25 26  1  0
 26 27  2  0
 28 27  1  0
 29 21  1  0
 29 30  1  0
 31 29  2  0
M  END
$$$$
