NRF.pdb
     RDKit          3D

 31 31  0  0  1  0  0  0  0  0999 V2000
    7.8083  -12.6279   16.0719 N   0  0  0  0  0  0  0  0  0  0  0  0
    7.9403  -14.0240   16.0098 C   0  0  0  0  0  0  0  0  0  0  0  0
    8.2281  -14.6564   14.9612 O   0  0  0  0  0  0  0  0  0  0  0  0
    7.7356  -14.8314   17.2319 C   0  0  0  0  0  0  0  0  0  0  0  0
    8.9476  -14.8676   18.1343 C   0  0  2  0  0  0  0  0  0  0  0  0
   10.1406  -15.3097   17.4886 N   0  0  0  0  0  0  0  0  0  0  0  0
    8.6068  -15.6139   19.3630 C   0  0  0  0  0  0  0  0  0  0  0  0
    7.5405  -15.4015   19.9957 O   0  0  0  0  0  0  0  0  0  0  0  0
   13.6367  -18.2146   20.3894 N   0  0  0  0  0  0  0  0  0  0  0  0
   13.8927  -19.5892   20.6148 C   0  0  0  0  0  0  0  0  0  0  0  0
   15.1403  -19.9612   20.5826 N   0  0  0  0  0  0  0  0  0  0  0  0
   12.8860  -20.5439   20.8629 N   0  0  0  0  0  0  0  0  0  0  0  0
   11.6380  -20.2354   21.5599 C   0  0  0  0  0  0  0  0  0  0  0  0
   11.2042  -18.8286   21.3170 C   0  0  0  0  0  0  0  0  0  0  0  0
    9.7604  -18.6204   21.4397 C   0  0  0  0  0  0  0  0  0  0  0  0
    9.1105  -17.3420   21.1243 C   0  0  2  0  0  0  0  0  0  0  0  0
    9.4561  -16.6346   19.9355 N   0  0  0  0  0  0  0  0  0  0  0  0
    9.1586  -16.3598   22.2548 C   0  0  0  0  0  0  0  0  0  0  0  0
   10.2039  -15.7173   22.5133 O   0  0  0  0  0  0  0  0  0  0  0  0
   15.4482  -20.9431   20.7364 N   0  0  0  0  0  0  0  0  0  0  0  0
    8.0254  -16.1145   23.0795 C   0  0  1  0  0  0  0  0  0  0  0  0
    8.0658  -15.1584   24.1915 C   0  0  0  0  0  0  0  0  0  0  0  0
    7.0013  -14.1073   24.0167 C   0  0  0  0  0  0  0  0  0  0  0  0
    6.9085  -13.1867   25.1667 C   0  0  0  0  0  0  0  0  0  0  0  0
    5.9679  -13.3388   26.1681 C   0  0  0  0  0  0  0  0  0  0  0  0
    5.9648  -12.4463   27.2119 C   0  0  0  0  0  0  0  0  0  0  0  0
    6.8467  -11.4053   27.3196 C   0  0  0  0  0  0  0  0  0  0  0  0
    7.7822  -11.2564   26.3204 C   0  0  0  0  0  0  0  0  0  0  0  0
    7.8066  -12.1312   25.2707 C   0  0  0  0  0  0  0  0  0  0  0  0
    7.9906  -15.8569   25.4882 O   0  0  0  0  0  0  0  0  0  0  0  0
    7.1282  -16.9483   25.6526 O   0  0  0  0  0  0  0  0  0  0  0  0
  2  1  1  0
  3  2  2  0
  4  2  1  0
  5  4  1  0
  5  6  1  6
  7  8  2  0
  7  5  1  0
  9 10  1  0
 10 12  1  0
 10 11  2  0
 12 13  1  0
 14 13  1  0
 15 14  1  0
 16 15  1  1
 16 17  1  0
 17  7  1  0
 18 16  1  0
 19 18  2  0
 20 18  1  0
 21 20  1  0
 22 23  1  0
 21 22  1  1
 23 28  2  0
 24 25  2  0
 24 23  1  0
 25 26  1  0
 26 27  2  0
 28 27  1  0
 29 21  1  0
 29 30  1  0
 31 29  2  0
M  END
$$$$
