NRF.pdb
     RDKit          3D

 31 31  0  0  1  0  0  0  0  0999 V2000
   12.8601  -18.2109   16.9156 N   0  0  0  0  0  0  0  0  0  0  0  0
   13.0082  -17.7588   18.2363 C   0  0  0  0  0  0  0  0  0  0  0  0
   14.0404  -17.9447   18.9308 O   0  0  0  0  0  0  0  0  0  0  0  0
   11.9040  -17.0159   18.8813 C   0  0  0  0  0  0  0  0  0  0  0  0
   11.6126  -17.4818   20.2894 C   0  0  2  0  0  0  0  0  0  0  0  0
   10.8954  -18.7134   20.3579 N   0  0  0  0  0  0  0  0  0  0  0  0
   10.9914  -16.3720   21.0413 C   0  0  0  0  0  0  0  0  0  0  0  0
   11.6688  -15.4112   21.4888 O   0  0  0  0  0  0  0  0  0  0  0  0
    7.0872  -13.4285   16.1890 N   0  0  0  0  0  0  0  0  0  0  0  0
    8.1689  -14.0218   16.8844 C   0  0  0  0  0  0  0  0  0  0  0  0
    8.9413  -14.8108   16.1940 N   0  0  0  0  0  0  0  0  0  0  0  0
    8.4367  -13.8036   18.2509 N   0  0  0  0  0  0  0  0  0  0  0  0
    7.4023  -13.8062   19.2845 C   0  0  0  0  0  0  0  0  0  0  0  0
    7.9572  -13.4411   20.6206 C   0  0  0  0  0  0  0  0  0  0  0  0
    7.8461  -14.5026   21.6225 C   0  0  0  0  0  0  0  0  0  0  0  0
    9.0056  -15.2566   22.1158 C   0  0  2  0  0  0  0  0  0  0  0  0
    9.5754  -16.2968   21.3244 N   0  0  0  0  0  0  0  0  0  0  0  0
    8.8099  -15.8057   23.4960 C   0  0  0  0  0  0  0  0  0  0  0  0
    8.1876  -16.8775   23.6866 O   0  0  0  0  0  0  0  0  0  0  0  0
    9.7747  -15.2886   16.5939 N   0  0  0  0  0  0  0  0  0  0  0  0
    9.3196  -15.1381   24.6445 C   0  0  2  0  0  0  0  0  0  0  0  0
    8.9895  -15.5724   26.0063 C   0  0  0  0  0  0  0  0  0  0  0  0
    7.5631  -15.2193   26.3367 C   0  0  0  0  0  0  0  0  0  0  0  0
    7.3383  -13.7635   26.4300 C   0  0  0  0  0  0  0  0  0  0  0  0
    8.3275  -12.8811   26.8222 C   0  0  0  0  0  0  0  0  0  0  0  0
    8.0368  -11.5395   26.8632 C   0  0  0  0  0  0  0  0  0  0  0  0
    6.8138  -11.0202   26.5356 C   0  0  0  0  0  0  0  0  0  0  0  0
    5.8306  -11.9017   26.1456 C   0  0  0  0  0  0  0  0  0  0  0  0
    6.0942  -13.2418   26.0963 C   0  0  0  0  0  0  0  0  0  0  0  0
    9.2954  -17.0033   26.1904 O   0  0  0  0  0  0  0  0  0  0  0  0
    9.8059  -17.7581   25.1265 O   0  0  0  0  0  0  0  0  0  0  0  0
  2  1  1  0
  3  2  2  0
  4  2  1  0
  5  4  1  0
  5  6  1  6
  7  8  2  0
  7  5  1  0
  9 10  1  0
 10 12  1  0
 10 11  2  0
 12 13  1  0
 14 13  1  0
 15 14  1  0
 16 15  1  6
 16 17  1  0
 17  7  1  0
 18 16  1  0
 19 18  2  0
 20 18  1  0
 21 20  1  0
 22 23  1  0
 21 22  1  1
 23 28  2  0
 24 25  2  0
 24 23  1  0
 25 26  1  0
 26 27  2  0
 28 27  1  0
 29 21  1  0
 29 30  1  0
 31 29  2  0
M  END
$$$$
