NRF.pdb
     RDKit          3D

 31 31  0  0  1  0  0  0  0  0999 V2000
    6.7881  -13.3895   17.5158 N   0  0  0  0  0  0  0  0  0  0  0  0
    7.7307  -13.2542   18.5471 C   0  0  0  0  0  0  0  0  0  0  0  0
    8.8409  -12.6782   18.4130 O   0  0  0  0  0  0  0  0  0  0  0  0
    7.4334  -13.8105   19.8848 C   0  0  0  0  0  0  0  0  0  0  0  0
    8.5584  -14.6491   20.4468 C   0  0  2  0  0  0  0  0  0  0  0  0
    9.1064  -15.5843   19.5190 N   0  0  0  0  0  0  0  0  0  0  0  0
    8.1181  -15.2451   21.7250 C   0  0  0  0  0  0  0  0  0  0  0  0
    7.6035  -14.5514   22.6395 O   0  0  0  0  0  0  0  0  0  0  0  0
    4.0891  -21.8521   23.4692 N   0  0  0  0  0  0  0  0  0  0  0  0
    5.2312  -21.7998   22.6333 C   0  0  0  0  0  0  0  0  0  0  0  0
    5.1047  -22.3130   21.4432 N   0  0  0  0  0  0  0  0  0  0  0  0
    6.4625  -21.2350   23.0225 N   0  0  0  0  0  0  0  0  0  0  0  0
    6.7423  -20.7718   24.3810 C   0  0  0  0  0  0  0  0  0  0  0  0
    6.8093  -19.2829   24.4528 C   0  0  0  0  0  0  0  0  0  0  0  0
    7.5882  -18.6688   23.3762 C   0  0  0  0  0  0  0  0  0  0  0  0
    7.7686  -17.2167   23.2523 C   0  0  2  0  0  0  0  0  0  0  0  0
    8.2402  -16.6532   22.0304 N   0  0  0  0  0  0  0  0  0  0  0  0
    8.5886  -16.6264   24.3587 C   0  0  0  0  0  0  0  0  0  0  0  0
    9.8011  -16.3530   24.1940 O   0  0  0  0  0  0  0  0  0  0  0  0
    5.8904  -22.3840   20.7647 N   0  0  0  0  0  0  0  0  0  0  0  0
    8.0291  -16.3515   25.6378 C   0  0  1  0  0  0  0  0  0  0  0  0
    8.8396  -15.8331   26.7454 C   0  0  0  0  0  0  0  0  0  0  0  0
    8.0577  -14.8162   27.5346 C   0  0  0  0  0  0  0  0  0  0  0  0
    7.6509  -13.6503   26.7259 C   0  0  0  0  0  0  0  0  0  0  0  0
    6.3872  -13.5279   26.1794 C   0  0  0  0  0  0  0  0  0  0  0  0
    6.0875  -12.3999   25.4556 C   0  0  0  0  0  0  0  0  0  0  0  0
    6.9752  -11.3805   25.2416 C   0  0  0  0  0  0  0  0  0  0  0  0
    8.2332  -11.5056   25.7871 C   0  0  0  0  0  0  0  0  0  0  0  0
    8.5566  -12.6182   26.5118 C   0  0  0  0  0  0  0  0  0  0  0  0
    9.3668  -16.9351   27.5717 O   0  0  0  0  0  0  0  0  0  0  0  0
   10.3494  -16.6847   28.5379 O   0  0  0  0  0  0  0  0  0  0  0  0
  2  1  1  0
  3  2  2  0
  4  2  1  0
  5  4  1  0
  5  6  1  6
  7  8  2  0
  7  5  1  0
  9 10  1  0
 10 12  1  0
 10 11  2  0
 12 13  1  0
 14 13  1  0
 15 14  1  0
 16 15  1  6
 16 17  1  0
 17  7  1  0
 18 16  1  0
 19 18  2  0
 20 18  1  0
 21 20  1  0
 22 23  1  0
 21 22  1  6
 23 28  2  0
 24 25  2  0
 24 23  1  0
 25 26  1  0
 26 27  2  0
 28 27  1  0
 29 21  1  0
 29 30  1  0
 31 29  2  0
M  END
$$$$
