NRF.pdb
     RDKit          3D

 31 31  0  0  1  0  0  0  0  0999 V2000
    5.5193  -21.6528   24.8305 N   0  0  0  0  0  0  0  0  0  0  0  0
    6.1982  -20.8471   25.7581 C   0  0  0  0  0  0  0  0  0  0  0  0
    6.0586  -20.9407   27.0047 O   0  0  0  0  0  0  0  0  0  0  0  0
    7.1421  -19.8158   25.2756 C   0  0  0  0  0  0  0  0  0  0  0  0
    7.2085  -19.7247   23.7683 C   0  0  2  0  0  0  0  0  0  0  0  0
    7.5546  -20.9509   23.1260 N   0  0  0  0  0  0  0  0  0  0  0  0
    8.0634  -18.5788   23.3957 C   0  0  0  0  0  0  0  0  0  0  0  0
    9.2736  -18.7255   23.0855 O   0  0  0  0  0  0  0  0  0  0  0  0
    8.2520  -14.7995   18.0786 N   0  0  0  0  0  0  0  0  0  0  0  0
    8.2834  -13.4854   18.6057 C   0  0  0  0  0  0  0  0  0  0  0  0
    9.0758  -12.6395   18.0119 N   0  0  0  0  0  0  0  0  0  0  0  0
    7.5188  -13.0662   19.7130 N   0  0  0  0  0  0  0  0  0  0  0  0
    6.5665  -13.9315   20.4077 C   0  0  0  0  0  0  0  0  0  0  0  0
    7.2212  -15.1689   20.9242 C   0  0  0  0  0  0  0  0  0  0  0  0
    7.8856  -14.9965   22.2171 C   0  0  0  0  0  0  0  0  0  0  0  0
    8.4307  -16.1209   22.9885 C   0  0  2  0  0  0  0  0  0  0  0  0
    7.5912  -17.2126   23.3577 N   0  0  0  0  0  0  0  0  0  0  0  0
    9.1666  -15.6906   24.2207 C   0  0  0  0  0  0  0  0  0  0  0  0
   10.1790  -14.9543   24.1490 O   0  0  0  0  0  0  0  0  0  0  0  0
    9.2223  -11.6641   18.3432 N   0  0  0  0  0  0  0  0  0  0  0  0
    8.7500  -16.0967   25.5192 C   0  0  1  0  0  0  0  0  0  0  0  0
    9.4745  -15.6932   26.7294 C   0  0  0  0  0  0  0  0  0  0  0  0
    8.5312  -15.0570   27.7162 C   0  0  0  0  0  0  0  0  0  0  0  0
    7.9607  -13.7860   27.2285 C   0  0  0  0  0  0  0  0  0  0  0  0
    8.7152  -12.6363   27.0891 C   0  0  0  0  0  0  0  0  0  0  0  0
    8.1072  -11.5018   26.6099 C   0  0  0  0  0  0  0  0  0  0  0  0
    6.7857  -11.4425   26.2593 C   0  0  0  0  0  0  0  0  0  0  0  0
    6.0369  -12.5893   26.3994 C   0  0  0  0  0  0  0  0  0  0  0  0
    6.6180  -13.7317   26.8739 C   0  0  0  0  0  0  0  0  0  0  0  0
   10.2314  -16.8273   27.2916 O   0  0  0  0  0  0  0  0  0  0  0  0
   11.0216  -16.6506   28.4346 O   0  0  0  0  0  0  0  0  0  0  0  0
  2  1  1  0
  3  2  2  0
  4  2  1  0
  5  4  1  0
  5  6  1  6
  7  8  2  0
  7  5  1  0
  9 10  1  0
 10 12  1  0
 10 11  2  0
 12 13  1  0
 14 13  1  0
 15 14  1  0
 16 15  1  1
 16 17  1  0
 17  7  1  0
 18 16  1  0
 19 18  2  0
 20 18  1  0
 21 20  1  0
 22 23  1  0
 21 22  1  1
 23 28  2  0
 24 25  2  0
 24 23  1  0
 25 26  1  0
 26 27  2  0
 28 27  1  0
 29 21  1  0
 29 30  1  0
 31 29  2  0
M  END
$$$$
