NRF.pdb
     RDKit          3D

 31 31  0  0  1  0  0  0  0  0999 V2000
   15.3197  -15.3039   18.0915 N   0  0  0  0  0  0  0  0  0  0  0  0
   14.7320  -14.2972   18.8735 C   0  0  0  0  0  0  0  0  0  0  0  0
   15.3115  -13.2272   19.1925 O   0  0  0  0  0  0  0  0  0  0  0  0
   13.3496  -14.4718   19.3691 C   0  0  0  0  0  0  0  0  0  0  0  0
   12.7437  -15.8045   18.9930 C   0  0  2  0  0  0  0  0  0  0  0  0
   12.6089  -16.0062   17.5870 N   0  0  0  0  0  0  0  0  0  0  0  0
   11.4947  -15.9951   19.7587 C   0  0  0  0  0  0  0  0  0  0  0  0
   10.3888  -15.5604   19.3458 O   0  0  0  0  0  0  0  0  0  0  0  0
    8.9875  -23.1596   19.4845 N   0  0  0  0  0  0  0  0  0  0  0  0
   10.3515  -22.8891   19.7531 C   0  0  0  0  0  0  0  0  0  0  0  0
   11.2024  -23.8238   19.4396 N   0  0  0  0  0  0  0  0  0  0  0  0
   10.8142  -21.6890   20.3295 N   0  0  0  0  0  0  0  0  0  0  0  0
    9.9255  -20.6397   20.8268 C   0  0  0  0  0  0  0  0  0  0  0  0
   10.6877  -19.5352   21.4791 C   0  0  0  0  0  0  0  0  0  0  0  0
    9.8542  -18.4159   21.9213 C   0  0  0  0  0  0  0  0  0  0  0  0
   10.2053  -17.0128   21.6677 C   0  0  2  0  0  0  0  0  0  0  0  0
   11.4368  -16.6848   21.0284 N   0  0  0  0  0  0  0  0  0  0  0  0
   10.0926  -16.1461   22.8846 C   0  0  0  0  0  0  0  0  0  0  0  0
   11.0903  -15.9039   23.6045 O   0  0  0  0  0  0  0  0  0  0  0  0
   12.2331  -23.7113   19.5266 N   0  0  0  0  0  0  0  0  0  0  0  0
    8.8546  -15.5627   23.2738 C   0  0  2  0  0  0  0  0  0  0  0  0
    8.7393  -14.6994   24.4544 C   0  0  0  0  0  0  0  0  0  0  0  0
    7.4569  -13.9113   24.4030 C   0  0  0  0  0  0  0  0  0  0  0  0
    7.2116  -13.1320   25.6323 C   0  0  0  0  0  0  0  0  0  0  0  0
    6.8588  -11.7957   25.6087 C   0  0  0  0  0  0  0  0  0  0  0  0
    6.6309  -11.1520   26.8002 C   0  0  0  0  0  0  0  0  0  0  0  0
    6.7336  -11.7618   28.0211 C   0  0  0  0  0  0  0  0  0  0  0  0
    7.0854  -13.0928   28.0413 C   0  0  0  0  0  0  0  0  0  0  0  0
    7.3176  -13.7565   26.8693 C   0  0  0  0  0  0  0  0  0  0  0  0
    8.8956  -15.4816   25.6949 O   0  0  0  0  0  0  0  0  0  0  0  0
    8.2564  -16.7203   25.8331 O   0  0  0  0  0  0  0  0  0  0  0  0
  2  1  1  0
  3  2  2  0
  4  2  1  0
  5  4  1  0
  5  6  1  6
  7  8  2  0
  7  5  1  0
  9 10  1  0
 10 12  1  0
 10 11  2  0
 12 13  1  0
 14 13  1  0
 15 14  1  0
 16 15  1  1
 16 17  1  0
 17  7  1  0
 18 16  1  0
 19 18  2  0
 20 18  1  0
 21 20  1  0
 22 23  1  0
 21 22  1  6
 23 28  2  0
 24 25  2  0
 24 23  1  0
 25 26  1  0
 26 27  2  0
 28 27  1  0
 29 21  1  0
 29 30  1  0
 31 29  2  0
M  END
$$$$
