NRF.pdb
     RDKit          3D

 31 31  0  0  1  0  0  0  0  0999 V2000
    8.2214  -11.5387   18.6816 N   0  0  0  0  0  0  0  0  0  0  0  0
    8.9639  -12.6442   19.1256 C   0  0  0  0  0  0  0  0  0  0  0  0
   10.0120  -13.0570   18.5658 O   0  0  0  0  0  0  0  0  0  0  0  0
    8.5157  -13.3917   20.3203 C   0  0  0  0  0  0  0  0  0  0  0  0
    8.1222  -14.8197   20.0191 C   0  0  2  0  0  0  0  0  0  0  0  0
    7.0990  -14.9454   19.0327 N   0  0  0  0  0  0  0  0  0  0  0  0
    7.8321  -15.5141   21.2905 C   0  0  0  0  0  0  0  0  0  0  0  0
    6.7874  -15.2816   21.9515 O   0  0  0  0  0  0  0  0  0  0  0  0
    6.7936  -22.5782   21.5968 N   0  0  0  0  0  0  0  0  0  0  0  0
    7.3686  -22.2090   20.3563 C   0  0  0  0  0  0  0  0  0  0  0  0
    7.1792  -23.0272   19.3611 N   0  0  0  0  0  0  0  0  0  0  0  0
    8.1163  -21.0307   20.1584 N   0  0  0  0  0  0  0  0  0  0  0  0
    8.8037  -20.3225   21.2373 C   0  0  0  0  0  0  0  0  0  0  0  0
    7.8477  -19.5635   22.0954 C   0  0  0  0  0  0  0  0  0  0  0  0
    8.4922  -18.6938   23.0807 C   0  0  0  0  0  0  0  0  0  0  0  0
    8.3686  -17.2308   23.0533 C   0  0  2  0  0  0  0  0  0  0  0  0
    8.7099  -16.5031   21.8755 N   0  0  0  0  0  0  0  0  0  0  0  0
    9.0526  -16.5581   24.2042 C   0  0  0  0  0  0  0  0  0  0  0  0
   10.2398  -16.1647   24.1144 O   0  0  0  0  0  0  0  0  0  0  0  0
    7.5070  -22.8349   18.3925 N   0  0  0  0  0  0  0  0  0  0  0  0
    8.3876  -16.3374   25.4425 C   0  0  2  0  0  0  0  0  0  0  0  0
    9.0814  -15.7799   26.6087 C   0  0  0  0  0  0  0  0  0  0  0  0
    8.1088  -15.0479   27.4957 C   0  0  0  0  0  0  0  0  0  0  0  0
    7.4809  -13.8909   26.8281 C   0  0  0  0  0  0  0  0  0  0  0  0
    8.1343  -12.6847   26.6581 C   0  0  0  0  0  0  0  0  0  0  0  0
    7.4813  -11.6661   26.0084 C   0  0  0  0  0  0  0  0  0  0  0  0
    6.2097  -11.7763   25.5148 C   0  0  0  0  0  0  0  0  0  0  0  0
    5.5615  -12.9789   25.6859 C   0  0  0  0  0  0  0  0  0  0  0  0
    6.1893  -14.0086   26.3289 C   0  0  0  0  0  0  0  0  0  0  0  0
    9.8448  -16.8253   27.3155 O   0  0  0  0  0  0  0  0  0  0  0  0
   10.7840  -16.4735   28.2933 O   0  0  0  0  0  0  0  0  0  0  0  0
  2  1  1  0
  3  2  2  0
  4  2  1  0
  5  4  1  0
  5  6  1  6
  7  8  2  0
  7  5  1  0
  9 10  1  0
 10 12  1  0
 10 11  2  0
 12 13  1  0
 14 13  1  0
 15 14  1  0
 16 15  1  6
 16 17  1  0
 17  7  1  0
 18 16  1  0
 19 18  2  0
 20 18  1  0
 21 20  1  0
 22 23  1  0
 21 22  1  6
 23 28  2  0
 24 25  2  0
 24 23  1  0
 25 26  1  0
 26 27  2  0
 28 27  1  0
 29 21  1  0
 29 30  1  0
 31 29  2  0
M  END
$$$$
