NRF.pdb
     RDKit          3D

 31 31  0  0  1  0  0  0  0  0999 V2000
   11.1178  -22.0713   22.7547 N   0  0  0  0  0  0  0  0  0  0  0  0
    9.9523  -21.4309   22.3052 C   0  0  0  0  0  0  0  0  0  0  0  0
    9.0494  -22.0011   21.6405 O   0  0  0  0  0  0  0  0  0  0  0  0
    9.7407  -20.0002   22.6139 C   0  0  0  0  0  0  0  0  0  0  0  0
    9.5247  -19.1489   21.3837 C   0  0  2  0  0  0  0  0  0  0  0  0
   10.2082  -19.6198   20.2231 N   0  0  0  0  0  0  0  0  0  0  0  0
    9.8014  -17.7381   21.7237 C   0  0  0  0  0  0  0  0  0  0  0  0
   10.9715  -17.2769   21.7461 O   0  0  0  0  0  0  0  0  0  0  0  0
    9.0778  -12.6066   18.1204 N   0  0  0  0  0  0  0  0  0  0  0  0
    8.0357  -13.3372   17.4992 C   0  0  0  0  0  0  0  0  0  0  0  0
    8.1409  -13.5221   16.2144 N   0  0  0  0  0  0  0  0  0  0  0  0
    6.9219  -13.8558   18.1899 N   0  0  0  0  0  0  0  0  0  0  0  0
    6.8584  -13.9676   19.6465 C   0  0  0  0  0  0  0  0  0  0  0  0
    8.2181  -14.0797   20.2505 C   0  0  0  0  0  0  0  0  0  0  0  0
    8.2109  -14.3633   21.6866 C   0  0  0  0  0  0  0  0  0  0  0  0
    9.0472  -15.4047   22.2969 C   0  0  2  0  0  0  0  0  0  0  0  0
    8.7686  -16.7822   22.0563 N   0  0  0  0  0  0  0  0  0  0  0  0
    9.2132  -15.2376   23.7766 C   0  0  0  0  0  0  0  0  0  0  0  0
    9.6854  -14.1825   24.2624 O   0  0  0  0  0  0  0  0  0  0  0  0
    7.4130  -13.9990   15.6439 N   0  0  0  0  0  0  0  0  0  0  0  0
    8.8434  -16.2640   24.6901 C   0  0  1  0  0  0  0  0  0  0  0  0
    9.1015  -16.1528   26.1300 C   0  0  0  0  0  0  0  0  0  0  0  0
    7.8722  -15.6571   26.8451 C   0  0  0  0  0  0  0  0  0  0  0  0
    7.6438  -14.2107   26.6602 C   0  0  0  0  0  0  0  0  0  0  0  0
    6.4326  -13.6964   26.2367 C   0  0  0  0  0  0  0  0  0  0  0  0
    6.3017  -12.3352   26.1093 C   0  0  0  0  0  0  0  0  0  0  0  0
    7.3097  -11.4499   26.3796 C   0  0  0  0  0  0  0  0  0  0  0  0
    8.5149  -11.9653   26.8010 C   0  0  0  0  0  0  0  0  0  0  0  0
    8.6711  -13.3163   26.9360 C   0  0  0  0  0  0  0  0  0  0  0  0
    9.6203  -17.4231   26.6706 O   0  0  0  0  0  0  0  0  0  0  0  0
   10.0245  -17.5074   28.0091 O   0  0  0  0  0  0  0  0  0  0  0  0
  2  1  1  0
  3  2  2  0
  4  2  1  0
  5  4  1  0
  5  6  1  6
  7  8  2  0
  7  5  1  0
  9 10  1  0
 10 12  1  0
 10 11  2  0
 12 13  1  0
 14 13  1  0
 15 14  1  0
 16 15  1  1
 16 17  1  0
 17  7  1  0
 18 16  1  0
 19 18  2  0
 20 18  1  0
 21 20  1  0
 22 23  1  0
 21 22  1  6
 23 28  2  0
 24 25  2  0
 24 23  1  0
 25 26  1  0
 26 27  2  0
 28 27  1  0
 29 21  1  0
 29 30  1  0
 31 29  2  0
M  END
$$$$
