MQN.pdb
     RDKit          3D

 26 25  0  0  1  0  0  0  0  0999 V2000
    7.5748  -11.1576   25.7167 C   0  0  0  0  0  0  0  0  0  0  0  0
    6.1057  -12.0211   26.2749 S   0  0  0  0  0  0  0  0  0  0  0  0
    5.8157  -13.5215   25.2824 C   0  0  0  0  0  0  0  0  0  0  0  0
    7.0038  -14.4146   25.3760 C   0  0  0  0  0  0  0  0  0  0  0  0
    6.9015  -15.6213   24.4958 C   0  0  2  0  0  0  0  0  0  0  0  0
    5.7048  -16.3565   24.8708 N   0  0  0  0  0  0  0  0  0  0  0  0
    8.0855  -16.5048   24.5179 C   0  0  0  0  0  0  0  0  0  0  0  0
    8.1977  -17.5529   25.1822 O   0  0  0  0  0  0  0  0  0  0  0  0
   12.3640  -16.9734   20.0053 N   0  0  0  0  0  0  0  0  0  0  0  0
   10.9446  -17.2014   20.0021 C   0  0  0  0  0  0  0  0  0  0  0  0
   10.3999  -17.3591   18.9040 O   0  0  0  0  0  0  0  0  0  0  0  0
   10.2516  -17.2295   21.2929 C   0  0  0  0  0  0  0  0  0  0  0  0
   11.1868  -16.9772   22.4541 C   0  0  0  0  0  0  0  0  0  0  0  0
   10.4218  -16.9253   23.7451 C   0  0  2  0  0  0  0  0  0  0  0  0
    9.2239  -16.1521   23.7151 N   0  0  0  0  0  0  0  0  0  0  0  0
   11.3057  -16.5568   24.8973 C   0  0  0  0  0  0  0  0  0  0  0  0
   11.6723  -15.3715   25.0515 O   0  0  0  0  0  0  0  0  0  0  0  0
   11.2927  -14.7199   29.5834 N   0  0  0  0  0  0  0  0  0  0  0  0
   11.0651  -16.0784   29.1629 C   0  0  0  0  0  0  0  0  0  0  0  0
   11.0519  -16.9159   30.0816 O   0  0  0  0  0  0  0  0  0  0  0  0
   10.8660  -16.4202   27.7538 C   0  0  0  0  0  0  0  0  0  0  0  0
   12.0470  -17.1480   27.1785 C   0  0  2  0  0  0  0  0  0  0  0  0
   11.7033  -17.5630   25.7832 N   0  0  0  0  0  0  0  0  0  0  0  0
   12.3856  -18.3546   27.9425 C   0  0  0  0  0  0  0  0  0  0  0  0
   13.2919  -18.3648   28.9547 O   0  0  0  0  0  0  0  0  0  0  0  0
   11.8136  -19.4424   27.6540 O   0  0  0  0  0  0  0  0  0  0  0  0
  2  1  1  0
  3  2  1  0
  4  5  1  0
  4  3  1  0
  5  7  1  0
  5  6  1  1
  7  8  2  0
  9 10  1  0
 10 11  2  0
 10 12  1  0
 12 13  1  0
 14 13  1  6
 15 14  1  0
 15  7  1  0
 16 14  1  0
 16 17  2  0
 19 21  1  0
 19 18  1  0
 20 19  2  0
 22 21  1  1
 22 23  1  0
 22 24  1  0
 23 16  1  0
 24 26  2  0
 24 25  1  0
M  END
$$$$
