MQN.pdb
     RDKit          3D

 26 25  0  0  1  0  0  0  0  0999 V2000
    8.0466  -12.1295   27.8207 C   0  0  0  0  0  0  0  0  0  0  0  0
    6.6890  -11.8753   26.6772 S   0  0  0  0  0  0  0  0  0  0  0  0
    5.7384  -13.4121   26.4429 C   0  0  0  0  0  0  0  0  0  0  0  0
    6.6697  -14.5743   26.4363 C   0  0  0  0  0  0  0  0  0  0  0  0
    6.1761  -15.7169   25.6042 C   0  0  2  0  0  0  0  0  0  0  0  0
    6.1005  -16.8959   26.4513 N   0  0  0  0  0  0  0  0  0  0  0  0
    6.9791  -15.9934   24.3952 C   0  0  0  0  0  0  0  0  0  0  0  0
    7.6174  -17.0394   24.1703 O   0  0  0  0  0  0  0  0  0  0  0  0
    8.1877  -12.2143   18.9884 N   0  0  0  0  0  0  0  0  0  0  0  0
    8.1862  -13.6334   18.7585 C   0  0  0  0  0  0  0  0  0  0  0  0
    7.9475  -14.0196   17.6090 O   0  0  0  0  0  0  0  0  0  0  0  0
    8.4655  -14.5128   19.8968 C   0  0  0  0  0  0  0  0  0  0  0  0
    7.6325  -14.1662   21.1103 C   0  0  0  0  0  0  0  0  0  0  0  0
    7.8456  -15.1754   22.2015 C   0  0  2  0  0  0  0  0  0  0  0  0
    7.0513  -14.9881   23.3709 N   0  0  0  0  0  0  0  0  0  0  0  0
    9.2991  -15.3425   22.5240 C   0  0  0  0  0  0  0  0  0  0  0  0
    9.8652  -14.5402   23.2979 O   0  0  0  0  0  0  0  0  0  0  0  0
   13.0269  -18.2518   24.9534 N   0  0  0  0  0  0  0  0  0  0  0  0
   12.4799  -18.6098   23.6702 C   0  0  0  0  0  0  0  0  0  0  0  0
   13.1856  -19.3802   22.9962 O   0  0  0  0  0  0  0  0  0  0  0  0
   11.1876  -18.0926   23.2178 C   0  0  0  0  0  0  0  0  0  0  0  0
   11.3213  -16.7614   22.5355 C   0  0  2  0  0  0  0  0  0  0  0  0
    9.9946  -16.4071   21.9426 N   0  0  0  0  0  0  0  0  0  0  0  0
   12.3124  -16.7858   21.4532 C   0  0  0  0  0  0  0  0  0  0  0  0
   13.6409  -16.5851   21.6558 O   0  0  0  0  0  0  0  0  0  0  0  0
   11.9236  -17.0024   20.2719 O   0  0  0  0  0  0  0  0  0  0  0  0
  2  1  1  0
  3  2  1  0
  4  5  1  0
  4  3  1  0
  5  7  1  0
  5  6  1  1
  7  8  2  0
  9 10  1  0
 10 11  2  0
 10 12  1  0
 12 13  1  0
 14 13  1  6
 15 14  1  0
 15  7  1  0
 16 14  1  0
 16 17  2  0
 19 21  1  0
 19 18  1  0
 20 19  2  0
 22 21  1  6
 22 23  1  0
 22 24  1  0
 23 16  1  0
 24 26  2  0
 24 25  1  0
M  END
$$$$
