MQN.pdb
     RDKit          3D

 26 25  0  0  1  0  0  0  0  0999 V2000
    6.3341  -10.9603   28.0036 C   0  0  0  0  0  0  0  0  0  0  0  0
    6.6845  -12.1331   26.6931 S   0  0  0  0  0  0  0  0  0  0  0  0
    5.6416  -13.6188   26.8526 C   0  0  0  0  0  0  0  0  0  0  0  0
    5.9418  -14.5569   25.7355 C   0  0  0  0  0  0  0  0  0  0  0  0
    7.3799  -14.9701   25.6869 C   0  0  2  0  0  0  0  0  0  0  0  0
    8.1923  -13.7717   25.5552 N   0  0  0  0  0  0  0  0  0  0  0  0
    7.7081  -15.9426   24.6242 C   0  0  0  0  0  0  0  0  0  0  0  0
    7.2288  -17.0873   24.5134 O   0  0  0  0  0  0  0  0  0  0  0  0
    8.6577  -14.1687   18.9862 N   0  0  0  0  0  0  0  0  0  0  0  0
    9.6976  -13.8096   19.9115 C   0  0  0  0  0  0  0  0  0  0  0  0
   10.5014  -12.9430   19.5501 O   0  0  0  0  0  0  0  0  0  0  0  0
    9.7287  -14.4931   21.2073 C   0  0  0  0  0  0  0  0  0  0  0  0
    8.9994  -15.8174   21.1773 C   0  0  0  0  0  0  0  0  0  0  0  0
    8.9899  -16.4446   22.5416 C   0  0  2  0  0  0  0  0  0  0  0  0
    8.6603  -15.5666   23.6157 N   0  0  0  0  0  0  0  0  0  0  0  0
   10.2475  -17.2153   22.8046 C   0  0  0  0  0  0  0  0  0  0  0  0
   10.6458  -18.0650   21.9785 O   0  0  0  0  0  0  0  0  0  0  0  0
   13.6444  -15.0961   22.5867 N   0  0  0  0  0  0  0  0  0  0  0  0
   13.6265  -16.5070   22.8750 C   0  0  0  0  0  0  0  0  0  0  0  0
   13.8460  -17.2442   21.8982 O   0  0  0  0  0  0  0  0  0  0  0  0
   13.3678  -17.0090   24.2253 C   0  0  0  0  0  0  0  0  0  0  0  0
   12.1213  -17.8444   24.2865 C   0  0  2  0  0  0  0  0  0  0  0  0
   10.9533  -16.9602   23.9844 N   0  0  0  0  0  0  0  0  0  0  0  0
   11.9121  -18.4388   25.6120 C   0  0  0  0  0  0  0  0  0  0  0  0
   12.6798  -19.4451   26.1060 O   0  0  0  0  0  0  0  0  0  0  0  0
   10.9758  -18.0026   26.3378 O   0  0  0  0  0  0  0  0  0  0  0  0
  2  1  1  0
  3  2  1  0
  4  5  1  0
  4  3  1  0
  5  7  1  0
  5  6  1  6
  7  8  2  0
  9 10  1  0
 10 11  2  0
 10 12  1  0
 12 13  1  0
 14 13  1  6
 15 14  1  0
 15  7  1  0
 16 14  1  0
 16 17  2  0
 19 21  1  0
 19 18  1  0
 20 19  2  0
 22 21  1  1
 22 23  1  0
 22 24  1  0
 23 16  1  0
 24 26  2  0
 24 25  1  0
M  END
$$$$
