MQN.pdb
     RDKit          3D

 26 25  0  0  1  0  0  0  0  0999 V2000
    8.3232  -11.9690   28.5275 C   0  0  0  0  0  0  0  0  0  0  0  0
    6.7896  -11.7724   27.6192 S   0  0  0  0  0  0  0  0  0  0  0  0
    6.1543  -13.3851   27.0571 C   0  0  0  0  0  0  0  0  0  0  0  0
    7.0024  -13.8900   25.9419 C   0  0  0  0  0  0  0  0  0  0  0  0
    6.4859  -15.1602   25.3408 C   0  0  2  0  0  0  0  0  0  0  0  0
    6.4462  -16.1725   26.3833 N   0  0  0  0  0  0  0  0  0  0  0  0
    7.2474  -15.6450   24.1712 C   0  0  0  0  0  0  0  0  0  0  0  0
    8.0509  -16.5972   24.1710 O   0  0  0  0  0  0  0  0  0  0  0  0
    8.7275  -12.4866   18.3090 N   0  0  0  0  0  0  0  0  0  0  0  0
    8.4334  -13.8937   18.2965 C   0  0  0  0  0  0  0  0  0  0  0  0
    7.9744  -14.3661   17.2507 O   0  0  0  0  0  0  0  0  0  0  0  0
    8.6972  -14.6603   19.5171 C   0  0  0  0  0  0  0  0  0  0  0  0
    7.8000  -14.2468   20.6620 C   0  0  0  0  0  0  0  0  0  0  0  0
    7.9975  -15.1555   21.8410 C   0  0  2  0  0  0  0  0  0  0  0  0
    7.0691  -14.9813   22.9092 N   0  0  0  0  0  0  0  0  0  0  0  0
    9.4181  -15.1432   22.3167 C   0  0  0  0  0  0  0  0  0  0  0  0
    9.8081  -14.2516   23.1016 O   0  0  0  0  0  0  0  0  0  0  0  0
   14.3289  -16.5238   23.1607 N   0  0  0  0  0  0  0  0  0  0  0  0
   13.3624  -17.5468   23.4664 C   0  0  0  0  0  0  0  0  0  0  0  0
   13.8171  -18.5331   24.0716 O   0  0  0  0  0  0  0  0  0  0  0  0
   11.9565  -17.4105   23.0833 C   0  0  0  0  0  0  0  0  0  0  0  0
   11.6891  -16.1139   22.3742 C   0  0  2  0  0  0  0  0  0  0  0  0
   10.2833  -16.1440   21.8640 N   0  0  0  0  0  0  0  0  0  0  0  0
   12.5849  -15.9083   21.2299 C   0  0  0  0  0  0  0  0  0  0  0  0
   13.8719  -15.4917   21.3576 O   0  0  0  0  0  0  0  0  0  0  0  0
   12.1497  -16.1254   20.0649 O   0  0  0  0  0  0  0  0  0  0  0  0
  2  1  1  0
  3  2  1  0
  4  5  1  0
  4  3  1  0
  5  7  1  0
  5  6  1  1
  7  8  2  0
  9 10  1  0
 10 11  2  0
 10 12  1  0
 12 13  1  0
 14 13  1  6
 15 14  1  0
 15  7  1  0
 16 14  1  0
 16 17  2  0
 19 21  1  0
 19 18  1  0
 20 19  2  0
 22 21  1  6
 22 23  1  0
 22 24  1  0
 23 16  1  0
 24 26  2  0
 24 25  1  0
M  END
$$$$
