MQN.pdb
     RDKit          3D

 26 25  0  0  1  0  0  0  0  0999 V2000
    7.3635  -11.9727   20.6039 C   0  0  0  0  0  0  0  0  0  0  0  0
    6.8582  -12.3213   18.9190 S   0  0  0  0  0  0  0  0  0  0  0  0
    7.9955  -13.5064   18.1300 C   0  0  0  0  0  0  0  0  0  0  0  0
    9.1590  -13.7488   19.0275 C   0  0  0  0  0  0  0  0  0  0  0  0
   10.0777  -14.8172   18.5214 C   0  0  2  0  0  0  0  0  0  0  0  0
    9.3314  -15.6588   17.6006 N   0  0  0  0  0  0  0  0  0  0  0  0
   10.7158  -15.6336   19.5746 C   0  0  0  0  0  0  0  0  0  0  0  0
   11.4296  -15.1989   20.4986 O   0  0  0  0  0  0  0  0  0  0  0  0
    9.5097  -21.7685   20.7132 N   0  0  0  0  0  0  0  0  0  0  0  0
    8.6199  -20.6914   20.3747 C   0  0  0  0  0  0  0  0  0  0  0  0
    7.4361  -20.9800   20.1672 O   0  0  0  0  0  0  0  0  0  0  0  0
    9.1778  -19.3385   20.3002 C   0  0  0  0  0  0  0  0  0  0  0  0
   10.6674  -19.3149   20.5599 C   0  0  0  0  0  0  0  0  0  0  0  0
   11.1944  -17.9113   20.4775 C   0  0  2  0  0  0  0  0  0  0  0  0
   10.5161  -17.0566   19.5594 N   0  0  0  0  0  0  0  0  0  0  0  0
   12.6796  -17.8889   20.2819 C   0  0  0  0  0  0  0  0  0  0  0  0
   13.1892  -18.4533   19.2895 O   0  0  0  0  0  0  0  0  0  0  0  0
   15.8126  -13.5527   19.3837 N   0  0  0  0  0  0  0  0  0  0  0  0
   15.5494  -14.9416   19.1083 C   0  0  0  0  0  0  0  0  0  0  0  0
   16.3928  -15.5016   18.3867 O   0  0  0  0  0  0  0  0  0  0  0  0
   14.3708  -15.6192   19.6503 C   0  0  0  0  0  0  0  0  0  0  0  0
   14.7297  -16.5888   20.7396 C   0  0  2  0  0  0  0  0  0  0  0  0
   13.4685  -17.2275   21.2281 N   0  0  0  0  0  0  0  0  0  0  0  0
   15.3792  -15.9317   21.8801 C   0  0  0  0  0  0  0  0  0  0  0  0
   14.8308  -15.8832   23.1223 O   0  0  0  0  0  0  0  0  0  0  0  0
   16.5024  -15.3808   21.7110 O   0  0  0  0  0  0  0  0  0  0  0  0
  2  1  1  0
  3  2  1  0
  4  5  1  0
  4  3  1  0
  5  7  1  0
  5  6  1  6
  7  8  2  0
  9 10  1  0
 10 11  2  0
 10 12  1  0
 12 13  1  0
 14 13  1  6
 15 14  1  0
 15  7  1  0
 16 14  1  0
 16 17  2  0
 19 21  1  0
 19 18  1  0
 20 19  2  0
 22 21  1  6
 22 23  1  0
 22 24  1  0
 23 16  1  0
 24 26  2  0
 24 25  1  0
M  END
$$$$
