MQN.pdb
     RDKit          3D

 26 25  0  0  1  0  0  0  0  0999 V2000
    5.3926  -11.5534   27.1077 C   0  0  0  0  0  0  0  0  0  0  0  0
    7.1586  -11.8637   27.0852 S   0  0  0  0  0  0  0  0  0  0  0  0
    7.5104  -13.6403   27.2858 C   0  0  0  0  0  0  0  0  0  0  0  0
    6.8495  -14.4028   26.1904 C   0  0  0  0  0  0  0  0  0  0  0  0
    7.7986  -15.2714   25.4248 C   0  0  2  0  0  0  0  0  0  0  0  0
    9.1419  -14.7460   25.6063 N   0  0  0  0  0  0  0  0  0  0  0  0
    7.4838  -15.4149   23.9884 C   0  0  0  0  0  0  0  0  0  0  0  0
    6.4790  -15.9816   23.5178 O   0  0  0  0  0  0  0  0  0  0  0  0
    8.8419  -11.6226   19.1777 N   0  0  0  0  0  0  0  0  0  0  0  0
    8.4077  -12.8538   18.5758 C   0  0  0  0  0  0  0  0  0  0  0  0
    8.6078  -12.9921   17.3641 O   0  0  0  0  0  0  0  0  0  0  0  0
    7.7632  -13.8485   19.4375 C   0  0  0  0  0  0  0  0  0  0  0  0
    8.0805  -13.6348   20.9005 C   0  0  0  0  0  0  0  0  0  0  0  0
    8.1377  -14.9490   21.6246 C   0  0  2  0  0  0  0  0  0  0  0  0
    8.3965  -14.8648   23.0244 N   0  0  0  0  0  0  0  0  0  0  0  0
    9.0482  -15.9200   20.9371 C   0  0  0  0  0  0  0  0  0  0  0  0
    8.7854  -16.3132   19.7797 O   0  0  0  0  0  0  0  0  0  0  0  0
   13.1542  -15.1281   18.2717 N   0  0  0  0  0  0  0  0  0  0  0  0
   13.0401  -14.8954   19.6883 C   0  0  0  0  0  0  0  0  0  0  0  0
   14.1069  -14.6119   20.2603 O   0  0  0  0  0  0  0  0  0  0  0  0
   11.7529  -14.9909   20.3784 C   0  0  0  0  0  0  0  0  0  0  0  0
   11.4728  -16.3864   20.8576 C   0  0  2  0  0  0  0  0  0  0  0  0
   10.1847  -16.3676   21.6176 N   0  0  0  0  0  0  0  0  0  0  0  0
   12.5220  -16.8909   21.7514 C   0  0  0  0  0  0  0  0  0  0  0  0
   12.4492  -16.8081   23.1057 O   0  0  0  0  0  0  0  0  0  0  0  0
   13.5472  -17.4297   21.2492 O   0  0  0  0  0  0  0  0  0  0  0  0
  2  1  1  0
  3  2  1  0
  4  5  1  0
  4  3  1  0
  5  7  1  0
  5  6  1  6
  7  8  2  0
  9 10  1  0
 10 11  2  0
 10 12  1  0
 12 13  1  0
 14 13  1  6
 15 14  1  0
 15  7  1  0
 16 14  1  0
 16 17  2  0
 19 21  1  0
 19 18  1  0
 20 19  2  0
 22 21  1  1
 22 23  1  0
 22 24  1  0
 23 16  1  0
 24 26  2  0
 24 25  1  0
M  END
$$$$
