MQN.pdb
     RDKit          3D

 26 25  0  0  1  0  0  0  0  0999 V2000
    6.5219  -11.4918   27.6700 C   0  0  0  0  0  0  0  0  0  0  0  0
    5.8557  -12.1283   26.1316 S   0  0  0  0  0  0  0  0  0  0  0  0
    7.1911  -12.6916   25.0272 C   0  0  0  0  0  0  0  0  0  0  0  0
    7.1005  -14.1680   24.8536 C   0  0  0  0  0  0  0  0  0  0  0  0
    8.4195  -14.8591   25.0094 C   0  0  2  0  0  0  0  0  0  0  0  0
    9.3971  -14.1613   24.1905 N   0  0  0  0  0  0  0  0  0  0  0  0
    8.4035  -16.3011   24.6883 C   0  0  0  0  0  0  0  0  0  0  0  0
    7.4983  -17.1026   24.9888 O   0  0  0  0  0  0  0  0  0  0  0  0
   10.1310  -18.8444   19.5151 N   0  0  0  0  0  0  0  0  0  0  0  0
    9.5357  -17.5980   19.9136 C   0  0  0  0  0  0  0  0  0  0  0  0
    9.2648  -16.7893   19.0190 O   0  0  0  0  0  0  0  0  0  0  0  0
    9.2955  -17.3785   21.3423 C   0  0  0  0  0  0  0  0  0  0  0  0
    9.7109  -18.5637   22.1847 C   0  0  0  0  0  0  0  0  0  0  0  0
    9.5687  -18.2473   23.6457 C   0  0  2  0  0  0  0  0  0  0  0  0
    9.5147  -16.8593   23.9681 N   0  0  0  0  0  0  0  0  0  0  0  0
   10.5798  -18.9823   24.4716 C   0  0  0  0  0  0  0  0  0  0  0  0
   10.8650  -20.1694   24.2021 O   0  0  0  0  0  0  0  0  0  0  0  0
   10.9414  -21.6189   28.5049 N   0  0  0  0  0  0  0  0  0  0  0  0
   10.3587  -20.3053   28.6009 C   0  0  0  0  0  0  0  0  0  0  0  0
   10.0350  -19.9585   29.7501 O   0  0  0  0  0  0  0  0  0  0  0  0
   10.1736  -19.4619   27.4192 C   0  0  0  0  0  0  0  0  0  0  0  0
   11.4804  -19.1094   26.7684 C   0  0  2  0  0  0  0  0  0  0  0  0
   11.1870  -18.3117   25.5377 N   0  0  0  0  0  0  0  0  0  0  0  0
   12.2441  -20.2978   26.3700 C   0  0  0  0  0  0  0  0  0  0  0  0
   13.5773  -20.4351   26.5935 O   0  0  0  0  0  0  0  0  0  0  0  0
   11.6442  -21.2451   25.7901 O   0  0  0  0  0  0  0  0  0  0  0  0
  2  1  1  0
  3  2  1  0
  4  5  1  0
  4  3  1  0
  5  7  1  0
  5  6  1  6
  7  8  2  0
  9 10  1  0
 10 11  2  0
 10 12  1  0
 12 13  1  0
 14 13  1  6
 15 14  1  0
 15  7  1  0
 16 14  1  0
 16 17  2  0
 19 21  1  0
 19 18  1  0
 20 19  2  0
 22 21  1  6
 22 23  1  0
 22 24  1  0
 23 16  1  0
 24 26  2  0
 24 25  1  0
M  END
$$$$
