MQN.pdb
     RDKit          3D

 26 25  0  0  1  0  0  0  0  0999 V2000
   12.8232  -16.6961   16.9574 C   0  0  0  0  0  0  0  0  0  0  0  0
   11.1167  -16.8377   16.4252 S   0  0  0  0  0  0  0  0  0  0  0  0
   10.0446  -17.3533   17.8054 C   0  0  0  0  0  0  0  0  0  0  0  0
   10.7044  -17.0167   19.0975 C   0  0  0  0  0  0  0  0  0  0  0  0
    9.9179  -17.4614   20.2912 C   0  0  2  0  0  0  0  0  0  0  0  0
    8.5070  -17.4298   19.9426 N   0  0  0  0  0  0  0  0  0  0  0  0
   10.1691  -16.6834   21.5219 C   0  0  0  0  0  0  0  0  0  0  0  0
   11.2697  -16.2196   21.8765 O   0  0  0  0  0  0  0  0  0  0  0  0
    6.3893  -13.0345   25.0360 N   0  0  0  0  0  0  0  0  0  0  0  0
    7.5870  -13.1679   25.8198 C   0  0  0  0  0  0  0  0  0  0  0  0
    7.7125  -12.4163   26.7929 O   0  0  0  0  0  0  0  0  0  0  0  0
    8.5657  -14.1785   25.4101 C   0  0  0  0  0  0  0  0  0  0  0  0
    8.2041  -14.8301   24.0943 C   0  0  0  0  0  0  0  0  0  0  0  0
    9.2693  -15.8030   23.6777 C   0  0  2  0  0  0  0  0  0  0  0  0
    9.0691  -16.4224   22.4090 N   0  0  0  0  0  0  0  0  0  0  0  0
    9.5590  -16.8013   24.7567 C   0  0  0  0  0  0  0  0  0  0  0  0
    8.7248  -17.6929   25.0255 O   0  0  0  0  0  0  0  0  0  0  0  0
   13.4953  -20.4099   26.4279 N   0  0  0  0  0  0  0  0  0  0  0  0
   13.2240  -19.1004   26.9625 C   0  0  0  0  0  0  0  0  0  0  0  0
   13.4733  -18.9669   28.1732 O   0  0  0  0  0  0  0  0  0  0  0  0
   12.6958  -18.0250   26.1220 C   0  0  0  0  0  0  0  0  0  0  0  0
   11.2032  -17.9034   26.2348 C   0  0  2  0  0  0  0  0  0  0  0  0
   10.7726  -16.7084   25.4449 N   0  0  0  0  0  0  0  0  0  0  0  0
   10.7615  -17.7161   27.6219 C   0  0  0  0  0  0  0  0  0  0  0  0
   10.6621  -18.7348   28.5154 O   0  0  0  0  0  0  0  0  0  0  0  0
   10.4558  -16.5563   28.0157 O   0  0  0  0  0  0  0  0  0  0  0  0
  2  1  1  0
  3  2  1  0
  4  5  1  0
  4  3  1  0
  5  7  1  0
  5  6  1  6
  7  8  2  0
  9 10  1  0
 10 11  2  0
 10 12  1  0
 12 13  1  0
 14 13  1  1
 15 14  1  0
 15  7  1  0
 16 14  1  0
 16 17  2  0
 19 21  1  0
 19 18  1  0
 20 19  2  0
 22 21  1  1
 22 23  1  0
 22 24  1  0
 23 16  1  0
 24 26  2  0
 24 25  1  0
M  END
$$$$
