LVN.pdb
     RDKit          3D

 24 23  0  0  1  0  0  0  0  0999 V2000
   29.2456  -19.5134   -5.9029 C   0  0  0  0  0  0  0  0  0  0  0  0
   27.8202  -19.8202   -6.3296 C   0  0  1  0  0  0  0  0  0  0  0  0
   26.9730  -18.6947   -5.7161 C   0  0  0  0  0  0  0  0  0  0  0  0
   27.6463  -19.8400   -7.8001 C   0  0  0  0  0  0  0  0  0  0  0  0
   26.3081  -20.1264   -8.3375 C   0  0  2  0  0  0  0  0  0  0  0  0
   25.7880  -21.4096   -7.9239 N   0  0  0  0  0  0  0  0  0  0  0  0
   26.1068  -19.9784   -9.7925 C   0  0  0  0  0  0  0  0  0  0  0  0
   27.0542  -19.4953  -10.5226 O   0  0  0  0  0  0  0  0  0  0  0  0
   26.0053  -21.4494  -13.8728 C   0  0  0  0  0  0  0  0  0  0  0  0
   25.9378  -21.4188  -12.3499 C   0  0  2  0  0  0  0  0  0  0  0  0
   25.6331  -22.7949  -11.8634 C   0  0  0  0  0  0  0  0  0  0  0  0
   24.9397  -20.3647  -11.9940 C   0  0  2  0  0  0  0  0  0  0  0  0
   24.9375  -20.3174  -10.5123 N   0  0  0  0  0  0  0  0  0  0  0  0
   23.5693  -20.6096  -12.4685 C   0  0  0  0  0  0  0  0  0  0  0  0
   22.8162  -21.4937  -11.9611 O   0  0  0  0  0  0  0  0  0  0  0  0
   20.6193  -16.3915  -14.6435 N   0  0  0  0  0  0  0  0  0  0  0  0
   20.5995  -17.6784  -14.0593 C   0  0  0  0  0  0  0  0  0  0  0  0
   20.0484  -17.8304  -12.9468 O   0  0  0  0  0  0  0  0  0  0  0  0
   21.2174  -18.8240  -14.7478 C   0  0  0  0  0  0  0  0  0  0  0  0
   21.5922  -19.9627  -13.8494 C   0  0  2  0  0  0  0  0  0  0  0  0
   23.0236  -19.8514  -13.5314 N   0  0  0  0  0  0  0  0  0  0  0  0
   21.3077  -21.2175  -14.5771 C   0  0  0  0  0  0  0  0  0  0  0  0
   20.1755  -21.9433  -14.2858 O   0  0  0  0  0  0  0  0  0  0  0  0
   22.1034  -21.6069  -15.4534 O   0  0  0  0  0  0  0  0  0  0  0  0
  2  1  1  6
  2  3  1  0
  4  2  1  0
  5  4  1  0
  5  7  1  0
  5  6  1  6
  7 13  1  0
  8  7  2  0
 10  9  1  6
 10 11  1  0
 12 10  1  0
 12 13  1  1
 14 21  1  0
 14 12  1  0
 15 14  2  0
 17 16  1  0
 17 18  2  0
 19 17  1  0
 20 19  1  6
 20 22  1  0
 20 21  1  0
 22 23  1  0
 24 22  2  0
M  END
$$$$
