LVN.pdb
     RDKit          3D

 24 23  0  0  1  0  0  0  0  0999 V2000
   28.5277  -18.8727   -6.3666 C   0  0  0  0  0  0  0  0  0  0  0  0
   27.6469  -19.9671   -6.9447 C   0  0  1  0  0  0  0  0  0  0  0  0
   26.5487  -20.1875   -5.8929 C   0  0  0  0  0  0  0  0  0  0  0  0
   27.0373  -19.5965   -8.2424 C   0  0  0  0  0  0  0  0  0  0  0  0
   26.1591  -20.5741   -8.9018 C   0  0  2  0  0  0  0  0  0  0  0  0
   26.7765  -21.8684   -9.0808 N   0  0  0  0  0  0  0  0  0  0  0  0
   25.5172  -20.1743  -10.1695 C   0  0  0  0  0  0  0  0  0  0  0  0
   24.8368  -19.0797  -10.2237 O   0  0  0  0  0  0  0  0  0  0  0  0
   25.2092  -20.2269  -15.0163 C   0  0  0  0  0  0  0  0  0  0  0  0
   25.8256  -20.7801  -13.7360 C   0  0  2  0  0  0  0  0  0  0  0  0
   25.9973  -22.2528  -13.8933 C   0  0  0  0  0  0  0  0  0  0  0  0
   24.9362  -20.3423  -12.6175 C   0  0  2  0  0  0  0  0  0  0  0  0
   25.5603  -20.8894  -11.3891 N   0  0  0  0  0  0  0  0  0  0  0  0
   23.5448  -20.8121  -12.6989 C   0  0  0  0  0  0  0  0  0  0  0  0
   23.1200  -21.8125  -12.0471 O   0  0  0  0  0  0  0  0  0  0  0  0
   18.3762  -19.7215  -11.2197 N   0  0  0  0  0  0  0  0  0  0  0  0
   19.2122  -20.5800  -11.9693 C   0  0  0  0  0  0  0  0  0  0  0  0
   18.7166  -21.6006  -12.4957 O   0  0  0  0  0  0  0  0  0  0  0  0
   20.6448  -20.2795  -12.1295 C   0  0  0  0  0  0  0  0  0  0  0  0
   21.1916  -20.5615  -13.4954 C   0  0  2  0  0  0  0  0  0  0  0  0
   22.6036  -20.1516  -13.5238 N   0  0  0  0  0  0  0  0  0  0  0  0
   20.3944  -19.7810  -14.4651 C   0  0  0  0  0  0  0  0  0  0  0  0
   20.5354  -18.4139  -14.5336 O   0  0  0  0  0  0  0  0  0  0  0  0
   19.5970  -20.3753  -15.2159 O   0  0  0  0  0  0  0  0  0  0  0  0
  2  1  1  1
  2  3  1  0
  4  2  1  0
  5  4  1  0
  5  7  1  0
  5  6  1  6
  7 13  1  0
  8  7  2  0
 10  9  1  6
 10 11  1  0
 12 10  1  0
 12 13  1  1
 14 21  1  0
 14 12  1  0
 15 14  2  0
 17 16  1  0
 17 18  2  0
 19 17  1  0
 20 19  1  1
 20 22  1  0
 20 21  1  0
 22 23  1  0
 24 22  2  0
M  END
$$$$
