LVN.pdb
     RDKit          3D

 24 23  0  0  1  0  0  0  0  0999 V2000
   22.2252  -20.5405  -15.5171 C   0  0  0  0  0  0  0  0  0  0  0  0
   23.5465  -20.2869  -14.8114 C   0  0  1  0  0  0  0  0  0  0  0  0
   23.6403  -18.7584  -14.6857 C   0  0  0  0  0  0  0  0  0  0  0  0
   23.6168  -20.9100  -13.4700 C   0  0  0  0  0  0  0  0  0  0  0  0
   24.8206  -20.6778  -12.6584 C   0  0  2  0  0  0  0  0  0  0  0  0
   26.0439  -21.0567  -13.3280 N   0  0  0  0  0  0  0  0  0  0  0  0
   24.8400  -21.2250  -11.2875 C   0  0  0  0  0  0  0  0  0  0  0  0
   25.1679  -22.4578  -11.0962 O   0  0  0  0  0  0  0  0  0  0  0  0
   24.5480  -18.9756   -7.7802 C   0  0  0  0  0  0  0  0  0  0  0  0
   25.3999  -20.2316   -7.9272 C   0  0  2  0  0  0  0  0  0  0  0  0
   26.7357  -19.8361   -8.4586 C   0  0  0  0  0  0  0  0  0  0  0  0
   24.6132  -21.1768   -8.7766 C   0  0  2  0  0  0  0  0  0  0  0  0
   24.5209  -20.5210  -10.1030 N   0  0  0  0  0  0  0  0  0  0  0  0
   23.2566  -21.4766   -8.2941 C   0  0  0  0  0  0  0  0  0  0  0  0
   23.0259  -21.9202   -7.1295 O   0  0  0  0  0  0  0  0  0  0  0  0
   18.0943  -22.3154   -8.1735 N   0  0  0  0  0  0  0  0  0  0  0  0
   18.6681  -22.7017   -9.4061 C   0  0  0  0  0  0  0  0  0  0  0  0
   17.9659  -23.3248  -10.2326 O   0  0  0  0  0  0  0  0  0  0  0  0
   20.0708  -22.3768   -9.7148 C   0  0  0  0  0  0  0  0  0  0  0  0
   20.7876  -21.6232   -8.6366 C   0  0  2  0  0  0  0  0  0  0  0  0
   22.1300  -21.2762   -9.1266 N   0  0  0  0  0  0  0  0  0  0  0  0
   20.8679  -22.5055   -7.4533 C   0  0  0  0  0  0  0  0  0  0  0  0
   21.7916  -23.5246   -7.4130 O   0  0  0  0  0  0  0  0  0  0  0  0
   20.0914  -22.3145   -6.4977 O   0  0  0  0  0  0  0  0  0  0  0  0
  2  1  1  1
  2  3  1  0
  4  2  1  0
  5  4  1  0
  5  7  1  0
  5  6  1  6
  7 13  1  0
  8  7  2  0
 10  9  1  6
 10 11  1  0
 12 10  1  0
 12 13  1  6
 14 21  1  0
 14 12  1  0
 15 14  2  0
 17 16  1  0
 17 18  2  0
 19 17  1  0
 20 19  1  6
 20 22  1  0
 20 21  1  0
 22 23  1  0
 24 22  2  0
M  END
$$$$
