LVN.pdb
     RDKit          3D

 24 23  0  0  1  0  0  0  0  0999 V2000
   29.7540  -20.1508   -5.4237 C   0  0  0  0  0  0  0  0  0  0  0  0
   28.2742  -19.9516   -5.7041 C   0  0  1  0  0  0  0  0  0  0  0  0
   28.0020  -18.4786   -5.3620 C   0  0  0  0  0  0  0  0  0  0  0  0
   27.9096  -20.2192   -7.1141 C   0  0  0  0  0  0  0  0  0  0  0  0
   26.5048  -20.0480   -7.5129 C   0  0  2  0  0  0  0  0  0  0  0  0
   25.6447  -21.1126   -7.0490 N   0  0  0  0  0  0  0  0  0  0  0  0
   26.2224  -19.7963   -8.9398 C   0  0  0  0  0  0  0  0  0  0  0  0
   26.4680  -18.6348   -9.4445 O   0  0  0  0  0  0  0  0  0  0  0  0
   25.7579  -22.7683  -11.6489 C   0  0  0  0  0  0  0  0  0  0  0  0
   26.3588  -21.4165  -12.0185 C   0  0  2  0  0  0  0  0  0  0  0  0
   27.8147  -21.4439  -11.6982 C   0  0  0  0  0  0  0  0  0  0  0  0
   25.5511  -20.3858  -11.2978 C   0  0  2  0  0  0  0  0  0  0  0  0
   25.6835  -20.7248   -9.8606 N   0  0  0  0  0  0  0  0  0  0  0  0
   24.1241  -20.3438  -11.6515 C   0  0  0  0  0  0  0  0  0  0  0  0
   23.2321  -20.9350  -10.9726 O   0  0  0  0  0  0  0  0  0  0  0  0
   20.2215  -17.4867  -15.5032 N   0  0  0  0  0  0  0  0  0  0  0  0
   20.5759  -18.1632  -14.3138 C   0  0  0  0  0  0  0  0  0  0  0  0
   19.6686  -18.5762  -13.5583 O   0  0  0  0  0  0  0  0  0  0  0  0
   21.9906  -18.3797  -13.9673 C   0  0  0  0  0  0  0  0  0  0  0  0
   22.2449  -19.5795  -13.1071 C   0  0  2  0  0  0  0  0  0  0  0  0
   23.6794  -19.6253  -12.7866 N   0  0  0  0  0  0  0  0  0  0  0  0
   21.8359  -20.7743  -13.8754 C   0  0  0  0  0  0  0  0  0  0  0  0
   20.5777  -21.3058  -13.7080 O   0  0  0  0  0  0  0  0  0  0  0  0
   22.6422  -21.2908  -14.6727 O   0  0  0  0  0  0  0  0  0  0  0  0
  2  1  1  6
  2  3  1  0
  4  2  1  0
  5  4  1  0
  5  7  1  0
  5  6  1  6
  7 13  1  0
  8  7  2  0
 10  9  1  1
 10 11  1  0
 12 10  1  0
 12 13  1  1
 14 21  1  0
 14 12  1  0
 15 14  2  0
 17 16  1  0
 17 18  2  0
 19 17  1  0
 20 19  1  6
 20 22  1  0
 20 21  1  0
 22 23  1  0
 24 22  2  0
M  END
$$$$
