LVN.pdb
     RDKit          3D

 24 23  0  0  1  0  0  0  0  0999 V2000
   15.6167  -13.4406  -16.8367 C   0  0  0  0  0  0  0  0  0  0  0  0
   16.9347  -12.9143  -17.3787 C   0  0  1  0  0  0  0  0  0  0  0  0
   16.5395  -11.9102  -18.4725 C   0  0  0  0  0  0  0  0  0  0  0  0
   17.7586  -12.2416  -16.3484 C   0  0  0  0  0  0  0  0  0  0  0  0
   19.0492  -11.6677  -16.7566 C   0  0  2  0  0  0  0  0  0  0  0  0
   19.9495  -12.6385  -17.3357 N   0  0  0  0  0  0  0  0  0  0  0  0
   19.7896  -10.8670  -15.7617 C   0  0  0  0  0  0  0  0  0  0  0  0
   19.3000  -10.7056  -14.5792 O   0  0  0  0  0  0  0  0  0  0  0  0
   23.7104   -9.7464  -16.1465 C   0  0  0  0  0  0  0  0  0  0  0  0
   23.0644   -9.9754  -14.7845 C   0  0  2  0  0  0  0  0  0  0  0  0
   23.1819  -11.4223  -14.4438 C   0  0  0  0  0  0  0  0  0  0  0  0
   21.6729   -9.4389  -14.8831 C   0  0  2  0  0  0  0  0  0  0  0  0
   21.0315  -10.2217  -15.9664 N   0  0  0  0  0  0  0  0  0  0  0  0
   21.5717   -8.0065  -15.2015 C   0  0  0  0  0  0  0  0  0  0  0  0
   21.6893   -7.5566  -16.3804 O   0  0  0  0  0  0  0  0  0  0  0  0
   20.7318   -2.8898  -14.9597 N   0  0  0  0  0  0  0  0  0  0  0  0
   19.6742   -3.6961  -14.4812 C   0  0  0  0  0  0  0  0  0  0  0  0
   18.5599   -3.1698  -14.2672 O   0  0  0  0  0  0  0  0  0  0  0  0
   19.8785   -5.1339  -14.2376 C   0  0  0  0  0  0  0  0  0  0  0  0
   21.2654   -5.6233  -14.5226 C   0  0  2  0  0  0  0  0  0  0  0  0
   21.3320   -7.0528  -14.1839 N   0  0  0  0  0  0  0  0  0  0  0  0
   22.1967   -4.8373  -13.6859 C   0  0  0  0  0  0  0  0  0  0  0  0
   22.6523   -3.6142  -14.1219 O   0  0  0  0  0  0  0  0  0  0  0  0
   22.5615   -5.2953  -12.5861 O   0  0  0  0  0  0  0  0  0  0  0  0
  2  1  1  1
  2  3  1  0
  4  2  1  0
  5  4  1  0
  5  7  1  0
  5  6  1  1
  7 13  1  0
  8  7  2  0
 10  9  1  6
 10 11  1  0
 12 10  1  0
 12 13  1  6
 14 21  1  0
 14 12  1  0
 15 14  2  0
 17 16  1  0
 17 18  2  0
 19 17  1  0
 20 19  1  1
 20 22  1  0
 20 21  1  0
 22 23  1  0
 24 22  2  0
M  END
$$$$
