LVN.pdb
     RDKit          3D

 24 23  0  0  1  0  0  0  0  0999 V2000
   28.0681  -13.6645  -16.4739 C   0  0  0  0  0  0  0  0  0  0  0  0
   26.6090  -13.9974  -16.2130 C   0  0  1  0  0  0  0  0  0  0  0  0
   26.5290  -14.2664  -14.7024 C   0  0  0  0  0  0  0  0  0  0  0  0
   25.6882  -12.8974  -16.5803 C   0  0  0  0  0  0  0  0  0  0  0  0
   24.2471  -13.0980  -16.3692 C   0  0  2  0  0  0  0  0  0  0  0  0
   23.7353  -14.2882  -17.0092 N   0  0  0  0  0  0  0  0  0  0  0  0
   23.3453  -11.9695  -16.6734 C   0  0  0  0  0  0  0  0  0  0  0  0
   23.2625  -11.5257  -17.8818 O   0  0  0  0  0  0  0  0  0  0  0  0
   19.2498   -9.7192  -16.4496 C   0  0  0  0  0  0  0  0  0  0  0  0
   20.2492  -10.8466  -16.2148 C   0  0  2  0  0  0  0  0  0  0  0  0
   19.8531  -11.5782  -14.9774 C   0  0  0  0  0  0  0  0  0  0  0  0
   21.6022  -10.2120  -16.1931 C   0  0  2  0  0  0  0  0  0  0  0  0
   22.5256  -11.2828  -15.7477 N   0  0  0  0  0  0  0  0  0  0  0  0
   21.7404   -9.0550  -15.2956 C   0  0  0  0  0  0  0  0  0  0  0  0
   21.8563   -9.1725  -14.0391 O   0  0  0  0  0  0  0  0  0  0  0  0
   22.3622   -4.1662  -13.5216 N   0  0  0  0  0  0  0  0  0  0  0  0
   22.6996   -4.2204  -14.8931 C   0  0  0  0  0  0  0  0  0  0  0  0
   23.2574   -3.2323  -15.4194 O   0  0  0  0  0  0  0  0  0  0  0  0
   22.4000   -5.4204  -15.6922 C   0  0  0  0  0  0  0  0  0  0  0  0
   21.9271   -6.5975  -14.8953 C   0  0  2  0  0  0  0  0  0  0  0  0
   21.7519   -7.7364  -15.8090 N   0  0  0  0  0  0  0  0  0  0  0  0
   20.6438   -6.2229  -14.2645 C   0  0  0  0  0  0  0  0  0  0  0  0
   20.5881   -5.9617  -12.9146 O   0  0  0  0  0  0  0  0  0  0  0  0
   19.6185   -6.1474  -14.9685 O   0  0  0  0  0  0  0  0  0  0  0  0
  2  1  1  1
  2  3  1  0
  4  2  1  0
  5  4  1  0
  5  7  1  0
  5  6  1  6
  7 13  1  0
  8  7  2  0
 10  9  1  1
 10 11  1  0
 12 10  1  0
 12 13  1  1
 14 21  1  0
 14 12  1  0
 15 14  2  0
 17 16  1  0
 17 18  2  0
 19 17  1  0
 20 19  1  6
 20 22  1  0
 20 21  1  0
 22 23  1  0
 24 22  2  0
M  END
$$$$
