QHF.pdb
     RDKit          3D

 31 32  0  0  1  0  0  0  0  0999 V2000
   23.3222  -12.7744  -20.2792 N   0  0  0  0  0  0  0  0  0  0  0  0
   23.4378  -11.4549  -19.7775 C   0  0  0  0  0  0  0  0  0  0  0  0
   24.4066  -10.7317  -20.0957 O   0  0  0  0  0  0  0  0  0  0  0  0
   22.3997  -10.9563  -18.8802 C   0  0  0  0  0  0  0  0  0  0  0  0
   21.2654  -11.8773  -18.6102 C   0  0  0  0  0  0  0  0  0  0  0  0
   20.6643  -11.7843  -17.2452 C   0  0  2  0  0  0  0  0  0  0  0  0
   19.5764  -12.7569  -17.0920 N   0  0  0  0  0  0  0  0  0  0  0  0
   20.0723  -10.4165  -17.0280 C   0  0  0  0  0  0  0  0  0  0  0  0
   19.6517   -9.7325  -17.9956 O   0  0  0  0  0  0  0  0  0  0  0  0
   19.9642   -9.8461  -15.7398 N   0  0  0  0  0  0  0  0  0  0  0  0
   19.4925   -8.5193  -15.4975 C   0  0  1  0  0  0  0  0  0  0  0  0
   18.1591   -8.4701  -14.7966 C   0  0  0  0  0  0  0  0  0  0  0  0
   17.2498   -9.5514  -15.2502 C   0  0  0  0  0  0  0  0  0  0  0  0
   17.6208  -10.5251  -16.1510 C   0  0  0  0  0  0  0  0  0  0  0  0
   16.5911  -11.3449  -16.3542 N   0  0  0  0  0  0  0  0  0  0  0  0
   15.5797  -10.8995  -15.5941 C   0  0  0  0  0  0  0  0  0  0  0  0
   15.9767   -9.8100  -14.9221 N   0  0  0  0  0  0  0  0  0  0  0  0
   20.4652   -7.7938  -14.6231 C   0  0  0  0  0  0  0  0  0  0  0  0
   21.1898   -8.4231  -13.8066 O   0  0  0  0  0  0  0  0  0  0  0  0
   20.6151   -6.3806  -14.6721 N   0  0  0  0  0  0  0  0  0  0  0  0
   21.6276   -5.6806  -13.8887 C   0  0  1  0  0  0  0  0  0  0  0  0
   23.0205   -6.1377  -14.2857 C   0  0  0  0  0  0  0  0  0  0  0  0
   23.2373   -5.7355  -15.6985 C   0  0  0  0  0  0  0  0  0  0  0  0
   23.0822   -6.6968  -16.6933 C   0  0  0  0  0  0  0  0  0  0  0  0
   23.2782   -6.3591  -17.9977 C   0  0  0  0  0  0  0  0  0  0  0  0
   23.6288   -5.0619  -18.3078 C   0  0  0  0  0  0  0  0  0  0  0  0
   23.7862   -4.0992  -17.3349 C   0  0  0  0  0  0  0  0  0  0  0  0
   23.5873   -4.4362  -15.9929 C   0  0  0  0  0  0  0  0  0  0  0  0
   21.4188   -4.2307  -14.0957 C   0  0  0  0  0  0  0  0  0  0  0  0
   20.5021   -3.7112  -15.0113 O   0  0  0  0  0  0  0  0  0  0  0  0
   22.0716   -3.3566  -13.4431 O   0  0  0  0  0  0  0  0  0  0  0  0
  2  3  2  0
  2  1  1  0
  4  2  1  0
  5  4  1  0
  6  5  1  0
  6  7  1  6
  8  6  1  0
  8  9  2  0
 10  8  1  0
 11 10  1  0
 11 12  1  1
 13 14  2  0
 13 12  1  0
 15 14  1  0
 16 17  2  0
 16 15  1  0
 17 13  1  0
 18 20  1  0
 18 11  1  0
 19 18  2  0
 21 20  1  0
 21 29  1  0
 21 22  1  6
 23 28  1  0
 23 22  1  0
 24 23  2  0
 25 26  2  0
 25 24  1  0
 26 27  1  0
 27 28  2  0
 29 30  1  0
 31 29  2  0
M  END
$$$$
