QHF.pdb
     RDKit          3D

 31 32  0  0  1  0  0  0  0  0999 V2000
   29.5326  -21.0301  -22.1212 N   0  0  0  0  0  0  0  0  0  0  0  0
   29.8669  -22.1829  -21.3694 C   0  0  0  0  0  0  0  0  0  0  0  0
   30.7694  -22.9581  -21.7534 O   0  0  0  0  0  0  0  0  0  0  0  0
   29.1346  -22.4468  -20.1343 C   0  0  0  0  0  0  0  0  0  0  0  0
   27.9870  -21.5484  -19.8450 C   0  0  0  0  0  0  0  0  0  0  0  0
   28.3404  -20.1673  -19.3971 C   0  0  2  0  0  0  0  0  0  0  0  0
   29.7802  -20.0614  -19.1347 N   0  0  0  0  0  0  0  0  0  0  0  0
   27.6283  -19.8376  -18.1116 C   0  0  0  0  0  0  0  0  0  0  0  0
   28.1666  -19.1042  -17.2435 O   0  0  0  0  0  0  0  0  0  0  0  0
   26.3361  -20.3328  -17.8260 N   0  0  0  0  0  0  0  0  0  0  0  0
   25.4764  -19.7765  -16.8294 C   0  0  1  0  0  0  0  0  0  0  0  0
   24.2575  -19.0938  -17.3949 C   0  0  0  0  0  0  0  0  0  0  0  0
   23.3907  -18.5282  -16.3316 C   0  0  0  0  0  0  0  0  0  0  0  0
   23.7160  -18.5574  -14.9936 C   0  0  0  0  0  0  0  0  0  0  0  0
   22.7424  -17.9746  -14.2963 N   0  0  0  0  0  0  0  0  0  0  0  0
   21.8113  -17.5803  -15.1775 C   0  0  0  0  0  0  0  0  0  0  0  0
   22.2021  -17.9152  -16.4150 N   0  0  0  0  0  0  0  0  0  0  0  0
   24.9819  -20.8647  -15.9304 C   0  0  0  0  0  0  0  0  0  0  0  0
   24.3447  -21.8458  -16.3984 O   0  0  0  0  0  0  0  0  0  0  0  0
   25.2048  -20.8426  -14.5262 N   0  0  0  0  0  0  0  0  0  0  0  0
   24.7846  -21.9367  -13.6571 C   0  0  1  0  0  0  0  0  0  0  0  0
   25.8797  -22.2794  -12.6621 C   0  0  0  0  0  0  0  0  0  0  0  0
   25.9293  -21.1867  -11.6579 C   0  0  0  0  0  0  0  0  0  0  0  0
   26.4903  -19.9683  -12.0302 C   0  0  0  0  0  0  0  0  0  0  0  0
   26.5535  -18.9487  -11.1302 C   0  0  0  0  0  0  0  0  0  0  0  0
   26.0565  -19.1463   -9.8589 C   0  0  0  0  0  0  0  0  0  0  0  0
   25.4985  -20.3461   -9.4752 C   0  0  0  0  0  0  0  0  0  0  0  0
   25.4291  -21.3990  -10.3922 C   0  0  0  0  0  0  0  0  0  0  0  0
   23.5250  -21.5195  -13.0029 C   0  0  0  0  0  0  0  0  0  0  0  0
   23.1820  -20.1847  -12.7811 O   0  0  0  0  0  0  0  0  0  0  0  0
   22.6659  -22.3636  -12.5962 O   0  0  0  0  0  0  0  0  0  0  0  0
  2  3  2  0
  2  1  1  0
  4  2  1  0
  5  4  1  0
  6  5  1  0
  6  7  1  1
  8  6  1  0
  8  9  2  0
 10  8  1  0
 11 10  1  0
 11 12  1  6
 13 14  2  0
 13 12  1  0
 15 14  1  0
 16 17  2  0
 16 15  1  0
 17 13  1  0
 18 20  1  0
 18 11  1  0
 19 18  2  0
 21 20  1  0
 21 29  1  0
 21 22  1  1
 23 28  1  0
 23 22  1  0
 24 23  2  0
 25 26  2  0
 25 24  1  0
 26 27  1  0
 27 28  2  0
 29 30  1  0
 31 29  2  0
M  END
$$$$
