QHF.pdb
     RDKit          3D

 31 32  0  0  1  0  0  0  0  0999 V2000
   20.8983  -13.9723  -16.9900 N   0  0  0  0  0  0  0  0  0  0  0  0
   19.9764  -13.9007  -18.0628 C   0  0  0  0  0  0  0  0  0  0  0  0
   19.4714  -12.8083  -18.4010 O   0  0  0  0  0  0  0  0  0  0  0  0
   19.6284  -15.1315  -18.7668 C   0  0  0  0  0  0  0  0  0  0  0  0
   20.2321  -16.3833  -18.2413 C   0  0  0  0  0  0  0  0  0  0  0  0
   21.5454  -16.7716  -18.8391 C   0  0  2  0  0  0  0  0  0  0  0  0
   21.3653  -17.2562  -20.2124 N   0  0  0  0  0  0  0  0  0  0  0  0
   22.1669  -17.8934  -18.0492 C   0  0  0  0  0  0  0  0  0  0  0  0
   21.9013  -19.0941  -18.3119 O   0  0  0  0  0  0  0  0  0  0  0  0
   23.0674  -17.6493  -16.9881 N   0  0  0  0  0  0  0  0  0  0  0  0
   23.6611  -18.6820  -16.1990 C   0  0  1  0  0  0  0  0  0  0  0  0
   25.0161  -18.3185  -15.6480 C   0  0  0  0  0  0  0  0  0  0  0  0
   26.0531  -18.2628  -16.7079 C   0  0  0  0  0  0  0  0  0  0  0  0
   25.7933  -18.5179  -18.0362 C   0  0  0  0  0  0  0  0  0  0  0  0
   26.9209  -18.3885  -18.7328 N   0  0  0  0  0  0  0  0  0  0  0  0
   27.8842  -18.0560  -17.8608 C   0  0  0  0  0  0  0  0  0  0  0  0
   27.3602  -17.9788  -16.6296 N   0  0  0  0  0  0  0  0  0  0  0  0
   22.7851  -18.9812  -15.0243 C   0  0  0  0  0  0  0  0  0  0  0  0
   22.4609  -18.0711  -14.2153 O   0  0  0  0  0  0  0  0  0  0  0  0
   22.2848  -20.2877  -14.7698 N   0  0  0  0  0  0  0  0  0  0  0  0
   21.2461  -20.5404  -13.7768 C   0  0  1  0  0  0  0  0  0  0  0  0
   19.9999  -19.7304  -14.0892 C   0  0  0  0  0  0  0  0  0  0  0  0
   19.3000  -20.4024  -15.2133 C   0  0  0  0  0  0  0  0  0  0  0  0
   19.4549  -19.8843  -16.4960 C   0  0  0  0  0  0  0  0  0  0  0  0
   18.8225  -20.4764  -17.5464 C   0  0  0  0  0  0  0  0  0  0  0  0
   18.0360  -21.5854  -17.3152 C   0  0  0  0  0  0  0  0  0  0  0  0
   17.8727  -22.1101  -16.0518 C   0  0  0  0  0  0  0  0  0  0  0  0
   18.5178  -21.5091  -14.9669 C   0  0  0  0  0  0  0  0  0  0  0  0
   20.9947  -21.9982  -13.7648 C   0  0  0  0  0  0  0  0  0  0  0  0
   20.1407  -22.6214  -12.8533 O   0  0  0  0  0  0  0  0  0  0  0  0
   21.5501  -22.7840  -14.5956 O   0  0  0  0  0  0  0  0  0  0  0  0
  2  3  2  0
  2  1  1  0
  4  2  1  0
  5  4  1  0
  6  5  1  0
  6  7  1  6
  8  6  1  0
  8  9  2  0
 10  8  1  0
 11 10  1  0
 11 12  1  1
 13 14  2  0
 13 12  1  0
 15 14  1  0
 16 17  2  0
 16 15  1  0
 17 13  1  0
 18 20  1  0
 18 11  1  0
 19 18  2  0
 21 20  1  0
 21 29  1  0
 21 22  1  6
 23 28  1  0
 23 22  1  0
 24 23  2  0
 25 26  2  0
 25 24  1  0
 26 27  1  0
 27 28  2  0
 29 30  1  0
 31 29  2  0
M  END
$$$$
