QHF.pdb
     RDKit          3D

 31 32  0  0  1  0  0  0  0  0999 V2000
   19.6425  -16.1628  -17.1925 N   0  0  0  0  0  0  0  0  0  0  0  0
   18.9886  -15.5504  -18.2894 C   0  0  0  0  0  0  0  0  0  0  0  0
   18.4817  -16.2414  -19.1996 O   0  0  0  0  0  0  0  0  0  0  0  0
   18.9184  -14.0928  -18.3344 C   0  0  0  0  0  0  0  0  0  0  0  0
   19.5940  -13.3670  -17.2278 C   0  0  0  0  0  0  0  0  0  0  0  0
   19.0015  -12.0450  -16.8613 C   0  0  2  0  0  0  0  0  0  0  0  0
   17.8680  -11.7259  -17.7368 N   0  0  0  0  0  0  0  0  0  0  0  0
   20.0208  -10.9501  -17.0360 C   0  0  0  0  0  0  0  0  0  0  0  0
   21.0990  -10.9607  -16.3890 O   0  0  0  0  0  0  0  0  0  0  0  0
   19.8134   -9.8724  -17.9260 N   0  0  0  0  0  0  0  0  0  0  0  0
   20.7676   -8.8321  -18.1470 C   0  0  1  0  0  0  0  0  0  0  0  0
   20.4352   -7.9460  -19.3201 C   0  0  0  0  0  0  0  0  0  0  0  0
   20.7573   -8.5920  -20.6165 C   0  0  0  0  0  0  0  0  0  0  0  0
   21.3787   -9.8169  -20.7189 C   0  0  0  0  0  0  0  0  0  0  0  0
   21.5282  -10.1227  -22.0065 N   0  0  0  0  0  0  0  0  0  0  0  0
   21.0096   -9.1074  -22.7131 C   0  0  0  0  0  0  0  0  0  0  0  0
   20.5403   -8.1758  -21.8716 N   0  0  0  0  0  0  0  0  0  0  0  0
   20.8310   -7.9466  -16.9434 C   0  0  0  0  0  0  0  0  0  0  0  0
   19.7823   -7.6339  -16.3188 O   0  0  0  0  0  0  0  0  0  0  0  0
   22.0602   -7.4242  -16.4552 N   0  0  0  0  0  0  0  0  0  0  0  0
   22.1279   -6.5888  -15.2609 C   0  0  1  0  0  0  0  0  0  0  0  0
   22.5089   -7.4202  -14.0483 C   0  0  0  0  0  0  0  0  0  0  0  0
   23.4823   -8.4473  -14.4984 C   0  0  0  0  0  0  0  0  0  0  0  0
   23.2036   -9.7856  -14.2359 C   0  0  0  0  0  0  0  0  0  0  0  0
   24.0789  -10.7500  -14.6328 C   0  0  0  0  0  0  0  0  0  0  0  0
   25.2319  -10.3774  -15.2915 C   0  0  0  0  0  0  0  0  0  0  0  0
   25.5220   -9.0573  -15.5585 C   0  0  0  0  0  0  0  0  0  0  0  0
   24.6295   -8.0599  -15.1550 C   0  0  0  0  0  0  0  0  0  0  0  0
   23.0933   -5.5027  -15.5383 C   0  0  0  0  0  0  0  0  0  0  0  0
   23.3797   -4.4813  -14.6310 O   0  0  0  0  0  0  0  0  0  0  0  0
   23.7299   -5.4320  -16.6364 O   0  0  0  0  0  0  0  0  0  0  0  0
  2  3  2  0
  2  1  1  0
  4  2  1  0
  5  4  1  0
  6  5  1  0
  6  7  1  6
  8  6  1  0
  8  9  2  0
 10  8  1  0
 11 10  1  0
 11 12  1  6
 13 14  2  0
 13 12  1  0
 15 14  1  0
 16 17  2  0
 16 15  1  0
 17 13  1  0
 18 20  1  0
 18 11  1  0
 19 18  2  0
 21 20  1  0
 21 29  1  0
 21 22  1  1
 23 28  1  0
 23 22  1  0
 24 23  2  0
 25 26  2  0
 25 24  1  0
 26 27  1  0
 27 28  2  0
 29 30  1  0
 31 29  2  0
M  END
$$$$
