QHF.pdb
     RDKit          3D

 31 32  0  0  1  0  0  0  0  0999 V2000
   25.6863  -17.3617  -17.4996 N   0  0  0  0  0  0  0  0  0  0  0  0
   26.7899  -18.2340  -17.6639 C   0  0  0  0  0  0  0  0  0  0  0  0
   27.9519  -17.8519  -17.4060 O   0  0  0  0  0  0  0  0  0  0  0  0
   26.5412  -19.5912  -18.1410 C   0  0  0  0  0  0  0  0  0  0  0  0
   26.0732  -20.5701  -17.1259 C   0  0  0  0  0  0  0  0  0  0  0  0
   26.9550  -20.7384  -15.9312 C   0  0  2  0  0  0  0  0  0  0  0  0
   27.9859  -21.7505  -16.1879 N   0  0  0  0  0  0  0  0  0  0  0  0
   26.1491  -21.2134  -14.7509 C   0  0  0  0  0  0  0  0  0  0  0  0
   25.5986  -22.3440  -14.7562 O   0  0  0  0  0  0  0  0  0  0  0  0
   25.9771  -20.4179  -13.5958 N   0  0  0  0  0  0  0  0  0  0  0  0
   25.1659  -20.8004  -12.4835 C   0  0  1  0  0  0  0  0  0  0  0  0
   25.6926  -20.3174  -11.1566 C   0  0  0  0  0  0  0  0  0  0  0  0
   27.1056  -20.7148  -10.9387 C   0  0  0  0  0  0  0  0  0  0  0  0
   27.8357  -21.4468  -11.8488 C   0  0  0  0  0  0  0  0  0  0  0  0
   29.0620  -21.6412  -11.3671 N   0  0  0  0  0  0  0  0  0  0  0  0
   29.1116  -21.0419  -10.1682 C   0  0  0  0  0  0  0  0  0  0  0  0
   27.9246  -20.4781   -9.9050 N   0  0  0  0  0  0  0  0  0  0  0  0
   23.7962  -20.2205  -12.6396 C   0  0  0  0  0  0  0  0  0  0  0  0
   23.6215  -19.1438  -13.2705 O   0  0  0  0  0  0  0  0  0  0  0  0
   22.6442  -20.8484  -12.0911 N   0  0  0  0  0  0  0  0  0  0  0  0
   21.2920  -20.4696  -12.4872 C   0  0  1  0  0  0  0  0  0  0  0  0
   20.9724  -21.0022  -13.8731 C   0  0  0  0  0  0  0  0  0  0  0  0
   21.4199  -19.9845  -14.8574 C   0  0  0  0  0  0  0  0  0  0  0  0
   20.7119  -18.7892  -14.9443 C   0  0  0  0  0  0  0  0  0  0  0  0
   21.0958  -17.8383  -15.8400 C   0  0  0  0  0  0  0  0  0  0  0  0
   22.1864  -18.0817  -16.6483 C   0  0  0  0  0  0  0  0  0  0  0  0
   22.8974  -19.2595  -16.5744 C   0  0  0  0  0  0  0  0  0  0  0  0
   22.5109  -20.2419  -15.6579 C   0  0  0  0  0  0  0  0  0  0  0  0
   20.3703  -20.9811  -11.4492 C   0  0  0  0  0  0  0  0  0  0  0  0
   19.2392  -20.2859  -11.0183 O   0  0  0  0  0  0  0  0  0  0  0  0
   20.5555  -22.1013  -10.8774 O   0  0  0  0  0  0  0  0  0  0  0  0
  2  3  2  0
  2  1  1  0
  4  2  1  0
  5  4  1  0
  6  5  1  0
  6  7  1  6
  8  6  1  0
  8  9  2  0
 10  8  1  0
 11 10  1  0
 11 12  1  1
 13 14  2  0
 13 12  1  0
 15 14  1  0
 16 17  2  0
 16 15  1  0
 17 13  1  0
 18 20  1  0
 18 11  1  0
 19 18  2  0
 21 20  1  0
 21 29  1  0
 21 22  1  6
 23 28  1  0
 23 22  1  0
 24 23  2  0
 25 26  2  0
 25 24  1  0
 26 27  1  0
 27 28  2  0
 29 30  1  0
 31 29  2  0
M  END
$$$$
