QHF.pdb
     RDKit          3D

 31 32  0  0  1  0  0  0  0  0999 V2000
   27.2144  -41.9166   -9.0068 N   0  0  0  0  0  0  0  0  0  0  0  0
   26.7169  -41.0925  -10.0456 C   0  0  0  0  0  0  0  0  0  0  0  0
   25.9934  -41.5667  -10.9482 O   0  0  0  0  0  0  0  0  0  0  0  0
   27.0669  -39.6751  -10.0399 C   0  0  0  0  0  0  0  0  0  0  0  0
   27.8281  -39.1901   -8.8596 C   0  0  0  0  0  0  0  0  0  0  0  0
   28.1216  -37.7251   -8.8335 C   0  0  2  0  0  0  0  0  0  0  0  0
   28.6431  -37.2791  -10.1305 N   0  0  0  0  0  0  0  0  0  0  0  0
   29.1765  -37.4227   -7.8019 C   0  0  0  0  0  0  0  0  0  0  0  0
   30.2021  -38.1425   -7.6951 O   0  0  0  0  0  0  0  0  0  0  0  0
   29.0622  -36.3275   -6.9164 N   0  0  0  0  0  0  0  0  0  0  0  0
   30.0616  -35.9757   -5.9578 C   0  0  1  0  0  0  0  0  0  0  0  0
   30.7301  -34.6544   -6.2385 C   0  0  0  0  0  0  0  0  0  0  0  0
   31.8472  -34.7884   -7.2060 C   0  0  0  0  0  0  0  0  0  0  0  0
   32.3511  -36.0022   -7.6181 C   0  0  0  0  0  0  0  0  0  0  0  0
   33.3416  -35.7911   -8.4829 N   0  0  0  0  0  0  0  0  0  0  0  0
   33.4664  -34.4626   -8.6192 C   0  0  0  0  0  0  0  0  0  0  0  0
   32.5598  -33.8505   -7.8448 N   0  0  0  0  0  0  0  0  0  0  0  0
   29.4385  -35.8633   -4.6028 C   0  0  0  0  0  0  0  0  0  0  0  0
   28.2146  -35.5905   -4.4782 O   0  0  0  0  0  0  0  0  0  0  0  0
   30.1876  -36.0562   -3.4097 N   0  0  0  0  0  0  0  0  0  0  0  0
   29.5730  -35.9857   -2.0883 C   0  0  1  0  0  0  0  0  0  0  0  0
   28.3618  -36.8990   -2.0130 C   0  0  0  0  0  0  0  0  0  0  0  0
   27.8021  -36.7874   -0.6422 C   0  0  0  0  0  0  0  0  0  0  0  0
   28.0920  -37.7921    0.2767 C   0  0  0  0  0  0  0  0  0  0  0  0
   27.5900  -37.7195    1.5402 C   0  0  0  0  0  0  0  0  0  0  0  0
   26.7989  -36.6438    1.8854 C   0  0  0  0  0  0  0  0  0  0  0  0
   26.5030  -35.6416    0.9875 C   0  0  0  0  0  0  0  0  0  0  0  0
   27.0137  -35.7072   -0.3122 C   0  0  0  0  0  0  0  0  0  0  0  0
   30.6165  -36.3339   -1.0990 C   0  0  0  0  0  0  0  0  0  0  0  0
   30.7091  -35.7374    0.1597 O   0  0  0  0  0  0  0  0  0  0  0  0
   31.5060  -37.2098   -1.3387 O   0  0  0  0  0  0  0  0  0  0  0  0
  2  3  2  0
  2  1  1  0
  4  2  1  0
  5  4  1  0
  6  5  1  0
  6  7  1  6
  8  6  1  0
  8  9  2  0
 10  8  1  0
 11 10  1  0
 11 12  1  6
 13 14  2  0
 13 12  1  0
 15 14  1  0
 16 17  2  0
 16 15  1  0
 17 13  1  0
 18 20  1  0
 18 11  1  0
 19 18  2  0
 21 20  1  0
 21 29  1  0
 21 22  1  6
 23 28  1  0
 23 22  1  0
 24 23  2  0
 25 26  2  0
 25 24  1  0
 26 27  1  0
 27 28  2  0
 29 30  1  0
 31 29  2  0
M  END
$$$$
