QHF.pdb
     RDKit          3D

 31 32  0  0  1  0  0  0  0  0999 V2000
   29.7066  -17.1532  -16.1435 N   0  0  0  0  0  0  0  0  0  0  0  0
   28.6559  -17.8679  -16.7689 C   0  0  0  0  0  0  0  0  0  0  0  0
   28.5365  -17.8721  -18.0133 O   0  0  0  0  0  0  0  0  0  0  0  0
   27.7142  -18.6014  -15.9282 C   0  0  0  0  0  0  0  0  0  0  0  0
   27.9759  -18.5712  -14.4659 C   0  0  0  0  0  0  0  0  0  0  0  0
   27.7589  -19.8597  -13.7407 C   0  0  2  0  0  0  0  0  0  0  0  0
   26.9528  -20.7797  -14.5512 N   0  0  0  0  0  0  0  0  0  0  0  0
   27.0043  -19.6167  -12.4601 C   0  0  0  0  0  0  0  0  0  0  0  0
   27.0635  -18.5052  -11.8752 O   0  0  0  0  0  0  0  0  0  0  0  0
   26.2036  -20.6171  -11.8645 N   0  0  0  0  0  0  0  0  0  0  0  0
   25.5798  -20.4764  -10.5867 C   0  0  1  0  0  0  0  0  0  0  0  0
   24.2335  -21.1478  -10.4940 C   0  0  0  0  0  0  0  0  0  0  0  0
   23.2347  -20.5227  -11.3958 C   0  0  0  0  0  0  0  0  0  0  0  0
   23.4944  -19.4021  -12.1533 C   0  0  0  0  0  0  0  0  0  0  0  0
   22.4055  -19.0876  -12.8526 N   0  0  0  0  0  0  0  0  0  0  0  0
   21.4666  -19.9947  -12.5448 C   0  0  0  0  0  0  0  0  0  0  0  0
   21.9672  -20.8680  -11.6599 N   0  0  0  0  0  0  0  0  0  0  0  0
   26.4439  -21.0982   -9.5362 C   0  0  0  0  0  0  0  0  0  0  0  0
   27.1705  -22.0916   -9.8060 O   0  0  0  0  0  0  0  0  0  0  0  0
   26.4848  -20.6041   -8.2034 N   0  0  0  0  0  0  0  0  0  0  0  0
   27.3263  -21.2103   -7.1772 C   0  0  1  0  0  0  0  0  0  0  0  0
   28.6573  -20.4852   -7.0808 C   0  0  0  0  0  0  0  0  0  0  0  0
   28.7299  -19.8607   -5.7356 C   0  0  0  0  0  0  0  0  0  0  0  0
   28.2874  -18.5491   -5.5882 C   0  0  0  0  0  0  0  0  0  0  0  0
   28.3450  -17.9481   -4.3679 C   0  0  0  0  0  0  0  0  0  0  0  0
   28.8444  -18.6572   -3.2955 C   0  0  0  0  0  0  0  0  0  0  0  0
   29.2862  -19.9557   -3.4252 C   0  0  0  0  0  0  0  0  0  0  0  0
   29.2312  -20.5813   -4.6741 C   0  0  0  0  0  0  0  0  0  0  0  0
   26.5639  -21.1810   -5.9097 C   0  0  0  0  0  0  0  0  0  0  0  0
   25.3668  -20.4806   -5.7511 O   0  0  0  0  0  0  0  0  0  0  0  0
   26.9586  -21.8005   -4.8722 O   0  0  0  0  0  0  0  0  0  0  0  0
  2  3  2  0
  2  1  1  0
  4  2  1  0
  5  4  1  0
  6  5  1  0
  6  7  1  6
  8  6  1  0
  8  9  2  0
 10  8  1  0
 11 10  1  0
 11 12  1  6
 13 14  2  0
 13 12  1  0
 15 14  1  0
 16 17  2  0
 16 15  1  0
 17 13  1  0
 18 20  1  0
 18 11  1  0
 19 18  2  0
 21 20  1  0
 21 29  1  0
 21 22  1  1
 23 28  1  0
 23 22  1  0
 24 23  2  0
 25 26  2  0
 25 24  1  0
 26 27  1  0
 27 28  2  0
 29 30  1  0
 31 29  2  0
M  END
$$$$
