QHF.pdb
     RDKit          3D

 31 32  0  0  1  0  0  0  0  0999 V2000
   30.2922  -26.1416  -16.4139 N   0  0  0  0  0  0  0  0  0  0  0  0
   30.8817  -24.9018  -16.7620 C   0  0  0  0  0  0  0  0  0  0  0  0
   31.8995  -24.4872  -16.1661 O   0  0  0  0  0  0  0  0  0  0  0  0
   30.2752  -24.1173  -17.8335 C   0  0  0  0  0  0  0  0  0  0  0  0
   29.3110  -23.0669  -17.4152 C   0  0  0  0  0  0  0  0  0  0  0  0
   27.9296  -23.5418  -17.1003 C   0  0  2  0  0  0  0  0  0  0  0  0
   27.2586  -24.0216  -18.3139 N   0  0  0  0  0  0  0  0  0  0  0  0
   27.1012  -22.4099  -16.5517 C   0  0  0  0  0  0  0  0  0  0  0  0
   27.4599  -21.7865  -15.5202 O   0  0  0  0  0  0  0  0  0  0  0  0
   25.8958  -22.0015  -17.1655 N   0  0  0  0  0  0  0  0  0  0  0  0
   25.0315  -20.9997  -16.6261 C   0  0  1  0  0  0  0  0  0  0  0  0
   24.3042  -20.1995  -17.6761 C   0  0  0  0  0  0  0  0  0  0  0  0
   23.3524  -19.2301  -17.0794 C   0  0  0  0  0  0  0  0  0  0  0  0
   23.7082  -17.9549  -16.6996 C   0  0  0  0  0  0  0  0  0  0  0  0
   22.6396  -17.3350  -16.2021 N   0  0  0  0  0  0  0  0  0  0  0  0
   21.6188  -18.2027  -16.2644 C   0  0  0  0  0  0  0  0  0  0  0  0
   22.0486  -19.3551  -16.7970 N   0  0  0  0  0  0  0  0  0  0  0  0
   23.9845  -21.6462  -15.7760 C   0  0  0  0  0  0  0  0  0  0  0  0
   23.3364  -22.6406  -16.1988 O   0  0  0  0  0  0  0  0  0  0  0  0
   23.6766  -21.1753  -14.4701 N   0  0  0  0  0  0  0  0  0  0  0  0
   22.6845  -21.8298  -13.6237 C   0  0  1  0  0  0  0  0  0  0  0  0
   23.3625  -22.7186  -12.5956 C   0  0  0  0  0  0  0  0  0  0  0  0
   24.2474  -21.8558  -11.7726 C   0  0  0  0  0  0  0  0  0  0  0  0
   25.5924  -21.7630  -12.1190 C   0  0  0  0  0  0  0  0  0  0  0  0
   26.4294  -20.9828  -11.3812 C   0  0  0  0  0  0  0  0  0  0  0  0
   25.9228  -20.2958  -10.2979 C   0  0  0  0  0  0  0  0  0  0  0  0
   24.5943  -20.3773   -9.9423 C   0  0  0  0  0  0  0  0  0  0  0  0
   23.7271  -21.1758  -10.6936 C   0  0  0  0  0  0  0  0  0  0  0  0
   21.8610  -20.7659  -13.0085 C   0  0  0  0  0  0  0  0  0  0  0  0
   22.1482  -19.4055  -13.1329 O   0  0  0  0  0  0  0  0  0  0  0  0
   20.8266  -21.0296  -12.3181 O   0  0  0  0  0  0  0  0  0  0  0  0
  2  3  2  0
  2  1  1  0
  4  2  1  0
  5  4  1  0
  6  5  1  0
  6  7  1  6
  8  6  1  0
  8  9  2  0
 10  8  1  0
 11 10  1  0
 11 12  1  6
 13 14  2  0
 13 12  1  0
 15 14  1  0
 16 17  2  0
 16 15  1  0
 17 13  1  0
 18 20  1  0
 18 11  1  0
 19 18  2  0
 21 20  1  0
 21 29  1  0
 21 22  1  1
 23 28  1  0
 23 22  1  0
 24 23  2  0
 25 26  2  0
 25 24  1  0
 26 27  1  0
 27 28  2  0
 29 30  1  0
 31 29  2  0
M  END
$$$$
