QHF.pdb
     RDKit          3D

 31 32  0  0  1  0  0  0  0  0999 V2000
   29.4178  -31.3914  -16.6334 N   0  0  0  0  0  0  0  0  0  0  0  0
   28.5251  -31.0558  -17.6805 C   0  0  0  0  0  0  0  0  0  0  0  0
   28.8939  -31.0984  -18.8743 O   0  0  0  0  0  0  0  0  0  0  0  0
   27.1631  -30.6592  -17.3358 C   0  0  0  0  0  0  0  0  0  0  0  0
   26.8634  -29.2056  -17.4059 C   0  0  0  0  0  0  0  0  0  0  0  0
   26.6470  -28.6526  -18.7773 C   0  0  2  0  0  0  0  0  0  0  0  0
   27.9036  -28.6424  -19.5348 N   0  0  0  0  0  0  0  0  0  0  0  0
   26.1653  -27.2279  -18.6952 C   0  0  0  0  0  0  0  0  0  0  0  0
   25.1671  -26.9219  -17.9943 O   0  0  0  0  0  0  0  0  0  0  0  0
   26.8070  -26.1817  -19.3953 N   0  0  0  0  0  0  0  0  0  0  0  0
   26.3653  -24.8230  -19.3693 C   0  0  1  0  0  0  0  0  0  0  0  0
   27.4729  -23.8231  -19.5818 C   0  0  0  0  0  0  0  0  0  0  0  0
   26.9679  -22.4280  -19.6086 C   0  0  0  0  0  0  0  0  0  0  0  0
   26.3675  -21.8188  -18.5291 C   0  0  0  0  0  0  0  0  0  0  0  0
   26.0263  -20.5761  -18.8651 N   0  0  0  0  0  0  0  0  0  0  0  0
   26.4039  -20.3970  -20.1396 C   0  0  0  0  0  0  0  0  0  0  0  0
   26.9763  -21.5204  -20.5943 N   0  0  0  0  0  0  0  0  0  0  0  0
   25.3684  -24.5994  -20.4615 C   0  0  0  0  0  0  0  0  0  0  0  0
   25.6349  -24.9183  -21.6510 O   0  0  0  0  0  0  0  0  0  0  0  0
   24.0919  -24.0249  -20.2115 N   0  0  0  0  0  0  0  0  0  0  0  0
   23.1465  -23.7389  -21.2855 C   0  0  1  0  0  0  0  0  0  0  0  0
   22.1200  -24.8519  -21.4040 C   0  0  0  0  0  0  0  0  0  0  0  0
   21.3471  -24.8842  -20.1365 C   0  0  0  0  0  0  0  0  0  0  0  0
   21.7077  -25.8115  -19.1629 C   0  0  0  0  0  0  0  0  0  0  0  0
   21.0155  -25.8677  -17.9919 C   0  0  0  0  0  0  0  0  0  0  0  0
   19.9636  -24.9980  -17.7938 C   0  0  0  0  0  0  0  0  0  0  0  0
   19.5945  -24.0748  -18.7474 C   0  0  0  0  0  0  0  0  0  0  0  0
   20.2991  -24.0094  -19.9530 C   0  0  0  0  0  0  0  0  0  0  0  0
   22.5355  -22.4234  -20.9946 C   0  0  0  0  0  0  0  0  0  0  0  0
   21.6757  -21.7657  -21.8760 O   0  0  0  0  0  0  0  0  0  0  0  0
   22.7601  -21.8021  -19.9085 O   0  0  0  0  0  0  0  0  0  0  0  0
  2  3  2  0
  2  1  1  0
  4  2  1  0
  5  4  1  0
  6  5  1  0
  6  7  1  6
  8  6  1  0
  8  9  2  0
 10  8  1  0
 11 10  1  0
 11 12  1  6
 13 14  2  0
 13 12  1  0
 15 14  1  0
 16 17  2  0
 16 15  1  0
 17 13  1  0
 18 20  1  0
 18 11  1  0
 19 18  2  0
 21 20  1  0
 21 29  1  0
 21 22  1  1
 23 28  1  0
 23 22  1  0
 24 23  2  0
 25 26  2  0
 25 24  1  0
 26 27  1  0
 27 28  2  0
 29 30  1  0
 31 29  2  0
M  END
$$$$
