QHF.pdb
     RDKit          3D

 31 32  0  0  1  0  0  0  0  0999 V2000
   15.3173   -3.2917  -14.7415 N   0  0  0  0  0  0  0  0  0  0  0  0
   15.1539   -4.6935  -14.6219 C   0  0  0  0  0  0  0  0  0  0  0  0
   14.5758   -5.1882  -13.6300 O   0  0  0  0  0  0  0  0  0  0  0  0
   15.6752   -5.5497  -15.6833 C   0  0  0  0  0  0  0  0  0  0  0  0
   16.3613   -4.8609  -16.8070 C   0  0  0  0  0  0  0  0  0  0  0  0
   17.0364   -5.7514  -17.7992 C   0  0  2  0  0  0  0  0  0  0  0  0
   16.1043   -6.7682  -18.2995 N   0  0  0  0  0  0  0  0  0  0  0  0
   18.1836   -6.4802  -17.1502 C   0  0  0  0  0  0  0  0  0  0  0  0
   18.5805   -6.1671  -15.9988 O   0  0  0  0  0  0  0  0  0  0  0  0
   18.8588   -7.5380  -17.7996 N   0  0  0  0  0  0  0  0  0  0  0  0
   19.9467   -8.2592  -17.2183 C   0  0  1  0  0  0  0  0  0  0  0  0
   20.0271   -9.6963  -17.6655 C   0  0  0  0  0  0  0  0  0  0  0  0
   21.1374  -10.4255  -17.0044 C   0  0  0  0  0  0  0  0  0  0  0  0
   22.2708  -10.8422  -17.6670 C   0  0  0  0  0  0  0  0  0  0  0  0
   23.0744  -11.4637  -16.8059 N   0  0  0  0  0  0  0  0  0  0  0  0
   22.4617  -11.4429  -15.6129 C   0  0  0  0  0  0  0  0  0  0  0  0
   21.2846  -10.8128  -15.7302 N   0  0  0  0  0  0  0  0  0  0  0  0
   21.2393   -7.6148  -17.6066 C   0  0  0  0  0  0  0  0  0  0  0  0
   21.3692   -7.0594  -18.7301 O   0  0  0  0  0  0  0  0  0  0  0  0
   22.3652   -7.5994  -16.7382 N   0  0  0  0  0  0  0  0  0  0  0  0
   23.5631   -6.8211  -17.0354 C   0  0  1  0  0  0  0  0  0  0  0  0
   24.4748   -6.7597  -15.8223 C   0  0  0  0  0  0  0  0  0  0  0  0
   24.8170   -8.1556  -15.4490 C   0  0  0  0  0  0  0  0  0  0  0  0
   25.9970   -8.7043  -15.9432 C   0  0  0  0  0  0  0  0  0  0  0  0
   26.3358   -9.9832  -15.6216 C   0  0  0  0  0  0  0  0  0  0  0  0
   25.4961  -10.7133  -14.8068 C   0  0  0  0  0  0  0  0  0  0  0  0
   24.3250  -10.1845  -14.3098 C   0  0  0  0  0  0  0  0  0  0  0  0
   23.9685   -8.8724  -14.6344 C   0  0  0  0  0  0  0  0  0  0  0  0
   24.2119   -7.4442  -18.2099 C   0  0  0  0  0  0  0  0  0  0  0  0
   25.2656   -6.8515  -18.9078 O   0  0  0  0  0  0  0  0  0  0  0  0
   23.8434   -8.5736  -18.6624 O   0  0  0  0  0  0  0  0  0  0  0  0
  2  3  2  0
  2  1  1  0
  4  2  1  0
  5  4  1  0
  6  5  1  0
  6  7  1  1
  8  6  1  0
  8  9  2  0
 10  8  1  0
 11 10  1  0
 11 12  1  6
 13 14  2  0
 13 12  1  0
 15 14  1  0
 16 17  2  0
 16 15  1  0
 17 13  1  0
 18 20  1  0
 18 11  1  0
 19 18  2  0
 21 20  1  0
 21 29  1  0
 21 22  1  1
 23 28  1  0
 23 22  1  0
 24 23  2  0
 25 26  2  0
 25 24  1  0
 26 27  1  0
 27 28  2  0
 29 30  1  0
 31 29  2  0
M  END
$$$$
