QHF.pdb
     RDKit          3D

 31 32  0  0  1  0  0  0  0  0999 V2000
   22.0535  -12.1661  -18.2636 N   0  0  0  0  0  0  0  0  0  0  0  0
   22.2010  -11.8222  -19.6295 C   0  0  0  0  0  0  0  0  0  0  0  0
   22.0191  -10.6477  -20.0172 O   0  0  0  0  0  0  0  0  0  0  0  0
   22.5710  -12.8698  -20.5766 C   0  0  0  0  0  0  0  0  0  0  0  0
   22.6886  -14.2443  -20.0246 C   0  0  0  0  0  0  0  0  0  0  0  0
   23.8647  -15.0356  -20.4975 C   0  0  2  0  0  0  0  0  0  0  0  0
   23.6819  -15.4496  -21.8933 N   0  0  0  0  0  0  0  0  0  0  0  0
   24.0135  -16.2899  -19.6772 C   0  0  0  0  0  0  0  0  0  0  0  0
   23.5874  -17.3945  -20.1009 O   0  0  0  0  0  0  0  0  0  0  0  0
   24.6325  -16.2818  -18.4070 N   0  0  0  0  0  0  0  0  0  0  0  0
   24.8026  -17.4492  -17.6007 C   0  0  1  0  0  0  0  0  0  0  0  0
   26.1770  -17.5699  -16.9941 C   0  0  0  0  0  0  0  0  0  0  0  0
   27.2266  -17.7669  -18.0243 C   0  0  0  0  0  0  0  0  0  0  0  0
   27.7594  -18.9978  -18.3373 C   0  0  0  0  0  0  0  0  0  0  0  0
   28.6732  -18.8457  -19.2942 N   0  0  0  0  0  0  0  0  0  0  0  0
   28.7213  -17.5374  -19.5858 C   0  0  0  0  0  0  0  0  0  0  0  0
   27.8435  -16.8792  -18.8159 N   0  0  0  0  0  0  0  0  0  0  0  0
   23.8315  -17.4184  -16.4637 C   0  0  0  0  0  0  0  0  0  0  0  0
   23.8338  -16.4636  -15.6414 O   0  0  0  0  0  0  0  0  0  0  0  0
   22.8746  -18.4505  -16.2608 N   0  0  0  0  0  0  0  0  0  0  0  0
   21.8487  -18.3644  -15.2269 C   0  0  1  0  0  0  0  0  0  0  0  0
   20.6806  -17.5184  -15.7025 C   0  0  0  0  0  0  0  0  0  0  0  0
   19.6562  -17.5257  -14.6275 C   0  0  0  0  0  0  0  0  0  0  0  0
   19.7506  -16.5755  -13.6146 C   0  0  0  0  0  0  0  0  0  0  0  0
   18.8284  -16.5595  -12.6131 C   0  0  0  0  0  0  0  0  0  0  0  0
   17.8126  -17.4923  -12.6237 C   0  0  0  0  0  0  0  0  0  0  0  0
   17.7056  -18.4390  -13.6188 C   0  0  0  0  0  0  0  0  0  0  0  0
   18.6476  -18.4635  -14.6514 C   0  0  0  0  0  0  0  0  0  0  0  0
   21.4530  -19.7481  -14.8840 C   0  0  0  0  0  0  0  0  0  0  0  0
   21.0230  -20.1295  -13.6119 O   0  0  0  0  0  0  0  0  0  0  0  0
   21.4816  -20.6880  -15.7394 O   0  0  0  0  0  0  0  0  0  0  0  0
  2  3  2  0
  2  1  1  0
  4  2  1  0
  5  4  1  0
  6  5  1  0
  6  7  1  6
  8  6  1  0
  8  9  2  0
 10  8  1  0
 11 10  1  0
 11 12  1  1
 13 14  2  0
 13 12  1  0
 15 14  1  0
 16 17  2  0
 16 15  1  0
 17 13  1  0
 18 20  1  0
 18 11  1  0
 19 18  2  0
 21 20  1  0
 21 29  1  0
 21 22  1  6
 23 28  1  0
 23 22  1  0
 24 23  2  0
 25 26  2  0
 25 24  1  0
 26 27  1  0
 27 28  2  0
 29 30  1  0
 31 29  2  0
M  END
$$$$
