QHF.pdb
     RDKit          3D

 31 32  0  0  1  0  0  0  0  0999 V2000
   28.4712  -18.2227  -18.1426 N   0  0  0  0  0  0  0  0  0  0  0  0
   29.0174  -16.9363  -17.9129 C   0  0  0  0  0  0  0  0  0  0  0  0
   29.8920  -16.4671  -18.6730 O   0  0  0  0  0  0  0  0  0  0  0  0
   28.5363  -16.1684  -16.7682 C   0  0  0  0  0  0  0  0  0  0  0  0
   27.5773  -16.8598  -15.8682 C   0  0  0  0  0  0  0  0  0  0  0  0
   26.3461  -17.3984  -16.5219 C   0  0  2  0  0  0  0  0  0  0  0  0
   25.3979  -16.3162  -16.8097 N   0  0  0  0  0  0  0  0  0  0  0  0
   25.6496  -18.3680  -15.6036 C   0  0  0  0  0  0  0  0  0  0  0  0
   24.8913  -17.9602  -14.6871 O   0  0  0  0  0  0  0  0  0  0  0  0
   25.8153  -19.7656  -15.7296 N   0  0  0  0  0  0  0  0  0  0  0  0
   25.1575  -20.7202  -14.8942 C   0  0  1  0  0  0  0  0  0  0  0  0
   25.1097  -22.1070  -15.4825 C   0  0  0  0  0  0  0  0  0  0  0  0
   24.3477  -23.0502  -14.6273 C   0  0  0  0  0  0  0  0  0  0  0  0
   24.9229  -24.1244  -13.9851 C   0  0  0  0  0  0  0  0  0  0  0  0
   23.9844  -24.7753  -13.3001 N   0  0  0  0  0  0  0  0  0  0  0  0
   22.8290  -24.1250  -13.5033 C   0  0  0  0  0  0  0  0  0  0  0  0
   23.0464  -23.0764  -14.3092 N   0  0  0  0  0  0  0  0  0  0  0  0
   25.8837  -20.8303  -13.5914 C   0  0  0  0  0  0  0  0  0  0  0  0
   27.1431  -20.8449  -13.5561 O   0  0  0  0  0  0  0  0  0  0  0  0
   25.1961  -20.9223  -12.3501 N   0  0  0  0  0  0  0  0  0  0  0  0
   25.9031  -21.0269  -11.0780 C   0  0  1  0  0  0  0  0  0  0  0  0
   26.8757  -19.8725  -10.9109 C   0  0  0  0  0  0  0  0  0  0  0  0
   27.4719  -19.9829   -9.5554 C   0  0  0  0  0  0  0  0  0  0  0  0
   28.5293  -20.8682   -9.3658 C   0  0  0  0  0  0  0  0  0  0  0  0
   29.0942  -20.9943   -8.1334 C   0  0  0  0  0  0  0  0  0  0  0  0
   28.6029  -20.2362   -7.0913 C   0  0  0  0  0  0  0  0  0  0  0  0
   27.5572  -19.3558   -7.2628 C   0  0  0  0  0  0  0  0  0  0  0  0
   26.9705  -19.2194   -8.5244 C   0  0  0  0  0  0  0  0  0  0  0  0
   24.8809  -21.0752  -10.0097 C   0  0  0  0  0  0  0  0  0  0  0  0
   25.0048  -21.8647   -8.8652 O   0  0  0  0  0  0  0  0  0  0  0  0
   23.8111  -20.3911  -10.0701 O   0  0  0  0  0  0  0  0  0  0  0  0
  2  3  2  0
  2  1  1  0
  4  2  1  0
  5  4  1  0
  6  5  1  0
  6  7  1  1
  8  6  1  0
  8  9  2  0
 10  8  1  0
 11 10  1  0
 11 12  1  6
 13 14  2  0
 13 12  1  0
 15 14  1  0
 16 17  2  0
 16 15  1  0
 17 13  1  0
 18 20  1  0
 18 11  1  0
 19 18  2  0
 21 20  1  0
 21 29  1  0
 21 22  1  1
 23 28  1  0
 23 22  1  0
 24 23  2  0
 25 26  2  0
 25 24  1  0
 26 27  1  0
 27 28  2  0
 29 30  1  0
 31 29  2  0
M  END
$$$$
