EWR.pdb
     RDKit          3D

 35 36  0  0  1  0  0  0  0  0999 V2000
    8.7915  -17.1346   19.5106 N   0  0  0  0  0  0  0  0  0  0  0  0
    8.5253  -18.1648   20.5334 C   0  0  1  0  0  0  0  0  0  0  0  0
    9.3554  -19.3681   20.2533 C   0  0  0  0  0  0  0  0  0  0  0  0
    9.5591  -19.6369   18.7889 C   0  0  0  0  0  0  0  0  0  0  0  0
   10.2652  -20.9519   18.6142 C   0  0  0  0  0  0  0  0  0  0  0  0
   10.5376  -21.3209   17.4624 O   0  0  0  0  0  0  0  0  0  0  0  0
    8.7697  -17.5212   21.8283 C   0  0  0  0  0  0  0  0  0  0  0  0
    9.9297  -17.0594   22.1263 O   0  0  0  0  0  0  0  0  0  0  0  0
   10.5971  -21.7198   19.7069 O   0  0  0  0  0  0  0  0  0  0  0  0
    7.7241  -17.3905   22.7790 N   0  0  0  0  0  0  0  0  0  0  0  0
    8.0502  -16.8078   24.0610 C   0  0  1  0  0  0  0  0  0  0  0  0
    6.7621  -16.2398   24.6424 C   0  0  0  0  0  0  0  0  0  0  0  0
    6.7124  -14.7769   24.4351 C   0  0  0  0  0  0  0  0  0  0  0  0
    6.6829  -14.1105   23.2315 C   0  0  0  0  0  0  0  0  0  0  0  0
    6.6379  -12.7788   23.4516 N   0  0  0  0  0  0  0  0  0  0  0  0
    6.6378  -12.5668   24.7821 C   0  0  0  0  0  0  0  0  0  0  0  0
    6.6023  -11.4150   25.5112 C   0  0  0  0  0  0  0  0  0  0  0  0
    6.6129  -11.4861   26.8893 C   0  0  0  0  0  0  0  0  0  0  0  0
    6.6586  -12.7017   27.5300 C   0  0  0  0  0  0  0  0  0  0  0  0
    6.6938  -13.8542   26.7790 C   0  0  0  0  0  0  0  0  0  0  0  0
    6.6843  -13.8122   25.4165 C   0  0  0  0  0  0  0  0  0  0  0  0
    8.6510  -17.8090   24.9523 C   0  0  0  0  0  0  0  0  0  0  0  0
    8.3440  -19.0311   24.7759 O   0  0  0  0  0  0  0  0  0  0  0  0
   16.6699  -19.0443   23.5953 N   0  0  0  0  0  0  0  0  0  0  0  0
   16.1444  -17.7316   23.7482 C   0  0  0  0  0  0  0  0  0  0  0  0
   16.9444  -16.6991   23.7994 N   0  0  0  0  0  0  0  0  0  0  0  0
   14.7549  -17.4789   23.8514 N   0  0  0  0  0  0  0  0  0  0  0  0
   13.7630  -18.4992   23.6498 C   0  0  0  0  0  0  0  0  0  0  0  0
   12.9727  -18.6119   24.9576 C   0  0  0  0  0  0  0  0  0  0  0  0
   11.6321  -17.9926   24.8463 C   0  0  0  0  0  0  0  0  0  0  0  0
   10.8202  -18.2248   26.0919 C   0  0  2  0  0  0  0  0  0  0  0  0
    9.5485  -17.4952   25.9933 N   0  0  0  0  0  0  0  0  0  0  0  0
   11.5666  -17.6858   27.2592 C   0  0  0  0  0  0  0  0  0  0  0  0
   11.6111  -16.3603   27.5614 O   0  0  0  0  0  0  0  0  0  0  0  0
   12.2040  -18.4771   28.0242 O   0  0  0  0  0  0  0  0  0  0  0  0
  2  1  1  6
  3  4  1  0
  3  2  1  0
  4  5  1  0
  5  9  1  0
  5  6  2  0
  7  8  2  0
  7  2  1  0
 10  7  1  0
 11 10  1  0
 11 12  1  1
 13 21  1  0
 13 12  1  0
 14 13  2  0
 15 14  1  0
 15 16  1  0
 16 17  1  0
 16 21  2  0
 17 18  2  0
 18 19  1  0
 20 19  2  0
 21 20  1  0
 22 11  1  0
 23 22  2  0
 24 25  1  0
 25 27  1  0
 26 25  2  0
 27 28  1  0
 29 28  1  0
 29 30  1  0
 31 30  1  6
 31 32  1  0
 31 33  1  0
 32 22  1  0
 33 34  1  0
 35 33  2  0
M  END
$$$$
