EWR.pdb
     RDKit          3D

 35 36  0  0  1  0  0  0  0  0999 V2000
    6.0911  -15.9634   20.6003 N   0  0  0  0  0  0  0  0  0  0  0  0
    7.4206  -16.6040   20.6090 C   0  0  1  0  0  0  0  0  0  0  0  0
    8.0407  -16.4786   19.2618 C   0  0  0  0  0  0  0  0  0  0  0  0
    7.5151  -17.4656   18.2579 C   0  0  0  0  0  0  0  0  0  0  0  0
    8.2717  -18.7581   18.3825 C   0  0  0  0  0  0  0  0  0  0  0  0
    9.1557  -18.8371   19.2481 O   0  0  0  0  0  0  0  0  0  0  0  0
    8.1655  -15.9740   21.7040 C   0  0  0  0  0  0  0  0  0  0  0  0
    8.5254  -14.7438   21.6341 O   0  0  0  0  0  0  0  0  0  0  0  0
    7.9860  -19.8200   17.5552 O   0  0  0  0  0  0  0  0  0  0  0  0
    8.4997  -16.7122   22.8692 N   0  0  0  0  0  0  0  0  0  0  0  0
    9.3471  -16.0726   23.8500 C   0  0  1  0  0  0  0  0  0  0  0  0
    8.7447  -16.3509   25.2210 C   0  0  0  0  0  0  0  0  0  0  0  0
    7.6395  -15.4070   25.4919 C   0  0  0  0  0  0  0  0  0  0  0  0
    6.2905  -15.6736   25.4420 C   0  0  0  0  0  0  0  0  0  0  0  0
    5.5962  -14.5582   25.7547 N   0  0  0  0  0  0  0  0  0  0  0  0
    6.4733  -13.5674   26.0077 C   0  0  0  0  0  0  0  0  0  0  0  0
    6.2836  -12.2644   26.3621 C   0  0  0  0  0  0  0  0  0  0  0  0
    7.3803  -11.4513   26.5629 C   0  0  0  0  0  0  0  0  0  0  0  0
    8.6558  -11.9411   26.4096 C   0  0  0  0  0  0  0  0  0  0  0  0
    8.8294  -13.2584   26.0517 C   0  0  0  0  0  0  0  0  0  0  0  0
    7.7633  -14.0831   25.8473 C   0  0  0  0  0  0  0  0  0  0  0  0
   10.7258  -16.5703   23.7535 C   0  0  0  0  0  0  0  0  0  0  0  0
   10.9098  -17.8291   23.7361 O   0  0  0  0  0  0  0  0  0  0  0  0
   19.2140  -14.0965   20.6155 N   0  0  0  0  0  0  0  0  0  0  0  0
   18.0624  -14.4559   19.8622 C   0  0  0  0  0  0  0  0  0  0  0  0
   17.9621  -14.1189   18.6032 N   0  0  0  0  0  0  0  0  0  0  0  0
   16.9852  -15.1827   20.4249 N   0  0  0  0  0  0  0  0  0  0  0  0
   15.9688  -14.5648   21.2314 C   0  0  0  0  0  0  0  0  0  0  0  0
   15.0782  -15.6934   21.7614 C   0  0  0  0  0  0  0  0  0  0  0  0
   13.8647  -15.1699   22.4297 C   0  0  0  0  0  0  0  0  0  0  0  0
   13.1131  -16.2687   23.1314 C   0  0  2  0  0  0  0  0  0  0  0  0
   11.8586  -15.7343   23.6793 N   0  0  0  0  0  0  0  0  0  0  0  0
   13.9342  -16.7624   24.2682 C   0  0  0  0  0  0  0  0  0  0  0  0
   13.5831  -16.5790   25.5695 O   0  0  0  0  0  0  0  0  0  0  0  0
   15.0205  -17.3841   24.0424 O   0  0  0  0  0  0  0  0  0  0  0  0
  2  1  1  6
  3  4  1  0
  3  2  1  0
  4  5  1  0
  5  9  1  0
  5  6  2  0
  7  8  2  0
  7  2  1  0
 10  7  1  0
 11 10  1  0
 11 12  1  1
 13 21  1  0
 13 12  1  0
 14 13  2  0
 15 14  1  0
 15 16  1  0
 16 17  1  0
 16 21  2  0
 17 18  2  0
 18 19  1  0
 20 19  2  0
 21 20  1  0
 22 11  1  0
 23 22  2  0
 24 25  1  0
 25 27  1  0
 26 25  2  0
 27 28  1  0
 29 28  1  0
 29 30  1  0
 31 30  1  1
 31 32  1  0
 31 33  1  0
 32 22  1  0
 33 34  1  0
 35 33  2  0
M  END
$$$$
