EWR.pdb
     RDKit          3D

 35 36  0  0  1  0  0  0  0  0999 V2000
    8.3858  -16.0162   19.7796 N   0  0  0  0  0  0  0  0  0  0  0  0
    8.4163  -17.1861   20.6790 C   0  0  1  0  0  0  0  0  0  0  0  0
    9.2156  -18.2736   20.0515 C   0  0  0  0  0  0  0  0  0  0  0  0
    8.6044  -18.8282   18.7957 C   0  0  0  0  0  0  0  0  0  0  0  0
    9.4433  -19.9686   18.2914 C   0  0  0  0  0  0  0  0  0  0  0  0
   10.6740  -19.8899   18.4183 O   0  0  0  0  0  0  0  0  0  0  0  0
    8.9246  -16.6947   21.9639 C   0  0  0  0  0  0  0  0  0  0  0  0
    9.9280  -15.8958   22.0137 O   0  0  0  0  0  0  0  0  0  0  0  0
    8.8548  -21.0662   17.7060 O   0  0  0  0  0  0  0  0  0  0  0  0
    8.3120  -17.0893   23.1819 N   0  0  0  0  0  0  0  0  0  0  0  0
    8.9781  -16.7353   24.4148 C   0  0  1  0  0  0  0  0  0  0  0  0
    7.8971  -16.4221   25.4412 C   0  0  0  0  0  0  0  0  0  0  0  0
    7.2433  -15.1369   25.1150 C   0  0  0  0  0  0  0  0  0  0  0  0
    6.3435  -14.8980   24.1018 C   0  0  0  0  0  0  0  0  0  0  0  0
    5.9686  -13.6008   24.1250 N   0  0  0  0  0  0  0  0  0  0  0  0
    6.6113  -12.9898   25.1392 C   0  0  0  0  0  0  0  0  0  0  0  0
    6.5796  -11.6995   25.5792 C   0  0  0  0  0  0  0  0  0  0  0  0
    7.3537  -11.3346   26.6618 C   0  0  0  0  0  0  0  0  0  0  0  0
    8.1524  -12.2560   27.2971 C   0  0  0  0  0  0  0  0  0  0  0  0
    8.1724  -13.5538   26.8402 C   0  0  0  0  0  0  0  0  0  0  0  0
    7.4175  -13.9406   25.7730 C   0  0  0  0  0  0  0  0  0  0  0  0
    9.8542  -17.8243   24.8667 C   0  0  0  0  0  0  0  0  0  0  0  0
    9.4706  -19.0222   24.6751 O   0  0  0  0  0  0  0  0  0  0  0  0
   14.6149  -18.1891   21.0129 N   0  0  0  0  0  0  0  0  0  0  0  0
   15.2254  -19.2099   21.7927 C   0  0  0  0  0  0  0  0  0  0  0  0
   16.4461  -19.6001   21.5354 N   0  0  0  0  0  0  0  0  0  0  0  0
   14.5563  -19.8448   22.8672 N   0  0  0  0  0  0  0  0  0  0  0  0
   13.2669  -19.4200   23.3388 C   0  0  0  0  0  0  0  0  0  0  0  0
   13.5090  -18.2385   24.2837 C   0  0  0  0  0  0  0  0  0  0  0  0
   13.3041  -18.6156   25.7011 C   0  0  0  0  0  0  0  0  0  0  0  0
   11.8414  -18.7780   26.0151 C   0  0  2  0  0  0  0  0  0  0  0  0
   11.0965  -17.6202   25.5013 N   0  0  0  0  0  0  0  0  0  0  0  0
   11.6680  -18.8140   27.4912 C   0  0  0  0  0  0  0  0  0  0  0  0
   11.5173  -17.6928   28.2464 O   0  0  0  0  0  0  0  0  0  0  0  0
   11.6602  -19.9300   28.1013 O   0  0  0  0  0  0  0  0  0  0  0  0
  2  1  1  6
  3  4  1  0
  3  2  1  0
  4  5  1  0
  5  9  1  0
  5  6  2  0
  7  8  2  0
  7  2  1  0
 10  7  1  0
 11 10  1  0
 11 12  1  1
 13 21  1  0
 13 12  1  0
 14 13  2  0
 15 14  1  0
 15 16  1  0
 16 17  1  0
 16 21  2  0
 17 18  2  0
 18 19  1  0
 20 19  2  0
 21 20  1  0
 22 11  1  0
 23 22  2  0
 24 25  1  0
 25 27  1  0
 26 25  2  0
 27 28  1  0
 29 28  1  0
 29 30  1  0
 31 30  1  1
 31 32  1  0
 31 33  1  0
 32 22  1  0
 33 34  1  0
 35 33  2  0
M  END
$$$$
