EWR.pdb
     RDKit          3D

 35 36  0  0  1  0  0  0  0  0999 V2000
    8.0144  -13.1620   18.3097 N   0  0  0  0  0  0  0  0  0  0  0  0
    8.3503  -14.5366   18.7293 C   0  0  1  0  0  0  0  0  0  0  0  0
    9.4824  -15.0437   17.9068 C   0  0  0  0  0  0  0  0  0  0  0  0
    9.0978  -15.3972   16.4977 C   0  0  0  0  0  0  0  0  0  0  0  0
   10.2894  -15.9669   15.7809 C   0  0  0  0  0  0  0  0  0  0  0  0
   11.3391  -16.1207   16.4223 O   0  0  0  0  0  0  0  0  0  0  0  0
    8.6039  -14.4681   20.1721 C   0  0  0  0  0  0  0  0  0  0  0  0
    9.6192  -13.8323   20.6333 O   0  0  0  0  0  0  0  0  0  0  0  0
   10.2103  -16.3059   14.4495 O   0  0  0  0  0  0  0  0  0  0  0  0
    7.7263  -15.1004   21.0909 N   0  0  0  0  0  0  0  0  0  0  0  0
    8.0112  -14.9560   22.5006 C   0  0  1  0  0  0  0  0  0  0  0  0
    6.6794  -14.9924   23.2390 C   0  0  0  0  0  0  0  0  0  0  0  0
    6.8967  -14.8025   24.6889 C   0  0  0  0  0  0  0  0  0  0  0  0
    6.9299  -15.7795   25.6573 C   0  0  0  0  0  0  0  0  0  0  0  0
    7.1541  -15.2149   26.8634 N   0  0  0  0  0  0  0  0  0  0  0  0
    7.2674  -13.8830   26.6957 C   0  0  0  0  0  0  0  0  0  0  0  0
    7.4932  -12.8780   27.5893 C   0  0  0  0  0  0  0  0  0  0  0  0
    7.5640  -11.5755   27.1390 C   0  0  0  0  0  0  0  0  0  0  0  0
    7.4098  -11.2839   25.8042 C   0  0  0  0  0  0  0  0  0  0  0  0
    7.1828  -12.3100   24.9160 C   0  0  0  0  0  0  0  0  0  0  0  0
    7.1084  -13.6054   25.3343 C   0  0  0  0  0  0  0  0  0  0  0  0
    8.9152  -16.0178   22.9624 C   0  0  0  0  0  0  0  0  0  0  0  0
    8.6435  -17.2189   22.6424 O   0  0  0  0  0  0  0  0  0  0  0  0
   15.8781  -16.3732   19.6580 N   0  0  0  0  0  0  0  0  0  0  0  0
   15.1880  -15.1944   20.0543 C   0  0  0  0  0  0  0  0  0  0  0  0
   15.5829  -14.0217   19.6331 N   0  0  0  0  0  0  0  0  0  0  0  0
   14.0595  -15.2283   20.9092 N   0  0  0  0  0  0  0  0  0  0  0  0
   13.5161  -16.4527   21.4296 C   0  0  0  0  0  0  0  0  0  0  0  0
   12.2875  -16.0724   22.2624 C   0  0  0  0  0  0  0  0  0  0  0  0
   12.3112  -16.7062   23.6006 C   0  0  0  0  0  0  0  0  0  0  0  0
   10.9175  -16.9188   24.1268 C   0  0  2  0  0  0  0  0  0  0  0  0
   10.0674  -15.7842   23.7405 N   0  0  0  0  0  0  0  0  0  0  0  0
   10.9670  -16.9674   25.6120 C   0  0  0  0  0  0  0  0  0  0  0  0
   11.6164  -17.9451   26.2994 O   0  0  0  0  0  0  0  0  0  0  0  0
   10.3812  -16.0688   26.2953 O   0  0  0  0  0  0  0  0  0  0  0  0
  2  1  1  6
  3  4  1  0
  3  2  1  0
  4  5  1  0
  5  9  1  0
  5  6  2  0
  7  8  2  0
  7  2  1  0
 10  7  1  0
 11 10  1  0
 11 12  1  1
 13 21  1  0
 13 12  1  0
 14 13  2  0
 15 14  1  0
 15 16  1  0
 16 17  1  0
 16 21  2  0
 17 18  2  0
 18 19  1  0
 20 19  2  0
 21 20  1  0
 22 11  1  0
 23 22  2  0
 24 25  1  0
 25 27  1  0
 26 25  2  0
 27 28  1  0
 29 28  1  0
 29 30  1  0
 31 30  1  6
 31 32  1  0
 31 33  1  0
 32 22  1  0
 33 34  1  0
 35 33  2  0
M  END
$$$$
