EWR.pdb
     RDKit          3D

 35 36  0  0  1  0  0  0  0  0999 V2000
    5.9138  -15.3462   20.2551 N   0  0  0  0  0  0  0  0  0  0  0  0
    6.4782  -16.4493   21.0571 C   0  0  1  0  0  0  0  0  0  0  0  0
    6.8533  -17.5747   20.1581 C   0  0  0  0  0  0  0  0  0  0  0  0
    7.8341  -17.1931   19.0855 C   0  0  0  0  0  0  0  0  0  0  0  0
    8.1113  -18.3848   18.2129 C   0  0  0  0  0  0  0  0  0  0  0  0
    7.5434  -19.4529   18.4843 O   0  0  0  0  0  0  0  0  0  0  0  0
    7.5819  -15.8658   21.8266 C   0  0  0  0  0  0  0  0  0  0  0  0
    8.2151  -14.8365   21.3939 O   0  0  0  0  0  0  0  0  0  0  0  0
    8.9727  -18.2859   17.1443 O   0  0  0  0  0  0  0  0  0  0  0  0
    7.9698  -16.4256   23.0718 N   0  0  0  0  0  0  0  0  0  0  0  0
    9.0328  -15.7714   23.8007 C   0  0  1  0  0  0  0  0  0  0  0  0
    8.7589  -15.9771   25.2849 C   0  0  0  0  0  0  0  0  0  0  0  0
    7.6858  -15.0652   25.7350 C   0  0  0  0  0  0  0  0  0  0  0  0
    6.3560  -15.3723   25.9102 C   0  0  0  0  0  0  0  0  0  0  0  0
    5.6896  -14.2765   26.3331 N   0  0  0  0  0  0  0  0  0  0  0  0
    6.5659  -13.2584   26.4360 C   0  0  0  0  0  0  0  0  0  0  0  0
    6.3980  -11.9597   26.8161 C   0  0  0  0  0  0  0  0  0  0  0  0
    7.4876  -11.1129   26.8313 C   0  0  0  0  0  0  0  0  0  0  0  0
    8.7342  -11.5651   26.4684 C   0  0  0  0  0  0  0  0  0  0  0  0
    8.8860  -12.8787   26.0877 C   0  0  0  0  0  0  0  0  0  0  0  0
    7.8265  -13.7361   26.0639 C   0  0  0  0  0  0  0  0  0  0  0  0
   10.3423  -16.3118   23.4121 C   0  0  0  0  0  0  0  0  0  0  0  0
   10.5064  -17.5729   23.4494 O   0  0  0  0  0  0  0  0  0  0  0  0
   15.3607  -13.5186   18.1914 N   0  0  0  0  0  0  0  0  0  0  0  0
   16.3908  -14.3254   18.7489 C   0  0  0  0  0  0  0  0  0  0  0  0
   17.6444  -13.9745   18.6315 N   0  0  0  0  0  0  0  0  0  0  0  0
   16.1182  -15.5273   19.4464 N   0  0  0  0  0  0  0  0  0  0  0  0
   14.8037  -15.8733   19.9130 C   0  0  0  0  0  0  0  0  0  0  0  0
   14.8306  -15.7519   21.4402 C   0  0  0  0  0  0  0  0  0  0  0  0
   13.5940  -15.1288   21.9652 C   0  0  0  0  0  0  0  0  0  0  0  0
   12.6653  -16.1635   22.5410 C   0  0  2  0  0  0  0  0  0  0  0  0
   11.4295  -15.5144   23.0000 N   0  0  0  0  0  0  0  0  0  0  0  0
   13.3171  -16.7905   23.7209 C   0  0  0  0  0  0  0  0  0  0  0  0
   13.8754  -18.0304   23.6863 O   0  0  0  0  0  0  0  0  0  0  0  0
   13.3656  -16.1630   24.8261 O   0  0  0  0  0  0  0  0  0  0  0  0
  2  1  1  6
  3  4  1  0
  3  2  1  0
  4  5  1  0
  5  9  1  0
  5  6  2  0
  7  8  2  0
  7  2  1  0
 10  7  1  0
 11 10  1  0
 11 12  1  1
 13 21  1  0
 13 12  1  0
 14 13  2  0
 15 14  1  0
 15 16  1  0
 16 17  1  0
 16 21  2  0
 17 18  2  0
 18 19  1  0
 20 19  2  0
 21 20  1  0
 22 11  1  0
 23 22  2  0
 24 25  1  0
 25 27  1  0
 26 25  2  0
 27 28  1  0
 29 28  1  0
 29 30  1  0
 31 30  1  1
 31 32  1  0
 31 33  1  0
 32 22  1  0
 33 34  1  0
 35 33  2  0
M  END
$$$$
