EWR.pdb
     RDKit          3D

 35 36  0  0  1  0  0  0  0  0999 V2000
    6.7305  -17.7473   21.0797 N   0  0  0  0  0  0  0  0  0  0  0  0
    7.9080  -17.2103   20.3702 C   0  0  1  0  0  0  0  0  0  0  0  0
    7.4578  -16.3665   19.2297 C   0  0  0  0  0  0  0  0  0  0  0  0
    8.5711  -15.9375   18.3161 C   0  0  0  0  0  0  0  0  0  0  0  0
    7.9909  -15.3623   17.0548 C   0  0  0  0  0  0  0  0  0  0  0  0
    6.8386  -15.6920   16.7379 O   0  0  0  0  0  0  0  0  0  0  0  0
    8.7101  -16.5186   21.3845 C   0  0  0  0  0  0  0  0  0  0  0  0
    9.7047  -15.7804   21.0475 O   0  0  0  0  0  0  0  0  0  0  0  0
    8.7240  -14.4944   16.2782 O   0  0  0  0  0  0  0  0  0  0  0  0
    8.3986  -16.6471   22.7632 N   0  0  0  0  0  0  0  0  0  0  0  0
    9.3749  -16.1764   23.7195 C   0  0  1  0  0  0  0  0  0  0  0  0
    8.7632  -16.3304   25.1059 C   0  0  0  0  0  0  0  0  0  0  0  0
    7.5868  -15.4457   25.2437 C   0  0  0  0  0  0  0  0  0  0  0  0
    6.2662  -15.7883   25.0646 C   0  0  0  0  0  0  0  0  0  0  0  0
    5.4844  -14.7087   25.2813 N   0  0  0  0  0  0  0  0  0  0  0  0
    6.2763  -13.6662   25.5992 C   0  0  0  0  0  0  0  0  0  0  0  0
    5.9813  -12.3703   25.9040 C   0  0  0  0  0  0  0  0  0  0  0  0
    7.0064  -11.4937   26.1959 C   0  0  0  0  0  0  0  0  0  0  0  0
    8.3155  -11.9136   26.1822 C   0  0  0  0  0  0  0  0  0  0  0  0
    8.5956  -13.2248   25.8726 C   0  0  0  0  0  0  0  0  0  0  0  0
    7.6020  -14.1112   25.5805 C   0  0  0  0  0  0  0  0  0  0  0  0
   10.6314  -16.9273   23.5960 C   0  0  0  0  0  0  0  0  0  0  0  0
   10.6401  -17.9666   22.8621 O   0  0  0  0  0  0  0  0  0  0  0  0
   15.6763  -13.2016   18.3748 N   0  0  0  0  0  0  0  0  0  0  0  0
   16.3107  -14.4104   18.7738 C   0  0  0  0  0  0  0  0  0  0  0  0
   17.4362  -14.7817   18.2225 N   0  0  0  0  0  0  0  0  0  0  0  0
   15.7673  -15.2586   19.7690 N   0  0  0  0  0  0  0  0  0  0  0  0
   14.5722  -14.9338   20.4982 C   0  0  0  0  0  0  0  0  0  0  0  0
   14.4042  -16.0115   21.5743 C   0  0  0  0  0  0  0  0  0  0  0  0
   13.1403  -15.8451   22.3280 C   0  0  0  0  0  0  0  0  0  0  0  0
   13.1088  -16.7354   23.5409 C   0  0  2  0  0  0  0  0  0  0  0  0
   11.8298  -16.5639   24.2438 N   0  0  0  0  0  0  0  0  0  0  0  0
   14.1972  -16.3247   24.4666 C   0  0  0  0  0  0  0  0  0  0  0  0
   13.9618  -15.7808   25.6909 O   0  0  0  0  0  0  0  0  0  0  0  0
   15.4123  -16.4741   24.1220 O   0  0  0  0  0  0  0  0  0  0  0  0
  2  1  1  1
  3  4  1  0
  3  2  1  0
  4  5  1  0
  5  9  1  0
  5  6  2  0
  7  8  2  0
  7  2  1  0
 10  7  1  0
 11 10  1  0
 11 12  1  1
 13 21  1  0
 13 12  1  0
 14 13  2  0
 15 14  1  0
 15 16  1  0
 16 17  1  0
 16 21  2  0
 17 18  2  0
 18 19  1  0
 20 19  2  0
 21 20  1  0
 22 11  1  0
 23 22  2  0
 24 25  1  0
 25 27  1  0
 26 25  2  0
 27 28  1  0
 29 28  1  0
 29 30  1  0
 31 30  1  6
 31 32  1  0
 31 33  1  0
 32 22  1  0
 33 34  1  0
 35 33  2  0
M  END
$$$$
