EWR.pdb
     RDKit          3D

 35 36  0  0  1  0  0  0  0  0999 V2000
    8.7257  -18.6238   20.7924 N   0  0  0  0  0  0  0  0  0  0  0  0
   10.1195  -18.1829   20.9955 C   0  0  1  0  0  0  0  0  0  0  0  0
   10.5688  -17.3979   19.8134 C   0  0  0  0  0  0  0  0  0  0  0  0
    9.4625  -17.0587   18.8546 C   0  0  0  0  0  0  0  0  0  0  0  0
   10.0307  -16.3221   17.6743 C   0  0  0  0  0  0  0  0  0  0  0  0
   11.2526  -16.1143   17.6477 O   0  0  0  0  0  0  0  0  0  0  0  0
   10.1326  -17.4596   22.2712 C   0  0  0  0  0  0  0  0  0  0  0  0
   11.1882  -16.8489   22.6718 O   0  0  0  0  0  0  0  0  0  0  0  0
    9.2114  -15.8930   16.6553 O   0  0  0  0  0  0  0  0  0  0  0  0
    8.9732  -17.4151   23.0886 N   0  0  0  0  0  0  0  0  0  0  0  0
    9.0835  -16.7688   24.3767 C   0  0  1  0  0  0  0  0  0  0  0  0
    7.7135  -16.1959   24.7160 C   0  0  0  0  0  0  0  0  0  0  0  0
    7.6494  -14.7698   24.3318 C   0  0  0  0  0  0  0  0  0  0  0  0
    7.7388  -14.2484   23.0615 C   0  0  0  0  0  0  0  0  0  0  0  0
    7.6345  -12.9030   23.1153 N   0  0  0  0  0  0  0  0  0  0  0  0
    7.4785  -12.5391   24.4030 C   0  0  0  0  0  0  0  0  0  0  0  0
    7.3307  -11.3132   24.9816 C   0  0  0  0  0  0  0  0  0  0  0  0
    7.1873  -11.2243   26.3512 C   0  0  0  0  0  0  0  0  0  0  0  0
    7.1920  -12.3551   27.1332 C   0  0  0  0  0  0  0  0  0  0  0  0
    7.3419  -13.5843   26.5331 C   0  0  0  0  0  0  0  0  0  0  0  0
    7.4854  -13.7002   25.1824 C   0  0  0  0  0  0  0  0  0  0  0  0
    9.5417  -17.7178   25.4000 C   0  0  0  0  0  0  0  0  0  0  0  0
    8.8282  -18.7464   25.6274 O   0  0  0  0  0  0  0  0  0  0  0  0
   16.9580  -16.9040   28.6775 N   0  0  0  0  0  0  0  0  0  0  0  0
   16.4844  -18.2218   28.9262 C   0  0  0  0  0  0  0  0  0  0  0  0
   17.3073  -19.1592   29.3170 N   0  0  0  0  0  0  0  0  0  0  0  0
   15.1239  -18.5809   28.7665 N   0  0  0  0  0  0  0  0  0  0  0  0
   14.7091  -19.7466   28.0356 C   0  0  0  0  0  0  0  0  0  0  0  0
   13.1780  -19.7154   27.9855 C   0  0  0  0  0  0  0  0  0  0  0  0
   12.6765  -18.5932   27.1595 C   0  0  0  0  0  0  0  0  0  0  0  0
   11.1785  -18.6432   27.0254 C   0  0  2  0  0  0  0  0  0  0  0  0
   10.7268  -17.5557   26.1463 N   0  0  0  0  0  0  0  0  0  0  0  0
   10.5689  -18.4308   28.3646 C   0  0  0  0  0  0  0  0  0  0  0  0
   10.3427  -19.4436   29.2440 O   0  0  0  0  0  0  0  0  0  0  0  0
   10.2308  -17.2600   28.7286 O   0  0  0  0  0  0  0  0  0  0  0  0
  2  1  1  6
  3  4  1  0
  3  2  1  0
  4  5  1  0
  5  9  1  0
  5  6  2  0
  7  8  2  0
  7  2  1  0
 10  7  1  0
 11 10  1  0
 11 12  1  1
 13 21  1  0
 13 12  1  0
 14 13  2  0
 15 14  1  0
 15 16  1  0
 16 17  1  0
 16 21  2  0
 17 18  2  0
 18 19  1  0
 20 19  2  0
 21 20  1  0
 22 11  1  0
 23 22  2  0
 24 25  1  0
 25 27  1  0
 26 25  2  0
 27 28  1  0
 29 28  1  0
 29 30  1  0
 31 30  1  1
 31 32  1  0
 31 33  1  0
 32 22  1  0
 33 34  1  0
 35 33  2  0
M  END
$$$$
