EWR.pdb
     RDKit          3D

 35 36  0  0  1  0  0  0  0  0999 V2000
    7.2957  -17.6483   21.5253 N   0  0  0  0  0  0  0  0  0  0  0  0
    8.5986  -17.0966   21.1056 C   0  0  1  0  0  0  0  0  0  0  0  0
    8.4144  -16.2610   19.8878 C   0  0  0  0  0  0  0  0  0  0  0  0
    7.4675  -16.8539   18.8829 C   0  0  0  0  0  0  0  0  0  0  0  0
    7.3589  -15.9388   17.6958 C   0  0  0  0  0  0  0  0  0  0  0  0
    8.1380  -14.9770   17.6258 O   0  0  0  0  0  0  0  0  0  0  0  0
    9.1348  -16.3924   22.2749 C   0  0  0  0  0  0  0  0  0  0  0  0
    9.8703  -15.3496   22.1362 O   0  0  0  0  0  0  0  0  0  0  0  0
    6.4184  -16.1681   16.7177 O   0  0  0  0  0  0  0  0  0  0  0  0
    8.8459  -16.8476   23.5878 N   0  0  0  0  0  0  0  0  0  0  0  0
    9.7025  -16.3942   24.6601 C   0  0  1  0  0  0  0  0  0  0  0  0
    8.8634  -16.3672   25.9310 C   0  0  0  0  0  0  0  0  0  0  0  0
    7.7249  -15.4382   25.7689 C   0  0  0  0  0  0  0  0  0  0  0  0
    6.4399  -15.7588   25.3953 C   0  0  0  0  0  0  0  0  0  0  0  0
    5.6854  -14.6392   25.3604 N   0  0  0  0  0  0  0  0  0  0  0  0
    6.4601  -13.5926   25.7058 C   0  0  0  0  0  0  0  0  0  0  0  0
    6.1797  -12.2631   25.8212 C   0  0  0  0  0  0  0  0  0  0  0  0
    7.1802  -11.3910   26.1991 C   0  0  0  0  0  0  0  0  0  0  0  0
    8.4504  -11.8487   26.4590 C   0  0  0  0  0  0  0  0  0  0  0  0
    8.7161  -13.1934   26.3379 C   0  0  0  0  0  0  0  0  0  0  0  0
    7.7461  -14.0762   25.9664 C   0  0  0  0  0  0  0  0  0  0  0  0
   10.8714  -17.2725   24.8019 C   0  0  0  0  0  0  0  0  0  0  0  0
   10.6745  -18.4855   25.1313 O   0  0  0  0  0  0  0  0  0  0  0  0
   14.8721  -14.7384   19.2014 N   0  0  0  0  0  0  0  0  0  0  0  0
   15.5550  -14.4032   20.4032 C   0  0  0  0  0  0  0  0  0  0  0  0
   16.0598  -13.2088   20.5678 N   0  0  0  0  0  0  0  0  0  0  0  0
   15.7209  -15.3273   21.4633 N   0  0  0  0  0  0  0  0  0  0  0  0
   14.9552  -15.2615   22.6777 C   0  0  0  0  0  0  0  0  0  0  0  0
   14.2223  -16.6004   22.8113 C   0  0  0  0  0  0  0  0  0  0  0  0
   14.5388  -17.2766   24.0902 C   0  0  0  0  0  0  0  0  0  0  0  0
   13.2952  -17.8190   24.7413 C   0  0  2  0  0  0  0  0  0  0  0  0
   12.2004  -16.8499   24.5946 N   0  0  0  0  0  0  0  0  0  0  0  0
   13.5534  -17.9996   26.1943 C   0  0  0  0  0  0  0  0  0  0  0  0
   14.4204  -18.9271   26.6824 O   0  0  0  0  0  0  0  0  0  0  0  0
   12.9470  -17.2698   27.0412 O   0  0  0  0  0  0  0  0  0  0  0  0
  2  1  1  1
  3  4  1  0
  3  2  1  0
  4  5  1  0
  5  9  1  0
  5  6  2  0
  7  8  2  0
  7  2  1  0
 10  7  1  0
 11 10  1  0
 11 12  1  1
 13 21  1  0
 13 12  1  0
 14 13  2  0
 15 14  1  0
 15 16  1  0
 16 17  1  0
 16 21  2  0
 17 18  2  0
 18 19  1  0
 20 19  2  0
 21 20  1  0
 22 11  1  0
 23 22  2  0
 24 25  1  0
 25 27  1  0
 26 25  2  0
 27 28  1  0
 29 28  1  0
 29 30  1  0
 31 30  1  6
 31 32  1  0
 31 33  1  0
 32 22  1  0
 33 34  1  0
 35 33  2  0
M  END
$$$$
