EWR.pdb
     RDKit          3D

 35 36  0  0  1  0  0  0  0  0999 V2000
    8.9325  -18.4673   21.4625 N   0  0  0  0  0  0  0  0  0  0  0  0
   10.3381  -18.1653   21.7962 C   0  0  1  0  0  0  0  0  0  0  0  0
   10.9008  -17.2357   20.7791 C   0  0  0  0  0  0  0  0  0  0  0  0
   11.3913  -17.9222   19.5355 C   0  0  0  0  0  0  0  0  0  0  0  0
   11.9572  -16.9010   18.5893 C   0  0  0  0  0  0  0  0  0  0  0  0
   13.1773  -16.9196   18.3703 O   0  0  0  0  0  0  0  0  0  0  0  0
   10.3267  -17.6579   23.1722 C   0  0  0  0  0  0  0  0  0  0  0  0
   11.3902  -17.1767   23.7061 O   0  0  0  0  0  0  0  0  0  0  0  0
   11.1379  -15.9740   17.9867 O   0  0  0  0  0  0  0  0  0  0  0  0
    9.1345  -17.6834   23.9418 N   0  0  0  0  0  0  0  0  0  0  0  0
    9.1819  -17.1227   25.2732 C   0  0  1  0  0  0  0  0  0  0  0  0
    7.7893  -16.5950   25.5934 C   0  0  0  0  0  0  0  0  0  0  0  0
    7.5723  -15.2944   24.9249 C   0  0  0  0  0  0  0  0  0  0  0  0
    7.5021  -15.0595   23.5709 C   0  0  0  0  0  0  0  0  0  0  0  0
    7.2917  -13.7440   23.3493 N   0  0  0  0  0  0  0  0  0  0  0  0
    7.2239  -13.1171   24.5399 C   0  0  0  0  0  0  0  0  0  0  0  0
    7.0282  -11.8057   24.8581 C   0  0  0  0  0  0  0  0  0  0  0  0
    7.0031  -11.4279   26.1851 C   0  0  0  0  0  0  0  0  0  0  0  0
    7.1729  -12.3575   27.1838 C   0  0  0  0  0  0  0  0  0  0  0  0
    7.3691  -13.6767   26.8452 C   0  0  0  0  0  0  0  0  0  0  0  0
    7.3981  -14.0766   25.5422 C   0  0  0  0  0  0  0  0  0  0  0  0
    9.6164  -18.1305   26.2495 C   0  0  0  0  0  0  0  0  0  0  0  0
    8.9783  -19.2300   26.3017 O   0  0  0  0  0  0  0  0  0  0  0  0
   15.6342  -20.5327   32.7314 N   0  0  0  0  0  0  0  0  0  0  0  0
   14.5549  -21.0684   31.9757 C   0  0  0  0  0  0  0  0  0  0  0  0
   13.4751  -21.4975   32.5744 N   0  0  0  0  0  0  0  0  0  0  0  0
   14.5925  -21.1635   30.5633 N   0  0  0  0  0  0  0  0  0  0  0  0
   14.3466  -20.0392   29.7026 C   0  0  0  0  0  0  0  0  0  0  0  0
   12.8509  -20.0557   29.3702 C   0  0  0  0  0  0  0  0  0  0  0  0
   12.4936  -19.0082   28.3863 C   0  0  0  0  0  0  0  0  0  0  0  0
   11.0143  -19.0028   28.1102 C   0  0  2  0  0  0  0  0  0  0  0  0
   10.7000  -17.9510   27.1334 N   0  0  0  0  0  0  0  0  0  0  0  0
   10.2916  -18.6865   29.3703 C   0  0  0  0  0  0  0  0  0  0  0  0
    9.8186  -19.6440   30.2128 O   0  0  0  0  0  0  0  0  0  0  0  0
   10.0894  -17.4742   29.6977 O   0  0  0  0  0  0  0  0  0  0  0  0
  2  1  1  6
  3  4  1  0
  3  2  1  0
  4  5  1  0
  5  9  1  0
  5  6  2  0
  7  8  2  0
  7  2  1  0
 10  7  1  0
 11 10  1  0
 11 12  1  1
 13 21  1  0
 13 12  1  0
 14 13  2  0
 15 14  1  0
 15 16  1  0
 16 17  1  0
 16 21  2  0
 17 18  2  0
 18 19  1  0
 20 19  2  0
 21 20  1  0
 22 11  1  0
 23 22  2  0
 24 25  1  0
 25 27  1  0
 26 25  2  0
 27 28  1  0
 29 28  1  0
 29 30  1  0
 31 30  1  1
 31 32  1  0
 31 33  1  0
 32 22  1  0
 33 34  1  0
 35 33  2  0
M  END
$$$$
