EWR.pdb
     RDKit          3D

 35 36  0  0  1  0  0  0  0  0999 V2000
    6.2502  -15.9666   20.3891 N   0  0  0  0  0  0  0  0  0  0  0  0
    7.4293  -16.8365   20.5663 C   0  0  1  0  0  0  0  0  0  0  0  0
    8.1070  -17.0266   19.2548 C   0  0  0  0  0  0  0  0  0  0  0  0
    7.2838  -17.7831   18.2507 C   0  0  0  0  0  0  0  0  0  0  0  0
    8.1872  -18.3728   17.2044 C   0  0  0  0  0  0  0  0  0  0  0  0
    9.4116  -18.3170   17.3903 O   0  0  0  0  0  0  0  0  0  0  0  0
    8.2447  -16.2045   21.6086 C   0  0  0  0  0  0  0  0  0  0  0  0
    8.9568  -15.1682   21.3504 O   0  0  0  0  0  0  0  0  0  0  0  0
    7.6628  -18.9566   16.0740 O   0  0  0  0  0  0  0  0  0  0  0  0
    8.2588  -16.7240   22.9293 N   0  0  0  0  0  0  0  0  0  0  0  0
    9.1811  -16.1348   23.8734 C   0  0  1  0  0  0  0  0  0  0  0  0
    8.5832  -16.3121   25.2631 C   0  0  0  0  0  0  0  0  0  0  0  0
    7.4482  -15.3835   25.4505 C   0  0  0  0  0  0  0  0  0  0  0  0
    6.1119  -15.6615   25.2760 C   0  0  0  0  0  0  0  0  0  0  0  0
    5.3806  -14.5583   25.5446 N   0  0  0  0  0  0  0  0  0  0  0  0
    6.2210  -13.5643   25.8918 C   0  0  0  0  0  0  0  0  0  0  0  0
    5.9865  -12.2697   26.2502 C   0  0  0  0  0  0  0  0  0  0  0  0
    7.0522  -11.4503   26.5619 C   0  0  0  0  0  0  0  0  0  0  0  0
    8.3415  -11.9255   26.5145 C   0  0  0  0  0  0  0  0  0  0  0  0
    8.5604  -13.2345   26.1510 C   0  0  0  0  0  0  0  0  0  0  0  0
    7.5256  -14.0651   25.8382 C   0  0  0  0  0  0  0  0  0  0  0  0
   10.5057  -16.7613   23.7702 C   0  0  0  0  0  0  0  0  0  0  0  0
   10.5665  -17.9824   23.4179 O   0  0  0  0  0  0  0  0  0  0  0  0
   15.8650  -13.2832   18.1138 N   0  0  0  0  0  0  0  0  0  0  0  0
   16.0092  -14.6877   18.2857 C   0  0  0  0  0  0  0  0  0  0  0  0
   16.5776  -15.4140   17.3595 N   0  0  0  0  0  0  0  0  0  0  0  0
   15.5536  -15.3598   19.4459 N   0  0  0  0  0  0  0  0  0  0  0  0
   14.8461  -14.6912   20.5032 C   0  0  0  0  0  0  0  0  0  0  0  0
   14.4944  -15.7591   21.5441 C   0  0  0  0  0  0  0  0  0  0  0  0
   13.2554  -15.4223   22.2821 C   0  0  0  0  0  0  0  0  0  0  0  0
   12.9309  -16.4733   23.3090 C   0  0  2  0  0  0  0  0  0  0  0  0
   11.7152  -16.0886   24.0393 N   0  0  0  0  0  0  0  0  0  0  0  0
   14.0470  -16.5490   24.2882 C   0  0  0  0  0  0  0  0  0  0  0  0
   15.2307  -17.1612   24.0155 O   0  0  0  0  0  0  0  0  0  0  0  0
   13.9146  -16.0296   25.4416 O   0  0  0  0  0  0  0  0  0  0  0  0
  2  1  1  6
  3  4  1  0
  3  2  1  0
  4  5  1  0
  5  9  1  0
  5  6  2  0
  7  8  2  0
  7  2  1  0
 10  7  1  0
 11 10  1  0
 11 12  1  1
 13 21  1  0
 13 12  1  0
 14 13  2  0
 15 14  1  0
 15 16  1  0
 16 17  1  0
 16 21  2  0
 17 18  2  0
 18 19  1  0
 20 19  2  0
 21 20  1  0
 22 11  1  0
 23 22  2  0
 24 25  1  0
 25 27  1  0
 26 25  2  0
 27 28  1  0
 29 28  1  0
 29 30  1  0
 31 30  1  6
 31 32  1  0
 31 33  1  0
 32 22  1  0
 33 34  1  0
 35 33  2  0
M  END
$$$$
