HRV.pdb
     RDKit          3D

 29 29  0  0  1  0  0  0  0  0999 V2000
    9.0070  -15.4809   19.4417 N   0  0  0  0  0  0  0  0  0  0  0  0
    7.9043  -14.6634   19.8855 C   0  0  1  0  0  0  0  0  0  0  0  0
    6.8290  -14.7487   18.8152 C   0  0  0  0  0  0  0  0  0  0  0  0
    7.4428  -14.3776   17.5149 C   0  0  0  0  0  0  0  0  0  0  0  0
    8.7429  -14.1059   17.1888 C   0  0  0  0  0  0  0  0  0  0  0  0
    8.8425  -13.8108   15.8690 N   0  0  0  0  0  0  0  0  0  0  0  0
    7.6004  -13.8960   15.3575 C   0  0  0  0  0  0  0  0  0  0  0  0
    6.7548  -14.2368   16.3440 N   0  0  0  0  0  0  0  0  0  0  0  0
    7.4133  -15.1249   21.1974 C   0  0  0  0  0  0  0  0  0  0  0  0
    6.4376  -14.5563   21.7259 O   0  0  0  0  0  0  0  0  0  0  0  0
    6.2039  -21.8429   26.2952 N   0  0  0  0  0  0  0  0  0  0  0  0
    6.6294  -20.8627   27.2184 C   0  0  0  0  0  0  0  0  0  0  0  0
    6.4924  -21.0185   28.4847 N   0  0  0  0  0  0  0  0  0  0  0  0
    7.2243  -19.6730   26.7396 N   0  0  0  0  0  0  0  0  0  0  0  0
    7.2402  -19.4459   25.3074 C   0  0  0  0  0  0  0  0  0  0  0  0
    8.0757  -18.2204   25.0462 C   0  0  0  0  0  0  0  0  0  0  0  0
    8.2224  -17.8704   23.6160 C   0  0  0  0  0  0  0  0  0  0  0  0
    7.5952  -16.5505   23.2676 C   0  0  2  0  0  0  0  0  0  0  0  0
    8.0143  -16.1972   21.8819 N   0  0  0  0  0  0  0  0  0  0  0  0
    8.1497  -15.4872   24.1435 C   0  0  0  0  0  0  0  0  0  0  0  0
    9.2750  -14.9518   23.8187 O   0  0  0  0  0  0  0  0  0  0  0  0
    6.7958  -20.2375   29.1362 C   0  0  0  0  0  0  0  0  0  0  0  0
    6.0051  -12.8037   26.5374 C   0  0  2  0  0  0  0  0  0  0  0  0
    7.3668  -12.6114   25.9115 C   0  0  0  0  0  0  0  0  0  0  0  0
    8.0106  -11.4314   26.6101 C   0  0  1  0  0  0  0  0  0  0  0  0
    8.1531  -13.8655   26.0431 N   0  0  0  0  0  0  0  0  0  0  0  0
    7.5722  -14.9805   25.3142 C   0  0  0  0  0  0  0  0  0  0  0  0
    8.3799  -14.1750   27.4690 O   0  0  0  0  0  0  0  0  0  0  0  0
    7.8465  -15.1789   27.9926 O   0  0  0  0  0  0  0  0  0  0  0  0
  2  1  1  6
  3  4  1  0
  3  2  1  0
  4  8  1  0
  5  4  2  0
  5  6  1  0
  6  7  1  0
  8  7  2  0
  9  2  1  0
  9 19  1  0
 10  9  2  0
 11 12  1  0
 12 14  1  0
 13 12  2  0
 14 15  1  0
 16 17  1  0
 16 15  1  0
 18 19  1  0
 18 17  1  1
 20 18  1  0
 21 20  2  0
 23 22  1  6
 23 24  1  0
 23 25  1  0
 25 27  1  0
 25 26  1  6
 26 20  1  0
 27 29  1  0
 28 27  2  0
M  END
$$$$
