HRV.pdb
     RDKit          3D

 29 29  0  0  1  0  0  0  0  0999 V2000
    8.2471  -16.6844   18.6256 N   0  0  0  0  0  0  0  0  0  0  0  0
    8.2451  -15.5024   19.4527 C   0  0  1  0  0  0  0  0  0  0  0  0
    7.2904  -14.5110   18.8085 C   0  0  0  0  0  0  0  0  0  0  0  0
    7.8067  -14.1878   17.4542 C   0  0  0  0  0  0  0  0  0  0  0  0
    8.8780  -14.6876   16.7665 C   0  0  0  0  0  0  0  0  0  0  0  0
    8.9718  -14.0942   15.5508 N   0  0  0  0  0  0  0  0  0  0  0  0
    7.9557  -13.2154   15.4685 C   0  0  0  0  0  0  0  0  0  0  0  0
    7.2519  -13.2681   16.6114 N   0  0  0  0  0  0  0  0  0  0  0  0
    7.8437  -15.8367   20.8319 C   0  0  0  0  0  0  0  0  0  0  0  0
    6.6715  -16.1924   21.0644 O   0  0  0  0  0  0  0  0  0  0  0  0
    9.1128  -20.7229   20.4368 N   0  0  0  0  0  0  0  0  0  0  0  0
   10.4649  -20.4277   20.7172 C   0  0  0  0  0  0  0  0  0  0  0  0
   11.3945  -20.6205   19.8539 N   0  0  0  0  0  0  0  0  0  0  0  0
   10.8108  -19.9044   21.9842 N   0  0  0  0  0  0  0  0  0  0  0  0
    9.7596  -19.7573   22.9722 C   0  0  0  0  0  0  0  0  0  0  0  0
    8.9905  -18.5054   22.6413 C   0  0  0  0  0  0  0  0  0  0  0  0
    9.1312  -17.4175   23.6344 C   0  0  0  0  0  0  0  0  0  0  0  0
    8.3404  -16.1912   23.2771 C   0  0  2  0  0  0  0  0  0  0  0  0
    8.7479  -15.7677   21.9077 N   0  0  0  0  0  0  0  0  0  0  0  0
    8.7189  -15.0727   24.1778 C   0  0  0  0  0  0  0  0  0  0  0  0
    9.2618  -14.0263   23.6594 O   0  0  0  0  0  0  0  0  0  0  0  0
   12.3959  -20.3816   20.1123 C   0  0  0  0  0  0  0  0  0  0  0  0
    6.1006  -13.4277   26.2462 C   0  0  2  0  0  0  0  0  0  0  0  0
    7.4392  -12.8499   25.8496 C   0  0  0  0  0  0  0  0  0  0  0  0
    7.5281  -11.4731   26.4752 C   0  0  1  0  0  0  0  0  0  0  0  0
    8.5236  -13.7629   26.2955 N   0  0  0  0  0  0  0  0  0  0  0  0
    8.5452  -15.0197   25.5662 C   0  0  0  0  0  0  0  0  0  0  0  0
    8.4556  -13.9554   27.7580 O   0  0  0  0  0  0  0  0  0  0  0  0
    8.0326  -15.0316   28.2369 O   0  0  0  0  0  0  0  0  0  0  0  0
  2  1  1  6
  3  4  1  0
  3  2  1  0
  4  8  1  0
  5  4  2  0
  5  6  1  0
  6  7  1  0
  8  7  2  0
  9  2  1  0
  9 19  1  0
 10  9  2  0
 11 12  1  0
 12 14  1  0
 13 12  2  0
 14 15  1  0
 16 17  1  0
 16 15  1  0
 18 19  1  0
 18 17  1  1
 20 18  1  0
 21 20  2  0
 23 22  1  6
 23 24  1  0
 23 25  1  0
 25 27  1  0
 25 26  1  6
 26 20  1  0
 27 29  1  0
 28 27  2  0
M  END
$$$$
