HRV.pdb
     RDKit          3D

 29 29  0  0  1  0  0  0  0  0999 V2000
    8.5861  -16.2087   20.1992 N   0  0  0  0  0  0  0  0  0  0  0  0
    8.0269  -14.9831   20.7154 C   0  0  1  0  0  0  0  0  0  0  0  0
    6.9236  -14.5610   19.7594 C   0  0  0  0  0  0  0  0  0  0  0  0
    7.5322  -14.3377   18.4234 C   0  0  0  0  0  0  0  0  0  0  0  0
    8.3208  -13.3197   17.9625 C   0  0  0  0  0  0  0  0  0  0  0  0
    8.6480  -13.5324   16.6639 N   0  0  0  0  0  0  0  0  0  0  0  0
    8.0643  -14.6897   16.3012 C   0  0  0  0  0  0  0  0  0  0  0  0
    7.3918  -15.1780   17.3565 N   0  0  0  0  0  0  0  0  0  0  0  0
    7.5212  -15.1823   22.0864 C   0  0  0  0  0  0  0  0  0  0  0  0
    6.7438  -14.3448   22.5851 O   0  0  0  0  0  0  0  0  0  0  0  0
    5.3892  -21.5881   25.8408 N   0  0  0  0  0  0  0  0  0  0  0  0
    6.4946  -21.0307   26.5202 C   0  0  0  0  0  0  0  0  0  0  0  0
    6.5958  -21.0711   27.7987 N   0  0  0  0  0  0  0  0  0  0  0  0
    7.5227  -20.4086   25.7755 N   0  0  0  0  0  0  0  0  0  0  0  0
    7.3659  -20.3202   24.3366 C   0  0  0  0  0  0  0  0  0  0  0  0
    6.9454  -18.9122   24.0063 C   0  0  0  0  0  0  0  0  0  0  0  0
    7.7222  -17.8606   24.6992 C   0  0  0  0  0  0  0  0  0  0  0  0
    7.3667  -16.4734   24.2453 C   0  0  2  0  0  0  0  0  0  0  0  0
    7.8895  -16.2977   22.8609 N   0  0  0  0  0  0  0  0  0  0  0  0
    8.0832  -15.4756   25.0799 C   0  0  0  0  0  0  0  0  0  0  0  0
    9.3615  -15.3797   24.9568 O   0  0  0  0  0  0  0  0  0  0  0  0
    7.4840  -20.7141   28.2573 C   0  0  0  0  0  0  0  0  0  0  0  0
    7.4944  -11.7702   25.3481 C   0  0  2  0  0  0  0  0  0  0  0  0
    7.6780  -12.2698   26.7621 C   0  0  0  0  0  0  0  0  0  0  0  0
    6.3097  -12.2660   27.4124 C   0  0  2  0  0  0  0  0  0  0  0  0
    8.3050  -13.6168   26.7333 N   0  0  0  0  0  0  0  0  0  0  0  0
    7.5133  -14.5975   26.0098 C   0  0  0  0  0  0  0  0  0  0  0  0
    8.6345  -14.0526   28.1052 O   0  0  0  0  0  0  0  0  0  0  0  0
    8.0494  -15.0337   28.6166 O   0  0  0  0  0  0  0  0  0  0  0  0
  2  1  1  6
  3  4  1  0
  3  2  1  0
  4  8  1  0
  5  4  2  0
  5  6  1  0
  6  7  1  0
  8  7  2  0
  9  2  1  0
  9 19  1  0
 10  9  2  0
 11 12  1  0
 12 14  1  0
 13 12  2  0
 14 15  1  0
 16 17  1  0
 16 15  1  0
 18 19  1  0
 18 17  1  1
 20 18  1  0
 21 20  2  0
 23 22  1  1
 23 24  1  0
 23 25  1  0
 25 27  1  0
 25 26  1  1
 26 20  1  0
 27 29  1  0
 28 27  2  0
M  END
$$$$
