HRV.pdb
     RDKit          3D

 29 29  0  0  1  0  0  0  0  0999 V2000
    6.8955  -16.6656   19.3992 N   0  0  0  0  0  0  0  0  0  0  0  0
    7.5209  -15.6867   20.2546 C   0  0  1  0  0  0  0  0  0  0  0  0
    7.1485  -14.3178   19.7097 C   0  0  0  0  0  0  0  0  0  0  0  0
    7.8461  -14.1334   18.4118 C   0  0  0  0  0  0  0  0  0  0  0  0
    7.3508  -13.8823   17.1619 C   0  0  0  0  0  0  0  0  0  0  0  0
    8.3649  -13.7887   16.2667 N   0  0  0  0  0  0  0  0  0  0  0  0
    9.5069  -13.9813   16.9525 C   0  0  0  0  0  0  0  0  0  0  0  0
    9.1999  -14.1891   18.2436 N   0  0  0  0  0  0  0  0  0  0  0  0
    7.0795  -15.8623   21.6508 C   0  0  0  0  0  0  0  0  0  0  0  0
    5.8669  -15.7813   21.9294 O   0  0  0  0  0  0  0  0  0  0  0  0
    5.5682  -21.8493   24.6684 N   0  0  0  0  0  0  0  0  0  0  0  0
    6.1872  -21.3182   25.8212 C   0  0  0  0  0  0  0  0  0  0  0  0
    5.7485  -21.5651   27.0016 N   0  0  0  0  0  0  0  0  0  0  0  0
    7.3237  -20.4897   25.6772 N   0  0  0  0  0  0  0  0  0  0  0  0
    7.7783  -20.1817   24.3350 C   0  0  0  0  0  0  0  0  0  0  0  0
    7.2484  -18.8195   23.9721 C   0  0  0  0  0  0  0  0  0  0  0  0
    8.0224  -17.6899   24.5329 C   0  0  0  0  0  0  0  0  0  0  0  0
    7.5122  -16.3496   24.0853 C   0  0  2  0  0  0  0  0  0  0  0  0
    7.9895  -16.1211   22.6922 N   0  0  0  0  0  0  0  0  0  0  0  0
    8.1314  -15.2793   24.9077 C   0  0  0  0  0  0  0  0  0  0  0  0
    9.3673  -14.9842   24.6982 O   0  0  0  0  0  0  0  0  0  0  0  0
    6.2797  -21.1865   27.8388 C   0  0  0  0  0  0  0  0  0  0  0  0
    7.2486  -11.6036   25.4628 C   0  0  2  0  0  0  0  0  0  0  0  0
    7.4324  -12.2502   26.8159 C   0  0  0  0  0  0  0  0  0  0  0  0
    6.0480  -12.4808   27.3863 C   0  0  2  0  0  0  0  0  0  0  0  0
    8.2150  -13.5041   26.6627 N   0  0  0  0  0  0  0  0  0  0  0  0
    7.5082  -14.5279   25.9115 C   0  0  0  0  0  0  0  0  0  0  0  0
    8.6719  -13.9817   27.9832 O   0  0  0  0  0  0  0  0  0  0  0  0
    8.2591  -15.0709   28.4413 O   0  0  0  0  0  0  0  0  0  0  0  0
  2  1  1  6
  3  4  1  0
  3  2  1  0
  4  8  1  0
  5  4  2  0
  5  6  1  0
  6  7  1  0
  8  7  2  0
  9  2  1  0
  9 19  1  0
 10  9  2  0
 11 12  1  0
 12 14  1  0
 13 12  2  0
 14 15  1  0
 16 17  1  0
 16 15  1  0
 18 19  1  0
 18 17  1  1
 20 18  1  0
 21 20  2  0
 23 22  1  1
 23 24  1  0
 23 25  1  0
 25 27  1  0
 25 26  1  1
 26 20  1  0
 27 29  1  0
 28 27  2  0
M  END
$$$$
