HRV.pdb
     RDKit          3D

 29 29  0  0  1  0  0  0  0  0999 V2000
    4.2394  -20.3080   20.8939 N   0  0  0  0  0  0  0  0  0  0  0  0
    4.0916  -19.1080   21.6808 C   0  0  1  0  0  0  0  0  0  0  0  0
    3.3712  -19.5013   22.9597 C   0  0  0  0  0  0  0  0  0  0  0  0
    1.9439  -19.7434   22.6286 C   0  0  0  0  0  0  0  0  0  0  0  0
    1.2853  -19.6879   21.4312 C   0  0  0  0  0  0  0  0  0  0  0  0
   -0.0261  -19.9866   21.6042 N   0  0  0  0  0  0  0  0  0  0  0  0
   -0.1983  -20.2322   22.9163 C   0  0  0  0  0  0  0  0  0  0  0  0
    0.9842  -20.0871   23.5368 N   0  0  0  0  0  0  0  0  0  0  0  0
    5.4085  -18.5032   21.9544 C   0  0  0  0  0  0  0  0  0  0  0  0
    6.3801  -19.2364   22.2248 O   0  0  0  0  0  0  0  0  0  0  0  0
   10.5891  -13.2265   19.9417 N   0  0  0  0  0  0  0  0  0  0  0  0
    9.3968  -13.0188   19.2141 C   0  0  0  0  0  0  0  0  0  0  0  0
    9.3963  -12.8775   17.9387 N   0  0  0  0  0  0  0  0  0  0  0  0
    8.1648  -12.9639   19.9053 N   0  0  0  0  0  0  0  0  0  0  0  0
    8.1952  -12.9536   21.3551 C   0  0  0  0  0  0  0  0  0  0  0  0
    8.2007  -14.3847   21.8243 C   0  0  0  0  0  0  0  0  0  0  0  0
    6.9264  -15.1059   21.6109 C   0  0  0  0  0  0  0  0  0  0  0  0
    6.9732  -16.5316   22.0822 C   0  0  2  0  0  0  0  0  0  0  0  0
    5.6098  -17.1111   21.9207 N   0  0  0  0  0  0  0  0  0  0  0  0
    7.2600  -16.5672   23.5389 C   0  0  0  0  0  0  0  0  0  0  0  0
    6.3951  -16.0576   24.3455 O   0  0  0  0  0  0  0  0  0  0  0  0
    8.4790  -12.6814   17.4420 C   0  0  0  0  0  0  0  0  0  0  0  0
    8.6127  -18.2717   27.7306 C   0  0  2  0  0  0  0  0  0  0  0  0
    8.4325  -18.4078   26.2366 C   0  0  0  0  0  0  0  0  0  0  0  0
    7.0676  -19.0254   26.0115 C   0  0  1  0  0  0  0  0  0  0  0  0
    8.5806  -17.0746   25.5972 N   0  0  0  0  0  0  0  0  0  0  0  0
    8.3931  -17.1105   24.1565 C   0  0  0  0  0  0  0  0  0  0  0  0
    9.8675  -16.4646   25.9877 O   0  0  0  0  0  0  0  0  0  0  0  0
   10.7564  -16.2566   25.1316 O   0  0  0  0  0  0  0  0  0  0  0  0
  2  1  1  6
  3  4  1  0
  3  2  1  0
  4  8  1  0
  5  4  2  0
  5  6  1  0
  6  7  1  0
  8  7  2  0
  9  2  1  0
  9 19  1  0
 10  9  2  0
 11 12  1  0
 12 14  1  0
 13 12  2  0
 14 15  1  0
 16 17  1  0
 16 15  1  0
 18 19  1  0
 18 17  1  1
 20 18  1  0
 21 20  2  0
 23 22  1  1
 23 24  1  0
 23 25  1  0
 25 27  1  0
 25 26  1  6
 26 20  1  0
 27 29  1  0
 28 27  2  0
M  END
$$$$
