HRV.pdb
     RDKit          3D

 29 29  0  0  1  0  0  0  0  0999 V2000
    7.0258  -16.4777   19.0658 N   0  0  0  0  0  0  0  0  0  0  0  0
    7.7377  -15.5736   19.9359 C   0  0  1  0  0  0  0  0  0  0  0  0
    7.3707  -14.1628   19.5067 C   0  0  0  0  0  0  0  0  0  0  0  0
    7.8952  -13.9477   18.1342 C   0  0  0  0  0  0  0  0  0  0  0  0
    7.2708  -13.5040   17.0011 C   0  0  0  0  0  0  0  0  0  0  0  0
    8.1485  -13.4638   15.9683 N   0  0  0  0  0  0  0  0  0  0  0  0
    9.3334  -13.8836   16.4494 C   0  0  0  0  0  0  0  0  0  0  0  0
    9.1860  -14.1759   17.7522 N   0  0  0  0  0  0  0  0  0  0  0  0
    7.3875  -15.8290   21.3455 C   0  0  0  0  0  0  0  0  0  0  0  0
    6.1891  -15.8572   21.6883 O   0  0  0  0  0  0  0  0  0  0  0  0
    5.8991  -21.2460   26.5856 N   0  0  0  0  0  0  0  0  0  0  0  0
    6.6051  -20.4871   27.5446 C   0  0  0  0  0  0  0  0  0  0  0  0
    6.4937  -20.7114   28.8031 N   0  0  0  0  0  0  0  0  0  0  0  0
    7.4609  -19.4484   27.1117 N   0  0  0  0  0  0  0  0  0  0  0  0
    7.5126  -19.1530   25.6929 C   0  0  0  0  0  0  0  0  0  0  0  0
    8.5534  -18.0847   25.4841 C   0  0  0  0  0  0  0  0  0  0  0  0
    8.7419  -17.6780   24.0739 C   0  0  0  0  0  0  0  0  0  0  0  0
    7.9900  -16.4269   23.7185 C   0  0  2  0  0  0  0  0  0  0  0  0
    8.3701  -16.0445   22.3293 N   0  0  0  0  0  0  0  0  0  0  0  0
    8.4417  -15.3092   24.5857 C   0  0  0  0  0  0  0  0  0  0  0  0
    9.6586  -14.9023   24.4755 O   0  0  0  0  0  0  0  0  0  0  0  0
    7.0889  -20.1525   29.4812 C   0  0  0  0  0  0  0  0  0  0  0  0
    7.4286  -11.6763   25.2440 C   0  0  2  0  0  0  0  0  0  0  0  0
    7.4390  -12.4099   26.5648 C   0  0  0  0  0  0  0  0  0  0  0  0
    5.9943  -12.6893   26.9254 C   0  0  2  0  0  0  0  0  0  0  0  0
    8.2565  -13.6444   26.4384 N   0  0  0  0  0  0  0  0  0  0  0  0
    7.6745  -14.6223   25.5345 C   0  0  0  0  0  0  0  0  0  0  0  0
    8.5402  -14.2042   27.7751 O   0  0  0  0  0  0  0  0  0  0  0  0
    8.1237  -15.3424   28.0874 O   0  0  0  0  0  0  0  0  0  0  0  0
  2  1  1  6
  3  4  1  0
  3  2  1  0
  4  8  1  0
  5  4  2  0
  5  6  1  0
  6  7  1  0
  8  7  2  0
  9  2  1  0
  9 19  1  0
 10  9  2  0
 11 12  1  0
 12 14  1  0
 13 12  2  0
 14 15  1  0
 16 17  1  0
 16 15  1  0
 18 19  1  0
 18 17  1  1
 20 18  1  0
 21 20  2  0
 23 22  1  1
 23 24  1  0
 23 25  1  0
 25 27  1  0
 25 26  1  1
 26 20  1  0
 27 29  1  0
 28 27  2  0
M  END
$$$$
