HRV.pdb
     RDKit          3D

 29 29  0  0  1  0  0  0  0  0999 V2000
    9.3802  -14.9912   19.9239 N   0  0  0  0  0  0  0  0  0  0  0  0
    7.9598  -14.7488   19.9946 C   0  0  1  0  0  0  0  0  0  0  0  0
    7.3231  -15.4971   18.8353 C   0  0  0  0  0  0  0  0  0  0  0  0
    7.6332  -14.7588   17.5846 C   0  0  0  0  0  0  0  0  0  0  0  0
    8.4330  -13.6709   17.3673 C   0  0  0  0  0  0  0  0  0  0  0  0
    8.4179  -13.3339   16.0539 N   0  0  0  0  0  0  0  0  0  0  0  0
    7.6053  -14.2120   15.4373 C   0  0  0  0  0  0  0  0  0  0  0  0
    7.1308  -15.0714   16.3542 N   0  0  0  0  0  0  0  0  0  0  0  0
    7.4237  -15.1902   21.2956 C   0  0  0  0  0  0  0  0  0  0  0  0
    6.1973  -15.1269   21.5113 O   0  0  0  0  0  0  0  0  0  0  0  0
   13.4742  -19.6992   22.2773 N   0  0  0  0  0  0  0  0  0  0  0  0
   12.3627  -19.5550   23.1363 C   0  0  0  0  0  0  0  0  0  0  0  0
   12.4874  -19.5585   24.4134 N   0  0  0  0  0  0  0  0  0  0  0  0
   11.0725  -19.4019   22.5789 N   0  0  0  0  0  0  0  0  0  0  0  0
    9.9630  -19.1618   23.4813 C   0  0  0  0  0  0  0  0  0  0  0  0
    9.4227  -17.7868   23.1887 C   0  0  0  0  0  0  0  0  0  0  0  0
    8.2830  -17.3806   24.0406 C   0  0  0  0  0  0  0  0  0  0  0  0
    7.7008  -16.0527   23.6474 C   0  0  2  0  0  0  0  0  0  0  0  0
    8.2576  -15.6863   22.3146 N   0  0  0  0  0  0  0  0  0  0  0  0
    8.1712  -15.0031   24.5868 C   0  0  0  0  0  0  0  0  0  0  0  0
    9.3438  -14.5019   24.4071 O   0  0  0  0  0  0  0  0  0  0  0  0
   11.6207  -19.4500   25.0164 C   0  0  0  0  0  0  0  0  0  0  0  0
    7.0092  -11.5702   25.3942 C   0  0  2  0  0  0  0  0  0  0  0  0
    7.1579  -12.2791   26.7201 C   0  0  0  0  0  0  0  0  0  0  0  0
    5.7620  -12.6360   27.1884 C   0  0  2  0  0  0  0  0  0  0  0  0
    8.0361  -13.4658   26.5507 N   0  0  0  0  0  0  0  0  0  0  0  0
    7.4655  -14.4757   25.6752 C   0  0  0  0  0  0  0  0  0  0  0  0
    8.4173  -14.0075   27.8705 O   0  0  0  0  0  0  0  0  0  0  0  0
    8.0546  -15.1552   28.2137 O   0  0  0  0  0  0  0  0  0  0  0  0
  2  1  1  1
  3  4  1  0
  3  2  1  0
  4  8  1  0
  5  4  2  0
  5  6  1  0
  6  7  1  0
  8  7  2  0
  9  2  1  0
  9 19  1  0
 10  9  2  0
 11 12  1  0
 12 14  1  0
 13 12  2  0
 14 15  1  0
 16 17  1  0
 16 15  1  0
 18 19  1  0
 18 17  1  1
 20 18  1  0
 21 20  2  0
 23 22  1  1
 23 24  1  0
 23 25  1  0
 25 27  1  0
 25 26  1  1
 26 20  1  0
 27 29  1  0
 28 27  2  0
M  END
$$$$
