HRV.pdb
     RDKit          3D

 29 29  0  0  1  0  0  0  0  0999 V2000
    7.5467  -20.0269   23.7301 N   0  0  0  0  0  0  0  0  0  0  0  0
    7.2310  -18.8681   24.5293 C   0  0  1  0  0  0  0  0  0  0  0  0
    7.7592  -19.1362   25.9287 C   0  0  0  0  0  0  0  0  0  0  0  0
    7.0002  -20.2793   26.4964 C   0  0  0  0  0  0  0  0  0  0  0  0
    5.9391  -20.9813   25.9946 C   0  0  0  0  0  0  0  0  0  0  0  0
    5.5663  -21.9519   26.8651 N   0  0  0  0  0  0  0  0  0  0  0  0
    6.3947  -21.8640   27.9223 C   0  0  0  0  0  0  0  0  0  0  0  0
    7.2592  -20.8591   27.7051 N   0  0  0  0  0  0  0  0  0  0  0  0
    7.8263  -17.6547   23.9391 C   0  0  0  0  0  0  0  0  0  0  0  0
    9.0209  -17.6645   23.5820 O   0  0  0  0  0  0  0  0  0  0  0  0
    9.0630  -12.3050   18.3330 N   0  0  0  0  0  0  0  0  0  0  0  0
    8.3094  -13.3967   17.8489 C   0  0  0  0  0  0  0  0  0  0  0  0
    8.2823  -13.7032   16.6031 N   0  0  0  0  0  0  0  0  0  0  0  0
    7.5609  -14.1786   18.7584 N   0  0  0  0  0  0  0  0  0  0  0  0
    7.5803  -13.8027   20.1589 C   0  0  0  0  0  0  0  0  0  0  0  0
    6.7320  -14.7934   20.9118 C   0  0  0  0  0  0  0  0  0  0  0  0
    6.6444  -14.5456   22.3680 C   0  0  0  0  0  0  0  0  0  0  0  0
    7.7068  -15.2641   23.1504 C   0  0  2  0  0  0  0  0  0  0  0  0
    7.0849  -16.4721   23.7626 N   0  0  0  0  0  0  0  0  0  0  0  0
    8.1508  -14.4160   24.2857 C   0  0  0  0  0  0  0  0  0  0  0  0
    8.4876  -13.1968   24.0437 O   0  0  0  0  0  0  0  0  0  0  0  0
    7.7523  -14.5701   16.2967 C   0  0  0  0  0  0  0  0  0  0  0  0
    7.6249  -12.0792   25.3411 C   0  0  2  0  0  0  0  0  0  0  0  0
    7.7726  -12.6574   26.7292 C   0  0  0  0  0  0  0  0  0  0  0  0
    6.3753  -12.9514   27.2355 C   0  0  2  0  0  0  0  0  0  0  0  0
    8.6371  -13.8647   26.6727 N   0  0  0  0  0  0  0  0  0  0  0  0
    8.2445  -14.7974   25.6297 C   0  0  0  0  0  0  0  0  0  0  0  0
    8.7106  -14.4990   28.0042 O   0  0  0  0  0  0  0  0  0  0  0  0
    8.3126  -15.6741   28.1696 O   0  0  0  0  0  0  0  0  0  0  0  0
  2  1  1  6
  3  4  1  0
  3  2  1  0
  4  8  1  0
  5  4  2  0
  5  6  1  0
  6  7  1  0
  8  7  2  0
  9  2  1  0
  9 19  1  0
 10  9  2  0
 11 12  1  0
 12 14  1  0
 13 12  2  0
 14 15  1  0
 16 17  1  0
 16 15  1  0
 18 19  1  0
 18 17  1  1
 20 18  1  0
 21 20  2  0
 23 22  1  1
 23 24  1  0
 23 25  1  0
 25 27  1  0
 25 26  1  1
 26 20  1  0
 27 29  1  0
 28 27  2  0
M  END
$$$$
