HRV.pdb
     RDKit          3D

 29 29  0  0  1  0  0  0  0  0999 V2000
    8.2347  -16.9928   18.8463 N   0  0  0  0  0  0  0  0  0  0  0  0
    7.8426  -15.7478   19.4607 C   0  0  1  0  0  0  0  0  0  0  0  0
    6.8564  -15.0784   18.5180 C   0  0  0  0  0  0  0  0  0  0  0  0
    7.6141  -14.5607   17.3505 C   0  0  0  0  0  0  0  0  0  0  0  0
    8.9421  -14.6550   17.0373 C   0  0  0  0  0  0  0  0  0  0  0  0
    9.1914  -14.0271   15.8615 N   0  0  0  0  0  0  0  0  0  0  0  0
    8.0165  -13.5332   15.4287 C   0  0  0  0  0  0  0  0  0  0  0  0
    7.0645  -13.8517   16.3212 N   0  0  0  0  0  0  0  0  0  0  0  0
    7.2546  -15.9902   20.7913 C   0  0  0  0  0  0  0  0  0  0  0  0
    6.0210  -16.1316   20.9044 O   0  0  0  0  0  0  0  0  0  0  0  0
    9.5434  -19.8848   27.9271 N   0  0  0  0  0  0  0  0  0  0  0  0
    8.1352  -19.9703   27.9879 C   0  0  0  0  0  0  0  0  0  0  0  0
    7.5200  -20.2711   29.0730 N   0  0  0  0  0  0  0  0  0  0  0  0
    7.3756  -19.7183   26.8225 N   0  0  0  0  0  0  0  0  0  0  0  0
    8.0858  -19.3755   25.6055 C   0  0  0  0  0  0  0  0  0  0  0  0
    7.4967  -18.0947   25.0755 C   0  0  0  0  0  0  0  0  0  0  0  0
    7.9957  -17.6949   23.7411 C   0  0  0  0  0  0  0  0  0  0  0  0
    7.4352  -16.3816   23.2744 C   0  0  2  0  0  0  0  0  0  0  0  0
    8.0463  -16.0683   21.9518 N   0  0  0  0  0  0  0  0  0  0  0  0
    7.8721  -15.2979   24.1909 C   0  0  0  0  0  0  0  0  0  0  0  0
    9.1315  -15.0456   24.2838 O   0  0  0  0  0  0  0  0  0  0  0  0
    6.4643  -20.3794   29.0543 C   0  0  0  0  0  0  0  0  0  0  0  0
    5.5007  -13.1834   27.1237 C   0  0  2  0  0  0  0  0  0  0  0  0
    6.5756  -12.4892   26.3204 C   0  0  0  0  0  0  0  0  0  0  0  0
    7.1529  -11.4017   27.2031 C   0  0  1  0  0  0  0  0  0  0  0  0
    7.5892  -13.4852   25.8857 N   0  0  0  0  0  0  0  0  0  0  0  0
    7.0494  -14.4912   24.9864 C   0  0  0  0  0  0  0  0  0  0  0  0
    8.2581  -14.0752   27.0626 O   0  0  0  0  0  0  0  0  0  0  0  0
    7.9079  -15.1962   27.4953 O   0  0  0  0  0  0  0  0  0  0  0  0
  2  1  1  6
  3  4  1  0
  3  2  1  0
  4  8  1  0
  5  4  2  0
  5  6  1  0
  6  7  1  0
  8  7  2  0
  9  2  1  0
  9 19  1  0
 10  9  2  0
 11 12  1  0
 12 14  1  0
 13 12  2  0
 14 15  1  0
 16 17  1  0
 16 15  1  0
 18 19  1  0
 18 17  1  1
 20 18  1  0
 21 20  2  0
 23 22  1  6
 23 24  1  0
 23 25  1  0
 25 27  1  0
 25 26  1  6
 26 20  1  0
 27 29  1  0
 28 27  2  0
M  END
$$$$
