HRV.pdb
     RDKit          3D

 29 29  0  0  1  0  0  0  0  0999 V2000
   12.5584  -17.2763   20.4344 N   0  0  0  0  0  0  0  0  0  0  0  0
   12.5464  -17.7518   21.7964 C   0  0  1  0  0  0  0  0  0  0  0  0
   13.9911  -18.0129   22.1887 C   0  0  0  0  0  0  0  0  0  0  0  0
   14.3775  -19.3466   21.6620 C   0  0  0  0  0  0  0  0  0  0  0  0
   14.2697  -20.5904   22.2204 C   0  0  0  0  0  0  0  0  0  0  0  0
   14.7555  -21.5287   21.3704 N   0  0  0  0  0  0  0  0  0  0  0  0
   15.1726  -20.8762   20.2695 C   0  0  0  0  0  0  0  0  0  0  0  0
   14.9473  -19.5630   20.4402 N   0  0  0  0  0  0  0  0  0  0  0  0
   11.9049  -16.7638   22.6837 C   0  0  0  0  0  0  0  0  0  0  0  0
   12.5826  -15.8338   23.1638 O   0  0  0  0  0  0  0  0  0  0  0  0
    8.7764  -14.7847   18.9504 N   0  0  0  0  0  0  0  0  0  0  0  0
    7.9593  -13.7613   19.4788 C   0  0  0  0  0  0  0  0  0  0  0  0
    8.0160  -12.5554   19.0441 N   0  0  0  0  0  0  0  0  0  0  0  0
    7.0503  -14.0683   20.5172 N   0  0  0  0  0  0  0  0  0  0  0  0
    7.3275  -15.2242   21.3478 C   0  0  0  0  0  0  0  0  0  0  0  0
    7.9679  -14.7328   22.6193 C   0  0  0  0  0  0  0  0  0  0  0  0
    8.4137  -15.8048   23.5367 C   0  0  0  0  0  0  0  0  0  0  0  0
    9.8891  -15.7615   23.8166 C   0  0  2  0  0  0  0  0  0  0  0  0
   10.5385  -16.8344   23.0116 N   0  0  0  0  0  0  0  0  0  0  0  0
   10.1384  -16.1126   25.2379 C   0  0  0  0  0  0  0  0  0  0  0  0
   10.4908  -17.3193   25.5175 O   0  0  0  0  0  0  0  0  0  0  0  0
    7.3882  -11.8196   19.4811 C   0  0  0  0  0  0  0  0  0  0  0  0
   10.9987  -13.4504   28.3334 C   0  0  2  0  0  0  0  0  0  0  0  0
   10.1416  -14.6358   28.7115 C   0  0  0  0  0  0  0  0  0  0  0  0
    8.7163  -14.1335   28.8176 C   0  0  2  0  0  0  0  0  0  0  0  0
   10.3065  -15.7090   27.6970 N   0  0  0  0  0  0  0  0  0  0  0  0
   10.0361  -15.2579   26.3422 C   0  0  0  0  0  0  0  0  0  0  0  0
    9.5045  -16.8905   28.0732 O   0  0  0  0  0  0  0  0  0  0  0  0
    8.4677  -17.1823   27.4358 O   0  0  0  0  0  0  0  0  0  0  0  0
  2  1  1  6
  3  4  1  0
  3  2  1  0
  4  8  1  0
  5  4  2  0
  5  6  1  0
  6  7  1  0
  8  7  2  0
  9  2  1  0
  9 19  1  0
 10  9  2  0
 11 12  1  0
 12 14  1  0
 13 12  2  0
 14 15  1  0
 16 17  1  0
 16 15  1  0
 18 19  1  0
 18 17  1  1
 20 18  1  0
 21 20  2  0
 23 22  1  1
 23 24  1  0
 23 25  1  0
 25 27  1  0
 25 26  1  1
 26 20  1  0
 27 29  1  0
 28 27  2  0
M  END
$$$$
