HRV.pdb
     RDKit          3D

 29 29  0  0  1  0  0  0  0  0999 V2000
    8.2659  -15.8945   19.5170 N   0  0  0  0  0  0  0  0  0  0  0  0
    7.9123  -14.7202   20.2767 C   0  0  1  0  0  0  0  0  0  0  0  0
    6.9630  -13.9034   19.4159 C   0  0  0  0  0  0  0  0  0  0  0  0
    7.5907  -13.7222   18.0824 C   0  0  0  0  0  0  0  0  0  0  0  0
    7.0471  -13.3434   16.8859 C   0  0  0  0  0  0  0  0  0  0  0  0
    8.0044  -13.3118   15.9260 N   0  0  0  0  0  0  0  0  0  0  0  0
    9.1587  -13.6721   16.5173 C   0  0  0  0  0  0  0  0  0  0  0  0
    8.9148  -13.9201   17.8147 N   0  0  0  0  0  0  0  0  0  0  0  0
    7.2996  -15.1013   21.5629 C   0  0  0  0  0  0  0  0  0  0  0  0
    6.7368  -14.2336   22.2595 O   0  0  0  0  0  0  0  0  0  0  0  0
    8.2550  -21.6836   27.4222 N   0  0  0  0  0  0  0  0  0  0  0  0
    7.1739  -20.8064   27.6588 C   0  0  0  0  0  0  0  0  0  0  0  0
    6.8996  -20.3692   28.8337 N   0  0  0  0  0  0  0  0  0  0  0  0
    6.3668  -20.3943   26.5738 N   0  0  0  0  0  0  0  0  0  0  0  0
    7.0192  -20.0863   25.3158 C   0  0  0  0  0  0  0  0  0  0  0  0
    6.8075  -18.6218   25.0354 C   0  0  0  0  0  0  0  0  0  0  0  0
    7.0507  -18.2238   23.6311 C   0  0  0  0  0  0  0  0  0  0  0  0
    6.7723  -16.7696   23.3769 C   0  0  2  0  0  0  0  0  0  0  0  0
    7.3279  -16.4255   22.0376 N   0  0  0  0  0  0  0  0  0  0  0  0
    7.5221  -15.9392   24.3534 C   0  0  0  0  0  0  0  0  0  0  0  0
    8.8011  -15.8545   24.2301 O   0  0  0  0  0  0  0  0  0  0  0  0
    6.0485  -19.7494   28.9675 C   0  0  0  0  0  0  0  0  0  0  0  0
    7.8878  -12.3468   27.6890 C   0  0  1  0  0  0  0  0  0  0  0  0
    6.9722  -13.2986   26.9552 C   0  0  0  0  0  0  0  0  0  0  0  0
    6.1006  -12.4583   26.0445 C   0  0  1  0  0  0  0  0  0  0  0  0
    7.7869  -14.3002   26.2195 N   0  0  0  0  0  0  0  0  0  0  0  0
    6.9838  -15.2121   25.4222 C   0  0  0  0  0  0  0  0  0  0  0  0
    8.6890  -15.0047   27.1525 O   0  0  0  0  0  0  0  0  0  0  0  0
    8.4246  -16.1670   27.5342 O   0  0  0  0  0  0  0  0  0  0  0  0
  2  1  1  6
  3  4  1  0
  3  2  1  0
  4  8  1  0
  5  4  2  0
  5  6  1  0
  6  7  1  0
  8  7  2  0
  9  2  1  0
  9 19  1  0
 10  9  2  0
 11 12  1  0
 12 14  1  0
 13 12  2  0
 14 15  1  0
 16 17  1  0
 16 15  1  0
 18 19  1  0
 18 17  1  1
 20 18  1  0
 21 20  2  0
 23 22  1  1
 23 24  1  0
 23 25  1  0
 25 27  1  0
 25 26  1  1
 26 20  1  0
 27 29  1  0
 28 27  2  0
M  END
$$$$
