HRV.pdb
     RDKit          3D

 29 29  0  0  1  0  0  0  0  0999 V2000
    6.6896  -16.7094   19.7765 N   0  0  0  0  0  0  0  0  0  0  0  0
    7.4382  -15.8402   20.6514 C   0  0  1  0  0  0  0  0  0  0  0  0
    7.1104  -14.4127   20.2462 C   0  0  0  0  0  0  0  0  0  0  0  0
    7.6155  -14.1980   18.8664 C   0  0  0  0  0  0  0  0  0  0  0  0
    7.2372  -13.2974   17.9091 C   0  0  0  0  0  0  0  0  0  0  0  0
    7.9806  -13.4663   16.7877 N   0  0  0  0  0  0  0  0  0  0  0  0
    8.8330  -14.4779   17.0360 C   0  0  0  0  0  0  0  0  0  0  0  0
    8.6172  -14.9214   18.2854 N   0  0  0  0  0  0  0  0  0  0  0  0
    7.0953  -16.1050   22.0611 C   0  0  0  0  0  0  0  0  0  0  0  0
    5.9675  -15.7921   22.4911 O   0  0  0  0  0  0  0  0  0  0  0  0
    5.1361  -22.4806   25.6755 N   0  0  0  0  0  0  0  0  0  0  0  0
    5.2737  -22.2488   24.2894 C   0  0  0  0  0  0  0  0  0  0  0  0
    4.5023  -22.8059   23.4285 N   0  0  0  0  0  0  0  0  0  0  0  0
    6.2891  -21.3786   23.8306 N   0  0  0  0  0  0  0  0  0  0  0  0
    6.6937  -20.2861   24.6942 C   0  0  0  0  0  0  0  0  0  0  0  0
    7.7417  -19.4879   23.9643 C   0  0  0  0  0  0  0  0  0  0  0  0
    8.2698  -18.3309   24.7205 C   0  0  0  0  0  0  0  0  0  0  0  0
    7.6090  -17.0346   24.3466 C   0  0  2  0  0  0  0  0  0  0  0  0
    8.0070  -16.7054   22.9487 N   0  0  0  0  0  0  0  0  0  0  0  0
    8.1467  -15.9378   25.1912 C   0  0  0  0  0  0  0  0  0  0  0  0
    9.3690  -15.5726   25.0148 O   0  0  0  0  0  0  0  0  0  0  0  0
    4.6553  -22.6108   22.3965 C   0  0  0  0  0  0  0  0  0  0  0  0
    7.8220  -12.0307   28.1312 C   0  0  2  0  0  0  0  0  0  0  0  0
    7.0898  -13.1689   27.4595 C   0  0  0  0  0  0  0  0  0  0  0  0
    6.2226  -12.5582   26.3778 C   0  0  1  0  0  0  0  0  0  0  0  0
    8.0753  -14.1479   26.9318 N   0  0  0  0  0  0  0  0  0  0  0  0
    7.4578  -15.2301   26.1838 C   0  0  0  0  0  0  0  0  0  0  0  0
    8.9421  -14.6343   28.0239 O   0  0  0  0  0  0  0  0  0  0  0  0
    8.8312  -15.8069   28.4473 O   0  0  0  0  0  0  0  0  0  0  0  0
  2  1  1  6
  3  4  1  0
  3  2  1  0
  4  8  1  0
  5  4  2  0
  5  6  1  0
  6  7  1  0
  8  7  2  0
  9  2  1  0
  9 19  1  0
 10  9  2  0
 11 12  1  0
 12 14  1  0
 13 12  2  0
 14 15  1  0
 16 17  1  0
 16 15  1  0
 18 19  1  0
 18 17  1  1
 20 18  1  0
 21 20  2  0
 23 22  1  1
 23 24  1  0
 23 25  1  0
 25 27  1  0
 25 26  1  1
 26 20  1  0
 27 29  1  0
 28 27  2  0
M  END
$$$$
