HRV.pdb
     RDKit          3D

 29 29  0  0  1  0  0  0  0  0999 V2000
    9.0095  -15.5714   19.5411 N   0  0  0  0  0  0  0  0  0  0  0  0
    7.8975  -14.7653   19.9824 C   0  0  1  0  0  0  0  0  0  0  0  0
    6.8312  -14.8502   18.9030 C   0  0  0  0  0  0  0  0  0  0  0  0
    7.3792  -14.2398   17.6651 C   0  0  0  0  0  0  0  0  0  0  0  0
    8.6110  -13.7053   17.4052 C   0  0  0  0  0  0  0  0  0  0  0  0
    8.6673  -13.2599   16.1256 N   0  0  0  0  0  0  0  0  0  0  0  0
    7.4664  -13.5135   15.5733 C   0  0  0  0  0  0  0  0  0  0  0  0
    6.6879  -14.1030   16.4957 N   0  0  0  0  0  0  0  0  0  0  0  0
    7.3996  -15.2402   21.2868 C   0  0  0  0  0  0  0  0  0  0  0  0
    6.4150  -14.6834   21.8113 O   0  0  0  0  0  0  0  0  0  0  0  0
    6.2656  -21.2342   26.1135 N   0  0  0  0  0  0  0  0  0  0  0  0
    7.1107  -20.7541   27.1380 C   0  0  0  0  0  0  0  0  0  0  0  0
    6.8407  -20.9328   28.3796 N   0  0  0  0  0  0  0  0  0  0  0  0
    8.2900  -20.0556   26.7918 N   0  0  0  0  0  0  0  0  0  0  0  0
    8.5507  -19.8104   25.3864 C   0  0  0  0  0  0  0  0  0  0  0  0
    7.9113  -18.4960   25.0235 C   0  0  0  0  0  0  0  0  0  0  0  0
    8.1297  -18.0727   23.6226 C   0  0  0  0  0  0  0  0  0  0  0  0
    7.5143  -16.7383   23.3101 C   0  0  2  0  0  0  0  0  0  0  0  0
    8.0038  -16.3124   21.9686 N   0  0  0  0  0  0  0  0  0  0  0  0
    8.0160  -15.7202   24.2678 C   0  0  0  0  0  0  0  0  0  0  0  0
    9.2342  -15.3190   24.1522 O   0  0  0  0  0  0  0  0  0  0  0  0
    7.4616  -20.4815   29.1125 C   0  0  0  0  0  0  0  0  0  0  0  0
    7.4636  -11.9500   27.3270 C   0  0  2  0  0  0  0  0  0  0  0  0
    6.8175  -13.0277   26.4880 C   0  0  0  0  0  0  0  0  0  0  0  0
    6.1838  -12.3387   25.2968 C   0  0  1  0  0  0  0  0  0  0  0  0
    7.8405  -14.0339   26.1019 N   0  0  0  0  0  0  0  0  0  0  0  0
    7.2959  -15.1244   25.3105 C   0  0  0  0  0  0  0  0  0  0  0  0
    8.5642  -14.5068   27.2991 O   0  0  0  0  0  0  0  0  0  0  0  0
    8.3460  -15.6490   27.7620 O   0  0  0  0  0  0  0  0  0  0  0  0
  2  1  1  6
  3  4  1  0
  3  2  1  0
  4  8  1  0
  5  4  2  0
  5  6  1  0
  6  7  1  0
  8  7  2  0
  9  2  1  0
  9 19  1  0
 10  9  2  0
 11 12  1  0
 12 14  1  0
 13 12  2  0
 14 15  1  0
 16 17  1  0
 16 15  1  0
 18 19  1  0
 18 17  1  1
 20 18  1  0
 21 20  2  0
 23 22  1  1
 23 24  1  0
 23 25  1  0
 25 27  1  0
 25 26  1  1
 26 20  1  0
 27 29  1  0
 28 27  2  0
M  END
$$$$
