HRV.pdb
     RDKit          3D

 29 29  0  0  1  0  0  0  0  0999 V2000
    7.7296  -16.6343   19.4386 N   0  0  0  0  0  0  0  0  0  0  0  0
    7.6754  -15.4558   20.2690 C   0  0  1  0  0  0  0  0  0  0  0  0
    6.8348  -14.4289   19.5287 C   0  0  0  0  0  0  0  0  0  0  0  0
    7.6102  -13.9608   18.3519 C   0  0  0  0  0  0  0  0  0  0  0  0
    8.4524  -12.8930   18.2073 C   0  0  0  0  0  0  0  0  0  0  0  0
    8.9437  -12.8521   16.9441 N   0  0  0  0  0  0  0  0  0  0  0  0
    8.4103  -13.8982   16.2863 C   0  0  0  0  0  0  0  0  0  0  0  0
    7.6073  -14.5683   17.1292 N   0  0  0  0  0  0  0  0  0  0  0  0
    7.1094  -15.7805   21.5916 C   0  0  0  0  0  0  0  0  0  0  0  0
    5.8722  -15.8137   21.7420 O   0  0  0  0  0  0  0  0  0  0  0  0
    7.8312  -22.0412   27.0064 N   0  0  0  0  0  0  0  0  0  0  0  0
    6.9256  -21.6654   25.9901 C   0  0  0  0  0  0  0  0  0  0  0  0
    6.2052  -22.5278   25.3705 N   0  0  0  0  0  0  0  0  0  0  0  0
    6.8047  -20.3009   25.6407 N   0  0  0  0  0  0  0  0  0  0  0  0
    7.6076  -19.3363   26.3672 C   0  0  0  0  0  0  0  0  0  0  0  0
    7.2348  -17.9634   25.8727 C   0  0  0  0  0  0  0  0  0  0  0  0
    7.6842  -17.6637   24.4952 C   0  0  0  0  0  0  0  0  0  0  0  0
    7.3332  -16.2714   24.0534 C   0  0  2  0  0  0  0  0  0  0  0  0
    7.9263  -16.0573   22.7032 N   0  0  0  0  0  0  0  0  0  0  0  0
    7.9896  -15.2833   24.9469 C   0  0  0  0  0  0  0  0  0  0  0  0
    9.2716  -15.3196   25.0624 O   0  0  0  0  0  0  0  0  0  0  0  0
    5.5712  -22.2008   24.5846 C   0  0  0  0  0  0  0  0  0  0  0  0
    7.8262  -11.3618   25.4329 C   0  0  2  0  0  0  0  0  0  0  0  0
    7.5641  -12.0740   26.7394 C   0  0  0  0  0  0  0  0  0  0  0  0
    6.0706  -12.0091   26.9852 C   0  0  2  0  0  0  0  0  0  0  0  0
    8.0804  -13.4649   26.6567 N   0  0  0  0  0  0  0  0  0  0  0  0
    7.3584  -14.2839   25.6975 C   0  0  0  0  0  0  0  0  0  0  0  0
    8.1238  -14.0709   28.0026 O   0  0  0  0  0  0  0  0  0  0  0  0
    7.3879  -15.0434   28.2842 O   0  0  0  0  0  0  0  0  0  0  0  0
  2  1  1  6
  3  4  1  0
  3  2  1  0
  4  8  1  0
  5  4  2  0
  5  6  1  0
  6  7  1  0
  8  7  2  0
  9  2  1  0
  9 19  1  0
 10  9  2  0
 11 12  1  0
 12 14  1  0
 13 12  2  0
 14 15  1  0
 16 17  1  0
 16 15  1  0
 18 19  1  0
 18 17  1  1
 20 18  1  0
 21 20  2  0
 23 22  1  1
 23 24  1  0
 23 25  1  0
 25 27  1  0
 25 26  1  1
 26 20  1  0
 27 29  1  0
 28 27  2  0
M  END
$$$$
