MHE.pdb
     RDKit          3D

 28 28  0  0  1  0  0  0  0  0999 V2000
   25.3492  -30.9831   -8.1695 C   0  0  0  0  0  0  0  0  0  0  0  0
   26.1339  -32.2037   -7.1277 S   0  0  0  0  0  0  0  0  0  0  0  0
   25.8450  -33.8989   -7.5972 C   0  0  0  0  0  0  0  0  0  0  0  0
   26.6119  -34.9015   -6.7632 C   0  0  0  0  0  0  0  0  0  0  0  0
   28.0920  -34.8857   -7.1475 C   0  0  2  0  0  0  0  0  0  0  0  0
   28.2944  -35.4142   -8.4692 N   0  0  0  0  0  0  0  0  0  0  0  0
   28.8713  -35.5908   -6.1134 C   0  0  0  0  0  0  0  0  0  0  0  0
   28.2966  -36.5104   -5.4824 O   0  0  0  0  0  0  0  0  0  0  0  0
   30.2519  -35.2562   -5.8154 N   0  0  0  0  0  0  0  0  0  0  0  0
   30.8926  -35.9856   -4.7746 C   0  0  1  0  0  0  0  0  0  0  0  0
   32.3686  -35.9699   -4.9039 C   0  0  0  0  0  0  0  0  0  0  0  0
   32.9636  -36.9107   -5.8543 C   0  0  0  0  0  0  0  0  0  0  0  0
   32.4539  -37.9146   -6.6222 C   0  0  0  0  0  0  0  0  0  0  0  0
   33.4653  -38.4506   -7.3477 N   0  0  0  0  0  0  0  0  0  0  0  0
   34.5878  -37.7903   -7.0371 C   0  0  0  0  0  0  0  0  0  0  0  0
   34.2974  -36.8579   -6.1362 N   0  0  0  0  0  0  0  0  0  0  0  0
   30.4246  -35.5323   -3.4332 C   0  0  0  0  0  0  0  0  0  0  0  0
   29.8283  -34.4436   -3.2554 O   0  0  0  0  0  0  0  0  0  0  0  0
   30.6515  -36.3471   -2.2967 N   0  0  0  0  0  0  0  0  0  0  0  0
   30.0563  -36.0267   -1.0353 C   0  0  1  0  0  0  0  0  0  0  0  0
   28.5531  -35.8929   -1.0793 C   0  0  0  0  0  0  0  0  0  0  0  0
   27.9153  -35.5431    0.2236 C   0  0  0  0  0  0  0  0  0  0  0  0
   26.5421  -36.0906    0.2178 C   0  0  0  0  0  0  0  0  0  0  0  0
   26.3795  -37.2802   -0.1270 O   0  0  0  0  0  0  0  0  0  0  0  0
   30.4280  -36.9962    0.0229 C   0  0  0  0  0  0  0  0  0  0  0  0
   30.0068  -36.7999    1.1861 O   0  0  0  0  0  0  0  0  0  0  0  0
   25.4368  -35.3477    0.5754 O   0  0  0  0  0  0  0  0  0  0  0  0
   31.2165  -38.1058   -0.2079 O   0  0  0  0  0  0  0  0  0  0  0  0
  2  1  1  0
  3  2  1  0
  3  4  1  0
  5  4  1  0
  5  6  1  6
  7  5  1  0
  7  8  2  0
  9  7  1  0
 10  9  1  0
 10 11  1  1
 12 11  1  0
 12 16  1  0
 13 12  2  0
 14 13  1  0
 14 15  1  0
 15 16  2  0
 17 10  1  0
 18 17  2  0
 19 17  1  0
 20 19  1  0
 20 25  1  0
 20 21  1  6
 22 21  1  0
 22 23  1  0
 23 24  2  0
 25 28  1  0
 26 25  2  0
 27 23  1  0
M  END
$$$$
