MHE.pdb
     RDKit          3D

 28 28  0  0  1  0  0  0  0  0999 V2000
   47.5487  -12.2176  -15.8710 C   0  0  0  0  0  0  0  0  0  0  0  0
   47.3552  -13.9911  -15.7815 S   0  0  0  0  0  0  0  0  0  0  0  0
   45.6718  -14.5642  -15.6571 C   0  0  0  0  0  0  0  0  0  0  0  0
   45.0153  -14.2441  -14.3322 C   0  0  0  0  0  0  0  0  0  0  0  0
   44.7249  -15.5329  -13.5619 C   0  0  2  0  0  0  0  0  0  0  0  0
   43.7764  -16.3569  -14.2609 N   0  0  0  0  0  0  0  0  0  0  0  0
   44.3028  -15.1959  -12.1900 C   0  0  0  0  0  0  0  0  0  0  0  0
   43.1807  -14.6532  -12.0467 O   0  0  0  0  0  0  0  0  0  0  0  0
   45.1321  -15.4699  -11.0307 N   0  0  0  0  0  0  0  0  0  0  0  0
   44.5976  -15.1464   -9.7519 C   0  0  1  0  0  0  0  0  0  0  0  0
   44.7221  -16.2673   -8.7909 C   0  0  0  0  0  0  0  0  0  0  0  0
   44.1717  -17.5601   -9.2011 C   0  0  0  0  0  0  0  0  0  0  0  0
   43.5754  -18.0044  -10.3431 C   0  0  0  0  0  0  0  0  0  0  0  0
   43.2822  -19.3182  -10.1865 N   0  0  0  0  0  0  0  0  0  0  0  0
   43.6901  -19.6869   -8.9658 C   0  0  0  0  0  0  0  0  0  0  0  0
   44.2291  -18.6337   -8.3612 N   0  0  0  0  0  0  0  0  0  0  0  0
   45.1757  -13.8731   -9.2336 C   0  0  0  0  0  0  0  0  0  0  0  0
   46.3659  -13.5360   -9.4388 O   0  0  0  0  0  0  0  0  0  0  0  0
   44.3674  -12.9913   -8.4747 N   0  0  0  0  0  0  0  0  0  0  0  0
   44.8792  -11.7325   -8.0255 C   0  0  1  0  0  0  0  0  0  0  0  0
   44.4828  -10.5614   -8.8921 C   0  0  0  0  0  0  0  0  0  0  0  0
   43.4347   -9.6742   -8.3079 C   0  0  0  0  0  0  0  0  0  0  0  0
   43.2443   -8.5316   -9.2265 C   0  0  0  0  0  0  0  0  0  0  0  0
   43.6725   -7.4115   -8.8764 O   0  0  0  0  0  0  0  0  0  0  0  0
   44.5075  -11.4453   -6.6193 C   0  0  0  0  0  0  0  0  0  0  0  0
   43.3908  -11.8343   -6.2063 O   0  0  0  0  0  0  0  0  0  0  0  0
   42.6169   -8.6483  -10.4488 O   0  0  0  0  0  0  0  0  0  0  0  0
   45.3299  -10.7691   -5.7403 O   0  0  0  0  0  0  0  0  0  0  0  0
  2  1  1  0
  3  2  1  0
  3  4  1  0
  5  4  1  0
  5  6  1  6
  7  5  1  0
  7  8  2  0
  9  7  1  0
 10  9  1  0
 10 11  1  1
 12 11  1  0
 12 16  1  0
 13 12  2  0
 14 13  1  0
 14 15  1  0
 15 16  2  0
 17 10  1  0
 18 17  2  0
 19 17  1  0
 20 19  1  0
 20 25  1  0
 20 21  1  6
 22 21  1  0
 22 23  1  0
 23 24  2  0
 25 28  1  0
 26 25  2  0
 27 23  1  0
M  END
$$$$
