MHE.pdb
     RDKit          3D

 28 28  0  0  1  0  0  0  0  0999 V2000
   24.4439   -9.8015  -24.3698 C   0  0  0  0  0  0  0  0  0  0  0  0
   23.4066   -9.0556  -23.1213 S   0  0  0  0  0  0  0  0  0  0  0  0
   22.9304  -10.1372  -21.7868 C   0  0  0  0  0  0  0  0  0  0  0  0
   21.9827   -9.5002  -20.7945 C   0  0  0  0  0  0  0  0  0  0  0  0
   21.6601  -10.4820  -19.6673 C   0  0  2  0  0  0  0  0  0  0  0  0
   20.9032  -11.6041  -20.1523 N   0  0  0  0  0  0  0  0  0  0  0  0
   20.9914   -9.7603  -18.5692 C   0  0  0  0  0  0  0  0  0  0  0  0
   19.7477   -9.6135  -18.6461 O   0  0  0  0  0  0  0  0  0  0  0  0
   21.7178   -9.2296  -17.4301 N   0  0  0  0  0  0  0  0  0  0  0  0
   20.9566   -8.6153  -16.3963 C   0  0  1  0  0  0  0  0  0  0  0  0
   20.8072   -9.4924  -15.2115 C   0  0  0  0  0  0  0  0  0  0  0  0
   20.0692   -8.9495  -14.0701 C   0  0  0  0  0  0  0  0  0  0  0  0
   19.3843   -7.7896  -13.8635 C   0  0  0  0  0  0  0  0  0  0  0  0
   18.8647   -7.8194  -12.6122 N   0  0  0  0  0  0  0  0  0  0  0  0
   19.2200   -8.9804  -12.0480 C   0  0  0  0  0  0  0  0  0  0  0  0
   19.9476   -9.6716  -12.9189 N   0  0  0  0  0  0  0  0  0  0  0  0
   21.5007   -7.2694  -16.0547 C   0  0  0  0  0  0  0  0  0  0  0  0
   22.7274   -7.0491  -15.9171 O   0  0  0  0  0  0  0  0  0  0  0  0
   20.6155   -6.1784  -15.8724 N   0  0  0  0  0  0  0  0  0  0  0  0
   21.1179   -4.8610  -15.6272 C   0  0  1  0  0  0  0  0  0  0  0  0
   20.0688   -3.7777  -15.7009 C   0  0  0  0  0  0  0  0  0  0  0  0
   20.5927   -2.3863  -15.5729 C   0  0  0  0  0  0  0  0  0  0  0  0
   19.4512   -1.4573  -15.7125 C   0  0  0  0  0  0  0  0  0  0  0  0
   19.3237   -0.5438  -14.8699 O   0  0  0  0  0  0  0  0  0  0  0  0
   21.8277   -4.7636  -14.3292 C   0  0  0  0  0  0  0  0  0  0  0  0
   21.3493   -5.3671  -13.3413 O   0  0  0  0  0  0  0  0  0  0  0  0
   18.5246   -1.5548  -16.7289 O   0  0  0  0  0  0  0  0  0  0  0  0
   22.9903   -4.0401  -14.1528 O   0  0  0  0  0  0  0  0  0  0  0  0
  2  1  1  0
  3  2  1  0
  3  4  1  0
  5  4  1  0
  5  6  1  6
  7  5  1  0
  7  8  2  0
  9  7  1  0
 10  9  1  0
 10 11  1  1
 12 11  1  0
 12 16  1  0
 13 12  2  0
 14 13  1  0
 14 15  1  0
 15 16  2  0
 17 10  1  0
 18 17  2  0
 19 17  1  0
 20 19  1  0
 20 25  1  0
 20 21  1  1
 22 21  1  0
 22 23  1  0
 23 24  2  0
 25 28  1  0
 26 25  2  0
 27 23  1  0
M  END
$$$$
