MHE.pdb
     RDKit          3D

 28 28  0  0  1  0  0  0  0  0999 V2000
   31.3219  -22.1509  -10.0396 C   0  0  0  0  0  0  0  0  0  0  0  0
   30.0712  -21.2186  -10.9098 S   0  0  0  0  0  0  0  0  0  0  0  0
   28.4481  -21.2574  -10.1737 C   0  0  0  0  0  0  0  0  0  0  0  0
   27.4451  -20.3579  -10.8620 C   0  0  0  0  0  0  0  0  0  0  0  0
   26.2857  -21.1869  -11.4163 C   0  0  2  0  0  0  0  0  0  0  0  0
   26.7617  -22.3522  -12.1108 N   0  0  0  0  0  0  0  0  0  0  0  0
   25.4247  -20.3256  -12.2474 C   0  0  0  0  0  0  0  0  0  0  0  0
   24.9953  -19.2659  -11.7308 O   0  0  0  0  0  0  0  0  0  0  0  0
   25.0711  -20.6645  -13.6137 N   0  0  0  0  0  0  0  0  0  0  0  0
   24.3577  -19.6899  -14.3666 C   0  0  1  0  0  0  0  0  0  0  0  0
   24.9176  -19.5101  -15.7266 C   0  0  0  0  0  0  0  0  0  0  0  0
   26.1489  -18.7273  -15.8415 C   0  0  0  0  0  0  0  0  0  0  0  0
   26.9273  -18.0676  -14.9380 C   0  0  0  0  0  0  0  0  0  0  0  0
   27.9808  -17.5280  -15.5978 N   0  0  0  0  0  0  0  0  0  0  0  0
   27.8611  -17.8471  -16.8925 C   0  0  0  0  0  0  0  0  0  0  0  0
   26.7586  -18.5714  -17.0520 N   0  0  0  0  0  0  0  0  0  0  0  0
   22.8954  -19.9827  -14.3770 C   0  0  0  0  0  0  0  0  0  0  0  0
   22.4365  -21.1465  -14.2916 O   0  0  0  0  0  0  0  0  0  0  0  0
   21.9660  -18.9193  -14.4877 N   0  0  0  0  0  0  0  0  0  0  0  0
   20.5599  -19.1611  -14.3759 C   0  0  1  0  0  0  0  0  0  0  0  0
   19.7687  -17.9770  -13.8746 C   0  0  0  0  0  0  0  0  0  0  0  0
   18.2936  -18.1914  -13.8048 C   0  0  0  0  0  0  0  0  0  0  0  0
   17.6735  -16.9311  -13.3436 C   0  0  0  0  0  0  0  0  0  0  0  0
   18.4020  -15.9245  -13.2140 O   0  0  0  0  0  0  0  0  0  0  0  0
   19.9694  -19.6369  -15.6499 C   0  0  0  0  0  0  0  0  0  0  0  0
   20.4478  -19.2089  -16.7254 O   0  0  0  0  0  0  0  0  0  0  0  0
   16.3306  -16.8187  -13.0516 O   0  0  0  0  0  0  0  0  0  0  0  0
   18.9168  -20.5283  -15.7119 O   0  0  0  0  0  0  0  0  0  0  0  0
  2  1  1  0
  3  2  1  0
  3  4  1  0
  5  4  1  0
  5  6  1  6
  7  5  1  0
  7  8  2  0
  9  7  1  0
 10  9  1  0
 10 11  1  6
 12 11  1  0
 12 16  1  0
 13 12  2  0
 14 13  1  0
 14 15  1  0
 15 16  2  0
 17 10  1  0
 18 17  2  0
 19 17  1  0
 20 19  1  0
 20 25  1  0
 20 21  1  6
 22 21  1  0
 22 23  1  0
 23 24  2  0
 25 28  1  0
 26 25  2  0
 27 23  1  0
M  END
$$$$
