MHE.pdb
     RDKit          3D

 28 28  0  0  1  0  0  0  0  0999 V2000
   22.9200  -20.8989  -14.1663 C   0  0  0  0  0  0  0  0  0  0  0  0
   21.1578  -21.1055  -14.3729 S   0  0  0  0  0  0  0  0  0  0  0  0
   20.3282  -19.7583  -15.1942 C   0  0  0  0  0  0  0  0  0  0  0  0
   21.1317  -18.4769  -15.2267 C   0  0  0  0  0  0  0  0  0  0  0  0
   20.4251  -17.4324  -16.0918 C   0  0  2  0  0  0  0  0  0  0  0  0
   20.4051  -17.8259  -17.4744 N   0  0  0  0  0  0  0  0  0  0  0  0
   21.0485  -16.1146  -15.8710 C   0  0  0  0  0  0  0  0  0  0  0  0
   21.0533  -15.6658  -14.6994 O   0  0  0  0  0  0  0  0  0  0  0  0
   21.6421  -15.3437  -16.9481 N   0  0  0  0  0  0  0  0  0  0  0  0
   22.1066  -14.0346  -16.6379 C   0  0  1  0  0  0  0  0  0  0  0  0
   23.4683  -13.7821  -17.1645 C   0  0  0  0  0  0  0  0  0  0  0  0
   24.5265  -14.7007  -16.7417 C   0  0  0  0  0  0  0  0  0  0  0  0
   25.1101  -15.7875  -17.3208 C   0  0  0  0  0  0  0  0  0  0  0  0
   26.0715  -16.2500  -16.4852 N   0  0  0  0  0  0  0  0  0  0  0  0
   26.0871  -15.4630  -15.4022 C   0  0  0  0  0  0  0  0  0  0  0  0
   25.1585  -14.5236  -15.5456 N   0  0  0  0  0  0  0  0  0  0  0  0
   21.1208  -12.9993  -17.0626 C   0  0  0  0  0  0  0  0  0  0  0  0
   20.4753  -13.0773  -18.1349 O   0  0  0  0  0  0  0  0  0  0  0  0
   20.8865  -11.8712  -16.2385 N   0  0  0  0  0  0  0  0  0  0  0  0
   19.8425  -10.9424  -16.5479 C   0  0  1  0  0  0  0  0  0  0  0  0
   18.6237  -11.0688  -15.6659 C   0  0  0  0  0  0  0  0  0  0  0  0
   17.5143  -10.1245  -15.9887 C   0  0  0  0  0  0  0  0  0  0  0  0
   16.3776  -10.9186  -16.5015 C   0  0  0  0  0  0  0  0  0  0  0  0
   15.9643  -11.8755  -15.8129 O   0  0  0  0  0  0  0  0  0  0  0  0
   20.3163   -9.5377  -16.5252 C   0  0  0  0  0  0  0  0  0  0  0  0
   21.4406   -9.2956  -16.0292 O   0  0  0  0  0  0  0  0  0  0  0  0
   15.7560  -10.6497  -17.7025 O   0  0  0  0  0  0  0  0  0  0  0  0
   19.5803   -8.4808  -17.0227 O   0  0  0  0  0  0  0  0  0  0  0  0
  2  1  1  0
  3  2  1  0
  3  4  1  0
  5  4  1  0
  5  6  1  6
  7  5  1  0
  7  8  2  0
  9  7  1  0
 10  9  1  0
 10 11  1  6
 12 11  1  0
 12 16  1  0
 13 12  2  0
 14 13  1  0
 14 15  1  0
 15 16  2  0
 17 10  1  0
 18 17  2  0
 19 17  1  0
 20 19  1  0
 20 25  1  0
 20 21  1  1
 22 21  1  0
 22 23  1  0
 23 24  2  0
 25 28  1  0
 26 25  2  0
 27 23  1  0
M  END
$$$$
