MHE.pdb
     RDKit          3D

 28 28  0  0  1  0  0  0  0  0999 V2000
   21.4915   -8.1399  -23.7941 C   0  0  0  0  0  0  0  0  0  0  0  0
   22.5082   -9.6056  -23.6986 S   0  0  0  0  0  0  0  0  0  0  0  0
   22.1797  -10.6659  -22.3037 C   0  0  0  0  0  0  0  0  0  0  0  0
   21.7052   -9.9247  -21.0732 C   0  0  0  0  0  0  0  0  0  0  0  0
   21.5252  -10.8980  -19.9074 C   0  0  2  0  0  0  0  0  0  0  0  0
   20.8671  -12.1042  -20.3305 N   0  0  0  0  0  0  0  0  0  0  0  0
   20.8290  -10.2121  -18.8034 C   0  0  0  0  0  0  0  0  0  0  0  0
   19.6237   -9.9105  -18.9782 O   0  0  0  0  0  0  0  0  0  0  0  0
   21.4866   -9.8862  -17.5512 N   0  0  0  0  0  0  0  0  0  0  0  0
   20.7396   -9.1455  -16.5925 C   0  0  1  0  0  0  0  0  0  0  0  0
   21.0359   -9.5656  -15.2029 C   0  0  0  0  0  0  0  0  0  0  0  0
   20.2823   -8.9087  -14.1338 C   0  0  0  0  0  0  0  0  0  0  0  0
   19.2661   -8.0006  -14.1256 C   0  0  0  0  0  0  0  0  0  0  0  0
   18.9251   -7.7553  -12.8372 N   0  0  0  0  0  0  0  0  0  0  0  0
   19.7162   -8.4997  -12.0546 C   0  0  0  0  0  0  0  0  0  0  0  0
   20.5400   -9.2007  -12.8263 N   0  0  0  0  0  0  0  0  0  0  0  0
   20.9030   -7.6778  -16.8005 C   0  0  0  0  0  0  0  0  0  0  0  0
   22.0009   -7.1544  -17.1057 O   0  0  0  0  0  0  0  0  0  0  0  0
   19.7870   -6.8179  -16.6524 N   0  0  0  0  0  0  0  0  0  0  0  0
   19.9042   -5.4150  -16.9102 C   0  0  1  0  0  0  0  0  0  0  0  0
   18.6882   -4.8050  -17.5649 C   0  0  0  0  0  0  0  0  0  0  0  0
   18.8007   -3.3473  -17.8640 C   0  0  0  0  0  0  0  0  0  0  0  0
   17.5538   -2.9248  -18.5365 C   0  0  0  0  0  0  0  0  0  0  0  0
   16.6853   -3.7908  -18.7739 O   0  0  0  0  0  0  0  0  0  0  0  0
   20.2361   -4.6455  -15.6872 C   0  0  0  0  0  0  0  0  0  0  0  0
   19.8690   -5.0996  -14.5791 O   0  0  0  0  0  0  0  0  0  0  0  0
   17.3087   -1.6208  -18.9117 O   0  0  0  0  0  0  0  0  0  0  0  0
   20.9293   -3.4517  -15.7069 O   0  0  0  0  0  0  0  0  0  0  0  0
  2  1  1  0
  3  2  1  0
  3  4  1  0
  5  4  1  0
  5  6  1  6
  7  5  1  0
  7  8  2  0
  9  7  1  0
 10  9  1  0
 10 11  1  1
 12 11  1  0
 12 16  1  0
 13 12  2  0
 14 13  1  0
 14 15  1  0
 15 16  2  0
 17 10  1  0
 18 17  2  0
 19 17  1  0
 20 19  1  0
 20 25  1  0
 20 21  1  1
 22 21  1  0
 22 23  1  0
 23 24  2  0
 25 28  1  0
 26 25  2  0
 27 23  1  0
M  END
$$$$
