MHE.pdb
     RDKit          3D

 28 28  0  0  1  0  0  0  0  0999 V2000
   15.4813  -10.5619  -22.8260 C   0  0  0  0  0  0  0  0  0  0  0  0
   15.6726  -12.3357  -22.7373 S   0  0  0  0  0  0  0  0  0  0  0  0
   17.1098  -12.8990  -21.8458 C   0  0  0  0  0  0  0  0  0  0  0  0
   17.4354  -12.0661  -20.6256 C   0  0  0  0  0  0  0  0  0  0  0  0
   18.7294  -12.5611  -19.9783 C   0  0  2  0  0  0  0  0  0  0  0  0
   18.7156  -13.9886  -19.8080 N   0  0  0  0  0  0  0  0  0  0  0  0
   18.9563  -11.8273  -18.7198 C   0  0  0  0  0  0  0  0  0  0  0  0
   18.9627  -12.4918  -17.6556 O   0  0  0  0  0  0  0  0  0  0  0  0
   19.1676  -10.3917  -18.6827 N   0  0  0  0  0  0  0  0  0  0  0  0
   19.6141   -9.8270  -17.4549 C   0  0  1  0  0  0  0  0  0  0  0  0
   20.7851  -10.5448  -16.8992 C   0  0  0  0  0  0  0  0  0  0  0  0
   21.3818  -10.0005  -15.6785 C   0  0  0  0  0  0  0  0  0  0  0  0
   21.0557   -8.9614  -14.8593 C   0  0  0  0  0  0  0  0  0  0  0  0
   21.9505   -8.9245  -13.8423 N   0  0  0  0  0  0  0  0  0  0  0  0
   22.8204   -9.9257  -14.0246 C   0  0  0  0  0  0  0  0  0  0  0  0
   22.4872  -10.5827  -15.1304 N   0  0  0  0  0  0  0  0  0  0  0  0
   19.8457   -8.3600  -17.5904 C   0  0  0  0  0  0  0  0  0  0  0  0
   20.5404   -7.8653  -18.5096 O   0  0  0  0  0  0  0  0  0  0  0  0
   19.2684   -7.4674  -16.6539 N   0  0  0  0  0  0  0  0  0  0  0  0
   19.4562   -6.0540  -16.7776 C   0  0  1  0  0  0  0  0  0  0  0  0
   18.2859   -5.2321  -16.2936 C   0  0  0  0  0  0  0  0  0  0  0  0
   16.9948   -5.5071  -16.9896 C   0  0  0  0  0  0  0  0  0  0  0  0
   15.9152   -5.4517  -15.9812 C   0  0  0  0  0  0  0  0  0  0  0  0
   15.2073   -6.4673  -15.8139 O   0  0  0  0  0  0  0  0  0  0  0  0
   20.6902   -5.5905  -16.0991 C   0  0  0  0  0  0  0  0  0  0  0  0
   21.2799   -6.3820  -15.3279 O   0  0  0  0  0  0  0  0  0  0  0  0
   15.6568   -4.3316  -15.2196 O   0  0  0  0  0  0  0  0  0  0  0  0
   21.2234   -4.3288  -16.2731 O   0  0  0  0  0  0  0  0  0  0  0  0
  2  1  1  0
  3  2  1  0
  3  4  1  0
  5  4  1  0
  5  6  1  1
  7  5  1  0
  7  8  2  0
  9  7  1  0
 10  9  1  0
 10 11  1  6
 12 11  1  0
 12 16  1  0
 13 12  2  0
 14 13  1  0
 14 15  1  0
 15 16  2  0
 17 10  1  0
 18 17  2  0
 19 17  1  0
 20 19  1  0
 20 25  1  0
 20 21  1  1
 22 21  1  0
 22 23  1  0
 23 24  2  0
 25 28  1  0
 26 25  2  0
 27 23  1  0
M  END
$$$$
