MHE.pdb
     RDKit          3D

 28 28  0  0  1  0  0  0  0  0999 V2000
   27.1467  -19.0972   -5.9676 C   0  0  0  0  0  0  0  0  0  0  0  0
   27.4061  -20.8212   -6.3568 S   0  0  0  0  0  0  0  0  0  0  0  0
   27.7622  -21.1661   -8.0691 C   0  0  0  0  0  0  0  0  0  0  0  0
   26.6293  -20.8179   -9.0093 C   0  0  0  0  0  0  0  0  0  0  0  0
   26.9586  -21.2840  -10.4281 C   0  0  2  0  0  0  0  0  0  0  0  0
   28.3374  -21.0374  -10.7524 N   0  0  0  0  0  0  0  0  0  0  0  0
   26.0175  -20.6605  -11.3764 C   0  0  0  0  0  0  0  0  0  0  0  0
   25.9026  -19.4116  -11.3408 O   0  0  0  0  0  0  0  0  0  0  0  0
   25.2409  -21.4359  -12.3264 N   0  0  0  0  0  0  0  0  0  0  0  0
   24.4816  -20.7179  -13.2926 C   0  0  1  0  0  0  0  0  0  0  0  0
   24.9895  -20.9202  -14.6697 C   0  0  0  0  0  0  0  0  0  0  0  0
   26.3186  -20.3879  -14.9740 C   0  0  0  0  0  0  0  0  0  0  0  0
   27.2745  -19.7704  -14.2242 C   0  0  0  0  0  0  0  0  0  0  0  0
   28.3391  -19.5111  -15.0217 N   0  0  0  0  0  0  0  0  0  0  0  0
   28.0511  -19.9608  -16.2494 C   0  0  0  0  0  0  0  0  0  0  0  0
   26.8336  -20.4925  -16.2330 N   0  0  0  0  0  0  0  0  0  0  0  0
   23.0262  -21.0164  -13.1631 C   0  0  0  0  0  0  0  0  0  0  0  0
   22.5925  -22.0290  -12.5640 O   0  0  0  0  0  0  0  0  0  0  0  0
   22.0741  -20.1352  -13.7324 N   0  0  0  0  0  0  0  0  0  0  0  0
   20.6717  -20.3572  -13.5528 C   0  0  1  0  0  0  0  0  0  0  0  0
   19.9077  -19.1364  -13.0995 C   0  0  0  0  0  0  0  0  0  0  0  0
   19.3363  -18.3082  -14.2016 C   0  0  0  0  0  0  0  0  0  0  0  0
   17.8980  -18.1113  -13.9219 C   0  0  0  0  0  0  0  0  0  0  0  0
   17.4681  -16.9428  -13.8210 O   0  0  0  0  0  0  0  0  0  0  0  0
   20.0304  -20.9085  -14.7705 C   0  0  0  0  0  0  0  0  0  0  0  0
   18.9313  -21.4971  -14.6510 O   0  0  0  0  0  0  0  0  0  0  0  0
   17.0135  -19.1580  -13.7684 O   0  0  0  0  0  0  0  0  0  0  0  0
   20.5838  -20.8072  -16.0314 O   0  0  0  0  0  0  0  0  0  0  0  0
  2  1  1  0
  3  2  1  0
  3  4  1  0
  5  4  1  0
  5  6  1  6
  7  5  1  0
  7  8  2  0
  9  7  1  0
 10  9  1  0
 10 11  1  6
 12 11  1  0
 12 16  1  0
 13 12  2  0
 14 13  1  0
 14 15  1  0
 15 16  2  0
 17 10  1  0
 18 17  2  0
 19 17  1  0
 20 19  1  0
 20 25  1  0
 20 21  1  6
 22 21  1  0
 22 23  1  0
 23 24  2  0
 25 28  1  0
 26 25  2  0
 27 23  1  0
M  END
$$$$
