MHE.pdb
     RDKit          3D

 28 28  0  0  1  0  0  0  0  0999 V2000
   17.6371  -26.7458   -8.2887 C   0  0  0  0  0  0  0  0  0  0  0  0
   19.3238  -26.8980   -8.8569 S   0  0  0  0  0  0  0  0  0  0  0  0
   19.6375  -28.2812   -9.9368 C   0  0  0  0  0  0  0  0  0  0  0  0
   21.0630  -28.3516  -10.4386 C   0  0  0  0  0  0  0  0  0  0  0  0
   21.2172  -29.5056  -11.4301 C   0  0  2  0  0  0  0  0  0  0  0  0
   19.9840  -29.7699  -12.1204 N   0  0  0  0  0  0  0  0  0  0  0  0
   21.7537  -30.6846  -10.7257 C   0  0  0  0  0  0  0  0  0  0  0  0
   20.9286  -31.4654  -10.1930 O   0  0  0  0  0  0  0  0  0  0  0  0
   23.1764  -30.9575  -10.6360 N   0  0  0  0  0  0  0  0  0  0  0  0
   23.5764  -32.1211   -9.9207 C   0  0  1  0  0  0  0  0  0  0  0  0
   24.7236  -32.8070  -10.5600 C   0  0  0  0  0  0  0  0  0  0  0  0
   24.4182  -33.7624  -11.6260 C   0  0  0  0  0  0  0  0  0  0  0  0
   23.2554  -34.2648  -12.1288 C   0  0  0  0  0  0  0  0  0  0  0  0
   23.5604  -35.1069  -13.1458 N   0  0  0  0  0  0  0  0  0  0  0  0
   24.8928  -35.1285  -13.2751 C   0  0  0  0  0  0  0  0  0  0  0  0
   25.4219  -34.3203  -12.3627 N   0  0  0  0  0  0  0  0  0  0  0  0
   23.8159  -31.8121   -8.4816 C   0  0  0  0  0  0  0  0  0  0  0  0
   24.2450  -30.7012   -8.0890 O   0  0  0  0  0  0  0  0  0  0  0  0
   23.5562  -32.7980   -7.4979 N   0  0  0  0  0  0  0  0  0  0  0  0
   23.7049  -32.5005   -6.1059 C   0  0  1  0  0  0  0  0  0  0  0  0
   22.5455  -32.9535   -5.2515 C   0  0  0  0  0  0  0  0  0  0  0  0
   22.6676  -32.6238   -3.8013 C   0  0  0  0  0  0  0  0  0  0  0  0
   21.4775  -33.1653   -3.1113 C   0  0  0  0  0  0  0  0  0  0  0  0
   20.6425  -33.8062   -3.7842 O   0  0  0  0  0  0  0  0  0  0  0  0
   24.9645  -33.0471   -5.5467 C   0  0  0  0  0  0  0  0  0  0  0  0
   25.3206  -32.6756   -4.4048 O   0  0  0  0  0  0  0  0  0  0  0  0
   21.2501  -32.9946   -1.7621 O   0  0  0  0  0  0  0  0  0  0  0  0
   25.7670  -33.9454   -6.2214 O   0  0  0  0  0  0  0  0  0  0  0  0
  2  1  1  0
  3  2  1  0
  3  4  1  0
  5  4  1  0
  5  6  1  1
  7  5  1  0
  7  8  2  0
  9  7  1  0
 10  9  1  0
 10 11  1  6
 12 11  1  0
 12 16  1  0
 13 12  2  0
 14 13  1  0
 14 15  1  0
 15 16  2  0
 17 10  1  0
 18 17  2  0
 19 17  1  0
 20 19  1  0
 20 25  1  0
 20 21  1  1
 22 21  1  0
 22 23  1  0
 23 24  2  0
 25 28  1  0
 26 25  2  0
 27 23  1  0
M  END
$$$$
