MHE.pdb
     RDKit          3D

 28 28  0  0  1  0  0  0  0  0999 V2000
   22.1663  -29.2262   -9.2878 C   0  0  0  0  0  0  0  0  0  0  0  0
   23.1582  -30.6658   -9.6544 S   0  0  0  0  0  0  0  0  0  0  0  0
   22.8638  -32.0760   -8.6044 C   0  0  0  0  0  0  0  0  0  0  0  0
   23.7495  -33.2625   -8.9150 C   0  0  0  0  0  0  0  0  0  0  0  0
   25.1726  -33.0033   -8.4188 C   0  0  2  0  0  0  0  0  0  0  0  0
   26.0851  -32.8295   -9.5161 N   0  0  0  0  0  0  0  0  0  0  0  0
   25.5710  -34.0823   -7.4963 C   0  0  0  0  0  0  0  0  0  0  0  0
   24.8063  -34.3321   -6.5335 O   0  0  0  0  0  0  0  0  0  0  0  0
   26.7945  -34.8435   -7.6705 N   0  0  0  0  0  0  0  0  0  0  0  0
   27.0415  -35.9048   -6.7548 C   0  0  1  0  0  0  0  0  0  0  0  0
   27.9729  -36.9169   -7.3058 C   0  0  0  0  0  0  0  0  0  0  0  0
   27.3936  -37.9690   -8.1425 C   0  0  0  0  0  0  0  0  0  0  0  0
   26.1461  -38.5091   -8.2384 C   0  0  0  0  0  0  0  0  0  0  0  0
   26.1631  -39.4482   -9.2153 N   0  0  0  0  0  0  0  0  0  0  0  0
   27.4020  -39.4920   -9.7208 C   0  0  0  0  0  0  0  0  0  0  0  0
   28.1542  -38.6031   -9.0810 N   0  0  0  0  0  0  0  0  0  0  0  0
   27.4759  -35.3804   -5.4280 C   0  0  0  0  0  0  0  0  0  0  0  0
   28.1836  -34.3528   -5.3039 O   0  0  0  0  0  0  0  0  0  0  0  0
   27.0866  -36.0537   -4.2439 N   0  0  0  0  0  0  0  0  0  0  0  0
   27.4812  -35.5626   -2.9589 C   0  0  1  0  0  0  0  0  0  0  0  0
   26.3478  -35.4486   -1.9680 C   0  0  0  0  0  0  0  0  0  0  0  0
   26.7091  -34.8026   -0.6723 C   0  0  0  0  0  0  0  0  0  0  0  0
   25.4881  -34.7395    0.1589 C   0  0  0  0  0  0  0  0  0  0  0  0
   24.4217  -35.1803   -0.3195 O   0  0  0  0  0  0  0  0  0  0  0  0
   28.5716  -36.3695   -2.3605 C   0  0  0  0  0  0  0  0  0  0  0  0
   28.6797  -37.5704   -2.6995 O   0  0  0  0  0  0  0  0  0  0  0  0
   25.4756  -34.2172    1.4350 O   0  0  0  0  0  0  0  0  0  0  0  0
   29.4750  -35.8647   -1.4465 O   0  0  0  0  0  0  0  0  0  0  0  0
  2  1  1  0
  3  2  1  0
  3  4  1  0
  5  4  1  0
  5  6  1  6
  7  5  1  0
  7  8  2  0
  9  7  1  0
 10  9  1  0
 10 11  1  6
 12 11  1  0
 12 16  1  0
 13 12  2  0
 14 13  1  0
 14 15  1  0
 15 16  2  0
 17 10  1  0
 18 17  2  0
 19 17  1  0
 20 19  1  0
 20 25  1  0
 20 21  1  1
 22 21  1  0
 22 23  1  0
 23 24  2  0
 25 28  1  0
 26 25  2  0
 27 23  1  0
M  END
$$$$
