MHE.pdb
     RDKit          3D

 28 28  0  0  1  0  0  0  0  0999 V2000
   26.4592   -6.2010  -23.1935 C   0  0  0  0  0  0  0  0  0  0  0  0
   25.1475   -6.4386  -22.0045 S   0  0  0  0  0  0  0  0  0  0  0  0
   25.3752   -7.8105  -20.8892 C   0  0  0  0  0  0  0  0  0  0  0  0
   24.2474   -7.9819  -19.8956 C   0  0  0  0  0  0  0  0  0  0  0  0
   24.5254   -9.1766  -18.9823 C   0  0  2  0  0  0  0  0  0  0  0  0
   24.7578  -10.3736  -19.7440 N   0  0  0  0  0  0  0  0  0  0  0  0
   23.4268   -9.3111  -18.0082 C   0  0  0  0  0  0  0  0  0  0  0  0
   22.3796   -9.8853  -18.3927 O   0  0  0  0  0  0  0  0  0  0  0  0
   23.5247   -8.8090  -16.6499 N   0  0  0  0  0  0  0  0  0  0  0  0
   22.3738   -8.9321  -15.8216 C   0  0  1  0  0  0  0  0  0  0  0  0
   22.6434   -9.7253  -14.5995 C   0  0  0  0  0  0  0  0  0  0  0  0
   22.9042  -11.1546  -14.7776 C   0  0  0  0  0  0  0  0  0  0  0  0
   23.0370  -11.9530  -15.8739 C   0  0  0  0  0  0  0  0  0  0  0  0
   23.3041  -13.2131  -15.4527 N   0  0  0  0  0  0  0  0  0  0  0  0
   23.3378  -13.1998  -14.1144 C   0  0  0  0  0  0  0  0  0  0  0  0
   23.0978  -11.9620  -13.6951 N   0  0  0  0  0  0  0  0  0  0  0  0
   21.7790   -7.5971  -15.5252 C   0  0  0  0  0  0  0  0  0  0  0  0
   22.4641   -6.5488  -15.4609 O   0  0  0  0  0  0  0  0  0  0  0  0
   20.3846   -7.4821  -15.3027 N   0  0  0  0  0  0  0  0  0  0  0  0
   19.7564   -6.1977  -15.2409 C   0  0  1  0  0  0  0  0  0  0  0  0
   20.0737   -5.2995  -16.4123 C   0  0  0  0  0  0  0  0  0  0  0  0
   19.4590   -3.9413  -16.3467 C   0  0  0  0  0  0  0  0  0  0  0  0
   19.8543   -3.2053  -17.5664 C   0  0  0  0  0  0  0  0  0  0  0  0
   19.3507   -2.0802  -17.7695 O   0  0  0  0  0  0  0  0  0  0  0  0
   18.2850   -6.2994  -15.0901 C   0  0  0  0  0  0  0  0  0  0  0  0
   17.7097   -7.3212  -15.5302 O   0  0  0  0  0  0  0  0  0  0  0  0
   20.7517   -3.7050  -18.4863 O   0  0  0  0  0  0  0  0  0  0  0  0
   17.5149   -5.3237  -14.4891 O   0  0  0  0  0  0  0  0  0  0  0  0
  2  1  1  0
  3  2  1  0
  3  4  1  0
  5  4  1  0
  5  6  1  6
  7  5  1  0
  7  8  2  0
  9  7  1  0
 10  9  1  0
 10 11  1  1
 12 11  1  0
 12 16  1  0
 13 12  2  0
 14 13  1  0
 14 15  1  0
 15 16  2  0
 17 10  1  0
 18 17  2  0
 19 17  1  0
 20 19  1  0
 20 25  1  0
 20 21  1  6
 22 21  1  0
 22 23  1  0
 23 24  2  0
 25 28  1  0
 26 25  2  0
 27 23  1  0
M  END
$$$$
