SIH.pdb
     RDKit          3D

 25 25  0  0  1  0  0  0  0  0999 V2000
   25.2952  -25.3420  -18.0193 O   0  0  0  0  0  0  0  0  0  0  0  0
   26.6165  -24.9437  -18.1984 C   0  0  0  0  0  0  0  0  0  0  0  0
   27.3450  -24.8134  -16.8668 C   0  0  2  0  0  0  0  0  0  0  0  0
   27.4170  -26.0999  -16.2217 N   0  0  0  0  0  0  0  0  0  0  0  0
   26.5797  -23.8866  -16.0066 C   0  0  0  0  0  0  0  0  0  0  0  0
   26.1680  -24.2589  -14.8571 O   0  0  0  0  0  0  0  0  0  0  0  0
   28.1329  -18.7888  -15.7361 C   0  0  0  0  0  0  0  0  0  0  0  0
   27.6897  -20.2127  -15.4697 C   0  0  0  0  0  0  0  0  0  0  0  0
   26.1876  -20.2447  -15.5751 C   0  0  2  0  0  0  0  0  0  0  0  0
   25.5815  -19.3947  -14.5075 C   0  0  0  0  0  0  0  0  0  0  0  0
   25.6338  -21.6456  -15.4755 C   0  0  2  0  0  0  0  0  0  0  0  0
   26.2554  -22.5575  -16.3803 N   0  0  0  0  0  0  0  0  0  0  0  0
   24.1784  -21.6885  -15.6346 C   0  0  0  0  0  0  0  0  0  0  0  0
   23.6570  -21.4073  -16.7305 O   0  0  0  0  0  0  0  0  0  0  0  0
   23.3548  -22.0492  -14.5466 N   0  0  0  0  0  0  0  0  0  0  0  0
   21.9041  -22.0977  -14.6646 C   0  0  1  0  0  0  0  0  0  0  0  0
   21.3123  -23.1066  -13.7276 C   0  0  0  0  0  0  0  0  0  0  0  0
   21.5120  -24.4655  -14.2750 C   0  0  0  0  0  0  0  0  0  0  0  0
   22.0415  -24.7836  -15.5359 C   0  0  0  0  0  0  0  0  0  0  0  0
   22.0740  -26.1151  -15.6895 N   0  0  0  0  0  0  0  0  0  0  0  0
   21.5856  -26.6701  -14.5756 C   0  0  0  0  0  0  0  0  0  0  0  0
   21.2525  -25.6758  -13.7363 N   0  0  0  0  0  0  0  0  0  0  0  0
   21.3597  -20.7650  -14.3823 C   0  0  0  0  0  0  0  0  0  0  0  0
   21.9952  -20.0046  -13.5737 O   0  0  0  0  0  0  0  0  0  0  0  0
   20.2073  -20.2414  -14.9158 O   0  0  0  0  0  0  0  0  0  0  0  0
  1  2  1  0
  3  4  1  1
  3  2  1  0
  5  3  1  0
  6  5  2  0
  7  8  1  0
  8  9  1  0
  9 10  1  1
 11  9  1  0
 11 12  1  6
 12  5  1  0
 13 15  1  0
 13 11  1  0
 14 13  2  0
 16 15  1  0
 16 17  1  1
 18 17  1  0
 18 19  2  0
 20 19  1  0
 21 20  1  0
 22 21  2  0
 22 18  1  0
 23 16  1  0
 24 23  2  0
 25 23  1  0
M  END
$$$$
