SIH.pdb
     RDKit          3D

 25 25  0  0  1  0  0  0  0  0999 V2000
   24.5755  -24.0835  -13.6139 O   0  0  0  0  0  0  0  0  0  0  0  0
   24.1535  -22.7581  -13.6570 C   0  0  0  0  0  0  0  0  0  0  0  0
   25.2983  -21.7984  -13.3584 C   0  0  2  0  0  0  0  0  0  0  0  0
   25.6882  -21.9184  -11.9764 N   0  0  0  0  0  0  0  0  0  0  0  0
   24.8265  -20.4199  -13.6067 C   0  0  0  0  0  0  0  0  0  0  0  0
   24.2874  -19.7403  -12.6703 O   0  0  0  0  0  0  0  0  0  0  0  0
   27.9480  -16.9130  -15.6496 C   0  0  0  0  0  0  0  0  0  0  0  0
   26.8468  -17.5266  -14.8094 C   0  0  0  0  0  0  0  0  0  0  0  0
   25.5964  -17.5457  -15.6489 C   0  0  2  0  0  0  0  0  0  0  0  0
   25.0742  -16.1575  -15.8209 C   0  0  0  0  0  0  0  0  0  0  0  0
   24.5172  -18.4174  -15.0536 C   0  0  2  0  0  0  0  0  0  0  0  0
   24.9332  -19.7690  -14.8622 N   0  0  0  0  0  0  0  0  0  0  0  0
   23.2714  -18.3759  -15.8227 C   0  0  0  0  0  0  0  0  0  0  0  0
   23.1905  -18.9588  -16.9207 O   0  0  0  0  0  0  0  0  0  0  0  0
   22.1522  -17.6744  -15.3253 N   0  0  0  0  0  0  0  0  0  0  0  0
   20.8627  -17.7075  -16.0015 C   0  0  1  0  0  0  0  0  0  0  0  0
   19.7510  -17.3075  -15.0793 C   0  0  0  0  0  0  0  0  0  0  0  0
   19.4259  -18.4349  -14.1796 C   0  0  0  0  0  0  0  0  0  0  0  0
   20.0354  -19.6999  -14.1794 C   0  0  0  0  0  0  0  0  0  0  0  0
   19.4853  -20.4663  -13.2268 N   0  0  0  0  0  0  0  0  0  0  0  0
   18.5431  -19.7448  -12.6110 C   0  0  0  0  0  0  0  0  0  0  0  0
   18.5154  -18.5322  -13.1878 N   0  0  0  0  0  0  0  0  0  0  0  0
   20.9094  -16.8062  -17.1579 C   0  0  0  0  0  0  0  0  0  0  0  0
   21.5289  -15.6934  -17.0401 O   0  0  0  0  0  0  0  0  0  0  0  0
   20.3405  -17.0476  -18.3847 O   0  0  0  0  0  0  0  0  0  0  0  0
  1  2  1  0
  3  4  1  1
  3  2  1  0
  5  3  1  0
  6  5  2  0
  7  8  1  0
  8  9  1  0
  9 10  1  1
 11  9  1  0
 11 12  1  6
 12  5  1  0
 13 15  1  0
 13 11  1  0
 14 13  2  0
 16 15  1  0
 16 17  1  1
 18 17  1  0
 18 19  2  0
 20 19  1  0
 21 20  1  0
 22 21  2  0
 22 18  1  0
 23 16  1  0
 24 23  2  0
 25 23  1  0
M  END
$$$$
