SIH.pdb
     RDKit          3D

 25 25  0  0  1  0  0  0  0  0999 V2000
   25.0270   -9.3526  -23.0784 O   0  0  0  0  0  0  0  0  0  0  0  0
   24.4449   -9.5009  -21.8231 C   0  0  0  0  0  0  0  0  0  0  0  0
   24.9899  -10.7241  -21.0967 C   0  0  2  0  0  0  0  0  0  0  0  0
   24.4865  -11.9240  -21.7155 N   0  0  0  0  0  0  0  0  0  0  0  0
   24.5271  -10.6764  -19.6938 C   0  0  0  0  0  0  0  0  0  0  0  0
   23.4235  -11.2214  -19.3559 O   0  0  0  0  0  0  0  0  0  0  0  0
   27.9000  -11.4327  -15.6261 C   0  0  0  0  0  0  0  0  0  0  0  0
   26.6881  -11.4788  -16.5339 C   0  0  0  0  0  0  0  0  0  0  0  0
   25.8972  -10.2195  -16.2949 C   0  0  2  0  0  0  0  0  0  0  0  0
   25.3213  -10.2307  -14.9173 C   0  0  0  0  0  0  0  0  0  0  0  0
   24.7867  -10.0380  -17.3012 C   0  0  2  0  0  0  0  0  0  0  0  0
   25.2500  -10.0426  -18.6511 N   0  0  0  0  0  0  0  0  0  0  0  0
   23.9855   -8.8388  -17.0457 C   0  0  0  0  0  0  0  0  0  0  0  0
   24.5128   -7.7107  -17.0816 O   0  0  0  0  0  0  0  0  0  0  0  0
   22.6087   -8.9522  -16.7567 N   0  0  0  0  0  0  0  0  0  0  0  0
   21.7653   -7.7806  -16.5644 C   0  0  1  0  0  0  0  0  0  0  0  0
   20.4012   -7.9862  -17.1502 C   0  0  0  0  0  0  0  0  0  0  0  0
   19.5905   -6.7653  -16.9544 C   0  0  0  0  0  0  0  0  0  0  0  0
   20.0779   -5.4527  -16.8490 C   0  0  0  0  0  0  0  0  0  0  0  0
   19.0549   -4.6034  -16.6774 N   0  0  0  0  0  0  0  0  0  0  0  0
   17.9244   -5.3170  -16.6678 C   0  0  0  0  0  0  0  0  0  0  0  0
   18.2553   -6.6081  -16.8341 N   0  0  0  0  0  0  0  0  0  0  0  0
   21.6619   -7.5002  -15.1282 C   0  0  0  0  0  0  0  0  0  0  0  0
   21.5107   -6.2871  -14.7522 O   0  0  0  0  0  0  0  0  0  0  0  0
   21.7113   -8.4363  -14.1242 O   0  0  0  0  0  0  0  0  0  0  0  0
  1  2  1  0
  3  4  1  6
  3  2  1  0
  5  3  1  0
  6  5  2  0
  7  8  1  0
  8  9  1  0
  9 10  1  1
 11  9  1  0
 11 12  1  6
 12  5  1  0
 13 15  1  0
 13 11  1  0
 14 13  2  0
 16 15  1  0
 16 17  1  1
 18 17  1  0
 18 19  2  0
 20 19  1  0
 21 20  1  0
 22 21  2  0
 22 18  1  0
 23 16  1  0
 24 23  2  0
 25 23  1  0
M  END
$$$$
