SIH.pdb
     RDKit          3D

 25 25  0  0  1  0  0  0  0  0999 V2000
   27.3572  -25.8758  -18.1080 O   0  0  0  0  0  0  0  0  0  0  0  0
   27.4199  -24.9168  -17.1015 C   0  0  0  0  0  0  0  0  0  0  0  0
   28.5200  -23.8978  -17.3700 C   0  0  2  0  0  0  0  0  0  0  0  0
   29.8076  -24.4884  -17.1064 N   0  0  0  0  0  0  0  0  0  0  0  0
   28.3226  -22.7496  -16.4603 C   0  0  0  0  0  0  0  0  0  0  0  0
   28.8608  -22.7390  -15.3029 O   0  0  0  0  0  0  0  0  0  0  0  0
   28.9166  -18.3749  -18.4323 C   0  0  0  0  0  0  0  0  0  0  0  0
   29.0012  -18.9938  -17.0522 C   0  0  0  0  0  0  0  0  0  0  0  0
   27.5922  -19.1730  -16.5511 C   0  0  2  0  0  0  0  0  0  0  0  0
   27.2510  -18.0875  -15.5842 C   0  0  0  0  0  0  0  0  0  0  0  0
   27.3822  -20.5152  -15.8929 C   0  0  2  0  0  0  0  0  0  0  0  0
   27.5461  -21.6105  -16.7930 N   0  0  0  0  0  0  0  0  0  0  0  0
   26.0903  -20.6115  -15.2095 C   0  0  0  0  0  0  0  0  0  0  0  0
   25.0384  -20.7289  -15.8666 O   0  0  0  0  0  0  0  0  0  0  0  0
   26.0271  -20.5718  -13.8000 N   0  0  0  0  0  0  0  0  0  0  0  0
   24.7645  -20.6919  -13.0842 C   0  0  1  0  0  0  0  0  0  0  0  0
   24.9517  -20.5033  -11.6092 C   0  0  0  0  0  0  0  0  0  0  0  0
   23.6510  -20.6564  -10.9229 C   0  0  0  0  0  0  0  0  0  0  0  0
   22.4260  -20.9813  -11.5273 C   0  0  0  0  0  0  0  0  0  0  0  0
   21.4627  -21.0336  -10.5964 N   0  0  0  0  0  0  0  0  0  0  0  0
   22.0183  -20.7548   -9.4128 C   0  0  0  0  0  0  0  0  0  0  0  0
   23.3266  -20.5309   -9.6186 N   0  0  0  0  0  0  0  0  0  0  0  0
   23.8255  -19.6932  -13.6066 C   0  0  0  0  0  0  0  0  0  0  0  0
   22.6269  -20.0578  -13.8640 O   0  0  0  0  0  0  0  0  0  0  0  0
   24.1148  -18.3727  -13.8504 O   0  0  0  0  0  0  0  0  0  0  0  0
  1  2  1  0
  3  4  1  1
  3  2  1  0
  5  3  1  0
  6  5  2  0
  7  8  1  0
  8  9  1  0
  9 10  1  1
 11  9  1  0
 11 12  1  6
 12  5  1  0
 13 15  1  0
 13 11  1  0
 14 13  2  0
 16 15  1  0
 16 17  1  1
 18 17  1  0
 18 19  2  0
 20 19  1  0
 21 20  1  0
 22 21  2  0
 22 18  1  0
 23 16  1  0
 24 23  2  0
 25 23  1  0
M  END
$$$$
