SIH.pdb
     RDKit          3D

 25 25  0  0  1  0  0  0  0  0999 V2000
   14.7300  -10.1841  -14.6227 O   0  0  0  0  0  0  0  0  0  0  0  0
   16.0746  -10.1820  -14.2640 C   0  0  0  0  0  0  0  0  0  0  0  0
   16.9544  -10.6980  -15.3957 C   0  0  2  0  0  0  0  0  0  0  0  0
   16.9993  -12.1378  -15.3617 N   0  0  0  0  0  0  0  0  0  0  0  0
   18.3209  -10.1697  -15.2004 C   0  0  0  0  0  0  0  0  0  0  0  0
   19.1068  -10.7031  -14.3476 O   0  0  0  0  0  0  0  0  0  0  0  0
   22.0612  -10.6187  -16.7461 C   0  0  0  0  0  0  0  0  0  0  0  0
   21.1535   -9.7477  -17.5901 C   0  0  0  0  0  0  0  0  0  0  0  0
   21.0075   -8.4274  -16.8800 C   0  0  2  0  0  0  0  0  0  0  0  0
   22.3513   -7.9012  -16.4968 C   0  0  0  0  0  0  0  0  0  0  0  0
   20.1391   -8.5291  -15.6494 C   0  0  2  0  0  0  0  0  0  0  0  0
   18.8456   -9.0669  -15.9215 N   0  0  0  0  0  0  0  0  0  0  0  0
   20.0173   -7.2540  -14.9390 C   0  0  0  0  0  0  0  0  0  0  0  0
   19.5753   -6.2474  -15.5249 O   0  0  0  0  0  0  0  0  0  0  0  0
   20.4002   -7.1560  -13.5840 N   0  0  0  0  0  0  0  0  0  0  0  0
   20.2951   -5.9055  -12.8449 C   0  0  1  0  0  0  0  0  0  0  0  0
   20.1850   -6.1492  -11.3702 C   0  0  0  0  0  0  0  0  0  0  0  0
   18.8533   -6.7122  -11.0608 C   0  0  0  0  0  0  0  0  0  0  0  0
   17.8535   -7.0399  -11.9908 C   0  0  0  0  0  0  0  0  0  0  0  0
   16.7812   -7.5254  -11.3490 N   0  0  0  0  0  0  0  0  0  0  0  0
   17.0496   -7.5241  -10.0393 C   0  0  0  0  0  0  0  0  0  0  0  0
   18.2905   -7.0362   -9.8775 N   0  0  0  0  0  0  0  0  0  0  0  0
   21.4739   -5.0819  -13.1347 C   0  0  0  0  0  0  0  0  0  0  0  0
   22.5308   -5.6589  -13.5662 O   0  0  0  0  0  0  0  0  0  0  0  0
   21.5545   -3.7188  -12.9858 O   0  0  0  0  0  0  0  0  0  0  0  0
  1  2  1  0
  3  4  1  1
  3  2  1  0
  5  3  1  0
  6  5  2  0
  7  8  1  0
  8  9  1  0
  9 10  1  1
 11  9  1  0
 11 12  1  6
 12  5  1  0
 13 15  1  0
 13 11  1  0
 14 13  2  0
 16 15  1  0
 16 17  1  1
 18 17  1  0
 18 19  2  0
 20 19  1  0
 21 20  1  0
 22 21  2  0
 22 18  1  0
 23 16  1  0
 24 23  2  0
 25 23  1  0
M  END
$$$$
