SIH.pdb
     RDKit          3D

 25 25  0  0  1  0  0  0  0  0999 V2000
   24.3282  -39.0487   -2.4171 O   0  0  0  0  0  0  0  0  0  0  0  0
   23.6906  -37.8500   -2.7224 C   0  0  0  0  0  0  0  0  0  0  0  0
   24.5581  -36.6500   -2.3642 C   0  0  2  0  0  0  0  0  0  0  0  0
   24.2905  -36.2413   -1.0086 N   0  0  0  0  0  0  0  0  0  0  0  0
   24.2157  -35.5394   -3.2775 C   0  0  0  0  0  0  0  0  0  0  0  0
   23.0935  -34.9394   -3.1770 O   0  0  0  0  0  0  0  0  0  0  0  0
   27.7163  -33.5903   -4.0063 C   0  0  0  0  0  0  0  0  0  0  0  0
   26.6939  -32.5713   -4.4657 C   0  0  0  0  0  0  0  0  0  0  0  0
   25.9295  -33.1835   -5.6100 C   0  0  2  0  0  0  0  0  0  0  0  0
   25.4836  -32.1177   -6.5559 C   0  0  0  0  0  0  0  0  0  0  0  0
   24.7308  -33.9738   -5.1436 C   0  0  2  0  0  0  0  0  0  0  0  0
   25.0790  -35.0714   -4.3007 N   0  0  0  0  0  0  0  0  0  0  0  0
   23.8933  -34.4343   -6.2534 C   0  0  0  0  0  0  0  0  0  0  0  0
   24.1740  -35.4863   -6.8587 O   0  0  0  0  0  0  0  0  0  0  0  0
   22.7607  -33.6891   -6.6459 N   0  0  0  0  0  0  0  0  0  0  0  0
   21.8905  -34.1272   -7.7284 C   0  0  1  0  0  0  0  0  0  0  0  0
   20.8423  -35.0789   -7.2368 C   0  0  0  0  0  0  0  0  0  0  0  0
   20.0708  -35.6001   -8.3854 C   0  0  0  0  0  0  0  0  0  0  0  0
   20.4573  -35.5555   -9.7346 C   0  0  0  0  0  0  0  0  0  0  0  0
   19.5099  -36.1225  -10.4949 N   0  0  0  0  0  0  0  0  0  0  0  0
   18.5253  -36.5322   -9.6886 C   0  0  0  0  0  0  0  0  0  0  0  0
   18.8702  -36.2154   -8.4298 N   0  0  0  0  0  0  0  0  0  0  0  0
   21.2600  -32.9507   -8.3369 C   0  0  0  0  0  0  0  0  0  0  0  0
   21.5479  -31.7945   -7.8717 O   0  0  0  0  0  0  0  0  0  0  0  0
   20.3706  -32.9703   -9.3835 O   0  0  0  0  0  0  0  0  0  0  0  0
  1  2  1  0
  3  4  1  1
  3  2  1  0
  5  3  1  0
  6  5  2  0
  7  8  1  0
  8  9  1  0
  9 10  1  6
 11  9  1  0
 11 12  1  6
 12  5  1  0
 13 15  1  0
 13 11  1  0
 14 13  2  0
 16 15  1  0
 16 17  1  1
 18 17  1  0
 18 19  2  0
 20 19  1  0
 21 20  1  0
 22 21  2  0
 22 18  1  0
 23 16  1  0
 24 23  2  0
 25 23  1  0
M  END
$$$$
