SIH.pdb
     RDKit          3D

 25 25  0  0  1  0  0  0  0  0999 V2000
   24.0277  -17.3833  -15.2993 O   0  0  0  0  0  0  0  0  0  0  0  0
   25.1908  -17.2448  -16.0508 C   0  0  0  0  0  0  0  0  0  0  0  0
   26.4262  -17.6139  -15.2393 C   0  0  2  0  0  0  0  0  0  0  0  0
   27.6023  -17.5088  -16.0653 N   0  0  0  0  0  0  0  0  0  0  0  0
   26.2825  -19.0125  -14.7834 C   0  0  0  0  0  0  0  0  0  0  0  0
   26.6138  -19.9807  -15.5463 O   0  0  0  0  0  0  0  0  0  0  0  0
   27.5506  -20.7182   -9.7941 C   0  0  0  0  0  0  0  0  0  0  0  0
   27.4136  -20.6814  -11.3023 C   0  0  0  0  0  0  0  0  0  0  0  0
   25.9661  -20.9379  -11.6301 C   0  0  2  0  0  0  0  0  0  0  0  0
   25.5902  -22.3277  -11.2342 C   0  0  0  0  0  0  0  0  0  0  0  0
   25.6633  -20.7345  -13.0950 C   0  0  2  0  0  0  0  0  0  0  0  0
   25.7823  -19.3731  -13.5062 N   0  0  0  0  0  0  0  0  0  0  0  0
   24.3535  -21.2659  -13.4786 C   0  0  0  0  0  0  0  0  0  0  0  0
   24.0997  -22.4771  -13.3357 O   0  0  0  0  0  0  0  0  0  0  0  0
   23.3678  -20.4089  -14.0135 N   0  0  0  0  0  0  0  0  0  0  0  0
   21.9462  -20.6958  -13.8799 C   0  0  1  0  0  0  0  0  0  0  0  0
   21.3565  -19.9979  -12.6919 C   0  0  0  0  0  0  0  0  0  0  0  0
   19.9040  -20.2676  -12.6315 C   0  0  0  0  0  0  0  0  0  0  0  0
   19.1888  -21.1537  -13.4531 C   0  0  0  0  0  0  0  0  0  0  0  0
   17.8925  -21.1400  -13.1115 N   0  0  0  0  0  0  0  0  0  0  0  0
   17.7422  -20.2787  -12.1001 C   0  0  0  0  0  0  0  0  0  0  0  0
   18.9503  -19.7626  -11.8206 N   0  0  0  0  0  0  0  0  0  0  0  0
   21.2594  -20.2750  -15.1060 C   0  0  0  0  0  0  0  0  0  0  0  0
   21.7202  -19.2706  -15.7500 O   0  0  0  0  0  0  0  0  0  0  0  0
   20.1439  -20.8700  -15.6432 O   0  0  0  0  0  0  0  0  0  0  0  0
  1  2  1  0
  3  4  1  6
  3  2  1  0
  5  3  1  0
  6  5  2  0
  7  8  1  0
  8  9  1  0
  9 10  1  6
 11  9  1  0
 11 12  1  1
 12  5  1  0
 13 15  1  0
 13 11  1  0
 14 13  2  0
 16 15  1  0
 16 17  1  1
 18 17  1  0
 18 19  2  0
 20 19  1  0
 21 20  1  0
 22 21  2  0
 22 18  1  0
 23 16  1  0
 24 23  2  0
 25 23  1  0
M  END
$$$$
