SIH.pdb
     RDKit          3D

 25 25  0  0  1  0  0  0  0  0999 V2000
   26.2944  -18.5113  -16.1214 O   0  0  0  0  0  0  0  0  0  0  0  0
   27.0982  -19.5377  -16.6084 C   0  0  0  0  0  0  0  0  0  0  0  0
   27.7071  -20.3543  -15.4756 C   0  0  2  0  0  0  0  0  0  0  0  0
   28.5149  -21.4166  -16.0189 N   0  0  0  0  0  0  0  0  0  0  0  0
   26.6071  -20.9439  -14.6837 C   0  0  0  0  0  0  0  0  0  0  0  0
   25.9451  -21.9385  -15.1331 O   0  0  0  0  0  0  0  0  0  0  0  0
   25.9193  -20.2779   -9.0494 C   0  0  0  0  0  0  0  0  0  0  0  0
   25.5550  -19.9360  -10.4795 C   0  0  0  0  0  0  0  0  0  0  0  0
   25.4009  -21.2337  -11.2284 C   0  0  2  0  0  0  0  0  0  0  0  0
   26.6365  -22.0591  -11.0813 C   0  0  0  0  0  0  0  0  0  0  0  0
   25.1116  -21.0208  -12.6946 C   0  0  2  0  0  0  0  0  0  0  0  0
   26.2164  -20.4655  -13.4071 N   0  0  0  0  0  0  0  0  0  0  0  0
   23.9086  -20.2164  -12.9203 C   0  0  0  0  0  0  0  0  0  0  0  0
   23.9553  -18.9751  -12.8262 O   0  0  0  0  0  0  0  0  0  0  0  0
   22.6861  -20.8420  -13.2465 N   0  0  0  0  0  0  0  0  0  0  0  0
   21.4660  -20.0770  -13.4635 C   0  0  1  0  0  0  0  0  0  0  0  0
   21.3568  -19.6124  -14.8842 C   0  0  0  0  0  0  0  0  0  0  0  0
   20.1744  -18.7364  -15.0277 C   0  0  0  0  0  0  0  0  0  0  0  0
   20.0143  -17.4586  -14.4679 C   0  0  0  0  0  0  0  0  0  0  0  0
   18.8164  -16.9627  -14.8091 N   0  0  0  0  0  0  0  0  0  0  0  0
   18.1957  -17.8714  -15.5683 C   0  0  0  0  0  0  0  0  0  0  0  0
   19.0156  -18.9278  -15.6931 N   0  0  0  0  0  0  0  0  0  0  0  0
   20.3125  -20.9138  -13.1150 C   0  0  0  0  0  0  0  0  0  0  0  0
   19.3608  -20.3909  -12.4391 O   0  0  0  0  0  0  0  0  0  0  0  0
   20.1506  -22.2351  -13.4535 O   0  0  0  0  0  0  0  0  0  0  0  0
  1  2  1  0
  3  4  1  6
  3  2  1  0
  5  3  1  0
  6  5  2  0
  7  8  1  0
  8  9  1  0
  9 10  1  6
 11  9  1  0
 11 12  1  1
 12  5  1  0
 13 15  1  0
 13 11  1  0
 14 13  2  0
 16 15  1  0
 16 17  1  6
 18 17  1  0
 18 19  2  0
 20 19  1  0
 21 20  1  0
 22 21  2  0
 22 18  1  0
 23 16  1  0
 24 23  2  0
 25 23  1  0
M  END
$$$$
