SIH.pdb
     RDKit          3D

 25 25  0  0  1  0  0  0  0  0999 V2000
   21.0584  -11.3858  -21.5796 O   0  0  0  0  0  0  0  0  0  0  0  0
   21.2289  -10.9484  -20.2695 C   0  0  0  0  0  0  0  0  0  0  0  0
   22.2553  -11.7955  -19.5279 C   0  0  2  0  0  0  0  0  0  0  0  0
   21.7216  -13.1128  -19.2910 N   0  0  0  0  0  0  0  0  0  0  0  0
   22.5388  -11.1509  -18.2284 C   0  0  0  0  0  0  0  0  0  0  0  0
   21.7447  -11.3048  -17.2410 O   0  0  0  0  0  0  0  0  0  0  0  0
   27.0470  -11.7341  -15.7216 C   0  0  0  0  0  0  0  0  0  0  0  0
   25.6224  -11.5539  -16.2044 C   0  0  0  0  0  0  0  0  0  0  0  0
   25.3267  -10.0770  -16.1959 C   0  0  2  0  0  0  0  0  0  0  0  0
   25.4785   -9.5327  -14.8138 C   0  0  0  0  0  0  0  0  0  0  0  0
   23.9416   -9.7648  -16.7085 C   0  0  2  0  0  0  0  0  0  0  0  0
   23.6768  -10.3394  -17.9877 N   0  0  0  0  0  0  0  0  0  0  0  0
   23.6602   -8.3276  -16.7318 C   0  0  0  0  0  0  0  0  0  0  0  0
   24.3516   -7.5627  -17.4310 O   0  0  0  0  0  0  0  0  0  0  0  0
   22.6027   -7.7979  -15.9616 N   0  0  0  0  0  0  0  0  0  0  0  0
   22.2359   -6.3899  -16.0264 C   0  0  1  0  0  0  0  0  0  0  0  0
   20.7524   -6.2161  -16.1498 C   0  0  0  0  0  0  0  0  0  0  0  0
   20.3268   -6.5656  -17.5220 C   0  0  0  0  0  0  0  0  0  0  0  0
   21.1629   -6.9817  -18.5705 C   0  0  0  0  0  0  0  0  0  0  0  0
   20.4297   -7.2112  -19.6691 N   0  0  0  0  0  0  0  0  0  0  0  0
   19.1511   -6.9592  -19.3709 C   0  0  0  0  0  0  0  0  0  0  0  0
   19.1000   -6.5740  -18.0852 N   0  0  0  0  0  0  0  0  0  0  0  0
   22.7254   -5.7155  -14.8191 C   0  0  0  0  0  0  0  0  0  0  0  0
   23.0637   -6.4312  -13.8145 O   0  0  0  0  0  0  0  0  0  0  0  0
   22.8605   -4.3579  -14.6595 O   0  0  0  0  0  0  0  0  0  0  0  0
  1  2  1  0
  3  4  1  1
  3  2  1  0
  5  3  1  0
  6  5  2  0
  7  8  1  0
  8  9  1  0
  9 10  1  1
 11  9  1  0
 11 12  1  6
 12  5  1  0
 13 15  1  0
 13 11  1  0
 14 13  2  0
 16 15  1  0
 16 17  1  1
 18 17  1  0
 18 19  2  0
 20 19  1  0
 21 20  1  0
 22 21  2  0
 22 18  1  0
 23 16  1  0
 24 23  2  0
 25 23  1  0
M  END
$$$$
