SIH.pdb
     RDKit          3D

 25 25  0  0  1  0  0  0  0  0999 V2000
   17.0260  -10.3557  -18.2447 O   0  0  0  0  0  0  0  0  0  0  0  0
   17.7067  -10.2980  -17.0322 C   0  0  0  0  0  0  0  0  0  0  0  0
   18.9428  -11.1884  -17.0437 C   0  0  2  0  0  0  0  0  0  0  0  0
   18.5952  -12.5123  -16.5937 N   0  0  0  0  0  0  0  0  0  0  0  0
   19.9398  -10.6121  -16.1172 C   0  0  0  0  0  0  0  0  0  0  0  0
   19.7781  -10.6996  -14.8540 O   0  0  0  0  0  0  0  0  0  0  0  0
   25.6620   -9.9771  -14.7677 C   0  0  0  0  0  0  0  0  0  0  0  0
   24.3149   -9.2957  -14.6410 C   0  0  0  0  0  0  0  0  0  0  0  0
   23.3880   -9.9399  -15.6382 C   0  0  2  0  0  0  0  0  0  0  0  0
   23.9655   -9.8412  -17.0116 C   0  0  0  0  0  0  0  0  0  0  0  0
   22.0113   -9.3206  -15.6273 C   0  0  2  0  0  0  0  0  0  0  0  0
   21.1128   -9.9404  -16.5466 N   0  0  0  0  0  0  0  0  0  0  0  0
   22.0430   -7.8732  -15.8494 C   0  0  0  0  0  0  0  0  0  0  0  0
   22.3664   -7.4145  -16.9616 O   0  0  0  0  0  0  0  0  0  0  0  0
   21.7071   -6.9863  -14.8041 N   0  0  0  0  0  0  0  0  0  0  0  0
   21.6805   -5.5434  -15.0000 C   0  0  1  0  0  0  0  0  0  0  0  0
   20.4355   -4.9363  -14.4277 C   0  0  0  0  0  0  0  0  0  0  0  0
   19.3001   -5.1840  -15.3419 C   0  0  0  0  0  0  0  0  0  0  0  0
   19.3548   -5.8642  -16.5691 C   0  0  0  0  0  0  0  0  0  0  0  0
   18.1341   -5.8966  -17.1224 N   0  0  0  0  0  0  0  0  0  0  0  0
   17.2921   -5.2631  -16.2997 C   0  0  0  0  0  0  0  0  0  0  0  0
   17.9987   -4.8409  -15.2383 N   0  0  0  0  0  0  0  0  0  0  0  0
   22.8665   -4.9561  -14.3671 C   0  0  0  0  0  0  0  0  0  0  0  0
   23.0732   -3.7013  -14.5034 O   0  0  0  0  0  0  0  0  0  0  0  0
   23.7979   -5.6388  -13.6233 O   0  0  0  0  0  0  0  0  0  0  0  0
  1  2  1  0
  3  4  1  1
  3  2  1  0
  5  3  1  0
  6  5  2  0
  7  8  1  0
  8  9  1  0
  9 10  1  6
 11  9  1  0
 11 12  1  6
 12  5  1  0
 13 15  1  0
 13 11  1  0
 14 13  2  0
 16 15  1  0
 16 17  1  1
 18 17  1  0
 18 19  2  0
 20 19  1  0
 21 20  1  0
 22 21  2  0
 22 18  1  0
 23 16  1  0
 24 23  2  0
 25 23  1  0
M  END
$$$$
