SIH.pdb
     RDKit          3D

 25 25  0  0  1  0  0  0  0  0999 V2000
   19.0508  -14.3446  -19.6808 O   0  0  0  0  0  0  0  0  0  0  0  0
   19.4350  -13.6934  -18.5125 C   0  0  0  0  0  0  0  0  0  0  0  0
   20.8344  -14.1090  -18.0768 C   0  0  2  0  0  0  0  0  0  0  0  0
   20.8011  -15.4442  -17.5362 N   0  0  0  0  0  0  0  0  0  0  0  0
   21.2905  -13.1759  -17.0252 C   0  0  0  0  0  0  0  0  0  0  0  0
   20.8935  -13.3128  -15.8198 O   0  0  0  0  0  0  0  0  0  0  0  0
   26.0387  -10.3855  -14.8157 C   0  0  0  0  0  0  0  0  0  0  0  0
   24.5259  -10.3403  -14.8814 C   0  0  0  0  0  0  0  0  0  0  0  0
   24.0983  -11.2097  -16.0346 C   0  0  2  0  0  0  0  0  0  0  0  0
   24.7578  -10.7511  -17.2932 C   0  0  0  0  0  0  0  0  0  0  0  0
   22.6009  -11.2154  -16.2263 C   0  0  2  0  0  0  0  0  0  0  0  0
   22.1744  -12.0935  -17.2672 N   0  0  0  0  0  0  0  0  0  0  0  0
   22.0556   -9.8732  -16.4419 C   0  0  0  0  0  0  0  0  0  0  0  0
   22.1787   -9.3147  -17.5486 O   0  0  0  0  0  0  0  0  0  0  0  0
   21.3858   -9.2018  -15.3965 N   0  0  0  0  0  0  0  0  0  0  0  0
   20.7787   -7.8922  -15.5898 C   0  0  1  0  0  0  0  0  0  0  0  0
   19.2837   -7.9844  -15.6416 C   0  0  0  0  0  0  0  0  0  0  0  0
   18.7119   -6.6341  -15.8309 C   0  0  0  0  0  0  0  0  0  0  0  0
   18.8196   -5.8406  -16.9843 C   0  0  0  0  0  0  0  0  0  0  0  0
   18.1778   -4.6789  -16.7950 N   0  0  0  0  0  0  0  0  0  0  0  0
   17.6591   -4.6910  -15.5629 C   0  0  0  0  0  0  0  0  0  0  0  0
   17.9840   -5.8639  -14.9948 N   0  0  0  0  0  0  0  0  0  0  0  0
   21.1932   -7.0100  -14.4935 C   0  0  0  0  0  0  0  0  0  0  0  0
   21.5289   -7.5385  -13.3781 O   0  0  0  0  0  0  0  0  0  0  0  0
   21.2591   -5.6391  -14.5502 O   0  0  0  0  0  0  0  0  0  0  0  0
  1  2  1  0
  3  4  1  1
  3  2  1  0
  5  3  1  0
  6  5  2  0
  7  8  1  0
  8  9  1  0
  9 10  1  6
 11  9  1  0
 11 12  1  6
 12  5  1  0
 13 15  1  0
 13 11  1  0
 14 13  2  0
 16 15  1  0
 16 17  1  1
 18 17  1  0
 18 19  2  0
 20 19  1  0
 21 20  1  0
 22 21  2  0
 22 18  1  0
 23 16  1  0
 24 23  2  0
 25 23  1  0
M  END
$$$$
