SIH.pdb
     RDKit          3D

 25 25  0  0  1  0  0  0  0  0999 V2000
   22.9226  -11.1380  -22.4472 O   0  0  0  0  0  0  0  0  0  0  0  0
   22.6595  -10.6537  -21.1693 C   0  0  0  0  0  0  0  0  0  0  0  0
   23.2893  -11.5352  -20.0983 C   0  0  2  0  0  0  0  0  0  0  0  0
   22.6610  -12.8320  -20.1016 N   0  0  0  0  0  0  0  0  0  0  0  0
   23.0694  -10.8980  -18.7829 C   0  0  0  0  0  0  0  0  0  0  0  0
   21.8947  -10.8151  -18.2905 O   0  0  0  0  0  0  0  0  0  0  0  0
   26.6590  -11.2778  -14.7917 C   0  0  0  0  0  0  0  0  0  0  0  0
   25.2982  -11.2469  -15.4569 C   0  0  0  0  0  0  0  0  0  0  0  0
   24.9810   -9.8077  -15.7681 C   0  0  2  0  0  0  0  0  0  0  0  0
   24.6248   -9.0795  -14.5142 C   0  0  0  0  0  0  0  0  0  0  0  0
   23.8560   -9.6694  -16.7652 C   0  0  2  0  0  0  0  0  0  0  0  0
   24.1121  -10.3486  -17.9940 N   0  0  0  0  0  0  0  0  0  0  0  0
   23.5016   -8.2721  -17.0243 C   0  0  0  0  0  0  0  0  0  0  0  0
   24.2172   -7.5681  -17.7619 O   0  0  0  0  0  0  0  0  0  0  0  0
   22.3455   -7.7120  -16.4396 N   0  0  0  0  0  0  0  0  0  0  0  0
   21.8837   -6.3736  -16.7809 C   0  0  1  0  0  0  0  0  0  0  0  0
   21.6368   -6.2389  -18.2530 C   0  0  0  0  0  0  0  0  0  0  0  0
   21.2018   -4.8587  -18.5564 C   0  0  0  0  0  0  0  0  0  0  0  0
   21.8225   -3.6772  -18.1199 C   0  0  0  0  0  0  0  0  0  0  0  0
   21.1523   -2.6150  -18.5887 N   0  0  0  0  0  0  0  0  0  0  0  0
   20.1216   -3.0647  -19.3117 C   0  0  0  0  0  0  0  0  0  0  0  0
   20.1600   -4.4070  -19.2863 N   0  0  0  0  0  0  0  0  0  0  0  0
   20.6534   -6.0907  -16.0338 C   0  0  0  0  0  0  0  0  0  0  0  0
   19.8770   -7.0651  -15.7443 O   0  0  0  0  0  0  0  0  0  0  0  0
   20.2452   -4.8518  -15.6032 O   0  0  0  0  0  0  0  0  0  0  0  0
  1  2  1  0
  3  4  1  1
  3  2  1  0
  5  3  1  0
  6  5  2  0
  7  8  1  0
  8  9  1  0
  9 10  1  1
 11  9  1  0
 11 12  1  6
 12  5  1  0
 13 15  1  0
 13 11  1  0
 14 13  2  0
 16 15  1  0
 16 17  1  6
 18 17  1  0
 18 19  2  0
 20 19  1  0
 21 20  1  0
 22 21  2  0
 22 18  1  0
 23 16  1  0
 24 23  2  0
 25 23  1  0
M  END
$$$$
