SIH.pdb
     RDKit          3D

 25 25  0  0  1  0  0  0  0  0999 V2000
   22.8174  -14.2680  -21.6285 O   0  0  0  0  0  0  0  0  0  0  0  0
   22.8025  -13.6709  -20.3715 C   0  0  0  0  0  0  0  0  0  0  0  0
   23.8848  -14.2474  -19.4675 C   0  0  2  0  0  0  0  0  0  0  0  0
   23.5978  -15.6305  -19.1830 N   0  0  0  0  0  0  0  0  0  0  0  0
   23.8865  -13.4864  -18.2004 C   0  0  0  0  0  0  0  0  0  0  0  0
   23.0212  -13.7324  -17.2949 O   0  0  0  0  0  0  0  0  0  0  0  0
   28.3401  -12.2872  -15.4896 C   0  0  0  0  0  0  0  0  0  0  0  0
   26.9215  -12.6972  -15.8277 C   0  0  0  0  0  0  0  0  0  0  0  0
   26.1447  -11.4391  -16.1147 C   0  0  2  0  0  0  0  0  0  0  0  0
   26.0067  -10.6274  -14.8690 C   0  0  0  0  0  0  0  0  0  0  0  0
   24.7749  -11.7254  -16.6810 C   0  0  2  0  0  0  0  0  0  0  0  0
   24.8185  -12.4593  -17.9042 N   0  0  0  0  0  0  0  0  0  0  0  0
   23.9694  -10.5135  -16.8469 C   0  0  0  0  0  0  0  0  0  0  0  0
   24.2817   -9.6629  -17.7019 O   0  0  0  0  0  0  0  0  0  0  0  0
   22.8321  -10.2998  -16.0388 N   0  0  0  0  0  0  0  0  0  0  0  0
   21.9532   -9.1556  -16.2370 C   0  0  1  0  0  0  0  0  0  0  0  0
   20.5146   -9.5317  -16.0495 C   0  0  0  0  0  0  0  0  0  0  0  0
   19.6616   -8.3431  -16.2632 C   0  0  0  0  0  0  0  0  0  0  0  0
   20.0508   -7.1403  -16.8743 C   0  0  0  0  0  0  0  0  0  0  0  0
   19.0160   -6.2881  -16.8941 N   0  0  0  0  0  0  0  0  0  0  0  0
   17.9724   -6.8942  -16.3190 C   0  0  0  0  0  0  0  0  0  0  0  0
   18.3684   -8.1220  -15.9452 N   0  0  0  0  0  0  0  0  0  0  0  0
   22.3273   -8.0996  -15.2899 C   0  0  0  0  0  0  0  0  0  0  0  0
   22.6370   -8.4331  -14.0945 O   0  0  0  0  0  0  0  0  0  0  0  0
   22.3803   -6.7557  -15.5691 O   0  0  0  0  0  0  0  0  0  0  0  0
  1  2  1  0
  3  4  1  1
  3  2  1  0
  5  3  1  0
  6  5  2  0
  7  8  1  0
  8  9  1  0
  9 10  1  1
 11  9  1  0
 11 12  1  6
 12  5  1  0
 13 15  1  0
 13 11  1  0
 14 13  2  0
 16 15  1  0
 16 17  1  1
 18 17  1  0
 18 19  2  0
 20 19  1  0
 21 20  1  0
 22 21  2  0
 22 18  1  0
 23 16  1  0
 24 23  2  0
 25 23  1  0
M  END
$$$$
