DAE.pdb
     RDKit          3D

 23 22  0  0  1  0  0  0  0  0999 V2000
   13.7075  -10.1678  -10.3081 N   0  0  0  0  0  0  0  0  0  0  0  0
   15.1037   -9.8707  -10.3389 C   0  0  1  0  0  0  0  0  0  0  0  0
   15.7150  -10.5782  -11.5298 C   0  0  0  0  0  0  0  0  0  0  0  0
   15.5213  -12.0362  -11.3220 C   0  0  0  0  0  0  0  0  0  0  0  0
   15.7726  -12.5005  -10.1887 O   0  0  0  0  0  0  0  0  0  0  0  0
   15.4107   -8.4338  -10.4194 C   0  0  0  0  0  0  0  0  0  0  0  0
   14.9127   -7.6707  -11.2922 O   0  0  0  0  0  0  0  0  0  0  0  0
   15.0805  -12.8723  -12.3262 O   0  0  0  0  0  0  0  0  0  0  0  0
   16.4767   -5.6308   -8.3522 C   0  0  0  0  0  0  0  0  0  0  0  0
   16.6687   -6.4205   -9.6267 C   0  0  2  0  0  0  0  0  0  0  0  0
   16.3114   -7.7942   -9.4958 N   0  0  0  0  0  0  0  0  0  0  0  0
   18.0608   -6.3028  -10.1211 C   0  0  0  0  0  0  0  0  0  0  0  0
   18.9971   -7.0204   -9.6164 O   0  0  0  0  0  0  0  0  0  0  0  0
   18.3360   -5.3815  -11.1627 N   0  0  0  0  0  0  0  0  0  0  0  0
   19.6000   -5.3674  -11.8723 C   0  0  1  0  0  0  0  0  0  0  0  0
   19.8224   -6.7306  -12.4411 C   0  0  0  0  0  0  0  0  0  0  0  0
   21.0835   -6.9403  -13.1964 C   0  0  0  0  0  0  0  0  0  0  0  0
   21.3253   -8.3368  -13.6310 C   0  0  0  0  0  0  0  0  0  0  0  0
   22.3498   -8.9511  -13.2366 O   0  0  0  0  0  0  0  0  0  0  0  0
   19.6987   -4.2704  -12.8358 C   0  0  0  0  0  0  0  0  0  0  0  0
   18.7572   -3.6970  -13.3992 O   0  0  0  0  0  0  0  0  0  0  0  0
   20.4792   -9.0455  -14.4700 O   0  0  0  0  0  0  0  0  0  0  0  0
   20.9827   -3.8108  -13.1650 O   0  0  0  0  0  0  0  0  0  0  0  0
  2  1  1  6
  2  3  1  0
  3  4  1  0
  4  8  1  0
  4  5  2  0
  6  2  1  0
  7  6  2  0
 10  9  1  1
 10 11  1  0
 11  6  1  0
 12 10  1  0
 12 14  1  0
 13 12  2  0
 15 14  1  0
 15 16  1  6
 15 20  1  0
 16 17  1  0
 17 18  1  0
 18 22  1  0
 19 18  2  0
 20 21  2  0
 20 23  1  0
M  END
$$$$
