DAE.pdb
     RDKit          3D

 23 22  0  0  1  0  0  0  0  0999 V2000
   20.5120  -21.8238  -12.7081 N   0  0  0  0  0  0  0  0  0  0  0  0
   20.3321  -21.5109  -14.0894 C   0  0  1  0  0  0  0  0  0  0  0  0
   18.8516  -21.5666  -14.4015 C   0  0  0  0  0  0  0  0  0  0  0  0
   18.4039  -22.9625  -14.1617 C   0  0  0  0  0  0  0  0  0  0  0  0
   18.9893  -23.8758  -14.7832 O   0  0  0  0  0  0  0  0  0  0  0  0
   20.8604  -20.1945  -14.4812 C   0  0  0  0  0  0  0  0  0  0  0  0
   20.6755  -19.1478  -13.8013 O   0  0  0  0  0  0  0  0  0  0  0  0
   17.3809  -23.2696  -13.2894 O   0  0  0  0  0  0  0  0  0  0  0  0
   23.4296  -18.8566  -16.8896 C   0  0  0  0  0  0  0  0  0  0  0  0
   22.1936  -18.7457  -16.0264 C   0  0  2  0  0  0  0  0  0  0  0  0
   21.6335  -20.0104  -15.6819 N   0  0  0  0  0  0  0  0  0  0  0  0
   21.1671  -17.8950  -16.6735 C   0  0  0  0  0  0  0  0  0  0  0  0
   20.2224  -18.4209  -17.3644 O   0  0  0  0  0  0  0  0  0  0  0  0
   21.2508  -16.4891  -16.5132 N   0  0  0  0  0  0  0  0  0  0  0  0
   20.3730  -15.5743  -17.2162 C   0  0  1  0  0  0  0  0  0  0  0  0
   20.5543  -14.2160  -16.6216 C   0  0  0  0  0  0  0  0  0  0  0  0
   19.7099  -13.1275  -17.1758 C   0  0  0  0  0  0  0  0  0  0  0  0
   19.9903  -11.7796  -16.6265 C   0  0  0  0  0  0  0  0  0  0  0  0
   20.8610  -11.6328  -15.7304 O   0  0  0  0  0  0  0  0  0  0  0  0
   20.5294  -15.6403  -18.6697 C   0  0  0  0  0  0  0  0  0  0  0  0
   21.5891  -15.7949  -19.2908 O   0  0  0  0  0  0  0  0  0  0  0  0
   19.3435  -10.6244  -17.0379 O   0  0  0  0  0  0  0  0  0  0  0  0
   19.3715  -15.5175  -19.4522 O   0  0  0  0  0  0  0  0  0  0  0  0
  2  1  1  1
  2  3  1  0
  3  4  1  0
  4  8  1  0
  4  5  2  0
  6  2  1  0
  7  6  2  0
 10  9  1  6
 10 11  1  0
 11  6  1  0
 12 10  1  0
 12 14  1  0
 13 12  2  0
 15 14  1  0
 15 16  1  1
 15 20  1  0
 16 17  1  0
 17 18  1  0
 18 22  1  0
 19 18  2  0
 20 21  2  0
 20 23  1  0
M  END
$$$$
