DAE.pdb
     RDKit          3D

 23 22  0  0  1  0  0  0  0  0999 V2000
   14.7334  -13.0318  -13.4489 N   0  0  0  0  0  0  0  0  0  0  0  0
   15.1445  -12.6810  -12.1274 C   0  0  1  0  0  0  0  0  0  0  0  0
   16.5540  -13.1919  -11.9156 C   0  0  0  0  0  0  0  0  0  0  0  0
   16.4839  -14.6754  -11.8845 C   0  0  0  0  0  0  0  0  0  0  0  0
   17.3266  -15.3114  -12.5541 O   0  0  0  0  0  0  0  0  0  0  0  0
   15.1063  -11.2364  -11.8497 C   0  0  0  0  0  0  0  0  0  0  0  0
   15.5246  -10.3672  -12.6629 O   0  0  0  0  0  0  0  0  0  0  0  0
   15.5333  -15.3537  -11.1511 O   0  0  0  0  0  0  0  0  0  0  0  0
   13.5772   -8.9281   -9.2644 C   0  0  0  0  0  0  0  0  0  0  0  0
   14.5630   -9.3123  -10.3441 C   0  0  2  0  0  0  0  0  0  0  0  0
   14.5822  -10.7114  -10.6155 N   0  0  0  0  0  0  0  0  0  0  0  0
   15.9279   -8.8409  -10.0108 C   0  0  0  0  0  0  0  0  0  0  0  0
   16.6832   -9.5235   -9.2300 O   0  0  0  0  0  0  0  0  0  0  0  0
   16.3810   -7.6207  -10.5723 N   0  0  0  0  0  0  0  0  0  0  0  0
   17.6635   -7.0379  -10.2301 C   0  0  1  0  0  0  0  0  0  0  0  0
   18.5645   -7.1845  -11.4124 C   0  0  0  0  0  0  0  0  0  0  0  0
   19.9237   -6.5989  -11.2916 C   0  0  0  0  0  0  0  0  0  0  0  0
   20.7479   -6.6769  -12.5212 C   0  0  0  0  0  0  0  0  0  0  0  0
   21.9038   -6.1806  -12.5376 O   0  0  0  0  0  0  0  0  0  0  0  0
   17.5475   -5.6772   -9.7043 C   0  0  0  0  0  0  0  0  0  0  0  0
   16.7114   -4.8271  -10.0373 O   0  0  0  0  0  0  0  0  0  0  0  0
   20.3288   -7.2759  -13.6991 O   0  0  0  0  0  0  0  0  0  0  0  0
   18.4692   -5.2807   -8.7238 O   0  0  0  0  0  0  0  0  0  0  0  0
  2  1  1  6
  2  3  1  0
  3  4  1  0
  4  8  1  0
  4  5  2  0
  6  2  1  0
  7  6  2  0
 10  9  1  1
 10 11  1  0
 11  6  1  0
 12 10  1  0
 12 14  1  0
 13 12  2  0
 15 14  1  0
 15 16  1  6
 15 20  1  0
 16 17  1  0
 17 18  1  0
 18 22  1  0
 19 18  2  0
 20 21  2  0
 20 23  1  0
M  END
$$$$
