DAE.pdb
     RDKit          3D

 23 22  0  0  1  0  0  0  0  0999 V2000
   15.7460  -10.6437  -16.6181 N   0  0  0  0  0  0  0  0  0  0  0  0
   15.7547   -9.8705  -15.4179 C   0  0  1  0  0  0  0  0  0  0  0  0
   16.2215  -10.7576  -14.2832 C   0  0  0  0  0  0  0  0  0  0  0  0
   15.2010  -11.8230  -14.1098 C   0  0  0  0  0  0  0  0  0  0  0  0
   14.0073  -11.4710  -13.9913 O   0  0  0  0  0  0  0  0  0  0  0  0
   16.6091   -8.6740  -15.4801 C   0  0  0  0  0  0  0  0  0  0  0  0
   17.7685   -8.6804  -15.9778 O   0  0  0  0  0  0  0  0  0  0  0  0
   15.5305  -13.1618  -14.0770 O   0  0  0  0  0  0  0  0  0  0  0  0
   16.3068   -4.9816  -14.5812 C   0  0  0  0  0  0  0  0  0  0  0  0
   17.0065   -6.2442  -15.0300 C   0  0  2  0  0  0  0  0  0  0  0  0
   16.1738   -7.3995  -14.9705 N   0  0  0  0  0  0  0  0  0  0  0  0
   18.2464   -6.4713  -14.2508 C   0  0  0  0  0  0  0  0  0  0  0  0
   18.2041   -7.0571  -13.1100 O   0  0  0  0  0  0  0  0  0  0  0  0
   19.4793   -6.0279  -14.7918 N   0  0  0  0  0  0  0  0  0  0  0  0
   20.7537   -6.3352  -14.1729 C   0  0  1  0  0  0  0  0  0  0  0  0
   21.3757   -7.4585  -14.9362 C   0  0  0  0  0  0  0  0  0  0  0  0
   22.7446   -7.8643  -14.5282 C   0  0  0  0  0  0  0  0  0  0  0  0
   23.3552   -8.9259  -15.3634 C   0  0  0  0  0  0  0  0  0  0  0  0
   22.6979   -9.4459  -16.3015 O   0  0  0  0  0  0  0  0  0  0  0  0
   21.6030   -5.1555  -14.0042 C   0  0  0  0  0  0  0  0  0  0  0  0
   22.5224   -5.0199  -13.1863 O   0  0  0  0  0  0  0  0  0  0  0  0
   24.6422   -9.4094  -15.1845 O   0  0  0  0  0  0  0  0  0  0  0  0
   21.3638   -4.0592  -14.8463 O   0  0  0  0  0  0  0  0  0  0  0  0
  2  1  1  6
  2  3  1  0
  3  4  1  0
  4  8  1  0
  4  5  2  0
  6  2  1  0
  7  6  2  0
 10  9  1  1
 10 11  1  0
 11  6  1  0
 12 10  1  0
 12 14  1  0
 13 12  2  0
 15 14  1  0
 15 16  1  6
 15 20  1  0
 16 17  1  0
 17 18  1  0
 18 22  1  0
 19 18  2  0
 20 21  2  0
 20 23  1  0
M  END
$$$$
