DAE.pdb
     RDKit          3D

 23 22  0  0  1  0  0  0  0  0999 V2000
   13.4987  -10.9100  -10.6689 N   0  0  0  0  0  0  0  0  0  0  0  0
   14.8414  -10.4347  -10.5714 C   0  0  1  0  0  0  0  0  0  0  0  0
   15.5834  -10.8426  -11.8266 C   0  0  0  0  0  0  0  0  0  0  0  0
   15.7467  -12.3183  -11.7809 C   0  0  0  0  0  0  0  0  0  0  0  0
   16.8474  -12.7928  -12.1362 O   0  0  0  0  0  0  0  0  0  0  0  0
   14.9519   -8.9779  -10.3954 C   0  0  0  0  0  0  0  0  0  0  0  0
   14.5653   -8.1477  -11.2634 O   0  0  0  0  0  0  0  0  0  0  0  0
   14.7363  -13.1597  -11.3651 O   0  0  0  0  0  0  0  0  0  0  0  0
   15.6617   -6.5182   -7.6331 C   0  0  0  0  0  0  0  0  0  0  0  0
   15.6879   -6.9863   -9.0702 C   0  0  2  0  0  0  0  0  0  0  0  0
   15.5157   -8.3947   -9.2057 N   0  0  0  0  0  0  0  0  0  0  0  0
   16.9358   -6.5599   -9.7462 C   0  0  0  0  0  0  0  0  0  0  0  0
   18.0696   -7.0470   -9.3946 O   0  0  0  0  0  0  0  0  0  0  0  0
   16.8507   -5.6031  -10.7887 N   0  0  0  0  0  0  0  0  0  0  0  0
   18.0082   -5.1856  -11.5551 C   0  0  1  0  0  0  0  0  0  0  0  0
   18.6137   -6.4036  -12.1725 C   0  0  0  0  0  0  0  0  0  0  0  0
   19.7982   -6.1914  -13.0425 C   0  0  0  0  0  0  0  0  0  0  0  0
   20.3983   -7.4305  -13.5920 C   0  0  0  0  0  0  0  0  0  0  0  0
   20.5632   -7.5542  -14.8330 O   0  0  0  0  0  0  0  0  0  0  0  0
   17.7096   -4.1002  -12.4902 C   0  0  0  0  0  0  0  0  0  0  0  0
   16.6118   -3.8529  -13.0062 O   0  0  0  0  0  0  0  0  0  0  0  0
   20.8070   -8.5044  -12.8163 O   0  0  0  0  0  0  0  0  0  0  0  0
   18.7626   -3.2452  -12.8479 O   0  0  0  0  0  0  0  0  0  0  0  0
  2  1  1  6
  2  3  1  0
  3  4  1  0
  4  8  1  0
  4  5  2  0
  6  2  1  0
  7  6  2  0
 10  9  1  1
 10 11  1  0
 11  6  1  0
 12 10  1  0
 12 14  1  0
 13 12  2  0
 15 14  1  0
 15 16  1  6
 15 20  1  0
 16 17  1  0
 17 18  1  0
 18 22  1  0
 19 18  2  0
 20 21  2  0
 20 23  1  0
M  END
$$$$
