DAE.pdb
     RDKit          3D

 23 22  0  0  1  0  0  0  0  0999 V2000
   14.0137  -11.0039  -11.2061 N   0  0  0  0  0  0  0  0  0  0  0  0
   15.1989  -10.4566  -10.6281 C   0  0  1  0  0  0  0  0  0  0  0  0
   16.3818  -10.8870  -11.4695 C   0  0  0  0  0  0  0  0  0  0  0  0
   16.4560  -12.3689  -11.3982 C   0  0  0  0  0  0  0  0  0  0  0  0
   17.5897  -12.8916  -11.3307 O   0  0  0  0  0  0  0  0  0  0  0  0
   15.1914   -8.9892  -10.5179 C   0  0  0  0  0  0  0  0  0  0  0  0
   14.9818   -8.2256  -11.5002 O   0  0  0  0  0  0  0  0  0  0  0  0
   15.3300  -13.1651  -11.4043 O   0  0  0  0  0  0  0  0  0  0  0  0
   14.9606   -6.3983   -7.8118 C   0  0  0  0  0  0  0  0  0  0  0  0
   15.4171   -6.8962   -9.1641 C   0  0  2  0  0  0  0  0  0  0  0  0
   15.4258   -8.3179   -9.2657 N   0  0  0  0  0  0  0  0  0  0  0  0
   16.7529   -6.3543   -9.5076 C   0  0  0  0  0  0  0  0  0  0  0  0
   17.8155   -6.8620   -8.9984 O   0  0  0  0  0  0  0  0  0  0  0  0
   16.8320   -5.2640  -10.4100 N   0  0  0  0  0  0  0  0  0  0  0  0
   18.0877   -4.8197  -10.9821 C   0  0  1  0  0  0  0  0  0  0  0  0
   18.6994   -5.9771  -11.7015 C   0  0  0  0  0  0  0  0  0  0  0  0
   19.8948   -5.6884  -12.5338 C   0  0  0  0  0  0  0  0  0  0  0  0
   20.4005   -6.8395  -13.3192 C   0  0  0  0  0  0  0  0  0  0  0  0
   21.4452   -6.7208  -14.0099 O   0  0  0  0  0  0  0  0  0  0  0  0
   17.9498   -3.5988  -11.7771 C   0  0  0  0  0  0  0  0  0  0  0  0
   16.9682   -3.2672  -12.4547 O   0  0  0  0  0  0  0  0  0  0  0  0
   19.7891   -8.0832  -13.3540 O   0  0  0  0  0  0  0  0  0  0  0  0
   19.0301   -2.7038  -11.7825 O   0  0  0  0  0  0  0  0  0  0  0  0
  2  1  1  6
  2  3  1  0
  3  4  1  0
  4  8  1  0
  4  5  2  0
  6  2  1  0
  7  6  2  0
 10  9  1  1
 10 11  1  0
 11  6  1  0
 12 10  1  0
 12 14  1  0
 13 12  2  0
 15 14  1  0
 15 16  1  6
 15 20  1  0
 16 17  1  0
 17 18  1  0
 18 22  1  0
 19 18  2  0
 20 21  2  0
 20 23  1  0
M  END
$$$$
