DAE.pdb
     RDKit          3D

 23 22  0  0  1  0  0  0  0  0999 V2000
   20.6513  -12.5291  -16.3147 N   0  0  0  0  0  0  0  0  0  0  0  0
   19.8952  -11.4855  -16.9291 C   0  0  1  0  0  0  0  0  0  0  0  0
   18.8824  -10.9765  -15.9253 C   0  0  0  0  0  0  0  0  0  0  0  0
   18.0038  -12.1201  -15.5689 C   0  0  0  0  0  0  0  0  0  0  0  0
   17.7155  -12.9352  -16.4719 O   0  0  0  0  0  0  0  0  0  0  0  0
   20.7086  -10.3576  -17.4107 C   0  0  0  0  0  0  0  0  0  0  0  0
   21.6430   -9.8445  -16.7358 O   0  0  0  0  0  0  0  0  0  0  0  0
   17.5092  -12.3011  -14.2944 O   0  0  0  0  0  0  0  0  0  0  0  0
   21.0624   -8.3508  -20.6273 C   0  0  0  0  0  0  0  0  0  0  0  0
   21.2880   -8.6717  -19.1674 C   0  0  2  0  0  0  0  0  0  0  0  0
   20.4897   -9.7563  -18.7006 N   0  0  0  0  0  0  0  0  0  0  0  0
   21.0670   -7.4766  -18.3195 C   0  0  0  0  0  0  0  0  0  0  0  0
   20.0879   -7.4342  -17.4913 O   0  0  0  0  0  0  0  0  0  0  0  0
   21.9593   -6.3821  -18.4426 N   0  0  0  0  0  0  0  0  0  0  0  0
   21.8514   -5.1962  -17.6158 C   0  0  1  0  0  0  0  0  0  0  0  0
   22.0099   -5.6143  -16.1905 C   0  0  0  0  0  0  0  0  0  0  0  0
   22.0728   -4.5280  -15.1801 C   0  0  0  0  0  0  0  0  0  0  0  0
   22.3033   -4.9834  -13.7884 C   0  0  0  0  0  0  0  0  0  0  0  0
   22.4911   -6.2038  -13.5476 O   0  0  0  0  0  0  0  0  0  0  0  0
   22.7423   -4.1187  -18.0482 C   0  0  0  0  0  0  0  0  0  0  0  0
   23.8441   -4.2489  -18.5974 O   0  0  0  0  0  0  0  0  0  0  0  0
   22.3287   -4.1381  -12.6899 O   0  0  0  0  0  0  0  0  0  0  0  0
   22.3197   -2.7998  -17.8249 O   0  0  0  0  0  0  0  0  0  0  0  0
  2  1  1  1
  2  3  1  0
  3  4  1  0
  4  8  1  0
  4  5  2  0
  6  2  1  0
  7  6  2  0
 10  9  1  6
 10 11  1  0
 11  6  1  0
 12 10  1  0
 12 14  1  0
 13 12  2  0
 15 14  1  0
 15 16  1  1
 15 20  1  0
 16 17  1  0
 17 18  1  0
 18 22  1  0
 19 18  2  0
 20 21  2  0
 20 23  1  0
M  END
$$$$
