DAE.pdb
     RDKit          3D

 23 22  0  0  1  0  0  0  0  0999 V2000
   15.5496  -10.7176  -15.6134 N   0  0  0  0  0  0  0  0  0  0  0  0
   16.9695  -10.8473  -15.5391 C   0  0  1  0  0  0  0  0  0  0  0  0
   17.4035  -11.9075  -16.5290 C   0  0  0  0  0  0  0  0  0  0  0  0
   16.8076  -13.1938  -16.0850 C   0  0  0  0  0  0  0  0  0  0  0  0
   16.8395  -13.4584  -14.8636 O   0  0  0  0  0  0  0  0  0  0  0  0
   17.7019   -9.6006  -15.8127 C   0  0  0  0  0  0  0  0  0  0  0  0
   18.8782   -9.5785  -16.2687 O   0  0  0  0  0  0  0  0  0  0  0  0
   16.2323  -14.0838  -16.9674 O   0  0  0  0  0  0  0  0  0  0  0  0
   17.0373   -5.8551  -15.5280 C   0  0  0  0  0  0  0  0  0  0  0  0
   17.8496   -7.1022  -15.7926 C   0  0  2  0  0  0  0  0  0  0  0  0
   17.1180   -8.3060  -15.5752 N   0  0  0  0  0  0  0  0  0  0  0  0
   19.0916   -7.1098  -14.9842 C   0  0  0  0  0  0  0  0  0  0  0  0
   19.0844   -7.5469  -13.7780 O   0  0  0  0  0  0  0  0  0  0  0  0
   20.2870   -6.6242  -15.5713 N   0  0  0  0  0  0  0  0  0  0  0  0
   21.5595   -6.6525  -14.8775 C   0  0  1  0  0  0  0  0  0  0  0  0
   22.3987   -7.7196  -15.5008 C   0  0  0  0  0  0  0  0  0  0  0  0
   23.7897   -7.8524  -14.9985 C   0  0  0  0  0  0  0  0  0  0  0  0
   24.5942   -8.9061  -15.6618 C   0  0  0  0  0  0  0  0  0  0  0  0
   24.0333   -9.7566  -16.3997 O   0  0  0  0  0  0  0  0  0  0  0  0
   22.1920   -5.3354  -14.7958 C   0  0  0  0  0  0  0  0  0  0  0  0
   22.0699   -4.4075  -15.6062 O   0  0  0  0  0  0  0  0  0  0  0  0
   25.9682   -9.0328  -15.5273 O   0  0  0  0  0  0  0  0  0  0  0  0
   23.0235   -5.0831  -13.6945 O   0  0  0  0  0  0  0  0  0  0  0  0
  2  1  1  6
  2  3  1  0
  3  4  1  0
  4  8  1  0
  4  5  2  0
  6  2  1  0
  7  6  2  0
 10  9  1  1
 10 11  1  0
 11  6  1  0
 12 10  1  0
 12 14  1  0
 13 12  2  0
 15 14  1  0
 15 16  1  6
 15 20  1  0
 16 17  1  0
 17 18  1  0
 18 22  1  0
 19 18  2  0
 20 21  2  0
 20 23  1  0
M  END
$$$$
