DAE.pdb
     RDKit          3D

 23 22  0  0  1  0  0  0  0  0999 V2000
   17.7389  -14.4108  -15.9157 N   0  0  0  0  0  0  0  0  0  0  0  0
   16.8583  -13.3130  -15.6758 C   0  0  1  0  0  0  0  0  0  0  0  0
   16.5021  -13.3007  -14.2043 C   0  0  0  0  0  0  0  0  0  0  0  0
   15.7821  -14.5675  -13.9156 C   0  0  0  0  0  0  0  0  0  0  0  0
   16.2103  -15.2799  -12.9817 O   0  0  0  0  0  0  0  0  0  0  0  0
   17.4148  -12.0032  -16.0503 C   0  0  0  0  0  0  0  0  0  0  0  0
   18.6264  -11.6952  -15.8796 O   0  0  0  0  0  0  0  0  0  0  0  0
   14.6770  -14.9686  -14.6364 O   0  0  0  0  0  0  0  0  0  0  0  0
   16.2676   -8.9098  -17.9282 C   0  0  0  0  0  0  0  0  0  0  0  0
   17.1398   -9.6935  -16.9741 C   0  0  2  0  0  0  0  0  0  0  0  0
   16.6037  -10.9723  -16.6441 N   0  0  0  0  0  0  0  0  0  0  0  0
   17.4054   -8.9198  -15.7383 C   0  0  0  0  0  0  0  0  0  0  0  0
   16.6938   -9.1028  -14.6864 O   0  0  0  0  0  0  0  0  0  0  0  0
   18.4613   -7.9741  -15.7429 N   0  0  0  0  0  0  0  0  0  0  0  0
   18.7782   -7.1592  -14.5866 C   0  0  1  0  0  0  0  0  0  0  0  0
   20.2189   -6.7752  -14.6766 C   0  0  0  0  0  0  0  0  0  0  0  0
   20.7608   -5.9542  -13.5642 C   0  0  0  0  0  0  0  0  0  0  0  0
   22.1909   -5.5881  -13.6987 C   0  0  0  0  0  0  0  0  0  0  0  0
   22.5761   -4.4296  -13.3953 O   0  0  0  0  0  0  0  0  0  0  0  0
   17.8494   -6.0428  -14.4061 C   0  0  0  0  0  0  0  0  0  0  0  0
   17.3249   -5.3681  -15.3017 O   0  0  0  0  0  0  0  0  0  0  0  0
   23.1743   -6.4548  -14.1501 O   0  0  0  0  0  0  0  0  0  0  0  0
   17.5093   -5.6890  -13.0918 O   0  0  0  0  0  0  0  0  0  0  0  0
  2  1  1  1
  2  3  1  0
  3  4  1  0
  4  8  1  0
  4  5  2  0
  6  2  1  0
  7  6  2  0
 10  9  1  6
 10 11  1  0
 11  6  1  0
 12 10  1  0
 12 14  1  0
 13 12  2  0
 15 14  1  0
 15 16  1  6
 15 20  1  0
 16 17  1  0
 17 18  1  0
 18 22  1  0
 19 18  2  0
 20 21  2  0
 20 23  1  0
M  END
$$$$
