DAE.pdb
     RDKit          3D

 23 22  0  0  1  0  0  0  0  0999 V2000
   16.7621  -10.7212  -14.5068 N   0  0  0  0  0  0  0  0  0  0  0  0
   17.7271  -10.3900  -15.5055 C   0  0  1  0  0  0  0  0  0  0  0  0
   17.0002   -9.7860  -16.6884 C   0  0  0  0  0  0  0  0  0  0  0  0
   16.0843  -10.8276  -17.2202 C   0  0  0  0  0  0  0  0  0  0  0  0
   16.5696  -11.9494  -17.4831 O   0  0  0  0  0  0  0  0  0  0  0  0
   18.7684   -9.4559  -15.0487 C   0  0  0  0  0  0  0  0  0  0  0  0
   18.5141   -8.4054  -14.3977 O   0  0  0  0  0  0  0  0  0  0  0  0
   14.7411  -10.5932  -17.4263 O   0  0  0  0  0  0  0  0  0  0  0  0
   22.5523   -9.3267  -14.8805 C   0  0  0  0  0  0  0  0  0  0  0  0
   21.1627   -8.7347  -14.9421 C   0  0  2  0  0  0  0  0  0  0  0  0
   20.1650   -9.6810  -15.3174 N   0  0  0  0  0  0  0  0  0  0  0  0
   21.1221   -7.5659  -15.8522 C   0  0  0  0  0  0  0  0  0  0  0  0
   20.8830   -7.7191  -17.1035 O   0  0  0  0  0  0  0  0  0  0  0  0
   21.3526   -6.2759  -15.3117 N   0  0  0  0  0  0  0  0  0  0  0  0
   21.3856   -5.0837  -16.1358 C   0  0  1  0  0  0  0  0  0  0  0  0
   20.7082   -3.9860  -15.3825 C   0  0  0  0  0  0  0  0  0  0  0  0
   20.6304   -2.6648  -16.0557 C   0  0  0  0  0  0  0  0  0  0  0  0
   20.0164   -1.5867  -15.2443 C   0  0  0  0  0  0  0  0  0  0  0  0
   18.7727   -1.4012  -15.2804 O   0  0  0  0  0  0  0  0  0  0  0  0
   22.7289   -4.7650  -16.6210 C   0  0  0  0  0  0  0  0  0  0  0  0
   23.7952   -4.9682  -16.0258 O   0  0  0  0  0  0  0  0  0  0  0  0
   20.7325   -0.7343  -14.4180 O   0  0  0  0  0  0  0  0  0  0  0  0
   22.8362   -4.1684  -17.8862 O   0  0  0  0  0  0  0  0  0  0  0  0
  2  1  1  1
  2  3  1  0
  3  4  1  0
  4  8  1  0
  4  5  2  0
  6  2  1  0
  7  6  2  0
 10  9  1  6
 10 11  1  0
 11  6  1  0
 12 10  1  0
 12 14  1  0
 13 12  2  0
 15 14  1  0
 15 16  1  1
 15 20  1  0
 16 17  1  0
 17 18  1  0
 18 22  1  0
 19 18  2  0
 20 21  2  0
 20 23  1  0
M  END
$$$$
