DAE.pdb
     RDKit          3D

 23 22  0  0  1  0  0  0  0  0999 V2000
   18.1986  -12.4697  -16.2179 N   0  0  0  0  0  0  0  0  0  0  0  0
   19.2676  -11.7494  -16.8317 C   0  0  1  0  0  0  0  0  0  0  0  0
   18.6951  -10.9162  -17.9589 C   0  0  0  0  0  0  0  0  0  0  0  0
   18.1804  -11.8590  -18.9849 C   0  0  0  0  0  0  0  0  0  0  0  0
   16.9408  -11.9599  -19.1121 O   0  0  0  0  0  0  0  0  0  0  0  0
   20.0090  -10.8736  -15.9104 C   0  0  0  0  0  0  0  0  0  0  0  0
   19.4432  -10.0825  -15.1067 O   0  0  0  0  0  0  0  0  0  0  0  0
   19.0176  -12.6094  -19.7834 O   0  0  0  0  0  0  0  0  0  0  0  0
   23.6315  -10.3091  -14.8922 C   0  0  0  0  0  0  0  0  0  0  0  0
   22.1626   -9.9718  -15.0087 C   0  0  2  0  0  0  0  0  0  0  0  0
   21.4481  -10.8606  -15.8639 N   0  0  0  0  0  0  0  0  0  0  0  0
   21.9718   -8.5724  -15.4573 C   0  0  0  0  0  0  0  0  0  0  0  0
   21.6351   -8.3137  -16.6681 O   0  0  0  0  0  0  0  0  0  0  0  0
   22.1691   -7.5263  -14.5213 N   0  0  0  0  0  0  0  0  0  0  0  0
   21.9548   -6.1327  -14.8583 C   0  0  1  0  0  0  0  0  0  0  0  0
   20.5529   -5.9907  -15.3543 C   0  0  0  0  0  0  0  0  0  0  0  0
   20.0815   -4.6109  -15.6349 C   0  0  0  0  0  0  0  0  0  0  0  0
   18.6545   -4.5062  -16.0223 C   0  0  0  0  0  0  0  0  0  0  0  0
   17.9127   -3.6529  -15.4708 O   0  0  0  0  0  0  0  0  0  0  0  0
   22.3235   -5.2222  -13.7737 C   0  0  0  0  0  0  0  0  0  0  0  0
   22.3191   -5.4785  -12.5625 O   0  0  0  0  0  0  0  0  0  0  0  0
   18.0503   -5.3053  -16.9806 O   0  0  0  0  0  0  0  0  0  0  0  0
   22.7245   -3.9246  -14.1251 O   0  0  0  0  0  0  0  0  0  0  0  0
  2  1  1  1
  2  3  1  0
  3  4  1  0
  4  8  1  0
  4  5  2  0
  6  2  1  0
  7  6  2  0
 10  9  1  6
 10 11  1  0
 11  6  1  0
 12 10  1  0
 12 14  1  0
 13 12  2  0
 15 14  1  0
 15 16  1  1
 15 20  1  0
 16 17  1  0
 17 18  1  0
 18 22  1  0
 19 18  2  0
 20 21  2  0
 20 23  1  0
M  END
$$$$
