DAE.pdb
     RDKit          3D

 23 22  0  0  1  0  0  0  0  0999 V2000
   15.6447   -9.7336  -13.3901 N   0  0  0  0  0  0  0  0  0  0  0  0
   16.4262   -9.4117  -14.5407 C   0  0  1  0  0  0  0  0  0  0  0  0
   15.6833   -8.3647  -15.3434 C   0  0  0  0  0  0  0  0  0  0  0  0
   14.4455   -9.0030  -15.8598 C   0  0  0  0  0  0  0  0  0  0  0  0
   13.3504   -8.4932  -15.5377 O   0  0  0  0  0  0  0  0  0  0  0  0
   17.7766   -8.9161  -14.2305 C   0  0  0  0  0  0  0  0  0  0  0  0
   17.9966   -7.9852  -13.4076 O   0  0  0  0  0  0  0  0  0  0  0  0
   14.4735  -10.1199  -16.6684 O   0  0  0  0  0  0  0  0  0  0  0  0
   21.3609   -9.7980  -15.1759 C   0  0  0  0  0  0  0  0  0  0  0  0
   20.2552   -8.9607  -14.5748 C   0  0  2  0  0  0  0  0  0  0  0  0
   18.9522   -9.4671  -14.8531 N   0  0  0  0  0  0  0  0  0  0  0  0
   20.3565   -7.5495  -15.0160 C   0  0  0  0  0  0  0  0  0  0  0  0
   19.8366   -7.1725  -16.1269 O   0  0  0  0  0  0  0  0  0  0  0  0
   21.0393   -6.6257  -14.1856 N   0  0  0  0  0  0  0  0  0  0  0  0
   21.2445   -5.2426  -14.5684 C   0  0  1  0  0  0  0  0  0  0  0  0
   19.9310   -4.5385  -14.4671 C   0  0  0  0  0  0  0  0  0  0  0  0
   19.9391   -3.0739  -14.7113 C   0  0  0  0  0  0  0  0  0  0  0  0
   18.6082   -2.4240  -14.6491 C   0  0  0  0  0  0  0  0  0  0  0  0
   17.5778   -3.1161  -14.4447 O   0  0  0  0  0  0  0  0  0  0  0  0
   22.3450   -4.6087  -13.8413 C   0  0  0  0  0  0  0  0  0  0  0  0
   22.9707   -3.5977  -14.1861 O   0  0  0  0  0  0  0  0  0  0  0  0
   18.4021   -1.0619  -14.8048 O   0  0  0  0  0  0  0  0  0  0  0  0
   22.7431   -5.1937  -12.6299 O   0  0  0  0  0  0  0  0  0  0  0  0
  2  1  1  1
  2  3  1  0
  3  4  1  0
  4  8  1  0
  4  5  2  0
  6  2  1  0
  7  6  2  0
 10  9  1  6
 10 11  1  0
 11  6  1  0
 12 10  1  0
 12 14  1  0
 13 12  2  0
 15 14  1  0
 15 16  1  1
 15 20  1  0
 16 17  1  0
 17 18  1  0
 18 22  1  0
 19 18  2  0
 20 21  2  0
 20 23  1  0
M  END
$$$$
