TPV.pdb
     RDKit          3D

 22 22  0  0  1  0  0  0  0  0999 V2000
    8.3838  -18.8011   21.0253 C   0  0  0  0  0  0  0  0  0  0  0  0
    9.8531  -18.4623   20.9075 C   0  0  1  0  0  0  0  0  0  0  0  0
   10.4674  -19.2249   19.9414 O   0  0  0  0  0  0  0  0  0  0  0  0
   10.0116  -16.9604   20.6394 C   0  0  2  0  0  0  0  0  0  0  0  0
   11.1331  -16.7358   19.8187 N   0  0  0  0  0  0  0  0  0  0  0  0
   10.0512  -16.2041   21.9081 C   0  0  0  0  0  0  0  0  0  0  0  0
   11.1645  -16.3981   22.5448 O   0  0  0  0  0  0  0  0  0  0  0  0
    9.0999  -15.3660   22.4594 N   0  0  0  0  0  0  0  0  0  0  0  0
    8.2598  -14.4205   21.7211 C   0  0  0  0  0  0  0  0  0  0  0  0
    6.8731  -14.7716   22.2908 C   0  0  0  0  0  0  0  0  0  0  0  0
    7.1427  -15.5965   23.5568 C   0  0  0  0  0  0  0  0  0  0  0  0
    8.6186  -15.2027   23.7861 C   0  0  1  0  0  0  0  0  0  0  0  0
    9.2306  -15.8141   24.9163 C   0  0  0  0  0  0  0  0  0  0  0  0
    9.4998  -17.0117   25.0450 O   0  0  0  0  0  0  0  0  0  0  0  0
    9.0134  -14.1894   28.9903 C   0  0  0  0  0  0  0  0  0  0  0  0
   10.3247  -14.4472   28.3058 C   0  0  2  0  0  0  0  0  0  0  0  0
   10.9303  -13.1695   27.7872 C   0  0  0  0  0  0  0  0  0  0  0  0
   10.2045  -15.4766   27.2048 C   0  0  2  0  0  0  0  0  0  0  0  0
    9.5754  -14.9737   26.0239 N   0  0  0  0  0  0  0  0  0  0  0  0
    9.4059  -16.6257   27.7012 C   0  0  0  0  0  0  0  0  0  0  0  0
    8.2105  -16.8081   27.3527 O   0  0  0  0  0  0  0  0  0  0  0  0
   10.0309  -17.5087   28.5777 O   0  0  0  0  0  0  0  0  0  0  0  0
  2  3  1  0
  2  1  1  6
  4  2  1  0
  4  5  1  1
  6  4  1  0
  7  6  2  0
  8  6  1  0
  8 12  1  0
  9 10  1  0
  9  8  1  0
 10 11  1  0
 11 12  1  0
 12 13  1  1
 13 19  1  0
 13 14  2  0
 16 18  1  0
 16 15  1  6
 17 16  1  0
 18 20  1  0
 18 19  1  6
 20 22  1  0
 21 20  2  0
M  END
$$$$
