TPV.pdb
     RDKit          3D

 22 22  0  0  1  0  0  0  0  0999 V2000
    8.4641  -16.9613   17.0037 C   0  0  0  0  0  0  0  0  0  0  0  0
    9.9616  -16.7978   16.8695 C   0  0  1  0  0  0  0  0  0  0  0  0
   10.3791  -17.0427   15.5819 O   0  0  0  0  0  0  0  0  0  0  0  0
   10.3681  -15.3982   17.3477 C   0  0  2  0  0  0  0  0  0  0  0  0
   11.7318  -15.1767   17.0776 N   0  0  0  0  0  0  0  0  0  0  0  0
   10.0123  -15.2075   18.7691 C   0  0  0  0  0  0  0  0  0  0  0  0
   10.5442  -16.1209   19.5209 O   0  0  0  0  0  0  0  0  0  0  0  0
    9.2288  -14.2296   19.3533 N   0  0  0  0  0  0  0  0  0  0  0  0
    9.1175  -12.8397   18.9053 C   0  0  0  0  0  0  0  0  0  0  0  0
    7.5868  -12.6766   18.8714 C   0  0  0  0  0  0  0  0  0  0  0  0
    7.0267  -13.8597   19.6728 C   0  0  0  0  0  0  0  0  0  0  0  0
    8.3095  -14.2570   20.4362 C   0  0  1  0  0  0  0  0  0  0  0  0
    8.1647  -15.3746   21.3054 C   0  0  0  0  0  0  0  0  0  0  0  0
    7.8151  -16.5133   20.9823 O   0  0  0  0  0  0  0  0  0  0  0  0
    8.8340  -14.7516   25.6211 C   0  0  0  0  0  0  0  0  0  0  0  0
    9.1579  -16.0241   24.8929 C   0  0  2  0  0  0  0  0  0  0  0  0
   10.6210  -16.0954   24.5427 C   0  0  0  0  0  0  0  0  0  0  0  0
    8.2962  -16.2181   23.6657 C   0  0  2  0  0  0  0  0  0  0  0  0
    8.4475  -15.1789   22.6960 N   0  0  0  0  0  0  0  0  0  0  0  0
    6.8703  -16.2631   24.0773 C   0  0  0  0  0  0  0  0  0  0  0  0
    6.0774  -15.3147   23.8420 O   0  0  0  0  0  0  0  0  0  0  0  0
    6.4315  -17.4052   24.7418 O   0  0  0  0  0  0  0  0  0  0  0  0
  2  3  1  0
  2  1  1  6
  4  2  1  0
  4  5  1  1
  6  4  1  0
  7  6  2  0
  8  6  1  0
  8 12  1  0
  9 10  1  0
  9  8  1  0
 10 11  1  0
 11 12  1  0
 12 13  1  6
 13 19  1  0
 13 14  2  0
 16 18  1  0
 16 15  1  6
 17 16  1  0
 18 20  1  0
 18 19  1  6
 20 22  1  0
 21 20  2  0
M  END
$$$$
