TPV.pdb
     RDKit          3D

 22 22  0  0  1  0  0  0  0  0999 V2000
   10.4984  -17.2408   19.9216 C   0  0  0  0  0  0  0  0  0  0  0  0
   11.7742  -16.4289   19.8972 C   0  0  1  0  0  0  0  0  0  0  0  0
   12.6730  -16.9348   18.9870 O   0  0  0  0  0  0  0  0  0  0  0  0
   11.4394  -14.9586   19.6160 C   0  0  2  0  0  0  0  0  0  0  0  0
   12.6229  -14.2345   19.3785 N   0  0  0  0  0  0  0  0  0  0  0  0
   10.6130  -14.3935   20.7027 C   0  0  0  0  0  0  0  0  0  0  0  0
   11.1685  -14.5633   21.8624 O   0  0  0  0  0  0  0  0  0  0  0  0
    9.3942  -13.7447   20.6307 N   0  0  0  0  0  0  0  0  0  0  0  0
    8.9113  -12.9513   19.4984 C   0  0  0  0  0  0  0  0  0  0  0  0
    7.5048  -13.5503   19.3144 C   0  0  0  0  0  0  0  0  0  0  0  0
    7.2169  -14.3335   20.6026 C   0  0  0  0  0  0  0  0  0  0  0  0
    8.2836  -13.6889   21.5151 C   0  0  1  0  0  0  0  0  0  0  0  0
    8.3203  -14.1996   22.8430 C   0  0  0  0  0  0  0  0  0  0  0  0
    8.8115  -15.2737   23.2013 O   0  0  0  0  0  0  0  0  0  0  0  0
    7.5420  -12.9835   27.6321 C   0  0  0  0  0  0  0  0  0  0  0  0
    7.2676  -12.6887   26.1857 C   0  0  2  0  0  0  0  0  0  0  0  0
    5.7927  -12.5170   25.9337 C   0  0  0  0  0  0  0  0  0  0  0  0
    7.8571  -13.7336   25.2653 C   0  0  2  0  0  0  0  0  0  0  0  0
    7.7346  -13.4037   23.8800 N   0  0  0  0  0  0  0  0  0  0  0  0
    7.1662  -15.0274   25.4960 C   0  0  0  0  0  0  0  0  0  0  0  0
    7.3339  -15.6953   26.5493 O   0  0  0  0  0  0  0  0  0  0  0  0
    6.3139  -15.4855   24.4949 O   0  0  0  0  0  0  0  0  0  0  0  0
  2  3  1  0
  2  1  1  6
  4  2  1  0
  4  5  1  1
  6  4  1  0
  7  6  2  0
  8  6  1  0
  8 12  1  0
  9 10  1  0
  9  8  1  0
 10 11  1  0
 11 12  1  0
 12 13  1  1
 13 19  1  0
 13 14  2  0
 16 18  1  0
 16 15  1  1
 17 16  1  0
 18 20  1  0
 18 19  1  6
 20 22  1  0
 21 20  2  0
M  END
$$$$
