TPV.pdb
     RDKit          3D

 22 22  0  0  1  0  0  0  0  0999 V2000
   10.4390  -15.6991   19.6110 C   0  0  0  0  0  0  0  0  0  0  0  0
   10.0407  -14.3495   19.0565 C   0  0  1  0  0  0  0  0  0  0  0  0
   10.5605  -14.1513   17.7984 O   0  0  0  0  0  0  0  0  0  0  0  0
    8.5123  -14.2210   19.0722 C   0  0  2  0  0  0  0  0  0  0  0  0
    8.1223  -13.0549   18.3871 N   0  0  0  0  0  0  0  0  0  0  0  0
    7.9960  -14.2904   20.4549 C   0  0  0  0  0  0  0  0  0  0  0  0
    8.5275  -13.3788   21.2092 O   0  0  0  0  0  0  0  0  0  0  0  0
    7.0698  -15.1587   21.0025 N   0  0  0  0  0  0  0  0  0  0  0  0
    5.9871  -15.8261   20.2765 C   0  0  0  0  0  0  0  0  0  0  0  0
    6.1828  -17.2777   20.7512 C   0  0  0  0  0  0  0  0  0  0  0  0
    7.0983  -17.1914   21.9800 C   0  0  0  0  0  0  0  0  0  0  0  0
    6.9121  -15.6937   22.3092 C   0  0  1  0  0  0  0  0  0  0  0  0
    7.6540  -15.2330   23.4330 C   0  0  0  0  0  0  0  0  0  0  0  0
    8.8746  -15.3232   23.5918 O   0  0  0  0  0  0  0  0  0  0  0  0
    6.1587  -12.0423   25.5770 C   0  0  0  0  0  0  0  0  0  0  0  0
    6.7229  -13.1247   26.4513 C   0  0  2  0  0  0  0  0  0  0  0  0
    7.4914  -12.5456   27.6099 C   0  0  0  0  0  0  0  0  0  0  0  0
    7.5708  -14.1063   25.6743 C   0  0  2  0  0  0  0  0  0  0  0  0
    6.9310  -14.5997   24.4952 N   0  0  0  0  0  0  0  0  0  0  0  0
    7.8921  -15.2647   26.5458 C   0  0  0  0  0  0  0  0  0  0  0  0
    7.1298  -16.2617   26.6389 O   0  0  0  0  0  0  0  0  0  0  0  0
    9.0813  -15.2123   27.2679 O   0  0  0  0  0  0  0  0  0  0  0  0
  2  3  1  0
  2  1  1  6
  4  2  1  0
  4  5  1  1
  6  4  1  0
  7  6  2  0
  8  6  1  0
  8 12  1  0
  9 10  1  0
  9  8  1  0
 10 11  1  0
 11 12  1  0
 12 13  1  1
 13 19  1  0
 13 14  2  0
 16 18  1  0
 16 15  1  6
 17 16  1  0
 18 20  1  0
 18 19  1  6
 20 22  1  0
 21 20  2  0
M  END
$$$$
