TPV.pdb
     RDKit          3D

 22 22  0  0  1  0  0  0  0  0999 V2000
    6.0620  -17.9117   20.6172 C   0  0  0  0  0  0  0  0  0  0  0  0
    7.4538  -18.4981   20.6974 C   0  0  1  0  0  0  0  0  0  0  0  0
    7.6153  -19.5301   19.8024 O   0  0  0  0  0  0  0  0  0  0  0  0
    8.4898  -17.3871   20.4846 C   0  0  2  0  0  0  0  0  0  0  0  0
    9.7701  -17.9498   20.3248 N   0  0  0  0  0  0  0  0  0  0  0  0
    8.4180  -16.3898   21.5725 C   0  0  0  0  0  0  0  0  0  0  0  0
    8.3707  -16.9574   22.7379 O   0  0  0  0  0  0  0  0  0  0  0  0
    8.3980  -15.0095   21.4968 N   0  0  0  0  0  0  0  0  0  0  0  0
    8.9968  -14.2009   20.4326 C   0  0  0  0  0  0  0  0  0  0  0  0
    7.8209  -13.2665   20.0935 C   0  0  0  0  0  0  0  0  0  0  0  0
    6.8372  -13.3976   21.2644 C   0  0  0  0  0  0  0  0  0  0  0  0
    7.7938  -14.0130   22.3095 C   0  0  1  0  0  0  0  0  0  0  0  0
    7.1982  -14.2941   23.5711 C   0  0  0  0  0  0  0  0  0  0  0  0
    6.3026  -15.1143   23.7918 O   0  0  0  0  0  0  0  0  0  0  0  0
    8.6637  -12.1857   27.2095 C   0  0  0  0  0  0  0  0  0  0  0  0
    7.9471  -13.5037   27.1517 C   0  0  2  0  0  0  0  0  0  0  0  0
    8.9189  -14.6543   27.1540 C   0  0  0  0  0  0  0  0  0  0  0  0
    7.0038  -13.5927   25.9732 C   0  0  2  0  0  0  0  0  0  0  0  0
    7.6706  -13.5636   24.7092 N   0  0  0  0  0  0  0  0  0  0  0  0
    6.0569  -12.4502   26.0235 C   0  0  0  0  0  0  0  0  0  0  0  0
    6.1903  -11.4396   25.2855 O   0  0  0  0  0  0  0  0  0  0  0  0
    5.0005  -12.5334   26.9266 O   0  0  0  0  0  0  0  0  0  0  0  0
  2  3  1  0
  2  1  1  6
  4  2  1  0
  4  5  1  1
  6  4  1  0
  7  6  2  0
  8  6  1  0
  8 12  1  0
  9 10  1  0
  9  8  1  0
 10 11  1  0
 11 12  1  0
 12 13  1  1
 13 19  1  0
 13 14  2  0
 16 18  1  0
 16 15  1  6
 17 16  1  0
 18 20  1  0
 18 19  1  6
 20 22  1  0
 21 20  2  0
M  END
$$$$
