TPV.pdb
     RDKit          3D

 22 22  0  0  1  0  0  0  0  0999 V2000
    7.7146  -18.4002   21.4082 C   0  0  0  0  0  0  0  0  0  0  0  0
    9.0452  -18.1423   20.7370 C   0  0  1  0  0  0  0  0  0  0  0  0
    9.1354  -18.8015   19.5331 O   0  0  0  0  0  0  0  0  0  0  0  0
    9.2544  -16.6308   20.5803 C   0  0  2  0  0  0  0  0  0  0  0  0
   10.2981  -16.3834   19.6688 N   0  0  0  0  0  0  0  0  0  0  0  0
    9.4605  -15.9922   21.8967 C   0  0  0  0  0  0  0  0  0  0  0  0
   10.5410  -16.4216   22.4716 O   0  0  0  0  0  0  0  0  0  0  0  0
    8.6847  -15.0490   22.5448 N   0  0  0  0  0  0  0  0  0  0  0  0
    7.8685  -14.0196   21.8976 C   0  0  0  0  0  0  0  0  0  0  0  0
    6.5340  -14.2090   22.6421 C   0  0  0  0  0  0  0  0  0  0  0  0
    6.8675  -15.0512   23.8812 C   0  0  0  0  0  0  0  0  0  0  0  0
    8.3950  -14.8245   23.9175 C   0  0  1  0  0  0  0  0  0  0  0  0
    9.0726  -15.4939   24.9750 C   0  0  0  0  0  0  0  0  0  0  0  0
    9.2989  -16.7050   25.0491 O   0  0  0  0  0  0  0  0  0  0  0  0
   11.0994  -14.9195   29.5122 C   0  0  0  0  0  0  0  0  0  0  0  0
   10.4747  -14.2773   28.3073 C   0  0  2  0  0  0  0  0  0  0  0  0
    9.2101  -13.5455   28.6726 C   0  0  0  0  0  0  0  0  0  0  0  0
   10.2252  -15.2687   27.1932 C   0  0  2  0  0  0  0  0  0  0  0  0
    9.5460  -14.7017   26.0706 N   0  0  0  0  0  0  0  0  0  0  0  0
    9.4011  -16.3876   27.7162 C   0  0  0  0  0  0  0  0  0  0  0  0
    8.1493  -16.4107   27.5892 O   0  0  0  0  0  0  0  0  0  0  0  0
   10.0670  -17.4263   28.3612 O   0  0  0  0  0  0  0  0  0  0  0  0
  2  3  1  0
  2  1  1  6
  4  2  1  0
  4  5  1  6
  6  4  1  0
  7  6  2  0
  8  6  1  0
  8 12  1  0
  9 10  1  0
  9  8  1  0
 10 11  1  0
 11 12  1  0
 12 13  1  1
 13 19  1  0
 13 14  2  0
 16 18  1  0
 16 15  1  1
 17 16  1  0
 18 20  1  0
 18 19  1  6
 20 22  1  0
 21 20  2  0
M  END
$$$$
