TPV.pdb
     RDKit          3D

 22 22  0  0  1  0  0  0  0  0999 V2000
    9.2618  -18.9990   21.7032 C   0  0  0  0  0  0  0  0  0  0  0  0
   10.6255  -18.4809   21.3042 C   0  0  1  0  0  0  0  0  0  0  0  0
   11.3041  -19.3968   20.5342 O   0  0  0  0  0  0  0  0  0  0  0  0
   10.4711  -17.1328   20.5888 C   0  0  2  0  0  0  0  0  0  0  0  0
   11.6842  -16.7771   19.9696 N   0  0  0  0  0  0  0  0  0  0  0  0
    9.9618  -16.1031   21.5181 C   0  0  0  0  0  0  0  0  0  0  0  0
   10.7535  -15.9425   22.5329 O   0  0  0  0  0  0  0  0  0  0  0  0
    8.8127  -15.3388   21.4356 N   0  0  0  0  0  0  0  0  0  0  0  0
    8.2113  -14.8260   20.2026 C   0  0  0  0  0  0  0  0  0  0  0  0
    6.7462  -15.2549   20.4044 C   0  0  0  0  0  0  0  0  0  0  0  0
    6.6204  -15.6105   21.8922 C   0  0  0  0  0  0  0  0  0  0  0  0
    7.8847  -14.8932   22.4148 C   0  0  1  0  0  0  0  0  0  0  0  0
    8.1086  -15.0225   23.8143 C   0  0  0  0  0  0  0  0  0  0  0  0
    8.6428  -15.9774   24.3854 O   0  0  0  0  0  0  0  0  0  0  0  0
    5.7326  -12.6115   26.5805 C   0  0  0  0  0  0  0  0  0  0  0  0
    7.2115  -12.7837   26.7742 C   0  0  2  0  0  0  0  0  0  0  0  0
    7.9663  -11.5573   26.3332 C   0  0  0  0  0  0  0  0  0  0  0  0
    7.7399  -14.0224   26.0866 C   0  0  2  0  0  0  0  0  0  0  0  0
    7.6785  -13.9496   24.6605 N   0  0  0  0  0  0  0  0  0  0  0  0
    6.9438  -15.1965   26.5250 C   0  0  0  0  0  0  0  0  0  0  0  0
    5.9644  -15.6245   25.8607 O   0  0  0  0  0  0  0  0  0  0  0  0
    7.3207  -15.8185   27.7122 O   0  0  0  0  0  0  0  0  0  0  0  0
  2  3  1  0
  2  1  1  6
  4  2  1  0
  4  5  1  1
  6  4  1  0
  7  6  2  0
  8  6  1  0
  8 12  1  0
  9 10  1  0
  9  8  1  0
 10 11  1  0
 11 12  1  0
 12 13  1  1
 13 19  1  0
 13 14  2  0
 16 18  1  0
 16 15  1  6
 17 16  1  0
 18 20  1  0
 18 19  1  6
 20 22  1  0
 21 20  2  0
M  END
$$$$
