TPV.pdb
     RDKit          3D

 22 22  0  0  1  0  0  0  0  0999 V2000
   10.0155  -19.2316   21.2695 C   0  0  0  0  0  0  0  0  0  0  0  0
   11.1248  -18.3774   20.6976 C   0  0  1  0  0  0  0  0  0  0  0  0
   11.6978  -18.9712   19.5970 O   0  0  0  0  0  0  0  0  0  0  0  0
   10.5804  -16.9798   20.3768 C   0  0  2  0  0  0  0  0  0  0  0  0
   11.3983  -16.3557   19.4159 N   0  0  0  0  0  0  0  0  0  0  0  0
   10.4159  -16.1865   21.6124 C   0  0  0  0  0  0  0  0  0  0  0  0
   11.5227  -16.1156   22.2851 O   0  0  0  0  0  0  0  0  0  0  0  0
    9.2905  -15.5504   22.1027 N   0  0  0  0  0  0  0  0  0  0  0  0
    8.2605  -14.8898   21.2980 C   0  0  0  0  0  0  0  0  0  0  0  0
    6.9882  -15.5062   21.9081 C   0  0  0  0  0  0  0  0  0  0  0  0
    7.4302  -16.1395   23.2344 C   0  0  0  0  0  0  0  0  0  0  0  0
    8.7718  -15.3958   23.4164 C   0  0  1  0  0  0  0  0  0  0  0  0
    9.4985  -15.7536   24.5866 C   0  0  0  0  0  0  0  0  0  0  0  0
   10.1344  -16.7965   24.7636 O   0  0  0  0  0  0  0  0  0  0  0  0
   11.0893  -14.1272   29.0415 C   0  0  0  0  0  0  0  0  0  0  0  0
   10.3477  -13.8419   27.7675 C   0  0  2  0  0  0  0  0  0  0  0  0
    8.9962  -13.2383   28.0459 C   0  0  0  0  0  0  0  0  0  0  0  0
   10.2244  -15.0663   26.8889 C   0  0  2  0  0  0  0  0  0  0  0  0
    9.5045  -14.8255   25.6777 N   0  0  0  0  0  0  0  0  0  0  0  0
    9.5191  -16.1339   27.6421 C   0  0  0  0  0  0  0  0  0  0  0  0
    8.2972  -16.3785   27.4672 O   0  0  0  0  0  0  0  0  0  0  0  0
   10.2637  -16.8671   28.5622 O   0  0  0  0  0  0  0  0  0  0  0  0
  2  3  1  0
  2  1  1  6
  4  2  1  0
  4  5  1  6
  6  4  1  0
  7  6  2  0
  8  6  1  0
  8 12  1  0
  9 10  1  0
  9  8  1  0
 10 11  1  0
 11 12  1  0
 12 13  1  1
 13 19  1  0
 13 14  2  0
 16 18  1  0
 16 15  1  1
 17 16  1  0
 18 20  1  0
 18 19  1  6
 20 22  1  0
 21 20  2  0
M  END
$$$$
