TPV.pdb
     RDKit          3D

 22 22  0  0  1  0  0  0  0  0999 V2000
    5.3146  -17.5107   23.7449 C   0  0  0  0  0  0  0  0  0  0  0  0
    6.6171  -18.2701   23.8646 C   0  0  1  0  0  0  0  0  0  0  0  0
    6.4014  -19.6267   23.9381 O   0  0  0  0  0  0  0  0  0  0  0  0
    7.5354  -17.8981   22.6935 C   0  0  2  0  0  0  0  0  0  0  0  0
    8.4695  -18.9275   22.4713 N   0  0  0  0  0  0  0  0  0  0  0  0
    8.1588  -16.5773   22.9171 C   0  0  0  0  0  0  0  0  0  0  0  0
    8.5882  -16.4521   24.1346 O   0  0  0  0  0  0  0  0  0  0  0  0
    8.3277  -15.5267   22.0343 N   0  0  0  0  0  0  0  0  0  0  0  0
    8.5599  -15.6472   20.5934 C   0  0  0  0  0  0  0  0  0  0  0  0
    7.5115  -14.6560   20.0555 C   0  0  0  0  0  0  0  0  0  0  0  0
    7.0835  -13.8106   21.2629 C   0  0  0  0  0  0  0  0  0  0  0  0
    8.2729  -14.1167   22.1997 C   0  0  1  0  0  0  0  0  0  0  0  0
    8.2072  -13.4849   23.4733 C   0  0  0  0  0  0  0  0  0  0  0  0
    7.8959  -12.3111   23.6934 O   0  0  0  0  0  0  0  0  0  0  0  0
    6.1882  -13.7326   26.2946 C   0  0  0  0  0  0  0  0  0  0  0  0
    7.4492  -12.9215   26.3725 C   0  0  2  0  0  0  0  0  0  0  0  0
    7.3223  -11.6387   25.5937 C   0  0  0  0  0  0  0  0  0  0  0  0
    8.6643  -13.7060   25.9314 C   0  0  2  0  0  0  0  0  0  0  0  0
    8.5309  -14.2719   24.6256 N   0  0  0  0  0  0  0  0  0  0  0  0
    8.9022  -14.8118   26.8932 C   0  0  0  0  0  0  0  0  0  0  0  0
    8.7426  -16.0189   26.5752 O   0  0  0  0  0  0  0  0  0  0  0  0
    9.3136  -14.4660   28.1775 O   0  0  0  0  0  0  0  0  0  0  0  0
  2  3  1  0
  2  1  1  6
  4  2  1  0
  4  5  1  1
  6  4  1  0
  7  6  2  0
  8  6  1  0
  8 12  1  0
  9 10  1  0
  9  8  1  0
 10 11  1  0
 11 12  1  0
 12 13  1  1
 13 19  1  0
 13 14  2  0
 16 18  1  0
 16 15  1  6
 17 16  1  0
 18 20  1  0
 18 19  1  6
 20 22  1  0
 21 20  2  0
M  END
$$$$
