TPV.pdb
     RDKit          3D

 22 22  0  0  1  0  0  0  0  0999 V2000
   10.9414  -14.9107   20.2073 C   0  0  0  0  0  0  0  0  0  0  0  0
   10.3026  -13.7477   19.4817 C   0  0  1  0  0  0  0  0  0  0  0  0
   10.8534  -13.5722   18.2335 O   0  0  0  0  0  0  0  0  0  0  0  0
    8.7848  -13.9585   19.4142 C   0  0  2  0  0  0  0  0  0  0  0  0
    8.1998  -12.9725   18.5974 N   0  0  0  0  0  0  0  0  0  0  0  0
    8.2042  -14.0171   20.7716 C   0  0  0  0  0  0  0  0  0  0  0  0
    8.4940  -12.9572   21.4609 O   0  0  0  0  0  0  0  0  0  0  0  0
    7.4355  -15.0075   21.3546 N   0  0  0  0  0  0  0  0  0  0  0  0
    6.4544  -15.8481   20.6650 C   0  0  0  0  0  0  0  0  0  0  0  0
    6.8828  -17.2426   21.1576 C   0  0  0  0  0  0  0  0  0  0  0  0
    7.7994  -16.9921   22.3629 C   0  0  0  0  0  0  0  0  0  0  0  0
    7.3902  -15.5353   22.6729 C   0  0  1  0  0  0  0  0  0  0  0  0
    8.0750  -14.9439   23.7715 C   0  0  0  0  0  0  0  0  0  0  0  0
    9.2982  -14.8810   23.9239 O   0  0  0  0  0  0  0  0  0  0  0  0
    5.6715  -13.1428   27.0112 C   0  0  0  0  0  0  0  0  0  0  0  0
    7.0168  -12.6509   26.5613 C   0  0  2  0  0  0  0  0  0  0  0  0
    6.8836  -11.5005   25.5984 C   0  0  0  0  0  0  0  0  0  0  0  0
    7.8643  -13.7560   25.9724 C   0  0  2  0  0  0  0  0  0  0  0  0
    7.2848  -14.3591   24.8133 N   0  0  0  0  0  0  0  0  0  0  0  0
    8.0602  -14.8138   26.9957 C   0  0  0  0  0  0  0  0  0  0  0  0
    7.4289  -15.9019   26.9603 O   0  0  0  0  0  0  0  0  0  0  0  0
    8.9782  -14.5601   28.0112 O   0  0  0  0  0  0  0  0  0  0  0  0
  2  3  1  0
  2  1  1  6
  4  2  1  0
  4  5  1  6
  6  4  1  0
  7  6  2  0
  8  6  1  0
  8 12  1  0
  9 10  1  0
  9  8  1  0
 10 11  1  0
 11 12  1  0
 12 13  1  1
 13 19  1  0
 13 14  2  0
 16 18  1  0
 16 15  1  6
 17 16  1  0
 18 20  1  0
 18 19  1  6
 20 22  1  0
 21 20  2  0
M  END
$$$$
