TPV.pdb
     RDKit          3D

 22 22  0  0  1  0  0  0  0  0999 V2000
    9.2811  -18.9733   21.7703 C   0  0  0  0  0  0  0  0  0  0  0  0
   10.6628  -18.4450   21.4552 C   0  0  1  0  0  0  0  0  0  0  0  0
   11.3924  -19.3539   20.7248 O   0  0  0  0  0  0  0  0  0  0  0  0
   10.5425  -17.0956   20.7358 C   0  0  2  0  0  0  0  0  0  0  0  0
   11.7867  -16.7327   20.1864 N   0  0  0  0  0  0  0  0  0  0  0  0
    9.9772  -16.0708   21.6377 C   0  0  0  0  0  0  0  0  0  0  0  0
   10.7338  -15.8765   22.6731 O   0  0  0  0  0  0  0  0  0  0  0  0
    8.8099  -15.3405   21.5128 N   0  0  0  0  0  0  0  0  0  0  0  0
    8.2344  -14.8529   20.2575 C   0  0  0  0  0  0  0  0  0  0  0  0
    6.7765  -15.3227   20.4150 C   0  0  0  0  0  0  0  0  0  0  0  0
    6.6127  -15.6727   21.9003 C   0  0  0  0  0  0  0  0  0  0  0  0
    7.8383  -14.9160   22.4584 C   0  0  1  0  0  0  0  0  0  0  0  0
    8.0203  -15.0303   23.8653 C   0  0  0  0  0  0  0  0  0  0  0  0
    8.4930  -15.9991   24.4664 O   0  0  0  0  0  0  0  0  0  0  0  0
    5.5961  -12.6239   26.5100 C   0  0  0  0  0  0  0  0  0  0  0  0
    7.0713  -12.7387   26.7650 C   0  0  2  0  0  0  0  0  0  0  0  0
    7.7970  -11.4875   26.3452 C   0  0  0  0  0  0  0  0  0  0  0  0
    7.6735  -13.9609   26.1094 C   0  0  2  0  0  0  0  0  0  0  0  0
    7.6216  -13.9226   24.6815 N   0  0  0  0  0  0  0  0  0  0  0  0
    6.9391  -15.1674   26.5671 C   0  0  0  0  0  0  0  0  0  0  0  0
    5.9799  -15.6532   25.9132 O   0  0  0  0  0  0  0  0  0  0  0  0
    7.3515  -15.7535   27.7609 O   0  0  0  0  0  0  0  0  0  0  0  0
  2  3  1  0
  2  1  1  6
  4  2  1  0
  4  5  1  1
  6  4  1  0
  7  6  2  0
  8  6  1  0
  8 12  1  0
  9 10  1  0
  9  8  1  0
 10 11  1  0
 11 12  1  0
 12 13  1  1
 13 19  1  0
 13 14  2  0
 16 18  1  0
 16 15  1  6
 17 16  1  0
 18 20  1  0
 18 19  1  6
 20 22  1  0
 21 20  2  0
M  END
$$$$
