TPV.pdb
     RDKit          3D

 22 22  0  0  1  0  0  0  0  0999 V2000
    9.7100  -19.0185   21.7299 C   0  0  0  0  0  0  0  0  0  0  0  0
   10.9149  -18.2800   21.1913 C   0  0  1  0  0  0  0  0  0  0  0  0
   11.6976  -19.0993   20.4113 O   0  0  0  0  0  0  0  0  0  0  0  0
   10.4511  -17.0332   20.4275 C   0  0  2  0  0  0  0  0  0  0  0  0
   11.5016  -16.5414   19.6299 N   0  0  0  0  0  0  0  0  0  0  0  0
    9.8982  -16.0263   21.3569 C   0  0  0  0  0  0  0  0  0  0  0  0
   10.7418  -15.7298   22.2964 O   0  0  0  0  0  0  0  0  0  0  0  0
    8.6645  -15.4025   21.3410 N   0  0  0  0  0  0  0  0  0  0  0  0
    7.9176  -15.0107   20.1437 C   0  0  0  0  0  0  0  0  0  0  0  0
    6.5319  -15.5964   20.4721 C   0  0  0  0  0  0  0  0  0  0  0  0
    6.5590  -15.9054   21.9753 C   0  0  0  0  0  0  0  0  0  0  0  0
    7.7656  -15.0280   22.3757 C   0  0  1  0  0  0  0  0  0  0  0  0
    8.1060  -15.0759   23.7568 C   0  0  0  0  0  0  0  0  0  0  0  0
    8.7614  -15.9575   24.3194 O   0  0  0  0  0  0  0  0  0  0  0  0
    5.7304  -12.7455   26.5357 C   0  0  0  0  0  0  0  0  0  0  0  0
    7.2223  -12.8032   26.6944 C   0  0  2  0  0  0  0  0  0  0  0  0
    7.8718  -11.5311   26.2168 C   0  0  0  0  0  0  0  0  0  0  0  0
    7.8257  -14.0099   26.0117 C   0  0  2  0  0  0  0  0  0  0  0  0
    7.6524  -14.0048   24.5929 N   0  0  0  0  0  0  0  0  0  0  0  0
    7.1913  -15.2392   26.5511 C   0  0  0  0  0  0  0  0  0  0  0  0
    6.2187  -15.7951   25.9779 O   0  0  0  0  0  0  0  0  0  0  0  0
    7.7145  -15.7656   27.7291 O   0  0  0  0  0  0  0  0  0  0  0  0
  2  3  1  0
  2  1  1  6
  4  2  1  0
  4  5  1  1
  6  4  1  0
  7  6  2  0
  8  6  1  0
  8 12  1  0
  9 10  1  0
  9  8  1  0
 10 11  1  0
 11 12  1  0
 12 13  1  1
 13 19  1  0
 13 14  2  0
 16 18  1  0
 16 15  1  6
 17 16  1  0
 18 20  1  0
 18 19  1  6
 20 22  1  0
 21 20  2  0
M  END
$$$$
