TPV.pdb
     RDKit          3D

 22 22  0  0  1  0  0  0  0  0999 V2000
   11.7981  -19.4875   21.8756 C   0  0  0  0  0  0  0  0  0  0  0  0
   12.3753  -18.2469   21.2314 C   0  0  1  0  0  0  0  0  0  0  0  0
   13.0498  -18.5517   20.0719 O   0  0  0  0  0  0  0  0  0  0  0  0
   11.2551  -17.2268   20.9917 C   0  0  2  0  0  0  0  0  0  0  0  0
   11.6455  -16.3111   19.9965 N   0  0  0  0  0  0  0  0  0  0  0  0
   10.8556  -16.5815   22.2595 C   0  0  0  0  0  0  0  0  0  0  0  0
   11.8855  -16.1583   22.9249 O   0  0  0  0  0  0  0  0  0  0  0  0
    9.5914  -16.3878   22.7846 N   0  0  0  0  0  0  0  0  0  0  0  0
    8.3728  -16.1338   22.0130 C   0  0  0  0  0  0  0  0  0  0  0  0
    7.4189  -17.1635   22.6462 C   0  0  0  0  0  0  0  0  0  0  0  0
    8.0924  -17.6021   23.9537 C   0  0  0  0  0  0  0  0  0  0  0  0
    9.0871  -16.4310   24.1121 C   0  0  1  0  0  0  0  0  0  0  0  0
    9.9247  -16.5107   25.2600 C   0  0  0  0  0  0  0  0  0  0  0  0
   10.8281  -17.3294   25.4521 O   0  0  0  0  0  0  0  0  0  0  0  0
    8.9842  -14.0776   28.8745 C   0  0  0  0  0  0  0  0  0  0  0  0
   10.3588  -14.2736   28.3033 C   0  0  2  0  0  0  0  0  0  0  0  0
   10.7777  -13.0908   27.4704 C   0  0  0  0  0  0  0  0  0  0  0  0
   10.4753  -15.5596   27.5166 C   0  0  2  0  0  0  0  0  0  0  0  0
    9.7141  -15.5557   26.3068 N   0  0  0  0  0  0  0  0  0  0  0  0
   10.0008  -16.6870   28.3584 C   0  0  0  0  0  0  0  0  0  0  0  0
    8.8977  -17.2563   28.1516 O   0  0  0  0  0  0  0  0  0  0  0  0
   10.8273  -17.1007   29.3996 O   0  0  0  0  0  0  0  0  0  0  0  0
  2  3  1  0
  2  1  1  6
  4  2  1  0
  4  5  1  6
  6  4  1  0
  7  6  2  0
  8  6  1  0
  8 12  1  0
  9 10  1  0
  9  8  1  0
 10 11  1  0
 11 12  1  0
 12 13  1  1
 13 19  1  0
 13 14  2  0
 16 18  1  0
 16 15  1  6
 17 16  1  0
 18 20  1  0
 18 19  1  6
 20 22  1  0
 21 20  2  0
M  END
$$$$
