TPV.pdb
     RDKit          3D

 22 22  0  0  1  0  0  0  0  0999 V2000
    7.2133  -17.6168   17.0503 C   0  0  0  0  0  0  0  0  0  0  0  0
    8.3611  -17.2102   16.1533 C   0  0  1  0  0  0  0  0  0  0  0  0
    8.0925  -17.4963   14.8349 O   0  0  0  0  0  0  0  0  0  0  0  0
    8.6740  -15.7236   16.3653 C   0  0  2  0  0  0  0  0  0  0  0  0
    9.4932  -15.2528   15.3219 N   0  0  0  0  0  0  0  0  0  0  0  0
    9.2449  -15.4959   17.7089 C   0  0  0  0  0  0  0  0  0  0  0  0
   10.0815  -16.4314   18.0369 O   0  0  0  0  0  0  0  0  0  0  0  0
    9.0068  -14.4658   18.5998 N   0  0  0  0  0  0  0  0  0  0  0  0
    8.7721  -13.0641   18.2461 C   0  0  0  0  0  0  0  0  0  0  0  0
    7.5070  -12.7729   19.0743 C   0  0  0  0  0  0  0  0  0  0  0  0
    7.4051  -13.9183   20.0908 C   0  0  0  0  0  0  0  0  0  0  0  0
    8.8589  -14.4344   20.0125 C   0  0  1  0  0  0  0  0  0  0  0  0
    9.1418  -15.5505   20.8491 C   0  0  0  0  0  0  0  0  0  0  0  0
    8.4989  -16.6023   20.9093 O   0  0  0  0  0  0  0  0  0  0  0  0
   12.8956  -16.7916   21.5187 C   0  0  0  0  0  0  0  0  0  0  0  0
   12.1489  -16.6263   22.8108 C   0  0  2  0  0  0  0  0  0  0  0  0
   12.4815  -17.7312   23.7787 C   0  0  0  0  0  0  0  0  0  0  0  0
   10.6553  -16.5204   22.6008 C   0  0  2  0  0  0  0  0  0  0  0  0
   10.2804  -15.4639   21.7140 N   0  0  0  0  0  0  0  0  0  0  0  0
    9.9978  -16.2808   23.9104 C   0  0  0  0  0  0  0  0  0  0  0  0
    9.6151  -15.1359   24.2656 O   0  0  0  0  0  0  0  0  0  0  0  0
    9.8154  -17.3796   24.7457 O   0  0  0  0  0  0  0  0  0  0  0  0
  2  3  1  0
  2  1  1  1
  4  2  1  0
  4  5  1  6
  6  4  1  0
  7  6  2  0
  8  6  1  0
  8 12  1  0
  9 10  1  0
  9  8  1  0
 10 11  1  0
 11 12  1  0
 12 13  1  6
 13 19  1  0
 13 14  2  0
 16 18  1  0
 16 15  1  6
 17 16  1  0
 18 20  1  0
 18 19  1  6
 20 22  1  0
 21 20  2  0
M  END
$$$$
