AMW.pdb
     RDKit          3D

 28 29  0  0  1  0  0  0  0  0999 V2000
   28.8182  -18.1139  -15.4233 C   0  0  0  0  0  0  0  0  0  0  0  0
   28.5077  -19.4212  -14.7176 C   0  0  2  0  0  0  0  0  0  0  0  0
   28.0153  -20.3290  -15.7378 N   0  0  0  0  0  0  0  0  0  0  0  0
   27.4770  -19.1984  -13.6700 C   0  0  0  0  0  0  0  0  0  0  0  0
   26.7276  -18.1718  -13.6717 O   0  0  0  0  0  0  0  0  0  0  0  0
   22.3162  -18.5946  -13.0548 C   0  0  0  0  0  0  0  0  0  0  0  0
   22.4148  -20.3871  -13.4000 S   0  0  0  0  0  0  0  0  0  0  0  0
   23.6737  -21.0809  -12.2939 C   0  0  0  0  0  0  0  0  0  0  0  0
   25.0375  -20.9537  -12.8763 C   0  0  0  0  0  0  0  0  0  0  0  0
   26.0314  -20.2823  -11.9660 C   0  0  2  0  0  0  0  0  0  0  0  0
   27.3137  -20.1528  -12.6305 N   0  0  0  0  0  0  0  0  0  0  0  0
   26.1791  -20.9425  -10.6703 C   0  0  0  0  0  0  0  0  0  0  0  0
   26.7078  -22.0681  -10.4951 O   0  0  0  0  0  0  0  0  0  0  0  0
   25.6970  -20.2809   -9.5104 N   0  0  0  0  0  0  0  0  0  0  0  0
   25.7408  -20.9327   -8.1930 C   0  0  1  0  0  0  0  0  0  0  0  0
   25.6044  -19.8951   -7.0970 C   0  0  0  0  0  0  0  0  0  0  0  0
   26.9484  -19.3684   -6.7901 C   0  0  0  0  0  0  0  0  0  0  0  0
   27.6372  -18.3640   -7.4718 C   0  0  0  0  0  0  0  0  0  0  0  0
   28.8325  -18.1718   -6.8981 N   0  0  0  0  0  0  0  0  0  0  0  0
   28.9599  -19.0128   -5.8609 C   0  0  0  0  0  0  0  0  0  0  0  0
   30.0067  -19.2032   -4.9526 C   0  0  0  0  0  0  0  0  0  0  0  0
   29.8666  -20.1523   -3.9704 C   0  0  0  0  0  0  0  0  0  0  0  0
   28.7028  -20.8872   -3.9085 C   0  0  0  0  0  0  0  0  0  0  0  0
   27.6668  -20.7155   -4.7885 C   0  0  0  0  0  0  0  0  0  0  0  0
   27.8073  -19.7605   -5.7770 C   0  0  0  0  0  0  0  0  0  0  0  0
   24.5945  -21.8423   -8.1147 C   0  0  0  0  0  0  0  0  0  0  0  0
   23.7171  -21.8178   -9.0000 O   0  0  0  0  0  0  0  0  0  0  0  0
   24.4752  -22.7270   -7.0706 O   0  0  0  0  0  0  0  0  0  0  0  0
  2  1  1  6
  3  2  1  0
  4 11  1  0
  4  2  1  0
  5  4  2  0
  6  7  1  0
  8  7  1  0
  9  8  1  0
 10  9  1  6
 10 11  1  0
 12 10  1  0
 12 14  1  0
 13 12  2  0
 15 14  1  0
 15 16  1  1
 16 17  1  0
 17 25  1  0
 18 19  1  0
 18 17  2  0
 19 20  1  0
 20 25  2  0
 20 21  1  0
 21 22  2  0
 22 23  1  0
 24 23  2  0
 25 24  1  0
 26 15  1  0
 27 26  2  0
 28 26  1  0
M  END
$$$$
