AMW.pdb
     RDKit          3D

 28 29  0  0  1  0  0  0  0  0999 V2000
   25.0390  -23.0000  -17.8275 C   0  0  0  0  0  0  0  0  0  0  0  0
   24.3617  -22.4464  -16.5872 C   0  0  2  0  0  0  0  0  0  0  0  0
   23.7424  -21.1949  -16.9844 N   0  0  0  0  0  0  0  0  0  0  0  0
   25.3699  -22.2187  -15.5190 C   0  0  0  0  0  0  0  0  0  0  0  0
   26.0360  -23.1733  -15.0086 O   0  0  0  0  0  0  0  0  0  0  0  0
   27.7449  -16.5491  -15.6479 C   0  0  0  0  0  0  0  0  0  0  0  0
   29.0707  -17.8074  -15.6743 S   0  0  0  0  0  0  0  0  0  0  0  0
   28.2885  -19.4209  -15.4013 C   0  0  0  0  0  0  0  0  0  0  0  0
   27.3219  -19.3710  -14.2705 C   0  0  0  0  0  0  0  0  0  0  0  0
   26.6058  -20.6716  -14.0200 C   0  0  2  0  0  0  0  0  0  0  0  0
   25.6063  -20.9005  -15.0452 N   0  0  0  0  0  0  0  0  0  0  0  0
   26.0169  -20.7693  -12.6857 C   0  0  0  0  0  0  0  0  0  0  0  0
   24.8260  -20.4864  -12.4050 O   0  0  0  0  0  0  0  0  0  0  0  0
   26.8328  -21.2150  -11.6126 N   0  0  0  0  0  0  0  0  0  0  0  0
   26.3649  -21.1341  -10.2209 C   0  0  1  0  0  0  0  0  0  0  0  0
   27.5024  -21.4554   -9.2726 C   0  0  0  0  0  0  0  0  0  0  0  0
   27.1993  -20.8441   -7.9640 C   0  0  0  0  0  0  0  0  0  0  0  0
   25.9412  -20.5146   -7.4576 C   0  0  0  0  0  0  0  0  0  0  0  0
   26.0765  -19.9704   -6.2409 N   0  0  0  0  0  0  0  0  0  0  0  0
   27.3791  -19.9279   -5.9235 C   0  0  0  0  0  0  0  0  0  0  0  0
   28.0336  -19.4574   -4.7801 C   0  0  0  0  0  0  0  0  0  0  0  0
   29.4030  -19.5375   -4.7210 C   0  0  0  0  0  0  0  0  0  0  0  0
   30.0902  -20.0772   -5.7863 C   0  0  0  0  0  0  0  0  0  0  0  0
   29.4674  -20.5430   -6.9143 C   0  0  0  0  0  0  0  0  0  0  0  0
   28.0894  -20.4626   -6.9742 C   0  0  0  0  0  0  0  0  0  0  0  0
   25.9378  -19.7530   -9.9806 C   0  0  0  0  0  0  0  0  0  0  0  0
   24.8752  -19.5261   -9.3693 O   0  0  0  0  0  0  0  0  0  0  0  0
   26.6997  -18.6994  -10.4240 O   0  0  0  0  0  0  0  0  0  0  0  0
  2  1  1  6
  3  2  1  0
  4 11  1  0
  4  2  1  0
  5  4  2  0
  6  7  1  0
  8  7  1  0
  9  8  1  0
 10  9  1  6
 10 11  1  0
 12 10  1  0
 12 14  1  0
 13 12  2  0
 15 14  1  0
 15 16  1  1
 16 17  1  0
 17 25  1  0
 18 19  1  0
 18 17  2  0
 19 20  1  0
 20 25  2  0
 20 21  1  0
 21 22  2  0
 22 23  1  0
 24 23  2  0
 25 24  1  0
 26 15  1  0
 27 26  2  0
 28 26  1  0
M  END
$$$$
