AMW.pdb
     RDKit          3D

 28 29  0  0  1  0  0  0  0  0999 V2000
   26.2492  -19.5237  -17.7392 C   0  0  0  0  0  0  0  0  0  0  0  0
   27.5609  -20.1609  -17.3185 C   0  0  2  0  0  0  0  0  0  0  0  0
   27.8462  -21.1932  -18.2987 N   0  0  0  0  0  0  0  0  0  0  0  0
   27.4252  -20.7486  -15.9600 C   0  0  0  0  0  0  0  0  0  0  0  0
   26.7265  -21.7882  -15.7438 O   0  0  0  0  0  0  0  0  0  0  0  0
   30.8571  -21.7563   -9.0143 C   0  0  0  0  0  0  0  0  0  0  0  0
   30.9516  -20.9581  -10.6562 S   0  0  0  0  0  0  0  0  0  0  0  0
   29.3478  -21.2019  -11.4675 C   0  0  0  0  0  0  0  0  0  0  0  0
   29.3317  -20.6014  -12.8294 C   0  0  0  0  0  0  0  0  0  0  0  0
   28.0169  -20.7501  -13.5480 C   0  0  2  0  0  0  0  0  0  0  0  0
   28.0908  -20.1411  -14.8618 N   0  0  0  0  0  0  0  0  0  0  0  0
   26.8756  -20.2321  -12.7959 C   0  0  0  0  0  0  0  0  0  0  0  0
   26.4940  -19.0356  -12.8054 O   0  0  0  0  0  0  0  0  0  0  0  0
   26.1285  -21.1296  -11.9885 N   0  0  0  0  0  0  0  0  0  0  0  0
   24.9424  -20.6747  -11.2479 C   0  0  1  0  0  0  0  0  0  0  0  0
   23.7105  -21.4041  -11.7446 C   0  0  0  0  0  0  0  0  0  0  0  0
   22.7034  -20.3978  -12.1333 C   0  0  0  0  0  0  0  0  0  0  0  0
   22.6761  -19.6401  -13.3051 C   0  0  0  0  0  0  0  0  0  0  0  0
   21.6091  -18.8300  -13.2900 N   0  0  0  0  0  0  0  0  0  0  0  0
   20.9290  -19.0242  -12.1503 C   0  0  0  0  0  0  0  0  0  0  0  0
   19.7592  -18.4313  -11.6633 C   0  0  0  0  0  0  0  0  0  0  0  0
   19.2754  -18.8277  -10.4410 C   0  0  0  0  0  0  0  0  0  0  0  0
   19.9541  -19.7947   -9.7322 C   0  0  0  0  0  0  0  0  0  0  0  0
   21.1008  -20.3870  -10.1920 C   0  0  0  0  0  0  0  0  0  0  0  0
   21.5881  -19.9884  -11.4219 C   0  0  0  0  0  0  0  0  0  0  0  0
   25.1466  -21.0177   -9.8379 C   0  0  0  0  0  0  0  0  0  0  0  0
   25.8794  -21.9779   -9.5293 O   0  0  0  0  0  0  0  0  0  0  0  0
   24.5361  -20.2887   -8.8464 O   0  0  0  0  0  0  0  0  0  0  0  0
  2  1  1  6
  3  2  1  0
  4 11  1  0
  4  2  1  0
  5  4  2  0
  6  7  1  0
  8  7  1  0
  9  8  1  0
 10  9  1  1
 10 11  1  0
 12 10  1  0
 12 14  1  0
 13 12  2  0
 15 14  1  0
 15 16  1  6
 16 17  1  0
 17 25  1  0
 18 19  1  0
 18 17  2  0
 19 20  1  0
 20 25  2  0
 20 21  1  0
 21 22  2  0
 22 23  1  0
 24 23  2  0
 25 24  1  0
 26 15  1  0
 27 26  2  0
 28 26  1  0
M  END
$$$$
