AMW.pdb
     RDKit          3D

 28 29  0  0  1  0  0  0  0  0999 V2000
   28.1083  -24.8972  -18.3816 C   0  0  0  0  0  0  0  0  0  0  0  0
   28.7984  -23.5945  -18.7425 C   0  0  2  0  0  0  0  0  0  0  0  0
   30.1395  -23.9481  -19.1714 N   0  0  0  0  0  0  0  0  0  0  0  0
   28.8442  -22.7004  -17.5560 C   0  0  0  0  0  0  0  0  0  0  0  0
   29.9295  -22.1796  -17.1481 O   0  0  0  0  0  0  0  0  0  0  0  0
   28.3010  -18.0764  -19.2018 C   0  0  0  0  0  0  0  0  0  0  0  0
   28.2100  -17.3358  -17.5330 S   0  0  0  0  0  0  0  0  0  0  0  0
   27.8353  -18.6748  -16.3684 C   0  0  0  0  0  0  0  0  0  0  0  0
   27.8723  -20.0033  -17.0386 C   0  0  0  0  0  0  0  0  0  0  0  0
   27.5178  -21.1544  -16.1352 C   0  0  2  0  0  0  0  0  0  0  0  0
   27.6473  -22.4106  -16.8477 N   0  0  0  0  0  0  0  0  0  0  0  0
   26.1953  -21.0348  -15.5242 C   0  0  0  0  0  0  0  0  0  0  0  0
   25.1076  -21.1876  -16.1331 O   0  0  0  0  0  0  0  0  0  0  0  0
   26.1099  -20.7237  -14.1417 N   0  0  0  0  0  0  0  0  0  0  0  0
   24.8069  -20.5354  -13.4865 C   0  0  1  0  0  0  0  0  0  0  0  0
   24.9692  -19.6778  -12.2477 C   0  0  0  0  0  0  0  0  0  0  0  0
   23.9411  -20.0813  -11.2689 C   0  0  0  0  0  0  0  0  0  0  0  0
   22.5662  -20.1868  -11.4841 C   0  0  0  0  0  0  0  0  0  0  0  0
   21.9637  -20.5731  -10.3515 N   0  0  0  0  0  0  0  0  0  0  0  0
   22.8905  -20.7273   -9.3941 C   0  0  0  0  0  0  0  0  0  0  0  0
   22.7752  -21.1123   -8.0542 C   0  0  0  0  0  0  0  0  0  0  0  0
   23.9115  -21.1882   -7.2871 C   0  0  0  0  0  0  0  0  0  0  0  0
   25.1280  -20.8839   -7.8578 C   0  0  0  0  0  0  0  0  0  0  0  0
   25.2613  -20.5050   -9.1678 C   0  0  0  0  0  0  0  0  0  0  0  0
   24.1182  -20.4285   -9.9401 C   0  0  0  0  0  0  0  0  0  0  0  0
   23.9391  -19.8259  -14.4304 C   0  0  0  0  0  0  0  0  0  0  0  0
   24.3935  -18.8833  -15.1081 O   0  0  0  0  0  0  0  0  0  0  0  0
   22.6227  -20.1898  -14.5778 O   0  0  0  0  0  0  0  0  0  0  0  0
  2  1  1  1
  3  2  1  0
  4 11  1  0
  4  2  1  0
  5  4  2  0
  6  7  1  0
  8  7  1  0
  9  8  1  0
 10  9  1  6
 10 11  1  0
 12 10  1  0
 12 14  1  0
 13 12  2  0
 15 14  1  0
 15 16  1  1
 16 17  1  0
 17 25  1  0
 18 19  1  0
 18 17  2  0
 19 20  1  0
 20 25  2  0
 20 21  1  0
 21 22  2  0
 22 23  1  0
 24 23  2  0
 25 24  1  0
 26 15  1  0
 27 26  2  0
 28 26  1  0
M  END
$$$$
