AMW.pdb
     RDKit          3D

 28 29  0  0  1  0  0  0  0  0999 V2000
   28.7272  -23.3372  -16.7873 C   0  0  0  0  0  0  0  0  0  0  0  0
   28.0036  -22.0050  -16.7137 C   0  0  2  0  0  0  0  0  0  0  0  0
   28.6151  -21.1523  -17.7170 N   0  0  0  0  0  0  0  0  0  0  0  0
   28.1613  -21.4178  -15.3574 C   0  0  0  0  0  0  0  0  0  0  0  0
   29.2830  -21.3970  -14.7599 O   0  0  0  0  0  0  0  0  0  0  0  0
   25.5503  -16.2079  -15.1059 C   0  0  0  0  0  0  0  0  0  0  0  0
   27.3210  -16.2431  -14.6528 S   0  0  0  0  0  0  0  0  0  0  0  0
   27.8013  -17.9844  -14.4889 C   0  0  0  0  0  0  0  0  0  0  0  0
   26.8849  -18.7162  -13.5723 C   0  0  0  0  0  0  0  0  0  0  0  0
   27.2048  -20.1804  -13.4281 C   0  0  2  0  0  0  0  0  0  0  0  0
   27.0338  -20.8595  -14.6978 N   0  0  0  0  0  0  0  0  0  0  0  0
   26.4427  -20.8461  -12.3733 C   0  0  0  0  0  0  0  0  0  0  0  0
   25.2954  -21.3362  -12.5177 O   0  0  0  0  0  0  0  0  0  0  0  0
   27.0225  -20.9588  -11.0822 N   0  0  0  0  0  0  0  0  0  0  0  0
   26.3079  -21.6308   -9.9867 C   0  0  1  0  0  0  0  0  0  0  0  0
   27.2568  -21.8960   -8.8353 C   0  0  0  0  0  0  0  0  0  0  0  0
   27.2211  -20.7310   -7.9300 C   0  0  0  0  0  0  0  0  0  0  0  0
   26.4047  -19.6041   -8.0365 C   0  0  0  0  0  0  0  0  0  0  0  0
   26.6713  -18.7610   -7.0299 N   0  0  0  0  0  0  0  0  0  0  0  0
   27.6349  -19.2894   -6.2608 C   0  0  0  0  0  0  0  0  0  0  0  0
   28.2577  -18.8082   -5.1042 C   0  0  0  0  0  0  0  0  0  0  0  0
   29.2323  -19.5717   -4.5107 C   0  0  0  0  0  0  0  0  0  0  0  0
   29.5673  -20.7856   -5.0698 C   0  0  0  0  0  0  0  0  0  0  0  0
   28.9691  -21.2738   -6.2017 C   0  0  0  0  0  0  0  0  0  0  0  0
   27.9883  -20.5058   -6.7993 C   0  0  0  0  0  0  0  0  0  0  0  0
   25.2592  -20.7189   -9.5219 C   0  0  0  0  0  0  0  0  0  0  0  0
   25.3738  -19.4911   -9.7051 O   0  0  0  0  0  0  0  0  0  0  0  0
   24.1444  -21.2046   -8.8827 O   0  0  0  0  0  0  0  0  0  0  0  0
  2  1  1  1
  3  2  1  0
  4 11  1  0
  4  2  1  0
  5  4  2  0
  6  7  1  0
  8  7  1  0
  9  8  1  0
 10  9  1  6
 10 11  1  0
 12 10  1  0
 12 14  1  0
 13 12  2  0
 15 14  1  0
 15 16  1  1
 16 17  1  0
 17 25  1  0
 18 19  1  0
 18 17  2  0
 19 20  1  0
 20 25  2  0
 20 21  1  0
 21 22  2  0
 22 23  1  0
 24 23  2  0
 25 24  1  0
 26 15  1  0
 27 26  2  0
 28 26  1  0
M  END
$$$$
