AMW.pdb
     RDKit          3D

 28 29  0  0  1  0  0  0  0  0999 V2000
   11.9819  -16.5030    1.9303 C   0  0  0  0  0  0  0  0  0  0  0  0
   11.9531  -17.9753    1.5632 C   0  0  2  0  0  0  0  0  0  0  0  0
   10.5662  -18.3932    1.6601 N   0  0  0  0  0  0  0  0  0  0  0  0
   12.8027  -18.7488    2.5062 C   0  0  0  0  0  0  0  0  0  0  0  0
   12.4888  -18.8945    3.7293 O   0  0  0  0  0  0  0  0  0  0  0  0
   14.3905  -25.4289    2.0522 C   0  0  0  0  0  0  0  0  0  0  0  0
   15.4519  -23.9740    1.7384 S   0  0  0  0  0  0  0  0  0  0  0  0
   14.6661  -22.5499    2.5408 C   0  0  0  0  0  0  0  0  0  0  0  0
   15.4274  -21.2961    2.2880 C   0  0  0  0  0  0  0  0  0  0  0  0
   14.8478  -20.0817    2.9634 C   0  0  2  0  0  0  0  0  0  0  0  0
   14.0033  -19.3485    2.0405 N   0  0  0  0  0  0  0  0  0  0  0  0
   15.8547  -19.2050    3.5587 C   0  0  0  0  0  0  0  0  0  0  0  0
   16.6266  -18.4558    2.9106 O   0  0  0  0  0  0  0  0  0  0  0  0
   15.9874  -19.1823    4.9720 N   0  0  0  0  0  0  0  0  0  0  0  0
   16.9508  -18.2858    5.6282 C   0  0  1  0  0  0  0  0  0  0  0  0
   16.2178  -17.1494    6.3122 C   0  0  0  0  0  0  0  0  0  0  0  0
   16.1670  -16.0058    5.3808 C   0  0  0  0  0  0  0  0  0  0  0  0
   15.2584  -14.9465    5.3939 C   0  0  0  0  0  0  0  0  0  0  0  0
   15.5308  -14.1102    4.3833 N   0  0  0  0  0  0  0  0  0  0  0  0
   16.5872  -14.5777    3.7016 C   0  0  0  0  0  0  0  0  0  0  0  0
   17.2529  -14.0772    2.5777 C   0  0  0  0  0  0  0  0  0  0  0  0
   18.3256  -14.7741    2.0787 C   0  0  0  0  0  0  0  0  0  0  0  0
   18.7135  -15.9423    2.6977 C   0  0  0  0  0  0  0  0  0  0  0  0
   18.0746  -16.4485    3.7990 C   0  0  0  0  0  0  0  0  0  0  0  0
   16.9951  -15.7475    4.3014 C   0  0  0  0  0  0  0  0  0  0  0  0
   17.6516  -19.0670    6.6509 C   0  0  0  0  0  0  0  0  0  0  0  0
   17.3727  -20.2707    6.8164 O   0  0  0  0  0  0  0  0  0  0  0  0
   18.6182  -18.4843    7.4341 O   0  0  0  0  0  0  0  0  0  0  0  0
  2  1  1  1
  3  2  1  0
  4 11  1  0
  4  2  1  0
  5  4  2  0
  6  7  1  0
  8  7  1  0
  9  8  1  0
 10  9  1  6
 10 11  1  0
 12 10  1  0
 12 14  1  0
 13 12  2  0
 15 14  1  0
 15 16  1  1
 16 17  1  0
 17 25  1  0
 18 19  1  0
 18 17  2  0
 19 20  1  0
 20 25  2  0
 20 21  1  0
 21 22  2  0
 22 23  1  0
 24 23  2  0
 25 24  1  0
 26 15  1  0
 27 26  2  0
 28 26  1  0
M  END
$$$$
