AMW.pdb
     RDKit          3D

 28 29  0  0  1  0  0  0  0  0999 V2000
   28.9827  -21.7565  -14.8077 C   0  0  0  0  0  0  0  0  0  0  0  0
   27.9358  -20.6682  -14.6562 C   0  0  2  0  0  0  0  0  0  0  0  0
   28.5999  -19.5497  -14.0118 N   0  0  0  0  0  0  0  0  0  0  0  0
   26.8090  -21.1624  -13.8222 C   0  0  0  0  0  0  0  0  0  0  0  0
   26.0558  -22.1122  -14.2044 O   0  0  0  0  0  0  0  0  0  0  0  0
   28.4335  -20.3048   -7.5010 C   0  0  0  0  0  0  0  0  0  0  0  0
   26.6641  -20.4761   -7.9271 S   0  0  0  0  0  0  0  0  0  0  0  0
   26.5769  -21.1079   -9.6250 C   0  0  0  0  0  0  0  0  0  0  0  0
   25.4757  -20.4606  -10.3891 C   0  0  0  0  0  0  0  0  0  0  0  0
   25.3640  -20.9283  -11.8160 C   0  0  2  0  0  0  0  0  0  0  0  0
   26.5553  -20.5651  -12.5585 N   0  0  0  0  0  0  0  0  0  0  0  0
   24.1601  -20.4540  -12.4960 C   0  0  0  0  0  0  0  0  0  0  0  0
   23.8988  -19.2490  -12.7345 O   0  0  0  0  0  0  0  0  0  0  0  0
   23.2017  -21.4083  -12.9279 N   0  0  0  0  0  0  0  0  0  0  0  0
   21.9888  -20.9917  -13.6473 C   0  0  1  0  0  0  0  0  0  0  0  0
   21.7966  -21.8518  -14.8801 C   0  0  0  0  0  0  0  0  0  0  0  0
   20.6365  -21.3318  -15.6296 C   0  0  0  0  0  0  0  0  0  0  0  0
   20.5435  -20.1119  -16.3011 C   0  0  0  0  0  0  0  0  0  0  0  0
   19.3283  -19.9959  -16.8531 N   0  0  0  0  0  0  0  0  0  0  0  0
   18.6134  -21.0953  -16.5713 C   0  0  0  0  0  0  0  0  0  0  0  0
   17.3056  -21.4561  -16.9126 C   0  0  0  0  0  0  0  0  0  0  0  0
   16.8185  -22.6651  -16.4812 C   0  0  0  0  0  0  0  0  0  0  0  0
   17.6294  -23.4849  -15.7271 C   0  0  0  0  0  0  0  0  0  0  0  0
   18.9124  -23.1494  -15.3827 C   0  0  0  0  0  0  0  0  0  0  0  0
   19.4031  -21.9328  -15.8165 C   0  0  0  0  0  0  0  0  0  0  0  0
   20.8502  -21.2073  -12.7502 C   0  0  0  0  0  0  0  0  0  0  0  0
   20.8339  -22.1947  -11.9893 O   0  0  0  0  0  0  0  0  0  0  0  0
   19.7944  -20.3285  -12.7382 O   0  0  0  0  0  0  0  0  0  0  0  0
  2  1  1  1
  3  2  1  0
  4 11  1  0
  4  2  1  0
  5  4  2  0
  6  7  1  0
  8  7  1  0
  9  8  1  0
 10  9  1  1
 10 11  1  0
 12 10  1  0
 12 14  1  0
 13 12  2  0
 15 14  1  0
 15 16  1  6
 16 17  1  0
 17 25  1  0
 18 19  1  0
 18 17  2  0
 19 20  1  0
 20 25  2  0
 20 21  1  0
 21 22  2  0
 22 23  1  0
 24 23  2  0
 25 24  1  0
 26 15  1  0
 27 26  2  0
 28 26  1  0
M  END
$$$$
