AMW.pdb
     RDKit          3D

 28 29  0  0  1  0  0  0  0  0999 V2000
   29.2465  -19.6508  -18.5141 C   0  0  0  0  0  0  0  0  0  0  0  0
   28.6004  -21.0015  -18.7621 C   0  0  2  0  0  0  0  0  0  0  0  0
   28.5954  -21.1936  -20.2011 N   0  0  0  0  0  0  0  0  0  0  0  0
   27.2141  -21.0054  -18.2260 C   0  0  0  0  0  0  0  0  0  0  0  0
   26.3299  -20.1928  -18.6424 O   0  0  0  0  0  0  0  0  0  0  0  0
   22.0119  -24.2706  -16.5167 C   0  0  0  0  0  0  0  0  0  0  0  0
   22.8188  -24.5954  -18.1246 S   0  0  0  0  0  0  0  0  0  0  0  0
   24.5341  -24.0209  -17.9931 C   0  0  0  0  0  0  0  0  0  0  0  0
   24.6041  -22.5368  -17.9039 C   0  0  0  0  0  0  0  0  0  0  0  0
   25.4729  -22.0316  -16.7827 C   0  0  2  0  0  0  0  0  0  0  0  0
   26.8527  -21.9396  -17.2186 N   0  0  0  0  0  0  0  0  0  0  0  0
   25.3643  -22.8192  -15.5561 C   0  0  0  0  0  0  0  0  0  0  0  0
   25.9357  -23.9199  -15.3577 O   0  0  0  0  0  0  0  0  0  0  0  0
   24.5593  -22.3227  -14.4974 N   0  0  0  0  0  0  0  0  0  0  0  0
   24.4678  -23.0376  -13.2156 C   0  0  1  0  0  0  0  0  0  0  0  0
   25.6117  -22.6265  -12.3106 C   0  0  0  0  0  0  0  0  0  0  0  0
   25.5765  -21.1589  -12.1596 C   0  0  0  0  0  0  0  0  0  0  0  0
   24.9018  -20.4271  -11.1813 C   0  0  0  0  0  0  0  0  0  0  0  0
   25.1037  -19.1180  -11.3822 N   0  0  0  0  0  0  0  0  0  0  0  0
   25.8879  -18.9567  -12.4584 C   0  0  0  0  0  0  0  0  0  0  0  0
   26.3816  -17.8014  -13.0735 C   0  0  0  0  0  0  0  0  0  0  0  0
   27.1778  -17.9315  -14.1845 C   0  0  0  0  0  0  0  0  0  0  0  0
   27.4662  -19.1922  -14.6595 C   0  0  0  0  0  0  0  0  0  0  0  0
   26.9923  -20.3353  -14.0712 C   0  0  0  0  0  0  0  0  0  0  0  0
   26.1910  -20.2049  -12.9533 C   0  0  0  0  0  0  0  0  0  0  0  0
   23.2087  -22.6402  -12.5799 C   0  0  0  0  0  0  0  0  0  0  0  0
   22.5861  -21.6442  -12.9976 O   0  0  0  0  0  0  0  0  0  0  0  0
   22.7035  -23.3573  -11.5226 O   0  0  0  0  0  0  0  0  0  0  0  0
  2  1  1  6
  3  2  1  0
  4 11  1  0
  4  2  1  0
  5  4  2  0
  6  7  1  0
  8  7  1  0
  9  8  1  0
 10  9  1  6
 10 11  1  0
 12 10  1  0
 12 14  1  0
 13 12  2  0
 15 14  1  0
 15 16  1  1
 16 17  1  0
 17 25  1  0
 18 19  1  0
 18 17  2  0
 19 20  1  0
 20 25  2  0
 20 21  1  0
 21 22  2  0
 22 23  1  0
 24 23  2  0
 25 24  1  0
 26 15  1  0
 27 26  2  0
 28 26  1  0
M  END
$$$$
