AMW.pdb
     RDKit          3D

 28 29  0  0  1  0  0  0  0  0999 V2000
   20.0145  -20.8662  -12.9979 C   0  0  0  0  0  0  0  0  0  0  0  0
   21.1561  -19.8924  -12.7697 C   0  0  2  0  0  0  0  0  0  0  0  0
   21.3032  -19.1397  -14.0023 N   0  0  0  0  0  0  0  0  0  0  0  0
   22.4030  -20.6386  -12.4570 C   0  0  0  0  0  0  0  0  0  0  0  0
   22.5018  -21.3830  -11.4315 O   0  0  0  0  0  0  0  0  0  0  0  0
   29.7488  -22.2072  -14.8970 C   0  0  0  0  0  0  0  0  0  0  0  0
   28.0172  -21.9118  -15.4030 S   0  0  0  0  0  0  0  0  0  0  0  0
   27.0275  -21.7817  -13.8886 C   0  0  0  0  0  0  0  0  0  0  0  0
   25.6323  -21.3578  -14.1868 C   0  0  0  0  0  0  0  0  0  0  0  0
   24.7772  -21.1630  -12.9629 C   0  0  2  0  0  0  0  0  0  0  0  0
   23.5249  -20.5259  -13.3211 N   0  0  0  0  0  0  0  0  0  0  0  0
   25.4472  -20.4307  -11.8899 C   0  0  0  0  0  0  0  0  0  0  0  0
   25.5599  -19.1810  -11.8362 O   0  0  0  0  0  0  0  0  0  0  0  0
   26.0201  -21.1657  -10.8188 N   0  0  0  0  0  0  0  0  0  0  0  0
   26.8414  -20.4998   -9.7968 C   0  0  1  0  0  0  0  0  0  0  0  0
   26.1299  -20.5316   -8.4592 C   0  0  0  0  0  0  0  0  0  0  0  0
   26.9090  -19.7220   -7.5024 C   0  0  0  0  0  0  0  0  0  0  0  0
   27.1067  -18.3407   -7.5305 C   0  0  0  0  0  0  0  0  0  0  0  0
   27.8786  -17.9775   -6.4974 N   0  0  0  0  0  0  0  0  0  0  0  0
   28.1990  -19.0688   -5.7863 C   0  0  0  0  0  0  0  0  0  0  0  0
   28.9743  -19.2209   -4.6319 C   0  0  0  0  0  0  0  0  0  0  0  0
   29.1402  -20.4787   -4.1068 C   0  0  0  0  0  0  0  0  0  0  0  0
   28.5401  -21.5508   -4.7305 C   0  0  0  0  0  0  0  0  0  0  0  0
   27.7774  -21.4221   -5.8614 C   0  0  0  0  0  0  0  0  0  0  0  0
   27.6102  -20.1566   -6.3901 C   0  0  0  0  0  0  0  0  0  0  0  0
   28.0902  -21.2567   -9.6752 C   0  0  0  0  0  0  0  0  0  0  0  0
   28.0787  -22.4994   -9.7747 O   0  0  0  0  0  0  0  0  0  0  0  0
   29.2806  -20.6086   -9.4515 O   0  0  0  0  0  0  0  0  0  0  0  0
  2  1  1  6
  3  2  1  0
  4 11  1  0
  4  2  1  0
  5  4  2  0
  6  7  1  0
  8  7  1  0
  9  8  1  0
 10  9  1  6
 10 11  1  0
 12 10  1  0
 12 14  1  0
 13 12  2  0
 15 14  1  0
 15 16  1  1
 16 17  1  0
 17 25  1  0
 18 19  1  0
 18 17  2  0
 19 20  1  0
 20 25  2  0
 20 21  1  0
 21 22  2  0
 22 23  1  0
 24 23  2  0
 25 24  1  0
 26 15  1  0
 27 26  2  0
 28 26  1  0
M  END
$$$$
