AMW.pdb
     RDKit          3D

 28 29  0  0  1  0  0  0  0  0999 V2000
   24.9296  -19.1244  -16.9917 C   0  0  0  0  0  0  0  0  0  0  0  0
   24.0376  -20.0552  -16.1908 C   0  0  2  0  0  0  0  0  0  0  0  0
   22.7569  -20.0814  -16.8739 N   0  0  0  0  0  0  0  0  0  0  0  0
   23.8841  -19.5408  -14.8048 C   0  0  0  0  0  0  0  0  0  0  0  0
   23.2485  -18.4694  -14.5518 O   0  0  0  0  0  0  0  0  0  0  0  0
   19.4216  -20.3278  -12.3554 C   0  0  0  0  0  0  0  0  0  0  0  0
   20.2517  -20.8345  -10.8075 S   0  0  0  0  0  0  0  0  0  0  0  0
   21.9630  -20.2398  -10.8937 C   0  0  0  0  0  0  0  0  0  0  0  0
   22.5330  -20.4220  -12.2566 C   0  0  0  0  0  0  0  0  0  0  0  0
   23.9817  -20.0282  -12.3715 C   0  0  2  0  0  0  0  0  0  0  0  0
   24.4591  -20.2574  -13.7214 N   0  0  0  0  0  0  0  0  0  0  0  0
   24.8472  -20.6844  -11.3932 C   0  0  0  0  0  0  0  0  0  0  0  0
   25.0528  -21.9219  -11.3337 O   0  0  0  0  0  0  0  0  0  0  0  0
   25.5151  -19.8835  -10.4299 N   0  0  0  0  0  0  0  0  0  0  0  0
   26.4052  -20.4882   -9.4277 C   0  0  1  0  0  0  0  0  0  0  0  0
   27.3170  -19.4304   -8.8394 C   0  0  0  0  0  0  0  0  0  0  0  0
   28.2560  -20.0932   -7.9136 C   0  0  0  0  0  0  0  0  0  0  0  0
   29.1251  -21.1459   -8.2036 C   0  0  0  0  0  0  0  0  0  0  0  0
   29.8095  -21.4786   -7.1008 N   0  0  0  0  0  0  0  0  0  0  0  0
   29.4246  -20.6837   -6.0912 C   0  0  0  0  0  0  0  0  0  0  0  0
   29.8331  -20.6297   -4.7543 C   0  0  0  0  0  0  0  0  0  0  0  0
   29.2604  -19.6980   -3.9242 C   0  0  0  0  0  0  0  0  0  0  0  0
   28.3031  -18.8463   -4.4306 C   0  0  0  0  0  0  0  0  0  0  0  0
   27.8899  -18.8837   -5.7364 C   0  0  0  0  0  0  0  0  0  0  0  0
   28.4659  -19.8210   -6.5722 C   0  0  0  0  0  0  0  0  0  0  0  0
   25.5611  -21.0207   -8.3547 C   0  0  0  0  0  0  0  0  0  0  0  0
   24.5428  -20.3980   -7.9948 O   0  0  0  0  0  0  0  0  0  0  0  0
   25.8809  -22.2055   -7.7374 O   0  0  0  0  0  0  0  0  0  0  0  0
  2  1  1  6
  3  2  1  0
  4 11  1  0
  4  2  1  0
  5  4  2  0
  6  7  1  0
  8  7  1  0
  9  8  1  0
 10  9  1  6
 10 11  1  0
 12 10  1  0
 12 14  1  0
 13 12  2  0
 15 14  1  0
 15 16  1  1
 16 17  1  0
 17 25  1  0
 18 19  1  0
 18 17  2  0
 19 20  1  0
 20 25  2  0
 20 21  1  0
 21 22  2  0
 22 23  1  0
 24 23  2  0
 25 24  1  0
 26 15  1  0
 27 26  2  0
 28 26  1  0
M  END
$$$$
