AMW.pdb
     RDKit          3D

 28 29  0  0  1  0  0  0  0  0999 V2000
   25.8120  -18.8597  -16.4929 C   0  0  0  0  0  0  0  0  0  0  0  0
   24.6195  -19.7012  -16.0767 C   0  0  2  0  0  0  0  0  0  0  0  0
   23.5177  -19.2995  -16.9323 N   0  0  0  0  0  0  0  0  0  0  0  0
   24.2956  -19.4483  -14.6482 C   0  0  0  0  0  0  0  0  0  0  0  0
   24.3585  -18.2848  -14.1403 O   0  0  0  0  0  0  0  0  0  0  0  0
   19.6477  -21.8826  -11.2163 C   0  0  0  0  0  0  0  0  0  0  0  0
   19.4607  -20.4391  -12.3221 S   0  0  0  0  0  0  0  0  0  0  0  0
   21.1280  -19.8625  -12.7431 C   0  0  0  0  0  0  0  0  0  0  0  0
   22.1724  -20.7250  -12.1259 C   0  0  0  0  0  0  0  0  0  0  0  0
   23.5819  -20.2856  -12.4216 C   0  0  2  0  0  0  0  0  0  0  0  0
   23.9023  -20.5293  -13.8147 N   0  0  0  0  0  0  0  0  0  0  0  0
   24.5812  -20.8900  -11.5427 C   0  0  0  0  0  0  0  0  0  0  0  0
   24.9194  -22.0992  -11.5661 O   0  0  0  0  0  0  0  0  0  0  0  0
   25.2306  -20.0683  -10.5841 N   0  0  0  0  0  0  0  0  0  0  0  0
   26.1698  -20.6403   -9.6079 C   0  0  1  0  0  0  0  0  0  0  0  0
   27.0657  -19.5518   -9.0519 C   0  0  0  0  0  0  0  0  0  0  0  0
   28.0380  -20.1776   -8.1349 C   0  0  0  0  0  0  0  0  0  0  0  0
   28.8819  -21.2554   -8.4071 C   0  0  0  0  0  0  0  0  0  0  0  0
   29.6114  -21.5390   -7.3197 N   0  0  0  0  0  0  0  0  0  0  0  0
   29.2808  -20.6876   -6.3374 C   0  0  0  0  0  0  0  0  0  0  0  0
   29.7494  -20.5693   -5.0246 C   0  0  0  0  0  0  0  0  0  0  0  0
   29.2245  -19.5882   -4.2202 C   0  0  0  0  0  0  0  0  0  0  0  0
   28.2547  -18.7515   -4.7279 C   0  0  0  0  0  0  0  0  0  0  0  0
   27.7830  -18.8515   -6.0104 C   0  0  0  0  0  0  0  0  0  0  0  0
   28.3108  -19.8387   -6.8203 C   0  0  0  0  0  0  0  0  0  0  0  0
   25.3763  -21.1940   -8.5073 C   0  0  0  0  0  0  0  0  0  0  0  0
   25.7386  -22.2458   -7.9447 O   0  0  0  0  0  0  0  0  0  0  0  0
   24.2309  -20.5634   -8.0861 O   0  0  0  0  0  0  0  0  0  0  0  0
  2  1  1  6
  3  2  1  0
  4 11  1  0
  4  2  1  0
  5  4  2  0
  6  7  1  0
  8  7  1  0
  9  8  1  0
 10  9  1  1
 10 11  1  0
 12 10  1  0
 12 14  1  0
 13 12  2  0
 15 14  1  0
 15 16  1  1
 16 17  1  0
 17 25  1  0
 18 19  1  0
 18 17  2  0
 19 20  1  0
 20 25  2  0
 20 21  1  0
 21 22  2  0
 22 23  1  0
 24 23  2  0
 25 24  1  0
 26 15  1  0
 27 26  2  0
 28 26  1  0
M  END
$$$$
