AHL.pdb
     RDKit          3D

 24 24  0  0  1  0  0  0  0  0999 V2000
    8.4694  -12.0866   19.9256 C   0  0  0  0  0  0  0  0  0  0  0  0
    8.5672  -13.4927   19.3731 C   0  0  2  0  0  0  0  0  0  0  0  0
    7.5364  -13.6510   18.3635 N   0  0  0  0  0  0  0  0  0  0  0  0
    8.3511  -14.4642   20.5144 C   0  0  0  0  0  0  0  0  0  0  0  0
    7.1560  -14.6505   20.8245 O   0  0  0  0  0  0  0  0  0  0  0  0
    9.4468  -15.0876   21.1492 N   0  0  0  0  0  0  0  0  0  0  0  0
    9.4003  -16.0515   22.1795 C   0  0  1  0  0  0  0  0  0  0  0  0
   10.3817  -17.2061   21.9981 C   0  0  0  0  0  0  0  0  0  0  0  0
   10.0237  -18.0696   20.8551 C   0  0  0  0  0  0  0  0  0  0  0  0
    8.9222  -17.8769   20.0022 C   0  0  0  0  0  0  0  0  0  0  0  0
    8.9579  -18.8745   19.1036 N   0  0  0  0  0  0  0  0  0  0  0  0
   10.0024  -19.6800   19.3305 C   0  0  0  0  0  0  0  0  0  0  0  0
   10.6245  -19.1516   20.4076 N   0  0  0  0  0  0  0  0  0  0  0  0
    9.4409  -15.4581   23.5223 C   0  0  0  0  0  0  0  0  0  0  0  0
   10.4502  -14.8079   23.9058 O   0  0  0  0  0  0  0  0  0  0  0  0
    7.9367  -11.8991   25.9635 C   0  0  0  0  0  0  0  0  0  0  0  0
    6.9615  -13.0107   25.6822 C   0  0  2  0  0  0  0  0  0  0  0  0
    5.6095  -12.5649   26.2674 C   0  0  0  0  0  0  0  0  0  0  0  0
    7.2709  -14.3144   26.3093 C   0  0  0  0  0  0  0  0  0  0  0  0
    8.4425  -15.0747   25.8029 C   0  0  2  0  0  0  0  0  0  0  0  0
    8.3616  -15.5729   24.4696 N   0  0  0  0  0  0  0  0  0  0  0  0
    8.8497  -16.1106   26.7871 C   0  0  0  0  0  0  0  0  0  0  0  0
    8.7280  -17.3106   26.4493 O   0  0  0  0  0  0  0  0  0  0  0  0
    9.3528  -15.8518   28.0479 O   0  0  0  0  0  0  0  0  0  0  0  0
  2  1  1  1
  2  3  1  0
  4  2  1  0
  4  5  2  0
  6  4  1  0
  7  6  1  0
  7 14  1  0
  7  8  1  6
  9 10  2  0
  9  8  1  0
 11 10  1  0
 12 13  2  0
 12 11  1  0
 13  9  1  0
 14 15  2  0
 17 18  1  1
 17 16  1  0
 19 17  1  0
 20 19  1  1
 21 14  1  0
 21 20  1  0
 22 24  1  0
 22 20  1  0
 23 22  2  0
M  END
$$$$
