AHL.pdb
     RDKit          3D

 24 24  0  0  1  0  0  0  0  0999 V2000
    7.4470  -12.9063   18.3755 C   0  0  0  0  0  0  0  0  0  0  0  0
    8.5913  -13.0123   19.3610 C   0  0  2  0  0  0  0  0  0  0  0  0
    9.7493  -13.5242   18.6510 N   0  0  0  0  0  0  0  0  0  0  0  0
    8.1774  -13.9634   20.4642 C   0  0  0  0  0  0  0  0  0  0  0  0
    7.1183  -13.6568   21.0502 O   0  0  0  0  0  0  0  0  0  0  0  0
    8.9601  -15.0970   20.7715 N   0  0  0  0  0  0  0  0  0  0  0  0
    8.7215  -16.0487   21.7865 C   0  0  1  0  0  0  0  0  0  0  0  0
    9.4005  -17.3950   21.5512 C   0  0  0  0  0  0  0  0  0  0  0  0
    8.9618  -18.0297   20.2922 C   0  0  0  0  0  0  0  0  0  0  0  0
    7.6261  -18.2686   19.9228 C   0  0  0  0  0  0  0  0  0  0  0  0
    7.6647  -18.8572   18.7162 N   0  0  0  0  0  0  0  0  0  0  0  0
    8.9285  -19.0053   18.3010 C   0  0  0  0  0  0  0  0  0  0  0  0
    9.6858  -18.4871   19.2930 N   0  0  0  0  0  0  0  0  0  0  0  0
    8.9404  -15.5140   23.1368 C   0  0  0  0  0  0  0  0  0  0  0  0
    9.9741  -14.8431   23.4011 O   0  0  0  0  0  0  0  0  0  0  0  0
    6.5589  -12.9994   27.6100 C   0  0  0  0  0  0  0  0  0  0  0  0
    7.5371  -12.6832   26.5105 C   0  0  2  0  0  0  0  0  0  0  0  0
    7.2050  -11.2607   26.0254 C   0  0  0  0  0  0  0  0  0  0  0  0
    7.4670  -13.5519   25.3151 C   0  0  0  0  0  0  0  0  0  0  0  0
    8.0332  -14.9221   25.4109 C   0  0  2  0  0  0  0  0  0  0  0  0
    8.0164  -15.7120   24.2242 N   0  0  0  0  0  0  0  0  0  0  0  0
    7.4711  -15.6312   26.5894 C   0  0  0  0  0  0  0  0  0  0  0  0
    6.4158  -16.2851   26.4233 O   0  0  0  0  0  0  0  0  0  0  0  0
    8.0236  -15.6247   27.8560 O   0  0  0  0  0  0  0  0  0  0  0  0
  2  1  1  6
  2  3  1  0
  4  2  1  0
  4  5  2  0
  6  4  1  0
  7  6  1  0
  7 14  1  0
  7  8  1  6
  9 10  2  0
  9  8  1  0
 11 10  1  0
 12 13  2  0
 12 11  1  0
 13  9  1  0
 14 15  2  0
 17 18  1  6
 17 16  1  0
 19 17  1  0
 20 19  1  6
 21 14  1  0
 21 20  1  0
 22 24  1  0
 22 20  1  0
 23 22  2  0
M  END
$$$$
