AHL.pdb
     RDKit          3D

 24 24  0  0  1  0  0  0  0  0999 V2000
    8.5385  -12.2395   19.6015 C   0  0  0  0  0  0  0  0  0  0  0  0
    8.6570  -13.6298   19.0142 C   0  0  2  0  0  0  0  0  0  0  0  0
    7.6465  -13.7683   17.9813 N   0  0  0  0  0  0  0  0  0  0  0  0
    8.4266  -14.6326   20.1252 C   0  0  0  0  0  0  0  0  0  0  0  0
    7.2282  -14.8190   20.4223 O   0  0  0  0  0  0  0  0  0  0  0  0
    9.5137  -15.2823   20.7482 N   0  0  0  0  0  0  0  0  0  0  0  0
    9.4684  -16.1286   21.8772 C   0  0  1  0  0  0  0  0  0  0  0  0
   10.4816  -17.2693   21.8426 C   0  0  0  0  0  0  0  0  0  0  0  0
   10.1294  -18.2997   20.8453 C   0  0  0  0  0  0  0  0  0  0  0  0
    8.8474  -18.5061   20.3053 C   0  0  0  0  0  0  0  0  0  0  0  0
    8.9582  -19.5304   19.4437 N   0  0  0  0  0  0  0  0  0  0  0  0
   10.2173  -19.9823   19.4035 C   0  0  0  0  0  0  0  0  0  0  0  0
   10.8969  -19.2030   20.2736 N   0  0  0  0  0  0  0  0  0  0  0  0
    9.4649  -15.3908   23.1471 C   0  0  0  0  0  0  0  0  0  0  0  0
   10.4406  -14.6601   23.4669 O   0  0  0  0  0  0  0  0  0  0  0  0
    5.7037  -12.1913   26.7481 C   0  0  0  0  0  0  0  0  0  0  0  0
    7.0670  -12.7775   26.4964 C   0  0  2  0  0  0  0  0  0  0  0  0
    8.0202  -11.5893   26.2757 C   0  0  0  0  0  0  0  0  0  0  0  0
    7.1901  -13.6317   25.2947 C   0  0  0  0  0  0  0  0  0  0  0  0
    8.3056  -14.6116   25.2432 C   0  0  2  0  0  0  0  0  0  0  0  0
    8.3777  -15.4477   24.0907 N   0  0  0  0  0  0  0  0  0  0  0  0
    8.3845  -15.3707   26.5181 C   0  0  0  0  0  0  0  0  0  0  0  0
    8.5926  -14.7201   27.5680 O   0  0  0  0  0  0  0  0  0  0  0  0
    8.2458  -16.7407   26.6346 O   0  0  0  0  0  0  0  0  0  0  0  0
  2  1  1  1
  2  3  1  0
  4  2  1  0
  4  5  2  0
  6  4  1  0
  7  6  1  0
  7 14  1  0
  7  8  1  1
  9 10  2  0
  9  8  1  0
 11 10  1  0
 12 13  2  0
 12 11  1  0
 13  9  1  0
 14 15  2  0
 17 18  1  6
 17 16  1  0
 19 17  1  0
 20 19  1  1
 21 14  1  0
 21 20  1  0
 22 24  1  0
 22 20  1  0
 23 22  2  0
M  END
$$$$
