AHL.pdb
     RDKit          3D

 24 24  0  0  1  0  0  0  0  0999 V2000
    6.2743  -18.9699   22.7215 C   0  0  0  0  0  0  0  0  0  0  0  0
    6.7587  -18.3136   21.4461 C   0  0  2  0  0  0  0  0  0  0  0  0
    7.3367  -19.3440   20.6027 N   0  0  0  0  0  0  0  0  0  0  0  0
    7.8002  -17.2780   21.8145 C   0  0  0  0  0  0  0  0  0  0  0  0
    8.9254  -17.7425   22.0922 O   0  0  0  0  0  0  0  0  0  0  0  0
    7.4783  -15.9039   21.8293 N   0  0  0  0  0  0  0  0  0  0  0  0
    8.3556  -14.8248   22.0715 C   0  0  1  0  0  0  0  0  0  0  0  0
    7.9456  -13.5225   21.3896 C   0  0  0  0  0  0  0  0  0  0  0  0
    8.0251  -13.6132   19.9179 C   0  0  0  0  0  0  0  0  0  0  0  0
    9.1905  -13.4301   19.1523 C   0  0  0  0  0  0  0  0  0  0  0  0
    8.8322  -13.5966   17.8686 N   0  0  0  0  0  0  0  0  0  0  0  0
    7.5257  -13.8710   17.7727 C   0  0  0  0  0  0  0  0  0  0  0  0
    7.0736  -13.8712   19.0462 N   0  0  0  0  0  0  0  0  0  0  0  0
    8.6825  -14.6597   23.4938 C   0  0  0  0  0  0  0  0  0  0  0  0
    9.5039  -13.7788   23.8649 O   0  0  0  0  0  0  0  0  0  0  0  0
    8.5393  -12.1305   26.8660 C   0  0  0  0  0  0  0  0  0  0  0  0
    7.4099  -12.9819   26.3511 C   0  0  2  0  0  0  0  0  0  0  0  0
    6.1241  -12.4449   27.0049 C   0  0  0  0  0  0  0  0  0  0  0  0
    7.4766  -14.4192   26.6953 C   0  0  0  0  0  0  0  0  0  0  0  0
    8.4020  -15.2833   25.9181 C   0  0  2  0  0  0  0  0  0  0  0  0
    8.1046  -15.4689   24.5363 N   0  0  0  0  0  0  0  0  0  0  0  0
    8.6418  -16.5608   26.6380 C   0  0  0  0  0  0  0  0  0  0  0  0
    8.2968  -17.6211   26.0675 O   0  0  0  0  0  0  0  0  0  0  0  0
    9.2167  -16.6692   27.8900 O   0  0  0  0  0  0  0  0  0  0  0  0
  2  1  1  1
  2  3  1  0
  4  2  1  0
  4  5  2  0
  6  4  1  0
  7  6  1  0
  7 14  1  0
  7  8  1  1
  9 10  2  0
  9  8  1  0
 11 10  1  0
 12 13  2  0
 12 11  1  0
 13  9  1  0
 14 15  2  0
 17 18  1  1
 17 16  1  0
 19 17  1  0
 20 19  1  1
 21 14  1  0
 21 20  1  0
 22 24  1  0
 22 20  1  0
 23 22  2  0
M  END
$$$$
