AHL.pdb
     RDKit          3D

 24 24  0  0  1  0  0  0  0  0999 V2000
    7.6487  -12.8840   18.6143 C   0  0  0  0  0  0  0  0  0  0  0  0
    8.7721  -13.0665   19.6126 C   0  0  2  0  0  0  0  0  0  0  0  0
    9.9195  -13.6034   18.9040 N   0  0  0  0  0  0  0  0  0  0  0  0
    8.3027  -14.0331   20.6796 C   0  0  0  0  0  0  0  0  0  0  0  0
    7.1525  -13.8156   21.1141 O   0  0  0  0  0  0  0  0  0  0  0  0
    9.1359  -15.0845   21.1184 N   0  0  0  0  0  0  0  0  0  0  0  0
    8.8255  -16.0775   22.0725 C   0  0  1  0  0  0  0  0  0  0  0  0
    9.3533  -17.4658   21.7220 C   0  0  0  0  0  0  0  0  0  0  0  0
    8.7902  -17.9745   20.4553 C   0  0  0  0  0  0  0  0  0  0  0  0
    7.5960  -18.7066   20.3306 C   0  0  0  0  0  0  0  0  0  0  0  0
    7.4479  -18.9726   19.0225 N   0  0  0  0  0  0  0  0  0  0  0  0
    8.4630  -18.4604   18.3164 C   0  0  0  0  0  0  0  0  0  0  0  0
    9.2575  -17.8607   19.2303 N   0  0  0  0  0  0  0  0  0  0  0  0
    9.1342  -15.6671   23.4485 C   0  0  0  0  0  0  0  0  0  0  0  0
   10.3194  -15.4073   23.7895 O   0  0  0  0  0  0  0  0  0  0  0  0
    7.8764  -11.8321   25.8733 C   0  0  0  0  0  0  0  0  0  0  0  0
    6.9516  -13.0160   25.7799 C   0  0  2  0  0  0  0  0  0  0  0  0
    5.6390  -12.6011   26.4685 C   0  0  0  0  0  0  0  0  0  0  0  0
    7.4055  -14.2450   26.4671 C   0  0  0  0  0  0  0  0  0  0  0  0
    8.4313  -15.0845   25.7961 C   0  0  2  0  0  0  0  0  0  0  0  0
    8.1340  -15.5359   24.4769 N   0  0  0  0  0  0  0  0  0  0  0  0
    8.8739  -16.1782   26.6991 C   0  0  0  0  0  0  0  0  0  0  0  0
    8.6539  -17.3560   26.3340 O   0  0  0  0  0  0  0  0  0  0  0  0
    9.5104  -15.9959   27.9121 O   0  0  0  0  0  0  0  0  0  0  0  0
  2  1  1  6
  2  3  1  0
  4  2  1  0
  4  5  2  0
  6  4  1  0
  7  6  1  0
  7 14  1  0
  7  8  1  6
  9 10  2  0
  9  8  1  0
 11 10  1  0
 12 13  2  0
 12 11  1  0
 13  9  1  0
 14 15  2  0
 17 18  1  1
 17 16  1  0
 19 17  1  0
 20 19  1  1
 21 14  1  0
 21 20  1  0
 22 24  1  0
 22 20  1  0
 23 22  2  0
M  END
$$$$
