AHL.pdb
     RDKit          3D

 24 24  0  0  1  0  0  0  0  0999 V2000
    7.6645  -12.2618   21.0486 C   0  0  0  0  0  0  0  0  0  0  0  0
    7.9601  -13.5111   20.2464 C   0  0  2  0  0  0  0  0  0  0  0  0
    6.8472  -13.7381   19.3426 N   0  0  0  0  0  0  0  0  0  0  0  0
    8.1087  -14.6679   21.2123 C   0  0  0  0  0  0  0  0  0  0  0  0
    7.0655  -15.3265   21.4052 O   0  0  0  0  0  0  0  0  0  0  0  0
    9.3506  -14.9429   21.8239 N   0  0  0  0  0  0  0  0  0  0  0  0
    9.7174  -16.1143   22.5210 C   0  0  1  0  0  0  0  0  0  0  0  0
   11.0210  -16.7446   22.0390 C   0  0  0  0  0  0  0  0  0  0  0  0
   10.8282  -17.5741   20.8327 C   0  0  0  0  0  0  0  0  0  0  0  0
    9.5860  -17.9810   20.3139 C   0  0  0  0  0  0  0  0  0  0  0  0
    9.8522  -18.7141   19.2205 N   0  0  0  0  0  0  0  0  0  0  0  0
   11.1721  -18.7970   19.0150 C   0  0  0  0  0  0  0  0  0  0  0  0
   11.7284  -18.0875   20.0216 N   0  0  0  0  0  0  0  0  0  0  0  0
    9.6503  -15.9582   23.9798 C   0  0  0  0  0  0  0  0  0  0  0  0
    9.9182  -16.9260   24.7413 O   0  0  0  0  0  0  0  0  0  0  0  0
    8.1444  -11.5941   26.2169 C   0  0  0  0  0  0  0  0  0  0  0  0
    7.2844  -12.7712   25.8421 C   0  0  2  0  0  0  0  0  0  0  0  0
    5.8785  -12.4801   26.3971 C   0  0  0  0  0  0  0  0  0  0  0  0
    7.6899  -14.0743   26.4132 C   0  0  0  0  0  0  0  0  0  0  0  0
    9.0113  -14.6295   26.0222 C   0  0  2  0  0  0  0  0  0  0  0  0
    9.2845  -14.7237   24.6262 N   0  0  0  0  0  0  0  0  0  0  0  0
    9.2753  -15.8959   26.7531 C   0  0  0  0  0  0  0  0  0  0  0  0
    9.2727  -15.8539   28.0050 O   0  0  0  0  0  0  0  0  0  0  0  0
    9.5239  -17.1178   26.1574 O   0  0  0  0  0  0  0  0  0  0  0  0
  2  1  1  1
  2  3  1  0
  4  2  1  0
  4  5  2  0
  6  4  1  0
  7  6  1  0
  7 14  1  0
  7  8  1  1
  9 10  2  0
  9  8  1  0
 11 10  1  0
 12 13  2  0
 12 11  1  0
 13  9  1  0
 14 15  2  0
 17 18  1  1
 17 16  1  0
 19 17  1  0
 20 19  1  6
 21 14  1  0
 21 20  1  0
 22 24  1  0
 22 20  1  0
 23 22  2  0
M  END
$$$$
