AHL.pdb
     RDKit          3D

 24 24  0  0  1  0  0  0  0  0999 V2000
    8.1182  -12.2266   19.4405 C   0  0  0  0  0  0  0  0  0  0  0  0
    8.2288  -13.6724   19.0055 C   0  0  2  0  0  0  0  0  0  0  0  0
    7.1413  -13.9484   18.0844 N   0  0  0  0  0  0  0  0  0  0  0  0
    8.1198  -14.5456   20.2379 C   0  0  0  0  0  0  0  0  0  0  0  0
    6.9525  -14.7652   20.6227 O   0  0  0  0  0  0  0  0  0  0  0  0
    9.2767  -15.0500   20.8698 N   0  0  0  0  0  0  0  0  0  0  0  0
    9.3321  -15.8905   22.0027 C   0  0  1  0  0  0  0  0  0  0  0  0
   10.4176  -16.9609   21.9325 C   0  0  0  0  0  0  0  0  0  0  0  0
   10.0987  -18.0168   20.9507 C   0  0  0  0  0  0  0  0  0  0  0  0
    8.9761  -18.0294   20.1039 C   0  0  0  0  0  0  0  0  0  0  0  0
    9.0617  -19.1546   19.3756 N   0  0  0  0  0  0  0  0  0  0  0  0
   10.1573  -19.8498   19.7040 C   0  0  0  0  0  0  0  0  0  0  0  0
   10.7596  -19.1191   20.6680 N   0  0  0  0  0  0  0  0  0  0  0  0
    9.3283  -15.1469   23.2692 C   0  0  0  0  0  0  0  0  0  0  0  0
    9.6407  -13.9263   23.2971 O   0  0  0  0  0  0  0  0  0  0  0  0
    5.7820  -12.4140   26.4513 C   0  0  0  0  0  0  0  0  0  0  0  0
    7.0912  -13.1399   26.6092 C   0  0  2  0  0  0  0  0  0  0  0  0
    8.1711  -12.0590   26.7951 C   0  0  0  0  0  0  0  0  0  0  0  0
    7.5206  -13.9549   25.4516 C   0  0  0  0  0  0  0  0  0  0  0  0
    8.5779  -14.9760   25.6676 C   0  0  2  0  0  0  0  0  0  0  0  0
    8.9773  -15.7418   24.5334 N   0  0  0  0  0  0  0  0  0  0  0  0
    8.2511  -15.8147   26.8497 C   0  0  0  0  0  0  0  0  0  0  0  0
    8.3596  -15.2888   27.9814 O   0  0  0  0  0  0  0  0  0  0  0  0
    7.8362  -17.1318   26.7967 O   0  0  0  0  0  0  0  0  0  0  0  0
  2  1  1  1
  2  3  1  0
  4  2  1  0
  4  5  2  0
  6  4  1  0
  7  6  1  0
  7 14  1  0
  7  8  1  6
  9 10  2  0
  9  8  1  0
 11 10  1  0
 12 13  2  0
 12 11  1  0
 13  9  1  0
 14 15  2  0
 17 18  1  6
 17 16  1  0
 19 17  1  0
 20 19  1  6
 21 14  1  0
 21 20  1  0
 22 24  1  0
 22 20  1  0
 23 22  2  0
M  END
$$$$
