AHL.pdb
     RDKit          3D

 24 24  0  0  1  0  0  0  0  0999 V2000
    8.2899  -12.1251   19.8245 C   0  0  0  0  0  0  0  0  0  0  0  0
    8.4069  -13.5063   19.2159 C   0  0  2  0  0  0  0  0  0  0  0  0
    7.3323  -13.6650   18.2530 N   0  0  0  0  0  0  0  0  0  0  0  0
    8.2815  -14.5248   20.3294 C   0  0  0  0  0  0  0  0  0  0  0  0
    7.1105  -14.7657   20.6895 O   0  0  0  0  0  0  0  0  0  0  0  0
    9.4284  -15.1296   20.8871 N   0  0  0  0  0  0  0  0  0  0  0  0
    9.4729  -16.0495   21.9569 C   0  0  1  0  0  0  0  0  0  0  0  0
   10.5395  -17.1305   21.8060 C   0  0  0  0  0  0  0  0  0  0  0  0
   10.2535  -18.0449   20.6825 C   0  0  0  0  0  0  0  0  0  0  0  0
    8.9867  -18.2635   20.1124 C   0  0  0  0  0  0  0  0  0  0  0  0
    9.1625  -19.1591   19.1271 N   0  0  0  0  0  0  0  0  0  0  0  0
   10.4485  -19.5189   19.0371 C   0  0  0  0  0  0  0  0  0  0  0  0
   11.0774  -18.8152   20.0044 N   0  0  0  0  0  0  0  0  0  0  0  0
    9.4858  -15.3981   23.2732 C   0  0  0  0  0  0  0  0  0  0  0  0
    9.9403  -14.2301   23.4062 O   0  0  0  0  0  0  0  0  0  0  0  0
    5.5809  -13.0455   26.5246 C   0  0  0  0  0  0  0  0  0  0  0  0
    7.0016  -13.5392   26.5852 C   0  0  2  0  0  0  0  0  0  0  0  0
    7.8969  -12.2887   26.6470 C   0  0  0  0  0  0  0  0  0  0  0  0
    7.4643  -14.3184   25.4157 C   0  0  0  0  0  0  0  0  0  0  0  0
    8.5664  -15.2942   25.6160 C   0  0  2  0  0  0  0  0  0  0  0  0
    8.9942  -16.0288   24.4715 N   0  0  0  0  0  0  0  0  0  0  0  0
    8.2819  -16.1599   26.7896 C   0  0  0  0  0  0  0  0  0  0  0  0
    7.3609  -17.0015   26.6793 O   0  0  0  0  0  0  0  0  0  0  0  0
    8.9560  -16.1078   27.9948 O   0  0  0  0  0  0  0  0  0  0  0  0
  2  1  1  1
  2  3  1  0
  4  2  1  0
  4  5  2  0
  6  4  1  0
  7  6  1  0
  7 14  1  0
  7  8  1  6
  9 10  2  0
  9  8  1  0
 11 10  1  0
 12 13  2  0
 12 11  1  0
 13  9  1  0
 14 15  2  0
 17 18  1  6
 17 16  1  0
 19 17  1  0
 20 19  1  6
 21 14  1  0
 21 20  1  0
 22 24  1  0
 22 20  1  0
 23 22  2  0
M  END
$$$$
