AHL.pdb
     RDKit          3D

 24 24  0  0  1  0  0  0  0  0999 V2000
    8.0973  -12.1912   19.8059 C   0  0  0  0  0  0  0  0  0  0  0  0
    8.5783  -13.5441   19.3262 C   0  0  2  0  0  0  0  0  0  0  0  0
    7.8336  -13.8862   18.1280 N   0  0  0  0  0  0  0  0  0  0  0  0
    8.3176  -14.5540   20.4240 C   0  0  0  0  0  0  0  0  0  0  0  0
    7.1456  -14.9814   20.4750 O   0  0  0  0  0  0  0  0  0  0  0  0
    9.3510  -14.9520   21.2991 N   0  0  0  0  0  0  0  0  0  0  0  0
    9.2908  -15.9562   22.2894 C   0  0  1  0  0  0  0  0  0  0  0  0
   10.1673  -17.1714   21.9993 C   0  0  0  0  0  0  0  0  0  0  0  0
    9.6806  -17.9480   20.8416 C   0  0  0  0  0  0  0  0  0  0  0  0
   10.2134  -17.8924   19.5414 C   0  0  0  0  0  0  0  0  0  0  0  0
    9.4897  -18.7444   18.7970 N   0  0  0  0  0  0  0  0  0  0  0  0
    8.5406  -19.3313   19.5359 C   0  0  0  0  0  0  0  0  0  0  0  0
    8.6937  -18.8162   20.7758 N   0  0  0  0  0  0  0  0  0  0  0  0
    9.4564  -15.4301   23.6505 C   0  0  0  0  0  0  0  0  0  0  0  0
   10.5259  -14.8566   23.9906 O   0  0  0  0  0  0  0  0  0  0  0  0
    7.9259  -11.8837   25.8810 C   0  0  0  0  0  0  0  0  0  0  0  0
    7.0581  -13.1133   25.8562 C   0  0  2  0  0  0  0  0  0  0  0  0
    5.7224  -12.7193   26.5119 C   0  0  0  0  0  0  0  0  0  0  0  0
    7.5637  -14.2752   26.6198 C   0  0  0  0  0  0  0  0  0  0  0  0
    8.6381  -15.1003   26.0099 C   0  0  2  0  0  0  0  0  0  0  0  0
    8.4382  -15.5287   24.6649 N   0  0  0  0  0  0  0  0  0  0  0  0
    9.0181  -16.2092   26.9229 C   0  0  0  0  0  0  0  0  0  0  0  0
    9.2759  -15.9172   28.1134 O   0  0  0  0  0  0  0  0  0  0  0  0
    9.1091  -17.5393   26.5594 O   0  0  0  0  0  0  0  0  0  0  0  0
  2  1  1  1
  2  3  1  0
  4  2  1  0
  4  5  2  0
  6  4  1  0
  7  6  1  0
  7 14  1  0
  7  8  1  6
  9 10  2  0
  9  8  1  0
 11 10  1  0
 12 13  2  0
 12 11  1  0
 13  9  1  0
 14 15  2  0
 17 18  1  1
 17 16  1  0
 19 17  1  0
 20 19  1  1
 21 14  1  0
 21 20  1  0
 22 24  1  0
 22 20  1  0
 23 22  2  0
M  END
$$$$
