AHL.pdb
     RDKit          3D

 24 24  0  0  1  0  0  0  0  0999 V2000
    7.3936  -12.9026   18.3960 C   0  0  0  0  0  0  0  0  0  0  0  0
    8.6951  -13.0836   19.1479 C   0  0  2  0  0  0  0  0  0  0  0  0
    9.6493  -13.7077   18.2496 N   0  0  0  0  0  0  0  0  0  0  0  0
    8.4287  -13.9715   20.3453 C   0  0  0  0  0  0  0  0  0  0  0  0
    7.5811  -13.5282   21.1479 O   0  0  0  0  0  0  0  0  0  0  0  0
    9.1100  -15.1979   20.5005 N   0  0  0  0  0  0  0  0  0  0  0  0
    8.9471  -16.1384   21.5405 C   0  0  1  0  0  0  0  0  0  0  0  0
    9.7434  -17.4260   21.3473 C   0  0  0  0  0  0  0  0  0  0  0  0
    9.4493  -18.4271   22.3921 C   0  0  0  0  0  0  0  0  0  0  0  0
    8.5260  -18.2635   23.4401 C   0  0  0  0  0  0  0  0  0  0  0  0
    8.5628  -19.3970   24.1597 N   0  0  0  0  0  0  0  0  0  0  0  0
    9.4427  -20.2608   23.6393 C   0  0  0  0  0  0  0  0  0  0  0  0
    9.9598  -19.6279   22.5630 N   0  0  0  0  0  0  0  0  0  0  0  0
    9.1070  -15.5496   22.8764 C   0  0  0  0  0  0  0  0  0  0  0  0
   10.1781  -14.9678   23.1968 O   0  0  0  0  0  0  0  0  0  0  0  0
    5.8329  -12.3113   26.9109 C   0  0  0  0  0  0  0  0  0  0  0  0
    7.1169  -12.9948   26.5237 C   0  0  2  0  0  0  0  0  0  0  0  0
    8.1354  -11.8786   26.2305 C   0  0  0  0  0  0  0  0  0  0  0  0
    7.0607  -13.8304   25.3042 C   0  0  0  0  0  0  0  0  0  0  0  0
    8.1409  -14.8272   25.0877 C   0  0  2  0  0  0  0  0  0  0  0  0
    8.0811  -15.5934   23.8870 N   0  0  0  0  0  0  0  0  0  0  0  0
    8.3223  -15.6632   26.3025 C   0  0  0  0  0  0  0  0  0  0  0  0
    8.7726  -15.1040   27.3289 O   0  0  0  0  0  0  0  0  0  0  0  0
    8.0322  -17.0116   26.3872 O   0  0  0  0  0  0  0  0  0  0  0  0
  2  1  1  6
  2  3  1  0
  4  2  1  0
  4  5  2  0
  6  4  1  0
  7  6  1  0
  7 14  1  0
  7  8  1  6
  9 10  2  0
  9  8  1  0
 11 10  1  0
 12 13  2  0
 12 11  1  0
 13  9  1  0
 14 15  2  0
 17 18  1  6
 17 16  1  0
 19 17  1  0
 20 19  1  1
 21 14  1  0
 21 20  1  0
 22 24  1  0
 22 20  1  0
 23 22  2  0
M  END
$$$$
