AHL.pdb
     RDKit          3D

 24 24  0  0  1  0  0  0  0  0999 V2000
    8.1539  -12.1180   19.5484 C   0  0  0  0  0  0  0  0  0  0  0  0
    8.6749  -13.5030   19.2290 C   0  0  2  0  0  0  0  0  0  0  0  0
    8.1397  -13.8974   17.9387 N   0  0  0  0  0  0  0  0  0  0  0  0
    8.2023  -14.4469   20.3147 C   0  0  0  0  0  0  0  0  0  0  0  0
    6.9655  -14.6106   20.3647 O   0  0  0  0  0  0  0  0  0  0  0  0
    9.1256  -15.0712   21.1808 N   0  0  0  0  0  0  0  0  0  0  0  0
    8.8347  -15.9404   22.2545 C   0  0  1  0  0  0  0  0  0  0  0  0
    9.4179  -17.3420   22.0978 C   0  0  0  0  0  0  0  0  0  0  0  0
    8.7065  -18.1320   21.0731 C   0  0  0  0  0  0  0  0  0  0  0  0
    7.6570  -17.6606   20.2645 C   0  0  0  0  0  0  0  0  0  0  0  0
    7.2948  -18.6855   19.4756 N   0  0  0  0  0  0  0  0  0  0  0  0
    8.0412  -19.7668   19.7304 C   0  0  0  0  0  0  0  0  0  0  0  0
    8.8886  -19.3841   20.7111 N   0  0  0  0  0  0  0  0  0  0  0  0
    9.1050  -15.3404   23.5674 C   0  0  0  0  0  0  0  0  0  0  0  0
   10.2683  -14.9638   23.8731 O   0  0  0  0  0  0  0  0  0  0  0  0
    7.7473  -11.5339   25.9067 C   0  0  0  0  0  0  0  0  0  0  0  0
    6.7914  -12.6957   25.9524 C   0  0  2  0  0  0  0  0  0  0  0  0
    5.5933  -12.2430   26.8062 C   0  0  0  0  0  0  0  0  0  0  0  0
    7.3053  -13.9294   26.5869 C   0  0  0  0  0  0  0  0  0  0  0  0
    8.3788  -14.6817   25.8877 C   0  0  2  0  0  0  0  0  0  0  0  0
    8.0898  -15.1448   24.5707 N   0  0  0  0  0  0  0  0  0  0  0  0
    8.9233  -15.7447   26.7715 C   0  0  0  0  0  0  0  0  0  0  0  0
    8.5211  -16.9161   26.5847 O   0  0  0  0  0  0  0  0  0  0  0  0
    9.8403  -15.5401   27.7848 O   0  0  0  0  0  0  0  0  0  0  0  0
  2  1  1  1
  2  3  1  0
  4  2  1  0
  4  5  2  0
  6  4  1  0
  7  6  1  0
  7 14  1  0
  7  8  1  6
  9 10  2  0
  9  8  1  0
 11 10  1  0
 12 13  2  0
 12 11  1  0
 13  9  1  0
 14 15  2  0
 17 18  1  1
 17 16  1  0
 19 17  1  0
 20 19  1  1
 21 14  1  0
 21 20  1  0
 22 24  1  0
 22 20  1  0
 23 22  2  0
M  END
$$$$
