AHL.pdb
     RDKit          3D

 24 24  0  0  1  0  0  0  0  0999 V2000
    8.2733  -12.0466   19.9050 C   0  0  0  0  0  0  0  0  0  0  0  0
    8.4923  -13.4123   19.2896 C   0  0  2  0  0  0  0  0  0  0  0  0
    7.5365  -13.5763   18.2095 N   0  0  0  0  0  0  0  0  0  0  0  0
    8.2685  -14.4554   20.3642 C   0  0  0  0  0  0  0  0  0  0  0  0
    7.0826  -14.8220   20.4996 O   0  0  0  0  0  0  0  0  0  0  0  0
    9.3480  -14.9466   21.1295 N   0  0  0  0  0  0  0  0  0  0  0  0
    9.3012  -15.9409   22.1305 C   0  0  1  0  0  0  0  0  0  0  0  0
   10.2176  -17.1329   21.8688 C   0  0  0  0  0  0  0  0  0  0  0  0
    9.7008  -18.0112   20.8002 C   0  0  0  0  0  0  0  0  0  0  0  0
    8.4507  -17.8783   20.1700 C   0  0  0  0  0  0  0  0  0  0  0  0
    8.3732  -18.8689   19.2664 N   0  0  0  0  0  0  0  0  0  0  0  0
    9.4845  -19.6145   19.2836 C   0  0  0  0  0  0  0  0  0  0  0  0
   10.2664  -19.0556   20.2335 N   0  0  0  0  0  0  0  0  0  0  0  0
    9.4292  -15.3946   23.4878 C   0  0  0  0  0  0  0  0  0  0  0  0
   10.4821  -14.8001   23.8431 O   0  0  0  0  0  0  0  0  0  0  0  0
    8.0048  -11.9408   26.3575 C   0  0  0  0  0  0  0  0  0  0  0  0
    7.0458  -13.0460   26.0047 C   0  0  2  0  0  0  0  0  0  0  0  0
    5.7108  -12.7019   26.6891 C   0  0  0  0  0  0  0  0  0  0  0  0
    7.4153  -14.3971   26.4809 C   0  0  0  0  0  0  0  0  0  0  0  0
    8.5660  -15.0777   25.8329 C   0  0  2  0  0  0  0  0  0  0  0  0
    8.3909  -15.4961   24.4813 N   0  0  0  0  0  0  0  0  0  0  0  0
    9.0898  -16.1550   26.7119 C   0  0  0  0  0  0  0  0  0  0  0  0
    9.4342  -15.8387   27.8739 O   0  0  0  0  0  0  0  0  0  0  0  0
    9.2266  -17.4804   26.3456 O   0  0  0  0  0  0  0  0  0  0  0  0
  2  1  1  1
  2  3  1  0
  4  2  1  0
  4  5  2  0
  6  4  1  0
  7  6  1  0
  7 14  1  0
  7  8  1  6
  9 10  2  0
  9  8  1  0
 11 10  1  0
 12 13  2  0
 12 11  1  0
 13  9  1  0
 14 15  2  0
 17 18  1  1
 17 16  1  0
 19 17  1  0
 20 19  1  1
 21 14  1  0
 21 20  1  0
 22 24  1  0
 22 20  1  0
 23 22  2  0
M  END
$$$$
