AHL.pdb
     RDKit          3D

 24 24  0  0  1  0  0  0  0  0999 V2000
    8.4338  -12.1250   19.7567 C   0  0  0  0  0  0  0  0  0  0  0  0
    8.2291  -13.5038   19.1660 C   0  0  2  0  0  0  0  0  0  0  0  0
    7.0356  -13.4658   18.3406 N   0  0  0  0  0  0  0  0  0  0  0  0
    8.0590  -14.4853   20.3066 C   0  0  0  0  0  0  0  0  0  0  0  0
    6.8818  -14.6407   20.6928 O   0  0  0  0  0  0  0  0  0  0  0  0
    9.1746  -15.1502   20.8593 N   0  0  0  0  0  0  0  0  0  0  0  0
    9.1711  -16.0939   21.9091 C   0  0  1  0  0  0  0  0  0  0  0  0
   10.0793  -17.2968   21.6693 C   0  0  0  0  0  0  0  0  0  0  0  0
    9.6624  -18.0862   20.4932 C   0  0  0  0  0  0  0  0  0  0  0  0
    8.3505  -18.5151   20.2234 C   0  0  0  0  0  0  0  0  0  0  0  0
    8.4035  -19.1970   19.0676 N   0  0  0  0  0  0  0  0  0  0  0  0
    9.6541  -19.2273   18.5917 C   0  0  0  0  0  0  0  0  0  0  0  0
   10.3883  -18.5379   19.4927 N   0  0  0  0  0  0  0  0  0  0  0  0
    9.3527  -15.4814   23.2315 C   0  0  0  0  0  0  0  0  0  0  0  0
    9.9233  -14.3637   23.3476 O   0  0  0  0  0  0  0  0  0  0  0  0
    5.5941  -12.9502   26.4659 C   0  0  0  0  0  0  0  0  0  0  0  0
    6.9782  -13.5362   26.5456 C   0  0  2  0  0  0  0  0  0  0  0  0
    7.9544  -12.3473   26.5964 C   0  0  0  0  0  0  0  0  0  0  0  0
    7.3965  -14.3622   25.3917 C   0  0  0  0  0  0  0  0  0  0  0  0
    8.4913  -15.3458   25.5947 C   0  0  2  0  0  0  0  0  0  0  0  0
    8.9046  -16.0960   24.4551 N   0  0  0  0  0  0  0  0  0  0  0  0
    8.2072  -16.1967   26.7791 C   0  0  0  0  0  0  0  0  0  0  0  0
    7.2792  -17.0326   26.6831 O   0  0  0  0  0  0  0  0  0  0  0  0
    8.8886  -16.1367   27.9799 O   0  0  0  0  0  0  0  0  0  0  0  0
  2  1  1  1
  2  3  1  0
  4  2  1  0
  4  5  2  0
  6  4  1  0
  7  6  1  0
  7 14  1  0
  7  8  1  6
  9 10  2  0
  9  8  1  0
 11 10  1  0
 12 13  2  0
 12 11  1  0
 13  9  1  0
 14 15  2  0
 17 18  1  6
 17 16  1  0
 19 17  1  0
 20 19  1  6
 21 14  1  0
 21 20  1  0
 22 24  1  0
 22 20  1  0
 23 22  2  0
M  END
$$$$
