AHL.pdb
     RDKit          3D

 24 24  0  0  1  0  0  0  0  0999 V2000
   11.9316  -17.4102   18.9028 C   0  0  0  0  0  0  0  0  0  0  0  0
   11.5105  -17.6685   20.3338 C   0  0  2  0  0  0  0  0  0  0  0  0
   10.5312  -18.7400   20.3271 N   0  0  0  0  0  0  0  0  0  0  0  0
   10.9050  -16.3946   20.8848 C   0  0  0  0  0  0  0  0  0  0  0  0
   11.6826  -15.4184   20.9219 O   0  0  0  0  0  0  0  0  0  0  0  0
    9.5601  -16.3603   21.3117 N   0  0  0  0  0  0  0  0  0  0  0  0
    8.8250  -15.2283   21.7252 C   0  0  1  0  0  0  0  0  0  0  0  0
    7.5125  -15.0281   20.9727 C   0  0  0  0  0  0  0  0  0  0  0  0
    7.7247  -14.8060   19.5283 C   0  0  0  0  0  0  0  0  0  0  0  0
    8.1825  -13.6104   18.9466 C   0  0  0  0  0  0  0  0  0  0  0  0
    8.2351  -13.8276   17.6223 N   0  0  0  0  0  0  0  0  0  0  0  0
    7.8432  -15.0735   17.3301 C   0  0  0  0  0  0  0  0  0  0  0  0
    7.5413  -15.6341   18.5221 N   0  0  0  0  0  0  0  0  0  0  0  0
    8.6793  -15.1406   23.1840 C   0  0  0  0  0  0  0  0  0  0  0  0
    8.8701  -16.1533   23.9095 O   0  0  0  0  0  0  0  0  0  0  0  0
    5.4506  -11.8258   27.3990 C   0  0  0  0  0  0  0  0  0  0  0  0
    6.5624  -12.7863   27.0721 C   0  0  2  0  0  0  0  0  0  0  0  0
    7.8069  -12.2889   27.8291 C   0  0  0  0  0  0  0  0  0  0  0  0
    6.9514  -12.8619   25.6467 C   0  0  0  0  0  0  0  0  0  0  0  0
    7.9415  -13.8941   25.2447 C   0  0  2  0  0  0  0  0  0  0  0  0
    8.3185  -13.9264   23.8702 N   0  0  0  0  0  0  0  0  0  0  0  0
    7.5406  -15.2252   25.7692 C   0  0  0  0  0  0  0  0  0  0  0  0
    8.2024  -15.6958   26.7228 O   0  0  0  0  0  0  0  0  0  0  0  0
    6.4925  -15.9849   25.2852 O   0  0  0  0  0  0  0  0  0  0  0  0
  2  1  1  6
  2  3  1  0
  4  2  1  0
  4  5  2  0
  6  4  1  0
  7  6  1  0
  7 14  1  0
  7  8  1  6
  9 10  2  0
  9  8  1  0
 11 10  1  0
 12 13  2  0
 12 11  1  0
 13  9  1  0
 14 15  2  0
 17 18  1  1
 17 16  1  0
 19 17  1  0
 20 19  1  6
 21 14  1  0
 21 20  1  0
 22 24  1  0
 22 20  1  0
 23 22  2  0
M  END
$$$$
