AHL.pdb
     RDKit          3D

 24 24  0  0  1  0  0  0  0  0999 V2000
    7.6039  -12.9702   18.9507 C   0  0  0  0  0  0  0  0  0  0  0  0
    8.8651  -13.1987   19.7563 C   0  0  2  0  0  0  0  0  0  0  0  0
    9.8375  -13.8454   18.8941 N   0  0  0  0  0  0  0  0  0  0  0  0
    8.5191  -14.0877   20.9324 C   0  0  0  0  0  0  0  0  0  0  0  0
    7.4933  -13.7510   21.5596 O   0  0  0  0  0  0  0  0  0  0  0  0
    9.3239  -15.2007   21.2574 N   0  0  0  0  0  0  0  0  0  0  0  0
    9.1090  -16.1352   22.2935 C   0  0  1  0  0  0  0  0  0  0  0  0
    9.7885  -17.4831   22.0684 C   0  0  0  0  0  0  0  0  0  0  0  0
    9.2816  -18.1702   20.8638 C   0  0  0  0  0  0  0  0  0  0  0  0
    7.9871  -18.6981   20.7112 C   0  0  0  0  0  0  0  0  0  0  0  0
    7.9372  -19.2329   19.4802 N   0  0  0  0  0  0  0  0  0  0  0  0
    9.1071  -19.0791   18.8485 C   0  0  0  0  0  0  0  0  0  0  0  0
    9.8972  -18.4262   19.7292 N   0  0  0  0  0  0  0  0  0  0  0  0
    9.3524  -15.5760   23.6295 C   0  0  0  0  0  0  0  0  0  0  0  0
   10.5011  -15.1740   23.9570 O   0  0  0  0  0  0  0  0  0  0  0  0
    6.2265  -12.1544   27.2544 C   0  0  0  0  0  0  0  0  0  0  0  0
    7.3135  -12.8151   26.4497 C   0  0  2  0  0  0  0  0  0  0  0  0
    6.9474  -12.6103   24.9688 C   0  0  0  0  0  0  0  0  0  0  0  0
    7.4593  -14.2752   26.6388 C   0  0  0  0  0  0  0  0  0  0  0  0
    8.5804  -14.9624   25.9474 C   0  0  2  0  0  0  0  0  0  0  0  0
    8.3257  -15.4504   24.6323 N   0  0  0  0  0  0  0  0  0  0  0  0
    9.1878  -15.9838   26.8392 C   0  0  0  0  0  0  0  0  0  0  0  0
    9.0520  -17.1872   26.5191 O   0  0  0  0  0  0  0  0  0  0  0  0
    9.8917  -15.7081   27.9960 O   0  0  0  0  0  0  0  0  0  0  0  0
  2  1  1  6
  2  3  1  0
  4  2  1  0
  4  5  2  0
  6  4  1  0
  7  6  1  0
  7 14  1  0
  7  8  1  6
  9 10  2  0
  9  8  1  0
 11 10  1  0
 12 13  2  0
 12 11  1  0
 13  9  1  0
 14 15  2  0
 17 18  1  6
 17 16  1  0
 19 17  1  0
 20 19  1  1
 21 14  1  0
 21 20  1  0
 22 24  1  0
 22 20  1  0
 23 22  2  0
M  END
$$$$
