AHL.pdb
     RDKit          3D

 24 24  0  0  1  0  0  0  0  0999 V2000
    7.7043  -13.1549   18.0769 C   0  0  0  0  0  0  0  0  0  0  0  0
    8.6197  -13.0306   19.2762 C   0  0  2  0  0  0  0  0  0  0  0  0
    9.9589  -13.4045   18.8593 N   0  0  0  0  0  0  0  0  0  0  0  0
    8.1147  -13.9666   20.3542 C   0  0  0  0  0  0  0  0  0  0  0  0
    6.9190  -13.8010   20.6736 O   0  0  0  0  0  0  0  0  0  0  0  0
    8.9665  -14.9363   20.9254 N   0  0  0  0  0  0  0  0  0  0  0  0
    8.6453  -15.8605   21.9430 C   0  0  1  0  0  0  0  0  0  0  0  0
    9.1864  -17.2669   21.7016 C   0  0  0  0  0  0  0  0  0  0  0  0
    8.5529  -17.9172   20.5371 C   0  0  0  0  0  0  0  0  0  0  0  0
    8.9499  -17.7550   19.1977 C   0  0  0  0  0  0  0  0  0  0  0  0
    8.1208  -18.5124   18.4610 N   0  0  0  0  0  0  0  0  0  0  0  0
    7.2316  -19.1387   19.2410 C   0  0  0  0  0  0  0  0  0  0  0  0
    7.5321  -18.7468   20.4989 N   0  0  0  0  0  0  0  0  0  0  0  0
    8.9286  -15.3507   23.2909 C   0  0  0  0  0  0  0  0  0  0  0  0
   10.1017  -15.0298   23.6217 O   0  0  0  0  0  0  0  0  0  0  0  0
    6.3744  -11.9012   27.3584 C   0  0  0  0  0  0  0  0  0  0  0  0
    7.5111  -12.6989   26.7777 C   0  0  2  0  0  0  0  0  0  0  0  0
    7.9142  -11.9968   25.4685 C   0  0  0  0  0  0  0  0  0  0  0  0
    7.1976  -14.0982   26.4138 C   0  0  0  0  0  0  0  0  0  0  0  0
    8.2178  -14.8710   25.6594 C   0  0  2  0  0  0  0  0  0  0  0  0
    7.9158  -15.1857   24.3021 N   0  0  0  0  0  0  0  0  0  0  0  0
    8.6560  -16.0525   26.4465 C   0  0  0  0  0  0  0  0  0  0  0  0
    9.0521  -15.8539   27.6181 O   0  0  0  0  0  0  0  0  0  0  0  0
    8.6604  -17.3551   25.9850 O   0  0  0  0  0  0  0  0  0  0  0  0
  2  1  1  6
  2  3  1  0
  4  2  1  0
  4  5  2  0
  6  4  1  0
  7  6  1  0
  7 14  1  0
  7  8  1  6
  9 10  2  0
  9  8  1  0
 11 10  1  0
 12 13  2  0
 12 11  1  0
 13  9  1  0
 14 15  2  0
 17 18  1  6
 17 16  1  0
 19 17  1  0
 20 19  1  1
 21 14  1  0
 21 20  1  0
 22 24  1  0
 22 20  1  0
 23 22  2  0
M  END
$$$$
