AHL.pdb
     RDKit          3D

 24 24  0  0  1  0  0  0  0  0999 V2000
    7.7909  -13.2281   18.3801 C   0  0  0  0  0  0  0  0  0  0  0  0
    8.5932  -13.0029   19.6440 C   0  0  2  0  0  0  0  0  0  0  0  0
   10.0016  -13.0839   19.3020 N   0  0  0  0  0  0  0  0  0  0  0  0
    8.2215  -14.0835   20.6376 C   0  0  0  0  0  0  0  0  0  0  0  0
    7.0048  -14.1485   20.9100 O   0  0  0  0  0  0  0  0  0  0  0  0
    9.2088  -14.9290   21.1876 N   0  0  0  0  0  0  0  0  0  0  0  0
    9.0217  -15.9469   22.1476 C   0  0  1  0  0  0  0  0  0  0  0  0
    9.7565  -17.2463   21.8302 C   0  0  0  0  0  0  0  0  0  0  0  0
    9.1305  -17.9842   20.7148 C   0  0  0  0  0  0  0  0  0  0  0  0
    7.8978  -17.6659   20.1177 C   0  0  0  0  0  0  0  0  0  0  0  0
    7.6968  -18.5769   19.1515 N   0  0  0  0  0  0  0  0  0  0  0  0
    8.7144  -19.4445   19.0986 C   0  0  0  0  0  0  0  0  0  0  0  0
    9.5656  -19.0454   20.0694 N   0  0  0  0  0  0  0  0  0  0  0  0
    9.2299  -15.4814   23.5249 C   0  0  0  0  0  0  0  0  0  0  0  0
   10.3782  -15.1464   23.9219 O   0  0  0  0  0  0  0  0  0  0  0  0
    7.9311  -11.7092   26.0218 C   0  0  0  0  0  0  0  0  0  0  0  0
    6.9334  -12.8181   25.8202 C   0  0  2  0  0  0  0  0  0  0  0  0
    5.6276  -12.3594   26.4938 C   0  0  0  0  0  0  0  0  0  0  0  0
    7.2796  -14.1174   26.4373 C   0  0  0  0  0  0  0  0  0  0  0  0
    8.3741  -14.9140   25.8250 C   0  0  2  0  0  0  0  0  0  0  0  0
    8.1678  -15.3773   24.4927 N   0  0  0  0  0  0  0  0  0  0  0  0
    8.8114  -15.9886   26.7532 C   0  0  0  0  0  0  0  0  0  0  0  0
    8.5409  -17.1707   26.4398 O   0  0  0  0  0  0  0  0  0  0  0  0
    9.4942  -15.7839   27.9371 O   0  0  0  0  0  0  0  0  0  0  0  0
  2  1  1  6
  2  3  1  0
  4  2  1  0
  4  5  2  0
  6  4  1  0
  7  6  1  0
  7 14  1  0
  7  8  1  6
  9 10  2  0
  9  8  1  0
 11 10  1  0
 12 13  2  0
 12 11  1  0
 13  9  1  0
 14 15  2  0
 17 18  1  1
 17 16  1  0
 19 17  1  0
 20 19  1  1
 21 14  1  0
 21 20  1  0
 22 24  1  0
 22 20  1  0
 23 22  2  0
M  END
$$$$
