HTF.pdb
     RDKit          3D

 29 30  0  0  1  0  0  0  0  0999 V2000
   10.7814  -18.1794   19.3628 N   0  0  0  0  0  0  0  0  0  0  0  0
   10.7423  -16.7881   18.9588 C   0  0  1  0  0  0  0  0  0  0  0  0
   10.3106  -16.7277   17.5219 C   0  0  0  0  0  0  0  0  0  0  0  0
   11.2883  -17.4994   16.7220 C   0  0  0  0  0  0  0  0  0  0  0  0
   10.9968  -18.5169   15.8445 C   0  0  0  0  0  0  0  0  0  0  0  0
   12.1399  -18.9873   15.2955 N   0  0  0  0  0  0  0  0  0  0  0  0
   13.1431  -18.2638   15.8302 C   0  0  0  0  0  0  0  0  0  0  0  0
   12.6208  -17.3539   16.7027 N   0  0  0  0  0  0  0  0  0  0  0  0
    9.8396  -15.9922   19.8464 C   0  0  0  0  0  0  0  0  0  0  0  0
    9.6880  -14.7730   19.6034 O   0  0  0  0  0  0  0  0  0  0  0  0
    6.3457  -15.6750   20.5324 C   0  0  0  0  0  0  0  0  0  0  0  0
    6.9397  -16.1529   21.8488 C   0  0  1  0  0  0  0  0  0  0  0  0
    6.5627  -17.4686   21.9933 O   0  0  0  0  0  0  0  0  0  0  0  0
    8.3929  -15.8797   21.9556 C   0  0  2  0  0  0  0  0  0  0  0  0
    9.1590  -16.5624   20.9384 N   0  0  0  0  0  0  0  0  0  0  0  0
    8.9480  -16.0110   23.3227 C   0  0  0  0  0  0  0  0  0  0  0  0
    9.7764  -16.9022   23.6753 O   0  0  0  0  0  0  0  0  0  0  0  0
    8.5502  -15.1004   24.3086 N   0  0  0  0  0  0  0  0  0  0  0  0
    8.7913  -15.3418   25.7438 C   0  0  1  0  0  0  0  0  0  0  0  0
    7.6045  -14.7879   26.4565 C   0  0  0  0  0  0  0  0  0  0  0  0
    7.4323  -13.3410   26.3924 C   0  0  0  0  0  0  0  0  0  0  0  0
    6.2728  -12.7512   26.8450 C   0  0  0  0  0  0  0  0  0  0  0  0
    6.1106  -11.3812   26.7875 C   0  0  0  0  0  0  0  0  0  0  0  0
    7.1510  -10.6105   26.2593 C   0  0  0  0  0  0  0  0  0  0  0  0
    8.3218  -11.1995   25.8015 C   0  0  0  0  0  0  0  0  0  0  0  0
    8.4584  -12.5746   25.8708 C   0  0  0  0  0  0  0  0  0  0  0  0
    8.9472  -16.8101   25.8858 C   0  0  0  0  0  0  0  0  0  0  0  0
    8.3213  -17.5442   25.0676 O   0  0  0  0  0  0  0  0  0  0  0  0
    9.7395  -17.4067   26.8645 O   0  0  0  0  0  0  0  0  0  0  0  0
  2  1  1  1
  2  9  1  0
  3  2  1  0
  4  8  1  0
  4  3  1  0
  5  4  2  0
  6  5  1  0
  6  7  1  0
  7  8  2  0
  9 10  2  0
 12 11  1  6
 13 12  1  0
 14 12  1  0
 15  9  1  0
 14 15  1  6
 16 14  1  0
 16 17  2  0
 18 16  1  0
 19 27  1  0
 19 18  1  0
 19 20  1  1
 21 20  1  0
 21 22  2  0
 23 22  1  0
 24 23  2  0
 25 26  2  0
 25 24  1  0
 26 21  1  0
 27 29  1  0
 28 27  2  0
M  END
$$$$
