HTF.pdb
     RDKit          3D

 29 30  0  0  1  0  0  0  0  0999 V2000
    8.8973  -16.5746   19.0424 N   0  0  0  0  0  0  0  0  0  0  0  0
    8.3249  -15.5540   19.8976 C   0  0  1  0  0  0  0  0  0  0  0  0
    7.1239  -14.9786   19.2038 C   0  0  0  0  0  0  0  0  0  0  0  0
    7.5812  -14.3737   17.9326 C   0  0  0  0  0  0  0  0  0  0  0  0
    7.9756  -13.0693   17.7496 C   0  0  0  0  0  0  0  0  0  0  0  0
    8.3267  -12.8759   16.4578 N   0  0  0  0  0  0  0  0  0  0  0  0
    8.1513  -14.0585   15.8361 C   0  0  0  0  0  0  0  0  0  0  0  0
    7.6952  -14.9739   16.7394 N   0  0  0  0  0  0  0  0  0  0  0  0
    7.9801  -16.1068   21.2436 C   0  0  0  0  0  0  0  0  0  0  0  0
    6.9036  -16.7336   21.3728 O   0  0  0  0  0  0  0  0  0  0  0  0
    7.2019  -18.3328   22.6505 C   0  0  0  0  0  0  0  0  0  0  0  0
    8.4204  -18.0530   23.5171 C   0  0  1  0  0  0  0  0  0  0  0  0
    9.4408  -18.8316   23.0205 O   0  0  0  0  0  0  0  0  0  0  0  0
    8.7135  -16.6054   23.6452 C   0  0  2  0  0  0  0  0  0  0  0  0
    8.8184  -15.9479   22.3628 N   0  0  0  0  0  0  0  0  0  0  0  0
    9.8096  -16.2772   24.5861 C   0  0  0  0  0  0  0  0  0  0  0  0
   11.0248  -16.1500   24.2514 O   0  0  0  0  0  0  0  0  0  0  0  0
    9.5094  -16.0862   25.9399 N   0  0  0  0  0  0  0  0  0  0  0  0
   10.4697  -15.4753   26.8786 C   0  0  1  0  0  0  0  0  0  0  0  0
   10.3881  -14.0046   26.6473 C   0  0  0  0  0  0  0  0  0  0  0  0
    9.0713  -13.3991   26.8106 C   0  0  0  0  0  0  0  0  0  0  0  0
    8.0964  -13.5697   25.8527 C   0  0  0  0  0  0  0  0  0  0  0  0
    6.8487  -12.9994   26.0083 C   0  0  0  0  0  0  0  0  0  0  0  0
    6.6013  -12.2462   27.1602 C   0  0  0  0  0  0  0  0  0  0  0  0
    7.5801  -12.0707   28.1290 C   0  0  0  0  0  0  0  0  0  0  0  0
    8.8220  -12.6533   27.9481 C   0  0  0  0  0  0  0  0  0  0  0  0
   10.0344  -15.8965   28.2326 C   0  0  0  0  0  0  0  0  0  0  0  0
   10.7109  -15.4810   29.2175 O   0  0  0  0  0  0  0  0  0  0  0  0
    8.9317  -16.7162   28.4641 O   0  0  0  0  0  0  0  0  0  0  0  0
  2  1  1  6
  2  9  1  0
  3  2  1  0
  4  8  1  0
  4  3  1  0
  5  4  2  0
  6  5  1  0
  6  7  1  0
  7  8  2  0
  9 10  2  0
 12 11  1  6
 13 12  1  0
 14 12  1  0
 15  9  1  0
 14 15  1  6
 16 14  1  0
 16 17  2  0
 18 16  1  0
 19 27  1  0
 19 18  1  0
 19 20  1  1
 21 20  1  0
 21 22  2  0
 23 22  1  0
 24 23  2  0
 25 26  2  0
 25 24  1  0
 26 21  1  0
 27 29  1  0
 28 27  2  0
M  END
$$$$
