HTF.pdb
     RDKit          3D

 29 30  0  0  1  0  0  0  0  0999 V2000
    8.4090  -17.0451   17.9423 N   0  0  0  0  0  0  0  0  0  0  0  0
    8.1240  -15.8902   18.7702 C   0  0  1  0  0  0  0  0  0  0  0  0
    7.0980  -15.0491   18.0668 C   0  0  0  0  0  0  0  0  0  0  0  0
    7.6897  -14.5840   16.7922 C   0  0  0  0  0  0  0  0  0  0  0  0
    8.9349  -14.9095   16.3083 C   0  0  0  0  0  0  0  0  0  0  0  0
    9.1347  -14.3011   15.1170 N   0  0  0  0  0  0  0  0  0  0  0  0
    8.0153  -13.5970   14.8584 C   0  0  0  0  0  0  0  0  0  0  0  0
    7.1321  -13.7709   15.8839 N   0  0  0  0  0  0  0  0  0  0  0  0
    7.6686  -16.3012   20.1340 C   0  0  0  0  0  0  0  0  0  0  0  0
    6.4940  -16.7133   20.2713 O   0  0  0  0  0  0  0  0  0  0  0  0
    6.5499  -18.3179   21.6108 C   0  0  0  0  0  0  0  0  0  0  0  0
    7.7330  -18.1521   22.5526 C   0  0  1  0  0  0  0  0  0  0  0  0
    8.6430  -19.1272   22.2129 O   0  0  0  0  0  0  0  0  0  0  0  0
    8.2521  -16.7638   22.5834 C   0  0  2  0  0  0  0  0  0  0  0  0
    8.5093  -16.2412   21.2611 N   0  0  0  0  0  0  0  0  0  0  0  0
    9.3515  -16.5359   23.5497 C   0  0  0  0  0  0  0  0  0  0  0  0
   10.5830  -16.6022   23.2599 O   0  0  0  0  0  0  0  0  0  0  0  0
    9.0363  -16.2212   24.8767 N   0  0  0  0  0  0  0  0  0  0  0  0
   10.0428  -15.6982   25.8201 C   0  0  1  0  0  0  0  0  0  0  0  0
   10.0329  -14.2172   25.6488 C   0  0  0  0  0  0  0  0  0  0  0  0
    8.7802  -13.5406   25.9653 C   0  0  0  0  0  0  0  0  0  0  0  0
    7.7213  -13.5759   25.0852 C   0  0  0  0  0  0  0  0  0  0  0  0
    6.5341  -12.9382   25.3858 C   0  0  0  0  0  0  0  0  0  0  0  0
    6.4351  -12.2577   26.6034 C   0  0  0  0  0  0  0  0  0  0  0  0
    7.4991  -12.2187   27.4943 C   0  0  0  0  0  0  0  0  0  0  0  0
    8.6776  -12.8662   27.1682 C   0  0  0  0  0  0  0  0  0  0  0  0
    9.6099  -16.1513   27.1646 C   0  0  0  0  0  0  0  0  0  0  0  0
    8.4917  -16.7366   27.2501 O   0  0  0  0  0  0  0  0  0  0  0  0
   10.3680  -15.9639   28.3186 O   0  0  0  0  0  0  0  0  0  0  0  0
  2  1  1  6
  2  9  1  0
  3  2  1  0
  4  8  1  0
  4  3  1  0
  5  4  2  0
  6  5  1  0
  6  7  1  0
  7  8  2  0
  9 10  2  0
 12 11  1  6
 13 12  1  0
 14 12  1  0
 15  9  1  0
 14 15  1  6
 16 14  1  0
 16 17  2  0
 18 16  1  0
 19 27  1  0
 19 18  1  0
 19 20  1  1
 21 20  1  0
 21 22  2  0
 23 22  1  0
 24 23  2  0
 25 26  2  0
 25 24  1  0
 26 21  1  0
 27 29  1  0
 28 27  2  0
M  END
$$$$
