HTF.pdb
     RDKit          3D

 29 30  0  0  1  0  0  0  0  0999 V2000
    8.0837  -16.9606   18.4719 N   0  0  0  0  0  0  0  0  0  0  0  0
    8.0504  -15.8265   19.3737 C   0  0  1  0  0  0  0  0  0  0  0  0
    7.0894  -14.8140   18.8205 C   0  0  0  0  0  0  0  0  0  0  0  0
    7.5997  -14.3781   17.5011 C   0  0  0  0  0  0  0  0  0  0  0  0
    8.5168  -13.3791   17.2748 C   0  0  0  0  0  0  0  0  0  0  0  0
    8.7434  -13.2602   15.9467 N   0  0  0  0  0  0  0  0  0  0  0  0
    7.9683  -14.1842   15.3457 C   0  0  0  0  0  0  0  0  0  0  0  0
    7.2691  -14.8674   16.2976 N   0  0  0  0  0  0  0  0  0  0  0  0
    7.6801  -16.2481   20.7598 C   0  0  0  0  0  0  0  0  0  0  0  0
    6.4655  -16.3473   21.0483 O   0  0  0  0  0  0  0  0  0  0  0  0
    6.8074  -18.6934   22.4410 C   0  0  0  0  0  0  0  0  0  0  0  0
    8.0255  -18.3244   23.2743 C   0  0  1  0  0  0  0  0  0  0  0  0
    8.9995  -19.2494   22.9743 O   0  0  0  0  0  0  0  0  0  0  0  0
    8.4146  -16.9018   23.1236 C   0  0  2  0  0  0  0  0  0  0  0  0
    8.6434  -16.5352   21.7448 N   0  0  0  0  0  0  0  0  0  0  0  0
    9.4733  -16.4482   24.0551 C   0  0  0  0  0  0  0  0  0  0  0  0
   10.6878  -16.2871   23.7330 O   0  0  0  0  0  0  0  0  0  0  0  0
    9.1354  -16.1685   25.3844 N   0  0  0  0  0  0  0  0  0  0  0  0
   10.1038  -15.5916   26.3361 C   0  0  1  0  0  0  0  0  0  0  0  0
    9.9082  -14.1148   26.2736 C   0  0  0  0  0  0  0  0  0  0  0  0
    8.5657  -13.6298   26.5730 C   0  0  0  0  0  0  0  0  0  0  0  0
    7.5651  -13.7055   25.6295 C   0  0  0  0  0  0  0  0  0  0  0  0
    6.2932  -13.2494   25.9135 C   0  0  0  0  0  0  0  0  0  0  0  0
    6.0482  -12.7101   27.1802 C   0  0  0  0  0  0  0  0  0  0  0  0
    7.0528  -12.6311   28.1351 C   0  0  0  0  0  0  0  0  0  0  0  0
    8.3186  -13.0955   27.8243 C   0  0  0  0  0  0  0  0  0  0  0  0
    9.7771  -16.1865   27.6551 C   0  0  0  0  0  0  0  0  0  0  0  0
    8.7805  -16.9634   27.7131 O   0  0  0  0  0  0  0  0  0  0  0  0
   10.5074  -15.9316   28.8141 O   0  0  0  0  0  0  0  0  0  0  0  0
  2  1  1  6
  2  9  1  0
  3  2  1  0
  4  8  1  0
  4  3  1  0
  5  4  2  0
  6  5  1  0
  6  7  1  0
  7  8  2  0
  9 10  2  0
 12 11  1  6
 13 12  1  0
 14 12  1  0
 15  9  1  0
 14 15  1  6
 16 14  1  0
 16 17  2  0
 18 16  1  0
 19 27  1  0
 19 18  1  0
 19 20  1  1
 21 20  1  0
 21 22  2  0
 23 22  1  0
 24 23  2  0
 25 26  2  0
 25 24  1  0
 26 21  1  0
 27 29  1  0
 28 27  2  0
M  END
$$$$
