HTF.pdb
     RDKit          3D

 29 30  0  0  1  0  0  0  0  0999 V2000
   10.7044  -16.5206   18.2265 N   0  0  0  0  0  0  0  0  0  0  0  0
   10.9863  -15.8910   19.5011 C   0  0  1  0  0  0  0  0  0  0  0  0
   11.3469  -14.4556   19.2470 C   0  0  0  0  0  0  0  0  0  0  0  0
   12.8169  -14.3781   19.0919 C   0  0  0  0  0  0  0  0  0  0  0  0
   13.7290  -14.1568   20.0967 C   0  0  0  0  0  0  0  0  0  0  0  0
   14.9804  -14.1508   19.5837 N   0  0  0  0  0  0  0  0  0  0  0  0
   14.8487  -14.3681   18.2603 C   0  0  0  0  0  0  0  0  0  0  0  0
   13.5247  -14.5069   17.9608 N   0  0  0  0  0  0  0  0  0  0  0  0
    9.8258  -16.0177   20.4356 C   0  0  0  0  0  0  0  0  0  0  0  0
    8.6876  -16.2109   19.9500 O   0  0  0  0  0  0  0  0  0  0  0  0
    7.9676  -17.9542   21.1492 C   0  0  0  0  0  0  0  0  0  0  0  0
    8.7027  -17.9035   22.4801 C   0  0  1  0  0  0  0  0  0  0  0  0
    9.6998  -18.8499   22.4125 O   0  0  0  0  0  0  0  0  0  0  0  0
    9.1339  -16.5331   22.8460 C   0  0  2  0  0  0  0  0  0  0  0  0
    9.9677  -15.9279   21.8329 N   0  0  0  0  0  0  0  0  0  0  0  0
    9.6596  -16.3974   24.2242 C   0  0  0  0  0  0  0  0  0  0  0  0
   10.8911  -16.3719   24.5202 O   0  0  0  0  0  0  0  0  0  0  0  0
    8.7572  -16.2844   25.2883 N   0  0  0  0  0  0  0  0  0  0  0  0
    9.2008  -16.0120   26.6686 C   0  0  1  0  0  0  0  0  0  0  0  0
    8.0393  -15.3751   27.3531 C   0  0  0  0  0  0  0  0  0  0  0  0
    7.6699  -14.0425   26.8892 C   0  0  0  0  0  0  0  0  0  0  0  0
    6.4858  -13.8363   26.2166 C   0  0  0  0  0  0  0  0  0  0  0  0
    6.1343  -12.5745   25.7801 C   0  0  0  0  0  0  0  0  0  0  0  0
    7.0092  -11.5145   26.0379 C   0  0  0  0  0  0  0  0  0  0  0  0
    8.2040  -11.7164   26.7152 C   0  0  0  0  0  0  0  0  0  0  0  0
    8.5320  -12.9912   27.1417 C   0  0  0  0  0  0  0  0  0  0  0  0
    9.5864  -17.3272   27.2360 C   0  0  0  0  0  0  0  0  0  0  0  0
    9.1396  -18.3625   26.6626 O   0  0  0  0  0  0  0  0  0  0  0  0
   10.4054  -17.4704   28.3541 O   0  0  0  0  0  0  0  0  0  0  0  0
  2  1  1  6
  2  9  1  0
  3  2  1  0
  4  8  1  0
  4  3  1  0
  5  4  2  0
  6  5  1  0
  6  7  1  0
  7  8  2  0
  9 10  2  0
 12 11  1  6
 13 12  1  0
 14 12  1  0
 15  9  1  0
 14 15  1  6
 16 14  1  0
 16 17  2  0
 18 16  1  0
 19 27  1  0
 19 18  1  0
 19 20  1  1
 21 20  1  0
 21 22  2  0
 23 22  1  0
 24 23  2  0
 25 26  2  0
 25 24  1  0
 26 21  1  0
 27 29  1  0
 28 27  2  0
M  END
$$$$
