HTF.pdb
     RDKit          3D

 29 30  0  0  1  0  0  0  0  0999 V2000
    8.9583  -17.1729   19.5095 N   0  0  0  0  0  0  0  0  0  0  0  0
    8.8177  -16.2614   20.6275 C   0  0  1  0  0  0  0  0  0  0  0  0
    7.5681  -15.4545   20.4220 C   0  0  0  0  0  0  0  0  0  0  0  0
    7.8967  -14.3336   19.5127 C   0  0  0  0  0  0  0  0  0  0  0  0
    9.1258  -14.0756   18.9529 C   0  0  0  0  0  0  0  0  0  0  0  0
    9.0507  -12.9702   18.1773 N   0  0  0  0  0  0  0  0  0  0  0  0
    7.7762  -12.5394   18.2535 C   0  0  0  0  0  0  0  0  0  0  0  0
    7.0713  -13.3743   19.0707 N   0  0  0  0  0  0  0  0  0  0  0  0
    8.7978  -16.9993   21.9280 C   0  0  0  0  0  0  0  0  0  0  0  0
    8.2447  -18.1223   21.9679 O   0  0  0  0  0  0  0  0  0  0  0  0
    9.4056  -19.4250   23.3350 C   0  0  0  0  0  0  0  0  0  0  0  0
   10.2103  -18.4768   24.2111 C   0  0  1  0  0  0  0  0  0  0  0  0
   11.4900  -18.4675   23.7047 O   0  0  0  0  0  0  0  0  0  0  0  0
    9.5650  -17.1511   24.3658 C   0  0  2  0  0  0  0  0  0  0  0  0
    9.3754  -16.4786   23.1010 N   0  0  0  0  0  0  0  0  0  0  0  0
   10.1522  -16.2972   25.4242 C   0  0  0  0  0  0  0  0  0  0  0  0
   11.1140  -15.4929   25.2422 O   0  0  0  0  0  0  0  0  0  0  0  0
    9.6257  -16.3610   26.7196 N   0  0  0  0  0  0  0  0  0  0  0  0
   10.0264  -15.4143   27.7777 C   0  0  1  0  0  0  0  0  0  0  0  0
    8.7646  -14.7848   28.2622 C   0  0  0  0  0  0  0  0  0  0  0  0
    8.1410  -13.8188   27.3649 C   0  0  0  0  0  0  0  0  0  0  0  0
    6.9302  -14.0939   26.7689 C   0  0  0  0  0  0  0  0  0  0  0  0
    6.3379  -13.1784   25.9219 C   0  0  0  0  0  0  0  0  0  0  0  0
    6.9975  -11.9683   25.6855 C   0  0  0  0  0  0  0  0  0  0  0  0
    8.2181  -11.6855   26.2833 C   0  0  0  0  0  0  0  0  0  0  0  0
    8.7896  -12.6206   27.1280 C   0  0  0  0  0  0  0  0  0  0  0  0
   10.7258  -16.2267   28.8029 C   0  0  0  0  0  0  0  0  0  0  0  0
   11.2445  -15.6119   29.7792 O   0  0  0  0  0  0  0  0  0  0  0  0
   10.8350  -17.6144   28.7394 O   0  0  0  0  0  0  0  0  0  0  0  0
  2  1  1  6
  2  9  1  0
  3  2  1  0
  4  8  1  0
  4  3  1  0
  5  4  2  0
  6  5  1  0
  6  7  1  0
  7  8  2  0
  9 10  2  0
 12 11  1  6
 13 12  1  0
 14 12  1  0
 15  9  1  0
 14 15  1  6
 16 14  1  0
 16 17  2  0
 18 16  1  0
 19 27  1  0
 19 18  1  0
 19 20  1  1
 21 20  1  0
 21 22  2  0
 23 22  1  0
 24 23  2  0
 25 26  2  0
 25 24  1  0
 26 21  1  0
 27 29  1  0
 28 27  2  0
M  END
$$$$
