HTF.pdb
     RDKit          3D

 29 30  0  0  1  0  0  0  0  0999 V2000
    9.2715  -18.0544   16.2222 N   0  0  0  0  0  0  0  0  0  0  0  0
    9.2648  -18.5914   17.5683 C   0  0  1  0  0  0  0  0  0  0  0  0
   10.5247  -19.3847   17.7643 C   0  0  0  0  0  0  0  0  0  0  0  0
   10.3214  -20.7169   17.1520 C   0  0  0  0  0  0  0  0  0  0  0  0
    9.5331  -21.7276   17.6494 C   0  0  0  0  0  0  0  0  0  0  0  0
    9.5892  -22.7979   16.8245 N   0  0  0  0  0  0  0  0  0  0  0  0
   10.4118  -22.4550   15.8138 C   0  0  0  0  0  0  0  0  0  0  0  0
   10.8590  -21.1817   16.0153 N   0  0  0  0  0  0  0  0  0  0  0  0
    9.1272  -17.5030   18.5844 C   0  0  0  0  0  0  0  0  0  0  0  0
    9.3535  -16.3236   18.2291 O   0  0  0  0  0  0  0  0  0  0  0  0
    6.5397  -15.0474   21.3764 C   0  0  0  0  0  0  0  0  0  0  0  0
    7.1372  -15.9883   20.3410 C   0  0  1  0  0  0  0  0  0  0  0  0
    7.4481  -15.2166   19.2446 O   0  0  0  0  0  0  0  0  0  0  0  0
    8.2408  -16.8150   20.8856 C   0  0  2  0  0  0  0  0  0  0  0  0
    8.7544  -17.7568   19.9175 N   0  0  0  0  0  0  0  0  0  0  0  0
    7.9741  -17.4014   22.2194 C   0  0  0  0  0  0  0  0  0  0  0  0
    7.1805  -18.3661   22.4304 O   0  0  0  0  0  0  0  0  0  0  0  0
    8.6323  -16.8758   23.3374 N   0  0  0  0  0  0  0  0  0  0  0  0
    8.4686  -17.4494   24.6867 C   0  0  1  0  0  0  0  0  0  0  0  0
    9.7226  -17.1232   25.4244 C   0  0  0  0  0  0  0  0  0  0  0  0
   10.9501  -17.7099   24.8987 C   0  0  0  0  0  0  0  0  0  0  0  0
   11.2925  -19.0094   25.2005 C   0  0  0  0  0  0  0  0  0  0  0  0
   12.4528  -19.5662   24.7005 C   0  0  0  0  0  0  0  0  0  0  0  0
   13.2689  -18.7787   23.8824 C   0  0  0  0  0  0  0  0  0  0  0  0
   12.9289  -17.4683   23.5750 C   0  0  0  0  0  0  0  0  0  0  0  0
   11.7604  -16.9349   24.0893 C   0  0  0  0  0  0  0  0  0  0  0  0
    7.2546  -16.8117   25.2521 C   0  0  0  0  0  0  0  0  0  0  0  0
    6.8739  -15.7222   24.7342 O   0  0  0  0  0  0  0  0  0  0  0  0
    6.5269  -17.3506   26.3111 O   0  0  0  0  0  0  0  0  0  0  0  0
  2  1  1  6
  2  9  1  0
  3  2  1  0
  4  8  1  0
  4  3  1  0
  5  4  2  0
  6  5  1  0
  6  7  1  0
  7  8  2  0
  9 10  2  0
 12 11  1  1
 13 12  1  0
 14 12  1  0
 15  9  1  0
 14 15  1  6
 16 14  1  0
 16 17  2  0
 18 16  1  0
 19 27  1  0
 19 18  1  0
 19 20  1  1
 21 20  1  0
 21 22  2  0
 23 22  1  0
 24 23  2  0
 25 26  2  0
 25 24  1  0
 26 21  1  0
 27 29  1  0
 28 27  2  0
M  END
$$$$
