HTF.pdb
     RDKit          3D

 29 30  0  0  1  0  0  0  0  0999 V2000
   12.0049  -16.5025   12.4012 N   0  0  0  0  0  0  0  0  0  0  0  0
   12.6599  -16.4433   13.6927 C   0  0  1  0  0  0  0  0  0  0  0  0
   13.7684  -15.4336   13.6118 C   0  0  0  0  0  0  0  0  0  0  0  0
   14.9434  -16.0980   13.0043 C   0  0  0  0  0  0  0  0  0  0  0  0
   15.9591  -16.7303   13.6818 C   0  0  0  0  0  0  0  0  0  0  0  0
   16.8601  -17.2198   12.7998 N   0  0  0  0  0  0  0  0  0  0  0  0
   16.4066  -16.8931   11.5737 C   0  0  0  0  0  0  0  0  0  0  0  0
   15.2339  -16.2069   11.7002 N   0  0  0  0  0  0  0  0  0  0  0  0
   11.6856  -16.1165   14.7790 C   0  0  0  0  0  0  0  0  0  0  0  0
   10.7751  -15.2919   14.5350 O   0  0  0  0  0  0  0  0  0  0  0  0
    9.1981  -18.0430   16.0220 C   0  0  0  0  0  0  0  0  0  0  0  0
    9.9192  -17.6857   17.3129 C   0  0  1  0  0  0  0  0  0  0  0  0
   10.4910  -18.8487   17.7763 O   0  0  0  0  0  0  0  0  0  0  0  0
   10.8351  -16.5303   17.1580 C   0  0  2  0  0  0  0  0  0  0  0  0
   11.7563  -16.6999   16.0578 N   0  0  0  0  0  0  0  0  0  0  0  0
   11.4703  -16.0717   18.4152 C   0  0  0  0  0  0  0  0  0  0  0  0
   12.7160  -16.1108   18.6423 O   0  0  0  0  0  0  0  0  0  0  0  0
   10.6637  -15.5531   19.4349 N   0  0  0  0  0  0  0  0  0  0  0  0
   11.2318  -14.9400   20.6505 C   0  0  1  0  0  0  0  0  0  0  0  0
   10.4966  -13.6573   20.8432 C   0  0  0  0  0  0  0  0  0  0  0  0
    9.0695  -13.6816   20.5431 C   0  0  0  0  0  0  0  0  0  0  0  0
    8.5977  -13.2138   19.3366 C   0  0  0  0  0  0  0  0  0  0  0  0
    7.2472  -13.2395   19.0507 C   0  0  0  0  0  0  0  0  0  0  0  0
    6.3734  -13.7513   20.0151 C   0  0  0  0  0  0  0  0  0  0  0  0
    6.8432  -14.2241   21.2329 C   0  0  0  0  0  0  0  0  0  0  0  0
    8.2015  -14.1867   21.4938 C   0  0  0  0  0  0  0  0  0  0  0  0
   11.0173  -15.9257   21.7380 C   0  0  0  0  0  0  0  0  0  0  0  0
   11.5102  -15.6585   22.8720 O   0  0  0  0  0  0  0  0  0  0  0  0
   10.3086  -17.1134   21.5687 O   0  0  0  0  0  0  0  0  0  0  0  0
  2  1  1  6
  2  9  1  0
  3  2  1  0
  4  8  1  0
  4  3  1  0
  5  4  2  0
  6  5  1  0
  6  7  1  0
  7  8  2  0
  9 10  2  0
 12 11  1  6
 13 12  1  0
 14 12  1  0
 15  9  1  0
 14 15  1  6
 16 14  1  0
 16 17  2  0
 18 16  1  0
 19 27  1  0
 19 18  1  0
 19 20  1  1
 21 20  1  0
 21 22  2  0
 23 22  1  0
 24 23  2  0
 25 26  2  0
 25 24  1  0
 26 21  1  0
 27 29  1  0
 28 27  2  0
M  END
$$$$
