HTF.pdb
     RDKit          3D

 29 30  0  0  1  0  0  0  0  0999 V2000
    6.9557  -16.8162   20.2855 N   0  0  0  0  0  0  0  0  0  0  0  0
    7.8120  -16.0137   21.1359 C   0  0  1  0  0  0  0  0  0  0  0  0
    7.2214  -14.6364   21.2322 C   0  0  0  0  0  0  0  0  0  0  0  0
    7.7349  -13.8423   20.0934 C   0  0  0  0  0  0  0  0  0  0  0  0
    8.6167  -14.2771   19.1322 C   0  0  0  0  0  0  0  0  0  0  0  0
    8.8589  -13.2802   18.2509 N   0  0  0  0  0  0  0  0  0  0  0  0
    8.1290  -12.2248   18.6622 C   0  0  0  0  0  0  0  0  0  0  0  0
    7.4418  -12.5700   19.7894 N   0  0  0  0  0  0  0  0  0  0  0  0
    7.9815  -16.6433   22.4816 C   0  0  0  0  0  0  0  0  0  0  0  0
    7.0287  -17.3043   22.9548 O   0  0  0  0  0  0  0  0  0  0  0  0
    9.3630  -19.4428   23.4440 C   0  0  0  0  0  0  0  0  0  0  0  0
   10.1807  -18.4679   24.2778 C   0  0  1  0  0  0  0  0  0  0  0  0
   11.4274  -18.4074   23.6979 O   0  0  0  0  0  0  0  0  0  0  0  0
    9.4955  -17.1686   24.4781 C   0  0  2  0  0  0  0  0  0  0  0  0
    9.1671  -16.5195   23.2297 N   0  0  0  0  0  0  0  0  0  0  0  0
   10.1363  -16.2786   25.4739 C   0  0  0  0  0  0  0  0  0  0  0  0
   11.0826  -15.4778   25.2125 O   0  0  0  0  0  0  0  0  0  0  0  0
    9.6827  -16.3014   26.7979 N   0  0  0  0  0  0  0  0  0  0  0  0
   10.2768  -15.4503   27.8463 C   0  0  1  0  0  0  0  0  0  0  0  0
    9.1369  -14.7304   28.4831 C   0  0  0  0  0  0  0  0  0  0  0  0
    8.3774  -13.8344   27.6184 C   0  0  0  0  0  0  0  0  0  0  0  0
    7.1352  -14.1984   27.1479 C   0  0  0  0  0  0  0  0  0  0  0  0
    6.4145  -13.3491   26.3320 C   0  0  0  0  0  0  0  0  0  0  0  0
    6.9770  -12.1135   25.9967 C   0  0  0  0  0  0  0  0  0  0  0  0
    8.2287  -11.7414   26.4679 C   0  0  0  0  0  0  0  0  0  0  0  0
    8.9297  -12.6114   27.2841 C   0  0  0  0  0  0  0  0  0  0  0  0
   10.9907  -16.3749   28.7606 C   0  0  0  0  0  0  0  0  0  0  0  0
   11.6409  -15.8619   29.7167 O   0  0  0  0  0  0  0  0  0  0  0  0
   10.9771  -17.7606   28.6153 O   0  0  0  0  0  0  0  0  0  0  0  0
  2  1  1  6
  2  9  1  0
  3  2  1  0
  4  8  1  0
  4  3  1  0
  5  4  2  0
  6  5  1  0
  6  7  1  0
  7  8  2  0
  9 10  2  0
 12 11  1  6
 13 12  1  0
 14 12  1  0
 15  9  1  0
 14 15  1  6
 16 14  1  0
 16 17  2  0
 18 16  1  0
 19 27  1  0
 19 18  1  0
 19 20  1  1
 21 20  1  0
 21 22  2  0
 23 22  1  0
 24 23  2  0
 25 26  2  0
 25 24  1  0
 26 21  1  0
 27 29  1  0
 28 27  2  0
M  END
$$$$
