HTF.pdb
     RDKit          3D

 29 30  0  0  1  0  0  0  0  0999 V2000
    7.5572  -16.7923   19.9850 N   0  0  0  0  0  0  0  0  0  0  0  0
    8.1887  -15.8577   20.8950 C   0  0  1  0  0  0  0  0  0  0  0  0
    7.4490  -14.5532   20.8174 C   0  0  0  0  0  0  0  0  0  0  0  0
    7.7899  -13.9149   19.5261 C   0  0  0  0  0  0  0  0  0  0  0  0
    8.4134  -12.7007   19.3600 C   0  0  0  0  0  0  0  0  0  0  0  0
    8.5611  -12.4404   18.0410 N   0  0  0  0  0  0  0  0  0  0  0  0
    8.0303  -13.4913   17.3854 C   0  0  0  0  0  0  0  0  0  0  0  0
    7.5589  -14.3925   18.2950 N   0  0  0  0  0  0  0  0  0  0  0  0
    8.2218  -16.3982   22.2889 C   0  0  0  0  0  0  0  0  0  0  0  0
    7.1356  -16.6795   22.8452 O   0  0  0  0  0  0  0  0  0  0  0  0
    9.6043  -19.4474   23.6268 C   0  0  0  0  0  0  0  0  0  0  0  0
   10.2865  -18.3569   24.4390 C   0  0  1  0  0  0  0  0  0  0  0  0
   11.6086  -18.3534   24.0565 O   0  0  0  0  0  0  0  0  0  0  0  0
    9.5842  -17.0540   24.3548 C   0  0  2  0  0  0  0  0  0  0  0  0
    9.4239  -16.6004   22.9923 N   0  0  0  0  0  0  0  0  0  0  0  0
   10.0912  -16.0170   25.2832 C   0  0  0  0  0  0  0  0  0  0  0  0
   11.0468  -15.2278   25.0204 O   0  0  0  0  0  0  0  0  0  0  0  0
    9.4900  -15.8761   26.5393 N   0  0  0  0  0  0  0  0  0  0  0  0
   10.0028  -14.9365   27.5545 C   0  0  1  0  0  0  0  0  0  0  0  0
    8.8108  -14.2105   28.0789 C   0  0  0  0  0  0  0  0  0  0  0  0
    8.0656  -13.4128   27.1116 C   0  0  0  0  0  0  0  0  0  0  0  0
    6.9455  -12.7094   27.4958 C   0  0  0  0  0  0  0  0  0  0  0  0
    6.2416  -11.9516   26.5811 C   0  0  0  0  0  0  0  0  0  0  0  0
    6.6941  -11.9171   25.2584 C   0  0  0  0  0  0  0  0  0  0  0  0
    7.8224  -12.6241   24.8654 C   0  0  0  0  0  0  0  0  0  0  0  0
    8.5093  -13.3756   25.8023 C   0  0  0  0  0  0  0  0  0  0  0  0
   10.6916  -15.7730   28.5676 C   0  0  0  0  0  0  0  0  0  0  0  0
   11.2822  -15.1748   29.5129 O   0  0  0  0  0  0  0  0  0  0  0  0
   10.7165  -17.1655   28.5248 O   0  0  0  0  0  0  0  0  0  0  0  0
  2  1  1  6
  2  9  1  0
  3  2  1  0
  4  8  1  0
  4  3  1  0
  5  4  2  0
  6  5  1  0
  6  7  1  0
  7  8  2  0
  9 10  2  0
 12 11  1  6
 13 12  1  0
 14 12  1  0
 15  9  1  0
 14 15  1  6
 16 14  1  0
 16 17  2  0
 18 16  1  0
 19 27  1  0
 19 18  1  0
 19 20  1  1
 21 20  1  0
 21 22  2  0
 23 22  1  0
 24 23  2  0
 25 26  2  0
 25 24  1  0
 26 21  1  0
 27 29  1  0
 28 27  2  0
M  END
$$$$
