HTF.pdb
     RDKit          3D

 29 30  0  0  1  0  0  0  0  0999 V2000
    7.6120  -16.9334   19.6137 N   0  0  0  0  0  0  0  0  0  0  0  0
    8.1068  -16.0764   20.6725 C   0  0  1  0  0  0  0  0  0  0  0  0
    7.3248  -14.7948   20.6441 C   0  0  0  0  0  0  0  0  0  0  0  0
    7.7212  -14.0486   19.4287 C   0  0  0  0  0  0  0  0  0  0  0  0
    6.9183  -13.7728   18.3472 C   0  0  0  0  0  0  0  0  0  0  0  0
    7.6187  -13.0729   17.4258 N   0  0  0  0  0  0  0  0  0  0  0  0
    8.8570  -12.9125   17.9325 C   0  0  0  0  0  0  0  0  0  0  0  0
    8.9184  -13.5098   19.1578 N   0  0  0  0  0  0  0  0  0  0  0  0
    8.0191  -16.7541   22.0027 C   0  0  0  0  0  0  0  0  0  0  0  0
    7.2662  -17.7483   22.1168 O   0  0  0  0  0  0  0  0  0  0  0  0
    9.7926  -19.1730   25.3876 C   0  0  0  0  0  0  0  0  0  0  0  0
    9.5218  -18.4054   24.1024 C   0  0  1  0  0  0  0  0  0  0  0  0
    8.7300  -19.2166   23.3218 O   0  0  0  0  0  0  0  0  0  0  0  0
    9.0045  -17.0380   24.3485 C   0  0  2  0  0  0  0  0  0  0  0  0
    8.7490  -16.3158   23.1233 N   0  0  0  0  0  0  0  0  0  0  0  0
    9.7587  -16.2646   25.3620 C   0  0  0  0  0  0  0  0  0  0  0  0
   10.8847  -15.7222   25.1549 O   0  0  0  0  0  0  0  0  0  0  0  0
    9.2119  -16.1041   26.6405 N   0  0  0  0  0  0  0  0  0  0  0  0
    9.8881  -15.3197   27.6911 C   0  0  1  0  0  0  0  0  0  0  0  0
    8.8256  -14.4930   28.3318 C   0  0  0  0  0  0  0  0  0  0  0  0
    8.1278  -13.5536   27.4611 C   0  0  0  0  0  0  0  0  0  0  0  0
    8.8312  -12.7259   26.6143 C   0  0  0  0  0  0  0  0  0  0  0  0
    8.1709  -11.8388   25.7876 C   0  0  0  0  0  0  0  0  0  0  0  0
    6.7738  -11.8026   25.8324 C   0  0  0  0  0  0  0  0  0  0  0  0
    6.0596  -12.6345   26.6840 C   0  0  0  0  0  0  0  0  0  0  0  0
    6.7461  -13.5143   27.5020 C   0  0  0  0  0  0  0  0  0  0  0  0
   10.5080  -16.3136   28.6012 C   0  0  0  0  0  0  0  0  0  0  0  0
   10.0991  -17.5082   28.5247 O   0  0  0  0  0  0  0  0  0  0  0  0
   11.5044  -15.9949   29.5217 O   0  0  0  0  0  0  0  0  0  0  0  0
  2  1  1  6
  2  9  1  0
  3  2  1  0
  4  8  1  0
  4  3  1  0
  5  4  2  0
  6  5  1  0
  6  7  1  0
  7  8  2  0
  9 10  2  0
 12 11  1  1
 13 12  1  0
 14 12  1  0
 15  9  1  0
 14 15  1  6
 16 14  1  0
 16 17  2  0
 18 16  1  0
 19 27  1  0
 19 18  1  0
 19 20  1  1
 21 20  1  0
 21 22  2  0
 23 22  1  0
 24 23  2  0
 25 26  2  0
 25 24  1  0
 26 21  1  0
 27 29  1  0
 28 27  2  0
M  END
$$$$
