ESV.pdb
     RDKit          3D

 23 22  0  0  1  0  0  0  0  0999 V2000
    9.8626  -14.6206   18.8730 N   0  0  0  0  0  0  0  0  0  0  0  0
    9.0958  -13.4861   19.3448 C   0  0  1  0  0  0  0  0  0  0  0  0
    8.1329  -13.0893   18.2615 C   0  0  0  0  0  0  0  0  0  0  0  0
    7.5286  -14.2120   17.4983 C   0  0  0  0  0  0  0  0  0  0  0  0
    8.4647  -14.8896   16.6072 C   0  0  0  0  0  0  0  0  0  0  0  0
    9.1628  -15.8293   16.9931 O   0  0  0  0  0  0  0  0  0  0  0  0
    8.2741  -13.8337   20.5335 C   0  0  0  0  0  0  0  0  0  0  0  0
    7.5838  -12.9132   21.0375 O   0  0  0  0  0  0  0  0  0  0  0  0
    8.5391  -14.4236   15.2795 O   0  0  0  0  0  0  0  0  0  0  0  0
    8.4929  -17.5477   22.7441 O   0  0  0  0  0  0  0  0  0  0  0  0
    7.3121  -16.8767   22.4443 C   0  0  0  0  0  0  0  0  0  0  0  0
    7.5158  -15.3840   22.2941 C   0  0  2  0  0  0  0  0  0  0  0  0
    8.2504  -15.1389   21.0965 N   0  0  0  0  0  0  0  0  0  0  0  0
    8.1369  -14.7840   23.4995 C   0  0  0  0  0  0  0  0  0  0  0  0
    9.3638  -14.5087   23.4559 O   0  0  0  0  0  0  0  0  0  0  0  0
    7.8394  -12.0311   27.4818 C   0  0  0  0  0  0  0  0  0  0  0  0
    7.1421  -12.6559   26.2832 C   0  0  2  0  0  0  0  0  0  0  0  0
    5.8226  -13.2087   26.7675 C   0  0  0  0  0  0  0  0  0  0  0  0
    8.0000  -13.8114   25.8293 C   0  0  2  0  0  0  0  0  0  0  0  0
    7.4458  -14.5003   24.6929 N   0  0  0  0  0  0  0  0  0  0  0  0
    8.1786  -14.8140   26.9260 C   0  0  0  0  0  0  0  0  0  0  0  0
    9.0145  -14.5636   28.0169 O   0  0  0  0  0  0  0  0  0  0  0  0
    7.5911  -15.9279   26.9263 O   0  0  0  0  0  0  0  0  0  0  0  0
  2  1  1  6
  2  7  1  0
  3  2  1  0
  4  3  1  0
  5  6  2  0
  5  4  1  0
  7 13  1  0
  8  7  2  0
  9  5  1  0
 10 11  1  0
 12 11  1  1
 12 14  1  0
 13 12  1  0
 14 20  1  0
 14 15  2  0
 17 16  1  1
 17 18  1  0
 19 17  1  0
 19 20  1  6
 21 19  1  0
 21 22  1  0
 23 21  2  0
M  END
$$$$
