ESV.pdb
     RDKit          3D

 23 22  0  0  1  0  0  0  0  0999 V2000
   11.5111  -16.0772   19.7230 N   0  0  0  0  0  0  0  0  0  0  0  0
   10.6781  -16.8517   20.6196 C   0  0  1  0  0  0  0  0  0  0  0  0
   11.5715  -17.5286   21.6205 C   0  0  0  0  0  0  0  0  0  0  0  0
   12.7609  -16.7479   22.0491 C   0  0  0  0  0  0  0  0  0  0  0  0
   13.6415  -17.4697   22.9619 C   0  0  0  0  0  0  0  0  0  0  0  0
   13.3750  -18.6064   23.3569 O   0  0  0  0  0  0  0  0  0  0  0  0
    9.7532  -15.9858   21.3968 C   0  0  0  0  0  0  0  0  0  0  0  0
   10.1485  -14.8231   21.6607 O   0  0  0  0  0  0  0  0  0  0  0  0
   14.8162  -16.8108   23.3762 O   0  0  0  0  0  0  0  0  0  0  0  0
    6.0586  -17.2696   23.1143 O   0  0  0  0  0  0  0  0  0  0  0  0
    6.1838  -16.0703   22.4212 C   0  0  0  0  0  0  0  0  0  0  0  0
    7.5896  -15.5114   22.4792 C   0  0  2  0  0  0  0  0  0  0  0  0
    8.4743  -16.4257   21.8349 N   0  0  0  0  0  0  0  0  0  0  0  0
    7.9969  -15.1747   23.8646 C   0  0  0  0  0  0  0  0  0  0  0  0
    8.9490  -15.8211   24.3732 O   0  0  0  0  0  0  0  0  0  0  0  0
    5.4778  -13.0612   26.5009 C   0  0  0  0  0  0  0  0  0  0  0  0
    6.9554  -12.7068   26.5680 C   0  0  2  0  0  0  0  0  0  0  0  0
    7.1802  -11.5357   25.6411 C   0  0  0  0  0  0  0  0  0  0  0  0
    7.7162  -13.8914   26.0251 C   0  0  2  0  0  0  0  0  0  0  0  0
    7.3895  -14.1783   24.6524 N   0  0  0  0  0  0  0  0  0  0  0  0
    7.4375  -15.1245   26.8259 C   0  0  0  0  0  0  0  0  0  0  0  0
    6.6373  -16.1553   26.3273 O   0  0  0  0  0  0  0  0  0  0  0  0
    7.9043  -15.2997   27.9824 O   0  0  0  0  0  0  0  0  0  0  0  0
  2  1  1  6
  2  7  1  0
  3  2  1  0
  4  3  1  0
  5  6  2  0
  5  4  1  0
  7 13  1  0
  8  7  2  0
  9  5  1  0
 10 11  1  0
 12 11  1  1
 12 14  1  0
 13 12  1  0
 14 20  1  0
 14 15  2  0
 17 16  1  6
 17 18  1  0
 19 17  1  0
 19 20  1  6
 21 19  1  0
 21 22  1  0
 23 21  2  0
M  END
$$$$
