ESV.pdb
     RDKit          3D

 23 22  0  0  1  0  0  0  0  0999 V2000
   10.1212  -14.4147   18.0143 N   0  0  0  0  0  0  0  0  0  0  0  0
   10.0645  -15.4026   19.0719 C   0  0  1  0  0  0  0  0  0  0  0  0
   11.4382  -15.5294   19.6677 C   0  0  0  0  0  0  0  0  0  0  0  0
   12.3790  -14.4238   19.3505 C   0  0  0  0  0  0  0  0  0  0  0  0
   13.7270  -14.6302   19.8701 C   0  0  0  0  0  0  0  0  0  0  0  0
   14.0224  -15.6297   20.5281 O   0  0  0  0  0  0  0  0  0  0  0  0
    9.1636  -14.9766   20.1747 C   0  0  0  0  0  0  0  0  0  0  0  0
    9.0657  -13.7422   20.3853 O   0  0  0  0  0  0  0  0  0  0  0  0
   14.6834  -13.6347   19.5877 O   0  0  0  0  0  0  0  0  0  0  0  0
    6.9146  -17.6205   22.7550 O   0  0  0  0  0  0  0  0  0  0  0  0
    6.4207  -16.4855   22.1211 C   0  0  0  0  0  0  0  0  0  0  0  0
    7.4824  -15.4249   21.9213 C   0  0  2  0  0  0  0  0  0  0  0  0
    8.4337  -15.9006   20.9712 N   0  0  0  0  0  0  0  0  0  0  0  0
    8.0926  -15.0008   23.2044 C   0  0  0  0  0  0  0  0  0  0  0  0
    9.2681  -15.3754   23.4508 O   0  0  0  0  0  0  0  0  0  0  0  0
    8.0135  -12.2651   27.3219 C   0  0  0  0  0  0  0  0  0  0  0  0
    7.2981  -12.6047   26.0234 C   0  0  2  0  0  0  0  0  0  0  0  0
    5.8974  -13.0412   26.3817 C   0  0  0  0  0  0  0  0  0  0  0  0
    8.0203  -13.7841   25.4197 C   0  0  2  0  0  0  0  0  0  0  0  0
    7.4448  -14.2054   24.1689 N   0  0  0  0  0  0  0  0  0  0  0  0
    8.0033  -14.9590   26.3465 C   0  0  0  0  0  0  0  0  0  0  0  0
    8.9595  -15.1100   27.3537 O   0  0  0  0  0  0  0  0  0  0  0  0
    7.1347  -15.8677   26.2707 O   0  0  0  0  0  0  0  0  0  0  0  0
  2  1  1  6
  2  7  1  0
  3  2  1  0
  4  3  1  0
  5  6  2  0
  5  4  1  0
  7 13  1  0
  8  7  2  0
  9  5  1  0
 10 11  1  0
 12 11  1  1
 12 14  1  0
 13 12  1  0
 14 20  1  0
 14 15  2  0
 17 16  1  1
 17 18  1  0
 19 17  1  0
 19 20  1  6
 21 19  1  0
 21 22  1  0
 23 21  2  0
M  END
$$$$
