ESV.pdb
     RDKit          3D

 23 22  0  0  1  0  0  0  0  0999 V2000
    9.7632  -17.2223   20.0462 N   0  0  0  0  0  0  0  0  0  0  0  0
   10.1787  -17.8810   21.2673 C   0  0  1  0  0  0  0  0  0  0  0  0
   11.6774  -17.8089   21.3511 C   0  0  0  0  0  0  0  0  0  0  0  0
   12.4130  -18.4201   20.2138 C   0  0  0  0  0  0  0  0  0  0  0  0
   13.8647  -18.3432   20.3420 C   0  0  0  0  0  0  0  0  0  0  0  0
   14.4842  -19.0544   21.1354 O   0  0  0  0  0  0  0  0  0  0  0  0
    9.6545  -17.1869   22.4725 C   0  0  0  0  0  0  0  0  0  0  0  0
    9.5272  -15.9393   22.4007 O   0  0  0  0  0  0  0  0  0  0  0  0
   14.5339  -17.4174   19.5171 O   0  0  0  0  0  0  0  0  0  0  0  0
    8.0039  -19.1477   25.8946 O   0  0  0  0  0  0  0  0  0  0  0  0
    7.6220  -17.9204   25.3632 C   0  0  0  0  0  0  0  0  0  0  0  0
    8.7896  -17.1525   24.7809 C   0  0  2  0  0  0  0  0  0  0  0  0
    9.3051  -17.8765   23.6655 N   0  0  0  0  0  0  0  0  0  0  0  0
    9.8152  -16.8396   25.8051 C   0  0  0  0  0  0  0  0  0  0  0  0
   10.8955  -17.4838   25.7741 O   0  0  0  0  0  0  0  0  0  0  0  0
    9.1422  -14.1042   29.0706 C   0  0  0  0  0  0  0  0  0  0  0  0
   10.4888  -14.1565   28.3653 C   0  0  2  0  0  0  0  0  0  0  0  0
   10.4244  -13.1978   27.2001 C   0  0  0  0  0  0  0  0  0  0  0  0
   10.6440  -15.5544   27.8186 C   0  0  2  0  0  0  0  0  0  0  0  0
    9.6625  -15.8684   26.8130 N   0  0  0  0  0  0  0  0  0  0  0  0
   10.5234  -16.5754   28.9060 C   0  0  0  0  0  0  0  0  0  0  0  0
    9.4531  -17.4719   28.9523 O   0  0  0  0  0  0  0  0  0  0  0  0
   11.3718  -16.6821   29.8306 O   0  0  0  0  0  0  0  0  0  0  0  0
  2  1  1  6
  2  7  1  0
  3  2  1  0
  4  3  1  0
  5  6  2  0
  5  4  1  0
  7 13  1  0
  8  7  2  0
  9  5  1  0
 10 11  1  0
 12 11  1  1
 12 14  1  0
 13 12  1  0
 14 20  1  0
 14 15  2  0
 17 16  1  6
 17 18  1  0
 19 17  1  0
 19 20  1  6
 21 19  1  0
 21 22  1  0
 23 21  2  0
M  END
$$$$
