ESV.pdb
     RDKit          3D

 23 22  0  0  1  0  0  0  0  0999 V2000
    9.8317  -15.8096   18.3569 N   0  0  0  0  0  0  0  0  0  0  0  0
   10.3204  -15.9847   19.7090 C   0  0  1  0  0  0  0  0  0  0  0  0
   11.5061  -15.0813   19.8985 C   0  0  0  0  0  0  0  0  0  0  0  0
   12.7726  -15.5468   19.2761 C   0  0  0  0  0  0  0  0  0  0  0  0
   13.8806  -14.6085   19.4228 C   0  0  0  0  0  0  0  0  0  0  0  0
   14.3944  -14.3780   20.5191 O   0  0  0  0  0  0  0  0  0  0  0  0
    9.3094  -15.5717   20.7170 C   0  0  0  0  0  0  0  0  0  0  0  0
    8.5174  -14.6544   20.3865 O   0  0  0  0  0  0  0  0  0  0  0  0
   14.3423  -13.9724   18.2533 O   0  0  0  0  0  0  0  0  0  0  0  0
    8.1013  -17.9609   23.9454 O   0  0  0  0  0  0  0  0  0  0  0  0
    7.3593  -17.0145   23.2466 C   0  0  0  0  0  0  0  0  0  0  0  0
    8.1715  -15.7867   22.8936 C   0  0  2  0  0  0  0  0  0  0  0  0
    9.2187  -16.1688   22.0040 N   0  0  0  0  0  0  0  0  0  0  0  0
    8.6547  -15.0741   24.1008 C   0  0  0  0  0  0  0  0  0  0  0  0
    9.8609  -15.2189   24.4280 O   0  0  0  0  0  0  0  0  0  0  0  0
    5.9770  -13.1374   26.7457 C   0  0  0  0  0  0  0  0  0  0  0  0
    7.3488  -12.5056   26.5654 C   0  0  2  0  0  0  0  0  0  0  0  0
    7.2380  -11.5013   25.4428 C   0  0  0  0  0  0  0  0  0  0  0  0
    8.2840  -13.6049   26.1249 C   0  0  2  0  0  0  0  0  0  0  0  0
    7.8539  -14.2443   24.9085 N   0  0  0  0  0  0  0  0  0  0  0  0
    8.4058  -14.6630   27.1762 C   0  0  0  0  0  0  0  0  0  0  0  0
    7.9631  -15.9692   26.9540 O   0  0  0  0  0  0  0  0  0  0  0  0
    8.9092  -14.4368   28.3082 O   0  0  0  0  0  0  0  0  0  0  0  0
  2  1  1  6
  2  7  1  0
  3  2  1  0
  4  3  1  0
  5  6  2  0
  5  4  1  0
  7 13  1  0
  8  7  2  0
  9  5  1  0
 10 11  1  0
 12 11  1  1
 12 14  1  0
 13 12  1  0
 14 20  1  0
 14 15  2  0
 17 16  1  6
 17 18  1  0
 19 17  1  0
 19 20  1  6
 21 19  1  0
 21 22  1  0
 23 21  2  0
M  END
$$$$
