ESV.pdb
     RDKit          3D

 23 22  0  0  1  0  0  0  0  0999 V2000
   10.1247  -18.5029   19.5255 N   0  0  0  0  0  0  0  0  0  0  0  0
   10.3299  -18.4750   20.9589 C   0  0  1  0  0  0  0  0  0  0  0  0
   11.7116  -17.9466   21.2234 C   0  0  0  0  0  0  0  0  0  0  0  0
   12.8028  -18.9542   21.1776 C   0  0  0  0  0  0  0  0  0  0  0  0
   13.9973  -18.4971   20.4749 C   0  0  0  0  0  0  0  0  0  0  0  0
   14.3444  -18.9880   19.3990 O   0  0  0  0  0  0  0  0  0  0  0  0
    9.3861  -17.5446   21.6316 C   0  0  0  0  0  0  0  0  0  0  0  0
    9.1775  -16.4405   21.0701 O   0  0  0  0  0  0  0  0  0  0  0  0
   14.7427  -17.4656   21.0797 O   0  0  0  0  0  0  0  0  0  0  0  0
    6.9858  -18.5841   25.0308 O   0  0  0  0  0  0  0  0  0  0  0  0
    6.5983  -17.8303   23.9281 C   0  0  0  0  0  0  0  0  0  0  0  0
    7.7299  -16.9921   23.3724 C   0  0  2  0  0  0  0  0  0  0  0  0
    8.7345  -17.8620   22.8546 N   0  0  0  0  0  0  0  0  0  0  0  0
    8.2460  -16.0239   24.3698 C   0  0  0  0  0  0  0  0  0  0  0  0
    9.3606  -16.2631   24.9021 O   0  0  0  0  0  0  0  0  0  0  0  0
    7.7745  -11.8013   26.9239 C   0  0  0  0  0  0  0  0  0  0  0  0
    7.1093  -12.7452   25.9340 C   0  0  2  0  0  0  0  0  0  0  0  0
    5.8268  -13.2309   26.5669 C   0  0  0  0  0  0  0  0  0  0  0  0
    8.0313  -13.9282   25.7679 C   0  0  2  0  0  0  0  0  0  0  0  0
    7.5722  -14.8520   24.7633 N   0  0  0  0  0  0  0  0  0  0  0  0
    8.1737  -14.6855   27.0508 C   0  0  0  0  0  0  0  0  0  0  0  0
    9.1156  -14.3197   28.0154 O   0  0  0  0  0  0  0  0  0  0  0  0
    7.4593  -15.6846   27.3292 O   0  0  0  0  0  0  0  0  0  0  0  0
  2  1  1  6
  2  7  1  0
  3  2  1  0
  4  3  1  0
  5  6  2  0
  5  4  1  0
  7 13  1  0
  8  7  2  0
  9  5  1  0
 10 11  1  0
 12 11  1  1
 12 14  1  0
 13 12  1  0
 14 20  1  0
 14 15  2  0
 17 16  1  1
 17 18  1  0
 19 17  1  0
 19 20  1  6
 21 19  1  0
 21 22  1  0
 23 21  2  0
M  END
$$$$
