ESV.pdb
     RDKit          3D

 23 22  0  0  1  0  0  0  0  0999 V2000
    9.6123  -17.5685   19.4034 N   0  0  0  0  0  0  0  0  0  0  0  0
    9.7626  -17.9796   20.7840 C   0  0  1  0  0  0  0  0  0  0  0  0
   11.1636  -17.6539   21.2192 C   0  0  0  0  0  0  0  0  0  0  0  0
   12.2457  -18.2258   20.3766 C   0  0  0  0  0  0  0  0  0  0  0  0
   13.5852  -17.8015   20.7704 C   0  0  0  0  0  0  0  0  0  0  0  0
   13.9934  -16.6589   20.5539 O   0  0  0  0  0  0  0  0  0  0  0  0
    8.8540  -17.2235   21.6850 C   0  0  0  0  0  0  0  0  0  0  0  0
    8.5146  -16.0719   21.3156 O   0  0  0  0  0  0  0  0  0  0  0  0
   14.3986  -18.7566   21.4121 O   0  0  0  0  0  0  0  0  0  0  0  0
    7.2745  -18.7646   25.3498 O   0  0  0  0  0  0  0  0  0  0  0  0
    6.5381  -18.0415   24.4174 C   0  0  0  0  0  0  0  0  0  0  0  0
    7.3857  -17.0436   23.6574 C   0  0  2  0  0  0  0  0  0  0  0  0
    8.3749  -17.7530   22.9143 N   0  0  0  0  0  0  0  0  0  0  0  0
    7.9523  -16.0029   24.5487 C   0  0  0  0  0  0  0  0  0  0  0  0
    9.1822  -16.0548   24.8087 O   0  0  0  0  0  0  0  0  0  0  0  0
    6.3742  -12.2285   24.9532 C   0  0  0  0  0  0  0  0  0  0  0  0
    6.7424  -12.8487   26.2923 C   0  0  2  0  0  0  0  0  0  0  0  0
    7.4388  -11.7836   27.1056 C   0  0  0  0  0  0  0  0  0  0  0  0
    7.7343  -13.9499   26.0083 C   0  0  2  0  0  0  0  0  0  0  0  0
    7.2062  -14.9576   25.1258 N   0  0  0  0  0  0  0  0  0  0  0  0
    8.1614  -14.6300   27.2712 C   0  0  0  0  0  0  0  0  0  0  0  0
    9.1205  -14.0673   28.1166 O   0  0  0  0  0  0  0  0  0  0  0  0
    7.6845  -15.7363   27.6381 O   0  0  0  0  0  0  0  0  0  0  0  0
  2  1  1  6
  2  7  1  0
  3  2  1  0
  4  3  1  0
  5  6  2  0
  5  4  1  0
  7 13  1  0
  8  7  2  0
  9  5  1  0
 10 11  1  0
 12 11  1  1
 12 14  1  0
 13 12  1  0
 14 20  1  0
 14 15  2  0
 17 16  1  6
 17 18  1  0
 19 17  1  0
 19 20  1  6
 21 19  1  0
 21 22  1  0
 23 21  2  0
M  END
$$$$
