ESV.pdb
     RDKit          3D

 23 22  0  0  1  0  0  0  0  0999 V2000
   10.8309  -18.0137   19.6045 N   0  0  0  0  0  0  0  0  0  0  0  0
   10.8314  -17.9837   21.0525 C   0  0  1  0  0  0  0  0  0  0  0  0
   12.2567  -17.8827   21.5178 C   0  0  0  0  0  0  0  0  0  0  0  0
   13.2566  -17.5844   20.4599 C   0  0  0  0  0  0  0  0  0  0  0  0
   14.6296  -17.5164   20.9496 C   0  0  0  0  0  0  0  0  0  0  0  0
   15.5888  -17.4277   20.1807 O   0  0  0  0  0  0  0  0  0  0  0  0
   10.1296  -16.7836   21.5781 C   0  0  0  0  0  0  0  0  0  0  0  0
   10.8366  -15.7778   21.8357 O   0  0  0  0  0  0  0  0  0  0  0  0
   14.8161  -17.5565   22.3457 O   0  0  0  0  0  0  0  0  0  0  0  0
    6.0068  -16.7180   22.4856 O   0  0  0  0  0  0  0  0  0  0  0  0
    6.6262  -15.6073   21.9225 C   0  0  0  0  0  0  0  0  0  0  0  0
    8.1046  -15.5440   22.2423 C   0  0  2  0  0  0  0  0  0  0  0  0
    8.7243  -16.7462   21.7898 N   0  0  0  0  0  0  0  0  0  0  0  0
    8.3513  -15.2576   23.6761 C   0  0  0  0  0  0  0  0  0  0  0  0
    8.8876  -16.1570   24.3735 O   0  0  0  0  0  0  0  0  0  0  0  0
    8.0917  -12.1988   27.5669 C   0  0  0  0  0  0  0  0  0  0  0  0
    7.7494  -12.3818   26.0963 C   0  0  2  0  0  0  0  0  0  0  0  0
    6.2490  -12.2684   25.9656 C   0  0  0  0  0  0  0  0  0  0  0  0
    8.1508  -13.7879   25.7237 C   0  0  2  0  0  0  0  0  0  0  0  0
    8.0255  -14.0446   24.3125 N   0  0  0  0  0  0  0  0  0  0  0  0
    7.3137  -14.7969   26.4454 C   0  0  0  0  0  0  0  0  0  0  0  0
    7.7203  -15.3483   27.6629 O   0  0  0  0  0  0  0  0  0  0  0  0
    6.2073  -15.2009   25.9997 O   0  0  0  0  0  0  0  0  0  0  0  0
  2  1  1  6
  2  7  1  0
  3  2  1  0
  4  3  1  0
  5  6  2  0
  5  4  1  0
  7 13  1  0
  8  7  2  0
  9  5  1  0
 10 11  1  0
 12 11  1  1
 12 14  1  0
 13 12  1  0
 14 20  1  0
 14 15  2  0
 17 16  1  1
 17 18  1  0
 19 17  1  0
 19 20  1  6
 21 19  1  0
 21 22  1  0
 23 21  2  0
M  END
$$$$
