ESV.pdb
     RDKit          3D

 23 22  0  0  1  0  0  0  0  0999 V2000
   10.6686  -17.2003   20.1181 N   0  0  0  0  0  0  0  0  0  0  0  0
   11.0515  -17.9080   21.3224 C   0  0  1  0  0  0  0  0  0  0  0  0
   12.5437  -17.8073   21.4697 C   0  0  0  0  0  0  0  0  0  0  0  0
   13.2694  -17.2704   20.2894 C   0  0  0  0  0  0  0  0  0  0  0  0
   14.7221  -17.3163   20.4204 C   0  0  0  0  0  0  0  0  0  0  0  0
   15.2687  -17.7961   21.4155 O   0  0  0  0  0  0  0  0  0  0  0  0
   10.4642  -17.2845   22.5370 C   0  0  0  0  0  0  0  0  0  0  0  0
   10.3155  -16.0373   22.5217 O   0  0  0  0  0  0  0  0  0  0  0  0
   15.4797  -16.7867   19.3569 O   0  0  0  0  0  0  0  0  0  0  0  0
    9.0357  -19.4724   25.9512 O   0  0  0  0  0  0  0  0  0  0  0  0
    8.3989  -18.3966   25.3418 C   0  0  0  0  0  0  0  0  0  0  0  0
    9.3767  -17.4060   24.7462 C   0  0  2  0  0  0  0  0  0  0  0  0
   10.0790  -18.0391   23.6786 N   0  0  0  0  0  0  0  0  0  0  0  0
   10.2707  -16.8211   25.7745 C   0  0  0  0  0  0  0  0  0  0  0  0
   11.4718  -17.1952   25.7937 O   0  0  0  0  0  0  0  0  0  0  0  0
    8.9387  -14.1839   28.9749 C   0  0  0  0  0  0  0  0  0  0  0  0
   10.2328  -13.9480   28.2114 C   0  0  2  0  0  0  0  0  0  0  0  0
    9.8935  -13.1190   26.9954 C   0  0  0  0  0  0  0  0  0  0  0  0
   10.7180  -15.2977   27.7422 C   0  0  2  0  0  0  0  0  0  0  0  0
    9.8665  -15.8730   26.7337 N   0  0  0  0  0  0  0  0  0  0  0  0
   10.7959  -16.2679   28.8790 C   0  0  0  0  0  0  0  0  0  0  0  0
    9.9477  -17.3752   28.9549 O   0  0  0  0  0  0  0  0  0  0  0  0
   11.6222  -16.1412   29.8209 O   0  0  0  0  0  0  0  0  0  0  0  0
  2  1  1  6
  2  7  1  0
  3  2  1  0
  4  3  1  0
  5  6  2  0
  5  4  1  0
  7 13  1  0
  8  7  2  0
  9  5  1  0
 10 11  1  0
 12 11  1  1
 12 14  1  0
 13 12  1  0
 14 20  1  0
 14 15  2  0
 17 16  1  1
 17 18  1  0
 19 17  1  0
 19 20  1  6
 21 19  1  0
 21 22  1  0
 23 21  2  0
M  END
$$$$
