ESV.pdb
     RDKit          3D

 23 22  0  0  1  0  0  0  0  0999 V2000
    8.9420  -13.6961   18.2453 N   0  0  0  0  0  0  0  0  0  0  0  0
    9.3258  -14.6735   19.2427 C   0  0  1  0  0  0  0  0  0  0  0  0
   10.7195  -14.3501   19.7026 C   0  0  0  0  0  0  0  0  0  0  0  0
   11.8153  -14.9311   18.8844 C   0  0  0  0  0  0  0  0  0  0  0  0
   13.1426  -14.7488   19.4631 C   0  0  0  0  0  0  0  0  0  0  0  0
   13.8478  -13.7797   19.1758 O   0  0  0  0  0  0  0  0  0  0  0  0
    8.4567  -14.6017   20.4463 C   0  0  0  0  0  0  0  0  0  0  0  0
    8.0731  -13.4604   20.8043 O   0  0  0  0  0  0  0  0  0  0  0  0
   13.5884  -15.7315   20.3693 O   0  0  0  0  0  0  0  0  0  0  0  0
    7.3615  -17.9263   22.9884 O   0  0  0  0  0  0  0  0  0  0  0  0
    6.4848  -16.9555   22.5159 C   0  0  0  0  0  0  0  0  0  0  0  0
    7.1662  -15.6241   22.2813 C   0  0  2  0  0  0  0  0  0  0  0  0
    8.0614  -15.7542   21.1788 N   0  0  0  0  0  0  0  0  0  0  0  0
    7.8161  -15.1084   23.5103 C   0  0  0  0  0  0  0  0  0  0  0  0
    9.0728  -15.0529   23.5341 O   0  0  0  0  0  0  0  0  0  0  0  0
    6.5693  -11.9816   25.5618 C   0  0  0  0  0  0  0  0  0  0  0  0
    6.8257  -13.1232   26.5336 C   0  0  2  0  0  0  0  0  0  0  0  0
    7.5765  -12.5509   27.7126 C   0  0  0  0  0  0  0  0  0  0  0  0
    7.7299  -14.1047   25.8293 C   0  0  2  0  0  0  0  0  0  0  0  0
    7.1214  -14.6754   24.6558 N   0  0  0  0  0  0  0  0  0  0  0  0
    8.1133  -15.2316   26.7364 C   0  0  0  0  0  0  0  0  0  0  0  0
    9.1694  -15.1139   27.6431 O   0  0  0  0  0  0  0  0  0  0  0  0
    7.5110  -16.3376   26.7326 O   0  0  0  0  0  0  0  0  0  0  0  0
  2  1  1  6
  2  7  1  0
  3  2  1  0
  4  3  1  0
  5  6  2  0
  5  4  1  0
  7 13  1  0
  8  7  2  0
  9  5  1  0
 10 11  1  0
 12 11  1  1
 12 14  1  0
 13 12  1  0
 14 20  1  0
 14 15  2  0
 17 16  1  6
 17 18  1  0
 19 17  1  0
 19 20  1  6
 21 19  1  0
 21 22  1  0
 23 21  2  0
M  END
$$$$
