QEL.pdb
     RDKit          3D

 27 26  0  0  1  0  0  0  0  0999 V2000
   17.3691  -15.4508  -18.7328 N   0  0  0  0  0  0  0  0  0  0  0  0
   17.5108  -14.2758  -19.5096 C   0  0  0  0  0  0  0  0  0  0  0  0
   17.9960  -14.3534  -20.6611 O   0  0  0  0  0  0  0  0  0  0  0  0
   17.0965  -12.9519  -18.9887 C   0  0  0  0  0  0  0  0  0  0  0  0
   18.2138  -12.3234  -18.2315 C   0  0  0  0  0  0  0  0  0  0  0  0
   17.8016  -11.6283  -16.9535 C   0  0  2  0  0  0  0  0  0  0  0  0
   16.3561  -11.5839  -16.9657 N   0  0  0  0  0  0  0  0  0  0  0  0
   18.3768  -10.2704  -16.8267 C   0  0  0  0  0  0  0  0  0  0  0  0
   19.6286  -10.1020  -16.8278 O   0  0  0  0  0  0  0  0  0  0  0  0
   17.5915   -9.0855  -16.6974 N   0  0  0  0  0  0  0  0  0  0  0  0
   18.2012   -7.8242  -16.5224 C   0  0  1  0  0  0  0  0  0  0  0  0
   17.2267   -6.6791  -16.5142 C   0  0  0  0  0  0  0  0  0  0  0  0
   17.8422   -5.3263  -16.4321 C   0  0  0  0  0  0  0  0  0  0  0  0
   16.9257   -4.1864  -16.3702 C   0  0  0  0  0  0  0  0  0  0  0  0
   15.6647   -4.2718  -16.3597 O   0  0  0  0  0  0  0  0  0  0  0  0
   19.0311   -7.7165  -15.2977 C   0  0  0  0  0  0  0  0  0  0  0  0
   18.7569   -8.3109  -14.2266 O   0  0  0  0  0  0  0  0  0  0  0  0
   17.4032   -2.8577  -16.3151 O   0  0  0  0  0  0  0  0  0  0  0  0
   22.5566   -9.1412  -12.5576 C   0  0  0  0  0  0  0  0  0  0  0  0
   23.1368   -8.7020  -13.9411 C   0  0  1  0  0  0  0  0  0  0  0  0
   23.8821   -9.8907  -14.4265 C   0  0  0  0  0  0  0  0  0  0  0  0
   21.9740   -8.2282  -14.6967 C   0  0  0  0  0  0  0  0  0  0  0  0
   21.2499   -6.9975  -14.3306 C   0  0  2  0  0  0  0  0  0  0  0  0
   20.1790   -6.8998  -15.3705 N   0  0  0  0  0  0  0  0  0  0  0  0
   22.0277   -5.7774  -14.5196 C   0  0  0  0  0  0  0  0  0  0  0  0
   22.1249   -5.2449  -15.6501 O   0  0  0  0  0  0  0  0  0  0  0  0
   22.6770   -5.1594  -13.4826 O   0  0  0  0  0  0  0  0  0  0  0  0
  2  3  2  0
  2  1  1  0
  4  2  1  0
  5  4  1  0
  6  8  1  0
  6  5  1  0
  6  7  1  6
  8  9  2  0
 10 11  1  0
 10  8  1  0
 11 12  1  1
 12 13  1  0
 13 14  1  0
 14 18  1  0
 15 14  2  0
 16 11  1  0
 17 16  2  0
 20 19  1  1
 20 22  1  0
 21 20  1  0
 23 22  1  6
 23 24  1  0
 24 16  1  0
 25 23  1  0
 25 27  1  0
 26 25  2  0
M  END
$$$$
