QEL.pdb
     RDKit          3D

 27 26  0  0  1  0  0  0  0  0999 V2000
   30.0126  -17.8026  -17.7396 N   0  0  0  0  0  0  0  0  0  0  0  0
   28.6682  -18.0790  -18.0860 C   0  0  0  0  0  0  0  0  0  0  0  0
   28.3331  -18.0922  -19.2921 O   0  0  0  0  0  0  0  0  0  0  0  0
   27.6453  -18.3539  -17.0497 C   0  0  0  0  0  0  0  0  0  0  0  0
   28.2504  -18.2657  -15.6922 C   0  0  0  0  0  0  0  0  0  0  0  0
   28.1017  -19.5123  -14.8495 C   0  0  2  0  0  0  0  0  0  0  0  0
   27.4808  -20.5035  -15.7001 N   0  0  0  0  0  0  0  0  0  0  0  0
   27.3043  -19.2854  -13.6233 C   0  0  0  0  0  0  0  0  0  0  0  0
   27.6093  -18.3569  -12.8231 O   0  0  0  0  0  0  0  0  0  0  0  0
   26.1681  -20.0693  -13.2599 N   0  0  0  0  0  0  0  0  0  0  0  0
   25.4377  -19.7903  -12.0844 C   0  0  1  0  0  0  0  0  0  0  0  0
   23.9484  -19.9041  -12.2584 C   0  0  0  0  0  0  0  0  0  0  0  0
   23.4601  -21.2527  -12.6565 C   0  0  0  0  0  0  0  0  0  0  0  0
   22.0469  -21.3616  -13.0229 C   0  0  0  0  0  0  0  0  0  0  0  0
   21.2259  -20.4007  -13.0323 O   0  0  0  0  0  0  0  0  0  0  0  0
   25.8191  -20.6271  -10.9206 C   0  0  0  0  0  0  0  0  0  0  0  0
   26.1672  -21.8289  -11.0221 O   0  0  0  0  0  0  0  0  0  0  0  0
   21.4773  -22.5962  -13.4075 O   0  0  0  0  0  0  0  0  0  0  0  0
   28.3809  -18.4565   -6.5476 C   0  0  0  0  0  0  0  0  0  0  0  0
   28.1094  -19.5101   -7.6702 C   0  0  1  0  0  0  0  0  0  0  0  0
   29.1472  -20.5512   -7.4624 C   0  0  0  0  0  0  0  0  0  0  0  0
   26.6967  -19.8654   -7.5105 C   0  0  0  0  0  0  0  0  0  0  0  0
   26.0214  -20.8174   -8.4110 C   0  0  2  0  0  0  0  0  0  0  0  0
   25.7802  -20.0150   -9.6502 N   0  0  0  0  0  0  0  0  0  0  0  0
   24.6802  -21.1916   -7.9748 C   0  0  0  0  0  0  0  0  0  0  0  0
   23.6660  -20.6588   -8.4836 O   0  0  0  0  0  0  0  0  0  0  0  0
   24.4665  -22.1353   -7.0039 O   0  0  0  0  0  0  0  0  0  0  0  0
  2  3  2  0
  2  1  1  0
  4  2  1  0
  5  4  1  0
  6  8  1  0
  6  5  1  0
  6  7  1  6
  8  9  2  0
 10 11  1  0
 10  8  1  0
 11 12  1  6
 12 13  1  0
 13 14  1  0
 14 18  1  0
 15 14  2  0
 16 11  1  0
 17 16  2  0
 20 19  1  1
 20 22  1  0
 21 20  1  0
 23 22  1  1
 23 24  1  0
 24 16  1  0
 25 23  1  0
 25 27  1  0
 26 25  2  0
M  END
$$$$
