QEL.pdb
     RDKit          3D

 27 26  0  0  1  0  0  0  0  0999 V2000
   21.9892  -16.3795  -16.4197 N   0  0  0  0  0  0  0  0  0  0  0  0
   22.9218  -17.1139  -17.1909 C   0  0  0  0  0  0  0  0  0  0  0  0
   22.5098  -17.9834  -17.9918 O   0  0  0  0  0  0  0  0  0  0  0  0
   24.3795  -16.8759  -17.0710 C   0  0  0  0  0  0  0  0  0  0  0  0
   24.6432  -15.7614  -16.1196 C   0  0  0  0  0  0  0  0  0  0  0  0
   25.6055  -16.0958  -15.0023 C   0  0  2  0  0  0  0  0  0  0  0  0
   26.9312  -15.8393  -15.5203 N   0  0  0  0  0  0  0  0  0  0  0  0
   25.4767  -17.4934  -14.5321 C   0  0  0  0  0  0  0  0  0  0  0  0
   24.4279  -17.8769  -13.9418 O   0  0  0  0  0  0  0  0  0  0  0  0
   26.4907  -18.4836  -14.7015 N   0  0  0  0  0  0  0  0  0  0  0  0
   26.2787  -19.8189  -14.2949 C   0  0  1  0  0  0  0  0  0  0  0  0
   26.8454  -20.8363  -15.2461 C   0  0  0  0  0  0  0  0  0  0  0  0
   26.5252  -22.2530  -14.9203 C   0  0  0  0  0  0  0  0  0  0  0  0
   27.0965  -23.2774  -15.7962 C   0  0  0  0  0  0  0  0  0  0  0  0
   27.9050  -23.0522  -16.7412 O   0  0  0  0  0  0  0  0  0  0  0  0
   26.7993  -20.1305  -12.9413 C   0  0  0  0  0  0  0  0  0  0  0  0
   28.0040  -19.9893  -12.6184 O   0  0  0  0  0  0  0  0  0  0  0  0
   26.7731  -24.6442  -15.6419 O   0  0  0  0  0  0  0  0  0  0  0  0
   26.9100  -18.3952   -8.1457 C   0  0  0  0  0  0  0  0  0  0  0  0
   27.2716  -19.8439   -8.6089 C   0  0  1  0  0  0  0  0  0  0  0  0
   26.5663  -20.7288   -7.6480 C   0  0  0  0  0  0  0  0  0  0  0  0
   26.8985  -19.8835  -10.0255 C   0  0  0  0  0  0  0  0  0  0  0  0
   26.3329  -21.0914  -10.6535 C   0  0  2  0  0  0  0  0  0  0  0  0
   25.8715  -20.6062  -11.9911 N   0  0  0  0  0  0  0  0  0  0  0  0
   25.1092  -21.5685  -10.0177 C   0  0  0  0  0  0  0  0  0  0  0  0
   24.0008  -21.0462  -10.2822 O   0  0  0  0  0  0  0  0  0  0  0  0
   25.1113  -22.6011   -9.1162 O   0  0  0  0  0  0  0  0  0  0  0  0
  2  3  2  0
  2  1  1  0
  4  2  1  0
  5  4  1  0
  6  8  1  0
  6  5  1  0
  6  7  1  6
  8  9  2  0
 10 11  1  0
 10  8  1  0
 11 12  1  6
 12 13  1  0
 13 14  1  0
 14 18  1  0
 15 14  2  0
 16 11  1  0
 17 16  2  0
 20 19  1  1
 20 22  1  0
 21 20  1  0
 23 22  1  1
 23 24  1  0
 24 16  1  0
 25 23  1  0
 25 27  1  0
 26 25  2  0
M  END
$$$$
