QEL.pdb
     RDKit          3D

 27 26  0  0  1  0  0  0  0  0999 V2000
   18.0376  -16.0277  -19.5548 N   0  0  0  0  0  0  0  0  0  0  0  0
   16.8240  -16.1643  -18.8390 C   0  0  0  0  0  0  0  0  0  0  0  0
   15.9964  -17.0355  -19.1902 O   0  0  0  0  0  0  0  0  0  0  0  0
   16.5102  -15.2965  -17.6796 C   0  0  0  0  0  0  0  0  0  0  0  0
   17.5828  -14.2813  -17.4905 C   0  0  0  0  0  0  0  0  0  0  0  0
   17.3725  -13.3473  -16.3202 C   0  0  2  0  0  0  0  0  0  0  0  0
   15.9459  -13.1282  -16.2291 N   0  0  0  0  0  0  0  0  0  0  0  0
   18.1013  -12.0675  -16.4683 C   0  0  0  0  0  0  0  0  0  0  0  0
   19.3610  -12.0541  -16.5601 O   0  0  0  0  0  0  0  0  0  0  0  0
   17.4621  -10.7921  -16.5170 N   0  0  0  0  0  0  0  0  0  0  0  0
   18.2157   -9.6052  -16.6456 C   0  0  1  0  0  0  0  0  0  0  0  0
   17.3761   -8.3582  -16.6794 C   0  0  0  0  0  0  0  0  0  0  0  0
   18.1074   -7.1139  -17.0434 C   0  0  0  0  0  0  0  0  0  0  0  0
   17.3157   -5.8859  -17.1365 C   0  0  0  0  0  0  0  0  0  0  0  0
   16.0726   -5.8086  -16.9216 O   0  0  0  0  0  0  0  0  0  0  0  0
   19.2462   -9.4243  -15.5941 C   0  0  0  0  0  0  0  0  0  0  0  0
   19.0435   -9.6779  -14.3815 O   0  0  0  0  0  0  0  0  0  0  0  0
   17.9073   -4.6513  -17.4862 O   0  0  0  0  0  0  0  0  0  0  0  0
   23.5963  -10.5464  -13.4692 C   0  0  0  0  0  0  0  0  0  0  0  0
   23.9409   -9.8888  -14.8451 C   0  0  1  0  0  0  0  0  0  0  0  0
   24.9595  -10.7884  -15.4427 C   0  0  0  0  0  0  0  0  0  0  0  0
   22.6466   -9.7287  -15.5133 C   0  0  0  0  0  0  0  0  0  0  0  0
   21.6222   -8.7890  -15.0226 C   0  0  2  0  0  0  0  0  0  0  0  0
   20.5064   -8.9433  -16.0070 N   0  0  0  0  0  0  0  0  0  0  0  0
   22.0015   -7.3855  -15.1471 C   0  0  0  0  0  0  0  0  0  0  0  0
   21.9201   -6.7921  -16.2483 O   0  0  0  0  0  0  0  0  0  0  0  0
   22.4542   -6.6556  -14.0788 O   0  0  0  0  0  0  0  0  0  0  0  0
  2  3  2  0
  2  1  1  0
  4  2  1  0
  5  4  1  0
  6  8  1  0
  6  5  1  0
  6  7  1  6
  8  9  2  0
 10 11  1  0
 10  8  1  0
 11 12  1  1
 12 13  1  0
 13 14  1  0
 14 18  1  0
 15 14  2  0
 16 11  1  0
 17 16  2  0
 20 19  1  1
 20 22  1  0
 21 20  1  0
 23 22  1  6
 23 24  1  0
 24 16  1  0
 25 23  1  0
 25 27  1  0
 26 25  2  0
M  END
$$$$
