QEL.pdb
     RDKit          3D

 27 26  0  0  1  0  0  0  0  0999 V2000
   32.7295  -41.8143   -4.3682 N   0  0  0  0  0  0  0  0  0  0  0  0
   31.6668  -40.8932   -4.2061 C   0  0  0  0  0  0  0  0  0  0  0  0
   31.1364  -40.7567   -3.0804 O   0  0  0  0  0  0  0  0  0  0  0  0
   31.1667  -40.0845   -5.3425 C   0  0  0  0  0  0  0  0  0  0  0  0
   30.1445  -39.1100   -4.8711 C   0  0  0  0  0  0  0  0  0  0  0  0
   28.7206  -39.4531   -5.2467 C   0  0  2  0  0  0  0  0  0  0  0  0
   28.6257  -39.2731   -6.6786 N   0  0  0  0  0  0  0  0  0  0  0  0
   27.7227  -38.6222   -4.5364 C   0  0  0  0  0  0  0  0  0  0  0  0
   27.2346  -37.5957   -5.0873 O   0  0  0  0  0  0  0  0  0  0  0  0
   27.2493  -38.9038   -3.2196 N   0  0  0  0  0  0  0  0  0  0  0  0
   26.2442  -38.1120   -2.6229 C   0  0  1  0  0  0  0  0  0  0  0  0
   25.4890  -38.8179   -1.5309 C   0  0  0  0  0  0  0  0  0  0  0  0
   24.8682  -40.1116   -1.9267 C   0  0  0  0  0  0  0  0  0  0  0  0
   24.2282  -40.8893   -0.8642 C   0  0  0  0  0  0  0  0  0  0  0  0
   24.4989  -40.7923    0.3666 O   0  0  0  0  0  0  0  0  0  0  0  0
   26.7338  -36.8252   -2.0709 C   0  0  0  0  0  0  0  0  0  0  0  0
   27.9304  -36.6263   -1.7476 O   0  0  0  0  0  0  0  0  0  0  0  0
   23.2229  -41.8405   -1.1492 O   0  0  0  0  0  0  0  0  0  0  0  0
   24.4827  -32.1147   -3.9303 C   0  0  0  0  0  0  0  0  0  0  0  0
   25.6003  -33.1483   -3.5743 C   0  0  1  0  0  0  0  0  0  0  0  0
   26.8694  -32.4532   -3.9062 C   0  0  0  0  0  0  0  0  0  0  0  0
   25.3305  -33.5207   -2.1829 C   0  0  0  0  0  0  0  0  0  0  0  0
   26.2065  -34.4397   -1.4336 C   0  0  2  0  0  0  0  0  0  0  0  0
   25.7858  -35.7925   -1.9138 N   0  0  0  0  0  0  0  0  0  0  0  0
   25.9311  -34.4801   -0.0013 C   0  0  0  0  0  0  0  0  0  0  0  0
   25.1956  -35.3695    0.4878 O   0  0  0  0  0  0  0  0  0  0  0  0
   26.4606  -33.5626    0.8686 O   0  0  0  0  0  0  0  0  0  0  0  0
  2  3  2  0
  2  1  1  0
  4  2  1  0
  5  4  1  0
  6  8  1  0
  6  5  1  0
  6  7  1  6
  8  9  2  0
 10 11  1  0
 10  8  1  0
 11 12  1  1
 12 13  1  0
 13 14  1  0
 14 18  1  0
 15 14  2  0
 16 11  1  0
 17 16  2  0
 20 19  1  1
 20 22  1  0
 21 20  1  0
 23 22  1  6
 23 24  1  0
 24 16  1  0
 25 23  1  0
 25 27  1  0
 26 25  2  0
M  END
$$$$
