QEL.pdb
     RDKit          3D

 27 26  0  0  1  0  0  0  0  0999 V2000
   22.5150  -20.5733   -8.6154 N   0  0  0  0  0  0  0  0  0  0  0  0
   23.8609  -20.7014   -8.1958 C   0  0  0  0  0  0  0  0  0  0  0  0
   24.2732  -20.0179   -7.2314 O   0  0  0  0  0  0  0  0  0  0  0  0
   24.7956  -21.6294   -8.8746 C   0  0  0  0  0  0  0  0  0  0  0  0
   25.5360  -20.9178   -9.9527 C   0  0  0  0  0  0  0  0  0  0  0  0
   24.7567  -20.7207  -11.2334 C   0  0  2  0  0  0  0  0  0  0  0  0
   24.0410  -21.9558  -11.4652 N   0  0  0  0  0  0  0  0  0  0  0  0
   25.6213  -20.3798  -12.3855 C   0  0  0  0  0  0  0  0  0  0  0  0
   26.3471  -19.3464  -12.3584 O   0  0  0  0  0  0  0  0  0  0  0  0
   25.7009  -21.1629  -13.5762 N   0  0  0  0  0  0  0  0  0  0  0  0
   26.4682  -20.7322  -14.6802 C   0  0  1  0  0  0  0  0  0  0  0  0
   26.9355  -21.8548  -15.5648 C   0  0  0  0  0  0  0  0  0  0  0  0
   27.8409  -21.4496  -16.6747 C   0  0  0  0  0  0  0  0  0  0  0  0
   28.3627  -22.5204  -17.5257 C   0  0  0  0  0  0  0  0  0  0  0  0
   27.7478  -23.5897  -17.8015 O   0  0  0  0  0  0  0  0  0  0  0  0
   25.7855  -19.7361  -15.5416 C   0  0  0  0  0  0  0  0  0  0  0  0
   24.5507  -19.7531  -15.7671 O   0  0  0  0  0  0  0  0  0  0  0  0
   29.6400  -22.4320  -18.1232 O   0  0  0  0  0  0  0  0  0  0  0  0
   27.1334  -14.3807  -15.3389 C   0  0  0  0  0  0  0  0  0  0  0  0
   26.1239  -15.5702  -15.4388 C   0  0  1  0  0  0  0  0  0  0  0  0
   24.8038  -14.9220  -15.6414 C   0  0  0  0  0  0  0  0  0  0  0  0
   26.6686  -16.4303  -16.4929 C   0  0  0  0  0  0  0  0  0  0  0  0
   25.9731  -17.6478  -16.9483 C   0  0  2  0  0  0  0  0  0  0  0  0
   26.5886  -18.7317  -16.1214 N   0  0  0  0  0  0  0  0  0  0  0  0
   26.2950  -18.0330  -18.3184 C   0  0  0  0  0  0  0  0  0  0  0  0
   27.3243  -18.7013  -18.5740 O   0  0  0  0  0  0  0  0  0  0  0  0
   25.4954  -17.6920  -19.3782 O   0  0  0  0  0  0  0  0  0  0  0  0
  2  3  2  0
  2  1  1  0
  4  2  1  0
  5  4  1  0
  6  8  1  0
  6  5  1  0
  6  7  1  6
  8  9  2  0
 10 11  1  0
 10  8  1  0
 11 12  1  6
 12 13  1  0
 13 14  1  0
 14 18  1  0
 15 14  2  0
 16 11  1  0
 17 16  2  0
 20 19  1  6
 20 22  1  0
 21 20  1  0
 23 22  1  1
 23 24  1  0
 24 16  1  0
 25 23  1  0
 25 27  1  0
 26 25  2  0
M  END
$$$$
