QEL.pdb
     RDKit          3D

 27 26  0  0  1  0  0  0  0  0999 V2000
   20.6433  -20.5979  -13.2933 N   0  0  0  0  0  0  0  0  0  0  0  0
   20.2879  -21.0143  -14.5988 C   0  0  0  0  0  0  0  0  0  0  0  0
   19.6510  -22.0810  -14.7531 O   0  0  0  0  0  0  0  0  0  0  0  0
   20.6540  -20.2134  -15.7905 C   0  0  0  0  0  0  0  0  0  0  0  0
   21.4960  -19.0519  -15.3921 C   0  0  0  0  0  0  0  0  0  0  0  0
   20.9620  -17.7044  -15.8226 C   0  0  2  0  0  0  0  0  0  0  0  0
   20.0535  -17.9609  -16.9183 N   0  0  0  0  0  0  0  0  0  0  0  0
   22.0320  -16.7640  -16.2246 C   0  0  0  0  0  0  0  0  0  0  0  0
   22.9813  -16.4979  -15.4351 O   0  0  0  0  0  0  0  0  0  0  0  0
   22.0751  -16.1062  -17.4906 N   0  0  0  0  0  0  0  0  0  0  0  0
   23.1348  -15.2340  -17.8216 C   0  0  1  0  0  0  0  0  0  0  0  0
   23.3803  -15.1171  -19.3005 C   0  0  0  0  0  0  0  0  0  0  0  0
   23.9487  -16.3327  -19.9446 C   0  0  0  0  0  0  0  0  0  0  0  0
   24.1651  -16.2736  -21.3912 C   0  0  0  0  0  0  0  0  0  0  0  0
   24.6177  -17.2215  -22.0943 O   0  0  0  0  0  0  0  0  0  0  0  0
   22.9811  -13.8609  -17.2819 C   0  0  0  0  0  0  0  0  0  0  0  0
   21.8659  -13.3371  -17.0415 O   0  0  0  0  0  0  0  0  0  0  0  0
   23.8717  -15.1081  -22.1343 O   0  0  0  0  0  0  0  0  0  0  0  0
   25.1980   -9.9934  -14.1629 C   0  0  0  0  0  0  0  0  0  0  0  0
   25.9322  -10.2016  -15.5273 C   0  0  1  0  0  0  0  0  0  0  0  0
   27.3681   -9.9943  -15.2127 C   0  0  0  0  0  0  0  0  0  0  0  0
   25.4836  -11.5170  -15.9920 C   0  0  0  0  0  0  0  0  0  0  0  0
   24.1028  -11.7579  -16.4487 C   0  0  2  0  0  0  0  0  0  0  0  0
   24.1638  -13.1324  -17.0357 N   0  0  0  0  0  0  0  0  0  0  0  0
   23.6988  -10.9195  -17.5727 C   0  0  0  0  0  0  0  0  0  0  0  0
   22.8575  -10.0027  -17.4218 O   0  0  0  0  0  0  0  0  0  0  0  0
   24.2168  -11.0881  -18.8305 O   0  0  0  0  0  0  0  0  0  0  0  0
  2  3  2  0
  2  1  1  0
  4  2  1  0
  5  4  1  0
  6  8  1  0
  6  5  1  0
  6  7  1  6
  8  9  2  0
 10 11  1  0
 10  8  1  0
 11 12  1  6
 12 13  1  0
 13 14  1  0
 14 18  1  0
 15 14  2  0
 16 11  1  0
 17 16  2  0
 20 19  1  1
 20 22  1  0
 21 20  1  0
 23 22  1  6
 23 24  1  0
 24 16  1  0
 25 23  1  0
 25 27  1  0
 26 25  2  0
M  END
$$$$
