QEL.pdb
     RDKit          3D

 27 26  0  0  1  0  0  0  0  0999 V2000
   17.4768  -14.4601  -14.3132 N   0  0  0  0  0  0  0  0  0  0  0  0
   16.5578  -13.3982  -14.4909 C   0  0  0  0  0  0  0  0  0  0  0  0
   15.9563  -12.9313  -13.4972 O   0  0  0  0  0  0  0  0  0  0  0  0
   16.2909  -12.8250  -15.8310 C   0  0  0  0  0  0  0  0  0  0  0  0
   17.1850  -11.6609  -16.0810 C   0  0  0  0  0  0  0  0  0  0  0  0
   16.4766  -10.4015  -16.5263 C   0  0  2  0  0  0  0  0  0  0  0  0
   16.0506  -10.6373  -17.8881 N   0  0  0  0  0  0  0  0  0  0  0  0
   17.3330   -9.1977  -16.4351 C   0  0  0  0  0  0  0  0  0  0  0  0
   18.3655   -9.0897  -17.1546 O   0  0  0  0  0  0  0  0  0  0  0  0
   17.0703   -8.1023  -15.5585 N   0  0  0  0  0  0  0  0  0  0  0  0
   17.9347   -6.9872  -15.5083 C   0  0  1  0  0  0  0  0  0  0  0  0
   17.2243   -5.6835  -15.2701 C   0  0  0  0  0  0  0  0  0  0  0  0
   18.0666   -4.4667  -15.4300 C   0  0  0  0  0  0  0  0  0  0  0  0
   17.4975   -3.3676  -16.2119 C   0  0  0  0  0  0  0  0  0  0  0  0
   16.3437   -3.3686  -16.7278 O   0  0  0  0  0  0  0  0  0  0  0  0
   19.0141   -7.1018  -14.4973 C   0  0  0  0  0  0  0  0  0  0  0  0
   18.8220   -7.5237  -13.3308 O   0  0  0  0  0  0  0  0  0  0  0  0
   18.2249   -2.1808  -16.4549 O   0  0  0  0  0  0  0  0  0  0  0  0
   23.5221   -9.6991  -15.5796 C   0  0  0  0  0  0  0  0  0  0  0  0
   22.3734   -9.2146  -14.6363 C   0  0  1  0  0  0  0  0  0  0  0  0
   22.6779   -9.8429  -13.3261 C   0  0  0  0  0  0  0  0  0  0  0  0
   22.3913   -7.7538  -14.7513 C   0  0  0  0  0  0  0  0  0  0  0  0
   21.4762   -6.8955  -13.9772 C   0  0  2  0  0  0  0  0  0  0  0  0
   20.3098   -6.7110  -14.8954 N   0  0  0  0  0  0  0  0  0  0  0  0
   21.9727   -5.5388  -13.7719 C   0  0  0  0  0  0  0  0  0  0  0  0
   21.6541   -4.6119  -14.5532 O   0  0  0  0  0  0  0  0  0  0  0  0
   22.7964   -5.2150  -12.7252 O   0  0  0  0  0  0  0  0  0  0  0  0
  2  3  2  0
  2  1  1  0
  4  2  1  0
  5  4  1  0
  6  8  1  0
  6  5  1  0
  6  7  1  6
  8  9  2  0
 10 11  1  0
 10  8  1  0
 11 12  1  1
 12 13  1  0
 13 14  1  0
 14 18  1  0
 15 14  2  0
 16 11  1  0
 17 16  2  0
 20 19  1  6
 20 22  1  0
 21 20  1  0
 23 22  1  6
 23 24  1  0
 24 16  1  0
 25 23  1  0
 25 27  1  0
 26 25  2  0
M  END
$$$$
