QEL.pdb
     RDKit          3D

 27 26  0  0  1  0  0  0  0  0999 V2000
   27.2176   -9.5239  -19.3457 N   0  0  0  0  0  0  0  0  0  0  0  0
   28.1903   -9.8252  -20.3290 C   0  0  0  0  0  0  0  0  0  0  0  0
   27.9449  -10.6997  -21.1906 O   0  0  0  0  0  0  0  0  0  0  0  0
   29.4967   -9.1266  -20.3615 C   0  0  0  0  0  0  0  0  0  0  0  0
   29.8667   -8.6620  -18.9962 C   0  0  0  0  0  0  0  0  0  0  0  0
   31.0554   -9.3698  -18.3861 C   0  0  2  0  0  0  0  0  0  0  0  0
   30.6062  -10.7048  -18.0580 N   0  0  0  0  0  0  0  0  0  0  0  0
   31.5863   -8.6759  -17.1913 C   0  0  0  0  0  0  0  0  0  0  0  0
   30.8475   -8.4721  -16.1873 O   0  0  0  0  0  0  0  0  0  0  0  0
   32.9270   -8.1985  -17.0820 N   0  0  0  0  0  0  0  0  0  0  0  0
   33.3803   -7.5659  -15.9041 C   0  0  1  0  0  0  0  0  0  0  0  0
   34.4419   -8.3406  -15.1735 C   0  0  0  0  0  0  0  0  0  0  0  0
   35.5869   -8.7889  -16.0124 C   0  0  0  0  0  0  0  0  0  0  0  0
   36.6371   -9.5563  -15.3406 C   0  0  0  0  0  0  0  0  0  0  0  0
   37.3314   -9.1375  -14.3711 O   0  0  0  0  0  0  0  0  0  0  0  0
   33.8926   -6.1897  -16.1136 C   0  0  0  0  0  0  0  0  0  0  0  0
   34.6233   -5.8678  -17.0822 O   0  0  0  0  0  0  0  0  0  0  0  0
   36.9623  -10.8712  -15.7430 O   0  0  0  0  0  0  0  0  0  0  0  0
   31.5161   -2.2817  -17.8899 C   0  0  0  0  0  0  0  0  0  0  0  0
   32.9085   -2.8887  -17.5200 C   0  0  1  0  0  0  0  0  0  0  0  0
   33.8903   -1.8724  -17.9749 C   0  0  0  0  0  0  0  0  0  0  0  0
   32.8091   -3.1992  -16.0912 C   0  0  0  0  0  0  0  0  0  0  0  0
   33.9310   -3.7874  -15.3372 C   0  0  2  0  0  0  0  0  0  0  0  0
   33.5232   -5.2160  -15.1621 N   0  0  0  0  0  0  0  0  0  0  0  0
   34.0471   -3.2909  -13.9700 C   0  0  0  0  0  0  0  0  0  0  0  0
   33.3532   -3.7786  -13.0471 O   0  0  0  0  0  0  0  0  0  0  0  0
   34.9133   -2.2838  -13.6317 O   0  0  0  0  0  0  0  0  0  0  0  0
  2  3  2  0
  2  1  1  0
  4  2  1  0
  5  4  1  0
  6  8  1  0
  6  5  1  0
  6  7  1  1
  8  9  2  0
 10 11  1  0
 10  8  1  0
 11 12  1  6
 12 13  1  0
 13 14  1  0
 14 18  1  0
 15 14  2  0
 16 11  1  0
 17 16  2  0
 20 19  1  1
 20 22  1  0
 21 20  1  0
 23 22  1  6
 23 24  1  0
 24 16  1  0
 25 23  1  0
 25 27  1  0
 26 25  2  0
M  END
$$$$
