QEL.pdb
     RDKit          3D

 27 26  0  0  1  0  0  0  0  0999 V2000
   15.2889  -11.5037  -14.8606 N   0  0  0  0  0  0  0  0  0  0  0  0
   15.4131  -12.8892  -15.1230 C   0  0  0  0  0  0  0  0  0  0  0  0
   14.4233  -13.6382  -14.9598 O   0  0  0  0  0  0  0  0  0  0  0  0
   16.6924  -13.4748  -15.5879 C   0  0  0  0  0  0  0  0  0  0  0  0
   17.7235  -12.4106  -15.7333 C   0  0  0  0  0  0  0  0  0  0  0  0
   17.7370  -11.7203  -17.0785 C   0  0  2  0  0  0  0  0  0  0  0  0
   18.2689  -12.6804  -18.0202 N   0  0  0  0  0  0  0  0  0  0  0  0
   18.5359  -10.4743  -17.0770 C   0  0  0  0  0  0  0  0  0  0  0  0
   19.7815  -10.5113  -17.2832 O   0  0  0  0  0  0  0  0  0  0  0  0
   17.9828   -9.1780  -16.8505 N   0  0  0  0  0  0  0  0  0  0  0  0
   18.8003   -8.0269  -16.8574 C   0  0  1  0  0  0  0  0  0  0  0  0
   18.0522   -6.7576  -17.1578 C   0  0  0  0  0  0  0  0  0  0  0  0
   18.9071   -5.5713  -17.4361 C   0  0  0  0  0  0  0  0  0  0  0  0
   18.2179   -4.3283  -17.7870 C   0  0  0  0  0  0  0  0  0  0  0  0
   18.4230   -3.6599  -18.8399 O   0  0  0  0  0  0  0  0  0  0  0  0
   19.5588   -7.8144  -15.6005 C   0  0  0  0  0  0  0  0  0  0  0  0
   19.0712   -8.0125  -14.4609 O   0  0  0  0  0  0  0  0  0  0  0  0
   17.2356   -3.7652  -16.9417 O   0  0  0  0  0  0  0  0  0  0  0  0
   24.2808  -10.1169  -15.0636 C   0  0  0  0  0  0  0  0  0  0  0  0
   22.8762   -9.6036  -14.6082 C   0  0  1  0  0  0  0  0  0  0  0  0
   22.7358  -10.0919  -13.2132 C   0  0  0  0  0  0  0  0  0  0  0  0
   22.9093   -8.1606  -14.8618 C   0  0  0  0  0  0  0  0  0  0  0  0
   21.7779   -7.2789  -14.5216 C   0  0  2  0  0  0  0  0  0  0  0  0
   20.8916   -7.3685  -15.7232 N   0  0  0  0  0  0  0  0  0  0  0  0
   22.1312   -5.8646  -14.4572 C   0  0  0  0  0  0  0  0  0  0  0  0
   22.0545   -5.1353  -15.4738 O   0  0  0  0  0  0  0  0  0  0  0  0
   22.5536   -5.2712  -13.2960 O   0  0  0  0  0  0  0  0  0  0  0  0
  2  3  2  0
  2  1  1  0
  4  2  1  0
  5  4  1  0
  6  8  1  0
  6  5  1  0
  6  7  1  6
  8  9  2  0
 10 11  1  0
 10  8  1  0
 11 12  1  1
 12 13  1  0
 13 14  1  0
 14 18  1  0
 15 14  2  0
 16 11  1  0
 17 16  2  0
 20 19  1  1
 20 22  1  0
 21 20  1  0
 23 22  1  6
 23 24  1  0
 24 16  1  0
 25 23  1  0
 25 27  1  0
 26 25  2  0
M  END
$$$$
