QEL.pdb
     RDKit          3D

 27 26  0  0  1  0  0  0  0  0999 V2000
   16.2741  -12.5582  -15.0141 N   0  0  0  0  0  0  0  0  0  0  0  0
   17.6443  -12.5016  -15.3653 C   0  0  0  0  0  0  0  0  0  0  0  0
   18.4814  -13.1370  -14.6850 O   0  0  0  0  0  0  0  0  0  0  0  0
   18.1115  -11.7045  -16.5238 C   0  0  0  0  0  0  0  0  0  0  0  0
   16.9532  -11.0799  -17.2203 C   0  0  0  0  0  0  0  0  0  0  0  0
   17.3177  -10.2126  -18.4040 C   0  0  2  0  0  0  0  0  0  0  0  0
   17.7973  -11.1109  -19.4309 N   0  0  0  0  0  0  0  0  0  0  0  0
   18.3331   -9.1873  -18.0741 C   0  0  0  0  0  0  0  0  0  0  0  0
   19.4960   -9.5283  -17.7180 O   0  0  0  0  0  0  0  0  0  0  0  0
   18.0883   -7.7822  -18.1297 N   0  0  0  0  0  0  0  0  0  0  0  0
   19.1093   -6.8535  -17.8327 C   0  0  1  0  0  0  0  0  0  0  0  0
   18.7467   -5.4321  -18.1630 C   0  0  0  0  0  0  0  0  0  0  0  0
   19.8388   -4.4397  -17.9673 C   0  0  0  0  0  0  0  0  0  0  0  0
   19.6040   -3.3857  -16.9788 C   0  0  0  0  0  0  0  0  0  0  0  0
   20.3861   -3.0979  -16.0286 O   0  0  0  0  0  0  0  0  0  0  0  0
   19.5653   -6.8844  -16.4215 C   0  0  0  0  0  0  0  0  0  0  0  0
   18.7934   -7.0924  -15.4536 O   0  0  0  0  0  0  0  0  0  0  0  0
   18.4416   -2.5833  -17.0177 O   0  0  0  0  0  0  0  0  0  0  0  0
   23.7156   -9.8893  -14.6428 C   0  0  0  0  0  0  0  0  0  0  0  0
   22.3201   -9.2007  -14.4936 C   0  0  1  0  0  0  0  0  0  0  0  0
   21.9297   -9.4525  -13.0836 C   0  0  0  0  0  0  0  0  0  0  0  0
   22.5377   -7.8223  -14.9411 C   0  0  0  0  0  0  0  0  0  0  0  0
   21.5025   -6.7816  -14.8054 C   0  0  2  0  0  0  0  0  0  0  0  0
   20.9392   -6.6671  -16.1864 N   0  0  0  0  0  0  0  0  0  0  0  0
   22.0365   -5.4501  -14.5383 C   0  0  0  0  0  0  0  0  0  0  0  0
   22.4064   -4.7051  -15.4760 O   0  0  0  0  0  0  0  0  0  0  0  0
   22.1531   -4.9536  -13.2660 O   0  0  0  0  0  0  0  0  0  0  0  0
  2  3  2  0
  2  1  1  0
  4  2  1  0
  5  4  1  0
  6  8  1  0
  6  5  1  0
  6  7  1  6
  8  9  2  0
 10 11  1  0
 10  8  1  0
 11 12  1  1
 12 13  1  0
 13 14  1  0
 14 18  1  0
 15 14  2  0
 16 11  1  0
 17 16  2  0
 20 19  1  1
 20 22  1  0
 21 20  1  0
 23 22  1  6
 23 24  1  0
 24 16  1  0
 25 23  1  0
 25 27  1  0
 26 25  2  0
M  END
$$$$
