CRC.pdb
     RDKit          3D

 24 23  0  0  1  0  0  0  0  0999 V2000
   28.7104  -21.2657  -17.4424 N   0  0  0  0  0  0  0  0  0  0  0  0
   27.9631  -20.0814  -17.0688 C   0  0  1  0  0  0  0  0  0  0  0  0
   27.6664  -19.3031  -18.3290 C   0  0  0  0  0  0  0  0  0  0  0  0
   28.7989  -17.9451  -18.6168 S   0  0  0  0  0  0  0  0  0  0  0  0
   26.7016  -20.5159  -16.3915 C   0  0  0  0  0  0  0  0  0  0  0  0
   26.0514  -21.4912  -16.8379 O   0  0  0  0  0  0  0  0  0  0  0  0
   25.5313  -20.0202   -8.6833 N   0  0  0  0  0  0  0  0  0  0  0  0
   24.6249  -20.8102   -9.4114 C   0  0  0  0  0  0  0  0  0  0  0  0
   23.3573  -20.7831   -9.0966 N   0  0  0  0  0  0  0  0  0  0  0  0
   25.0019  -21.6522  -10.4823 N   0  0  0  0  0  0  0  0  0  0  0  0
   26.2253  -21.5815  -11.1978 C   0  0  0  0  0  0  0  0  0  0  0  0
   26.0840  -21.4600  -12.6882 C   0  0  0  0  0  0  0  0  0  0  0  0
   25.2179  -20.3146  -13.0696 C   0  0  0  0  0  0  0  0  0  0  0  0
   24.9829  -20.1943  -14.5597 C   0  0  2  0  0  0  0  0  0  0  0  0
   26.2240  -19.8340  -15.2388 N   0  0  0  0  0  0  0  0  0  0  0  0
   23.8793  -19.2892  -14.9386 C   0  0  0  0  0  0  0  0  0  0  0  0
   23.9680  -18.0754  -14.6535 O   0  0  0  0  0  0  0  0  0  0  0  0
   22.6226  -21.2931   -9.6027 N   0  0  0  0  0  0  0  0  0  0  0  0
   22.7176  -19.7246  -15.6131 C   0  0  1  0  0  0  0  0  0  0  0  0
   21.5859  -18.9637  -15.9967 C   0  0  0  0  0  0  0  0  0  0  0  0
   21.2192  -19.0639  -17.4618 S   0  0  0  0  0  0  0  0  0  0  0  0
   22.7591  -18.8067  -18.4147 C   0  0  0  0  0  0  0  0  0  0  0  0
   20.3956  -19.0405  -15.1149 O   0  0  0  0  0  0  0  0  0  0  0  0
   20.3531  -19.8886  -14.1831 O   0  0  0  0  0  0  0  0  0  0  0  0
  2  1  1  6
  3  4  1  0
  3  2  1  0
  5  6  2  0
  5  2  1  0
  7  8  1  0
  8 10  1  0
  9  8  2  0
 10 11  1  0
 11 12  1  0
 12 13  1  0
 14 13  1  1
 14 15  1  0
 15  5  1  0
 16 14  1  0
 17 16  2  0
 18 16  1  0
 19 22  1  0
 19 18  1  0
 19 20  1  6
 21 20  1  0
 22 24  1  0
 23 22  2  0
M  END
$$$$
