CRC.pdb
     RDKit          3D

 24 23  0  0  1  0  0  0  0  0999 V2000
   26.6140  -22.2068  -10.8225 N   0  0  0  0  0  0  0  0  0  0  0  0
   25.6113  -21.1622  -10.7587 C   0  0  1  0  0  0  0  0  0  0  0  0
   26.2903  -19.8948  -10.2956 C   0  0  0  0  0  0  0  0  0  0  0  0
   26.0640  -19.5559   -8.5510 S   0  0  0  0  0  0  0  0  0  0  0  0
   25.0218  -20.9926  -12.1234 C   0  0  0  0  0  0  0  0  0  0  0  0
   25.6752  -21.3338  -13.1381 O   0  0  0  0  0  0  0  0  0  0  0  0
   18.3221  -20.3780  -11.8384 N   0  0  0  0  0  0  0  0  0  0  0  0
   18.3630  -21.5167  -12.6615 C   0  0  0  0  0  0  0  0  0  0  0  0
   17.7977  -22.6212  -12.2528 N   0  0  0  0  0  0  0  0  0  0  0  0
   18.9908  -21.5480  -13.9275 N   0  0  0  0  0  0  0  0  0  0  0  0
   19.4220  -20.4144  -14.6641 C   0  0  0  0  0  0  0  0  0  0  0  0
   20.9107  -20.2814  -14.8127 C   0  0  0  0  0  0  0  0  0  0  0  0
   21.6052  -20.3501  -13.5010 C   0  0  0  0  0  0  0  0  0  0  0  0
   23.1104  -20.2275  -13.5980 C   0  0  2  0  0  0  0  0  0  0  0  0
   23.7198  -20.4455  -12.2893 N   0  0  0  0  0  0  0  0  0  0  0  0
   23.5884  -18.9726  -14.2123 C   0  0  0  0  0  0  0  0  0  0  0  0
   23.4487  -17.9007  -13.5845 O   0  0  0  0  0  0  0  0  0  0  0  0
   17.7849  -23.4989  -12.7872 N   0  0  0  0  0  0  0  0  0  0  0  0
   24.2017  -18.9170  -15.4831 C   0  0  2  0  0  0  0  0  0  0  0  0
   25.3873  -18.2389  -15.8587 C   0  0  0  0  0  0  0  0  0  0  0  0
   26.4342  -18.1382  -14.7701 S   0  0  0  0  0  0  0  0  0  0  0  0
   27.6163  -16.8415  -15.2867 C   0  0  0  0  0  0  0  0  0  0  0  0
   25.9774  -18.5963  -17.1718 O   0  0  0  0  0  0  0  0  0  0  0  0
   25.6428  -19.6686  -17.7442 O   0  0  0  0  0  0  0  0  0  0  0  0
  2  1  1  6
  3  4  1  0
  3  2  1  0
  5  6  2  0
  5  2  1  0
  7  8  1  0
  8 10  1  0
  9  8  2  0
 10 11  1  0
 11 12  1  0
 12 13  1  0
 14 13  1  1
 14 15  1  0
 15  5  1  0
 16 14  1  0
 17 16  2  0
 18 16  1  0
 19 22  1  0
 19 18  1  0
 19 20  1  1
 21 20  1  0
 22 24  1  0
 23 22  2  0
M  END
$$$$
