CRC.pdb
     RDKit          3D

 24 23  0  0  1  0  0  0  0  0999 V2000
   26.2720  -14.3754  -20.3213 N   0  0  0  0  0  0  0  0  0  0  0  0
   25.9835  -14.0565  -18.9373 C   0  0  1  0  0  0  0  0  0  0  0  0
   25.0297  -12.8853  -18.9200 C   0  0  0  0  0  0  0  0  0  0  0  0
   25.8300  -11.3044  -19.1844 S   0  0  0  0  0  0  0  0  0  0  0  0
   25.3722  -15.2617  -18.2948 C   0  0  0  0  0  0  0  0  0  0  0  0
   24.4422  -15.8772  -18.8686 O   0  0  0  0  0  0  0  0  0  0  0  0
   28.2649  -21.0260  -11.8811 N   0  0  0  0  0  0  0  0  0  0  0  0
   26.8722  -20.8695  -11.7735 C   0  0  0  0  0  0  0  0  0  0  0  0
   26.2344  -21.4724  -10.8058 N   0  0  0  0  0  0  0  0  0  0  0  0
   26.0989  -20.0894  -12.6630 N   0  0  0  0  0  0  0  0  0  0  0  0
   26.6048  -19.1111  -13.5576 C   0  0  0  0  0  0  0  0  0  0  0  0
   25.5768  -18.4680  -14.4440 C   0  0  0  0  0  0  0  0  0  0  0  0
   26.1726  -17.4163  -15.3081 C   0  0  0  0  0  0  0  0  0  0  0  0
   25.2048  -16.8276  -16.3116 C   0  0  2  0  0  0  0  0  0  0  0  0
   25.8338  -15.7244  -17.0320 N   0  0  0  0  0  0  0  0  0  0  0  0
   23.8996  -16.4282  -15.7482 C   0  0  0  0  0  0  0  0  0  0  0  0
   23.7824  -15.2917  -15.2410 O   0  0  0  0  0  0  0  0  0  0  0  0
   25.2196  -21.4138  -10.6546 N   0  0  0  0  0  0  0  0  0  0  0  0
   22.7647  -17.2685  -15.7520 C   0  0  1  0  0  0  0  0  0  0  0  0
   21.4088  -16.9165  -15.5411 C   0  0  0  0  0  0  0  0  0  0  0  0
   20.8997  -15.7933  -16.4189 S   0  0  0  0  0  0  0  0  0  0  0  0
   19.2422  -15.3383  -15.7932 C   0  0  0  0  0  0  0  0  0  0  0  0
   20.4350  -18.0304  -15.4358 O   0  0  0  0  0  0  0  0  0  0  0  0
   20.5282  -19.0260  -16.2036 O   0  0  0  0  0  0  0  0  0  0  0  0
  2  1  1  6
  3  4  1  0
  3  2  1  0
  5  6  2  0
  5  2  1  0
  7  8  1  0
  8 10  1  0
  9  8  2  0
 10 11  1  0
 11 12  1  0
 12 13  1  0
 14 13  1  1
 14 15  1  0
 15  5  1  0
 16 14  1  0
 17 16  2  0
 18 16  1  0
 19 22  1  0
 19 18  1  0
 19 20  1  6
 21 20  1  0
 22 24  1  0
 23 22  2  0
M  END
$$$$
