CRC.pdb
     RDKit          3D

 24 23  0  0  1  0  0  0  0  0999 V2000
   27.5304  -24.0442  -17.7980 N   0  0  0  0  0  0  0  0  0  0  0  0
   27.7883  -22.6533  -17.4824 C   0  0  1  0  0  0  0  0  0  0  0  0
   27.7570  -21.8707  -18.7740 C   0  0  0  0  0  0  0  0  0  0  0  0
   29.0428  -22.3412  -19.9293 S   0  0  0  0  0  0  0  0  0  0  0  0
   26.7283  -22.1813  -16.5378 C   0  0  0  0  0  0  0  0  0  0  0  0
   25.6234  -22.7727  -16.4853 O   0  0  0  0  0  0  0  0  0  0  0  0
   26.1721  -21.9090  -10.3625 N   0  0  0  0  0  0  0  0  0  0  0  0
   25.6640  -20.7926   -9.6762 C   0  0  0  0  0  0  0  0  0  0  0  0
   24.8857  -20.9772   -8.6434 N   0  0  0  0  0  0  0  0  0  0  0  0
   25.9424  -19.4549  -10.0384 N   0  0  0  0  0  0  0  0  0  0  0  0
   26.5474  -19.0364  -11.2518 C   0  0  0  0  0  0  0  0  0  0  0  0
   25.8060  -19.4249  -12.4989 C   0  0  0  0  0  0  0  0  0  0  0  0
   26.6550  -20.2237  -13.4202 C   0  0  0  0  0  0  0  0  0  0  0  0
   25.9733  -20.5859  -14.7218 C   0  0  2  0  0  0  0  0  0  0  0  0
   26.9561  -21.0622  -15.6907 N   0  0  0  0  0  0  0  0  0  0  0  0
   25.1278  -19.5183  -15.2928 C   0  0  0  0  0  0  0  0  0  0  0  0
   25.6672  -18.6183  -15.9722 O   0  0  0  0  0  0  0  0  0  0  0  0
   24.4711  -20.2197   -8.0862 N   0  0  0  0  0  0  0  0  0  0  0  0
   23.7286  -19.4586  -15.1119 C   0  0  1  0  0  0  0  0  0  0  0  0
   22.7220  -19.2745  -16.0916 C   0  0  0  0  0  0  0  0  0  0  0  0
   23.0050  -19.9321  -17.4253 S   0  0  0  0  0  0  0  0  0  0  0  0
   24.0360  -18.7658  -18.3857 C   0  0  0  0  0  0  0  0  0  0  0  0
   21.3179  -19.4724  -15.6563 O   0  0  0  0  0  0  0  0  0  0  0  0
   20.3699  -19.2347  -16.4528 O   0  0  0  0  0  0  0  0  0  0  0  0
  2  1  1  6
  3  4  1  0
  3  2  1  0
  5  6  2  0
  5  2  1  0
  7  8  1  0
  8 10  1  0
  9  8  2  0
 10 11  1  0
 11 12  1  0
 12 13  1  0
 14 13  1  1
 14 15  1  0
 15  5  1  0
 16 14  1  0
 17 16  2  0
 18 16  1  0
 19 22  1  0
 19 18  1  0
 19 20  1  1
 21 20  1  0
 22 24  1  0
 23 22  2  0
M  END
$$$$
