CRC.pdb
     RDKit          3D

 24 23  0  0  1  0  0  0  0  0999 V2000
   21.1967  -17.7580  -15.3069 N   0  0  0  0  0  0  0  0  0  0  0  0
   21.3680  -16.5938  -16.1531 C   0  0  1  0  0  0  0  0  0  0  0  0
   19.9980  -16.1340  -16.5928 C   0  0  0  0  0  0  0  0  0  0  0  0
   20.0002  -14.5262  -17.3832 S   0  0  0  0  0  0  0  0  0  0  0  0
   22.0655  -15.5344  -15.3594 C   0  0  0  0  0  0  0  0  0  0  0  0
   21.6506  -15.2292  -14.2158 O   0  0  0  0  0  0  0  0  0  0  0  0
   28.1729  -14.7067  -17.3338 N   0  0  0  0  0  0  0  0  0  0  0  0
   28.1002  -13.3235  -17.5728 C   0  0  0  0  0  0  0  0  0  0  0  0
   28.3264  -12.8703  -18.7770 N   0  0  0  0  0  0  0  0  0  0  0  0
   27.7954  -12.3695  -16.5753 N   0  0  0  0  0  0  0  0  0  0  0  0
   27.5371  -12.6558  -15.2097 C   0  0  0  0  0  0  0  0  0  0  0  0
   26.0855  -12.6567  -14.8239 C   0  0  0  0  0  0  0  0  0  0  0  0
   25.3429  -13.7700  -15.4696 C   0  0  0  0  0  0  0  0  0  0  0  0
   23.8532  -13.7475  -15.2041 C   0  0  2  0  0  0  0  0  0  0  0  0
   23.2022  -14.8621  -15.8864 N   0  0  0  0  0  0  0  0  0  0  0  0
   23.1909  -12.4649  -15.5150 C   0  0  0  0  0  0  0  0  0  0  0  0
   22.8503  -12.2307  -16.6947 O   0  0  0  0  0  0  0  0  0  0  0  0
   28.2684  -11.8798  -19.0448 N   0  0  0  0  0  0  0  0  0  0  0  0
   22.9178  -11.4785  -14.5420 C   0  0  2  0  0  0  0  0  0  0  0  0
   22.3257  -10.2044  -14.7232 C   0  0  0  0  0  0  0  0  0  0  0  0
   22.1164   -9.4137  -13.4496 S   0  0  0  0  0  0  0  0  0  0  0  0
   21.1590   -7.9218  -13.9005 C   0  0  0  0  0  0  0  0  0  0  0  0
   22.8630   -9.3649  -15.8217 O   0  0  0  0  0  0  0  0  0  0  0  0
   24.1086   -9.2318  -15.9640 O   0  0  0  0  0  0  0  0  0  0  0  0
  2  1  1  1
  3  4  1  0
  3  2  1  0
  5  6  2  0
  5  2  1  0
  7  8  1  0
  8 10  1  0
  9  8  2  0
 10 11  1  0
 11 12  1  0
 12 13  1  0
 14 13  1  6
 14 15  1  0
 15  5  1  0
 16 14  1  0
 17 16  2  0
 18 16  1  0
 19 22  1  0
 19 18  1  0
 19 20  1  1
 21 20  1  0
 22 24  1  0
 23 22  2  0
M  END
$$$$
