CRC.pdb
     RDKit          3D

 24 23  0  0  1  0  0  0  0  0999 V2000
   27.6219  -15.8520  -17.6650 N   0  0  0  0  0  0  0  0  0  0  0  0
   26.7356  -15.7050  -16.5277 C   0  0  1  0  0  0  0  0  0  0  0  0
   25.8809  -14.4814  -16.7604 C   0  0  0  0  0  0  0  0  0  0  0  0
   26.7840  -12.9398  -16.6282 S   0  0  0  0  0  0  0  0  0  0  0  0
   25.8964  -16.9394  -16.4231 C   0  0  0  0  0  0  0  0  0  0  0  0
   25.3988  -17.4513  -17.4544 O   0  0  0  0  0  0  0  0  0  0  0  0
   23.6667  -23.9172  -14.0429 N   0  0  0  0  0  0  0  0  0  0  0  0
   25.0677  -23.8190  -13.9862 C   0  0  0  0  0  0  0  0  0  0  0  0
   25.7951  -24.6415  -14.6941 N   0  0  0  0  0  0  0  0  0  0  0  0
   25.7569  -22.8717  -13.1953 N   0  0  0  0  0  0  0  0  0  0  0  0
   25.1845  -21.7148  -12.6058 C   0  0  0  0  0  0  0  0  0  0  0  0
   24.5150  -20.7759  -13.5681 C   0  0  0  0  0  0  0  0  0  0  0  0
   25.4085  -19.6547  -13.9583 C   0  0  0  0  0  0  0  0  0  0  0  0
   24.8128  -18.7303  -14.9978 C   0  0  2  0  0  0  0  0  0  0  0  0
   25.6520  -17.5468  -15.1609 N   0  0  0  0  0  0  0  0  0  0  0  0
   23.4028  -18.3620  -14.7596 C   0  0  0  0  0  0  0  0  0  0  0  0
   23.1125  -17.7154  -13.7299 O   0  0  0  0  0  0  0  0  0  0  0  0
   26.8198  -24.6004  -14.7601 N   0  0  0  0  0  0  0  0  0  0  0  0
   22.3537  -18.7031  -15.6412 C   0  0  2  0  0  0  0  0  0  0  0  0
   20.9701  -18.4291  -15.5098 C   0  0  0  0  0  0  0  0  0  0  0  0
   20.2296  -18.2534  -16.8182 S   0  0  0  0  0  0  0  0  0  0  0  0
   18.9708  -16.9543  -16.5472 C   0  0  0  0  0  0  0  0  0  0  0  0
   20.2105  -19.2595  -14.5436 O   0  0  0  0  0  0  0  0  0  0  0  0
   20.4450  -20.4947  -14.4507 O   0  0  0  0  0  0  0  0  0  0  0  0
  2  1  1  6
  3  4  1  0
  3  2  1  0
  5  6  2  0
  5  2  1  0
  7  8  1  0
  8 10  1  0
  9  8  2  0
 10 11  1  0
 11 12  1  0
 12 13  1  0
 14 13  1  1
 14 15  1  0
 15  5  1  0
 16 14  1  0
 17 16  2  0
 18 16  1  0
 19 22  1  0
 19 18  1  0
 19 20  1  6
 21 20  1  0
 22 24  1  0
 23 22  2  0
M  END
$$$$
