CRC.pdb
     RDKit          3D

 24 23  0  0  1  0  0  0  0  0999 V2000
   28.2031  -21.1511  -15.9103 N   0  0  0  0  0  0  0  0  0  0  0  0
   27.2591  -21.7937  -16.8028 C   0  0  1  0  0  0  0  0  0  0  0  0
   27.5746  -23.2707  -16.8268 C   0  0  0  0  0  0  0  0  0  0  0  0
   26.8903  -24.1275  -18.2437 S   0  0  0  0  0  0  0  0  0  0  0  0
   25.8777  -21.5438  -16.2849 C   0  0  0  0  0  0  0  0  0  0  0  0
   24.8835  -21.9998  -16.8986 O   0  0  0  0  0  0  0  0  0  0  0  0
   24.0028  -20.8726   -7.9507 N   0  0  0  0  0  0  0  0  0  0  0  0
   25.1136  -20.6833   -8.7910 C   0  0  0  0  0  0  0  0  0  0  0  0
   26.2444  -20.2816   -8.2747 N   0  0  0  0  0  0  0  0  0  0  0  0
   25.0874  -20.9002  -10.1875 N   0  0  0  0  0  0  0  0  0  0  0  0
   24.0342  -21.5214  -10.9075 C   0  0  0  0  0  0  0  0  0  0  0  0
   24.2794  -21.6821  -12.3806 C   0  0  0  0  0  0  0  0  0  0  0  0
   24.3824  -20.3699  -13.0699 C   0  0  0  0  0  0  0  0  0  0  0  0
   24.3462  -20.4668  -14.5797 C   0  0  2  0  0  0  0  0  0  0  0  0
   25.6728  -20.7904  -15.0965 N   0  0  0  0  0  0  0  0  0  0  0  0
   23.7765  -19.2863  -15.2597 C   0  0  0  0  0  0  0  0  0  0  0  0
   24.3570  -18.1850  -15.1470 O   0  0  0  0  0  0  0  0  0  0  0  0
   27.0889  -20.0697   -8.8206 N   0  0  0  0  0  0  0  0  0  0  0  0
   22.6000  -19.3345  -16.0392 C   0  0  1  0  0  0  0  0  0  0  0  0
   21.9173  -18.2645  -16.6684 C   0  0  0  0  0  0  0  0  0  0  0  0
   22.1981  -18.1137  -18.1482 S   0  0  0  0  0  0  0  0  0  0  0  0
   22.1701  -19.7945  -18.8692 C   0  0  0  0  0  0  0  0  0  0  0  0
   20.4761  -18.1105  -16.3533 O   0  0  0  0  0  0  0  0  0  0  0  0
   19.8661  -19.0175  -15.7251 O   0  0  0  0  0  0  0  0  0  0  0  0
  2  1  1  1
  3  4  1  0
  3  2  1  0
  5  6  2  0
  5  2  1  0
  7  8  1  0
  8 10  1  0
  9  8  2  0
 10 11  1  0
 11 12  1  0
 12 13  1  0
 14 13  1  1
 14 15  1  0
 15  5  1  0
 16 14  1  0
 17 16  2  0
 18 16  1  0
 19 22  1  0
 19 18  1  0
 19 20  1  6
 21 20  1  0
 22 24  1  0
 23 22  2  0
M  END
$$$$
