CRC.pdb
     RDKit          3D

 24 23  0  0  1  0  0  0  0  0999 V2000
   24.2863  -19.5364   -8.7054 N   0  0  0  0  0  0  0  0  0  0  0  0
   25.4613  -20.0627   -9.3710 C   0  0  1  0  0  0  0  0  0  0  0  0
   25.7336  -21.4395   -8.8124 C   0  0  0  0  0  0  0  0  0  0  0  0
   26.6891  -21.4227   -7.2970 S   0  0  0  0  0  0  0  0  0  0  0  0
   25.1832  -20.1201  -10.8400 C   0  0  0  0  0  0  0  0  0  0  0  0
   24.0019  -20.1983  -11.2543 O   0  0  0  0  0  0  0  0  0  0  0  0
   29.0366  -22.8187  -17.2255 N   0  0  0  0  0  0  0  0  0  0  0  0
   28.7241  -21.6853  -17.9958 C   0  0  0  0  0  0  0  0  0  0  0  0
   28.5128  -21.8223  -19.2777 N   0  0  0  0  0  0  0  0  0  0  0  0
   28.6241  -20.3789  -17.4654 N   0  0  0  0  0  0  0  0  0  0  0  0
   28.5988  -20.0470  -16.0861 C   0  0  0  0  0  0  0  0  0  0  0  0
   27.2742  -20.2497  -15.4076 C   0  0  0  0  0  0  0  0  0  0  0  0
   27.3434  -19.9382  -13.9564 C   0  0  0  0  0  0  0  0  0  0  0  0
   26.0319  -20.1293  -13.2260 C   0  0  2  0  0  0  0  0  0  0  0  0
   26.2473  -20.0869  -11.7826 N   0  0  0  0  0  0  0  0  0  0  0  0
   25.2754  -21.3339  -13.6224 C   0  0  0  0  0  0  0  0  0  0  0  0
   25.7143  -22.4580  -13.2962 O   0  0  0  0  0  0  0  0  0  0  0  0
   28.3065  -21.0456  -19.9182 N   0  0  0  0  0  0  0  0  0  0  0  0
   24.0702  -21.2847  -14.3568 C   0  0  1  0  0  0  0  0  0  0  0  0
   23.2499  -22.3616  -14.7743 C   0  0  0  0  0  0  0  0  0  0  0  0
   21.9494  -22.5024  -14.0128 S   0  0  0  0  0  0  0  0  0  0  0  0
   21.6702  -24.2927  -13.7627 C   0  0  0  0  0  0  0  0  0  0  0  0
   23.0652  -22.5370  -16.2356 O   0  0  0  0  0  0  0  0  0  0  0  0
   23.4791  -21.6546  -17.0353 O   0  0  0  0  0  0  0  0  0  0  0  0
  2  1  1  1
  3  4  1  0
  3  2  1  0
  5  6  2  0
  5  2  1  0
  7  8  1  0
  8 10  1  0
  9  8  2  0
 10 11  1  0
 11 12  1  0
 12 13  1  0
 14 13  1  6
 14 15  1  0
 15  5  1  0
 16 14  1  0
 17 16  2  0
 18 16  1  0
 19 22  1  0
 19 18  1  0
 19 20  1  6
 21 20  1  0
 22 24  1  0
 23 22  2  0
M  END
$$$$
