CFM.pdb
     RDKit          3D

 26 26  0  0  1  0  0  0  0  0999 V2000
   11.5274  -16.6858   18.7159 N   0  0  0  0  0  0  0  0  0  0  0  0
   10.2791  -17.0154   19.3650 C   0  0  1  0  0  0  0  0  0  0  0  0
   10.1324  -18.5142   19.5658 C   0  0  0  0  0  0  0  0  0  0  0  0
   11.4536  -19.1169   20.6482 S   0  0  0  0  0  0  0  0  0  0  0  0
   10.1323  -16.2858   20.6547 C   0  0  0  0  0  0  0  0  0  0  0  0
   11.0894  -15.6308   21.1382 O   0  0  0  0  0  0  0  0  0  0  0  0
    8.9163  -16.2984   21.3872 N   0  0  0  0  0  0  0  0  0  0  0  0
    8.7308  -15.5289   22.5778 C   0  0  1  0  0  0  0  0  0  0  0  0
    7.3121  -15.0318   22.7403 C   0  0  0  0  0  0  0  0  0  0  0  0
    7.1232  -14.1784   23.9163 C   0  0  0  0  0  0  0  0  0  0  0  0
    6.5867  -14.7124   25.0935 C   0  0  0  0  0  0  0  0  0  0  0  0
    6.4122  -13.9019   26.1961 C   0  0  0  0  0  0  0  0  0  0  0  0
    6.7461  -12.5635   26.1991 C   0  0  0  0  0  0  0  0  0  0  0  0
    7.2748  -12.0319   25.0430 C   0  0  0  0  0  0  0  0  0  0  0  0
    7.4534  -12.8404   23.9299 C   0  0  0  0  0  0  0  0  0  0  0  0
    9.2203  -16.2096   23.7956 C   0  0  0  0  0  0  0  0  0  0  0  0
    9.0143  -17.4312   23.9249 O   0  0  0  0  0  0  0  0  0  0  0  0
   10.1950  -13.2015   29.2751 C   0  0  0  0  0  0  0  0  0  0  0  0
   10.9809  -14.7498   29.8051 S   0  0  0  0  0  0  0  0  0  0  0  0
   11.0666  -15.8436   28.3447 C   0  0  0  0  0  0  0  0  0  0  0  0
   10.3938  -15.2092   27.1581 C   0  0  0  0  0  0  0  0  0  0  0  0
   10.4826  -16.0844   25.9737 C   0  0  2  0  0  0  0  0  0  0  0  0
    9.8994  -15.4979   24.7803 N   0  0  0  0  0  0  0  0  0  0  0  0
    9.9913  -17.4505   26.2012 C   0  0  0  0  0  0  0  0  0  0  0  0
    8.6135  -17.5660   26.5167 O   0  0  0  0  0  0  0  0  0  0  0  0
   10.6398  -18.5018   26.1487 O   0  0  0  0  0  0  0  0  0  0  0  0
  2  1  1  1
  3  4  1  0
  3  2  1  0
  5  2  1  0
  5  6  2  0
  7  5  1  0
  8  7  1  0
  8  9  1  1
 10  9  1  0
 10 11  2  0
 12 11  1  0
 13 12  2  0
 14 15  2  0
 14 13  1  0
 15 10  1  0
 16  8  1  0
 17 16  2  0
 18 19  1  0
 19 20  1  0
 20 21  1  0
 22 21  1  1
 22 24  1  0
 22 23  1  0
 23 16  1  0
 24 25  1  0
 26 24  2  0
M  END
$$$$
