CFM.pdb
     RDKit          3D

 26 26  0  0  1  0  0  0  0  0999 V2000
   11.0488  -16.8084   19.7768 N   0  0  0  0  0  0  0  0  0  0  0  0
    9.7768  -16.9925   20.4375 C   0  0  1  0  0  0  0  0  0  0  0  0
    9.4730  -18.4637   20.6647 C   0  0  0  0  0  0  0  0  0  0  0  0
   10.6284  -19.1443   21.8822 S   0  0  0  0  0  0  0  0  0  0  0  0
    9.7171  -16.2303   21.7152 C   0  0  0  0  0  0  0  0  0  0  0  0
   10.7659  -15.9404   22.3435 O   0  0  0  0  0  0  0  0  0  0  0  0
    8.4843  -15.8021   22.2739 N   0  0  0  0  0  0  0  0  0  0  0  0
    8.4054  -15.1358   23.5365 C   0  0  1  0  0  0  0  0  0  0  0  0
    7.1227  -14.3539   23.7084 C   0  0  0  0  0  0  0  0  0  0  0  0
    7.0440  -13.6331   24.9816 C   0  0  0  0  0  0  0  0  0  0  0  0
    7.6740  -12.3919   25.1269 C   0  0  0  0  0  0  0  0  0  0  0  0
    7.5950  -11.7200   26.3291 C   0  0  0  0  0  0  0  0  0  0  0  0
    6.9126  -12.2184   27.4194 C   0  0  0  0  0  0  0  0  0  0  0  0
    6.2901  -13.4401   27.2826 C   0  0  0  0  0  0  0  0  0  0  0  0
    6.3650  -14.1220   26.0768 C   0  0  0  0  0  0  0  0  0  0  0  0
    8.6659  -16.0288   24.6856 C   0  0  0  0  0  0  0  0  0  0  0  0
    8.0756  -17.1242   24.7412 O   0  0  0  0  0  0  0  0  0  0  0  0
   14.3403  -15.5081   24.9245 C   0  0  0  0  0  0  0  0  0  0  0  0
   14.0004  -15.1101   26.6628 S   0  0  0  0  0  0  0  0  0  0  0  0
   12.1895  -15.1784   26.8920 C   0  0  0  0  0  0  0  0  0  0  0  0
   11.6574  -16.5463   26.5618 C   0  0  0  0  0  0  0  0  0  0  0  0
   10.1835  -16.5661   26.6251 C   0  0  2  0  0  0  0  0  0  0  0  0
    9.5553  -15.6522   25.6879 N   0  0  0  0  0  0  0  0  0  0  0  0
    9.6409  -16.4082   27.9816 C   0  0  0  0  0  0  0  0  0  0  0  0
    9.9922  -17.4226   28.9084 O   0  0  0  0  0  0  0  0  0  0  0  0
    8.9182  -15.4972   28.4015 O   0  0  0  0  0  0  0  0  0  0  0  0
  2  1  1  1
  3  4  1  0
  3  2  1  0
  5  2  1  0
  5  6  2  0
  7  5  1  0
  8  7  1  0
  8  9  1  1
 10  9  1  0
 10 11  2  0
 12 11  1  0
 13 12  2  0
 14 15  2  0
 14 13  1  0
 15 10  1  0
 16  8  1  0
 17 16  2  0
 18 19  1  0
 19 20  1  0
 20 21  1  0
 22 21  1  1
 22 24  1  0
 22 23  1  0
 23 16  1  0
 24 25  1  0
 26 24  2  0
M  END
$$$$
