CFM.pdb
     RDKit          3D

 26 26  0  0  1  0  0  0  0  0999 V2000
    8.6812  -17.0629   18.7163 N   0  0  0  0  0  0  0  0  0  0  0  0
    8.0985  -17.0242   20.0381 C   0  0  1  0  0  0  0  0  0  0  0  0
    8.1017  -18.3962   20.6906 C   0  0  0  0  0  0  0  0  0  0  0  0
    9.7833  -18.8188   21.2143 S   0  0  0  0  0  0  0  0  0  0  0  0
    8.7817  -16.0203   20.8998 C   0  0  0  0  0  0  0  0  0  0  0  0
    9.1881  -14.9308   20.4237 O   0  0  0  0  0  0  0  0  0  0  0  0
    9.0016  -16.2482   22.2837 N   0  0  0  0  0  0  0  0  0  0  0  0
    8.7523  -15.2479   23.2743 C   0  0  1  0  0  0  0  0  0  0  0  0
    7.3211  -14.7600   23.2685 C   0  0  0  0  0  0  0  0  0  0  0  0
    7.0519  -13.7272   24.2723 C   0  0  0  0  0  0  0  0  0  0  0  0
    7.5711  -12.4376   24.1108 C   0  0  0  0  0  0  0  0  0  0  0  0
    7.3128  -11.4711   25.0606 C   0  0  0  0  0  0  0  0  0  0  0  0
    6.5529  -11.7146   26.1859 C   0  0  0  0  0  0  0  0  0  0  0  0
    6.0390  -12.9824   26.3506 C   0  0  0  0  0  0  0  0  0  0  0  0
    6.2943  -13.9598   25.3998 C   0  0  0  0  0  0  0  0  0  0  0  0
    9.1955  -15.6431   24.6282 C   0  0  0  0  0  0  0  0  0  0  0  0
    8.4785  -15.3516   25.6041 O   0  0  0  0  0  0  0  0  0  0  0  0
   10.0364  -13.4780   28.9988 C   0  0  0  0  0  0  0  0  0  0  0  0
   10.4468  -15.0468   29.8150 S   0  0  0  0  0  0  0  0  0  0  0  0
   11.0264  -16.1977   28.5204 C   0  0  0  0  0  0  0  0  0  0  0  0
   10.2989  -15.9599   27.2253 C   0  0  0  0  0  0  0  0  0  0  0  0
   11.0546  -16.5186   26.0879 C   0  0  2  0  0  0  0  0  0  0  0  0
   10.3931  -16.3289   24.8093 N   0  0  0  0  0  0  0  0  0  0  0  0
   11.4768  -17.9133   26.2775 C   0  0  0  0  0  0  0  0  0  0  0  0
   10.7519  -18.8830   25.5392 O   0  0  0  0  0  0  0  0  0  0  0  0
   12.3860  -18.3320   27.0031 O   0  0  0  0  0  0  0  0  0  0  0  0
  2  1  1  6
  3  4  1  0
  3  2  1  0
  5  2  1  0
  5  6  2  0
  7  5  1  0
  8  7  1  0
  8  9  1  1
 10  9  1  0
 10 11  2  0
 12 11  1  0
 13 12  2  0
 14 15  2  0
 14 13  1  0
 15 10  1  0
 16  8  1  0
 17 16  2  0
 18 19  1  0
 19 20  1  0
 20 21  1  0
 22 21  1  1
 22 24  1  0
 22 23  1  0
 23 16  1  0
 24 25  1  0
 26 24  2  0
M  END
$$$$
