CFM.pdb
     RDKit          3D

 26 26  0  0  1  0  0  0  0  0999 V2000
   11.8094  -16.7143   19.1668 N   0  0  0  0  0  0  0  0  0  0  0  0
   10.5927  -17.1386   19.8209 C   0  0  1  0  0  0  0  0  0  0  0  0
   10.6675  -18.5940   20.2506 C   0  0  0  0  0  0  0  0  0  0  0  0
   12.1519  -18.8583   21.2542 S   0  0  0  0  0  0  0  0  0  0  0  0
   10.2643  -16.2564   20.9745 C   0  0  0  0  0  0  0  0  0  0  0  0
   11.1530  -15.5644   21.5314 O   0  0  0  0  0  0  0  0  0  0  0  0
    8.9453  -16.1595   21.4906 N   0  0  0  0  0  0  0  0  0  0  0  0
    8.6335  -15.3965   22.6588 C   0  0  1  0  0  0  0  0  0  0  0  0
    7.2072  -14.8947   22.6687 C   0  0  0  0  0  0  0  0  0  0  0  0
    6.8931  -14.0499   23.8239 C   0  0  0  0  0  0  0  0  0  0  0  0
    6.1176  -14.5547   24.8738 C   0  0  0  0  0  0  0  0  0  0  0  0
    5.8265  -13.7527   25.9578 C   0  0  0  0  0  0  0  0  0  0  0  0
    6.2697  -12.4506   26.0633 C   0  0  0  0  0  0  0  0  0  0  0  0
    7.0337  -11.9478   25.0328 C   0  0  0  0  0  0  0  0  0  0  0  0
    7.3307  -12.7481   23.9392 C   0  0  0  0  0  0  0  0  0  0  0  0
    8.9848  -16.0866   23.9182 C   0  0  0  0  0  0  0  0  0  0  0  0
    8.7691  -17.3096   24.0136 O   0  0  0  0  0  0  0  0  0  0  0  0
   12.3594  -14.1002   30.2446 C   0  0  0  0  0  0  0  0  0  0  0  0
   10.5874  -14.3765   29.9631 S   0  0  0  0  0  0  0  0  0  0  0  0
   10.4356  -15.6165   28.6304 C   0  0  0  0  0  0  0  0  0  0  0  0
    9.9438  -14.9809   27.3587 C   0  0  0  0  0  0  0  0  0  0  0  0
    9.9144  -15.9628   26.2579 C   0  0  2  0  0  0  0  0  0  0  0  0
    9.5468  -15.3819   24.9789 N   0  0  0  0  0  0  0  0  0  0  0  0
    9.1262  -17.1677   26.5519 C   0  0  0  0  0  0  0  0  0  0  0  0
    9.8528  -18.2678   27.0743 O   0  0  0  0  0  0  0  0  0  0  0  0
    7.9103  -17.3279   26.3958 O   0  0  0  0  0  0  0  0  0  0  0  0
  2  1  1  1
  3  4  1  0
  3  2  1  0
  5  2  1  0
  5  6  2  0
  7  5  1  0
  8  7  1  0
  8  9  1  1
 10  9  1  0
 10 11  2  0
 12 11  1  0
 13 12  2  0
 14 15  2  0
 14 13  1  0
 15 10  1  0
 16  8  1  0
 17 16  2  0
 18 19  1  0
 19 20  1  0
 20 21  1  0
 22 21  1  1
 22 24  1  0
 22 23  1  0
 23 16  1  0
 24 25  1  0
 26 24  2  0
M  END
$$$$
