CFM.pdb
     RDKit          3D

 26 26  0  0  1  0  0  0  0  0999 V2000
   11.4103  -16.9332   18.8528 N   0  0  0  0  0  0  0  0  0  0  0  0
   10.1643  -17.2528   19.5112 C   0  0  1  0  0  0  0  0  0  0  0  0
   10.0288  -18.7461   19.7563 C   0  0  0  0  0  0  0  0  0  0  0  0
   11.2575  -19.2781   20.9760 S   0  0  0  0  0  0  0  0  0  0  0  0
   10.0116  -16.4865   20.7787 C   0  0  0  0  0  0  0  0  0  0  0  0
   11.0033  -15.9470   21.3303 O   0  0  0  0  0  0  0  0  0  0  0  0
    8.7509  -16.3336   21.4132 N   0  0  0  0  0  0  0  0  0  0  0  0
    8.5775  -15.5456   22.5935 C   0  0  1  0  0  0  0  0  0  0  0  0
    7.1900  -14.9553   22.7066 C   0  0  0  0  0  0  0  0  0  0  0  0
    6.9674  -14.2212   23.9549 C   0  0  0  0  0  0  0  0  0  0  0  0
    7.5208  -12.9476   24.1297 C   0  0  0  0  0  0  0  0  0  0  0  0
    7.3063  -12.2632   25.3081 C   0  0  0  0  0  0  0  0  0  0  0  0
    6.5586  -12.7799   26.3459 C   0  0  0  0  0  0  0  0  0  0  0  0
    6.0111  -14.0334   26.1799 C   0  0  0  0  0  0  0  0  0  0  0  0
    6.2223  -14.7280   24.9977 C   0  0  0  0  0  0  0  0  0  0  0  0
    8.9810  -16.2486   23.8299 C   0  0  0  0  0  0  0  0  0  0  0  0
    8.7171  -17.4604   23.9454 O   0  0  0  0  0  0  0  0  0  0  0  0
   10.2859  -13.1692   29.3164 C   0  0  0  0  0  0  0  0  0  0  0  0
   11.2455  -14.6613   29.7018 S   0  0  0  0  0  0  0  0  0  0  0  0
   10.9160  -15.8764   28.3782 C   0  0  0  0  0  0  0  0  0  0  0  0
   10.3263  -15.2055   27.1677 C   0  0  0  0  0  0  0  0  0  0  0  0
   10.1236  -16.1764   26.0755 C   0  0  2  0  0  0  0  0  0  0  0  0
    9.6441  -15.5683   24.8472 N   0  0  0  0  0  0  0  0  0  0  0  0
    9.3137  -17.3426   26.4544 C   0  0  0  0  0  0  0  0  0  0  0  0
   10.0390  -18.4916   26.8603 O   0  0  0  0  0  0  0  0  0  0  0  0
    8.0807  -17.4329   26.4587 O   0  0  0  0  0  0  0  0  0  0  0  0
  2  1  1  1
  3  4  1  0
  3  2  1  0
  5  2  1  0
  5  6  2  0
  7  5  1  0
  8  7  1  0
  8  9  1  1
 10  9  1  0
 10 11  2  0
 12 11  1  0
 13 12  2  0
 14 15  2  0
 14 13  1  0
 15 10  1  0
 16  8  1  0
 17 16  2  0
 18 19  1  0
 19 20  1  0
 20 21  1  0
 22 21  1  1
 22 24  1  0
 22 23  1  0
 23 16  1  0
 24 25  1  0
 26 24  2  0
M  END
$$$$
