CFM.pdb
     RDKit          3D

 26 26  0  0  1  0  0  0  0  0999 V2000
   11.0762  -16.9111   18.7007 N   0  0  0  0  0  0  0  0  0  0  0  0
    9.9006  -17.2470   19.4709 C   0  0  1  0  0  0  0  0  0  0  0  0
    9.8551  -18.7286   19.8039 C   0  0  0  0  0  0  0  0  0  0  0  0
   11.2004  -19.1391   20.9451 S   0  0  0  0  0  0  0  0  0  0  0  0
    9.8088  -16.4183   20.7047 C   0  0  0  0  0  0  0  0  0  0  0  0
   10.8172  -15.8207   21.1573 O   0  0  0  0  0  0  0  0  0  0  0  0
    8.5896  -16.2687   21.4165 N   0  0  0  0  0  0  0  0  0  0  0  0
    8.4956  -15.5095   22.6243 C   0  0  1  0  0  0  0  0  0  0  0  0
    7.1211  -14.9174   22.8399 C   0  0  0  0  0  0  0  0  0  0  0  0
    6.9976  -14.1687   24.0932 C   0  0  0  0  0  0  0  0  0  0  0  0
    6.2998  -14.7185   25.1747 C   0  0  0  0  0  0  0  0  0  0  0  0
    6.1883  -14.0068   26.3512 C   0  0  0  0  0  0  0  0  0  0  0  0
    6.7405  -12.7542   26.5211 C   0  0  0  0  0  0  0  0  0  0  0  0
    7.4287  -12.2075   25.4600 C   0  0  0  0  0  0  0  0  0  0  0  0
    7.5453  -12.9169   24.2735 C   0  0  0  0  0  0  0  0  0  0  0  0
    8.9731  -16.2445   23.8150 C   0  0  0  0  0  0  0  0  0  0  0  0
    8.4962  -17.3691   24.0581 O   0  0  0  0  0  0  0  0  0  0  0  0
   10.8323  -13.1819   29.9189 C   0  0  0  0  0  0  0  0  0  0  0  0
   10.2224  -14.7716   29.2891 S   0  0  0  0  0  0  0  0  0  0  0  0
   10.0646  -14.6134   27.4762 C   0  0  0  0  0  0  0  0  0  0  0  0
   11.1229  -15.4183   26.7725 C   0  0  0  0  0  0  0  0  0  0  0  0
   10.5161  -16.3526   25.8052 C   0  0  2  0  0  0  0  0  0  0  0  0
    9.9388  -15.6894   24.6497 N   0  0  0  0  0  0  0  0  0  0  0  0
    9.5761  -17.3090   26.4063 C   0  0  0  0  0  0  0  0  0  0  0  0
   10.1625  -18.3785   27.1296 O   0  0  0  0  0  0  0  0  0  0  0  0
    8.3412  -17.2853   26.3520 O   0  0  0  0  0  0  0  0  0  0  0  0
  2  1  1  1
  3  4  1  0
  3  2  1  0
  5  2  1  0
  5  6  2  0
  7  5  1  0
  8  7  1  0
  8  9  1  1
 10  9  1  0
 10 11  2  0
 12 11  1  0
 13 12  2  0
 14 15  2  0
 14 13  1  0
 15 10  1  0
 16  8  1  0
 17 16  2  0
 18 19  1  0
 19 20  1  0
 20 21  1  0
 22 21  1  1
 22 24  1  0
 22 23  1  0
 23 16  1  0
 24 25  1  0
 26 24  2  0
M  END
$$$$
