CFM.pdb
     RDKit          3D

 26 26  0  0  1  0  0  0  0  0999 V2000
   11.1809  -16.2259   18.7222 N   0  0  0  0  0  0  0  0  0  0  0  0
   10.4031  -17.0530   19.6161 C   0  0  1  0  0  0  0  0  0  0  0  0
   11.0307  -18.4248   19.7963 C   0  0  0  0  0  0  0  0  0  0  0  0
    9.9798  -19.4407   20.8659 S   0  0  0  0  0  0  0  0  0  0  0  0
   10.1968  -16.3823   20.9294 C   0  0  0  0  0  0  0  0  0  0  0  0
   11.1584  -15.8556   21.5433 O   0  0  0  0  0  0  0  0  0  0  0  0
    8.9170  -16.3094   21.5395 N   0  0  0  0  0  0  0  0  0  0  0  0
    8.7026  -15.6617   22.7959 C   0  0  1  0  0  0  0  0  0  0  0  0
    7.2788  -15.1854   22.9753 C   0  0  0  0  0  0  0  0  0  0  0  0
    7.0491  -14.4969   24.2481 C   0  0  0  0  0  0  0  0  0  0  0  0
    7.4070  -13.1518   24.3944 C   0  0  0  0  0  0  0  0  0  0  0  0
    7.1872  -12.5112   25.5962 C   0  0  0  0  0  0  0  0  0  0  0  0
    6.6208  -13.1408   26.6851 C   0  0  0  0  0  0  0  0  0  0  0  0
    6.2664  -14.4651   26.5473 C   0  0  0  0  0  0  0  0  0  0  0  0
    6.4841  -15.1164   25.3419 C   0  0  0  0  0  0  0  0  0  0  0  0
    9.1680  -16.4586   23.9509 C   0  0  0  0  0  0  0  0  0  0  0  0
    8.8944  -17.6730   23.9924 O   0  0  0  0  0  0  0  0  0  0  0  0
   10.8145  -12.4007   28.3350 C   0  0  0  0  0  0  0  0  0  0  0  0
   10.8136  -13.9808   29.2289 S   0  0  0  0  0  0  0  0  0  0  0  0
   10.1029  -15.2377   28.1102 C   0  0  0  0  0  0  0  0  0  0  0  0
   11.1145  -15.6816   27.0891 C   0  0  0  0  0  0  0  0  0  0  0  0
   10.4959  -16.5741   26.0902 C   0  0  2  0  0  0  0  0  0  0  0  0
    9.8992  -15.8622   24.9742 N   0  0  0  0  0  0  0  0  0  0  0  0
    9.5682  -17.5599   26.6620 C   0  0  0  0  0  0  0  0  0  0  0  0
   10.1667  -18.7129   27.2307 O   0  0  0  0  0  0  0  0  0  0  0  0
    8.3341  -17.4965   26.7022 O   0  0  0  0  0  0  0  0  0  0  0  0
  2  1  1  6
  3  4  1  0
  3  2  1  0
  5  2  1  0
  5  6  2  0
  7  5  1  0
  8  7  1  0
  8  9  1  1
 10  9  1  0
 10 11  2  0
 12 11  1  0
 13 12  2  0
 14 15  2  0
 14 13  1  0
 15 10  1  0
 16  8  1  0
 17 16  2  0
 18 19  1  0
 19 20  1  0
 20 21  1  0
 22 21  1  1
 22 24  1  0
 22 23  1  0
 23 16  1  0
 24 25  1  0
 26 24  2  0
M  END
$$$$
