CFM.pdb
     RDKit          3D

 26 26  0  0  1  0  0  0  0  0999 V2000
   11.3181  -17.0487   18.5816 N   0  0  0  0  0  0  0  0  0  0  0  0
   10.1162  -17.3521   19.3243 C   0  0  1  0  0  0  0  0  0  0  0  0
   10.0308  -18.8291   19.6700 C   0  0  0  0  0  0  0  0  0  0  0  0
   11.3639  -19.2657   20.8157 S   0  0  0  0  0  0  0  0  0  0  0  0
   10.0104  -16.5095   20.5474 C   0  0  0  0  0  0  0  0  0  0  0  0
   10.9750  -15.7996   20.9275 O   0  0  0  0  0  0  0  0  0  0  0  0
    8.8265  -16.4718   21.3299 N   0  0  0  0  0  0  0  0  0  0  0  0
    8.6951  -15.6345   22.4813 C   0  0  1  0  0  0  0  0  0  0  0  0
    7.2950  -15.0904   22.6547 C   0  0  0  0  0  0  0  0  0  0  0  0
    7.1567  -14.1883   23.8010 C   0  0  0  0  0  0  0  0  0  0  0  0
    6.5359  -14.6324   24.9741 C   0  0  0  0  0  0  0  0  0  0  0  0
    6.4097  -13.7766   26.0486 C   0  0  0  0  0  0  0  0  0  0  0  0
    6.8736  -12.4776   26.0269 C   0  0  0  0  0  0  0  0  0  0  0  0
    7.4857  -12.0345   24.8747 C   0  0  0  0  0  0  0  0  0  0  0  0
    7.6164  -12.8891   23.7897 C   0  0  0  0  0  0  0  0  0  0  0  0
    9.2012  -16.2618   23.7207 C   0  0  0  0  0  0  0  0  0  0  0  0
    8.8939  -17.4439   23.9645 O   0  0  0  0  0  0  0  0  0  0  0  0
    9.3390  -13.4731   29.3790 C   0  0  0  0  0  0  0  0  0  0  0  0
   10.8570  -14.4429   29.6048 S   0  0  0  0  0  0  0  0  0  0  0  0
   10.9268  -15.6666   28.2505 C   0  0  0  0  0  0  0  0  0  0  0  0
   10.4277  -15.0712   26.9623 C   0  0  0  0  0  0  0  0  0  0  0  0
   10.5130  -16.0512   25.8627 C   0  0  2  0  0  0  0  0  0  0  0  0
   10.0071  -15.5440   24.5997 N   0  0  0  0  0  0  0  0  0  0  0  0
    9.9405  -17.3652   26.1868 C   0  0  0  0  0  0  0  0  0  0  0  0
   10.8684  -18.4319   26.2979 O   0  0  0  0  0  0  0  0  0  0  0  0
    8.7499  -17.6422   26.3718 O   0  0  0  0  0  0  0  0  0  0  0  0
  2  1  1  1
  3  4  1  0
  3  2  1  0
  5  2  1  0
  5  6  2  0
  7  5  1  0
  8  7  1  0
  8  9  1  1
 10  9  1  0
 10 11  2  0
 12 11  1  0
 13 12  2  0
 14 15  2  0
 14 13  1  0
 15 10  1  0
 16  8  1  0
 17 16  2  0
 18 19  1  0
 19 20  1  0
 20 21  1  0
 22 21  1  1
 22 24  1  0
 22 23  1  0
 23 16  1  0
 24 25  1  0
 26 24  2  0
M  END
$$$$
