CFM.pdb
     RDKit          3D

 26 26  0  0  1  0  0  0  0  0999 V2000
   10.7611  -16.9639   18.5936 N   0  0  0  0  0  0  0  0  0  0  0  0
    9.9783  -17.5428   19.6614 C   0  0  1  0  0  0  0  0  0  0  0  0
   10.5287  -18.8927   20.0894 C   0  0  0  0  0  0  0  0  0  0  0  0
   10.3374  -20.0853   18.7398 S   0  0  0  0  0  0  0  0  0  0  0  0
    9.8772  -16.6142   20.8210 C   0  0  0  0  0  0  0  0  0  0  0  0
   10.8918  -16.0170   21.2600 O   0  0  0  0  0  0  0  0  0  0  0  0
    8.6419  -16.3655   21.4749 N   0  0  0  0  0  0  0  0  0  0  0  0
    8.5474  -15.5660   22.6564 C   0  0  1  0  0  0  0  0  0  0  0  0
    7.1772  -14.9547   22.8435 C   0  0  0  0  0  0  0  0  0  0  0  0
    7.0425  -14.1924   24.0875 C   0  0  0  0  0  0  0  0  0  0  0  0
    7.6795  -12.9539   24.2256 C   0  0  0  0  0  0  0  0  0  0  0  0
    7.5474  -12.2428   25.4003 C   0  0  0  0  0  0  0  0  0  0  0  0
    6.8041  -12.6985   26.4693 C   0  0  0  0  0  0  0  0  0  0  0  0
    6.1746  -13.9173   26.3394 C   0  0  0  0  0  0  0  0  0  0  0  0
    6.3025  -14.6385   25.1613 C   0  0  0  0  0  0  0  0  0  0  0  0
    9.0109  -16.2655   23.8737 C   0  0  0  0  0  0  0  0  0  0  0  0
    8.3928  -17.2763   24.2579 O   0  0  0  0  0  0  0  0  0  0  0  0
    9.7389  -12.8515   29.2310 C   0  0  0  0  0  0  0  0  0  0  0  0
   10.9946  -14.1600   29.3128 S   0  0  0  0  0  0  0  0  0  0  0  0
   10.3760  -15.5692   28.3290 C   0  0  0  0  0  0  0  0  0  0  0  0
   10.0306  -15.1373   26.9300 C   0  0  0  0  0  0  0  0  0  0  0  0
   10.4384  -16.1606   25.9484 C   0  0  2  0  0  0  0  0  0  0  0  0
   10.1186  -15.8026   24.5781 N   0  0  0  0  0  0  0  0  0  0  0  0
    9.9804  -17.5183   26.2744 C   0  0  0  0  0  0  0  0  0  0  0  0
   11.0013  -18.4802   26.4830 O   0  0  0  0  0  0  0  0  0  0  0  0
    8.8138  -17.9122   26.3861 O   0  0  0  0  0  0  0  0  0  0  0  0
  2  1  1  6
  3  4  1  0
  3  2  1  0
  5  2  1  0
  5  6  2  0
  7  5  1  0
  8  7  1  0
  8  9  1  1
 10  9  1  0
 10 11  2  0
 12 11  1  0
 13 12  2  0
 14 15  2  0
 14 13  1  0
 15 10  1  0
 16  8  1  0
 17 16  2  0
 18 19  1  0
 19 20  1  0
 20 21  1  0
 22 21  1  1
 22 24  1  0
 22 23  1  0
 23 16  1  0
 24 25  1  0
 26 24  2  0
M  END
$$$$
