CFM.pdb
     RDKit          3D

 26 26  0  0  1  0  0  0  0  0999 V2000
   10.9656  -16.7468   18.6986 N   0  0  0  0  0  0  0  0  0  0  0  0
   10.1130  -17.3602   19.6910 C   0  0  1  0  0  0  0  0  0  0  0  0
   10.5837  -18.7611   20.0434 C   0  0  0  0  0  0  0  0  0  0  0  0
   10.2355  -19.8859   18.6671 S   0  0  0  0  0  0  0  0  0  0  0  0
   10.0043  -16.5103   20.9088 C   0  0  0  0  0  0  0  0  0  0  0  0
   11.0132  -15.9308   21.3836 O   0  0  0  0  0  0  0  0  0  0  0  0
    8.7681  -16.3193   21.5801 N   0  0  0  0  0  0  0  0  0  0  0  0
    8.6739  -15.6383   22.8336 C   0  0  1  0  0  0  0  0  0  0  0  0
    7.2540  -15.2615   23.1917 C   0  0  0  0  0  0  0  0  0  0  0  0
    7.1667  -14.2462   24.2445 C   0  0  0  0  0  0  0  0  0  0  0  0
    6.3157  -14.4394   25.3386 C   0  0  0  0  0  0  0  0  0  0  0  0
    6.2396  -13.4784   26.3254 C   0  0  0  0  0  0  0  0  0  0  0  0
    6.9745  -12.3115   26.2893 C   0  0  0  0  0  0  0  0  0  0  0  0
    7.8142  -12.1155   25.2146 C   0  0  0  0  0  0  0  0  0  0  0  0
    7.8963  -13.0772   24.2182 C   0  0  0  0  0  0  0  0  0  0  0  0
    9.3513  -16.3507   23.9379 C   0  0  0  0  0  0  0  0  0  0  0  0
    9.4037  -17.5947   23.9075 O   0  0  0  0  0  0  0  0  0  0  0  0
    9.6233  -13.0373   28.6085 C   0  0  0  0  0  0  0  0  0  0  0  0
   10.4968  -14.3074   29.5675 S   0  0  0  0  0  0  0  0  0  0  0  0
   10.7848  -15.7267   28.4543 C   0  0  0  0  0  0  0  0  0  0  0  0
   11.1507  -15.2596   27.0719 C   0  0  0  0  0  0  0  0  0  0  0  0
   10.7145  -16.2355   26.0549 C   0  0  2  0  0  0  0  0  0  0  0  0
    9.9206  -15.6435   24.9931 N   0  0  0  0  0  0  0  0  0  0  0  0
   10.0676  -17.4315   26.6123 C   0  0  0  0  0  0  0  0  0  0  0  0
   10.9420  -18.4256   27.1204 O   0  0  0  0  0  0  0  0  0  0  0  0
    8.8559  -17.6656   26.6870 O   0  0  0  0  0  0  0  0  0  0  0  0
  2  1  1  6
  3  4  1  0
  3  2  1  0
  5  2  1  0
  5  6  2  0
  7  5  1  0
  8  7  1  0
  8  9  1  1
 10  9  1  0
 10 11  2  0
 12 11  1  0
 13 12  2  0
 14 15  2  0
 14 13  1  0
 15 10  1  0
 16  8  1  0
 17 16  2  0
 18 19  1  0
 19 20  1  0
 20 21  1  0
 22 21  1  1
 22 24  1  0
 22 23  1  0
 23 16  1  0
 24 25  1  0
 26 24  2  0
M  END
$$$$
