CQC.pdb
     RDKit          3D

 22 21  0  0  1  0  0  0  0  0999 V2000
    8.2933  -14.8148   17.3952 N   0  0  0  0  0  0  0  0  0  0  0  0
    9.1563  -14.0945   18.2800 C   0  0  1  0  0  0  0  0  0  0  0  0
    8.3308  -13.5587   19.4281 C   0  0  0  0  0  0  0  0  0  0  0  0
    7.1529  -12.3599   18.7389 S   0  0  0  0  0  0  0  0  0  0  0  0
   10.3177  -14.8767   18.7374 C   0  0  0  0  0  0  0  0  0  0  0  0
   10.1655  -16.1290   18.8343 O   0  0  0  0  0  0  0  0  0  0  0  0
   15.8203  -13.4264   16.3225 N   0  0  0  0  0  0  0  0  0  0  0  0
   15.6371  -14.1929   17.4935 C   0  0  0  0  0  0  0  0  0  0  0  0
   16.6203  -14.3285   18.2607 O   0  0  0  0  0  0  0  0  0  0  0  0
   14.3438  -14.8264   17.8316 C   0  0  0  0  0  0  0  0  0  0  0  0
   13.9693  -14.4636   19.2298 C   0  0  0  0  0  0  0  0  0  0  0  0
   12.6660  -15.0596   19.6771 C   0  0  2  0  0  0  0  0  0  0  0  0
   11.5793  -14.3302   19.0725 N   0  0  0  0  0  0  0  0  0  0  0  0
   12.5617  -15.0622   21.1802 C   0  0  0  0  0  0  0  0  0  0  0  0
   12.3613  -13.9724   21.7529 O   0  0  0  0  0  0  0  0  0  0  0  0
   12.6864  -16.2456   21.8947 N   0  0  0  0  0  0  0  0  0  0  0  0
   12.0670  -16.5147   23.1401 C   0  0  1  0  0  0  0  0  0  0  0  0
   10.6403  -16.1490   23.2525 C   0  0  0  0  0  0  0  0  0  0  0  0
   10.0882  -16.3718   24.9619 S   0  0  0  0  0  0  0  0  0  0  0  0
   12.3797  -17.8446   23.7479 C   0  0  0  0  0  0  0  0  0  0  0  0
   13.1029  -18.0799   24.8774 O   0  0  0  0  0  0  0  0  0  0  0  0
   11.9008  -18.8447   23.1202 O   0  0  0  0  0  0  0  0  0  0  0  0
  2  1  1  6
  2  5  1  0
  3  2  1  0
  4  3  1  0
  5  6  2  0
  7  8  1  0
  8  9  2  0
  8 10  1  0
 10 11  1  0
 12 11  1  1
 12 14  1  0
 13 12  1  0
 13  5  1  0
 14 15  2  0
 14 16  1  0
 16 17  1  0
 17 20  1  0
 17 18  1  6
 19 18  1  0
 20 22  2  0
 20 21  1  0
M  END
$$$$
