CQC.pdb
     RDKit          3D

 22 21  0  0  1  0  0  0  0  0999 V2000
    7.6274  -14.9020   17.9190 N   0  0  0  0  0  0  0  0  0  0  0  0
    8.6152  -14.5821   18.9030 C   0  0  1  0  0  0  0  0  0  0  0  0
    8.7982  -13.0812   18.9318 C   0  0  0  0  0  0  0  0  0  0  0  0
    7.2963  -12.3634   19.6588 S   0  0  0  0  0  0  0  0  0  0  0  0
    8.3236  -15.1403   20.2345 C   0  0  0  0  0  0  0  0  0  0  0  0
    7.1212  -15.4502   20.4774 O   0  0  0  0  0  0  0  0  0  0  0  0
   11.1123  -16.9753   26.4684 N   0  0  0  0  0  0  0  0  0  0  0  0
   11.0561  -17.3618   25.1120 C   0  0  0  0  0  0  0  0  0  0  0  0
   12.1328  -17.6790   24.5517 O   0  0  0  0  0  0  0  0  0  0  0  0
    9.7882  -17.4015   24.3511 C   0  0  0  0  0  0  0  0  0  0  0  0
   10.0144  -16.8361   22.9887 C   0  0  0  0  0  0  0  0  0  0  0  0
    8.9947  -15.8104   22.5865 C   0  0  2  0  0  0  0  0  0  0  0  0
    9.2853  -15.3519   21.2509 N   0  0  0  0  0  0  0  0  0  0  0  0
    8.9624  -14.6680   23.5686 C   0  0  0  0  0  0  0  0  0  0  0  0
    9.2739  -13.5335   23.1541 O   0  0  0  0  0  0  0  0  0  0  0  0
    8.5961  -14.8830   24.8900 N   0  0  0  0  0  0  0  0  0  0  0  0
    8.0125  -13.9131   25.7419 C   0  0  1  0  0  0  0  0  0  0  0  0
    7.0033  -13.0266   25.1273 C   0  0  0  0  0  0  0  0  0  0  0  0
    6.4423  -11.8088   26.3434 S   0  0  0  0  0  0  0  0  0  0  0  0
    7.6178  -14.3949   27.1012 C   0  0  0  0  0  0  0  0  0  0  0  0
    7.4238  -15.6858   27.4890 O   0  0  0  0  0  0  0  0  0  0  0  0
    7.4570  -13.4752   27.9682 O   0  0  0  0  0  0  0  0  0  0  0  0
  2  1  1  6
  2  5  1  0
  3  2  1  0
  4  3  1  0
  5  6  2  0
  7  8  1  0
  8  9  2  0
  8 10  1  0
 10 11  1  0
 12 11  1  1
 12 14  1  0
 13 12  1  0
 13  5  1  0
 14 15  2  0
 14 16  1  0
 16 17  1  0
 17 20  1  0
 17 18  1  6
 19 18  1  0
 20 22  2  0
 20 21  1  0
M  END
$$$$
