CQC.pdb
     RDKit          3D

 22 21  0  0  1  0  0  0  0  0999 V2000
    6.8639  -14.8534   19.5777 N   0  0  0  0  0  0  0  0  0  0  0  0
    7.8013  -14.4163   20.5660 C   0  0  1  0  0  0  0  0  0  0  0  0
    7.6506  -12.9223   20.7456 C   0  0  0  0  0  0  0  0  0  0  0  0
    8.3523  -12.1234   19.2729 S   0  0  0  0  0  0  0  0  0  0  0  0
    7.7010  -15.1502   21.8392 C   0  0  0  0  0  0  0  0  0  0  0  0
    6.5495  -15.2571   22.3522 O   0  0  0  0  0  0  0  0  0  0  0  0
    7.9964  -19.8281   25.3606 N   0  0  0  0  0  0  0  0  0  0  0  0
    7.1191  -19.4941   24.3066 C   0  0  0  0  0  0  0  0  0  0  0  0
    6.0100  -20.0789   24.2644 O   0  0  0  0  0  0  0  0  0  0  0  0
    7.4662  -18.4942   23.2732 C   0  0  0  0  0  0  0  0  0  0  0  0
    8.7822  -17.8761   23.6096 C   0  0  0  0  0  0  0  0  0  0  0  0
    8.7155  -16.3892   23.8056 C   0  0  2  0  0  0  0  0  0  0  0  0
    8.7925  -15.7382   22.5216 N   0  0  0  0  0  0  0  0  0  0  0  0
    9.8071  -15.9177   24.7311 C   0  0  0  0  0  0  0  0  0  0  0  0
   10.6318  -15.0934   24.2881 O   0  0  0  0  0  0  0  0  0  0  0  0
    9.8829  -16.3923   26.0332 N   0  0  0  0  0  0  0  0  0  0  0  0
   10.1192  -15.5936   27.1791 C   0  0  1  0  0  0  0  0  0  0  0  0
    9.4441  -14.2802   27.2103 C   0  0  0  0  0  0  0  0  0  0  0  0
   10.1197  -13.2811   28.5602 S   0  0  0  0  0  0  0  0  0  0  0  0
   10.0691  -16.3085   28.4915 C   0  0  0  0  0  0  0  0  0  0  0  0
   11.0597  -16.3824   29.4230 O   0  0  0  0  0  0  0  0  0  0  0  0
    8.9668  -16.8986   28.7367 O   0  0  0  0  0  0  0  0  0  0  0  0
  2  1  1  6
  2  5  1  0
  3  2  1  0
  4  3  1  0
  5  6  2  0
  7  8  1  0
  8  9  2  0
  8 10  1  0
 10 11  1  0
 12 11  1  6
 12 14  1  0
 13 12  1  0
 13  5  1  0
 14 15  2  0
 14 16  1  0
 16 17  1  0
 17 20  1  0
 17 18  1  1
 19 18  1  0
 20 22  2  0
 20 21  1  0
M  END
$$$$
