CQC.pdb
     RDKit          3D

 22 21  0  0  1  0  0  0  0  0999 V2000
    7.2869  -15.6619   18.6400 N   0  0  0  0  0  0  0  0  0  0  0  0
    8.1053  -14.8839   19.5183 C   0  0  1  0  0  0  0  0  0  0  0  0
    7.6652  -13.4395   19.4337 C   0  0  0  0  0  0  0  0  0  0  0  0
    8.1651  -12.8125   17.8039 S   0  0  0  0  0  0  0  0  0  0  0  0
    8.1280  -15.3863   20.9028 C   0  0  0  0  0  0  0  0  0  0  0  0
    7.0101  -15.6023   21.4545 O   0  0  0  0  0  0  0  0  0  0  0  0
   10.3720  -19.6201   23.4567 N   0  0  0  0  0  0  0  0  0  0  0  0
   10.5891  -18.8777   24.6374 C   0  0  0  0  0  0  0  0  0  0  0  0
   10.6536  -19.5096   25.7192 O   0  0  0  0  0  0  0  0  0  0  0  0
   10.7391  -17.4061   24.6319 C   0  0  0  0  0  0  0  0  0  0  0  0
   10.5887  -16.9018   23.2355 C   0  0  0  0  0  0  0  0  0  0  0  0
    9.3317  -16.1114   23.0138 C   0  0  2  0  0  0  0  0  0  0  0  0
    9.3017  -15.6417   21.6511 N   0  0  0  0  0  0  0  0  0  0  0  0
    9.2314  -14.9715   23.9941 C   0  0  0  0  0  0  0  0  0  0  0  0
    9.9677  -13.9809   23.8141 O   0  0  0  0  0  0  0  0  0  0  0  0
    8.3443  -15.0327   25.0598 N   0  0  0  0  0  0  0  0  0  0  0  0
    8.1918  -14.0325   26.0515 C   0  0  1  0  0  0  0  0  0  0  0  0
    6.9782  -13.1960   25.9542 C   0  0  0  0  0  0  0  0  0  0  0  0
    6.9957  -11.9446   27.2620 S   0  0  0  0  0  0  0  0  0  0  0  0
    8.5014  -14.4535   27.4525 C   0  0  0  0  0  0  0  0  0  0  0  0
    8.6485  -13.6444   28.5379 O   0  0  0  0  0  0  0  0  0  0  0  0
    8.6318  -15.7103   27.6163 O   0  0  0  0  0  0  0  0  0  0  0  0
  2  1  1  6
  2  5  1  0
  3  2  1  0
  4  3  1  0
  5  6  2  0
  7  8  1  0
  8  9  2  0
  8 10  1  0
 10 11  1  0
 12 11  1  1
 12 14  1  0
 13 12  1  0
 13  5  1  0
 14 15  2  0
 14 16  1  0
 16 17  1  0
 17 20  1  0
 17 18  1  1
 19 18  1  0
 20 22  2  0
 20 21  1  0
M  END
$$$$
