CQC.pdb
     RDKit          3D

 22 21  0  0  1  0  0  0  0  0999 V2000
    7.3939  -15.1843   19.0553 N   0  0  0  0  0  0  0  0  0  0  0  0
    8.0349  -14.4618   20.1106 C   0  0  1  0  0  0  0  0  0  0  0  0
    7.5212  -13.0395   20.1020 C   0  0  0  0  0  0  0  0  0  0  0  0
    8.2463  -12.2075   18.6593 S   0  0  0  0  0  0  0  0  0  0  0  0
    7.8999  -15.1022   21.4302 C   0  0  0  0  0  0  0  0  0  0  0  0
    6.7509  -15.5248   21.7496 O   0  0  0  0  0  0  0  0  0  0  0  0
   11.6264  -19.0390   24.0166 N   0  0  0  0  0  0  0  0  0  0  0  0
   10.7451  -18.8131   25.0958 C   0  0  0  0  0  0  0  0  0  0  0  0
   10.8635  -19.5453   26.1075 O   0  0  0  0  0  0  0  0  0  0  0  0
    9.7083  -17.7585   25.0648 C   0  0  0  0  0  0  0  0  0  0  0  0
    9.7695  -17.0471   23.7545 C   0  0  0  0  0  0  0  0  0  0  0  0
    8.8271  -15.8825   23.6579 C   0  0  2  0  0  0  0  0  0  0  0  0
    8.9557  -15.2757   22.3565 N   0  0  0  0  0  0  0  0  0  0  0  0
    9.0844  -14.8877   24.7599 C   0  0  0  0  0  0  0  0  0  0  0  0
   10.2043  -14.3401   24.8016 O   0  0  0  0  0  0  0  0  0  0  0  0
    8.0991  -14.5976   25.6935 N   0  0  0  0  0  0  0  0  0  0  0  0
    8.2612  -13.7401   26.8095 C   0  0  1  0  0  0  0  0  0  0  0  0
    7.0954  -12.9065   27.1674 C   0  0  0  0  0  0  0  0  0  0  0  0
    6.2249  -12.4005   25.6630 S   0  0  0  0  0  0  0  0  0  0  0  0
    8.9371  -14.3424   27.9996 C   0  0  0  0  0  0  0  0  0  0  0  0
    9.3413  -13.6952   29.1275 O   0  0  0  0  0  0  0  0  0  0  0  0
    9.1390  -15.5980   27.9207 O   0  0  0  0  0  0  0  0  0  0  0  0
  2  1  1  6
  2  5  1  0
  3  2  1  0
  4  3  1  0
  5  6  2  0
  7  8  1  0
  8  9  2  0
  8 10  1  0
 10 11  1  0
 12 11  1  6
 12 14  1  0
 13 12  1  0
 13  5  1  0
 14 15  2  0
 14 16  1  0
 16 17  1  0
 17 20  1  0
 17 18  1  1
 19 18  1  0
 20 22  2  0
 20 21  1  0
M  END
$$$$
