CQC.pdb
     RDKit          3D

 22 21  0  0  1  0  0  0  0  0999 V2000
    5.2851  -13.6663   25.9580 N   0  0  0  0  0  0  0  0  0  0  0  0
    6.3312  -13.5188   24.9934 C   0  0  1  0  0  0  0  0  0  0  0  0
    6.9075  -12.1261   25.1168 C   0  0  0  0  0  0  0  0  0  0  0  0
    7.1645  -11.7978   26.8847 S   0  0  0  0  0  0  0  0  0  0  0  0
    7.3637  -14.5659   25.0784 C   0  0  0  0  0  0  0  0  0  0  0  0
    7.4008  -15.2521   26.1408 O   0  0  0  0  0  0  0  0  0  0  0  0
    9.5583  -19.1667   22.2311 N   0  0  0  0  0  0  0  0  0  0  0  0
   10.4068  -18.1288   21.7892 C   0  0  0  0  0  0  0  0  0  0  0  0
   10.6798  -18.0807   20.5658 O   0  0  0  0  0  0  0  0  0  0  0  0
   10.9699  -17.1187   22.7116 C   0  0  0  0  0  0  0  0  0  0  0  0
   10.0268  -15.9668   22.8144 C   0  0  0  0  0  0  0  0  0  0  0  0
    9.2946  -15.9041   24.1235 C   0  0  2  0  0  0  0  0  0  0  0  0
    8.3075  -14.8549   24.0644 N   0  0  0  0  0  0  0  0  0  0  0  0
   10.2528  -15.6981   25.2680 C   0  0  0  0  0  0  0  0  0  0  0  0
   11.1693  -14.8653   25.1188 O   0  0  0  0  0  0  0  0  0  0  0  0
   10.1105  -16.4178   26.4463 N   0  0  0  0  0  0  0  0  0  0  0  0
   10.9547  -16.3030   27.5782 C   0  0  1  0  0  0  0  0  0  0  0  0
   10.4513  -15.4659   28.6862 C   0  0  0  0  0  0  0  0  0  0  0  0
    9.4782  -14.0936   28.0179 S   0  0  0  0  0  0  0  0  0  0  0  0
   11.5905  -17.5728   28.0465 C   0  0  0  0  0  0  0  0  0  0  0  0
   12.4862  -17.7148   29.0624 O   0  0  0  0  0  0  0  0  0  0  0  0
   11.2326  -18.6163   27.4090 O   0  0  0  0  0  0  0  0  0  0  0  0
  2  1  1  1
  2  5  1  0
  3  2  1  0
  4  3  1  0
  5  6  2  0
  7  8  1  0
  8  9  2  0
  8 10  1  0
 10 11  1  0
 12 11  1  6
 12 14  1  0
 13 12  1  0
 13  5  1  0
 14 15  2  0
 14 16  1  0
 16 17  1  0
 17 20  1  0
 17 18  1  1
 19 18  1  0
 20 22  2  0
 20 21  1  0
M  END
$$$$
