CQC.pdb
     RDKit          3D

 22 21  0  0  1  0  0  0  0  0999 V2000
    7.6659  -15.5961   18.0511 N   0  0  0  0  0  0  0  0  0  0  0  0
    8.3237  -14.7566   19.0046 C   0  0  1  0  0  0  0  0  0  0  0  0
    7.9557  -13.3186   18.7154 C   0  0  0  0  0  0  0  0  0  0  0  0
    8.7747  -12.2851   19.9646 S   0  0  0  0  0  0  0  0  0  0  0  0
    8.0613  -15.1354   20.4037 C   0  0  0  0  0  0  0  0  0  0  0  0
    6.8500  -15.2163   20.7601 O   0  0  0  0  0  0  0  0  0  0  0  0
   11.8721  -18.5969   23.8192 N   0  0  0  0  0  0  0  0  0  0  0  0
   10.8687  -18.3061   24.7684 C   0  0  0  0  0  0  0  0  0  0  0  0
   10.9708  -18.8308   25.9033 O   0  0  0  0  0  0  0  0  0  0  0  0
    9.7251  -17.4180   24.4657 C   0  0  0  0  0  0  0  0  0  0  0  0
    9.8733  -16.8798   23.0817 C   0  0  0  0  0  0  0  0  0  0  0  0
    8.8131  -15.8853   22.7066 C   0  0  2  0  0  0  0  0  0  0  0  0
    9.0600  -15.4122   21.3673 N   0  0  0  0  0  0  0  0  0  0  0  0
    8.7660  -14.7487   23.6947 C   0  0  0  0  0  0  0  0  0  0  0  0
    9.6422  -13.8651   23.6096 O   0  0  0  0  0  0  0  0  0  0  0  0
    7.7745  -14.6969   24.6646 N   0  0  0  0  0  0  0  0  0  0  0  0
    7.6519  -13.6879   25.6515 C   0  0  1  0  0  0  0  0  0  0  0  0
    6.3498  -12.9935   25.7172 C   0  0  0  0  0  0  0  0  0  0  0  0
    6.3767  -11.7763   27.0569 S   0  0  0  0  0  0  0  0  0  0  0  0
    8.2030  -14.0266   26.9996 C   0  0  0  0  0  0  0  0  0  0  0  0
    8.6701  -13.1558   27.9365 O   0  0  0  0  0  0  0  0  0  0  0  0
    8.2206  -15.2711   27.2724 O   0  0  0  0  0  0  0  0  0  0  0  0
  2  1  1  6
  2  5  1  0
  3  2  1  0
  4  3  1  0
  5  6  2  0
  7  8  1  0
  8  9  2  0
  8 10  1  0
 10 11  1  0
 12 11  1  1
 12 14  1  0
 13 12  1  0
 13  5  1  0
 14 15  2  0
 14 16  1  0
 16 17  1  0
 17 20  1  0
 17 18  1  1
 19 18  1  0
 20 22  2  0
 20 21  1  0
M  END
$$$$
