CQC.pdb
     RDKit          3D

 22 21  0  0  1  0  0  0  0  0999 V2000
   14.4827  -18.8325   13.6442 N   0  0  0  0  0  0  0  0  0  0  0  0
   14.6180  -20.0137   14.4397 C   0  0  1  0  0  0  0  0  0  0  0  0
   16.0298  -20.5352   14.2918 C   0  0  0  0  0  0  0  0  0  0  0  0
   16.2490  -21.0289   12.5575 S   0  0  0  0  0  0  0  0  0  0  0  0
   14.2317  -19.8235   15.8483 C   0  0  0  0  0  0  0  0  0  0  0  0
   14.3481  -18.6569   16.3240 O   0  0  0  0  0  0  0  0  0  0  0  0
   10.0200  -22.9913   20.8798 N   0  0  0  0  0  0  0  0  0  0  0  0
   10.2924  -22.1133   19.8087 C   0  0  0  0  0  0  0  0  0  0  0  0
    9.4117  -21.9818   18.9250 O   0  0  0  0  0  0  0  0  0  0  0  0
   11.5617  -21.3610   19.7038 C   0  0  0  0  0  0  0  0  0  0  0  0
   12.1018  -21.4984   18.3195 C   0  0  0  0  0  0  0  0  0  0  0  0
   13.3180  -20.6566   18.0623 C   0  0  2  0  0  0  0  0  0  0  0  0
   13.7444  -20.8448   16.6981 N   0  0  0  0  0  0  0  0  0  0  0  0
   14.4188  -20.9875   19.0365 C   0  0  0  0  0  0  0  0  0  0  0  0
   15.2228  -21.8885   18.7242 O   0  0  0  0  0  0  0  0  0  0  0  0
   14.5252  -20.3047   20.2403 N   0  0  0  0  0  0  0  0  0  0  0  0
   15.5247  -20.5294   21.2189 C   0  0  1  0  0  0  0  0  0  0  0  0
   16.7918  -19.7918   21.0395 C   0  0  0  0  0  0  0  0  0  0  0  0
   17.9890  -20.3270   22.2873 S   0  0  0  0  0  0  0  0  0  0  0  0
   15.0533  -20.5460   22.6378 C   0  0  0  0  0  0  0  0  0  0  0  0
   15.6269  -21.2016   23.6845 O   0  0  0  0  0  0  0  0  0  0  0  0
   14.0021  -19.8609   22.8597 O   0  0  0  0  0  0  0  0  0  0  0  0
  2  1  1  6
  2  5  1  0
  3  2  1  0
  4  3  1  0
  5  6  2  0
  7  8  1  0
  8  9  2  0
  8 10  1  0
 10 11  1  0
 12 11  1  1
 12 14  1  0
 13 12  1  0
 13  5  1  0
 14 15  2  0
 14 16  1  0
 16 17  1  0
 17 20  1  0
 17 18  1  1
 19 18  1  0
 20 22  2  0
 20 21  1  0
M  END
$$$$
