QHW.pdb
     RDKit          3D

 34 36  0  0  1  0  0  0  0  0999 V2000
   28.7456  -20.0993  -18.4519 N   0  0  0  0  0  0  0  0  0  0  0  0
   27.7513  -19.1148  -18.6123 C   0  0  0  0  0  0  0  0  0  0  0  0
   28.1058  -17.9258  -18.8004 O   0  0  0  0  0  0  0  0  0  0  0  0
   26.2804  -19.4192  -18.5690 C   0  0  0  0  0  0  0  0  0  0  0  0
   25.7344  -19.1639  -17.2082 C   0  0  0  0  0  0  0  0  0  0  0  0
   25.9807  -20.3228  -16.3006 C   0  0  2  0  0  0  0  0  0  0  0  0
   25.0677  -21.4340  -16.6295 N   0  0  0  0  0  0  0  0  0  0  0  0
   25.7432  -19.9594  -14.9115 C   0  0  0  0  0  0  0  0  0  0  0  0
   26.2618  -18.8976  -14.4108 O   0  0  0  0  0  0  0  0  0  0  0  0
   24.9344  -20.7462  -14.0370 N   0  0  0  0  0  0  0  0  0  0  0  0
   24.6047  -20.3267  -12.6969 C   0  0  1  0  0  0  0  0  0  0  0  0
   23.1257  -20.1526  -12.4905 C   0  0  0  0  0  0  0  0  0  0  0  0
   22.5631  -19.0972  -13.3854 C   0  0  0  0  0  0  0  0  0  0  0  0
   21.6269  -19.2919  -14.3808 C   0  0  0  0  0  0  0  0  0  0  0  0
   21.3736  -18.1257  -14.9584 N   0  0  0  0  0  0  0  0  0  0  0  0
   22.1099  -17.1742  -14.3774 C   0  0  0  0  0  0  0  0  0  0  0  0
   22.8332  -17.7794  -13.4174 N   0  0  0  0  0  0  0  0  0  0  0  0
   25.2340  -21.1740  -11.6693 C   0  0  0  0  0  0  0  0  0  0  0  0
   25.1515  -22.4456  -11.7831 O   0  0  0  0  0  0  0  0  0  0  0  0
   25.9353  -20.7042  -10.5450 N   0  0  0  0  0  0  0  0  0  0  0  0
   26.3112  -21.5234   -9.4295 C   0  0  1  0  0  0  0  0  0  0  0  0
   27.7200  -21.2236   -8.9533 C   0  0  0  0  0  0  0  0  0  0  0  0
   27.7319  -20.0968   -8.0054 C   0  0  0  0  0  0  0  0  0  0  0  0
   27.0239  -18.9059   -8.0682 C   0  0  0  0  0  0  0  0  0  0  0  0
   27.3409  -18.1738   -6.9888 N   0  0  0  0  0  0  0  0  0  0  0  0
   28.2161  -18.8046   -6.2124 C   0  0  0  0  0  0  0  0  0  0  0  0
   28.8535  -18.5034   -5.0166 C   0  0  0  0  0  0  0  0  0  0  0  0
   29.7370  -19.4102   -4.4592 C   0  0  0  0  0  0  0  0  0  0  0  0
   29.9683  -20.6047   -5.1082 C   0  0  0  0  0  0  0  0  0  0  0  0
   29.3529  -20.9356   -6.2959 C   0  0  0  0  0  0  0  0  0  0  0  0
   28.4704  -20.0113   -6.8372 C   0  0  0  0  0  0  0  0  0  0  0  0
   25.3147  -21.3329   -8.3557 C   0  0  0  0  0  0  0  0  0  0  0  0
   24.4479  -20.4332   -8.4276 O   0  0  0  0  0  0  0  0  0  0  0  0
   25.3203  -22.1491   -7.2445 O   0  0  0  0  0  0  0  0  0  0  0  0
  2  3  2  0
  2  1  1  0
  4  2  1  0
  5  4  1  0
  6  5  1  0
  6  7  1  6
  8 10  1  0
  8  6  1  0
  9  8  2  0
 11 10  1  0
 11 12  1  6
 12 13  1  0
 13 17  1  0
 14 13  2  0
 14 15  1  0
 15 16  1  0
 17 16  2  0
 18 11  1  0
 19 18  2  0
 20 18  1  0
 21 20  1  0
 22 23  1  0
 21 22  1  1
 23 31  1  0
 24 25  1  0
 24 23  2  0
 25 26  1  0
 26 31  2  0
 26 27  1  0
 27 28  2  0
 28 29  1  0
 30 29  2  0
 31 30  1  0
 32 21  1  0
 32 34  1  0
 33 32  2  0
M  END
$$$$
