QHW.pdb
     RDKit          3D

 34 36  0  0  1  0  0  0  0  0999 V2000
   31.5371  -33.9208   -6.9840 N   0  0  0  0  0  0  0  0  0  0  0  0
   32.3951  -34.2812   -5.9268 C   0  0  0  0  0  0  0  0  0  0  0  0
   33.6349  -34.2312   -6.1136 O   0  0  0  0  0  0  0  0  0  0  0  0
   31.8968  -34.7246   -4.5803 C   0  0  0  0  0  0  0  0  0  0  0  0
   30.4098  -34.7867   -4.5685 C   0  0  0  0  0  0  0  0  0  0  0  0
   29.8590  -34.3061   -3.2672 C   0  0  2  0  0  0  0  0  0  0  0  0
   30.1833  -35.2606   -2.1900 N   0  0  0  0  0  0  0  0  0  0  0  0
   28.4095  -34.1882   -3.3241 C   0  0  0  0  0  0  0  0  0  0  0  0
   27.8455  -33.3988   -4.1643 O   0  0  0  0  0  0  0  0  0  0  0  0
   27.5422  -34.9290   -2.4656 N   0  0  0  0  0  0  0  0  0  0  0  0
   26.1192  -34.6992   -2.4135 C   0  0  1  0  0  0  0  0  0  0  0  0
   25.3212  -35.9654   -2.5555 C   0  0  0  0  0  0  0  0  0  0  0  0
   25.3125  -36.4583   -3.9656 C   0  0  0  0  0  0  0  0  0  0  0  0
   25.8424  -35.8016   -5.0578 C   0  0  0  0  0  0  0  0  0  0  0  0
   25.6458  -36.5467   -6.1368 N   0  0  0  0  0  0  0  0  0  0  0  0
   25.0064  -37.6676   -5.7907 C   0  0  0  0  0  0  0  0  0  0  0  0
   24.8078  -37.6029   -4.4613 N   0  0  0  0  0  0  0  0  0  0  0  0
   25.7196  -33.8942   -1.2464 C   0  0  0  0  0  0  0  0  0  0  0  0
   25.9839  -34.3338   -0.0744 O   0  0  0  0  0  0  0  0  0  0  0  0
   25.0575  -32.6552   -1.3007 N   0  0  0  0  0  0  0  0  0  0  0  0
   24.6433  -31.9116   -0.1464 C   0  0  1  0  0  0  0  0  0  0  0  0
   24.7849  -30.4155   -0.3532 C   0  0  0  0  0  0  0  0  0  0  0  0
   23.9437  -29.6661    0.5950 C   0  0  0  0  0  0  0  0  0  0  0  0
   24.1278  -29.4834    1.9574 C   0  0  0  0  0  0  0  0  0  0  0  0
   23.1177  -28.7292    2.4182 N   0  0  0  0  0  0  0  0  0  0  0  0
   22.2734  -28.3993    1.4461 C   0  0  0  0  0  0  0  0  0  0  0  0
   21.1016  -27.6579    1.3819 C   0  0  0  0  0  0  0  0  0  0  0  0
   20.4483  -27.5050    0.1722 C   0  0  0  0  0  0  0  0  0  0  0  0
   20.9788  -28.0971   -0.9544 C   0  0  0  0  0  0  0  0  0  0  0  0
   22.1395  -28.8394   -0.9265 C   0  0  0  0  0  0  0  0  0  0  0  0
   22.7785  -28.9797    0.2975 C   0  0  0  0  0  0  0  0  0  0  0  0
   23.2540  -32.2935    0.1791 C   0  0  0  0  0  0  0  0  0  0  0  0
   22.4281  -32.5647   -0.7211 O   0  0  0  0  0  0  0  0  0  0  0  0
   22.8366  -32.3591    1.4915 O   0  0  0  0  0  0  0  0  0  0  0  0
  2  3  2  0
  2  1  1  0
  4  2  1  0
  5  4  1  0
  6  5  1  0
  6  7  1  1
  8 10  1  0
  8  6  1  0
  9  8  2  0
 11 10  1  0
 11 12  1  1
 12 13  1  0
 13 17  1  0
 14 13  2  0
 14 15  1  0
 15 16  1  0
 17 16  2  0
 18 11  1  0
 19 18  2  0
 20 18  1  0
 21 20  1  0
 22 23  1  0
 21 22  1  6
 23 31  1  0
 24 25  1  0
 24 23  2  0
 25 26  1  0
 26 31  2  0
 26 27  1  0
 27 28  2  0
 28 29  1  0
 30 29  2  0
 31 30  1  0
 32 21  1  0
 32 34  1  0
 33 32  2  0
M  END
$$$$
