QHW.pdb
     RDKit          3D

 34 36  0  0  1  0  0  0  0  0999 V2000
   20.2869  -18.7327  -19.7441 N   0  0  0  0  0  0  0  0  0  0  0  0
   20.6052  -18.6322  -21.1124 C   0  0  0  0  0  0  0  0  0  0  0  0
   19.8199  -19.1354  -21.9519 O   0  0  0  0  0  0  0  0  0  0  0  0
   21.8443  -17.9493  -21.6188 C   0  0  0  0  0  0  0  0  0  0  0  0
   22.5776  -17.3002  -20.4980 C   0  0  0  0  0  0  0  0  0  0  0  0
   24.0437  -17.5657  -20.5856 C   0  0  2  0  0  0  0  0  0  0  0  0
   24.3649  -18.2542  -21.8502 N   0  0  0  0  0  0  0  0  0  0  0  0
   24.4860  -18.4241  -19.4968 C   0  0  0  0  0  0  0  0  0  0  0  0
   24.5755  -19.6947  -19.6547 O   0  0  0  0  0  0  0  0  0  0  0  0
   24.8411  -17.9160  -18.2109 N   0  0  0  0  0  0  0  0  0  0  0  0
   25.3400  -18.7601  -17.1529 C   0  0  1  0  0  0  0  0  0  0  0  0
   26.5783  -18.2068  -16.5041 C   0  0  0  0  0  0  0  0  0  0  0  0
   27.1048  -19.1221  -15.4475 C   0  0  0  0  0  0  0  0  0  0  0  0
   27.7936  -20.2987  -15.6629 C   0  0  0  0  0  0  0  0  0  0  0  0
   28.0970  -20.8333  -14.4882 N   0  0  0  0  0  0  0  0  0  0  0  0
   27.6320  -20.0495  -13.5112 C   0  0  0  0  0  0  0  0  0  0  0  0
   27.0273  -19.0066  -14.1091 N   0  0  0  0  0  0  0  0  0  0  0  0
   24.2946  -19.1251  -16.1815 C   0  0  0  0  0  0  0  0  0  0  0  0
   23.4397  -18.2392  -15.8335 O   0  0  0  0  0  0  0  0  0  0  0  0
   24.1438  -20.3892  -15.5849 N   0  0  0  0  0  0  0  0  0  0  0  0
   23.1747  -20.6916  -14.5719 C   0  0  1  0  0  0  0  0  0  0  0  0
   23.6856  -21.7268  -13.5876 C   0  0  0  0  0  0  0  0  0  0  0  0
   23.6063  -21.2289  -12.2040 C   0  0  0  0  0  0  0  0  0  0  0  0
   22.4779  -20.9228  -11.4581 C   0  0  0  0  0  0  0  0  0  0  0  0
   22.8781  -20.5066  -10.2464 N   0  0  0  0  0  0  0  0  0  0  0  0
   24.2030  -20.5171  -10.1409 C   0  0  0  0  0  0  0  0  0  0  0  0
   25.1040  -20.1917   -9.1363 C   0  0  0  0  0  0  0  0  0  0  0  0
   26.4629  -20.3198   -9.3614 C   0  0  0  0  0  0  0  0  0  0  0  0
   26.8982  -20.7718  -10.5892 C   0  0  0  0  0  0  0  0  0  0  0  0
   26.0317  -21.1035  -11.6081 C   0  0  0  0  0  0  0  0  0  0  0  0
   24.6729  -20.9676  -11.3605 C   0  0  0  0  0  0  0  0  0  0  0  0
   22.7961  -19.4321  -13.8994 C   0  0  0  0  0  0  0  0  0  0  0  0
   23.6230  -18.5057  -13.7443 O   0  0  0  0  0  0  0  0  0  0  0  0
   21.5139  -19.2510  -13.4258 O   0  0  0  0  0  0  0  0  0  0  0  0
  2  3  2  0
  2  1  1  0
  4  2  1  0
  5  4  1  0
  6  5  1  0
  6  7  1  6
  8 10  1  0
  8  6  1  0
  9  8  2  0
 11 10  1  0
 11 12  1  1
 12 13  1  0
 13 17  1  0
 14 13  2  0
 14 15  1  0
 15 16  1  0
 17 16  2  0
 18 11  1  0
 19 18  2  0
 20 18  1  0
 21 20  1  0
 22 23  1  0
 21 22  1  1
 23 31  1  0
 24 25  1  0
 24 23  2  0
 25 26  1  0
 26 31  2  0
 26 27  1  0
 27 28  2  0
 28 29  1  0
 30 29  2  0
 31 30  1  0
 32 21  1  0
 32 34  1  0
 33 32  2  0
M  END
$$$$
