QHW.pdb
     RDKit          3D

 34 36  0  0  1  0  0  0  0  0999 V2000
   30.7790  -20.4820  -19.4403 N   0  0  0  0  0  0  0  0  0  0  0  0
   29.7519  -21.3889  -19.7660 C   0  0  0  0  0  0  0  0  0  0  0  0
   29.7283  -21.8834  -20.9191 O   0  0  0  0  0  0  0  0  0  0  0  0
   28.6780  -21.7953  -18.7967 C   0  0  0  0  0  0  0  0  0  0  0  0
   28.8866  -21.1347  -17.4794 C   0  0  0  0  0  0  0  0  0  0  0  0
   28.3355  -21.9622  -16.3663 C   0  0  2  0  0  0  0  0  0  0  0  0
   27.0202  -22.5151  -16.7417 N   0  0  0  0  0  0  0  0  0  0  0  0
   28.1463  -21.1636  -15.1645 C   0  0  0  0  0  0  0  0  0  0  0  0
   29.1287  -20.5324  -14.6319 O   0  0  0  0  0  0  0  0  0  0  0  0
   26.8809  -21.0352  -14.5163 N   0  0  0  0  0  0  0  0  0  0  0  0
   26.6741  -20.1697  -13.3811 C   0  0  1  0  0  0  0  0  0  0  0  0
   25.7719  -19.0083  -13.6934 C   0  0  0  0  0  0  0  0  0  0  0  0
   26.4138  -18.0489  -14.6414 C   0  0  0  0  0  0  0  0  0  0  0  0
   26.0537  -17.8462  -15.9584 C   0  0  0  0  0  0  0  0  0  0  0  0
   26.8485  -16.9205  -16.4774 N   0  0  0  0  0  0  0  0  0  0  0  0
   27.7160  -16.5096  -15.5481 C   0  0  0  0  0  0  0  0  0  0  0  0
   27.4411  -17.2061  -14.4299 N   0  0  0  0  0  0  0  0  0  0  0  0
   26.2647  -20.9091  -12.1747 C   0  0  0  0  0  0  0  0  0  0  0  0
   25.4459  -21.8844  -12.2973 O   0  0  0  0  0  0  0  0  0  0  0  0
   26.7007  -20.6366  -10.8661 N   0  0  0  0  0  0  0  0  0  0  0  0
   26.2819  -21.3712   -9.7078 C   0  0  1  0  0  0  0  0  0  0  0  0
   27.4254  -21.6047   -8.7387 C   0  0  0  0  0  0  0  0  0  0  0  0
   27.6050  -20.4513   -7.8411 C   0  0  0  0  0  0  0  0  0  0  0  0
   27.1049  -19.1647   -7.9751 C   0  0  0  0  0  0  0  0  0  0  0  0
   27.5176  -18.4439   -6.9206 N   0  0  0  0  0  0  0  0  0  0  0  0
   28.2612  -19.1721   -6.0940 C   0  0  0  0  0  0  0  0  0  0  0  0
   28.9163  -18.9231   -4.8958 C   0  0  0  0  0  0  0  0  0  0  0  0
   29.6268  -19.9351   -4.2756 C   0  0  0  0  0  0  0  0  0  0  0  0
   29.6700  -21.1808   -4.8651 C   0  0  0  0  0  0  0  0  0  0  0  0
   29.0316  -21.4624   -6.0534 C   0  0  0  0  0  0  0  0  0  0  0  0
   28.3247  -20.4326   -6.6582 C   0  0  0  0  0  0  0  0  0  0  0  0
   25.1634  -20.6432   -9.0746 C   0  0  0  0  0  0  0  0  0  0  0  0
   24.8865  -19.4676   -9.4022 O   0  0  0  0  0  0  0  0  0  0  0  0
   24.3964  -21.2496   -8.1023 O   0  0  0  0  0  0  0  0  0  0  0  0
  2  3  2  0
  2  1  1  0
  4  2  1  0
  5  4  1  0
  6  5  1  0
  6  7  1  6
  8 10  1  0
  8  6  1  0
  9  8  2  0
 11 10  1  0
 11 12  1  6
 12 13  1  0
 13 17  1  0
 14 13  2  0
 14 15  1  0
 15 16  1  0
 17 16  2  0
 18 11  1  0
 19 18  2  0
 20 18  1  0
 21 20  1  0
 22 23  1  0
 21 22  1  1
 23 31  1  0
 24 25  1  0
 24 23  2  0
 25 26  1  0
 26 31  2  0
 26 27  1  0
 27 28  2  0
 28 29  1  0
 30 29  2  0
 31 30  1  0
 32 21  1  0
 32 34  1  0
 33 32  2  0
M  END
$$$$
