QHW.pdb
     RDKit          3D

 34 36  0  0  1  0  0  0  0  0999 V2000
   20.6987  -17.8872  -13.4096 N   0  0  0  0  0  0  0  0  0  0  0  0
   20.2747  -18.6962  -14.4817 C   0  0  0  0  0  0  0  0  0  0  0  0
   19.4578  -19.6207  -14.2522 O   0  0  0  0  0  0  0  0  0  0  0  0
   20.7545  -18.5063  -15.8930 C   0  0  0  0  0  0  0  0  0  0  0  0
   21.6601  -17.3285  -15.9824 C   0  0  0  0  0  0  0  0  0  0  0  0
   22.1783  -17.1491  -17.3705 C   0  0  2  0  0  0  0  0  0  0  0  0
   22.8215  -18.3905  -17.8415 N   0  0  0  0  0  0  0  0  0  0  0  0
   23.1776  -16.0925  -17.4236 C   0  0  0  0  0  0  0  0  0  0  0  0
   24.3842  -16.3076  -17.0428 O   0  0  0  0  0  0  0  0  0  0  0  0
   22.8834  -14.7770  -17.8936 N   0  0  0  0  0  0  0  0  0  0  0  0
   23.8654  -13.7205  -17.9102 C   0  0  1  0  0  0  0  0  0  0  0  0
   24.2323  -13.2911  -19.3035 C   0  0  0  0  0  0  0  0  0  0  0  0
   23.1077  -12.5725  -19.9747 C   0  0  0  0  0  0  0  0  0  0  0  0
   21.9280  -13.1404  -20.4116 C   0  0  0  0  0  0  0  0  0  0  0  0
   21.1768  -12.1923  -20.9545 N   0  0  0  0  0  0  0  0  0  0  0  0
   21.8219  -11.0241  -20.8889 C   0  0  0  0  0  0  0  0  0  0  0  0
   23.0010  -11.2684  -20.2883 N   0  0  0  0  0  0  0  0  0  0  0  0
   23.4956  -12.5925  -17.0382 C   0  0  0  0  0  0  0  0  0  0  0  0
   22.2699  -12.2298  -16.9852 O   0  0  0  0  0  0  0  0  0  0  0  0
   24.3868  -11.8570  -16.2373 N   0  0  0  0  0  0  0  0  0  0  0  0
   24.0179  -10.6992  -15.4755 C   0  0  1  0  0  0  0  0  0  0  0  0
   25.1587  -10.2031  -14.6071 C   0  0  0  0  0  0  0  0  0  0  0  0
   26.4049  -10.0865  -15.3828 C   0  0  0  0  0  0  0  0  0  0  0  0
   26.8830   -8.9953  -16.0929 C   0  0  0  0  0  0  0  0  0  0  0  0
   28.0589   -9.3371  -16.6426 N   0  0  0  0  0  0  0  0  0  0  0  0
   28.3919  -10.5881  -16.3416 C   0  0  0  0  0  0  0  0  0  0  0  0
   29.4684  -11.4106  -16.6443 C   0  0  0  0  0  0  0  0  0  0  0  0
   29.5061  -12.7042  -16.1557 C   0  0  0  0  0  0  0  0  0  0  0  0
   28.4648  -13.1540  -15.3716 C   0  0  0  0  0  0  0  0  0  0  0  0
   27.3814  -12.3647  -15.0518 C   0  0  0  0  0  0  0  0  0  0  0  0
   27.3643  -11.0704  -15.5525 C   0  0  0  0  0  0  0  0  0  0  0  0
   23.5448   -9.6583  -16.4107 C   0  0  0  0  0  0  0  0  0  0  0  0
   23.8538   -9.6868  -17.6231 O   0  0  0  0  0  0  0  0  0  0  0  0
   22.7473   -8.6267  -15.9626 O   0  0  0  0  0  0  0  0  0  0  0  0
  2  3  2  0
  2  1  1  0
  4  2  1  0
  5  4  1  0
  6  5  1  0
  6  7  1  1
  8 10  1  0
  8  6  1  0
  9  8  2  0
 11 10  1  0
 11 12  1  6
 12 13  1  0
 13 17  1  0
 14 13  2  0
 14 15  1  0
 15 16  1  0
 17 16  2  0
 18 11  1  0
 19 18  2  0
 20 18  1  0
 21 20  1  0
 22 23  1  0
 21 22  1  6
 23 31  1  0
 24 25  1  0
 24 23  2  0
 25 26  1  0
 26 31  2  0
 26 27  1  0
 27 28  2  0
 28 29  1  0
 30 29  2  0
 31 30  1  0
 32 21  1  0
 32 34  1  0
 33 32  2  0
M  END
$$$$
