QHW.pdb
     RDKit          3D

 34 36  0  0  1  0  0  0  0  0999 V2000
   25.7294  -24.0487  -22.8331 N   0  0  0  0  0  0  0  0  0  0  0  0
   25.1685  -22.7788  -23.0703 C   0  0  0  0  0  0  0  0  0  0  0  0
   24.7247  -22.5207  -24.2153 O   0  0  0  0  0  0  0  0  0  0  0  0
   25.0749  -21.7129  -22.0153 C   0  0  0  0  0  0  0  0  0  0  0  0
   25.7429  -22.1587  -20.7621 C   0  0  0  0  0  0  0  0  0  0  0  0
   24.8569  -21.9612  -19.5775 C   0  0  2  0  0  0  0  0  0  0  0  0
   24.0122  -20.7659  -19.7632 N   0  0  0  0  0  0  0  0  0  0  0  0
   25.6390  -21.7591  -18.3669 C   0  0  0  0  0  0  0  0  0  0  0  0
   26.5033  -22.6291  -17.9884 O   0  0  0  0  0  0  0  0  0  0  0  0
   25.4962  -20.6030  -17.5417 N   0  0  0  0  0  0  0  0  0  0  0  0
   26.2474  -20.4205  -16.3239 C   0  0  1  0  0  0  0  0  0  0  0  0
   26.8614  -19.0520  -16.2203 C   0  0  0  0  0  0  0  0  0  0  0  0
   27.6719  -18.9026  -14.9745 C   0  0  0  0  0  0  0  0  0  0  0  0
   27.4616  -17.9725  -13.9765 C   0  0  0  0  0  0  0  0  0  0  0  0
   28.3786  -18.1468  -13.0349 N   0  0  0  0  0  0  0  0  0  0  0  0
   29.1817  -19.1572  -13.3800 C   0  0  0  0  0  0  0  0  0  0  0  0
   28.7405  -19.6116  -14.5673 N   0  0  0  0  0  0  0  0  0  0  0  0
   25.4802  -20.8000  -15.1251 C   0  0  0  0  0  0  0  0  0  0  0  0
   24.2599  -20.4277  -15.0304 O   0  0  0  0  0  0  0  0  0  0  0  0
   25.9761  -21.5528  -14.0462 N   0  0  0  0  0  0  0  0  0  0  0  0
   25.3050  -21.6946  -12.7868 C   0  0  1  0  0  0  0  0  0  0  0  0
   26.2555  -22.1108  -11.6800 C   0  0  0  0  0  0  0  0  0  0  0  0
   26.1862  -21.1790  -10.5419 C   0  0  0  0  0  0  0  0  0  0  0  0
   25.0679  -20.5817   -9.9797 C   0  0  0  0  0  0  0  0  0  0  0  0
   25.4747  -19.8101   -8.9595 N   0  0  0  0  0  0  0  0  0  0  0  0
   26.7944  -19.8576   -8.8090 C   0  0  0  0  0  0  0  0  0  0  0  0
   27.6983  -19.2675   -7.9362 C   0  0  0  0  0  0  0  0  0  0  0  0
   29.0497  -19.5372   -8.0575 C   0  0  0  0  0  0  0  0  0  0  0  0
   29.4747  -20.3937   -9.0511 C   0  0  0  0  0  0  0  0  0  0  0  0
   28.6051  -20.9963   -9.9340 C   0  0  0  0  0  0  0  0  0  0  0  0
   27.2539  -20.7118   -9.7941 C   0  0  0  0  0  0  0  0  0  0  0  0
   24.6230  -20.4215  -12.4770 C   0  0  0  0  0  0  0  0  0  0  0  0
   25.1590  -19.3198  -12.7320 O   0  0  0  0  0  0  0  0  0  0  0  0
   23.3724  -20.4221  -11.8963 O   0  0  0  0  0  0  0  0  0  0  0  0
  2  3  2  0
  2  1  1  0
  4  2  1  0
  5  4  1  0
  6  5  1  0
  6  7  1  6
  8 10  1  0
  8  6  1  0
  9  8  2  0
 11 10  1  0
 11 12  1  1
 12 13  1  0
 13 17  1  0
 14 13  2  0
 14 15  1  0
 15 16  1  0
 17 16  2  0
 18 11  1  0
 19 18  2  0
 20 18  1  0
 21 20  1  0
 22 23  1  0
 21 22  1  1
 23 31  1  0
 24 25  1  0
 24 23  2  0
 25 26  1  0
 26 31  2  0
 26 27  1  0
 27 28  2  0
 28 29  1  0
 30 29  2  0
 31 30  1  0
 32 21  1  0
 32 34  1  0
 33 32  2  0
M  END
$$$$
