QHW.pdb
     RDKit          3D

 34 36  0  0  1  0  0  0  0  0999 V2000
   22.5156  -16.8692  -16.0858 N   0  0  0  0  0  0  0  0  0  0  0  0
   23.2838  -15.7683  -15.6596 C   0  0  0  0  0  0  0  0  0  0  0  0
   23.1526  -14.6741  -16.2596 O   0  0  0  0  0  0  0  0  0  0  0  0
   24.2570  -15.8398  -14.5170 C   0  0  0  0  0  0  0  0  0  0  0  0
   24.3030  -17.2176  -13.9558 C   0  0  0  0  0  0  0  0  0  0  0  0
   25.4659  -17.9823  -14.4947 C   0  0  2  0  0  0  0  0  0  0  0  0
   25.2105  -18.3871  -15.8902 N   0  0  0  0  0  0  0  0  0  0  0  0
   25.6974  -19.1949  -13.7240 C   0  0  0  0  0  0  0  0  0  0  0  0
   24.7389  -20.0129  -13.4797 O   0  0  0  0  0  0  0  0  0  0  0  0
   26.9798  -19.5430  -13.2022 N   0  0  0  0  0  0  0  0  0  0  0  0
   27.2236  -20.7803  -12.5022 C   0  0  1  0  0  0  0  0  0  0  0  0
   28.4579  -21.4883  -12.9877 C   0  0  0  0  0  0  0  0  0  0  0  0
   28.3145  -21.9411  -14.4039 C   0  0  0  0  0  0  0  0  0  0  0  0
   27.2173  -21.7331  -15.2150 C   0  0  0  0  0  0  0  0  0  0  0  0
   27.4570  -22.2773  -16.4000 N   0  0  0  0  0  0  0  0  0  0  0  0
   28.6715  -22.8341  -16.3944 C   0  0  0  0  0  0  0  0  0  0  0  0
   29.1865  -22.6226  -15.1693 N   0  0  0  0  0  0  0  0  0  0  0  0
   27.1914  -20.6167  -11.0386 C   0  0  0  0  0  0  0  0  0  0  0  0
   28.2062  -20.1030  -10.4530 O   0  0  0  0  0  0  0  0  0  0  0  0
   26.1218  -20.9817  -10.2024 N   0  0  0  0  0  0  0  0  0  0  0  0
   26.1405  -20.8657   -8.7731 C   0  0  1  0  0  0  0  0  0  0  0  0
   26.2784  -19.4239   -8.3217 C   0  0  0  0  0  0  0  0  0  0  0  0
   27.5045  -19.2302   -7.5296 C   0  0  0  0  0  0  0  0  0  0  0  0
   28.6584  -18.5429   -7.8754 C   0  0  0  0  0  0  0  0  0  0  0  0
   29.5167  -18.6228   -6.8466 N   0  0  0  0  0  0  0  0  0  0  0  0
   29.0045  -19.3209   -5.8382 C   0  0  0  0  0  0  0  0  0  0  0  0
   29.4578  -19.6928   -4.5800 C   0  0  0  0  0  0  0  0  0  0  0  0
   28.6471  -20.4466   -3.7504 C   0  0  0  0  0  0  0  0  0  0  0  0
   27.3949  -20.8162   -4.1941 C   0  0  0  0  0  0  0  0  0  0  0  0
   26.9137  -20.4645   -5.4365 C   0  0  0  0  0  0  0  0  0  0  0  0
   27.7436  -19.7081   -6.2521 C   0  0  0  0  0  0  0  0  0  0  0  0
   24.9153  -21.4951   -8.2392 C   0  0  0  0  0  0  0  0  0  0  0  0
   23.9406  -21.7495   -8.9816 O   0  0  0  0  0  0  0  0  0  0  0  0
   24.8211  -21.8170   -6.9019 O   0  0  0  0  0  0  0  0  0  0  0  0
  2  3  2  0
  2  1  1  0
  4  2  1  0
  5  4  1  0
  6  5  1  0
  6  7  1  6
  8 10  1  0
  8  6  1  0
  9  8  2  0
 11 10  1  0
 11 12  1  1
 12 13  1  0
 13 17  1  0
 14 13  2  0
 14 15  1  0
 15 16  1  0
 17 16  2  0
 18 11  1  0
 19 18  2  0
 20 18  1  0
 21 20  1  0
 22 23  1  0
 21 22  1  6
 23 31  1  0
 24 25  1  0
 24 23  2  0
 25 26  1  0
 26 31  2  0
 26 27  1  0
 27 28  2  0
 28 29  1  0
 30 29  2  0
 31 30  1  0
 32 21  1  0
 32 34  1  0
 33 32  2  0
M  END
$$$$
