QHW.pdb
     RDKit          3D

 34 36  0  0  1  0  0  0  0  0999 V2000
   22.3903  -11.4326  -23.1321 N   0  0  0  0  0  0  0  0  0  0  0  0
   22.4040  -12.5951  -22.3370 C   0  0  0  0  0  0  0  0  0  0  0  0
   21.7653  -13.6011  -22.7301 O   0  0  0  0  0  0  0  0  0  0  0  0
   23.1489  -12.6905  -21.0354 C   0  0  0  0  0  0  0  0  0  0  0  0
   23.7666  -11.3810  -20.6904 C   0  0  0  0  0  0  0  0  0  0  0  0
   25.0033  -11.5647  -19.8752 C   0  0  2  0  0  0  0  0  0  0  0  0
   24.8492  -12.7136  -18.9625 N   0  0  0  0  0  0  0  0  0  0  0  0
   25.2705  -10.3907  -19.0578 C   0  0  0  0  0  0  0  0  0  0  0  0
   25.1014  -10.4215  -17.7860 O   0  0  0  0  0  0  0  0  0  0  0  0
   25.7286   -9.1562  -19.6093 N   0  0  0  0  0  0  0  0  0  0  0  0
   25.9829   -7.9904  -18.7988 C   0  0  1  0  0  0  0  0  0  0  0  0
   27.1377   -7.1719  -19.3056 C   0  0  0  0  0  0  0  0  0  0  0  0
   28.4459   -7.8498  -19.0598 C   0  0  0  0  0  0  0  0  0  0  0  0
   28.6340   -9.0151  -18.3443 C   0  0  0  0  0  0  0  0  0  0  0  0
   29.9273   -9.3071  -18.3424 N   0  0  0  0  0  0  0  0  0  0  0  0
   30.5930   -8.3755  -19.0308 C   0  0  0  0  0  0  0  0  0  0  0  0
   29.6775   -7.4897  -19.4647 N   0  0  0  0  0  0  0  0  0  0  0  0
   24.7687   -7.1903  -18.5642 C   0  0  0  0  0  0  0  0  0  0  0  0
   24.0162   -6.9051  -19.5588 O   0  0  0  0  0  0  0  0  0  0  0  0
   24.3476   -6.6972  -17.3167 N   0  0  0  0  0  0  0  0  0  0  0  0
   23.1327   -5.9641  -17.1084 C   0  0  1  0  0  0  0  0  0  0  0  0
   22.2499   -6.6134  -16.0594 C   0  0  0  0  0  0  0  0  0  0  0  0
   21.7130   -7.8983  -16.5382 C   0  0  0  0  0  0  0  0  0  0  0  0
   22.1991   -9.1773  -16.3118 C   0  0  0  0  0  0  0  0  0  0  0  0
   21.3918  -10.0480  -16.9376 N   0  0  0  0  0  0  0  0  0  0  0  0
   20.3991   -9.4267  -17.5660 C   0  0  0  0  0  0  0  0  0  0  0  0
   19.3231   -9.8413  -18.3389 C   0  0  0  0  0  0  0  0  0  0  0  0
   18.4486   -8.9053  -18.8613 C   0  0  0  0  0  0  0  0  0  0  0  0
   18.6655   -7.5686  -18.6014 C   0  0  0  0  0  0  0  0  0  0  0  0
   19.7229   -7.1225  -17.8386 C   0  0  0  0  0  0  0  0  0  0  0  0
   20.5875   -8.0786  -17.3245 C   0  0  0  0  0  0  0  0  0  0  0  0
   23.4834   -4.5747  -16.7497 C   0  0  0  0  0  0  0  0  0  0  0  0
   24.6758   -4.2234  -16.6057 O   0  0  0  0  0  0  0  0  0  0  0  0
   22.4960   -3.6303  -16.5652 O   0  0  0  0  0  0  0  0  0  0  0  0
  2  3  2  0
  2  1  1  0
  4  2  1  0
  5  4  1  0
  6  5  1  0
  6  7  1  1
  8 10  1  0
  8  6  1  0
  9  8  2  0
 11 10  1  0
 11 12  1  6
 12 13  1  0
 13 17  1  0
 14 13  2  0
 14 15  1  0
 15 16  1  0
 17 16  2  0
 18 11  1  0
 19 18  2  0
 20 18  1  0
 21 20  1  0
 22 23  1  0
 21 22  1  1
 23 31  1  0
 24 25  1  0
 24 23  2  0
 25 26  1  0
 26 31  2  0
 26 27  1  0
 27 28  2  0
 28 29  1  0
 30 29  2  0
 31 30  1  0
 32 21  1  0
 32 34  1  0
 33 32  2  0
M  END
$$$$
