QHW.pdb
     RDKit          3D

 34 36  0  0  1  0  0  0  0  0999 V2000
   25.0624  -22.6292  -22.0276 N   0  0  0  0  0  0  0  0  0  0  0  0
   24.4305  -21.4671  -22.5112 C   0  0  0  0  0  0  0  0  0  0  0  0
   24.7312  -21.0501  -23.6559 O   0  0  0  0  0  0  0  0  0  0  0  0
   23.4097  -20.6985  -21.7205 C   0  0  0  0  0  0  0  0  0  0  0  0
   23.1397  -21.3729  -20.4215 C   0  0  0  0  0  0  0  0  0  0  0  0
   23.7430  -20.6174  -19.2845 C   0  0  2  0  0  0  0  0  0  0  0  0
   25.0014  -19.9738  -19.7074 N   0  0  0  0  0  0  0  0  0  0  0  0
   24.0583  -21.5051  -18.1750 C   0  0  0  0  0  0  0  0  0  0  0  0
   23.1358  -22.1734  -17.5839 O   0  0  0  0  0  0  0  0  0  0  0  0
   25.3873  -21.6839  -17.6854 N   0  0  0  0  0  0  0  0  0  0  0  0
   25.6937  -22.5399  -16.5656 C   0  0  1  0  0  0  0  0  0  0  0  0
   26.8280  -23.4846  -16.8505 C   0  0  0  0  0  0  0  0  0  0  0  0
   26.3379  -24.7949  -17.3744 C   0  0  0  0  0  0  0  0  0  0  0  0
   25.6747  -24.9944  -18.5683 C   0  0  0  0  0  0  0  0  0  0  0  0
   25.4003  -26.2858  -18.6900 N   0  0  0  0  0  0  0  0  0  0  0  0
   25.8597  -26.9393  -17.6190 C   0  0  0  0  0  0  0  0  0  0  0  0
   26.4308  -26.0181  -16.8215 N   0  0  0  0  0  0  0  0  0  0  0  0
   25.8718  -21.7873  -15.3119 C   0  0  0  0  0  0  0  0  0  0  0  0
   26.4978  -20.6721  -15.3457 O   0  0  0  0  0  0  0  0  0  0  0  0
   25.4063  -22.1901  -14.0479 N   0  0  0  0  0  0  0  0  0  0  0  0
   25.7071  -21.5071  -12.8233 C   0  0  1  0  0  0  0  0  0  0  0  0
   24.5936  -20.5629  -12.4108 C   0  0  0  0  0  0  0  0  0  0  0  0
   24.7835  -20.0886  -11.0297 C   0  0  0  0  0  0  0  0  0  0  0  0
   25.9022  -19.4940  -10.4654 C   0  0  0  0  0  0  0  0  0  0  0  0
   25.6275  -19.2226   -9.1798 N   0  0  0  0  0  0  0  0  0  0  0  0
   24.3953  -19.6003   -8.8549 C   0  0  0  0  0  0  0  0  0  0  0  0
   23.6348  -19.5530   -7.6946 C   0  0  0  0  0  0  0  0  0  0  0  0
   22.3438  -20.0500   -7.6961 C   0  0  0  0  0  0  0  0  0  0  0  0
   21.8346  -20.5866   -8.8598 C   0  0  0  0  0  0  0  0  0  0  0  0
   22.5616  -20.6493  -10.0287 C   0  0  0  0  0  0  0  0  0  0  0  0
   23.8543  -20.1449  -10.0047 C   0  0  0  0  0  0  0  0  0  0  0  0
   25.9852  -22.5183  -11.7829 C   0  0  0  0  0  0  0  0  0  0  0  0
   25.3787  -23.6127  -11.7636 O   0  0  0  0  0  0  0  0  0  0  0  0
   26.9259  -22.2740  -10.8050 O   0  0  0  0  0  0  0  0  0  0  0  0
  2  3  2  0
  2  1  1  0
  4  2  1  0
  5  4  1  0
  6  5  1  0
  6  7  1  6
  8 10  1  0
  8  6  1  0
  9  8  2  0
 11 10  1  0
 11 12  1  6
 12 13  1  0
 13 17  1  0
 14 13  2  0
 14 15  1  0
 15 16  1  0
 17 16  2  0
 18 11  1  0
 19 18  2  0
 20 18  1  0
 21 20  1  0
 22 23  1  0
 21 22  1  1
 23 31  1  0
 24 25  1  0
 24 23  2  0
 25 26  1  0
 26 31  2  0
 26 27  1  0
 27 28  2  0
 28 29  1  0
 30 29  2  0
 31 30  1  0
 32 21  1  0
 32 34  1  0
 33 32  2  0
M  END
$$$$
