QHW.pdb
     RDKit          3D

 34 36  0  0  1  0  0  0  0  0999 V2000
   26.9631  -16.6884  -17.0429 N   0  0  0  0  0  0  0  0  0  0  0  0
   26.1221  -17.2874  -18.0007 C   0  0  0  0  0  0  0  0  0  0  0  0
   26.4783  -17.2795  -19.2039 O   0  0  0  0  0  0  0  0  0  0  0  0
   24.8136  -17.9383  -17.6515 C   0  0  0  0  0  0  0  0  0  0  0  0
   24.5312  -17.7955  -16.1971 C   0  0  0  0  0  0  0  0  0  0  0  0
   25.2819  -18.8087  -15.3987 C   0  0  2  0  0  0  0  0  0  0  0  0
   25.3130  -20.1008  -16.1101 N   0  0  0  0  0  0  0  0  0  0  0  0
   24.6454  -19.0354  -14.1097 C   0  0  0  0  0  0  0  0  0  0  0  0
   24.2925  -18.0498  -13.3672 O   0  0  0  0  0  0  0  0  0  0  0  0
   24.3791  -20.3425  -13.6014 N   0  0  0  0  0  0  0  0  0  0  0  0
   23.7532  -20.5653  -12.3211 C   0  0  1  0  0  0  0  0  0  0  0  0
   22.5385  -21.4464  -12.4143 C   0  0  0  0  0  0  0  0  0  0  0  0
   21.4397  -20.7931  -13.1870 C   0  0  0  0  0  0  0  0  0  0  0  0
   21.4310  -19.4896  -13.6410 C   0  0  0  0  0  0  0  0  0  0  0  0
   20.2917  -19.2723  -14.2835 N   0  0  0  0  0  0  0  0  0  0  0  0
   19.5541  -20.3861  -14.2669 C   0  0  0  0  0  0  0  0  0  0  0  0
   20.2655  -21.3092  -13.5940 N   0  0  0  0  0  0  0  0  0  0  0  0
   24.7109  -21.0112  -11.2946 C   0  0  0  0  0  0  0  0  0  0  0  0
   25.1231  -22.2221  -11.3201 O   0  0  0  0  0  0  0  0  0  0  0  0
   25.2284  -20.2099  -10.2618 N   0  0  0  0  0  0  0  0  0  0  0  0
   25.7623  -20.7237   -9.0338 C   0  0  1  0  0  0  0  0  0  0  0  0
   26.5320  -19.6679   -8.2629 C   0  0  0  0  0  0  0  0  0  0  0  0
   27.7936  -20.2114   -7.7327 C   0  0  0  0  0  0  0  0  0  0  0  0
   28.7020  -21.0543   -8.3555 C   0  0  0  0  0  0  0  0  0  0  0  0
   29.7088  -21.2894   -7.4996 N   0  0  0  0  0  0  0  0  0  0  0  0
   29.5258  -20.6547   -6.3463 C   0  0  0  0  0  0  0  0  0  0  0  0
   30.2410  -20.5613   -5.1602 C   0  0  0  0  0  0  0  0  0  0  0  0
   29.7531  -19.7908   -4.1201 C   0  0  0  0  0  0  0  0  0  0  0  0
   28.5563  -19.1258   -4.2842 C   0  0  0  0  0  0  0  0  0  0  0  0
   27.8210  -19.1965   -5.4474 C   0  0  0  0  0  0  0  0  0  0  0  0
   28.3292  -19.9750   -6.4778 C   0  0  0  0  0  0  0  0  0  0  0  0
   24.6487  -21.2825   -8.2402 C   0  0  0  0  0  0  0  0  0  0  0  0
   23.5052  -20.7760   -8.2809 O   0  0  0  0  0  0  0  0  0  0  0  0
   24.8492  -22.3820   -7.4328 O   0  0  0  0  0  0  0  0  0  0  0  0
  2  3  2  0
  2  1  1  0
  4  2  1  0
  5  4  1  0
  6  5  1  0
  6  7  1  6
  8 10  1  0
  8  6  1  0
  9  8  2  0
 11 10  1  0
 11 12  1  6
 12 13  1  0
 13 17  1  0
 14 13  2  0
 14 15  1  0
 15 16  1  0
 17 16  2  0
 18 11  1  0
 19 18  2  0
 20 18  1  0
 21 20  1  0
 22 23  1  0
 21 22  1  1
 23 31  1  0
 24 25  1  0
 24 23  2  0
 25 26  1  0
 26 31  2  0
 26 27  1  0
 27 28  2  0
 28 29  1  0
 30 29  2  0
 31 30  1  0
 32 21  1  0
 32 34  1  0
 33 32  2  0
M  END
$$$$
