QHW.pdb
     RDKit          3D

 34 36  0  0  1  0  0  0  0  0999 V2000
   29.8848  -17.9951  -19.9445 N   0  0  0  0  0  0  0  0  0  0  0  0
   29.2940  -16.9253  -19.2443 C   0  0  0  0  0  0  0  0  0  0  0  0
   30.0212  -16.2077  -18.5158 O   0  0  0  0  0  0  0  0  0  0  0  0
   27.8294  -16.5995  -19.3270 C   0  0  0  0  0  0  0  0  0  0  0  0
   27.1741  -16.8032  -18.0063 C   0  0  0  0  0  0  0  0  0  0  0  0
   27.1652  -18.2459  -17.6239 C   0  0  2  0  0  0  0  0  0  0  0  0
   26.6301  -19.0652  -18.7280 N   0  0  0  0  0  0  0  0  0  0  0  0
   26.3197  -18.4741  -16.4616 C   0  0  0  0  0  0  0  0  0  0  0  0
   26.3922  -17.7086  -15.4341 O   0  0  0  0  0  0  0  0  0  0  0  0
   25.3755  -19.5427  -16.3939 N   0  0  0  0  0  0  0  0  0  0  0  0
   24.5558  -19.7822  -15.2315 C   0  0  1  0  0  0  0  0  0  0  0  0
   23.2562  -20.4595  -15.5673 C   0  0  0  0  0  0  0  0  0  0  0  0
   22.3951  -20.6336  -14.3592 C   0  0  0  0  0  0  0  0  0  0  0  0
   22.6973  -20.2121  -13.0800 C   0  0  0  0  0  0  0  0  0  0  0  0
   21.6950  -20.5423  -12.2772 N   0  0  0  0  0  0  0  0  0  0  0  0
   20.7475  -21.1646  -12.9842 C   0  0  0  0  0  0  0  0  0  0  0  0
   21.1861  -21.2150  -14.2555 N   0  0  0  0  0  0  0  0  0  0  0  0
   25.2938  -20.4561  -14.1494 C   0  0  0  0  0  0  0  0  0  0  0  0
   25.8938  -21.5569  -14.4046 O   0  0  0  0  0  0  0  0  0  0  0  0
   25.4038  -19.9911  -12.8272 N   0  0  0  0  0  0  0  0  0  0  0  0
   26.1978  -20.6236  -11.8141 C   0  0  1  0  0  0  0  0  0  0  0  0
   27.1765  -19.6575  -11.1736 C   0  0  0  0  0  0  0  0  0  0  0  0
   28.0115  -20.3359  -10.1680 C   0  0  0  0  0  0  0  0  0  0  0  0
   28.8574  -21.4219  -10.3361 C   0  0  0  0  0  0  0  0  0  0  0  0
   29.4192  -21.7017   -9.1497 N   0  0  0  0  0  0  0  0  0  0  0  0
   28.9987  -20.8687   -8.2032 C   0  0  0  0  0  0  0  0  0  0  0  0
   29.2570  -20.7230   -6.8471 C   0  0  0  0  0  0  0  0  0  0  0  0
   28.6307  -19.7193   -6.1302 C   0  0  0  0  0  0  0  0  0  0  0  0
   27.7554  -18.8770   -6.7829 C   0  0  0  0  0  0  0  0  0  0  0  0
   27.4763  -18.9933   -8.1273 C   0  0  0  0  0  0  0  0  0  0  0  0
   28.1158  -20.0070   -8.8270 C   0  0  0  0  0  0  0  0  0  0  0  0
   25.2878  -21.2263  -10.8187 C   0  0  0  0  0  0  0  0  0  0  0  0
   24.2280  -20.6543  -10.4787 O   0  0  0  0  0  0  0  0  0  0  0  0
   25.5908  -22.4407  -10.2403 O   0  0  0  0  0  0  0  0  0  0  0  0
  2  3  2  0
  2  1  1  0
  4  2  1  0
  5  4  1  0
  6  5  1  0
  6  7  1  6
  8 10  1  0
  8  6  1  0
  9  8  2  0
 11 10  1  0
 11 12  1  6
 12 13  1  0
 13 17  1  0
 14 13  2  0
 14 15  1  0
 15 16  1  0
 17 16  2  0
 18 11  1  0
 19 18  2  0
 20 18  1  0
 21 20  1  0
 22 23  1  0
 21 22  1  1
 23 31  1  0
 24 25  1  0
 24 23  2  0
 25 26  1  0
 26 31  2  0
 26 27  1  0
 27 28  2  0
 28 29  1  0
 30 29  2  0
 31 30  1  0
 32 21  1  0
 32 34  1  0
 33 32  2  0
M  END
$$$$
