QHW.pdb
     RDKit          3D

 34 36  0  0  1  0  0  0  0  0999 V2000
   31.5044  -18.3082  -17.7724 N   0  0  0  0  0  0  0  0  0  0  0  0
   31.1220  -17.1780  -18.5208 C   0  0  0  0  0  0  0  0  0  0  0  0
   31.7374  -16.9235  -19.5843 O   0  0  0  0  0  0  0  0  0  0  0  0
   30.0087  -16.2577  -18.1065 C   0  0  0  0  0  0  0  0  0  0  0  0
   29.4666  -16.6584  -16.7796 C   0  0  0  0  0  0  0  0  0  0  0  0
   28.8292  -18.0065  -16.8407 C   0  0  2  0  0  0  0  0  0  0  0  0
   28.2707  -18.2486  -18.1845 N   0  0  0  0  0  0  0  0  0  0  0  0
   27.7344  -18.1115  -15.8876 C   0  0  0  0  0  0  0  0  0  0  0  0
   27.8918  -17.7619  -14.6628 O   0  0  0  0  0  0  0  0  0  0  0  0
   26.4427  -18.6000  -16.2492 N   0  0  0  0  0  0  0  0  0  0  0  0
   25.3593  -18.7054  -15.3027 C   0  0  1  0  0  0  0  0  0  0  0  0
   24.0358  -18.2970  -15.8876 C   0  0  0  0  0  0  0  0  0  0  0  0
   23.9800  -16.8289  -16.1572 C   0  0  0  0  0  0  0  0  0  0  0  0
   23.9049  -15.8316  -15.2060 C   0  0  0  0  0  0  0  0  0  0  0  0
   23.8735  -14.6586  -15.8233 N   0  0  0  0  0  0  0  0  0  0  0  0
   23.9254  -14.8516  -17.1443 C   0  0  0  0  0  0  0  0  0  0  0  0
   23.9902  -16.1818  -17.3370 N   0  0  0  0  0  0  0  0  0  0  0  0
   25.3151  -20.0198  -14.6394 C   0  0  0  0  0  0  0  0  0  0  0  0
   25.5402  -21.0696  -15.3351 O   0  0  0  0  0  0  0  0  0  0  0  0
   25.0414  -20.2351  -13.2773 N   0  0  0  0  0  0  0  0  0  0  0  0
   24.9637  -21.5301  -12.6659 C   0  0  1  0  0  0  0  0  0  0  0  0
   26.1774  -21.8259  -11.8051 C   0  0  0  0  0  0  0  0  0  0  0  0
   26.1330  -21.0655  -10.5448 C   0  0  0  0  0  0  0  0  0  0  0  0
   25.1067  -20.2775  -10.0456 C   0  0  0  0  0  0  0  0  0  0  0  0
   25.5002  -19.7784   -8.8634 N   0  0  0  0  0  0  0  0  0  0  0  0
   26.7248  -20.1861   -8.5460 C   0  0  0  0  0  0  0  0  0  0  0  0
   27.5766  -19.9705   -7.4713 C   0  0  0  0  0  0  0  0  0  0  0  0
   28.8263  -20.5634   -7.4528 C   0  0  0  0  0  0  0  0  0  0  0  0
   29.2035  -21.3630   -8.5110 C   0  0  0  0  0  0  0  0  0  0  0  0
   28.3833  -21.5981   -9.5931 C   0  0  0  0  0  0  0  0  0  0  0  0
   27.1341  -20.9935   -9.5909 C   0  0  0  0  0  0  0  0  0  0  0  0
   23.7080  -21.6043  -11.8914 C   0  0  0  0  0  0  0  0  0  0  0  0
   23.2626  -22.6995  -11.4815 O   0  0  0  0  0  0  0  0  0  0  0  0
   22.9965  -20.4591  -11.6026 O   0  0  0  0  0  0  0  0  0  0  0  0
  2  3  2  0
  2  1  1  0
  4  2  1  0
  5  4  1  0
  6  5  1  0
  6  7  1  6
  8 10  1  0
  8  6  1  0
  9  8  2  0
 11 10  1  0
 11 12  1  6
 12 13  1  0
 13 17  1  0
 14 13  2  0
 14 15  1  0
 15 16  1  0
 17 16  2  0
 18 11  1  0
 19 18  2  0
 20 18  1  0
 21 20  1  0
 22 23  1  0
 21 22  1  1
 23 31  1  0
 24 25  1  0
 24 23  2  0
 25 26  1  0
 26 31  2  0
 26 27  1  0
 27 28  2  0
 28 29  1  0
 30 29  2  0
 31 30  1  0
 32 21  1  0
 32 34  1  0
 33 32  2  0
M  END
$$$$
