QHW.pdb
     RDKit          3D

 34 36  0  0  1  0  0  0  0  0999 V2000
   21.9766  -35.1370   10.4807 N   0  0  0  0  0  0  0  0  0  0  0  0
   22.4422  -33.9911    9.8071 C   0  0  0  0  0  0  0  0  0  0  0  0
   21.6750  -33.0042    9.6965 O   0  0  0  0  0  0  0  0  0  0  0  0
   23.8182  -33.8915    9.2115 C   0  0  0  0  0  0  0  0  0  0  0  0
   24.6639  -35.0320    9.6576 C   0  0  0  0  0  0  0  0  0  0  0  0
   24.9389  -35.9736    8.5327 C   0  0  2  0  0  0  0  0  0  0  0  0
   25.8069  -37.0762    8.9882 N   0  0  0  0  0  0  0  0  0  0  0  0
   25.6265  -35.2990    7.4418 C   0  0  0  0  0  0  0  0  0  0  0  0
   26.8402  -34.9030    7.5733 O   0  0  0  0  0  0  0  0  0  0  0  0
   25.0058  -35.0413    6.1824 N   0  0  0  0  0  0  0  0  0  0  0  0
   25.6793  -34.3473    5.1122 C   0  0  1  0  0  0  0  0  0  0  0  0
   25.0519  -34.6021    3.7698 C   0  0  0  0  0  0  0  0  0  0  0  0
   25.3775  -35.9670    3.2576 C   0  0  0  0  0  0  0  0  0  0  0  0
   26.2927  -36.8425    3.8062 C   0  0  0  0  0  0  0  0  0  0  0  0
   26.3069  -37.9513    3.0794 N   0  0  0  0  0  0  0  0  0  0  0  0
   25.4342  -37.8337    2.0747 C   0  0  0  0  0  0  0  0  0  0  0  0
   24.8719  -36.6168    2.1934 N   0  0  0  0  0  0  0  0  0  0  0  0
   25.8661  -32.9144    5.3981 C   0  0  0  0  0  0  0  0  0  0  0  0
   24.8622  -32.2292    5.7976 O   0  0  0  0  0  0  0  0  0  0  0  0
   27.0760  -32.2101    5.2698 N   0  0  0  0  0  0  0  0  0  0  0  0
   27.2396  -30.8232    5.5963 C   0  0  1  0  0  0  0  0  0  0  0  0
   26.8389  -30.5255    7.0289 C   0  0  0  0  0  0  0  0  0  0  0  0
   27.0451  -29.1042    7.3539 C   0  0  0  0  0  0  0  0  0  0  0  0
   26.2027  -28.0299    7.1099 C   0  0  0  0  0  0  0  0  0  0  0  0
   26.7943  -26.9200    7.5785 N   0  0  0  0  0  0  0  0  0  0  0  0
   27.9781  -27.1903    8.1189 C   0  0  0  0  0  0  0  0  0  0  0  0
   28.9686  -26.4315    8.7273 C   0  0  0  0  0  0  0  0  0  0  0  0
   30.1172  -27.0448    9.1945 C   0  0  0  0  0  0  0  0  0  0  0  0
   30.2558  -28.4085    9.0452 C   0  0  0  0  0  0  0  0  0  0  0  0
   29.2928  -29.1915    8.4465 C   0  0  0  0  0  0  0  0  0  0  0  0
   28.1487  -28.5556    7.9852 C   0  0  0  0  0  0  0  0  0  0  0  0
   28.6415  -30.4440    5.3265 C   0  0  0  0  0  0  0  0  0  0  0  0
   28.9955  -29.2439    5.3019 O   0  0  0  0  0  0  0  0  0  0  0  0
   29.5951  -31.4125    5.0947 O   0  0  0  0  0  0  0  0  0  0  0  0
  2  3  2  0
  2  1  1  0
  4  2  1  0
  5  4  1  0
  6  5  1  0
  6  7  1  1
  8 10  1  0
  8  6  1  0
  9  8  2  0
 11 10  1  0
 11 12  1  6
 12 13  1  0
 13 17  1  0
 14 13  2  0
 14 15  1  0
 15 16  1  0
 17 16  2  0
 18 11  1  0
 19 18  2  0
 20 18  1  0
 21 20  1  0
 22 23  1  0
 21 22  1  1
 23 31  1  0
 24 25  1  0
 24 23  2  0
 25 26  1  0
 26 31  2  0
 26 27  1  0
 27 28  2  0
 28 29  1  0
 30 29  2  0
 31 30  1  0
 32 21  1  0
 32 34  1  0
 33 32  2  0
M  END
$$$$
