QHW.pdb
     RDKit          3D

 34 36  0  0  1  0  0  0  0  0999 V2000
   32.6157  -26.7307  -17.3366 N   0  0  0  0  0  0  0  0  0  0  0  0
   32.9331  -25.3635  -17.4531 C   0  0  0  0  0  0  0  0  0  0  0  0
   33.7336  -24.8588  -16.6292 O   0  0  0  0  0  0  0  0  0  0  0  0
   32.3578  -24.4755  -18.5201 C   0  0  0  0  0  0  0  0  0  0  0  0
   31.6454  -23.3200  -17.9094 C   0  0  0  0  0  0  0  0  0  0  0  0
   30.5474  -23.7771  -17.0078 C   0  0  2  0  0  0  0  0  0  0  0  0
   29.5085  -24.4821  -17.7825 N   0  0  0  0  0  0  0  0  0  0  0  0
   29.9087  -22.6485  -16.3472 C   0  0  0  0  0  0  0  0  0  0  0  0
   30.6039  -21.7828  -15.7034 O   0  0  0  0  0  0  0  0  0  0  0  0
   28.4969  -22.4385  -16.3742 N   0  0  0  0  0  0  0  0  0  0  0  0
   27.8624  -21.3377  -15.6914 C   0  0  1  0  0  0  0  0  0  0  0  0
   27.0441  -20.4770  -16.6134 C   0  0  0  0  0  0  0  0  0  0  0  0
   26.3845  -19.3543  -15.8814 C   0  0  0  0  0  0  0  0  0  0  0  0
   26.9815  -18.1668  -15.5090 C   0  0  0  0  0  0  0  0  0  0  0  0
   26.0842  -17.4204  -14.8801 N   0  0  0  0  0  0  0  0  0  0  0  0
   24.9213  -18.0759  -14.8270 C   0  0  0  0  0  0  0  0  0  0  0  0
   25.1164  -19.2568  -15.4420 N   0  0  0  0  0  0  0  0  0  0  0  0
   27.1193  -21.7686  -14.4948 C   0  0  0  0  0  0  0  0  0  0  0  0
   26.3708  -22.8032  -14.5729 O   0  0  0  0  0  0  0  0  0  0  0  0
   27.1562  -21.1329  -13.2413 N   0  0  0  0  0  0  0  0  0  0  0  0
   26.4756  -21.6132  -12.0739 C   0  0  1  0  0  0  0  0  0  0  0  0
   27.4129  -21.7617  -10.8903 C   0  0  0  0  0  0  0  0  0  0  0  0
   26.9167  -21.0141   -9.7227 C   0  0  0  0  0  0  0  0  0  0  0  0
   25.6355  -20.5431   -9.4777 C   0  0  0  0  0  0  0  0  0  0  0  0
   25.6392  -19.9213   -8.2881 N   0  0  0  0  0  0  0  0  0  0  0  0
   26.8439  -19.9499   -7.7274 C   0  0  0  0  0  0  0  0  0  0  0  0
   27.3784  -19.4700   -6.5396 C   0  0  0  0  0  0  0  0  0  0  0  0
   28.7159  -19.6763   -6.2527 C   0  0  0  0  0  0  0  0  0  0  0  0
   29.4971  -20.3602   -7.1601 C   0  0  0  0  0  0  0  0  0  0  0  0
   28.9992  -20.8499   -8.3480 C   0  0  0  0  0  0  0  0  0  0  0  0
   27.6550  -20.6317   -8.6154 C   0  0  0  0  0  0  0  0  0  0  0  0
   25.3558  -20.6963  -11.7780 C   0  0  0  0  0  0  0  0  0  0  0  0
   25.3535  -19.5182  -12.1998 O   0  0  0  0  0  0  0  0  0  0  0  0
   24.2828  -21.1241  -11.0252 O   0  0  0  0  0  0  0  0  0  0  0  0
  2  3  2  0
  2  1  1  0
  4  2  1  0
  5  4  1  0
  6  5  1  0
  6  7  1  6
  8 10  1  0
  8  6  1  0
  9  8  2  0
 11 10  1  0
 11 12  1  6
 12 13  1  0
 13 17  1  0
 14 13  2  0
 14 15  1  0
 15 16  1  0
 17 16  2  0
 18 11  1  0
 19 18  2  0
 20 18  1  0
 21 20  1  0
 22 23  1  0
 21 22  1  1
 23 31  1  0
 24 25  1  0
 24 23  2  0
 25 26  1  0
 26 31  2  0
 26 27  1  0
 27 28  2  0
 28 29  1  0
 30 29  2  0
 31 30  1  0
 32 21  1  0
 32 34  1  0
 33 32  2  0
M  END
$$$$
