QHW.pdb
     RDKit          3D

 34 36  0  0  1  0  0  0  0  0999 V2000
   11.4037  -16.3017   10.1373 N   0  0  0  0  0  0  0  0  0  0  0  0
   11.8111  -15.3765   11.1179 C   0  0  0  0  0  0  0  0  0  0  0  0
   11.7708  -15.7203   12.3241 O   0  0  0  0  0  0  0  0  0  0  0  0
   12.2938  -13.9918   10.7897 C   0  0  0  0  0  0  0  0  0  0  0  0
   12.2382  -13.7540    9.3215 C   0  0  0  0  0  0  0  0  0  0  0  0
   12.9063  -12.4704    8.9561 C   0  0  2  0  0  0  0  0  0  0  0  0
   12.0195  -11.6560    8.1035 N   0  0  0  0  0  0  0  0  0  0  0  0
   14.1304  -12.7122    8.2071 C   0  0  0  0  0  0  0  0  0  0  0  0
   14.1412  -12.6497    6.9253 O   0  0  0  0  0  0  0  0  0  0  0  0
   15.3708  -13.0274    8.8396 N   0  0  0  0  0  0  0  0  0  0  0  0
   16.5857  -13.2554    8.0962 C   0  0  1  0  0  0  0  0  0  0  0  0
   17.7200  -12.3822    8.5559 C   0  0  0  0  0  0  0  0  0  0  0  0
   18.8175  -12.3233    7.5442 C   0  0  0  0  0  0  0  0  0  0  0  0
   18.6887  -11.9216    6.2300 C   0  0  0  0  0  0  0  0  0  0  0  0
   19.8752  -12.0026    5.6439 N   0  0  0  0  0  0  0  0  0  0  0  0
   20.7764  -12.4426    6.5267 C   0  0  0  0  0  0  0  0  0  0  0  0
   20.1187  -12.6354    7.6848 N   0  0  0  0  0  0  0  0  0  0  0  0
   16.9473  -14.6817    8.0291 C   0  0  0  0  0  0  0  0  0  0  0  0
   16.8201  -15.4002    9.0800 O   0  0  0  0  0  0  0  0  0  0  0  0
   17.4319  -15.3456    6.8885 N   0  0  0  0  0  0  0  0  0  0  0  0
   17.7761  -16.7374    6.8516 C   0  0  1  0  0  0  0  0  0  0  0  0
   18.3988  -17.1338    5.5263 C   0  0  0  0  0  0  0  0  0  0  0  0
   18.4986  -18.5978    5.4030 C   0  0  0  0  0  0  0  0  0  0  0  0
   17.5228  -19.5013    5.0091 C   0  0  0  0  0  0  0  0  0  0  0  0
   18.0565  -20.7325    5.0397 N   0  0  0  0  0  0  0  0  0  0  0  0
   19.3267  -20.7032    5.4298 C   0  0  0  0  0  0  0  0  0  0  0  0
   20.3089  -21.6641    5.6268 C   0  0  0  0  0  0  0  0  0  0  0  0
   21.5692  -21.2843    6.0524 C   0  0  0  0  0  0  0  0  0  0  0  0
   21.8260  -19.9477    6.2740 C   0  0  0  0  0  0  0  0  0  0  0  0
   20.8748  -18.9681    6.0884 C   0  0  0  0  0  0  0  0  0  0  0  0
   19.6176  -19.3716    5.6611 C   0  0  0  0  0  0  0  0  0  0  0  0
   18.6730  -17.0251    7.9895 C   0  0  0  0  0  0  0  0  0  0  0  0
   19.5950  -16.2393    8.3034 O   0  0  0  0  0  0  0  0  0  0  0  0
   18.5106  -18.1742    8.7339 O   0  0  0  0  0  0  0  0  0  0  0  0
  2  3  2  0
  2  1  1  0
  4  2  1  0
  5  4  1  0
  6  5  1  0
  6  7  1  6
  8 10  1  0
  8  6  1  0
  9  8  2  0
 11 10  1  0
 11 12  1  1
 12 13  1  0
 13 17  1  0
 14 13  2  0
 14 15  1  0
 15 16  1  0
 17 16  2  0
 18 11  1  0
 19 18  2  0
 20 18  1  0
 21 20  1  0
 22 23  1  0
 21 22  1  6
 23 31  1  0
 24 25  1  0
 24 23  2  0
 25 26  1  0
 26 31  2  0
 26 27  1  0
 27 28  2  0
 28 29  1  0
 30 29  2  0
 31 30  1  0
 32 21  1  0
 32 34  1  0
 33 32  2  0
M  END
$$$$
