VLF.pdb
     RDKit          3D

 27 27  0  0  1  0  0  0  0  0999 V2000
    6.5171  -20.7039   21.4572 C   0  0  0  0  0  0  0  0  0  0  0  0
    7.4792  -19.6281   21.9222 C   0  0  1  0  0  0  0  0  0  0  0  0
    8.6839  -20.2931   22.5073 C   0  0  0  0  0  0  0  0  0  0  0  0
    7.8024  -18.7766   20.7082 C   0  0  2  0  0  0  0  0  0  0  0  0
    8.3824  -19.6151   19.7011 N   0  0  0  0  0  0  0  0  0  0  0  0
    8.6168  -17.6016   21.0298 C   0  0  0  0  0  0  0  0  0  0  0  0
    9.8816  -17.7101   20.8807 O   0  0  0  0  0  0  0  0  0  0  0  0
    6.6497  -12.5623   20.1293 C   0  0  0  0  0  0  0  0  0  0  0  0
    7.5870  -13.8286   20.1149 C   0  0  1  0  0  0  0  0  0  0  0  0
    8.6804  -13.4365   19.1388 C   0  0  0  0  0  0  0  0  0  0  0  0
    8.0126  -14.0281   21.5056 C   0  0  0  0  0  0  0  0  0  0  0  0
    8.8626  -15.2077   21.8118 C   0  0  2  0  0  0  0  0  0  0  0  0
    8.0272  -16.4160   21.4799 N   0  0  0  0  0  0  0  0  0  0  0  0
    9.2325  -15.3558   23.2074 C   0  0  0  0  0  0  0  0  0  0  0  0
   10.2751  -14.7435   23.6719 O   0  0  0  0  0  0  0  0  0  0  0  0
    8.5535  -16.1172   24.1987 N   0  0  0  0  0  0  0  0  0  0  0  0
    9.0226  -16.1036   25.5930 C   0  0  1  0  0  0  0  0  0  0  0  0
    7.7231  -15.8460   26.3865 C   0  0  0  0  0  0  0  0  0  0  0  0
    7.4466  -14.4114   26.3811 C   0  0  0  0  0  0  0  0  0  0  0  0
    6.1865  -13.9687   25.9808 C   0  0  0  0  0  0  0  0  0  0  0  0
    5.8814  -12.6228   25.9703 C   0  0  0  0  0  0  0  0  0  0  0  0
    6.8543  -11.7471   26.3642 C   0  0  0  0  0  0  0  0  0  0  0  0
    8.1102  -12.1766   26.7640 C   0  0  0  0  0  0  0  0  0  0  0  0
    8.4096  -13.5202   26.7728 C   0  0  0  0  0  0  0  0  0  0  0  0
    9.6044  -17.3838   25.9318 C   0  0  0  0  0  0  0  0  0  0  0  0
    9.6339  -18.3078   25.0780 O   0  0  0  0  0  0  0  0  0  0  0  0
   10.1431  -17.6569   27.1613 O   0  0  0  0  0  0  0  0  0  0  0  0
  2  1  1  6
  3  2  1  0
  4  5  1  6
  4  2  1  0
  6  4  1  0
  7  6  2  0
  9  8  1  1
  9 11  1  0
 10  9  1  0
 12 11  1  1
 12 13  1  0
 13  6  1  0
 14 16  1  0
 14 12  1  0
 15 14  2  0
 17 25  1  0
 17 16  1  0
 17 18  1  1
 19 18  1  0
 19 24  2  0
 20 19  1  0
 21 20  2  0
 21 22  1  0
 22 23  2  0
 23 24  1  0
 25 27  1  0
 26 25  2  0
M  END
$$$$
