VLF.pdb
     RDKit          3D

 27 27  0  0  1  0  0  0  0  0999 V2000
    8.3532  -19.1485   21.4736 C   0  0  0  0  0  0  0  0  0  0  0  0
    9.0448  -18.4540   20.3166 C   0  0  1  0  0  0  0  0  0  0  0  0
    8.7230  -19.1970   19.0595 C   0  0  0  0  0  0  0  0  0  0  0  0
    8.5435  -17.0216   20.3041 C   0  0  2  0  0  0  0  0  0  0  0  0
    9.0037  -16.3850   19.1055 N   0  0  0  0  0  0  0  0  0  0  0  0
    8.8812  -16.2831   21.5240 C   0  0  0  0  0  0  0  0  0  0  0  0
   10.1031  -15.9426   21.6803 O   0  0  0  0  0  0  0  0  0  0  0  0
    7.7030  -12.6124   25.3137 C   0  0  0  0  0  0  0  0  0  0  0  0
    6.9644  -13.9862   25.5361 C   0  0  1  0  0  0  0  0  0  0  0  0
    5.6073  -13.5652   26.0682 C   0  0  0  0  0  0  0  0  0  0  0  0
    6.9594  -14.6547   24.2291 C   0  0  0  0  0  0  0  0  0  0  0  0
    8.2447  -15.1997   23.7203 C   0  0  2  0  0  0  0  0  0  0  0  0
    7.9018  -15.9685   22.4715 N   0  0  0  0  0  0  0  0  0  0  0  0
    8.9031  -16.1487   24.5990 C   0  0  0  0  0  0  0  0  0  0  0  0
    8.4152  -17.3386   24.7527 O   0  0  0  0  0  0  0  0  0  0  0  0
   10.0943  -15.9405   25.3481 N   0  0  0  0  0  0  0  0  0  0  0  0
   10.7961  -17.0820   25.9554 C   0  0  1  0  0  0  0  0  0  0  0  0
   12.0269  -16.4162   26.6083 C   0  0  0  0  0  0  0  0  0  0  0  0
   11.5679  -15.5029   27.6522 C   0  0  0  0  0  0  0  0  0  0  0  0
   11.2738  -14.1830   27.3124 C   0  0  0  0  0  0  0  0  0  0  0  0
   10.8286  -13.2907   28.2664 C   0  0  0  0  0  0  0  0  0  0  0  0
   10.6881  -13.7468   29.5473 C   0  0  0  0  0  0  0  0  0  0  0  0
   10.9776  -15.0568   29.8959 C   0  0  0  0  0  0  0  0  0  0  0  0
   11.4214  -15.9431   28.9405 C   0  0  0  0  0  0  0  0  0  0  0  0
    9.9500  -17.7140   26.9438 C   0  0  0  0  0  0  0  0  0  0  0  0
    8.8504  -17.1895   27.2595 O   0  0  0  0  0  0  0  0  0  0  0  0
   10.2828  -18.8845   27.5726 O   0  0  0  0  0  0  0  0  0  0  0  0
  2  1  1  1
  3  2  1  0
  4  5  1  6
  4  2  1  0
  6  4  1  0
  7  6  2  0
  9  8  1  6
  9 11  1  0
 10  9  1  0
 12 11  1  1
 12 13  1  0
 13  6  1  0
 14 16  1  0
 14 12  1  0
 15 14  2  0
 17 25  1  0
 17 16  1  0
 17 18  1  1
 19 18  1  0
 19 24  2  0
 20 19  1  0
 21 20  2  0
 21 22  1  0
 22 23  2  0
 23 24  1  0
 25 27  1  0
 26 25  2  0
M  END
$$$$
