VLF.pdb
     RDKit          3D

 27 27  0  0  1  0  0  0  0  0999 V2000
    9.0524  -19.8833   21.9455 C   0  0  0  0  0  0  0  0  0  0  0  0
   10.2296  -19.7492   20.9992 C   0  0  1  0  0  0  0  0  0  0  0  0
   10.3549  -21.0185   20.2188 C   0  0  0  0  0  0  0  0  0  0  0  0
    9.9521  -18.5400   20.1252 C   0  0  2  0  0  0  0  0  0  0  0  0
   10.8622  -18.5556   19.0183 N   0  0  0  0  0  0  0  0  0  0  0  0
    9.9599  -17.2778   20.8696 C   0  0  0  0  0  0  0  0  0  0  0  0
   11.0932  -16.8446   21.2714 O   0  0  0  0  0  0  0  0  0  0  0  0
    6.4083  -13.1681   19.6381 C   0  0  0  0  0  0  0  0  0  0  0  0
    7.7734  -13.8982   19.9307 C   0  0  1  0  0  0  0  0  0  0  0  0
    8.7942  -12.7825   19.8056 C   0  0  0  0  0  0  0  0  0  0  0  0
    7.6332  -14.4897   21.2670 C   0  0  0  0  0  0  0  0  0  0  0  0
    8.7867  -15.2466   21.8185 C   0  0  2  0  0  0  0  0  0  0  0  0
    8.7731  -16.5834   21.1251 N   0  0  0  0  0  0  0  0  0  0  0  0
    8.7109  -15.5384   23.2382 C   0  0  0  0  0  0  0  0  0  0  0  0
    7.8880  -16.4389   23.6735 O   0  0  0  0  0  0  0  0  0  0  0  0
    9.4770  -14.9431   24.2785 N   0  0  0  0  0  0  0  0  0  0  0  0
    9.3588  -15.4354   25.6597 C   0  0  1  0  0  0  0  0  0  0  0  0
    7.8328  -15.4226   25.8959 C   0  0  0  0  0  0  0  0  0  0  0  0
    7.4090  -14.0481   26.1519 C   0  0  0  0  0  0  0  0  0  0  0  0
    8.2647  -13.1972   26.8504 C   0  0  0  0  0  0  0  0  0  0  0  0
    7.9065  -11.8889   27.1049 C   0  0  0  0  0  0  0  0  0  0  0  0
    6.6903  -11.4625   26.6497 C   0  0  0  0  0  0  0  0  0  0  0  0
    5.8320  -12.3000   25.9543 C   0  0  0  0  0  0  0  0  0  0  0  0
    6.1939  -13.6042   25.7029 C   0  0  0  0  0  0  0  0  0  0  0  0
    9.8978  -16.7742   25.7557 C   0  0  0  0  0  0  0  0  0  0  0  0
   10.1842  -17.4141   24.7107 O   0  0  0  0  0  0  0  0  0  0  0  0
   10.1241  -17.4038   26.9510 O   0  0  0  0  0  0  0  0  0  0  0  0
  2  1  1  1
  3  2  1  0
  4  5  1  6
  4  2  1  0
  6  4  1  0
  7  6  2  0
  9  8  1  1
  9 11  1  0
 10  9  1  0
 12 11  1  6
 12 13  1  0
 13  6  1  0
 14 16  1  0
 14 12  1  0
 15 14  2  0
 17 25  1  0
 17 16  1  0
 17 18  1  6
 19 18  1  0
 19 24  2  0
 20 19  1  0
 21 20  2  0
 21 22  1  0
 22 23  2  0
 23 24  1  0
 25 27  1  0
 26 25  2  0
M  END
$$$$
