VLF.pdb
     RDKit          3D

 27 27  0  0  1  0  0  0  0  0999 V2000
    7.4430  -11.9842   25.1067 C   0  0  0  0  0  0  0  0  0  0  0  0
    6.6092  -12.8176   26.0604 C   0  0  1  0  0  0  0  0  0  0  0  0
    5.5699  -11.9347   26.6737 C   0  0  0  0  0  0  0  0  0  0  0  0
    6.0178  -13.9531   25.2458 C   0  0  2  0  0  0  0  0  0  0  0  0
    5.1256  -14.7011   26.0815 N   0  0  0  0  0  0  0  0  0  0  0  0
    7.0337  -14.7802   24.5890 C   0  0  0  0  0  0  0  0  0  0  0  0
    7.2670  -15.9299   25.0963 O   0  0  0  0  0  0  0  0  0  0  0  0
    8.4992  -12.9427   19.6162 C   0  0  0  0  0  0  0  0  0  0  0  0
    7.8318  -13.7989   20.7580 C   0  0  1  0  0  0  0  0  0  0  0  0
    6.8305  -14.6553   20.0056 C   0  0  0  0  0  0  0  0  0  0  0  0
    8.9299  -14.5228   21.4100 C   0  0  0  0  0  0  0  0  0  0  0  0
    8.6395  -15.2277   22.6853 C   0  0  2  0  0  0  0  0  0  0  0  0
    7.7141  -14.3232   23.4558 N   0  0  0  0  0  0  0  0  0  0  0  0
    9.7877  -15.4427   23.5467 C   0  0  0  0  0  0  0  0  0  0  0  0
   10.7861  -14.6182   23.5164 O   0  0  0  0  0  0  0  0  0  0  0  0
    9.9685  -16.4928   24.4890 N   0  0  0  0  0  0  0  0  0  0  0  0
   11.2816  -16.7060   25.1171 C   0  0  1  0  0  0  0  0  0  0  0  0
   10.9079  -17.0803   26.5679 C   0  0  0  0  0  0  0  0  0  0  0  0
   10.5083  -15.8672   27.2774 C   0  0  0  0  0  0  0  0  0  0  0  0
   11.4851  -14.9331   27.6201 C   0  0  0  0  0  0  0  0  0  0  0  0
   11.1485  -13.7700   28.2822 C   0  0  0  0  0  0  0  0  0  0  0  0
    9.8311  -13.5703   28.5869 C   0  0  0  0  0  0  0  0  0  0  0  0
    8.8520  -14.4922   28.2509 C   0  0  0  0  0  0  0  0  0  0  0  0
    9.1928  -15.6509   27.5904 C   0  0  0  0  0  0  0  0  0  0  0  0
   11.9774  -17.7870   24.4544 C   0  0  0  0  0  0  0  0  0  0  0  0
   13.1462  -18.0931   24.8065 O   0  0  0  0  0  0  0  0  0  0  0  0
   11.4227  -18.5204   23.4391 O   0  0  0  0  0  0  0  0  0  0  0  0
  2  1  1  6
  3  2  1  0
  4  5  1  1
  4  2  1  0
  6  4  1  0
  7  6  2  0
  9  8  1  6
  9 11  1  0
 10  9  1  0
 12 11  1  6
 12 13  1  0
 13  6  1  0
 14 16  1  0
 14 12  1  0
 15 14  2  0
 17 25  1  0
 17 16  1  0
 17 18  1  1
 19 18  1  0
 19 24  2  0
 20 19  1  0
 21 20  2  0
 21 22  1  0
 22 23  2  0
 23 24  1  0
 25 27  1  0
 26 25  2  0
M  END
$$$$
