VLF.pdb
     RDKit          3D

 27 27  0  0  1  0  0  0  0  0999 V2000
    5.4469  -20.3418   23.1488 C   0  0  0  0  0  0  0  0  0  0  0  0
    6.5803  -19.3390   23.2453 C   0  0  1  0  0  0  0  0  0  0  0  0
    7.7913  -20.0442   23.7666 C   0  0  0  0  0  0  0  0  0  0  0  0
    6.7789  -18.7689   21.8529 C   0  0  2  0  0  0  0  0  0  0  0  0
    7.0024  -19.8519   20.9414 N   0  0  0  0  0  0  0  0  0  0  0  0
    7.8162  -17.7352   21.7969 C   0  0  0  0  0  0  0  0  0  0  0  0
    8.9901  -18.1051   21.4524 O   0  0  0  0  0  0  0  0  0  0  0  0
    6.7915  -12.5573   20.2805 C   0  0  0  0  0  0  0  0  0  0  0  0
    7.4816  -13.9704   20.3765 C   0  0  1  0  0  0  0  0  0  0  0  0
    8.5480  -13.9066   19.2991 C   0  0  0  0  0  0  0  0  0  0  0  0
    7.9720  -14.0840   21.7556 C   0  0  0  0  0  0  0  0  0  0  0  0
    8.6112  -15.3614   22.1648 C   0  0  2  0  0  0  0  0  0  0  0  0
    7.5253  -16.4033   22.1087 N   0  0  0  0  0  0  0  0  0  0  0  0
    9.1154  -15.3907   23.5255 C   0  0  0  0  0  0  0  0  0  0  0  0
   10.2228  -14.7877   23.8212 O   0  0  0  0  0  0  0  0  0  0  0  0
    8.5118  -16.0177   24.6506 N   0  0  0  0  0  0  0  0  0  0  0  0
    9.1977  -16.0225   25.9520 C   0  0  1  0  0  0  0  0  0  0  0  0
    8.0836  -15.5799   26.9253 C   0  0  0  0  0  0  0  0  0  0  0  0
    7.8208  -14.1572   26.7219 C   0  0  0  0  0  0  0  0  0  0  0  0
    8.8156  -13.2345   27.0433 C   0  0  0  0  0  0  0  0  0  0  0  0
    8.6112  -11.8824   26.8576 C   0  0  0  0  0  0  0  0  0  0  0  0
    7.4057  -11.4852   26.3504 C   0  0  0  0  0  0  0  0  0  0  0  0
    6.4099  -12.3939   26.0275 C   0  0  0  0  0  0  0  0  0  0  0  0
    6.6187  -13.7417   26.2146 C   0  0  0  0  0  0  0  0  0  0  0  0
    9.6688  -17.3553   26.2581 C   0  0  0  0  0  0  0  0  0  0  0  0
    9.4873  -18.2915   25.4369 O   0  0  0  0  0  0  0  0  0  0  0  0
   10.3220  -17.6674   27.4210 O   0  0  0  0  0  0  0  0  0  0  0  0
  2  1  1  6
  3  2  1  0
  4  5  1  6
  4  2  1  0
  6  4  1  0
  7  6  2  0
  9  8  1  1
  9 11  1  0
 10  9  1  0
 12 11  1  1
 12 13  1  0
 13  6  1  0
 14 16  1  0
 14 12  1  0
 15 14  2  0
 17 25  1  0
 17 16  1  0
 17 18  1  1
 19 18  1  0
 19 24  2  0
 20 19  1  0
 21 20  2  0
 21 22  1  0
 22 23  2  0
 23 24  1  0
 25 27  1  0
 26 25  2  0
M  END
$$$$
