VLF.pdb
     RDKit          3D

 27 27  0  0  1  0  0  0  0  0999 V2000
   12.0384  -19.3229   22.8329 C   0  0  0  0  0  0  0  0  0  0  0  0
   13.2257  -18.5202   22.3375 C   0  0  1  0  0  0  0  0  0  0  0  0
   14.1870  -19.4570   21.6787 C   0  0  0  0  0  0  0  0  0  0  0  0
   12.6776  -17.4690   21.3901 C   0  0  2  0  0  0  0  0  0  0  0  0
   13.7770  -16.8250   20.7340 N   0  0  0  0  0  0  0  0  0  0  0  0
   11.7561  -16.5330   22.0398 C   0  0  0  0  0  0  0  0  0  0  0  0
   12.2606  -15.6923   22.8598 O   0  0  0  0  0  0  0  0  0  0  0  0
    8.1080  -12.8497   21.8910 C   0  0  0  0  0  0  0  0  0  0  0  0
    7.4180  -14.2410   21.6257 C   0  0  1  0  0  0  0  0  0  0  0  0
    6.4451  -13.9341   20.5026 C   0  0  0  0  0  0  0  0  0  0  0  0
    8.5048  -15.1706   21.2942 C   0  0  0  0  0  0  0  0  0  0  0  0
    9.4462  -15.5565   22.3770 C   0  0  2  0  0  0  0  0  0  0  0  0
   10.3845  -16.5651   21.7685 N   0  0  0  0  0  0  0  0  0  0  0  0
    8.8383  -16.2206   23.5154 C   0  0  0  0  0  0  0  0  0  0  0  0
    8.7144  -17.5098   23.5256 O   0  0  0  0  0  0  0  0  0  0  0  0
    8.3438  -15.6100   24.7012 N   0  0  0  0  0  0  0  0  0  0  0  0
    7.7563  -16.4342   25.7687 C   0  0  1  0  0  0  0  0  0  0  0  0
    7.4071  -15.3899   26.8514 C   0  0  0  0  0  0  0  0  0  0  0  0
    8.6469  -14.9074   27.4552 C   0  0  0  0  0  0  0  0  0  0  0  0
    9.0758  -13.6114   27.1714 C   0  0  0  0  0  0  0  0  0  0  0  0
   10.2363  -13.1138   27.7284 C   0  0  0  0  0  0  0  0  0  0  0  0
   10.9437  -13.9337   28.5625 C   0  0  0  0  0  0  0  0  0  0  0  0
   10.5263  -15.2237   28.8514 C   0  0  0  0  0  0  0  0  0  0  0  0
    9.3680  -15.7154   28.2933 C   0  0  0  0  0  0  0  0  0  0  0  0
    6.5721  -17.1059   25.2803 C   0  0  0  0  0  0  0  0  0  0  0  0
    6.0099  -16.7055   24.2280 O   0  0  0  0  0  0  0  0  0  0  0  0
    6.0119  -18.1848   25.9116 O   0  0  0  0  0  0  0  0  0  0  0  0
  2  1  1  6
  3  2  1  0
  4  5  1  1
  4  2  1  0
  6  4  1  0
  7  6  2  0
  9  8  1  6
  9 11  1  0
 10  9  1  0
 12 11  1  6
 12 13  1  0
 13  6  1  0
 14 16  1  0
 14 12  1  0
 15 14  2  0
 17 25  1  0
 17 16  1  0
 17 18  1  1
 19 18  1  0
 19 24  2  0
 20 19  1  0
 21 20  2  0
 21 22  1  0
 22 23  2  0
 23 24  1  0
 25 27  1  0
 26 25  2  0
M  END
$$$$
