VLF.pdb
     RDKit          3D

 27 27  0  0  1  0  0  0  0  0999 V2000
    8.9799  -19.7482   22.9785 C   0  0  0  0  0  0  0  0  0  0  0  0
    9.0921  -19.5651   21.4774 C   0  0  1  0  0  0  0  0  0  0  0  0
    8.6518  -20.8305   20.8134 C   0  0  0  0  0  0  0  0  0  0  0  0
    8.2252  -18.3729   21.1166 C   0  0  2  0  0  0  0  0  0  0  0  0
    8.1080  -18.3060   19.6899 N   0  0  0  0  0  0  0  0  0  0  0  0
    8.6863  -17.1214   21.7238 C   0  0  0  0  0  0  0  0  0  0  0  0
    9.7008  -16.5542   21.1921 O   0  0  0  0  0  0  0  0  0  0  0  0
    7.6641  -12.3379   24.0632 C   0  0  0  0  0  0  0  0  0  0  0  0
    7.5985  -13.5607   25.0545 C   0  0  1  0  0  0  0  0  0  0  0  0
    6.4626  -13.1864   25.9882 C   0  0  0  0  0  0  0  0  0  0  0  0
    7.3735  -14.7446   24.2162 C   0  0  0  0  0  0  0  0  0  0  0  0
    8.5373  -15.3160   23.4904 C   0  0  2  0  0  0  0  0  0  0  0  0
    8.0380  -16.5779   22.8375 N   0  0  0  0  0  0  0  0  0  0  0  0
    9.6498  -15.7206   24.3302 C   0  0  0  0  0  0  0  0  0  0  0  0
   10.6469  -14.9160   24.5199 O   0  0  0  0  0  0  0  0  0  0  0  0
    9.7941  -16.9513   25.0286 N   0  0  0  0  0  0  0  0  0  0  0  0
   10.9009  -17.1376   25.9797 C   0  0  1  0  0  0  0  0  0  0  0  0
   10.1652  -17.3398   27.3222 C   0  0  0  0  0  0  0  0  0  0  0  0
    9.9002  -16.0305   27.9139 C   0  0  0  0  0  0  0  0  0  0  0  0
   10.8440  -15.4771   28.7784 C   0  0  0  0  0  0  0  0  0  0  0  0
   10.6365  -14.2388   29.3510 C   0  0  0  0  0  0  0  0  0  0  0  0
    9.4794  -13.5805   29.0409 C   0  0  0  0  0  0  0  0  0  0  0  0
    8.5346  -14.1214   28.1828 C   0  0  0  0  0  0  0  0  0  0  0  0
    8.7462  -15.3571   27.6140 C   0  0  0  0  0  0  0  0  0  0  0  0
   11.6726  -18.3062   25.6181 C   0  0  0  0  0  0  0  0  0  0  0  0
   11.3337  -19.0025   24.6261 O   0  0  0  0  0  0  0  0  0  0  0  0
   12.7839  -18.7102   26.3096 O   0  0  0  0  0  0  0  0  0  0  0  0
  2  1  1  1
  3  2  1  0
  4  5  1  6
  4  2  1  0
  6  4  1  0
  7  6  2  0
  9  8  1  6
  9 11  1  0
 10  9  1  0
 12 11  1  1
 12 13  1  0
 13  6  1  0
 14 16  1  0
 14 12  1  0
 15 14  2  0
 17 25  1  0
 17 16  1  0
 17 18  1  1
 19 18  1  0
 19 24  2  0
 20 19  1  0
 21 20  2  0
 21 22  1  0
 22 23  2  0
 23 24  1  0
 25 27  1  0
 26 25  2  0
M  END
$$$$
