VLF.pdb
     RDKit          3D

 27 27  0  0  1  0  0  0  0  0999 V2000
    6.3605  -19.0382   24.8524 C   0  0  0  0  0  0  0  0  0  0  0  0
    6.9752  -20.1190   23.9845 C   0  0  1  0  0  0  0  0  0  0  0  0
    6.1938  -21.3794   24.1760 C   0  0  0  0  0  0  0  0  0  0  0  0
    6.9357  -19.6075   22.5563 C   0  0  2  0  0  0  0  0  0  0  0  0
    7.2149  -20.6988   21.6703 N   0  0  0  0  0  0  0  0  0  0  0  0
    7.7982  -18.4430   22.3379 C   0  0  0  0  0  0  0  0  0  0  0  0
    9.0396  -18.6670   22.1322 O   0  0  0  0  0  0  0  0  0  0  0  0
    8.5879  -13.7137   20.0246 C   0  0  0  0  0  0  0  0  0  0  0  0
    7.8058  -13.5403   21.3812 C   0  0  1  0  0  0  0  0  0  0  0  0
    6.8134  -12.4362   21.0677 C   0  0  0  0  0  0  0  0  0  0  0  0
    7.2259  -14.8553   21.6805 C   0  0  0  0  0  0  0  0  0  0  0  0
    8.1496  -15.9514   22.0719 C   0  0  2  0  0  0  0  0  0  0  0  0
    7.2768  -17.1454   22.3556 N   0  0  0  0  0  0  0  0  0  0  0  0
    8.9043  -15.7169   23.2892 C   0  0  0  0  0  0  0  0  0  0  0  0
    9.5433  -14.6023   23.4531 O   0  0  0  0  0  0  0  0  0  0  0  0
    9.0318  -16.5939   24.4018 N   0  0  0  0  0  0  0  0  0  0  0  0
    8.9923  -16.0615   25.7727 C   0  0  1  0  0  0  0  0  0  0  0  0
    7.4923  -15.7560   25.9757 C   0  0  0  0  0  0  0  0  0  0  0  0
    7.3137  -14.3077   26.0467 C   0  0  0  0  0  0  0  0  0  0  0  0
    8.4207  -13.5038   26.3159 C   0  0  0  0  0  0  0  0  0  0  0  0
    8.2969  -12.1309   26.3823 C   0  0  0  0  0  0  0  0  0  0  0  0
    7.0573  -11.5934   26.1756 C   0  0  0  0  0  0  0  0  0  0  0  0
    5.9502  -12.3834   25.9072 C   0  0  0  0  0  0  0  0  0  0  0  0
    6.0789  -13.7524   25.8421 C   0  0  0  0  0  0  0  0  0  0  0  0
    9.4593  -17.0629   26.7061 C   0  0  0  0  0  0  0  0  0  0  0  0
    9.5854  -16.7772   27.9252 O   0  0  0  0  0  0  0  0  0  0  0  0
    9.7789  -18.3411   26.3316 O   0  0  0  0  0  0  0  0  0  0  0  0
  2  1  1  1
  3  2  1  0
  4  5  1  6
  4  2  1  0
  6  4  1  0
  7  6  2  0
  9  8  1  6
  9 11  1  0
 10  9  1  0
 12 11  1  1
 12 13  1  0
 13  6  1  0
 14 16  1  0
 14 12  1  0
 15 14  2  0
 17 25  1  0
 17 16  1  0
 17 18  1  1
 19 18  1  0
 19 24  2  0
 20 19  1  0
 21 20  2  0
 21 22  1  0
 22 23  2  0
 23 24  1  0
 25 27  1  0
 26 25  2  0
M  END
$$$$
