VLF.pdb
     RDKit          3D

 27 27  0  0  1  0  0  0  0  0999 V2000
    9.9551  -19.7892   22.0247 C   0  0  0  0  0  0  0  0  0  0  0  0
   10.8450  -19.5314   20.8243 C   0  0  1  0  0  0  0  0  0  0  0  0
   10.9366  -20.7920   20.0253 C   0  0  0  0  0  0  0  0  0  0  0  0
   10.2177  -18.3845   20.0536 C   0  0  2  0  0  0  0  0  0  0  0  0
   10.8677  -18.2772   18.7809 N   0  0  0  0  0  0  0  0  0  0  0  0
   10.1980  -17.1276   20.8068 C   0  0  0  0  0  0  0  0  0  0  0  0
   11.3273  -16.6176   21.1200 O   0  0  0  0  0  0  0  0  0  0  0  0
    6.3247  -13.2622   19.9652 C   0  0  0  0  0  0  0  0  0  0  0  0
    7.7475  -13.9134   20.1486 C   0  0  1  0  0  0  0  0  0  0  0  0
    8.6909  -12.7427   19.9442 C   0  0  0  0  0  0  0  0  0  0  0  0
    7.7465  -14.5069   21.4913 C   0  0  0  0  0  0  0  0  0  0  0  0
    8.9681  -15.2263   21.9361 C   0  0  2  0  0  0  0  0  0  0  0  0
    8.9905  -16.5189   21.1636 N   0  0  0  0  0  0  0  0  0  0  0  0
    8.9856  -15.6043   23.3372 C   0  0  0  0  0  0  0  0  0  0  0  0
    8.2831  -16.6123   23.7472 O   0  0  0  0  0  0  0  0  0  0  0  0
    9.7284  -14.9887   24.3826 N   0  0  0  0  0  0  0  0  0  0  0  0
    9.6253  -15.4934   25.7606 C   0  0  1  0  0  0  0  0  0  0  0  0
    8.0992  -15.5468   25.9899 C   0  0  0  0  0  0  0  0  0  0  0  0
    7.6119  -14.1894   26.2228 C   0  0  0  0  0  0  0  0  0  0  0  0
    6.3582  -13.8288   25.7303 C   0  0  0  0  0  0  0  0  0  0  0  0
    5.8569  -12.5596   25.9365 C   0  0  0  0  0  0  0  0  0  0  0  0
    6.6304  -11.6764   26.6366 C   0  0  0  0  0  0  0  0  0  0  0  0
    7.8780  -12.0244   27.1305 C   0  0  0  0  0  0  0  0  0  0  0  0
    8.3735  -13.2917   26.9222 C   0  0  0  0  0  0  0  0  0  0  0  0
   10.2203  -16.8086   25.8516 C   0  0  0  0  0  0  0  0  0  0  0  0
   10.2961  -17.5377   24.8287 O   0  0  0  0  0  0  0  0  0  0  0  0
   10.7232  -17.3213   27.0180 O   0  0  0  0  0  0  0  0  0  0  0  0
  2  1  1  1
  3  2  1  0
  4  5  1  6
  4  2  1  0
  6  4  1  0
  7  6  2  0
  9  8  1  1
  9 11  1  0
 10  9  1  0
 12 11  1  1
 12 13  1  0
 13  6  1  0
 14 16  1  0
 14 12  1  0
 15 14  2  0
 17 25  1  0
 17 16  1  0
 17 18  1  6
 19 18  1  0
 19 24  2  0
 20 19  1  0
 21 20  2  0
 21 22  1  0
 22 23  2  0
 23 24  1  0
 25 27  1  0
 26 25  2  0
M  END
$$$$
