VLF.pdb
     RDKit          3D

 27 27  0  0  1  0  0  0  0  0999 V2000
   10.0385  -20.4916   18.3479 C   0  0  0  0  0  0  0  0  0  0  0  0
   10.1512  -19.5746   19.5504 C   0  0  1  0  0  0  0  0  0  0  0  0
   11.3119  -20.0236   20.3792 C   0  0  0  0  0  0  0  0  0  0  0  0
   10.3166  -18.1657   19.0114 C   0  0  2  0  0  0  0  0  0  0  0  0
   11.5047  -18.1170   18.2115 N   0  0  0  0  0  0  0  0  0  0  0  0
   10.2750  -17.1406   20.0579 C   0  0  0  0  0  0  0  0  0  0  0  0
   11.3941  -16.7466   20.5332 O   0  0  0  0  0  0  0  0  0  0  0  0
    6.0718  -13.4409   20.4039 C   0  0  0  0  0  0  0  0  0  0  0  0
    7.5664  -13.9366   20.3528 C   0  0  1  0  0  0  0  0  0  0  0  0
    8.3604  -12.6504   20.4844 C   0  0  0  0  0  0  0  0  0  0  0  0
    7.7096  -14.8924   21.4578 C   0  0  0  0  0  0  0  0  0  0  0  0
    9.0116  -15.5919   21.6097 C   0  0  2  0  0  0  0  0  0  0  0  0
    9.0582  -16.6212   20.5113 N   0  0  0  0  0  0  0  0  0  0  0  0
    9.1743  -16.3303   22.8486 C   0  0  0  0  0  0  0  0  0  0  0  0
    8.6574  -17.5112   22.9739 O   0  0  0  0  0  0  0  0  0  0  0  0
    9.8819  -15.9123   24.0097 N   0  0  0  0  0  0  0  0  0  0  0  0
   10.1516  -16.8670   25.0960 C   0  0  1  0  0  0  0  0  0  0  0  0
   11.3109  -16.1926   25.8614 C   0  0  0  0  0  0  0  0  0  0  0  0
   10.7610  -15.1434   26.7165 C   0  0  0  0  0  0  0  0  0  0  0  0
   10.1977  -14.0147   26.1223 C   0  0  0  0  0  0  0  0  0  0  0  0
    9.6590  -13.0051   26.8937 C   0  0  0  0  0  0  0  0  0  0  0  0
    9.6983  -13.1527   28.2520 C   0  0  0  0  0  0  0  0  0  0  0  0
   10.2558  -14.2705   28.8530 C   0  0  0  0  0  0  0  0  0  0  0  0
   10.7919  -15.2749   28.0792 C   0  0  0  0  0  0  0  0  0  0  0  0
    8.9793  -17.0107   25.9309 C   0  0  0  0  0  0  0  0  0  0  0  0
    7.9451  -16.3369   25.6856 O   0  0  0  0  0  0  0  0  0  0  0  0
    8.9255  -17.8631   27.0018 O   0  0  0  0  0  0  0  0  0  0  0  0
  2  1  1  6
  3  2  1  0
  4  5  1  1
  4  2  1  0
  6  4  1  0
  7  6  2  0
  9  8  1  1
  9 11  1  0
 10  9  1  0
 12 11  1  1
 12 13  1  0
 13  6  1  0
 14 16  1  0
 14 12  1  0
 15 14  2  0
 17 25  1  0
 17 16  1  0
 17 18  1  1
 19 18  1  0
 19 24  2  0
 20 19  1  0
 21 20  2  0
 21 22  1  0
 22 23  2  0
 23 24  1  0
 25 27  1  0
 26 25  2  0
M  END
$$$$
