VLF.pdb
     RDKit          3D

 27 27  0  0  1  0  0  0  0  0999 V2000
   11.3066  -19.4207   21.7922 C   0  0  0  0  0  0  0  0  0  0  0  0
   12.4572  -18.5542   21.3182 C   0  0  1  0  0  0  0  0  0  0  0  0
   13.2735  -19.3442   20.3458 C   0  0  0  0  0  0  0  0  0  0  0  0
   11.8429  -17.3098   20.7041 C   0  0  2  0  0  0  0  0  0  0  0  0
   12.8746  -16.5682   20.0412 N   0  0  0  0  0  0  0  0  0  0  0  0
   11.0761  -16.5123   21.6650 C   0  0  0  0  0  0  0  0  0  0  0  0
   11.7299  -15.9455   22.6057 O   0  0  0  0  0  0  0  0  0  0  0  0
    6.5513  -13.6991   20.0245 C   0  0  0  0  0  0  0  0  0  0  0  0
    7.9563  -13.9570   20.6891 C   0  0  1  0  0  0  0  0  0  0  0  0
    8.3341  -12.5930   21.2358 C   0  0  0  0  0  0  0  0  0  0  0  0
    7.7394  -15.0093   21.6895 C   0  0  0  0  0  0  0  0  0  0  0  0
    8.9118  -15.4792   22.4720 C   0  0  2  0  0  0  0  0  0  0  0  0
    9.6884  -16.3823   21.5503 N   0  0  0  0  0  0  0  0  0  0  0  0
    8.5934  -16.2846   23.6366 C   0  0  0  0  0  0  0  0  0  0  0  0
    8.7264  -17.5722   23.5924 O   0  0  0  0  0  0  0  0  0  0  0  0
    8.1422  -15.8204   24.9033 N   0  0  0  0  0  0  0  0  0  0  0  0
    7.9035  -16.7728   25.9988 C   0  0  1  0  0  0  0  0  0  0  0  0
    7.5123  -15.8494   27.1730 C   0  0  0  0  0  0  0  0  0  0  0  0
    8.6739  -15.0449   27.5444 C   0  0  0  0  0  0  0  0  0  0  0  0
    9.6817  -15.6285   28.3111 C   0  0  0  0  0  0  0  0  0  0  0  0
   10.7998  -14.9062   28.6754 C   0  0  0  0  0  0  0  0  0  0  0  0
   10.8809  -13.6068   28.2591 C   0  0  0  0  0  0  0  0  0  0  0  0
    9.8848  -13.0168   27.4966 C   0  0  0  0  0  0  0  0  0  0  0  0
    8.7715  -13.7416   27.1357 C   0  0  0  0  0  0  0  0  0  0  0  0
    6.8239  -17.6694   25.6485 C   0  0  0  0  0  0  0  0  0  0  0  0
    6.5885  -18.6801   26.3605 O   0  0  0  0  0  0  0  0  0  0  0  0
    6.0175  -17.4766   24.5582 O   0  0  0  0  0  0  0  0  0  0  0  0
  2  1  1  6
  3  2  1  0
  4  5  1  1
  4  2  1  0
  6  4  1  0
  7  6  2  0
  9  8  1  1
  9 11  1  0
 10  9  1  0
 12 11  1  6
 12 13  1  0
 13  6  1  0
 14 16  1  0
 14 12  1  0
 15 14  2  0
 17 25  1  0
 17 16  1  0
 17 18  1  1
 19 18  1  0
 19 24  2  0
 20 19  1  0
 21 20  2  0
 21 22  1  0
 22 23  2  0
 23 24  1  0
 25 27  1  0
 26 25  2  0
M  END
$$$$
