VLF.pdb
     RDKit          3D

 27 27  0  0  1  0  0  0  0  0999 V2000
    8.8174  -19.7120   22.7009 C   0  0  0  0  0  0  0  0  0  0  0  0
    9.2321  -19.8454   21.2485 C   0  0  1  0  0  0  0  0  0  0  0  0
    8.7331  -21.1577   20.7338 C   0  0  0  0  0  0  0  0  0  0  0  0
    8.6407  -18.6563   20.5142 C   0  0  2  0  0  0  0  0  0  0  0  0
    8.7151  -18.9042   19.1047 N   0  0  0  0  0  0  0  0  0  0  0  0
    9.2362  -17.3785   20.9144 C   0  0  0  0  0  0  0  0  0  0  0  0
   10.4587  -17.1804   20.5986 O   0  0  0  0  0  0  0  0  0  0  0  0
    6.6312  -12.7111   20.3438 C   0  0  0  0  0  0  0  0  0  0  0  0
    7.7678  -13.8021   20.3267 C   0  0  1  0  0  0  0  0  0  0  0  0
    8.8672  -13.1411   19.5162 C   0  0  0  0  0  0  0  0  0  0  0  0
    8.0853  -14.0720   21.7343 C   0  0  0  0  0  0  0  0  0  0  0  0
    9.1040  -15.1121   22.0318 C   0  0  2  0  0  0  0  0  0  0  0  0
    8.4913  -16.4222   21.6120 N   0  0  0  0  0  0  0  0  0  0  0  0
    9.4375  -15.2650   23.4360 C   0  0  0  0  0  0  0  0  0  0  0  0
   10.3727  -14.5413   23.9643 O   0  0  0  0  0  0  0  0  0  0  0  0
    8.8274  -16.1459   24.3715 N   0  0  0  0  0  0  0  0  0  0  0  0
    9.2596  -16.1475   25.7777 C   0  0  1  0  0  0  0  0  0  0  0  0
    7.9362  -15.9211   26.5406 C   0  0  0  0  0  0  0  0  0  0  0  0
    7.6228  -14.4942   26.5232 C   0  0  0  0  0  0  0  0  0  0  0  0
    8.5666  -13.5901   27.0089 C   0  0  0  0  0  0  0  0  0  0  0  0
    8.3138  -12.2334   27.0018 C   0  0  0  0  0  0  0  0  0  0  0  0
    7.1120  -11.8131   26.5043 C   0  0  0  0  0  0  0  0  0  0  0  0
    6.1667  -12.7033   26.0190 C   0  0  0  0  0  0  0  0  0  0  0  0
    6.4237  -14.0557   26.0282 C   0  0  0  0  0  0  0  0  0  0  0  0
    9.8512  -17.4243   26.1121 C   0  0  0  0  0  0  0  0  0  0  0  0
    9.9743  -18.3120   25.2286 O   0  0  0  0  0  0  0  0  0  0  0  0
   10.3009  -17.7324   27.3687 O   0  0  0  0  0  0  0  0  0  0  0  0
  2  1  1  1
  3  2  1  0
  4  5  1  6
  4  2  1  0
  6  4  1  0
  7  6  2  0
  9  8  1  1
  9 11  1  0
 10  9  1  0
 12 11  1  1
 12 13  1  0
 13  6  1  0
 14 16  1  0
 14 12  1  0
 15 14  2  0
 17 25  1  0
 17 16  1  0
 17 18  1  1
 19 18  1  0
 19 24  2  0
 20 19  1  0
 21 20  2  0
 21 22  1  0
 22 23  2  0
 23 24  1  0
 25 27  1  0
 26 25  2  0
M  END
$$$$
