VLF.pdb
     RDKit          3D

 27 27  0  0  1  0  0  0  0  0999 V2000
    6.4441  -18.8315   23.6900 C   0  0  0  0  0  0  0  0  0  0  0  0
    6.9819  -19.6663   22.5441 C   0  0  1  0  0  0  0  0  0  0  0  0
    6.0771  -20.8409   22.3504 C   0  0  0  0  0  0  0  0  0  0  0  0
    7.0411  -18.7564   21.3309 C   0  0  2  0  0  0  0  0  0  0  0  0
    7.2271  -19.5631   20.1611 N   0  0  0  0  0  0  0  0  0  0  0  0
    8.0308  -17.6838   21.4637 C   0  0  0  0  0  0  0  0  0  0  0  0
    9.2570  -17.9961   21.2834 O   0  0  0  0  0  0  0  0  0  0  0  0
    6.8544  -12.4201   20.2049 C   0  0  0  0  0  0  0  0  0  0  0  0
    7.6803  -13.7614   20.2326 C   0  0  1  0  0  0  0  0  0  0  0  0
    8.8729  -13.4497   19.3478 C   0  0  0  0  0  0  0  0  0  0  0  0
    7.9824  -14.0170   21.6463 C   0  0  0  0  0  0  0  0  0  0  0  0
    8.6620  -15.2916   21.9943 C   0  0  2  0  0  0  0  0  0  0  0  0
    7.6415  -16.3771   21.7749 N   0  0  0  0  0  0  0  0  0  0  0  0
    9.0739  -15.4126   23.3807 C   0  0  0  0  0  0  0  0  0  0  0  0
   10.2337  -14.9738   23.7547 O   0  0  0  0  0  0  0  0  0  0  0  0
    8.3228  -15.9681   24.4534 N   0  0  0  0  0  0  0  0  0  0  0  0
    8.8632  -15.9528   25.8216 C   0  0  1  0  0  0  0  0  0  0  0  0
    7.6392  -15.5365   26.6660 C   0  0  0  0  0  0  0  0  0  0  0  0
    7.4658  -14.0897   26.5596 C   0  0  0  0  0  0  0  0  0  0  0  0
    8.5773  -13.2633   26.7202 C   0  0  0  0  0  0  0  0  0  0  0  0
    8.4584  -11.8922   26.6182 C   0  0  0  0  0  0  0  0  0  0  0  0
    7.2190  -11.3792   26.3556 C   0  0  0  0  0  0  0  0  0  0  0  0
    6.1074  -12.1916   26.1941 C   0  0  0  0  0  0  0  0  0  0  0  0
    6.2313  -13.5588   26.2968 C   0  0  0  0  0  0  0  0  0  0  0  0
    9.3314  -17.2726   26.1835 C   0  0  0  0  0  0  0  0  0  0  0  0
    9.7354  -17.4985   27.3538 O   0  0  0  0  0  0  0  0  0  0  0  0
    9.3593  -18.3220   25.3036 O   0  0  0  0  0  0  0  0  0  0  0  0
  2  1  1  1
  3  2  1  0
  4  5  1  6
  4  2  1  0
  6  4  1  0
  7  6  2  0
  9  8  1  1
  9 11  1  0
 10  9  1  0
 12 11  1  1
 12 13  1  0
 13  6  1  0
 14 16  1  0
 14 12  1  0
 15 14  2  0
 17 25  1  0
 17 16  1  0
 17 18  1  1
 19 18  1  0
 19 24  2  0
 20 19  1  0
 21 20  2  0
 21 22  1  0
 22 23  2  0
 23 24  1  0
 25 27  1  0
 26 25  2  0
M  END
$$$$
