VLF.pdb
     RDKit          3D

 27 27  0  0  1  0  0  0  0  0999 V2000
    6.3425  -19.2628   24.8064 C   0  0  0  0  0  0  0  0  0  0  0  0
    6.6580  -20.3781   23.8288 C   0  0  1  0  0  0  0  0  0  0  0  0
    5.7342  -21.5215   24.1028 C   0  0  0  0  0  0  0  0  0  0  0  0
    6.4889  -19.7992   22.4362 C   0  0  2  0  0  0  0  0  0  0  0  0
    6.5591  -20.8676   21.4836 N   0  0  0  0  0  0  0  0  0  0  0  0
    7.4180  -18.7020   22.1523 C   0  0  0  0  0  0  0  0  0  0  0  0
    8.6585  -18.9965   22.0634 O   0  0  0  0  0  0  0  0  0  0  0  0
    8.8932  -14.1256   19.7510 C   0  0  0  0  0  0  0  0  0  0  0  0
    7.8499  -13.8902   20.9079 C   0  0  1  0  0  0  0  0  0  0  0  0
    6.9794  -12.7726   20.3642 C   0  0  0  0  0  0  0  0  0  0  0  0
    7.1802  -15.1805   21.1123 C   0  0  0  0  0  0  0  0  0  0  0  0
    7.9196  -16.2410   21.8446 C   0  0  2  0  0  0  0  0  0  0  0  0
    6.9583  -17.3915   21.9871 N   0  0  0  0  0  0  0  0  0  0  0  0
    8.3204  -15.8930   23.1954 C   0  0  0  0  0  0  0  0  0  0  0  0
    7.4958  -15.2733   23.9786 O   0  0  0  0  0  0  0  0  0  0  0  0
    9.5684  -16.1718   23.8186 N   0  0  0  0  0  0  0  0  0  0  0  0
    9.9151  -15.5357   25.0990 C   0  0  1  0  0  0  0  0  0  0  0  0
    9.6204  -14.0442   24.8285 C   0  0  0  0  0  0  0  0  0  0  0  0
    8.5435  -13.6103   25.7154 C   0  0  0  0  0  0  0  0  0  0  0  0
    7.2236  -13.7271   25.2813 C   0  0  0  0  0  0  0  0  0  0  0  0
    6.1767  -13.3375   26.0918 C   0  0  0  0  0  0  0  0  0  0  0  0
    6.4808  -12.8368   27.3268 C   0  0  0  0  0  0  0  0  0  0  0  0
    7.7894  -12.7165   27.7682 C   0  0  0  0  0  0  0  0  0  0  0  0
    8.8302  -13.1065   26.9560 C   0  0  0  0  0  0  0  0  0  0  0  0
    9.0752  -16.0580   26.1544 C   0  0  0  0  0  0  0  0  0  0  0  0
    7.9411  -16.5302   25.8812 O   0  0  0  0  0  0  0  0  0  0  0  0
    9.4528  -16.0720   27.4710 O   0  0  0  0  0  0  0  0  0  0  0  0
  2  1  1  1
  3  2  1  0
  4  5  1  6
  4  2  1  0
  6  4  1  0
  7  6  2  0
  9  8  1  6
  9 11  1  0
 10  9  1  0
 12 11  1  1
 12 13  1  0
 13  6  1  0
 14 16  1  0
 14 12  1  0
 15 14  2  0
 17 25  1  0
 17 16  1  0
 17 18  1  6
 19 18  1  0
 19 24  2  0
 20 19  1  0
 21 20  2  0
 21 22  1  0
 22 23  2  0
 23 24  1  0
 25 27  1  0
 26 25  2  0
M  END
$$$$
