VLF.pdb
     RDKit          3D

 27 27  0  0  1  0  0  0  0  0999 V2000
    5.9534  -20.5578   21.8454 C   0  0  0  0  0  0  0  0  0  0  0  0
    7.0585  -19.6074   22.2634 C   0  0  1  0  0  0  0  0  0  0  0  0
    8.1914  -20.4135   22.8134 C   0  0  0  0  0  0  0  0  0  0  0  0
    7.4407  -18.8117   21.0289 C   0  0  2  0  0  0  0  0  0  0  0  0
    7.9522  -19.7152   20.0411 N   0  0  0  0  0  0  0  0  0  0  0  0
    8.3427  -17.6943   21.3209 C   0  0  0  0  0  0  0  0  0  0  0  0
    9.5978  -17.9209   21.2382 O   0  0  0  0  0  0  0  0  0  0  0  0
    7.7726  -14.3048   19.2013 C   0  0  0  0  0  0  0  0  0  0  0  0
    8.2503  -13.3436   20.3546 C   0  0  1  0  0  0  0  0  0  0  0  0
    7.4385  -12.0849   20.1121 C   0  0  0  0  0  0  0  0  0  0  0  0
    7.9707  -14.0530   21.6091 C   0  0  0  0  0  0  0  0  0  0  0  0
    8.7657  -15.2708   21.9130 C   0  0  2  0  0  0  0  0  0  0  0  0
    7.8429  -16.4368   21.6741 N   0  0  0  0  0  0  0  0  0  0  0  0
    9.2057  -15.3924   23.2907 C   0  0  0  0  0  0  0  0  0  0  0  0
   10.2531  -14.7484   23.6976 O   0  0  0  0  0  0  0  0  0  0  0  0
    8.5947  -16.1585   24.3219 N   0  0  0  0  0  0  0  0  0  0  0  0
    9.0473  -16.0195   25.7147 C   0  0  1  0  0  0  0  0  0  0  0  0
    7.7240  -15.8138   26.4835 C   0  0  0  0  0  0  0  0  0  0  0  0
    7.3536  -14.4025   26.4109 C   0  0  0  0  0  0  0  0  0  0  0  0
    6.0439  -14.0651   26.0716 C   0  0  0  0  0  0  0  0  0  0  0  0
    5.6506  -12.7442   26.0012 C   0  0  0  0  0  0  0  0  0  0  0  0
    6.5868  -11.7865   26.2746 C   0  0  0  0  0  0  0  0  0  0  0  0
    7.8914  -12.1108   26.6129 C   0  0  0  0  0  0  0  0  0  0  0  0
    8.2787  -13.4300   26.6819 C   0  0  0  0  0  0  0  0  0  0  0  0
    9.7231  -17.2262   26.1382 C   0  0  0  0  0  0  0  0  0  0  0  0
   10.1593  -17.3239   27.3145 O   0  0  0  0  0  0  0  0  0  0  0  0
    9.9195  -18.3009   25.3119 O   0  0  0  0  0  0  0  0  0  0  0  0
  2  1  1  6
  3  2  1  0
  4  5  1  6
  4  2  1  0
  6  4  1  0
  7  6  2  0
  9  8  1  6
  9 11  1  0
 10  9  1  0
 12 11  1  1
 12 13  1  0
 13  6  1  0
 14 16  1  0
 14 12  1  0
 15 14  2  0
 17 25  1  0
 17 16  1  0
 17 18  1  1
 19 18  1  0
 19 24  2  0
 20 19  1  0
 21 20  2  0
 21 22  1  0
 22 23  2  0
 23 24  1  0
 25 27  1  0
 26 25  2  0
M  END
$$$$
