VLF.pdb
     RDKit          3D

 27 27  0  0  1  0  0  0  0  0999 V2000
    6.7575  -18.7433   24.9107 C   0  0  0  0  0  0  0  0  0  0  0  0
    6.8571  -19.8931   23.9273 C   0  0  1  0  0  0  0  0  0  0  0  0
    5.8847  -20.9519   24.3390 C   0  0  0  0  0  0  0  0  0  0  0  0
    6.5633  -19.3196   22.5533 C   0  0  2  0  0  0  0  0  0  0  0  0
    6.4297  -20.4018   21.6234 N   0  0  0  0  0  0  0  0  0  0  0  0
    7.5345  -18.3056   22.1333 C   0  0  0  0  0  0  0  0  0  0  0  0
    8.6943  -18.7166   21.7880 O   0  0  0  0  0  0  0  0  0  0  0  0
    9.0761  -13.8721   19.7391 C   0  0  0  0  0  0  0  0  0  0  0  0
    8.2724  -13.4956   21.0408 C   0  0  1  0  0  0  0  0  0  0  0  0
    7.4633  -12.2870   20.6083 C   0  0  0  0  0  0  0  0  0  0  0  0
    7.4971  -14.6914   21.3930 C   0  0  0  0  0  0  0  0  0  0  0  0
    8.2397  -15.8911   21.8587 C   0  0  2  0  0  0  0  0  0  0  0  0
    7.1980  -16.9483   22.1142 N   0  0  0  0  0  0  0  0  0  0  0  0
    8.9511  -15.7277   23.1132 C   0  0  0  0  0  0  0  0  0  0  0  0
   10.1430  -15.2210   23.1231 O   0  0  0  0  0  0  0  0  0  0  0  0
    8.4805  -16.0548   24.4151 N   0  0  0  0  0  0  0  0  0  0  0  0
    9.2828  -15.7131   25.5999 C   0  0  1  0  0  0  0  0  0  0  0  0
    8.2070  -15.4733   26.6815 C   0  0  0  0  0  0  0  0  0  0  0  0
    7.6122  -14.1561   26.4678 C   0  0  0  0  0  0  0  0  0  0  0  0
    6.2707  -14.0737   26.0965 C   0  0  0  0  0  0  0  0  0  0  0  0
    5.6681  -12.8488   25.8940 C   0  0  0  0  0  0  0  0  0  0  0  0
    6.4307  -11.7281   26.0700 C   0  0  0  0  0  0  0  0  0  0  0  0
    7.7650  -11.7987   26.4390 C   0  0  0  0  0  0  0  0  0  0  0  0
    8.3615  -13.0230   26.6399 C   0  0  0  0  0  0  0  0  0  0  0  0
   10.1462  -16.8199   25.9488 C   0  0  0  0  0  0  0  0  0  0  0  0
   10.0722  -17.9018   25.3103 O   0  0  0  0  0  0  0  0  0  0  0  0
   11.0679  -16.7576   26.9601 O   0  0  0  0  0  0  0  0  0  0  0  0
  2  1  1  1
  3  2  1  0
  4  5  1  6
  4  2  1  0
  6  4  1  0
  7  6  2  0
  9  8  1  6
  9 11  1  0
 10  9  1  0
 12 11  1  1
 12 13  1  0
 13  6  1  0
 14 16  1  0
 14 12  1  0
 15 14  2  0
 17 25  1  0
 17 16  1  0
 17 18  1  1
 19 18  1  0
 19 24  2  0
 20 19  1  0
 21 20  2  0
 21 22  1  0
 22 23  2  0
 23 24  1  0
 25 27  1  0
 26 25  2  0
M  END
$$$$
