VLF.pdb
     RDKit          3D

 27 27  0  0  1  0  0  0  0  0999 V2000
    4.9057  -19.6573   23.2892 C   0  0  0  0  0  0  0  0  0  0  0  0
    6.1476  -18.7878   23.3204 C   0  0  1  0  0  0  0  0  0  0  0  0
    7.1799  -19.4692   24.1607 C   0  0  0  0  0  0  0  0  0  0  0  0
    6.5853  -18.5993   21.8796 C   0  0  2  0  0  0  0  0  0  0  0  0
    6.7916  -19.8892   21.2903 N   0  0  0  0  0  0  0  0  0  0  0  0
    7.7363  -17.7030   21.7403 C   0  0  0  0  0  0  0  0  0  0  0  0
    8.8841  -18.2460   21.5950 O   0  0  0  0  0  0  0  0  0  0  0  0
    7.5101  -14.6567   19.0407 C   0  0  0  0  0  0  0  0  0  0  0  0
    8.3268  -13.6158   19.8960 C   0  0  1  0  0  0  0  0  0  0  0  0
    7.6573  -12.2956   19.5627 C   0  0  0  0  0  0  0  0  0  0  0  0
    8.2061  -14.0600   21.2900 C   0  0  0  0  0  0  0  0  0  0  0  0
    8.7609  -15.3912   21.6476 C   0  0  2  0  0  0  0  0  0  0  0  0
    7.5765  -16.3139   21.7664 N   0  0  0  0  0  0  0  0  0  0  0  0
    9.4385  -15.4529   22.9296 C   0  0  0  0  0  0  0  0  0  0  0  0
   10.6548  -15.0227   23.0431 O   0  0  0  0  0  0  0  0  0  0  0  0
    8.9086  -15.9377   24.1575 N   0  0  0  0  0  0  0  0  0  0  0  0
    9.7351  -15.9310   25.3745 C   0  0  1  0  0  0  0  0  0  0  0  0
    9.8382  -14.4267   25.7074 C   0  0  0  0  0  0  0  0  0  0  0  0
    8.5214  -13.9458   26.1189 C   0  0  0  0  0  0  0  0  0  0  0  0
    8.4102  -13.2089   27.2974 C   0  0  0  0  0  0  0  0  0  0  0  0
    7.1864  -12.7284   27.7169 C   0  0  0  0  0  0  0  0  0  0  0  0
    6.0959  -13.0002   26.9389 C   0  0  0  0  0  0  0  0  0  0  0  0
    6.1953  -13.7317   25.7656 C   0  0  0  0  0  0  0  0  0  0  0  0
    7.4183  -14.2089   25.3515 C   0  0  0  0  0  0  0  0  0  0  0  0
    9.0680  -16.6617   26.4296 C   0  0  0  0  0  0  0  0  0  0  0  0
    7.9796  -17.2495   26.1977 O   0  0  0  0  0  0  0  0  0  0  0  0
    9.5664  -16.7571   27.7019 O   0  0  0  0  0  0  0  0  0  0  0  0
  2  1  1  6
  3  2  1  0
  4  5  1  1
  4  2  1  0
  6  4  1  0
  7  6  2  0
  9  8  1  6
  9 11  1  0
 10  9  1  0
 12 11  1  1
 12 13  1  0
 13  6  1  0
 14 16  1  0
 14 12  1  0
 15 14  2  0
 17 25  1  0
 17 16  1  0
 17 18  1  1
 19 18  1  0
 19 24  2  0
 20 19  1  0
 21 20  2  0
 21 22  1  0
 22 23  2  0
 23 24  1  0
 25 27  1  0
 26 25  2  0
M  END
$$$$
