HGQ.pdb
     RDKit          3D

 24 24  0  0  1  0  0  0  0  0999 V2000
   17.5703  -14.7149  -16.6491 N   0  0  0  0  0  0  0  0  0  0  0  0
   17.5368  -14.2599  -18.0049 C   0  0  1  0  0  0  0  0  0  0  0  0
   16.1861  -14.5208  -18.6280 C   0  0  0  0  0  0  0  0  0  0  0  0
   15.8816  -15.9625  -18.6605 C   0  0  0  0  0  0  0  0  0  0  0  0
   16.1248  -16.8667  -19.6643 C   0  0  0  0  0  0  0  0  0  0  0  0
   15.6813  -18.0966  -19.2757 N   0  0  0  0  0  0  0  0  0  0  0  0
   15.1670  -17.9577  -18.0412 C   0  0  0  0  0  0  0  0  0  0  0  0
   15.2942  -16.6506  -17.6747 N   0  0  0  0  0  0  0  0  0  0  0  0
   17.9070  -12.8269  -18.0451 C   0  0  0  0  0  0  0  0  0  0  0  0
   17.9556  -12.2276  -19.1374 O   0  0  0  0  0  0  0  0  0  0  0  0
   18.2091  -12.1123  -16.8749 N   0  0  0  0  0  0  0  0  0  0  0  0
   18.5044  -10.6720  -16.8765 C   0  0  0  0  0  0  0  0  0  0  0  0
   19.0833  -10.2812  -15.5694 C   0  0  0  0  0  0  0  0  0  0  0  0
   19.1737  -11.1185  -14.6434 O   0  0  0  0  0  0  0  0  0  0  0  0
   22.1290   -4.7796  -14.7093 N   0  0  0  0  0  0  0  0  0  0  0  0
   22.1553   -5.4056  -13.4461 C   0  0  0  0  0  0  0  0  0  0  0  0
   22.7157   -4.7715  -12.5058 O   0  0  0  0  0  0  0  0  0  0  0  0
   21.5758   -6.7298  -13.1783 C   0  0  0  0  0  0  0  0  0  0  0  0
   20.8895   -7.3217  -14.3521 C   0  0  0  0  0  0  0  0  0  0  0  0
   20.1443   -8.5934  -14.1087 C   0  0  2  0  0  0  0  0  0  0  0  0
   19.5286   -8.9521  -15.3905 N   0  0  0  0  0  0  0  0  0  0  0  0
   19.0120   -8.3834  -13.1403 C   0  0  0  0  0  0  0  0  0  0  0  0
   17.8868   -8.0465  -13.5803 O   0  0  0  0  0  0  0  0  0  0  0  0
   19.1776   -8.5520  -11.7751 O   0  0  0  0  0  0  0  0  0  0  0  0
  2  1  1  1
  3  2  1  0
  4  3  1  0
  5  4  2  0
  6  5  1  0
  7  8  2  0
  7  6  1  0
  8  4  1  0
  9 11  1  0
  9  2  1  0
 10  9  2  0
 12 13  1  0
 12 11  1  0
 13 21  1  0
 14 13  2  0
 16 17  2  0
 16 15  1  0
 18 16  1  0
 19 18  1  0
 20 19  1  6
 21 20  1  0
 22 24  1  0
 22 20  1  0
 23 22  2  0
M  END
$$$$
