HGQ.pdb
     RDKit          3D

 24 24  0  0  1  0  0  0  0  0999 V2000
   28.2006  -20.6000  -17.2514 N   0  0  0  0  0  0  0  0  0  0  0  0
   27.1850  -19.5979  -17.3549 C   0  0  1  0  0  0  0  0  0  0  0  0
   27.4030  -18.7331  -18.5737 C   0  0  0  0  0  0  0  0  0  0  0  0
   28.7465  -18.1271  -18.5660 C   0  0  0  0  0  0  0  0  0  0  0  0
   29.8299  -18.4364  -19.3502 C   0  0  0  0  0  0  0  0  0  0  0  0
   30.8741  -17.6275  -19.0097 N   0  0  0  0  0  0  0  0  0  0  0  0
   30.4430  -16.8228  -18.0226 C   0  0  0  0  0  0  0  0  0  0  0  0
   29.1425  -17.1359  -17.7591 N   0  0  0  0  0  0  0  0  0  0  0  0
   25.8568  -20.2520  -17.3601 C   0  0  0  0  0  0  0  0  0  0  0  0
   25.6642  -21.2630  -18.0641 O   0  0  0  0  0  0  0  0  0  0  0  0
   24.7927  -19.7622  -16.5861 N   0  0  0  0  0  0  0  0  0  0  0  0
   23.4140  -20.2525  -16.7285 C   0  0  0  0  0  0  0  0  0  0  0  0
   22.5226  -19.5052  -15.8102 C   0  0  0  0  0  0  0  0  0  0  0  0
   22.9989  -18.6691  -15.0096 O   0  0  0  0  0  0  0  0  0  0  0  0
   18.6945  -18.1266  -18.7006 N   0  0  0  0  0  0  0  0  0  0  0  0
   19.6856  -17.2388  -18.2338 C   0  0  0  0  0  0  0  0  0  0  0  0
   20.1774  -16.4361  -19.0788 O   0  0  0  0  0  0  0  0  0  0  0  0
   20.1628  -17.2048  -16.8438 C   0  0  0  0  0  0  0  0  0  0  0  0
   19.4236  -18.1228  -15.9437 C   0  0  0  0  0  0  0  0  0  0  0  0
   20.2537  -18.9408  -15.0091 C   0  0  2  0  0  0  0  0  0  0  0  0
   21.1323  -19.7540  -15.8562 N   0  0  0  0  0  0  0  0  0  0  0  0
   19.4034  -19.9081  -14.2312 C   0  0  0  0  0  0  0  0  0  0  0  0
   19.4563  -21.1296  -14.5114 O   0  0  0  0  0  0  0  0  0  0  0  0
   18.5631  -19.4871  -13.2132 O   0  0  0  0  0  0  0  0  0  0  0  0
  2  1  1  6
  3  2  1  0
  4  3  1  0
  5  4  2  0
  6  5  1  0
  7  8  2  0
  7  6  1  0
  8  4  1  0
  9 11  1  0
  9  2  1  0
 10  9  2  0
 12 13  1  0
 12 11  1  0
 13 21  1  0
 14 13  2  0
 16 17  2  0
 16 15  1  0
 18 16  1  0
 19 18  1  0
 20 19  1  6
 21 20  1  0
 22 24  1  0
 22 20  1  0
 23 22  2  0
M  END
$$$$
