HGQ.pdb
     RDKit          3D

 24 24  0  0  1  0  0  0  0  0999 V2000
   19.0328   -9.6322  -14.8248 N   0  0  0  0  0  0  0  0  0  0  0  0
   17.8337   -9.5842  -14.0462 C   0  0  1  0  0  0  0  0  0  0  0  0
   17.2710  -10.9699  -13.8365 C   0  0  0  0  0  0  0  0  0  0  0  0
   17.0211  -11.6457  -15.1222 C   0  0  0  0  0  0  0  0  0  0  0  0
   17.5894  -12.7965  -15.6095 C   0  0  0  0  0  0  0  0  0  0  0  0
   17.0693  -13.0653  -16.8414 N   0  0  0  0  0  0  0  0  0  0  0  0
   16.1856  -12.0901  -17.1171 C   0  0  0  0  0  0  0  0  0  0  0  0
   16.1638  -11.2283  -16.0608 N   0  0  0  0  0  0  0  0  0  0  0  0
   18.1129   -8.8915  -12.7677 C   0  0  0  0  0  0  0  0  0  0  0  0
   19.0841   -9.2431  -12.0692 O   0  0  0  0  0  0  0  0  0  0  0  0
   17.3066   -7.8366  -12.3115 N   0  0  0  0  0  0  0  0  0  0  0  0
   17.5620   -7.1294  -11.0481 C   0  0  0  0  0  0  0  0  0  0  0  0
   16.3036   -6.5217  -10.5547 C   0  0  0  0  0  0  0  0  0  0  0  0
   15.3255   -6.3835  -11.3235 O   0  0  0  0  0  0  0  0  0  0  0  0
   12.1136   -6.4559   -6.4843 N   0  0  0  0  0  0  0  0  0  0  0  0
   12.9822   -7.5274   -6.7768 C   0  0  0  0  0  0  0  0  0  0  0  0
   12.5076   -8.6946   -6.6649 O   0  0  0  0  0  0  0  0  0  0  0  0
   14.3809   -7.3545   -7.1949 C   0  0  0  0  0  0  0  0  0  0  0  0
   14.7795   -5.9343   -7.3481 C   0  0  0  0  0  0  0  0  0  0  0  0
   14.9970   -5.4572   -8.7469 C   0  0  2  0  0  0  0  0  0  0  0  0
   16.2304   -6.1039   -9.2067 N   0  0  0  0  0  0  0  0  0  0  0  0
   15.2584   -3.9759   -8.7819 C   0  0  0  0  0  0  0  0  0  0  0  0
   16.4253   -3.5572   -8.5910 O   0  0  0  0  0  0  0  0  0  0  0  0
   14.2457   -3.0607   -9.0192 O   0  0  0  0  0  0  0  0  0  0  0  0
  2  1  1  1
  3  2  1  0
  4  3  1  0
  5  4  2  0
  6  5  1  0
  7  8  2  0
  7  6  1  0
  8  4  1  0
  9 11  1  0
  9  2  1  0
 10  9  2  0
 12 13  1  0
 12 11  1  0
 13 21  1  0
 14 13  2  0
 16 17  2  0
 16 15  1  0
 18 16  1  0
 19 18  1  0
 20 19  1  1
 21 20  1  0
 22 24  1  0
 22 20  1  0
 23 22  2  0
M  END
$$$$
