HGQ.pdb
     RDKit          3D

 24 24  0  0  1  0  0  0  0  0999 V2000
   16.7674  -12.3997  -17.8382 N   0  0  0  0  0  0  0  0  0  0  0  0
   18.1716  -12.6645  -17.7715 C   0  0  1  0  0  0  0  0  0  0  0  0
   18.5198  -13.9227  -18.5309 C   0  0  0  0  0  0  0  0  0  0  0  0
   17.7825  -15.0857  -18.0054 C   0  0  0  0  0  0  0  0  0  0  0  0
   17.6316  -15.4859  -16.7010 C   0  0  0  0  0  0  0  0  0  0  0  0
   16.8708  -16.6175  -16.6653 N   0  0  0  0  0  0  0  0  0  0  0  0
   16.5518  -16.9175  -17.9366 C   0  0  0  0  0  0  0  0  0  0  0  0
   17.1134  -15.9760  -18.7471 N   0  0  0  0  0  0  0  0  0  0  0  0
   18.9123  -11.4837  -18.2706 C   0  0  0  0  0  0  0  0  0  0  0  0
   18.6103  -10.9793  -19.3702 O   0  0  0  0  0  0  0  0  0  0  0  0
   19.9587  -10.9064  -17.5337 N   0  0  0  0  0  0  0  0  0  0  0  0
   20.7566   -9.7780  -18.0353 C   0  0  0  0  0  0  0  0  0  0  0  0
   20.3055   -8.5232  -17.3886 C   0  0  0  0  0  0  0  0  0  0  0  0
   19.0839   -8.2850  -17.2563 O   0  0  0  0  0  0  0  0  0  0  0  0
   22.0307   -6.7249  -12.2026 N   0  0  0  0  0  0  0  0  0  0  0  0
   20.8270   -7.3094  -12.6473 C   0  0  0  0  0  0  0  0  0  0  0  0
   20.1479   -7.9427  -11.7882 O   0  0  0  0  0  0  0  0  0  0  0  0
   20.3373   -7.2196  -14.0304 C   0  0  0  0  0  0  0  0  0  0  0  0
   21.1931   -6.3827  -14.9060 C   0  0  0  0  0  0  0  0  0  0  0  0
   20.8155   -6.3389  -16.3507 C   0  0  2  0  0  0  0  0  0  0  0  0
   21.2767   -7.6062  -16.9270 N   0  0  0  0  0  0  0  0  0  0  0  0
   21.5600   -5.2501  -17.0746 C   0  0  0  0  0  0  0  0  0  0  0  0
   21.3233   -4.0526  -16.7859 O   0  0  0  0  0  0  0  0  0  0  0  0
   22.5003   -5.5333  -18.0520 O   0  0  0  0  0  0  0  0  0  0  0  0
  2  1  1  6
  3  2  1  0
  4  3  1  0
  5  4  2  0
  6  5  1  0
  7  8  2  0
  7  6  1  0
  8  4  1  0
  9 11  1  0
  9  2  1  0
 10  9  2  0
 12 13  1  0
 12 11  1  0
 13 21  1  0
 14 13  2  0
 16 17  2  0
 16 15  1  0
 18 16  1  0
 19 18  1  0
 20 19  1  1
 21 20  1  0
 22 24  1  0
 22 20  1  0
 23 22  2  0
M  END
$$$$
