HGQ.pdb
     RDKit          3D

 24 24  0  0  1  0  0  0  0  0999 V2000
   17.6673  -25.5889  -11.4333 N   0  0  0  0  0  0  0  0  0  0  0  0
   18.8255  -25.1974  -10.6907 C   0  0  1  0  0  0  0  0  0  0  0  0
   19.6082  -24.1388  -11.4306 C   0  0  0  0  0  0  0  0  0  0  0  0
   20.0510  -24.6252  -12.7495 C   0  0  0  0  0  0  0  0  0  0  0  0
   19.5651  -24.2969  -13.9907 C   0  0  0  0  0  0  0  0  0  0  0  0
   20.2662  -24.9800  -14.9407 N   0  0  0  0  0  0  0  0  0  0  0  0
   21.1796  -25.7262  -14.2951 C   0  0  0  0  0  0  0  0  0  0  0  0
   21.0399  -25.5023  -12.9576 N   0  0  0  0  0  0  0  0  0  0  0  0
   18.4087  -24.7489   -9.3426 C   0  0  0  0  0  0  0  0  0  0  0  0
   17.4584  -23.9511   -9.2189 O   0  0  0  0  0  0  0  0  0  0  0  0
   19.0594  -25.2004   -8.1834 N   0  0  0  0  0  0  0  0  0  0  0  0
   18.7747  -24.6552   -6.8480 C   0  0  0  0  0  0  0  0  0  0  0  0
   17.6594  -25.4102   -6.2295 C   0  0  0  0  0  0  0  0  0  0  0  0
   17.0638  -26.3002   -6.8775 O   0  0  0  0  0  0  0  0  0  0  0  0
   17.6115  -27.2830   -0.4325 N   0  0  0  0  0  0  0  0  0  0  0  0
   18.3783  -27.5074   -1.5944 C   0  0  0  0  0  0  0  0  0  0  0  0
   19.4667  -28.1352   -1.4482 O   0  0  0  0  0  0  0  0  0  0  0  0
   17.9808  -27.0552   -2.9355 C   0  0  0  0  0  0  0  0  0  0  0  0
   16.7001  -26.3075   -2.9505 C   0  0  0  0  0  0  0  0  0  0  0  0
   16.1993  -25.8837   -4.2926 C   0  0  2  0  0  0  0  0  0  0  0  0
   17.2841  -25.1069   -4.9014 N   0  0  0  0  0  0  0  0  0  0  0  0
   15.0288  -24.9468   -4.1652 C   0  0  0  0  0  0  0  0  0  0  0  0
   13.9095  -25.4090   -3.8386 O   0  0  0  0  0  0  0  0  0  0  0  0
   15.1529  -23.5867   -4.3988 O   0  0  0  0  0  0  0  0  0  0  0  0
  2  1  1  6
  3  2  1  0
  4  3  1  0
  5  4  2  0
  6  5  1  0
  7  8  2  0
  7  6  1  0
  8  4  1  0
  9 11  1  0
  9  2  1  0
 10  9  2  0
 12 13  1  0
 12 11  1  0
 13 21  1  0
 14 13  2  0
 16 17  2  0
 16 15  1  0
 18 16  1  0
 19 18  1  0
 20 19  1  1
 21 20  1  0
 22 24  1  0
 22 20  1  0
 23 22  2  0
M  END
$$$$
