HGQ.pdb
     RDKit          3D

 24 24  0  0  1  0  0  0  0  0999 V2000
   24.4596  -23.3702  -15.0958 N   0  0  0  0  0  0  0  0  0  0  0  0
   25.0749  -22.1152  -14.7914 C   0  0  1  0  0  0  0  0  0  0  0  0
   25.3680  -21.3383  -16.0528 C   0  0  0  0  0  0  0  0  0  0  0  0
   26.3718  -22.0269  -16.8839 C   0  0  0  0  0  0  0  0  0  0  0  0
   27.1487  -23.1127  -16.5646 C   0  0  0  0  0  0  0  0  0  0  0  0
   27.9426  -23.4233  -17.6293 N   0  0  0  0  0  0  0  0  0  0  0  0
   27.6613  -22.5382  -18.6016 C   0  0  0  0  0  0  0  0  0  0  0  0
   26.7008  -21.6899  -18.1362 N   0  0  0  0  0  0  0  0  0  0  0  0
   24.2067  -21.3632  -13.8571 C   0  0  0  0  0  0  0  0  0  0  0  0
   24.4418  -20.1618  -13.6202 O   0  0  0  0  0  0  0  0  0  0  0  0
   23.1118  -21.9696  -13.2209 N   0  0  0  0  0  0  0  0  0  0  0  0
   22.2175  -21.2405  -12.3098 C   0  0  0  0  0  0  0  0  0  0  0  0
   21.1722  -22.1581  -11.7983 C   0  0  0  0  0  0  0  0  0  0  0  0
   21.3984  -22.8788  -10.8002 O   0  0  0  0  0  0  0  0  0  0  0  0
   19.3155  -24.1703   -8.3216 N   0  0  0  0  0  0  0  0  0  0  0  0
   17.9901  -24.2411   -8.7977 C   0  0  0  0  0  0  0  0  0  0  0  0
   17.2231  -25.0722   -8.2309 O   0  0  0  0  0  0  0  0  0  0  0  0
   17.4715  -23.4138   -9.8966 C   0  0  0  0  0  0  0  0  0  0  0  0
   18.5238  -22.6424  -10.6016 C   0  0  0  0  0  0  0  0  0  0  0  0
   18.9090  -23.1382  -11.9571 C   0  0  2  0  0  0  0  0  0  0  0  0
   19.9224  -22.2028  -12.4561 N   0  0  0  0  0  0  0  0  0  0  0  0
   17.7514  -23.0573  -12.9150 C   0  0  0  0  0  0  0  0  0  0  0  0
   17.0822  -24.0912  -13.1525 O   0  0  0  0  0  0  0  0  0  0  0  0
   17.4038  -21.8719  -13.5424 O   0  0  0  0  0  0  0  0  0  0  0  0
  2  1  1  6
  3  2  1  0
  4  3  1  0
  5  4  2  0
  6  5  1  0
  7  8  2  0
  7  6  1  0
  8  4  1  0
  9 11  1  0
  9  2  1  0
 10  9  2  0
 12 13  1  0
 12 11  1  0
 13 21  1  0
 14 13  2  0
 16 17  2  0
 16 15  1  0
 18 16  1  0
 19 18  1  0
 20 19  1  1
 21 20  1  0
 22 24  1  0
 22 20  1  0
 23 22  2  0
M  END
$$$$
