HGQ.pdb
     RDKit          3D

 24 24  0  0  1  0  0  0  0  0999 V2000
   25.9325  -20.6528  -15.4141 N   0  0  0  0  0  0  0  0  0  0  0  0
   26.9671  -20.6464  -14.4262 C   0  0  1  0  0  0  0  0  0  0  0  0
   28.0266  -19.6238  -14.7615 C   0  0  0  0  0  0  0  0  0  0  0  0
   28.5502  -19.8236  -16.1247 C   0  0  0  0  0  0  0  0  0  0  0  0
   29.3841  -20.8118  -16.5855 C   0  0  0  0  0  0  0  0  0  0  0  0
   29.6167  -20.6169  -17.9153 N   0  0  0  0  0  0  0  0  0  0  0  0
   28.9332  -19.5171  -18.2775 C   0  0  0  0  0  0  0  0  0  0  0  0
   28.2853  -19.0403  -17.1767 N   0  0  0  0  0  0  0  0  0  0  0  0
   26.3643  -20.4150  -13.0938 C   0  0  0  0  0  0  0  0  0  0  0  0
   26.2302  -19.2516  -12.6656 O   0  0  0  0  0  0  0  0  0  0  0  0
   25.9330  -21.4797  -12.2867 N   0  0  0  0  0  0  0  0  0  0  0  0
   25.2702  -21.2771  -10.9901 C   0  0  0  0  0  0  0  0  0  0  0  0
   23.8049  -21.1803  -11.1899 C   0  0  0  0  0  0  0  0  0  0  0  0
   23.0396  -21.0688  -10.2057 O   0  0  0  0  0  0  0  0  0  0  0  0
   21.6708  -17.8185  -15.6570 N   0  0  0  0  0  0  0  0  0  0  0  0
   20.4960  -18.1997  -14.9768 C   0  0  0  0  0  0  0  0  0  0  0  0
   19.4198  -17.6420  -15.3387 O   0  0  0  0  0  0  0  0  0  0  0  0
   20.4653  -19.1912  -13.8919 C   0  0  0  0  0  0  0  0  0  0  0  0
   21.8125  -19.6428  -13.4672 C   0  0  0  0  0  0  0  0  0  0  0  0
   21.8681  -20.9257  -12.7039 C   0  0  2  0  0  0  0  0  0  0  0  0
   23.2920  -21.2163  -12.5061 N   0  0  0  0  0  0  0  0  0  0  0  0
   21.3131  -22.0654  -13.5146 C   0  0  0  0  0  0  0  0  0  0  0  0
   22.0847  -22.7196  -14.2562 O   0  0  0  0  0  0  0  0  0  0  0  0
   19.9727  -22.4125  -13.4649 O   0  0  0  0  0  0  0  0  0  0  0  0
  2  1  1  6
  3  2  1  0
  4  3  1  0
  5  4  2  0
  6  5  1  0
  7  8  2  0
  7  6  1  0
  8  4  1  0
  9 11  1  0
  9  2  1  0
 10  9  2  0
 12 13  1  0
 12 11  1  0
 13 21  1  0
 14 13  2  0
 16 17  2  0
 16 15  1  0
 18 16  1  0
 19 18  1  0
 20 19  1  6
 21 20  1  0
 22 24  1  0
 22 20  1  0
 23 22  2  0
M  END
$$$$
