HGQ.pdb
     RDKit          3D

 24 24  0  0  1  0  0  0  0  0999 V2000
   25.6123  -31.7823   -7.5177 N   0  0  0  0  0  0  0  0  0  0  0  0
   26.4046  -32.9701   -7.6064 C   0  0  1  0  0  0  0  0  0  0  0  0
   27.0113  -33.1121   -8.9821 C   0  0  0  0  0  0  0  0  0  0  0  0
   25.9687  -33.2501  -10.0147 C   0  0  0  0  0  0  0  0  0  0  0  0
   25.7759  -32.4930  -11.1434 C   0  0  0  0  0  0  0  0  0  0  0  0
   24.6913  -32.9678  -11.8207 N   0  0  0  0  0  0  0  0  0  0  0  0
   24.2145  -34.0108  -11.1187 C   0  0  0  0  0  0  0  0  0  0  0  0
   25.0017  -34.1748  -10.0177 N   0  0  0  0  0  0  0  0  0  0  0  0
   27.4305  -32.9498   -6.5390 C   0  0  0  0  0  0  0  0  0  0  0  0
   27.9441  -31.8683   -6.1907 O   0  0  0  0  0  0  0  0  0  0  0  0
   27.8484  -34.1269   -5.8982 N   0  0  0  0  0  0  0  0  0  0  0  0
   28.8068  -34.1283   -4.7832 C   0  0  0  0  0  0  0  0  0  0  0  0
   28.0830  -34.3246   -3.5050 C   0  0  0  0  0  0  0  0  0  0  0  0
   26.8642  -34.0519   -3.4214 O   0  0  0  0  0  0  0  0  0  0  0  0
   24.5068  -36.7977   -2.0154 N   0  0  0  0  0  0  0  0  0  0  0  0
   25.0633  -37.1653   -0.7730 C   0  0  0  0  0  0  0  0  0  0  0  0
   24.2644  -37.6070    0.1026 O   0  0  0  0  0  0  0  0  0  0  0  0
   26.4950  -37.0605   -0.4561 C   0  0  0  0  0  0  0  0  0  0  0  0
   27.2961  -36.4454   -1.5419 C   0  0  0  0  0  0  0  0  0  0  0  0
   28.0303  -35.1925   -1.1915 C   0  0  2  0  0  0  0  0  0  0  0  0
   28.7922  -34.8228   -2.3889 N   0  0  0  0  0  0  0  0  0  0  0  0
   29.0429  -35.4409   -0.1066 C   0  0  0  0  0  0  0  0  0  0  0  0
   28.7888  -35.0661    1.0631 O   0  0  0  0  0  0  0  0  0  0  0  0
   30.2490  -36.0725   -0.3637 O   0  0  0  0  0  0  0  0  0  0  0  0
  2  1  1  6
  3  2  1  0
  4  3  1  0
  5  4  2  0
  6  5  1  0
  7  8  2  0
  7  6  1  0
  8  4  1  0
  9 11  1  0
  9  2  1  0
 10  9  2  0
 12 13  1  0
 12 11  1  0
 13 21  1  0
 14 13  2  0
 16 17  2  0
 16 15  1  0
 18 16  1  0
 19 18  1  0
 20 19  1  6
 21 20  1  0
 22 24  1  0
 22 20  1  0
 23 22  2  0
M  END
$$$$
