HGQ.pdb
     RDKit          3D

 24 24  0  0  1  0  0  0  0  0999 V2000
   44.9877  -15.3274   -7.0766 N   0  0  0  0  0  0  0  0  0  0  0  0
   44.4880  -15.0113   -8.3792 C   0  0  1  0  0  0  0  0  0  0  0  0
   43.3512  -15.9303   -8.7584 C   0  0  0  0  0  0  0  0  0  0  0  0
   43.8434  -17.2769   -9.1000 C   0  0  0  0  0  0  0  0  0  0  0  0
   45.1407  -17.7098   -9.2189 C   0  0  0  0  0  0  0  0  0  0  0  0
   45.1421  -19.0329   -9.5507 N   0  0  0  0  0  0  0  0  0  0  0  0
   43.8569  -19.4184   -9.6372 C   0  0  0  0  0  0  0  0  0  0  0  0
   43.0719  -18.3387   -9.3602 N   0  0  0  0  0  0  0  0  0  0  0  0
   44.0932  -13.5847   -8.4143 C   0  0  0  0  0  0  0  0  0  0  0  0
   43.6940  -13.0761   -9.4805 O   0  0  0  0  0  0  0  0  0  0  0  0
   44.1552  -12.7760   -7.2684 N   0  0  0  0  0  0  0  0  0  0  0  0
   43.6073  -11.4123   -7.2267 C   0  0  0  0  0  0  0  0  0  0  0  0
   44.5819  -10.4660   -7.8189 C   0  0  0  0  0  0  0  0  0  0  0  0
   45.8110  -10.6792   -7.7164 O   0  0  0  0  0  0  0  0  0  0  0  0
   44.9466   -5.4205  -13.1446 N   0  0  0  0  0  0  0  0  0  0  0  0
   44.3544   -6.0533  -12.0324 C   0  0  0  0  0  0  0  0  0  0  0  0
   43.0903   -6.0611  -11.9855 O   0  0  0  0  0  0  0  0  0  0  0  0
   45.1204   -6.6886  -10.9503 C   0  0  0  0  0  0  0  0  0  0  0  0
   44.3722   -7.7589  -10.2475 C   0  0  0  0  0  0  0  0  0  0  0  0
   45.0746   -8.4121   -9.1023 C   0  0  2  0  0  0  0  0  0  0  0  0
   44.0986   -9.3247   -8.4977 N   0  0  0  0  0  0  0  0  0  0  0  0
   45.4302   -7.4090   -8.0387 C   0  0  0  0  0  0  0  0  0  0  0  0
   44.6078   -7.1745   -7.1212 O   0  0  0  0  0  0  0  0  0  0  0  0
   46.6416   -6.7365   -8.0445 O   0  0  0  0  0  0  0  0  0  0  0  0
  2  1  1  1
  3  2  1  0
  4  3  1  0
  5  4  2  0
  6  5  1  0
  7  8  2  0
  7  6  1  0
  8  4  1  0
  9 11  1  0
  9  2  1  0
 10  9  2  0
 12 13  1  0
 12 11  1  0
 13 21  1  0
 14 13  2  0
 16 17  2  0
 16 15  1  0
 18 16  1  0
 19 18  1  0
 20 19  1  6
 21 20  1  0
 22 24  1  0
 22 20  1  0
 23 22  2  0
M  END
$$$$
