HGQ.pdb
     RDKit          3D

 24 24  0  0  1  0  0  0  0  0999 V2000
   24.1365  -18.2448  -16.3162 N   0  0  0  0  0  0  0  0  0  0  0  0
   24.8462  -19.0393  -17.2708 C   0  0  1  0  0  0  0  0  0  0  0  0
   26.3370  -18.9453  -17.0488 C   0  0  0  0  0  0  0  0  0  0  0  0
   26.7934  -17.5441  -17.0696 C   0  0  0  0  0  0  0  0  0  0  0  0
   27.1774  -16.7527  -16.0156 C   0  0  0  0  0  0  0  0  0  0  0  0
   27.5254  -15.5203  -16.4851 N   0  0  0  0  0  0  0  0  0  0  0  0
   27.3590  -15.5457  -17.8191 C   0  0  0  0  0  0  0  0  0  0  0  0
   26.9117  -16.7861  -18.1658 N   0  0  0  0  0  0  0  0  0  0  0  0
   24.3546  -20.4343  -17.2022 C   0  0  0  0  0  0  0  0  0  0  0  0
   24.8040  -21.2913  -17.9884 O   0  0  0  0  0  0  0  0  0  0  0  0
   23.3846  -20.8270  -16.2662 N   0  0  0  0  0  0  0  0  0  0  0  0
   23.0869  -22.2367  -15.9732 C   0  0  0  0  0  0  0  0  0  0  0  0
   22.5808  -22.3606  -14.5859 C   0  0  0  0  0  0  0  0  0  0  0  0
   22.1437  -23.4569  -14.1689 O   0  0  0  0  0  0  0  0  0  0  0  0
   25.1561  -20.5876   -9.5940 N   0  0  0  0  0  0  0  0  0  0  0  0
   25.2977  -21.5779  -10.5878 C   0  0  0  0  0  0  0  0  0  0  0  0
   26.3825  -22.2287  -10.5954 O   0  0  0  0  0  0  0  0  0  0  0  0
   24.2677  -21.8808  -11.5920 C   0  0  0  0  0  0  0  0  0  0  0  0
   23.0301  -21.0804  -11.4275 C   0  0  0  0  0  0  0  0  0  0  0  0
   21.9532  -21.3160  -12.4357 C   0  0  2  0  0  0  0  0  0  0  0  0
   22.6014  -21.2229  -13.7480 N   0  0  0  0  0  0  0  0  0  0  0  0
   20.9217  -20.2213  -12.3955 C   0  0  0  0  0  0  0  0  0  0  0  0
   20.9634  -19.3112  -13.2576 O   0  0  0  0  0  0  0  0  0  0  0  0
   19.9263  -20.1904  -11.4322 O   0  0  0  0  0  0  0  0  0  0  0  0
  2  1  1  1
  3  2  1  0
  4  3  1  0
  5  4  2  0
  6  5  1  0
  7  8  2  0
  7  6  1  0
  8  4  1  0
  9 11  1  0
  9  2  1  0
 10  9  2  0
 12 13  1  0
 12 11  1  0
 13 21  1  0
 14 13  2  0
 16 17  2  0
 16 15  1  0
 18 16  1  0
 19 18  1  0
 20 19  1  1
 21 20  1  0
 22 24  1  0
 22 20  1  0
 23 22  2  0
M  END
$$$$
