HWA.pdb
     RDKit          3D

 30 32  0  0  1  0  0  0  0  0999 V2000
   25.2955  -20.7763  -13.9560 N   0  0  0  0  0  0  0  0  0  0  0  0
   24.6586  -20.1808  -12.8236 C   0  0  1  0  0  0  0  0  0  0  0  0
   23.1645  -20.2278  -12.8619 C   0  0  0  0  0  0  0  0  0  0  0  0
   22.5686  -19.4952  -13.9720 C   0  0  0  0  0  0  0  0  0  0  0  0
   22.6862  -18.1607  -14.2615 C   0  0  0  0  0  0  0  0  0  0  0  0
   21.9645  -17.9051  -15.3871 N   0  0  0  0  0  0  0  0  0  0  0  0
   21.4257  -19.0551  -15.7668 C   0  0  0  0  0  0  0  0  0  0  0  0
   21.7827  -20.0180  -14.9225 N   0  0  0  0  0  0  0  0  0  0  0  0
   25.0826  -20.8080  -11.5338 C   0  0  0  0  0  0  0  0  0  0  0  0
   25.1381  -22.0604  -11.4526 O   0  0  0  0  0  0  0  0  0  0  0  0
   25.4173  -20.0272  -10.4210 N   0  0  0  0  0  0  0  0  0  0  0  0
   25.9206  -20.6051   -9.1676 C   0  0  1  0  0  0  0  0  0  0  0  0
   26.7659  -19.5776   -8.4342 C   0  0  0  0  0  0  0  0  0  0  0  0
   27.8300  -20.1916   -7.6358 C   0  0  0  0  0  0  0  0  0  0  0  0
   28.5661  -21.3201   -7.9182 C   0  0  0  0  0  0  0  0  0  0  0  0
   29.4330  -21.5236   -6.9155 N   0  0  0  0  0  0  0  0  0  0  0  0
   29.3084  -20.5752   -5.9689 C   0  0  0  0  0  0  0  0  0  0  0  0
   29.9503  -20.3431   -4.7720 C   0  0  0  0  0  0  0  0  0  0  0  0
   29.5594  -19.2490   -4.0344 C   0  0  0  0  0  0  0  0  0  0  0  0
   28.5689  -18.3852   -4.4310 C   0  0  0  0  0  0  0  0  0  0  0  0
   27.9514  -18.6639   -5.6483 C   0  0  0  0  0  0  0  0  0  0  0  0
   28.3002  -19.7392   -6.4241 C   0  0  0  0  0  0  0  0  0  0  0  0
   24.7251  -20.8714   -8.3334 C   0  0  0  0  0  0  0  0  0  0  0  0
   23.8151  -20.0106   -8.3075 O   0  0  0  0  0  0  0  0  0  0  0  0
   23.0805  -23.6818   -6.4514 C   0  0  0  0  0  0  0  0  0  0  0  0
   23.3673  -22.2206   -6.7266 C   0  0  2  0  0  0  0  0  0  0  0  0
   24.5482  -22.0447   -7.5602 N   0  0  0  0  0  0  0  0  0  0  0  0
   23.4714  -21.4254   -5.4768 C   0  0  0  0  0  0  0  0  0  0  0  0
   22.4473  -21.1410   -4.8079 O   0  0  0  0  0  0  0  0  0  0  0  0
   24.6878  -20.9532   -4.9764 O   0  0  0  0  0  0  0  0  0  0  0  0
  2  3  1  0
  2  1  1  6
  4  3  1  0
  4  8  1  0
  5  6  1  0
  5  4  2  0
  6  7  1  0
  7  8  2  0
  9  2  1  0
 10  9  2  0
 11  9  1  0
 12 11  1  0
 12 13  1  1
 13 14  1  0
 14 15  2  0
 15 16  1  0
 17 16  1  0
 18 17  2  0
 19 18  1  0
 20 21  1  0
 20 19  2  0
 21 22  2  0
 22 14  1  0
 22 17  1  0
 23 24  2  0
 23 12  1  0
 26 25  1  1
 26 27  1  0
 27 23  1  0
 28 26  1  0
 29 28  2  0
 30 28  1  0
M  END
$$$$
