HWA.pdb
     RDKit          3D

 30 32  0  0  1  0  0  0  0  0999 V2000
   20.8844  -20.9749  -11.8693 N   0  0  0  0  0  0  0  0  0  0  0  0
   21.9407  -21.4659  -12.6974 C   0  0  1  0  0  0  0  0  0  0  0  0
   21.6541  -21.4028  -14.1637 C   0  0  0  0  0  0  0  0  0  0  0  0
   20.5057  -22.1945  -14.5859 C   0  0  0  0  0  0  0  0  0  0  0  0
   20.4062  -23.5591  -14.6671 C   0  0  0  0  0  0  0  0  0  0  0  0
   19.1562  -23.8683  -15.1087 N   0  0  0  0  0  0  0  0  0  0  0  0
   18.5182  -22.7205  -15.2892 C   0  0  0  0  0  0  0  0  0  0  0  0
   19.3208  -21.7075  -14.9777 N   0  0  0  0  0  0  0  0  0  0  0  0
   23.2284  -20.7393  -12.4722 C   0  0  0  0  0  0  0  0  0  0  0  0
   23.2163  -19.4858  -12.3902 O   0  0  0  0  0  0  0  0  0  0  0  0
   24.4409  -21.4287  -12.3517 N   0  0  0  0  0  0  0  0  0  0  0  0
   25.7248  -20.7466  -12.1407 C   0  0  1  0  0  0  0  0  0  0  0  0
   26.5715  -21.5423  -11.1617 C   0  0  0  0  0  0  0  0  0  0  0  0
   26.6571  -20.9051   -9.8452 C   0  0  0  0  0  0  0  0  0  0  0  0
   25.6592  -20.2781   -9.1338 C   0  0  0  0  0  0  0  0  0  0  0  0
   26.1750  -19.8372   -7.9771 N   0  0  0  0  0  0  0  0  0  0  0  0
   27.4821  -20.1435   -7.8828 C   0  0  0  0  0  0  0  0  0  0  0  0
   28.4393  -19.9181   -6.9178 C   0  0  0  0  0  0  0  0  0  0  0  0
   29.7132  -20.3817   -7.1552 C   0  0  0  0  0  0  0  0  0  0  0  0
   30.0725  -21.0522   -8.2980 C   0  0  0  0  0  0  0  0  0  0  0  0
   29.0682  -21.2544   -9.2421 C   0  0  0  0  0  0  0  0  0  0  0  0
   27.7826  -20.8147   -9.0583 C   0  0  0  0  0  0  0  0  0  0  0  0
   26.4194  -20.7727  -13.4495 C   0  0  0  0  0  0  0  0  0  0  0  0
   26.3727  -21.8263  -14.1258 O   0  0  0  0  0  0  0  0  0  0  0  0
   28.5387  -18.4996  -15.6321 C   0  0  0  0  0  0  0  0  0  0  0  0
   27.7808  -19.7642  -15.2867 C   0  0  2  0  0  0  0  0  0  0  0  0
   27.1359  -19.6743  -13.9842 N   0  0  0  0  0  0  0  0  0  0  0  0
   28.6382  -20.9732  -15.3767 C   0  0  0  0  0  0  0  0  0  0  0  0
   29.2142  -21.4308  -14.3589 O   0  0  0  0  0  0  0  0  0  0  0  0
   28.8544  -21.6635  -16.5724 O   0  0  0  0  0  0  0  0  0  0  0  0
  2  3  1  0
  2  1  1  1
  4  3  1  0
  4  8  1  0
  5  6  1  0
  5  4  2  0
  6  7  1  0
  7  8  2  0
  9  2  1  0
 10  9  2  0
 11  9  1  0
 12 11  1  0
 12 13  1  1
 13 14  1  0
 14 15  2  0
 15 16  1  0
 17 16  1  0
 18 17  2  0
 19 18  1  0
 20 21  1  0
 20 19  2  0
 21 22  2  0
 22 14  1  0
 22 17  1  0
 23 24  2  0
 23 12  1  0
 26 25  1  1
 26 27  1  0
 27 23  1  0
 28 26  1  0
 29 28  2  0
 30 28  1  0
M  END
$$$$
