HWA.pdb
     RDKit          3D

 30 32  0  0  1  0  0  0  0  0999 V2000
   16.4281  -19.0161    2.7506 N   0  0  0  0  0  0  0  0  0  0  0  0
   16.4228  -19.1302    4.1752 C   0  0  1  0  0  0  0  0  0  0  0  0
   16.4728  -20.5365    4.6807 C   0  0  0  0  0  0  0  0  0  0  0  0
   15.4058  -21.3934    4.1796 C   0  0  0  0  0  0  0  0  0  0  0  0
   15.5020  -22.4178    3.2739 C   0  0  0  0  0  0  0  0  0  0  0  0
   14.2597  -22.9449    3.0954 N   0  0  0  0  0  0  0  0  0  0  0  0
   13.4356  -22.2568    3.8728 C   0  0  0  0  0  0  0  0  0  0  0  0
   14.1147  -21.3212    4.5293 N   0  0  0  0  0  0  0  0  0  0  0  0
   17.5598  -18.3962    4.8117 C   0  0  0  0  0  0  0  0  0  0  0  0
   18.6214  -18.2312    4.1605 O   0  0  0  0  0  0  0  0  0  0  0  0
   17.4619  -17.8922    6.1141 N   0  0  0  0  0  0  0  0  0  0  0  0
   18.5406  -17.1260    6.7525 C   0  0  1  0  0  0  0  0  0  0  0  0
   17.9725  -15.8577    7.3665 C   0  0  0  0  0  0  0  0  0  0  0  0
   18.0571  -14.7084    6.4618 C   0  0  0  0  0  0  0  0  0  0  0  0
   17.2013  -14.3607    5.4411 C   0  0  0  0  0  0  0  0  0  0  0  0
   17.6559  -13.2355    4.8704 N   0  0  0  0  0  0  0  0  0  0  0  0
   18.7852  -12.8127    5.4680 C   0  0  0  0  0  0  0  0  0  0  0  0
   19.6196  -11.7362    5.2600 C   0  0  0  0  0  0  0  0  0  0  0  0
   20.7176  -11.6059    6.0794 C   0  0  0  0  0  0  0  0  0  0  0  0
   21.0185  -12.4900    7.0856 C   0  0  0  0  0  0  0  0  0  0  0  0
   20.1437  -13.5610    7.2546 C   0  0  0  0  0  0  0  0  0  0  0  0
   19.0352  -13.7402    6.4679 C   0  0  0  0  0  0  0  0  0  0  0  0
   19.0377  -17.9714    7.8636 C   0  0  0  0  0  0  0  0  0  0  0  0
   18.2163  -18.6956    8.4723 O   0  0  0  0  0  0  0  0  0  0  0  0
   22.2583  -19.2688    9.2762 C   0  0  0  0  0  0  0  0  0  0  0  0
   20.8068  -18.8534    9.3927 C   0  0  2  0  0  0  0  0  0  0  0  0
   20.3905  -18.0102    8.2809 N   0  0  0  0  0  0  0  0  0  0  0  0
   20.5129  -18.2044   10.6956 C   0  0  0  0  0  0  0  0  0  0  0  0
   20.2690  -16.9742   10.7610 O   0  0  0  0  0  0  0  0  0  0  0  0
   20.4897  -18.9048   11.9046 O   0  0  0  0  0  0  0  0  0  0  0  0
  2  3  1  0
  2  1  1  6
  4  3  1  0
  4  8  1  0
  5  6  1  0
  5  4  2  0
  6  7  1  0
  7  8  2  0
  9  2  1  0
 10  9  2  0
 11  9  1  0
 12 11  1  0
 12 13  1  1
 13 14  1  0
 14 15  2  0
 15 16  1  0
 17 16  1  0
 18 17  2  0
 19 18  1  0
 20 21  1  0
 20 19  2  0
 21 22  2  0
 22 14  1  0
 22 17  1  0
 23 24  2  0
 23 12  1  0
 26 25  1  6
 26 27  1  0
 27 23  1  0
 28 26  1  0
 29 28  2  0
 30 28  1  0
M  END
$$$$
