HWA.pdb
     RDKit          3D

 30 32  0  0  1  0  0  0  0  0999 V2000
   26.9140  -18.5942  -18.0107 N   0  0  0  0  0  0  0  0  0  0  0  0
   26.1041  -18.0902  -16.9465 C   0  0  1  0  0  0  0  0  0  0  0  0
   24.7744  -17.5621  -17.3813 C   0  0  0  0  0  0  0  0  0  0  0  0
   24.8475  -16.4240  -18.2887 C   0  0  0  0  0  0  0  0  0  0  0  0
   24.4643  -16.3678  -19.6035 C   0  0  0  0  0  0  0  0  0  0  0  0
   24.7108  -15.1109  -20.0645 N   0  0  0  0  0  0  0  0  0  0  0  0
   25.2291  -14.4267  -19.0544 C   0  0  0  0  0  0  0  0  0  0  0  0
   25.3156  -15.2071  -17.9816 N   0  0  0  0  0  0  0  0  0  0  0  0
   25.8426  -19.1173  -15.8913 C   0  0  0  0  0  0  0  0  0  0  0  0
   25.5955  -20.2994  -16.2373 O   0  0  0  0  0  0  0  0  0  0  0  0
   25.8686  -18.7857  -14.5314 N   0  0  0  0  0  0  0  0  0  0  0  0
   25.7459  -19.7902  -13.4665 C   0  0  1  0  0  0  0  0  0  0  0  0
   26.2850  -19.2228  -12.1642 C   0  0  0  0  0  0  0  0  0  0  0  0
   26.3207  -20.2180  -11.0895 C   0  0  0  0  0  0  0  0  0  0  0  0
   26.2916  -21.5903  -11.1955 C   0  0  0  0  0  0  0  0  0  0  0  0
   26.3432  -22.1128   -9.9615 N   0  0  0  0  0  0  0  0  0  0  0  0
   26.4059  -21.1445   -9.0289 C   0  0  0  0  0  0  0  0  0  0  0  0
   26.4731  -21.1593   -7.6528 C   0  0  0  0  0  0  0  0  0  0  0  0
   26.5262  -19.9497   -6.9986 C   0  0  0  0  0  0  0  0  0  0  0  0
   26.5153  -18.7394   -7.6462 C   0  0  0  0  0  0  0  0  0  0  0  0
   26.4464  -18.7789   -9.0371 C   0  0  0  0  0  0  0  0  0  0  0  0
   26.3915  -19.9546   -9.7405 C   0  0  0  0  0  0  0  0  0  0  0  0
   24.2925  -20.0140  -13.2836 C   0  0  0  0  0  0  0  0  0  0  0  0
   23.5572  -19.0174  -13.0940 O   0  0  0  0  0  0  0  0  0  0  0  0
   21.7616  -22.8324  -13.3605 C   0  0  0  0  0  0  0  0  0  0  0  0
   22.2680  -21.4516  -12.9998 C   0  0  2  0  0  0  0  0  0  0  0  0
   23.6816  -21.2915  -13.3102 N   0  0  0  0  0  0  0  0  0  0  0  0
   21.9888  -21.1052  -11.5831 C   0  0  0  0  0  0  0  0  0  0  0  0
   22.8508  -21.3008  -10.6910 O   0  0  0  0  0  0  0  0  0  0  0  0
   20.7767  -20.5521  -11.1613 O   0  0  0  0  0  0  0  0  0  0  0  0
  2  3  1  0
  2  1  1  6
  4  3  1  0
  4  8  1  0
  5  6  1  0
  5  4  2  0
  6  7  1  0
  7  8  2  0
  9  2  1  0
 10  9  2  0
 11  9  1  0
 12 11  1  0
 12 13  1  1
 13 14  1  0
 14 15  2  0
 15 16  1  0
 17 16  1  0
 18 17  2  0
 19 18  1  0
 20 21  1  0
 20 19  2  0
 21 22  2  0
 22 14  1  0
 22 17  1  0
 23 24  2  0
 23 12  1  0
 26 25  1  1
 26 27  1  0
 27 23  1  0
 28 26  1  0
 29 28  2  0
 30 28  1  0
M  END
$$$$
