HWA.pdb
     RDKit          3D

 30 32  0  0  1  0  0  0  0  0999 V2000
   28.6675  -21.0521  -15.8612 N   0  0  0  0  0  0  0  0  0  0  0  0
   28.3592  -20.2569  -14.7144 C   0  0  1  0  0  0  0  0  0  0  0  0
   27.8370  -18.8925  -15.0332 C   0  0  0  0  0  0  0  0  0  0  0  0
   28.7539  -18.0637  -15.8056 C   0  0  0  0  0  0  0  0  0  0  0  0
   30.0796  -17.8177  -15.5592 C   0  0  0  0  0  0  0  0  0  0  0  0
   30.5460  -16.9889  -16.5332 N   0  0  0  0  0  0  0  0  0  0  0  0
   29.5285  -16.7413  -17.3459 C   0  0  0  0  0  0  0  0  0  0  0  0
   28.4458  -17.3829  -16.9175 N   0  0  0  0  0  0  0  0  0  0  0  0
   27.3557  -20.9105  -13.8185 C   0  0  0  0  0  0  0  0  0  0  0  0
   26.3788  -21.5114  -14.3312 O   0  0  0  0  0  0  0  0  0  0  0  0
   27.4858  -20.8646  -12.4253 N   0  0  0  0  0  0  0  0  0  0  0  0
   26.5511  -21.5432  -11.5176 C   0  0  1  0  0  0  0  0  0  0  0  0
   27.2419  -21.8330  -10.1958 C   0  0  0  0  0  0  0  0  0  0  0  0
   26.8246  -20.9176   -9.1307 C   0  0  0  0  0  0  0  0  0  0  0  0
   25.7204  -20.0962   -9.0950 C   0  0  0  0  0  0  0  0  0  0  0  0
   25.7244  -19.4295   -7.9315 N   0  0  0  0  0  0  0  0  0  0  0  0
   26.7893  -19.7707   -7.1826 C   0  0  0  0  0  0  0  0  0  0  0  0
   27.2361  -19.3791   -5.9395 C   0  0  0  0  0  0  0  0  0  0  0  0
   28.3963  -19.9472   -5.4649 C   0  0  0  0  0  0  0  0  0  0  0  0
   29.1234  -20.8775   -6.1653 C   0  0  0  0  0  0  0  0  0  0  0  0
   28.6293  -21.2395   -7.4165 C   0  0  0  0  0  0  0  0  0  0  0  0
   27.4791  -20.7061   -7.9387 C   0  0  0  0  0  0  0  0  0  0  0  0
   25.4677  -20.5691  -11.2464 C   0  0  0  0  0  0  0  0  0  0  0  0
   25.7776  -19.3661  -11.0830 O   0  0  0  0  0  0  0  0  0  0  0  0
   23.4415  -20.2887  -13.4489 C   0  0  0  0  0  0  0  0  0  0  0  0
   23.1001  -20.2369  -11.9745 C   0  0  2  0  0  0  0  0  0  0  0  0
   24.0975  -20.9169  -11.1602 N   0  0  0  0  0  0  0  0  0  0  0  0
   21.7374  -20.7573  -11.6966 C   0  0  0  0  0  0  0  0  0  0  0  0
   20.7283  -20.2376  -12.2339 O   0  0  0  0  0  0  0  0  0  0  0  0
   21.4960  -21.8339  -10.8389 O   0  0  0  0  0  0  0  0  0  0  0  0
  2  3  1  0
  2  1  1  6
  4  3  1  0
  4  8  1  0
  5  6  1  0
  5  4  2  0
  6  7  1  0
  7  8  2  0
  9  2  1  0
 10  9  2  0
 11  9  1  0
 12 11  1  0
 12 13  1  1
 13 14  1  0
 14 15  2  0
 15 16  1  0
 17 16  1  0
 18 17  2  0
 19 18  1  0
 20 21  1  0
 20 19  2  0
 21 22  2  0
 22 14  1  0
 22 17  1  0
 23 24  2  0
 23 12  1  0
 26 25  1  6
 26 27  1  0
 27 23  1  0
 28 26  1  0
 29 28  2  0
 30 28  1  0
M  END
$$$$
