HWA.pdb
     RDKit          3D

 30 32  0  0  1  0  0  0  0  0999 V2000
   28.3979  -21.0588  -16.1455 N   0  0  0  0  0  0  0  0  0  0  0  0
   27.9131  -20.3724  -14.9894 C   0  0  1  0  0  0  0  0  0  0  0  0
   27.4558  -18.9729  -15.2506 C   0  0  0  0  0  0  0  0  0  0  0  0
   28.4282  -18.1440  -15.9516 C   0  0  0  0  0  0  0  0  0  0  0  0
   29.7693  -18.0192  -15.6970 C   0  0  0  0  0  0  0  0  0  0  0  0
   30.2918  -17.1387  -16.5941 N   0  0  0  0  0  0  0  0  0  0  0  0
   29.2924  -16.7426  -17.3695 C   0  0  0  0  0  0  0  0  0  0  0  0
   28.1671  -17.3413  -16.9917 N   0  0  0  0  0  0  0  0  0  0  0  0
   26.7754  -21.0889  -14.3344 C   0  0  0  0  0  0  0  0  0  0  0  0
   25.8920  -21.6186  -15.0534 O   0  0  0  0  0  0  0  0  0  0  0  0
   26.6787  -21.1789  -12.9406 N   0  0  0  0  0  0  0  0  0  0  0  0
   25.5678  -21.8619  -12.2641 C   0  0  1  0  0  0  0  0  0  0  0  0
   26.0494  -22.4349  -10.9419 C   0  0  0  0  0  0  0  0  0  0  0  0
   26.3155  -21.3968   -9.9429 C   0  0  0  0  0  0  0  0  0  0  0  0
   25.4120  -20.5894   -9.2893 C   0  0  0  0  0  0  0  0  0  0  0  0
   26.0875  -19.7810   -8.4595 N   0  0  0  0  0  0  0  0  0  0  0  0
   27.4113  -20.0135   -8.5297 C   0  0  0  0  0  0  0  0  0  0  0  0
   28.5033  -19.4632   -7.8948 C   0  0  0  0  0  0  0  0  0  0  0  0
   29.7484  -19.9543   -8.2153 C   0  0  0  0  0  0  0  0  0  0  0  0
   29.9523  -20.9577   -9.1297 C   0  0  0  0  0  0  0  0  0  0  0  0
   28.8159  -21.4802   -9.7434 C   0  0  0  0  0  0  0  0  0  0  0  0
   27.5518  -21.0294   -9.4627 C   0  0  0  0  0  0  0  0  0  0  0  0
   24.5717  -20.8095  -11.9537 C   0  0  0  0  0  0  0  0  0  0  0  0
   24.9566  -19.6175  -11.9241 O   0  0  0  0  0  0  0  0  0  0  0  0
   22.7172  -19.3835  -13.4131 C   0  0  0  0  0  0  0  0  0  0  0  0
   22.1546  -20.3802  -12.4216 C   0  0  2  0  0  0  0  0  0  0  0  0
   23.2055  -21.0705  -11.6871 N   0  0  0  0  0  0  0  0  0  0  0  0
   21.2275  -21.3463  -13.0636 C   0  0  0  0  0  0  0  0  0  0  0  0
   21.5924  -22.5229  -13.3080 O   0  0  0  0  0  0  0  0  0  0  0  0
   19.9197  -21.0158  -13.4288 O   0  0  0  0  0  0  0  0  0  0  0  0
  2  3  1  0
  2  1  1  6
  4  3  1  0
  4  8  1  0
  5  6  1  0
  5  4  2  0
  6  7  1  0
  7  8  2  0
  9  2  1  0
 10  9  2  0
 11  9  1  0
 12 11  1  0
 12 13  1  1
 13 14  1  0
 14 15  2  0
 15 16  1  0
 17 16  1  0
 18 17  2  0
 19 18  1  0
 20 21  1  0
 20 19  2  0
 21 22  2  0
 22 14  1  0
 22 17  1  0
 23 24  2  0
 23 12  1  0
 26 25  1  6
 26 27  1  0
 27 23  1  0
 28 26  1  0
 29 28  2  0
 30 28  1  0
M  END
$$$$
