HWA.pdb
     RDKit          3D

 30 32  0  0  1  0  0  0  0  0999 V2000
   13.8794  -31.8855    3.2216 N   0  0  0  0  0  0  0  0  0  0  0  0
   14.7761  -32.2102    4.2861 C   0  0  1  0  0  0  0  0  0  0  0  0
   15.0311  -33.6743    4.4518 C   0  0  0  0  0  0  0  0  0  0  0  0
   13.8431  -34.4598    4.7610 C   0  0  0  0  0  0  0  0  0  0  0  0
   13.2579  -35.4385    4.0006 C   0  0  0  0  0  0  0  0  0  0  0  0
   12.1696  -35.9047    4.6725 N   0  0  0  0  0  0  0  0  0  0  0  0
   12.1000  -35.2251    5.8085 C   0  0  0  0  0  0  0  0  0  0  0  0
   13.1019  -34.3535    5.8717 N   0  0  0  0  0  0  0  0  0  0  0  0
   16.1089  -31.5491    4.1325 C   0  0  0  0  0  0  0  0  0  0  0  0
   16.6580  -31.5364    3.0027 O   0  0  0  0  0  0  0  0  0  0  0  0
   16.7517  -30.9471    5.2208 N   0  0  0  0  0  0  0  0  0  0  0  0
   18.0471  -30.2649    5.1000 C   0  0  1  0  0  0  0  0  0  0  0  0
   17.9305  -28.8478    5.6354 C   0  0  0  0  0  0  0  0  0  0  0  0
   17.7289  -27.8600    4.5723 C   0  0  0  0  0  0  0  0  0  0  0  0
   16.5484  -27.4732    3.9791 C   0  0  0  0  0  0  0  0  0  0  0  0
   16.8232  -26.5433    3.0527 N   0  0  0  0  0  0  0  0  0  0  0  0
   18.1438  -26.2895    2.9999 C   0  0  0  0  0  0  0  0  0  0  0  0
   18.9139  -25.4396    2.2363 C   0  0  0  0  0  0  0  0  0  0  0  0
   20.2733  -25.4362    2.4508 C   0  0  0  0  0  0  0  0  0  0  0  0
   20.8933  -26.2326    3.3814 C   0  0  0  0  0  0  0  0  0  0  0  0
   20.0703  -27.0736    4.1273 C   0  0  0  0  0  0  0  0  0  0  0  0
   18.7107  -27.1184    3.9559 C   0  0  0  0  0  0  0  0  0  0  0  0
   18.9780  -30.9988    5.9894 C   0  0  0  0  0  0  0  0  0  0  0  0
   18.6139  -31.2359    7.1646 O   0  0  0  0  0  0  0  0  0  0  0  0
   22.3326  -32.7509    5.8618 C   0  0  0  0  0  0  0  0  0  0  0  0
   21.1668  -32.0688    6.5464 C   0  0  2  0  0  0  0  0  0  0  0  0
   20.2596  -31.4500    5.5900 N   0  0  0  0  0  0  0  0  0  0  0  0
   21.6132  -31.0904    7.5704 C   0  0  0  0  0  0  0  0  0  0  0  0
   22.1687  -31.4752    8.6289 O   0  0  0  0  0  0  0  0  0  0  0  0
   21.4474  -29.7104    7.4253 O   0  0  0  0  0  0  0  0  0  0  0  0
  2  3  1  0
  2  1  1  6
  4  3  1  0
  4  8  1  0
  5  6  1  0
  5  4  2  0
  6  7  1  0
  7  8  2  0
  9  2  1  0
 10  9  2  0
 11  9  1  0
 12 11  1  0
 12 13  1  1
 13 14  1  0
 14 15  2  0
 15 16  1  0
 17 16  1  0
 18 17  2  0
 19 18  1  0
 20 21  1  0
 20 19  2  0
 21 22  2  0
 22 14  1  0
 22 17  1  0
 23 24  2  0
 23 12  1  0
 26 25  1  6
 26 27  1  0
 27 23  1  0
 28 26  1  0
 29 28  2  0
 30 28  1  0
M  END
$$$$
