HWA.pdb
     RDKit          3D

 30 32  0  0  1  0  0  0  0  0999 V2000
   25.5715  -12.2987  -19.1915 N   0  0  0  0  0  0  0  0  0  0  0  0
   24.9986  -11.6797  -18.0378 C   0  0  1  0  0  0  0  0  0  0  0  0
   25.9998  -11.1650  -17.0536 C   0  0  0  0  0  0  0  0  0  0  0  0
   26.8429  -12.1950  -16.4599 C   0  0  0  0  0  0  0  0  0  0  0  0
   26.7963  -13.5484  -16.6715 C   0  0  0  0  0  0  0  0  0  0  0  0
   27.7646  -14.1306  -15.9123 N   0  0  0  0  0  0  0  0  0  0  0  0
   28.3794  -13.1543  -15.2598 C   0  0  0  0  0  0  0  0  0  0  0  0
   27.8328  -11.9859  -15.5820 N   0  0  0  0  0  0  0  0  0  0  0  0
   24.1025  -10.5349  -18.3889 C   0  0  0  0  0  0  0  0  0  0  0  0
   24.5093   -9.6677  -19.2017 O   0  0  0  0  0  0  0  0  0  0  0  0
   22.8246  -10.4138  -17.8302 N   0  0  0  0  0  0  0  0  0  0  0  0
   21.8907   -9.3445  -18.2079 C   0  0  1  0  0  0  0  0  0  0  0  0
   20.4680   -9.8773  -18.1865 C   0  0  0  0  0  0  0  0  0  0  0  0
   19.4893   -8.8854  -18.6394 C   0  0  0  0  0  0  0  0  0  0  0  0
   19.7221   -7.6725  -19.2475 C   0  0  0  0  0  0  0  0  0  0  0  0
   18.5409   -7.0864  -19.4921 N   0  0  0  0  0  0  0  0  0  0  0  0
   17.5220   -7.8587  -19.0718 C   0  0  0  0  0  0  0  0  0  0  0  0
   16.1523   -7.7113  -19.0924 C   0  0  0  0  0  0  0  0  0  0  0  0
   15.3883   -8.7257  -18.5620 C   0  0  0  0  0  0  0  0  0  0  0  0
   15.9216   -9.8678  -18.0180 C   0  0  0  0  0  0  0  0  0  0  0  0
   17.3111   -9.9681  -18.0214 C   0  0  0  0  0  0  0  0  0  0  0  0
   18.1209   -8.9888  -18.5362 C   0  0  0  0  0  0  0  0  0  0  0  0
   21.9950   -8.3184  -17.1438 C   0  0  0  0  0  0  0  0  0  0  0  0
   22.1608   -8.7022  -15.9627 O   0  0  0  0  0  0  0  0  0  0  0  0
   22.2335   -4.5532  -16.7975 C   0  0  0  0  0  0  0  0  0  0  0  0
   22.0609   -5.9700  -16.2915 C   0  0  2  0  0  0  0  0  0  0  0  0
   21.9182   -6.9244  -17.3819 N   0  0  0  0  0  0  0  0  0  0  0  0
   20.9376   -6.0873  -15.3274 C   0  0  0  0  0  0  0  0  0  0  0  0
   19.7977   -6.4511  -15.7089 O   0  0  0  0  0  0  0  0  0  0  0  0
   21.0736   -5.8067  -13.9652 O   0  0  0  0  0  0  0  0  0  0  0  0
  2  3  1  0
  2  1  1  6
  4  3  1  0
  4  8  1  0
  5  6  1  0
  5  4  2  0
  6  7  1  0
  7  8  2  0
  9  2  1  0
 10  9  2  0
 11  9  1  0
 12 11  1  0
 12 13  1  1
 13 14  1  0
 14 15  2  0
 15 16  1  0
 17 16  1  0
 18 17  2  0
 19 18  1  0
 20 21  1  0
 20 19  2  0
 21 22  2  0
 22 14  1  0
 22 17  1  0
 23 24  2  0
 23 12  1  0
 26 25  1  6
 26 27  1  0
 27 23  1  0
 28 26  1  0
 29 28  2  0
 30 28  1  0
M  END
$$$$
