HWA.pdb
     RDKit          3D

 30 32  0  0  1  0  0  0  0  0999 V2000
   27.7338  -20.6602  -15.8506 N   0  0  0  0  0  0  0  0  0  0  0  0
   26.8338  -19.8937  -15.0475 C   0  0  1  0  0  0  0  0  0  0  0  0
   25.8618  -19.0682  -15.8285 C   0  0  0  0  0  0  0  0  0  0  0  0
   26.4803  -18.1060  -16.7316 C   0  0  0  0  0  0  0  0  0  0  0  0
   26.7771  -18.2664  -18.0601 C   0  0  0  0  0  0  0  0  0  0  0  0
   27.3475  -17.1151  -18.5098 N   0  0  0  0  0  0  0  0  0  0  0  0
   27.3938  -16.2820  -17.4798 C   0  0  0  0  0  0  0  0  0  0  0  0
   26.8747  -16.8680  -16.4053 N   0  0  0  0  0  0  0  0  0  0  0  0
   26.0333  -20.7453  -14.1145 C   0  0  0  0  0  0  0  0  0  0  0  0
   25.6125  -21.8598  -14.5135 O   0  0  0  0  0  0  0  0  0  0  0  0
   25.7463  -20.3241  -12.8106 N   0  0  0  0  0  0  0  0  0  0  0  0
   24.9567  -21.1313  -11.8708 C   0  0  1  0  0  0  0  0  0  0  0  0
   25.2059  -20.6519  -10.4508 C   0  0  0  0  0  0  0  0  0  0  0  0
   26.5727  -20.9224   -9.9977 C   0  0  0  0  0  0  0  0  0  0  0  0
   27.5937  -21.5385  -10.6855 C   0  0  0  0  0  0  0  0  0  0  0  0
   28.6756  -21.5782   -9.8940 N   0  0  0  0  0  0  0  0  0  0  0  0
   28.4216  -21.0122   -8.6997 C   0  0  0  0  0  0  0  0  0  0  0  0
   29.1817  -20.8083   -7.5687 C   0  0  0  0  0  0  0  0  0  0  0  0
   28.5866  -20.1796   -6.4988 C   0  0  0  0  0  0  0  0  0  0  0  0
   27.2829  -19.7496   -6.5048 C   0  0  0  0  0  0  0  0  0  0  0  0
   26.5576  -19.9796   -7.6719 C   0  0  0  0  0  0  0  0  0  0  0  0
   27.0992  -20.6009   -8.7675 C   0  0  0  0  0  0  0  0  0  0  0  0
   23.5364  -20.8531  -12.1890 C   0  0  0  0  0  0  0  0  0  0  0  0
   23.1714  -19.6581  -12.2813 O   0  0  0  0  0  0  0  0  0  0  0  0
   20.6216  -22.4659  -13.7849 C   0  0  0  0  0  0  0  0  0  0  0  0
   21.1938  -21.5155  -12.7542 C   0  0  2  0  0  0  0  0  0  0  0  0
   22.5624  -21.8603  -12.3958 N   0  0  0  0  0  0  0  0  0  0  0  0
   20.3341  -21.4141  -11.5477 C   0  0  0  0  0  0  0  0  0  0  0  0
   19.2658  -20.7545  -11.5725 O   0  0  0  0  0  0  0  0  0  0  0  0
   20.6516  -22.0319  -10.3350 O   0  0  0  0  0  0  0  0  0  0  0  0
  2  3  1  0
  2  1  1  6
  4  3  1  0
  4  8  1  0
  5  6  1  0
  5  4  2  0
  6  7  1  0
  7  8  2  0
  9  2  1  0
 10  9  2  0
 11  9  1  0
 12 11  1  0
 12 13  1  1
 13 14  1  0
 14 15  2  0
 15 16  1  0
 17 16  1  0
 18 17  2  0
 19 18  1  0
 20 21  1  0
 20 19  2  0
 21 22  2  0
 22 14  1  0
 22 17  1  0
 23 24  2  0
 23 12  1  0
 26 25  1  6
 26 27  1  0
 27 23  1  0
 28 26  1  0
 29 28  2  0
 30 28  1  0
M  END
$$$$
