HWA.pdb
     RDKit          3D

 30 32  0  0  1  0  0  0  0  0999 V2000
   20.8480  -12.2880  -18.4351 N   0  0  0  0  0  0  0  0  0  0  0  0
   20.6584  -10.8727  -18.3742 C   0  0  1  0  0  0  0  0  0  0  0  0
   19.2577  -10.4517  -18.0631 C   0  0  0  0  0  0  0  0  0  0  0  0
   18.3051  -10.6914  -19.1397 C   0  0  0  0  0  0  0  0  0  0  0  0
   18.1918  -10.0215  -20.3301 C   0  0  0  0  0  0  0  0  0  0  0  0
   17.1672  -10.5765  -21.0339 N   0  0  0  0  0  0  0  0  0  0  0  0
   16.6752  -11.5554  -20.2878 C   0  0  0  0  0  0  0  0  0  0  0  0
   17.3525  -11.6331  -19.1464 N   0  0  0  0  0  0  0  0  0  0  0  0
   21.5459  -10.2200  -17.3627 C   0  0  0  0  0  0  0  0  0  0  0  0
   21.8317  -10.8417  -16.3091 O   0  0  0  0  0  0  0  0  0  0  0  0
   22.0611   -8.9347  -17.5688 N   0  0  0  0  0  0  0  0  0  0  0  0
   22.9773   -8.2850  -16.6219 C   0  0  1  0  0  0  0  0  0  0  0  0
   24.2596   -7.8949  -17.3374 C   0  0  0  0  0  0  0  0  0  0  0  0
   25.1123   -9.0492  -17.6325 C   0  0  0  0  0  0  0  0  0  0  0  0
   25.3640   -9.6348  -18.8527 C   0  0  0  0  0  0  0  0  0  0  0  0
   26.2013  -10.6652  -18.6646 N   0  0  0  0  0  0  0  0  0  0  0  0
   26.5227  -10.7956  -17.3642 C   0  0  0  0  0  0  0  0  0  0  0  0
   27.3267  -11.6748  -16.6720 C   0  0  0  0  0  0  0  0  0  0  0  0
   27.4309  -11.5140  -15.3091 C   0  0  0  0  0  0  0  0  0  0  0  0
   26.7776  -10.5279  -14.6125 C   0  0  0  0  0  0  0  0  0  0  0  0
   25.9775   -9.6653  -15.3586 C   0  0  0  0  0  0  0  0  0  0  0  0
   25.8369   -9.7786  -16.7177 C   0  0  0  0  0  0  0  0  0  0  0  0
   22.3066   -7.0324  -16.2011 C   0  0  0  0  0  0  0  0  0  0  0  0
   21.5867   -6.4351  -17.0346 O   0  0  0  0  0  0  0  0  0  0  0  0
   21.5231   -5.0796  -13.0878 C   0  0  0  0  0  0  0  0  0  0  0  0
   21.7748   -5.2103  -14.5753 C   0  0  2  0  0  0  0  0  0  0  0  0
   22.4307   -6.4669  -14.9085 N   0  0  0  0  0  0  0  0  0  0  0  0
   22.5290   -4.0526  -15.1195 C   0  0  0  0  0  0  0  0  0  0  0  0
   23.7678   -4.1249  -15.3121 O   0  0  0  0  0  0  0  0  0  0  0  0
   21.9224   -2.8363  -15.4445 O   0  0  0  0  0  0  0  0  0  0  0  0
  2  3  1  0
  2  1  1  1
  4  3  1  0
  4  8  1  0
  5  6  1  0
  5  4  2  0
  6  7  1  0
  7  8  2  0
  9  2  1  0
 10  9  2  0
 11  9  1  0
 12 11  1  0
 12 13  1  6
 13 14  1  0
 14 15  2  0
 15 16  1  0
 17 16  1  0
 18 17  2  0
 19 18  1  0
 20 21  1  0
 20 19  2  0
 21 22  2  0
 22 14  1  0
 22 17  1  0
 23 24  2  0
 23 12  1  0
 26 25  1  1
 26 27  1  0
 27 23  1  0
 28 26  1  0
 29 28  2  0
 30 28  1  0
M  END
$$$$
