LRV.pdb
     RDKit          3D

 27 26  0  0  1  0  0  0  0  0999 V2000
    7.7354  -12.0415   19.1182 C   0  0  0  0  0  0  0  0  0  0  0  0
    7.7711  -13.5622   19.0098 C   0  0  1  0  0  0  0  0  0  0  0  0
    9.1320  -14.0024   18.4970 C   0  0  0  0  0  0  0  0  0  0  0  0
    7.5152  -14.0856   20.4065 C   0  0  0  0  0  0  0  0  0  0  0  0
    7.5243  -15.6203   20.3935 C   0  0  2  0  0  0  0  0  0  0  0  0
    6.3288  -16.1483   19.8209 N   0  0  0  0  0  0  0  0  0  0  0  0
    7.5352  -15.9837   21.8676 C   0  0  0  0  0  0  0  0  0  0  0  0
    6.5265  -15.6582   22.5171 O   0  0  0  0  0  0  0  0  0  0  0  0
   12.2628  -19.7927   23.2499 N   0  0  0  0  0  0  0  0  0  0  0  0
   12.9002  -19.2629   24.3988 C   0  0  0  0  0  0  0  0  0  0  0  0
   14.1218  -18.8560   24.4058 N   0  0  0  0  0  0  0  0  0  0  0  0
   12.1692  -19.1666   25.6208 N   0  0  0  0  0  0  0  0  0  0  0  0
   10.8164  -19.6253   25.7237 C   0  0  0  0  0  0  0  0  0  0  0  0
    9.8326  -18.4791   25.4962 C   0  0  0  0  0  0  0  0  0  0  0  0
    9.7688  -18.0960   24.0496 C   0  0  0  0  0  0  0  0  0  0  0  0
    8.7649  -16.9609   23.8085 C   0  0  2  0  0  0  0  0  0  0  0  0
    8.6383  -16.6470   22.4220 N   0  0  0  0  0  0  0  0  0  0  0  0
    9.1495  -15.7857   24.6052 C   0  0  0  0  0  0  0  0  0  0  0  0
   10.1827  -15.1036   24.3500 O   0  0  0  0  0  0  0  0  0  0  0  0
   14.5054  -18.5518   25.3279 C   0  0  0  0  0  0  0  0  0  0  0  0
    6.2250  -13.7888   26.8574 C   0  0  2  0  0  0  0  0  0  0  0  0
    7.5190  -13.1648   26.4002 C   0  0  0  0  0  0  0  0  0  0  0  0
    7.7650  -11.9427   27.2546 C   0  0  1  0  0  0  0  0  0  0  0  0
    8.6450  -14.1756   26.4931 N   0  0  0  0  0  0  0  0  0  0  0  0
    8.3606  -15.3580   25.7170 C   0  0  0  0  0  0  0  0  0  0  0  0
    8.9331  -14.5652   27.8797 O   0  0  0  0  0  0  0  0  0  0  0  0
    8.7355  -15.8712   28.2755 O   0  0  0  0  0  0  0  0  0  0  0  0
  2  3  1  1
  2  1  1  0
  4  2  1  0
  4  5  1  0
  5  7  1  0
  5  6  1  1
  7  8  2  0
 10 12  1  0
 10  9  1  0
 11 10  2  0
 13 14  1  0
 13 12  1  0
 14 15  1  0
 16 15  1  6
 17 16  1  0
 17  7  1  0
 18 19  2  0
 18 16  1  0
 21 20  1  6
 21 23  1  0
 22 21  1  0
 23 25  1  0
 23 24  1  6
 24 18  1  0
 25 26  1  0
 27 25  2  0
M  END
$$$$
