LRV.pdb
     RDKit          3D

 27 26  0  0  1  0  0  0  0  0999 V2000
    7.1978  -11.5174   21.6632 C   0  0  0  0  0  0  0  0  0  0  0  0
    7.2749  -12.9533   21.1554 C   0  0  1  0  0  0  0  0  0  0  0  0
    8.2303  -13.0236   19.9760 C   0  0  0  0  0  0  0  0  0  0  0  0
    7.7773  -13.7804   22.3189 C   0  0  0  0  0  0  0  0  0  0  0  0
    8.1578  -15.1843   21.8295 C   0  0  2  0  0  0  0  0  0  0  0  0
    7.0180  -15.9058   21.3645 N   0  0  0  0  0  0  0  0  0  0  0  0
    8.6623  -15.8696   23.0868 C   0  0  0  0  0  0  0  0  0  0  0  0
    7.9594  -15.7316   24.1027 O   0  0  0  0  0  0  0  0  0  0  0  0
   10.3216  -20.5796   20.2664 N   0  0  0  0  0  0  0  0  0  0  0  0
   11.4922  -19.8823   19.8785 C   0  0  0  0  0  0  0  0  0  0  0  0
   11.7183  -19.4960   18.6713 N   0  0  0  0  0  0  0  0  0  0  0  0
   12.4839  -19.5826   20.8603 N   0  0  0  0  0  0  0  0  0  0  0  0
   12.3281  -19.9768   22.2283 C   0  0  0  0  0  0  0  0  0  0  0  0
   11.1305  -19.2747   22.8657 C   0  0  0  0  0  0  0  0  0  0  0  0
   11.5701  -18.1946   23.8057 C   0  0  0  0  0  0  0  0  0  0  0  0
   10.4060  -17.2731   24.1931 C   0  0  2  0  0  0  0  0  0  0  0  0
    9.8554  -16.6044   23.0588 N   0  0  0  0  0  0  0  0  0  0  0  0
   10.8505  -16.3262   25.2273 C   0  0  0  0  0  0  0  0  0  0  0  0
   11.8465  -15.5649   25.0647 O   0  0  0  0  0  0  0  0  0  0  0  0
   12.6099  -18.9778   18.5080 C   0  0  0  0  0  0  0  0  0  0  0  0
    9.7319  -13.3941   26.7076 C   0  0  2  0  0  0  0  0  0  0  0  0
    9.8290  -14.2800   27.9235 C   0  0  0  0  0  0  0  0  0  0  0  0
    8.4221  -14.6445   28.3379 C   0  0  2  0  0  0  0  0  0  0  0  0
   10.6777  -15.4972   27.6135 N   0  0  0  0  0  0  0  0  0  0  0  0
   10.1660  -16.2241   26.4772 C   0  0  0  0  0  0  0  0  0  0  0  0
   10.7880  -16.4083   28.7603 O   0  0  0  0  0  0  0  0  0  0  0  0
   11.4842  -16.0105   29.8820 O   0  0  0  0  0  0  0  0  0  0  0  0
  2  3  1  6
  2  1  1  0
  4  2  1  0
  4  5  1  0
  5  7  1  0
  5  6  1  1
  7  8  2  0
 10 12  1  0
 10  9  1  0
 11 10  2  0
 13 14  1  0
 13 12  1  0
 14 15  1  0
 16 15  1  6
 17 16  1  0
 17  7  1  0
 18 19  2  0
 18 16  1  0
 21 20  1  1
 21 23  1  0
 22 21  1  0
 23 25  1  0
 23 24  1  1
 24 18  1  0
 25 26  1  0
 27 25  2  0
M  END
$$$$
