LRV.pdb
     RDKit          3D

 27 26  0  0  1  0  0  0  0  0999 V2000
    6.5912  -10.8725   26.8717 C   0  0  0  0  0  0  0  0  0  0  0  0
    6.0726  -11.8812   25.8522 C   0  0  1  0  0  0  0  0  0  0  0  0
    6.3316  -11.3620   24.4479 C   0  0  0  0  0  0  0  0  0  0  0  0
    6.8321  -13.1642   26.1120 C   0  0  0  0  0  0  0  0  0  0  0  0
    6.2367  -14.2981   25.2663 C   0  0  2  0  0  0  0  0  0  0  0  0
    4.9891  -14.7474   25.7931 N   0  0  0  0  0  0  0  0  0  0  0  0
    7.2434  -15.4228   25.4285 C   0  0  0  0  0  0  0  0  0  0  0  0
    7.2918  -15.9538   26.5514 O   0  0  0  0  0  0  0  0  0  0  0  0
   12.0306  -17.8716   19.5731 N   0  0  0  0  0  0  0  0  0  0  0  0
   12.7505  -18.7602   20.4093 C   0  0  0  0  0  0  0  0  0  0  0  0
   13.9877  -19.0628   20.2211 N   0  0  0  0  0  0  0  0  0  0  0  0
   12.0896  -19.3613   21.5224 N   0  0  0  0  0  0  0  0  0  0  0  0
   10.7240  -19.0632   21.8342 C   0  0  0  0  0  0  0  0  0  0  0  0
   10.6197  -18.2953   23.1507 C   0  0  0  0  0  0  0  0  0  0  0  0
    9.6158  -17.1878   23.0564 C   0  0  0  0  0  0  0  0  0  0  0  0
    9.0906  -16.7808   24.4395 C   0  0  2  0  0  0  0  0  0  0  0  0
    8.0507  -15.8074   24.3493 N   0  0  0  0  0  0  0  0  0  0  0  0
   10.2090  -16.3146   25.2735 C   0  0  0  0  0  0  0  0  0  0  0  0
   11.0290  -15.4378   24.8775 O   0  0  0  0  0  0  0  0  0  0  0  0
   14.3801  -19.8156   20.8290 C   0  0  0  0  0  0  0  0  0  0  0  0
   10.5739  -14.2442   27.7202 C   0  0  2  0  0  0  0  0  0  0  0  0
   11.2025  -15.4225   28.4198 C   0  0  0  0  0  0  0  0  0  0  0  0
   10.2280  -15.9051   29.4693 C   0  0  2  0  0  0  0  0  0  0  0  0
   11.5522  -16.4996   27.4119 N   0  0  0  0  0  0  0  0  0  0  0  0
   10.4194  -16.8394   26.5856 C   0  0  0  0  0  0  0  0  0  0  0  0
   12.0667  -17.7176   28.0515 O   0  0  0  0  0  0  0  0  0  0  0  0
   11.3495  -18.8914   27.9575 O   0  0  0  0  0  0  0  0  0  0  0  0
  2  3  1  6
  2  1  1  0
  4  2  1  0
  4  5  1  0
  5  7  1  0
  5  6  1  1
  7  8  2  0
 10 12  1  0
 10  9  1  0
 11 10  2  0
 13 14  1  0
 13 12  1  0
 14 15  1  0
 16 15  1  6
 17 16  1  0
 17  7  1  0
 18 19  2  0
 18 16  1  0
 21 20  1  1
 21 23  1  0
 22 21  1  0
 23 25  1  0
 23 24  1  1
 24 18  1  0
 25 26  1  0
 27 25  2  0
M  END
$$$$
