LRV.pdb
     RDKit          3D

 27 26  0  0  1  0  0  0  0  0999 V2000
    6.5985  -12.8410   19.0551 C   0  0  0  0  0  0  0  0  0  0  0  0
    7.7381  -13.7924   19.4041 C   0  0  1  0  0  0  0  0  0  0  0  0
    9.0674  -13.0778   19.2285 C   0  0  0  0  0  0  0  0  0  0  0  0
    7.5177  -14.1954   20.8460 C   0  0  0  0  0  0  0  0  0  0  0  0
    8.6637  -15.1048   21.3100 C   0  0  2  0  0  0  0  0  0  0  0  0
    8.6470  -16.3595   20.6309 N   0  0  0  0  0  0  0  0  0  0  0  0
    8.3390  -15.3609   22.7708 C   0  0  0  0  0  0  0  0  0  0  0  0
    8.0718  -14.3575   23.4542 O   0  0  0  0  0  0  0  0  0  0  0  0
    4.8110  -20.6935   21.6345 N   0  0  0  0  0  0  0  0  0  0  0  0
    6.2193  -20.8356   21.6929 C   0  0  0  0  0  0  0  0  0  0  0  0
    6.9883  -20.6875   20.6709 N   0  0  0  0  0  0  0  0  0  0  0  0
    6.8373  -21.1591   22.9381 N   0  0  0  0  0  0  0  0  0  0  0  0
    6.5075  -20.4593   24.1433 C   0  0  0  0  0  0  0  0  0  0  0  0
    6.7398  -18.9579   23.9838 C   0  0  0  0  0  0  0  0  0  0  0  0
    7.8649  -18.4862   24.8528 C   0  0  0  0  0  0  0  0  0  0  0  0
    8.1467  -16.9913   24.6520 C   0  0  2  0  0  0  0  0  0  0  0  0
    8.3517  -16.6677   23.2772 N   0  0  0  0  0  0  0  0  0  0  0  0
    9.2884  -16.5887   25.4876 C   0  0  0  0  0  0  0  0  0  0  0  0
   10.4867  -16.7849   25.1362 O   0  0  0  0  0  0  0  0  0  0  0  0
    7.9966  -20.9204   20.8098 C   0  0  0  0  0  0  0  0  0  0  0  0
    8.2841  -13.9926   28.2843 C   0  0  2  0  0  0  0  0  0  0  0  0
    9.7844  -14.1292   28.2294 C   0  0  0  0  0  0  0  0  0  0  0  0
   10.3060  -14.0225   29.6438 C   0  0  2  0  0  0  0  0  0  0  0  0
   10.1634  -15.4391   27.5670 N   0  0  0  0  0  0  0  0  0  0  0  0
    9.0895  -15.9493   26.7497 C   0  0  0  0  0  0  0  0  0  0  0  0
   10.5580  -16.4645   28.5418 O   0  0  0  0  0  0  0  0  0  0  0  0
   11.7586  -16.3440   29.2090 O   0  0  0  0  0  0  0  0  0  0  0  0
  2  3  1  1
  2  1  1  0
  4  2  1  0
  4  5  1  0
  5  7  1  0
  5  6  1  6
  7  8  2  0
 10 12  1  0
 10  9  1  0
 11 10  2  0
 13 14  1  0
 13 12  1  0
 14 15  1  0
 16 15  1  6
 17 16  1  0
 17  7  1  0
 18 19  2  0
 18 16  1  0
 21 20  1  6
 21 23  1  0
 22 21  1  0
 23 25  1  0
 23 24  1  6
 24 18  1  0
 25 26  1  0
 27 25  2  0
M  END
$$$$
