LRV.pdb
     RDKit          3D

 27 26  0  0  1  0  0  0  0  0999 V2000
    7.3563  -12.1134   19.6224 C   0  0  0  0  0  0  0  0  0  0  0  0
    8.2730  -13.3032   19.3590 C   0  0  1  0  0  0  0  0  0  0  0  0
    9.7120  -12.8243   19.2669 C   0  0  0  0  0  0  0  0  0  0  0  0
    8.0813  -14.2440   20.5287 C   0  0  0  0  0  0  0  0  0  0  0  0
    9.0019  -15.4617   20.3696 C   0  0  2  0  0  0  0  0  0  0  0  0
    8.4756  -16.3997   19.4320 N   0  0  0  0  0  0  0  0  0  0  0  0
    8.9702  -16.1076   21.7432 C   0  0  0  0  0  0  0  0  0  0  0  0
    7.8460  -16.4142   22.1759 O   0  0  0  0  0  0  0  0  0  0  0  0
    8.6451  -20.0141   20.8600 N   0  0  0  0  0  0  0  0  0  0  0  0
    9.7567  -20.8493   20.5883 C   0  0  0  0  0  0  0  0  0  0  0  0
    9.8984  -21.5028   19.4879 N   0  0  0  0  0  0  0  0  0  0  0  0
   10.7828  -20.9875   21.5707 N   0  0  0  0  0  0  0  0  0  0  0  0
   10.7742  -20.2168   22.7777 C   0  0  0  0  0  0  0  0  0  0  0  0
   11.3896  -18.8374   22.5491 C   0  0  0  0  0  0  0  0  0  0  0  0
   11.3405  -18.0067   23.7944 C   0  0  0  0  0  0  0  0  0  0  0  0
   10.2277  -16.9524   23.7279 C   0  0  2  0  0  0  0  0  0  0  0  0
   10.1623  -16.3267   22.4468 N   0  0  0  0  0  0  0  0  0  0  0  0
   10.4123  -15.9725   24.8094 C   0  0  0  0  0  0  0  0  0  0  0  0
   11.4752  -15.3009   24.9401 O   0  0  0  0  0  0  0  0  0  0  0  0
   10.7026  -22.1671   19.4417 C   0  0  0  0  0  0  0  0  0  0  0  0
    8.4372  -13.2051   28.3953 C   0  0  2  0  0  0  0  0  0  0  0  0
    8.2310  -14.1549   27.2429 C   0  0  0  0  0  0  0  0  0  0  0  0
    7.6804  -13.3561   26.0841 C   0  0  1  0  0  0  0  0  0  0  0  0
    9.5343  -14.8504   26.9025 N   0  0  0  0  0  0  0  0  0  0  0  0
    9.3837  -15.7337   25.7718 C   0  0  0  0  0  0  0  0  0  0  0  0
   10.0770  -15.6072   28.0383 O   0  0  0  0  0  0  0  0  0  0  0  0
   10.7751  -14.9460   29.0265 O   0  0  0  0  0  0  0  0  0  0  0  0
  2  3  1  1
  2  1  1  0
  4  2  1  0
  4  5  1  0
  5  7  1  0
  5  6  1  6
  7  8  2  0
 10 12  1  0
 10  9  1  0
 11 10  2  0
 13 14  1  0
 13 12  1  0
 14 15  1  0
 16 15  1  6
 17 16  1  0
 17  7  1  0
 18 19  2  0
 18 16  1  0
 21 20  1  1
 21 23  1  0
 22 21  1  0
 23 25  1  0
 23 24  1  1
 24 18  1  0
 25 26  1  0
 27 25  2  0
M  END
$$$$
