LRV.pdb
     RDKit          3D

 27 26  0  0  1  0  0  0  0  0999 V2000
    6.8830  -12.8373   17.4925 C   0  0  0  0  0  0  0  0  0  0  0  0
    8.0064  -13.6047   18.1815 C   0  0  1  0  0  0  0  0  0  0  0  0
    9.1480  -12.6543   18.5014 C   0  0  0  0  0  0  0  0  0  0  0  0
    7.4033  -14.1827   19.4434 C   0  0  0  0  0  0  0  0  0  0  0  0
    8.5040  -14.8350   20.2911 C   0  0  2  0  0  0  0  0  0  0  0  0
    8.9173  -16.0861   19.7435 N   0  0  0  0  0  0  0  0  0  0  0  0
    7.8113  -15.1110   21.6136 C   0  0  0  0  0  0  0  0  0  0  0  0
    7.1467  -14.1734   22.0874 O   0  0  0  0  0  0  0  0  0  0  0  0
    2.9172  -18.7310   21.2360 N   0  0  0  0  0  0  0  0  0  0  0  0
    4.0914  -19.5193   21.1543 C   0  0  0  0  0  0  0  0  0  0  0  0
    4.7304  -19.7251   20.0557 N   0  0  0  0  0  0  0  0  0  0  0  0
    4.6093  -20.1252   22.3383 N   0  0  0  0  0  0  0  0  0  0  0  0
    5.3284  -19.3657   23.3166 C   0  0  0  0  0  0  0  0  0  0  0  0
    6.7053  -18.9635   22.7915 C   0  0  0  0  0  0  0  0  0  0  0  0
    7.4693  -18.1787   23.8132 C   0  0  0  0  0  0  0  0  0  0  0  0
    7.4214  -16.6729   23.5221 C   0  0  2  0  0  0  0  0  0  0  0  0
    7.9406  -16.3634   22.2292 N   0  0  0  0  0  0  0  0  0  0  0  0
    8.1265  -15.9428   24.5868 C   0  0  0  0  0  0  0  0  0  0  0  0
    9.3628  -16.0910   24.8048 O   0  0  0  0  0  0  0  0  0  0  0  0
    5.5656  -20.3491   20.1131 C   0  0  0  0  0  0  0  0  0  0  0  0
    5.9217  -13.4380   27.3803 C   0  0  2  0  0  0  0  0  0  0  0  0
    7.2592  -13.0184   26.8256 C   0  0  0  0  0  0  0  0  0  0  0  0
    7.9364  -12.1564   27.8660 C   0  0  1  0  0  0  0  0  0  0  0  0
    8.0778  -14.2413   26.4613 N   0  0  0  0  0  0  0  0  0  0  0  0
    7.4350  -15.0214   25.4319 C   0  0  0  0  0  0  0  0  0  0  0  0
    8.3461  -15.1002   27.6221 O   0  0  0  0  0  0  0  0  0  0  0  0
    9.3304  -14.7447   28.5198 O   0  0  0  0  0  0  0  0  0  0  0  0
  2  3  1  1
  2  1  1  0
  4  2  1  0
  4  5  1  0
  5  7  1  0
  5  6  1  6
  7  8  2  0
 10 12  1  0
 10  9  1  0
 11 10  2  0
 13 14  1  0
 13 12  1  0
 14 15  1  0
 16 15  1  1
 17 16  1  0
 17  7  1  0
 18 19  2  0
 18 16  1  0
 21 20  1  6
 21 23  1  0
 22 21  1  0
 23 25  1  0
 23 24  1  6
 24 18  1  0
 25 26  1  0
 27 25  2  0
M  END
$$$$
