LRV.pdb
     RDKit          3D

 27 26  0  0  1  0  0  0  0  0999 V2000
    5.9267  -11.5456   26.3771 C   0  0  0  0  0  0  0  0  0  0  0  0
    5.8077  -12.5783   25.2613 C   0  0  1  0  0  0  0  0  0  0  0  0
    6.2128  -11.9467   23.9401 C   0  0  0  0  0  0  0  0  0  0  0  0
    6.7407  -13.7086   25.6384 C   0  0  0  0  0  0  0  0  0  0  0  0
    6.5005  -14.9085   24.7122 C   0  0  2  0  0  0  0  0  0  0  0  0
    5.3220  -15.6259   25.0761 N   0  0  0  0  0  0  0  0  0  0  0  0
    7.6949  -15.8057   24.9832 C   0  0  0  0  0  0  0  0  0  0  0  0
    7.6995  -16.3913   26.0797 O   0  0  0  0  0  0  0  0  0  0  0  0
   12.7784  -20.5336   24.5414 N   0  0  0  0  0  0  0  0  0  0  0  0
   13.4734  -20.5066   23.3072 C   0  0  0  0  0  0  0  0  0  0  0  0
   14.5893  -21.1178   23.1101 N   0  0  0  0  0  0  0  0  0  0  0  0
   12.9261  -19.7703   22.2138 N   0  0  0  0  0  0  0  0  0  0  0  0
   11.6898  -19.0574   22.3336 C   0  0  0  0  0  0  0  0  0  0  0  0
   11.8850  -17.7513   23.1013 C   0  0  0  0  0  0  0  0  0  0  0  0
   10.7117  -16.8368   22.9261 C   0  0  0  0  0  0  0  0  0  0  0  0
    9.8874  -16.7205   24.2151 C   0  0  2  0  0  0  0  0  0  0  0  0
    8.7097  -15.9368   24.0256 N   0  0  0  0  0  0  0  0  0  0  0  0
   10.7335  -16.1891   25.2946 C   0  0  0  0  0  0  0  0  0  0  0  0
   11.5433  -15.2356   25.1127 O   0  0  0  0  0  0  0  0  0  0  0  0
   15.0630  -20.9385   22.1971 C   0  0  0  0  0  0  0  0  0  0  0  0
   10.3284  -14.2151   27.9382 C   0  0  2  0  0  0  0  0  0  0  0  0
   10.8829  -15.4149   28.6632 C   0  0  0  0  0  0  0  0  0  0  0  0
    9.7376  -16.0791   29.3920 C   0  0  2  0  0  0  0  0  0  0  0  0
   11.5653  -16.3463   27.6809 N   0  0  0  0  0  0  0  0  0  0  0  0
   10.6755  -16.7347   26.6138 C   0  0  0  0  0  0  0  0  0  0  0  0
   12.0961  -17.5520   28.3306 O   0  0  0  0  0  0  0  0  0  0  0  0
   13.1468  -17.4420   29.2167 O   0  0  0  0  0  0  0  0  0  0  0  0
  2  3  1  6
  2  1  1  0
  4  2  1  0
  4  5  1  0
  5  7  1  0
  5  6  1  1
  7  8  2  0
 10 12  1  0
 10  9  1  0
 11 10  2  0
 13 14  1  0
 13 12  1  0
 14 15  1  0
 16 15  1  6
 17 16  1  0
 17  7  1  0
 18 19  2  0
 18 16  1  0
 21 20  1  1
 21 23  1  0
 22 21  1  0
 23 25  1  0
 23 24  1  1
 24 18  1  0
 25 26  1  0
 27 25  2  0
M  END
$$$$
