LRV.pdb
     RDKit          3D

 27 26  0  0  1  0  0  0  0  0999 V2000
    7.3247  -11.5094   24.7791 C   0  0  0  0  0  0  0  0  0  0  0  0
    6.6993  -11.3196   26.1570 C   0  0  1  0  0  0  0  0  0  0  0  0
    5.3389  -10.6590   26.0100 C   0  0  0  0  0  0  0  0  0  0  0  0
    6.5753  -12.7052   26.7527 C   0  0  0  0  0  0  0  0  0  0  0  0
    5.8962  -13.6427   25.7451 C   0  0  2  0  0  0  0  0  0  0  0  0
    4.6904  -14.1952   26.2711 N   0  0  0  0  0  0  0  0  0  0  0  0
    6.8973  -14.7733   25.5877 C   0  0  0  0  0  0  0  0  0  0  0  0
    7.1034  -15.4642   26.6003 O   0  0  0  0  0  0  0  0  0  0  0  0
   10.7694  -18.3296   18.2724 N   0  0  0  0  0  0  0  0  0  0  0  0
   11.3292  -18.9926   19.3922 C   0  0  0  0  0  0  0  0  0  0  0  0
   12.1304  -19.9956   19.2929 N   0  0  0  0  0  0  0  0  0  0  0  0
   11.0013  -18.5420   20.7062 N   0  0  0  0  0  0  0  0  0  0  0  0
   10.1465  -17.4131   20.9203 C   0  0  0  0  0  0  0  0  0  0  0  0
    9.8920  -17.1960   22.4109 C   0  0  0  0  0  0  0  0  0  0  0  0
    8.8086  -16.1866   22.6363 C   0  0  0  0  0  0  0  0  0  0  0  0
    8.5117  -15.9991   24.1300 C   0  0  2  0  0  0  0  0  0  0  0  0
    7.5286  -14.9894   24.3553 N   0  0  0  0  0  0  0  0  0  0  0  0
    9.7635  -15.7178   24.8495 C   0  0  0  0  0  0  0  0  0  0  0  0
   10.6205  -14.8939   24.4199 O   0  0  0  0  0  0  0  0  0  0  0  0
   12.4880  -20.3958   20.1885 C   0  0  0  0  0  0  0  0  0  0  0  0
   10.4601  -14.1116   27.9075 C   0  0  2  0  0  0  0  0  0  0  0  0
   11.0474  -15.4805   28.1396 C   0  0  0  0  0  0  0  0  0  0  0  0
   10.0883  -16.2468   29.0211 C   0  0  2  0  0  0  0  0  0  0  0  0
   11.2963  -16.1712   26.8132 N   0  0  0  0  0  0  0  0  0  0  0  0
   10.0688  -16.3723   26.0823 C   0  0  0  0  0  0  0  0  0  0  0  0
   11.9797  -17.4612   26.9745 O   0  0  0  0  0  0  0  0  0  0  0  0
   13.2577  -17.4954   27.4909 O   0  0  0  0  0  0  0  0  0  0  0  0
  2  3  1  6
  2  1  1  0
  4  2  1  0
  4  5  1  0
  5  7  1  0
  5  6  1  1
  7  8  2  0
 10 12  1  0
 10  9  1  0
 11 10  2  0
 13 14  1  0
 13 12  1  0
 14 15  1  0
 16 15  1  6
 17 16  1  0
 17  7  1  0
 18 19  2  0
 18 16  1  0
 21 20  1  1
 21 23  1  0
 22 21  1  0
 23 25  1  0
 23 24  1  1
 24 18  1  0
 25 26  1  0
 27 25  2  0
M  END
$$$$
