LRV.pdb
     RDKit          3D

 27 26  0  0  1  0  0  0  0  0999 V2000
    7.3628  -12.0429   19.1247 C   0  0  0  0  0  0  0  0  0  0  0  0
    8.1322  -13.3592   19.0961 C   0  0  1  0  0  0  0  0  0  0  0  0
    9.5939  -13.0996   19.4194 C   0  0  0  0  0  0  0  0  0  0  0  0
    7.4869  -14.2418   20.1425 C   0  0  0  0  0  0  0  0  0  0  0  0
    8.2626  -15.5613   20.2561 C   0  0  2  0  0  0  0  0  0  0  0  0
    7.7058  -16.5723   19.4173 N   0  0  0  0  0  0  0  0  0  0  0  0
    8.0386  -15.9770   21.6990 C   0  0  0  0  0  0  0  0  0  0  0  0
    6.8534  -16.0852   22.0577 O   0  0  0  0  0  0  0  0  0  0  0  0
   10.1906  -20.9810   20.4049 N   0  0  0  0  0  0  0  0  0  0  0  0
   11.1476  -21.0965   21.4431 C   0  0  0  0  0  0  0  0  0  0  0  0
   12.4141  -21.1890   21.2307 N   0  0  0  0  0  0  0  0  0  0  0  0
   10.7066  -21.1130   22.8004 N   0  0  0  0  0  0  0  0  0  0  0  0
   10.8786  -19.9796   23.6587 C   0  0  0  0  0  0  0  0  0  0  0  0
    9.8411  -18.9009   23.3529 C   0  0  0  0  0  0  0  0  0  0  0  0
    9.9862  -17.7295   24.2751 C   0  0  0  0  0  0  0  0  0  0  0  0
    9.0144  -16.5991   23.9114 C   0  0  2  0  0  0  0  0  0  0  0  0
    9.1327  -16.2147   22.5421 N   0  0  0  0  0  0  0  0  0  0  0  0
    9.2193  -15.4617   24.8213 C   0  0  0  0  0  0  0  0  0  0  0  0
   10.3152  -14.8349   24.8852 O   0  0  0  0  0  0  0  0  0  0  0  0
   13.0305  -21.1582   22.0729 C   0  0  0  0  0  0  0  0  0  0  0  0
    7.1857  -12.1003   27.8582 C   0  0  2  0  0  0  0  0  0  0  0  0
    6.9849  -13.2841   26.9466 C   0  0  0  0  0  0  0  0  0  0  0  0
    6.2569  -12.7957   25.7156 C   0  0  1  0  0  0  0  0  0  0  0  0
    8.3213  -13.9198   26.6179 N   0  0  0  0  0  0  0  0  0  0  0  0
    8.1739  -15.0095   25.6839 C   0  0  0  0  0  0  0  0  0  0  0  0
    9.0207  -14.4016   27.8162 O   0  0  0  0  0  0  0  0  0  0  0  0
    9.7753  -13.5228   28.5642 O   0  0  0  0  0  0  0  0  0  0  0  0
  2  3  1  1
  2  1  1  0
  4  2  1  0
  4  5  1  0
  5  7  1  0
  5  6  1  6
  7  8  2  0
 10 12  1  0
 10  9  1  0
 11 10  2  0
 13 14  1  0
 13 12  1  0
 14 15  1  0
 16 15  1  1
 17 16  1  0
 17  7  1  0
 18 19  2  0
 18 16  1  0
 21 20  1  1
 21 23  1  0
 22 21  1  0
 23 25  1  0
 23 24  1  1
 24 18  1  0
 25 26  1  0
 27 25  2  0
M  END
$$$$
