LRV.pdb
     RDKit          3D

 27 26  0  0  1  0  0  0  0  0999 V2000
    7.7664  -12.3086   18.4790 C   0  0  0  0  0  0  0  0  0  0  0  0
    8.2413  -13.7403   18.7035 C   0  0  1  0  0  0  0  0  0  0  0  0
    9.7121  -13.7331   19.0846 C   0  0  0  0  0  0  0  0  0  0  0  0
    7.3866  -14.2920   19.8240 C   0  0  0  0  0  0  0  0  0  0  0  0
    7.7780  -15.7494   20.1037 C   0  0  2  0  0  0  0  0  0  0  0  0
    7.0615  -16.6560   19.2667 N   0  0  0  0  0  0  0  0  0  0  0  0
    7.3150  -15.9690   21.5328 C   0  0  0  0  0  0  0  0  0  0  0  0
    6.0849  -16.0073   21.7079 O   0  0  0  0  0  0  0  0  0  0  0  0
   12.3321  -18.2970   24.8904 N   0  0  0  0  0  0  0  0  0  0  0  0
   12.3262  -19.3435   23.9355 C   0  0  0  0  0  0  0  0  0  0  0  0
   13.3471  -19.6468   23.2119 N   0  0  0  0  0  0  0  0  0  0  0  0
   11.1385  -20.1129   23.7503 N   0  0  0  0  0  0  0  0  0  0  0  0
    9.8773  -19.6837   24.2757 C   0  0  0  0  0  0  0  0  0  0  0  0
    9.5767  -18.2432   23.8655 C   0  0  0  0  0  0  0  0  0  0  0  0
    8.2192  -17.8165   24.3328 C   0  0  0  0  0  0  0  0  0  0  0  0
    7.9088  -16.3703   23.9246 C   0  0  2  0  0  0  0  0  0  0  0  0
    8.2535  -16.1152   22.5633 N   0  0  0  0  0  0  0  0  0  0  0  0
    8.5836  -15.4429   24.8456 C   0  0  0  0  0  0  0  0  0  0  0  0
    9.8420  -15.3344   24.8953 O   0  0  0  0  0  0  0  0  0  0  0  0
   13.1918  -20.3574   22.4629 C   0  0  0  0  0  0  0  0  0  0  0  0
    7.3053  -11.6900   25.6069 C   0  0  2  0  0  0  0  0  0  0  0  0
    7.5078  -12.4744   26.8783 C   0  0  0  0  0  0  0  0  0  0  0  0
    6.1463  -12.9083   27.3704 C   0  0  2  0  0  0  0  0  0  0  0  0
    8.4349  -13.6466   26.6239 N   0  0  0  0  0  0  0  0  0  0  0  0
    7.8355  -14.6128   25.7359 C   0  0  0  0  0  0  0  0  0  0  0  0
    8.8405  -14.3180   27.8657 O   0  0  0  0  0  0  0  0  0  0  0  0
    9.6659  -13.6637   28.7557 O   0  0  0  0  0  0  0  0  0  0  0  0
  2  3  1  1
  2  1  1  0
  4  2  1  0
  4  5  1  0
  5  7  1  0
  5  6  1  6
  7  8  2  0
 10 12  1  0
 10  9  1  0
 11 10  2  0
 13 14  1  0
 13 12  1  0
 14 15  1  0
 16 15  1  1
 17 16  1  0
 17  7  1  0
 18 19  2  0
 18 16  1  0
 21 20  1  1
 21 23  1  0
 22 21  1  0
 23 25  1  0
 23 24  1  1
 24 18  1  0
 25 26  1  0
 27 25  2  0
M  END
$$$$
