FTH.pdb
     RDKit          3D

 29 30  0  0  1  0  0  0  0  0999 V2000
    8.5101  -14.9423   24.2500 N   0  0  0  0  0  0  0  0  0  0  0  0
    7.2179  -14.7377   23.6084 C   0  0  1  0  0  0  0  0  0  0  0  0
    6.9070  -13.2574   23.7367 C   0  0  0  0  0  0  0  0  0  0  0  0
    6.8926  -12.8385   25.1673 C   0  0  0  0  0  0  0  0  0  0  0  0
    6.1857  -13.5479   26.0992 C   0  0  0  0  0  0  0  0  0  0  0  0
    6.1892  -13.1420   27.4054 C   0  0  0  0  0  0  0  0  0  0  0  0
    6.9048  -12.0103   27.8094 C   0  0  0  0  0  0  0  0  0  0  0  0
    7.6230  -11.2828   26.8847 C   0  0  0  0  0  0  0  0  0  0  0  0
    7.5926  -11.7255   25.5818 C   0  0  0  0  0  0  0  0  0  0  0  0
    7.3701  -15.1285   22.1840 C   0  0  0  0  0  0  0  0  0  0  0  0
    6.4192  -15.0041   21.3391 O   0  0  0  0  0  0  0  0  0  0  0  0
    7.6045  -13.6305   20.0794 C   0  0  0  0  0  0  0  0  0  0  0  0
    8.8162  -14.4088   19.6119 C   0  0  1  0  0  0  0  0  0  0  0  0
    9.9398  -13.7295   20.0568 O   0  0  0  0  0  0  0  0  0  0  0  0
    8.8164  -15.8000   20.2518 C   0  0  2  0  0  0  0  0  0  0  0  0
    8.5785  -15.6659   21.6623 N   0  0  0  0  0  0  0  0  0  0  0  0
   10.0968  -16.5006   19.9664 C   0  0  0  0  0  0  0  0  0  0  0  0
   10.6380  -16.2944   18.8570 O   0  0  0  0  0  0  0  0  0  0  0  0
   10.7228  -17.3760   20.8757 N   0  0  0  0  0  0  0  0  0  0  0  0
   12.1759  -17.4671   21.0279 C   0  0  1  0  0  0  0  0  0  0  0  0
   12.6254  -16.1011   21.4986 C   0  0  0  0  0  0  0  0  0  0  0  0
   13.1722  -15.2600   20.4080 C   0  0  0  0  0  0  0  0  0  0  0  0
   13.2545  -15.5519   19.0643 C   0  0  0  0  0  0  0  0  0  0  0  0
   13.8332  -14.4697   18.4643 N   0  0  0  0  0  0  0  0  0  0  0  0
   14.1031  -13.5368   19.3929 C   0  0  0  0  0  0  0  0  0  0  0  0
   13.6968  -14.0319   20.5616 N   0  0  0  0  0  0  0  0  0  0  0  0
   12.5134  -18.5177   22.0097 C   0  0  0  0  0  0  0  0  0  0  0  0
   13.8327  -18.8276   22.2539 O   0  0  0  0  0  0  0  0  0  0  0  0
   11.6187  -19.1352   22.6276 O   0  0  0  0  0  0  0  0  0  0  0  0
  2  1  1  1
  2  3  1  0
  4  3  1  0
  4  9  1  0
  5  4  2  0
  6  5  1  0
  6  7  2  0
  7  8  1  0
  8  9  2  0
 10  2  1  0
 11 10  2  0
 13 12  1  1
 14 13  1  0
 15 13  1  0
 15 16  1  1
 16 10  1  0
 17 15  1  0
 18 17  2  0
 19 17  1  0
 20 21  1  1
 20 19  1  0
 21 22  1  0
 22 26  1  0
 23 22  2  0
 23 24  1  0
 24 25  1  0
 26 25  2  0
 27 20  1  0
 27 28  1  0
 29 27  2  0
M  END
$$$$
