FTH.pdb
     RDKit          3D

 29 30  0  0  1  0  0  0  0  0999 V2000
    5.3726  -16.1324   21.7693 N   0  0  0  0  0  0  0  0  0  0  0  0
    6.8199  -16.1184   21.6006 C   0  0  1  0  0  0  0  0  0  0  0  0
    7.2595  -14.6796   21.8034 C   0  0  0  0  0  0  0  0  0  0  0  0
    7.3980  -13.9761   20.4965 C   0  0  0  0  0  0  0  0  0  0  0  0
    7.8377  -12.6818   20.4393 C   0  0  0  0  0  0  0  0  0  0  0  0
    7.9559  -12.0595   19.2270 C   0  0  0  0  0  0  0  0  0  0  0  0
    7.6346  -12.7231   18.0387 C   0  0  0  0  0  0  0  0  0  0  0  0
    7.1899  -14.0273   18.0763 C   0  0  0  0  0  0  0  0  0  0  0  0
    7.0855  -14.6160   19.3161 C   0  0  0  0  0  0  0  0  0  0  0  0
    7.3909  -17.0025   22.6481 C   0  0  0  0  0  0  0  0  0  0  0  0
    6.7762  -17.2461   23.7418 O   0  0  0  0  0  0  0  0  0  0  0  0
    6.8047  -19.4835   23.4707 C   0  0  0  0  0  0  0  0  0  0  0  0
    8.2655  -19.8654   23.3591 C   0  0  1  0  0  0  0  0  0  0  0  0
    8.4501  -20.4287   22.1059 O   0  0  0  0  0  0  0  0  0  0  0  0
    9.1373  -18.6097   23.4498 C   0  0  2  0  0  0  0  0  0  0  0  0
    8.6554  -17.6371   22.5087 N   0  0  0  0  0  0  0  0  0  0  0  0
   10.5652  -18.9531   23.2151 C   0  0  0  0  0  0  0  0  0  0  0  0
   10.9476  -19.0722   22.0295 O   0  0  0  0  0  0  0  0  0  0  0  0
   11.4978  -19.1486   24.2529 N   0  0  0  0  0  0  0  0  0  0  0  0
   12.8403  -18.5651   24.2431 C   0  0  1  0  0  0  0  0  0  0  0  0
   12.6359  -17.0658   24.2567 C   0  0  0  0  0  0  0  0  0  0  0  0
   12.7689  -16.4477   22.9166 C   0  0  0  0  0  0  0  0  0  0  0  0
   13.0535  -17.0627   21.7172 C   0  0  0  0  0  0  0  0  0  0  0  0
   13.0721  -16.0795   20.7690 N   0  0  0  0  0  0  0  0  0  0  0  0
   12.8101  -14.8961   21.3490 C   0  0  0  0  0  0  0  0  0  0  0  0
   12.6295  -15.1381   22.6471 N   0  0  0  0  0  0  0  0  0  0  0  0
   13.5949  -19.0207   25.4282 C   0  0  0  0  0  0  0  0  0  0  0  0
   14.9666  -19.1247   25.3676 O   0  0  0  0  0  0  0  0  0  0  0  0
   13.0087  -19.3157   26.4926 O   0  0  0  0  0  0  0  0  0  0  0  0
  2  1  1  1
  2  3  1  0
  4  3  1  0
  4  9  1  0
  5  4  2  0
  6  5  1  0
  6  7  2  0
  7  8  1  0
  8  9  2  0
 10  2  1  0
 11 10  2  0
 13 12  1  6
 14 13  1  0
 15 13  1  0
 15 16  1  6
 16 10  1  0
 17 15  1  0
 18 17  2  0
 19 17  1  0
 20 21  1  1
 20 19  1  0
 21 22  1  0
 22 26  1  0
 23 22  2  0
 23 24  1  0
 24 25  1  0
 26 25  2  0
 27 20  1  0
 27 28  1  0
 29 27  2  0
M  END
$$$$
