FTH.pdb
     RDKit          3D

 29 30  0  0  1  0  0  0  0  0999 V2000
    5.6769  -17.0836   24.8390 N   0  0  0  0  0  0  0  0  0  0  0  0
    6.7000  -16.0587   24.6780 C   0  0  1  0  0  0  0  0  0  0  0  0
    7.1475  -15.6784   26.0779 C   0  0  0  0  0  0  0  0  0  0  0  0
    7.0124  -14.2105   26.2996 C   0  0  0  0  0  0  0  0  0  0  0  0
    8.1181  -13.4107   26.3966 C   0  0  0  0  0  0  0  0  0  0  0  0
    7.9662  -12.0667   26.6001 C   0  0  0  0  0  0  0  0  0  0  0  0
    6.6966  -11.4907   26.7116 C   0  0  0  0  0  0  0  0  0  0  0  0
    5.5709  -12.2805   26.6165 C   0  0  0  0  0  0  0  0  0  0  0  0
    5.7683  -13.6272   26.4117 C   0  0  0  0  0  0  0  0  0  0  0  0
    7.8144  -16.6700   23.9103 C   0  0  0  0  0  0  0  0  0  0  0  0
    7.6163  -17.5646   23.0193 O   0  0  0  0  0  0  0  0  0  0  0  0
   10.9760  -16.6519   20.8445 C   0  0  0  0  0  0  0  0  0  0  0  0
    9.8401  -16.3181   21.7884 C   0  0  1  0  0  0  0  0  0  0  0  0
    8.7482  -17.0822   21.4064 O   0  0  0  0  0  0  0  0  0  0  0  0
   10.2216  -16.7137   23.2177 C   0  0  2  0  0  0  0  0  0  0  0  0
    9.1736  -16.3049   24.1114 N   0  0  0  0  0  0  0  0  0  0  0  0
   11.5333  -16.1179   23.5868 C   0  0  0  0  0  0  0  0  0  0  0  0
   11.8266  -15.0059   23.0934 O   0  0  0  0  0  0  0  0  0  0  0  0
   12.4515  -16.7392   24.4563 N   0  0  0  0  0  0  0  0  0  0  0  0
   13.6512  -16.0712   24.9637 C   0  0  1  0  0  0  0  0  0  0  0  0
   13.7347  -16.4359   26.4298 C   0  0  0  0  0  0  0  0  0  0  0  0
   12.5198  -16.0645   27.1925 C   0  0  0  0  0  0  0  0  0  0  0  0
   11.8570  -14.8570   27.2072 C   0  0  0  0  0  0  0  0  0  0  0  0
   10.7999  -15.0020   28.0602 N   0  0  0  0  0  0  0  0  0  0  0  0
   10.7991  -16.2490   28.5606 C   0  0  0  0  0  0  0  0  0  0  0  0
   11.8457  -16.8767   28.0250 N   0  0  0  0  0  0  0  0  0  0  0  0
   14.8388  -16.5380   24.2198 C   0  0  0  0  0  0  0  0  0  0  0  0
   16.0586  -15.9345   24.4299 O   0  0  0  0  0  0  0  0  0  0  0  0
   14.7578  -17.4766   23.3976 O   0  0  0  0  0  0  0  0  0  0  0  0
  2  1  1  1
  2  3  1  0
  4  3  1  0
  4  9  1  0
  5  4  2  0
  6  5  1  0
  6  7  2  0
  7  8  1  0
  8  9  2  0
 10  2  1  0
 11 10  2  0
 13 12  1  6
 14 13  1  0
 15 13  1  0
 15 16  1  1
 16 10  1  0
 17 15  1  0
 18 17  2  0
 19 17  1  0
 20 21  1  1
 20 19  1  0
 21 22  1  0
 22 26  1  0
 23 22  2  0
 23 24  1  0
 24 25  1  0
 26 25  2  0
 27 20  1  0
 27 28  1  0
 29 27  2  0
M  END
$$$$
