FTH.pdb
     RDKit          3D

 29 30  0  0  1  0  0  0  0  0999 V2000
    5.8965  -17.5397   25.7281 N   0  0  0  0  0  0  0  0  0  0  0  0
    6.3200  -16.2030   25.3320 C   0  0  1  0  0  0  0  0  0  0  0  0
    6.9950  -15.5915   26.5464 C   0  0  0  0  0  0  0  0  0  0  0  0
    6.6656  -14.1425   26.6654 C   0  0  0  0  0  0  0  0  0  0  0  0
    5.3707  -13.7272   26.8149 C   0  0  0  0  0  0  0  0  0  0  0  0
    5.0958  -12.3916   26.9219 C   0  0  0  0  0  0  0  0  0  0  0  0
    6.1171  -11.4371   26.8812 C   0  0  0  0  0  0  0  0  0  0  0  0
    7.4279  -11.8365   26.7311 C   0  0  0  0  0  0  0  0  0  0  0  0
    7.6606  -13.1891   26.6272 C   0  0  0  0  0  0  0  0  0  0  0  0
    7.2818  -16.3628   24.2120 C   0  0  0  0  0  0  0  0  0  0  0  0
    8.1317  -17.3167   24.1762 O   0  0  0  0  0  0  0  0  0  0  0  0
    8.1891  -13.2810   21.3630 C   0  0  0  0  0  0  0  0  0  0  0  0
    7.8267  -14.6701   20.8817 C   0  0  1  0  0  0  0  0  0  0  0  0
    8.6106  -14.9392   19.7704 O   0  0  0  0  0  0  0  0  0  0  0  0
    8.1666  -15.6982   21.9645 C   0  0  2  0  0  0  0  0  0  0  0  0
    7.3248  -15.4703   23.1062 N   0  0  0  0  0  0  0  0  0  0  0  0
    9.6106  -15.6247   22.3127 C   0  0  0  0  0  0  0  0  0  0  0  0
    9.9705  -14.7362   23.1171 O   0  0  0  0  0  0  0  0  0  0  0  0
   10.5821  -16.4985   21.7857 N   0  0  0  0  0  0  0  0  0  0  0  0
   12.0022  -16.4191   22.1322 C   0  0  1  0  0  0  0  0  0  0  0  0
   12.3563  -17.7667   22.7223 C   0  0  0  0  0  0  0  0  0  0  0  0
   11.8058  -17.9696   24.0830 C   0  0  0  0  0  0  0  0  0  0  0  0
   11.3930  -17.0164   24.9877 C   0  0  0  0  0  0  0  0  0  0  0  0
   10.9677  -17.6897   26.0976 N   0  0  0  0  0  0  0  0  0  0  0  0
   11.1078  -19.0110   25.8980 C   0  0  0  0  0  0  0  0  0  0  0  0
   11.6157  -19.1613   24.6751 N   0  0  0  0  0  0  0  0  0  0  0  0
   12.7991  -16.1299   20.9227 C   0  0  0  0  0  0  0  0  0  0  0  0
   14.1529  -15.9035   21.0332 O   0  0  0  0  0  0  0  0  0  0  0  0
   12.2650  -16.0864   19.7929 O   0  0  0  0  0  0  0  0  0  0  0  0
  2  1  1  1
  2  3  1  0
  4  3  1  0
  4  9  1  0
  5  4  2  0
  6  5  1  0
  6  7  2  0
  7  8  1  0
  8  9  2  0
 10  2  1  0
 11 10  2  0
 13 12  1  1
 14 13  1  0
 15 13  1  0
 15 16  1  1
 16 10  1  0
 17 15  1  0
 18 17  2  0
 19 17  1  0
 20 21  1  6
 20 19  1  0
 21 22  1  0
 22 26  1  0
 23 22  2  0
 23 24  1  0
 24 25  1  0
 26 25  2  0
 27 20  1  0
 27 28  1  0
 29 27  2  0
M  END
$$$$
