FTH.pdb
     RDKit          3D

 29 30  0  0  1  0  0  0  0  0999 V2000
    8.1145  -16.1169   16.8175 N   0  0  0  0  0  0  0  0  0  0  0  0
    9.5441  -16.1491   17.0978 C   0  0  1  0  0  0  0  0  0  0  0  0
    9.9987  -14.7022   17.1653 C   0  0  0  0  0  0  0  0  0  0  0  0
    9.2305  -13.9505   18.1981 C   0  0  0  0  0  0  0  0  0  0  0  0
    8.0430  -13.3461   17.8879 C   0  0  0  0  0  0  0  0  0  0  0  0
    7.3580  -12.6625   18.8546 C   0  0  0  0  0  0  0  0  0  0  0  0
    7.8498  -12.5685   20.1604 C   0  0  0  0  0  0  0  0  0  0  0  0
    9.0445  -13.1709   20.4918 C   0  0  0  0  0  0  0  0  0  0  0  0
    9.7014  -13.8483   19.4898 C   0  0  0  0  0  0  0  0  0  0  0  0
    9.7175  -16.8236   18.4092 C   0  0  0  0  0  0  0  0  0  0  0  0
    8.7231  -17.2264   19.1038 O   0  0  0  0  0  0  0  0  0  0  0  0
    9.1962  -19.1898   19.3807 C   0  0  0  0  0  0  0  0  0  0  0  0
   10.6273  -19.2866   19.8657 C   0  0  1  0  0  0  0  0  0  0  0  0
   11.3747  -19.8400   18.8376 O   0  0  0  0  0  0  0  0  0  0  0  0
   11.1734  -17.8845   20.1501 C   0  0  2  0  0  0  0  0  0  0  0  0
   10.9958  -17.0676   18.9817 N   0  0  0  0  0  0  0  0  0  0  0  0
   12.5992  -17.9593   20.5667 C   0  0  0  0  0  0  0  0  0  0  0  0
   13.4609  -18.0961   19.6696 O   0  0  0  0  0  0  0  0  0  0  0  0
   13.0212  -17.8843   21.9088 N   0  0  0  0  0  0  0  0  0  0  0  0
   14.1072  -17.0118   22.3588 C   0  0  1  0  0  0  0  0  0  0  0  0
   13.6171  -15.5979   22.1341 C   0  0  0  0  0  0  0  0  0  0  0  0
   14.0665  -15.0237   20.8441 C   0  0  0  0  0  0  0  0  0  0  0  0
   14.8933  -15.5905   19.8993 C   0  0  0  0  0  0  0  0  0  0  0  0
   15.0147  -14.6789   18.8892 N   0  0  0  0  0  0  0  0  0  0  0  0
   14.2938  -13.5849   19.1875 C   0  0  0  0  0  0  0  0  0  0  0  0
   13.7278  -13.8113   20.3726 N   0  0  0  0  0  0  0  0  0  0  0  0
   14.3975  -17.2654   23.7845 C   0  0  0  0  0  0  0  0  0  0  0  0
   13.5143  -18.0015   24.5423 O   0  0  0  0  0  0  0  0  0  0  0  0
   15.4365  -16.8218   24.3206 O   0  0  0  0  0  0  0  0  0  0  0  0
  2  1  1  1
  2  3  1  0
  4  3  1  0
  4  9  1  0
  5  4  2  0
  6  5  1  0
  6  7  2  0
  7  8  1  0
  8  9  2  0
 10  2  1  0
 11 10  2  0
 13 12  1  6
 14 13  1  0
 15 13  1  0
 15 16  1  6
 16 10  1  0
 17 15  1  0
 18 17  2  0
 19 17  1  0
 20 21  1  1
 20 19  1  0
 21 22  1  0
 22 26  1  0
 23 22  2  0
 23 24  1  0
 24 25  1  0
 26 25  2  0
 27 20  1  0
 27 28  1  0
 29 27  2  0
M  END
$$$$
