FTH.pdb
     RDKit          3D

 29 30  0  0  1  0  0  0  0  0999 V2000
    6.2613  -16.6392   25.0780 N   0  0  0  0  0  0  0  0  0  0  0  0
    7.3876  -15.8413   24.6112 C   0  0  1  0  0  0  0  0  0  0  0  0
    7.8018  -14.9633   25.7782 C   0  0  0  0  0  0  0  0  0  0  0  0
    6.9492  -13.7430   25.8553 C   0  0  0  0  0  0  0  0  0  0  0  0
    5.8072  -13.7311   26.6084 C   0  0  0  0  0  0  0  0  0  0  0  0
    5.0427  -12.5981   26.6619 C   0  0  0  0  0  0  0  0  0  0  0  0
    5.4070  -11.4456   25.9585 C   0  0  0  0  0  0  0  0  0  0  0  0
    6.5542  -11.4385   25.1943 C   0  0  0  0  0  0  0  0  0  0  0  0
    7.2942  -12.5988   25.1679 C   0  0  0  0  0  0  0  0  0  0  0  0
    8.4720  -16.7873   24.2453 C   0  0  0  0  0  0  0  0  0  0  0  0
    8.2390  -18.0103   23.9562 O   0  0  0  0  0  0  0  0  0  0  0  0
    9.0291  -17.6149   21.8418 C   0  0  0  0  0  0  0  0  0  0  0  0
   10.4831  -17.2291   22.0137 C   0  0  1  0  0  0  0  0  0  0  0  0
   10.6361  -15.9539   21.4916 O   0  0  0  0  0  0  0  0  0  0  0  0
   10.8327  -17.1787   23.5037 C   0  0  2  0  0  0  0  0  0  0  0  0
    9.8392  -16.4012   24.1910 N   0  0  0  0  0  0  0  0  0  0  0  0
   12.2015  -16.6297   23.6958 C   0  0  0  0  0  0  0  0  0  0  0  0
   12.4067  -15.4445   23.3506 O   0  0  0  0  0  0  0  0  0  0  0  0
   13.2668  -17.3727   24.2419 N   0  0  0  0  0  0  0  0  0  0  0  0
   13.7210  -17.2222   25.6254 C   0  0  1  0  0  0  0  0  0  0  0  0
   12.5093  -17.5017   26.4876 C   0  0  0  0  0  0  0  0  0  0  0  0
   11.8660  -16.2711   27.0047 C   0  0  0  0  0  0  0  0  0  0  0  0
   12.0184  -14.9765   26.5594 C   0  0  0  0  0  0  0  0  0  0  0  0
   11.2245  -14.1954   27.3506 N   0  0  0  0  0  0  0  0  0  0  0  0
   10.5997  -14.9677   28.2552 C   0  0  0  0  0  0  0  0  0  0  0  0
   10.9995  -16.2191   28.0311 N   0  0  0  0  0  0  0  0  0  0  0  0
   14.8150  -18.1753   25.9015 C   0  0  0  0  0  0  0  0  0  0  0  0
   14.7728  -19.4409   25.3606 O   0  0  0  0  0  0  0  0  0  0  0  0
   15.7853  -17.8533   26.6216 O   0  0  0  0  0  0  0  0  0  0  0  0
  2  1  1  1
  2  3  1  0
  4  3  1  0
  4  9  1  0
  5  4  2  0
  6  5  1  0
  6  7  2  0
  7  8  1  0
  8  9  2  0
 10  2  1  0
 11 10  2  0
 13 12  1  1
 14 13  1  0
 15 13  1  0
 15 16  1  1
 16 10  1  0
 17 15  1  0
 18 17  2  0
 19 17  1  0
 20 21  1  1
 20 19  1  0
 21 22  1  0
 22 26  1  0
 23 22  2  0
 23 24  1  0
 24 25  1  0
 26 25  2  0
 27 20  1  0
 27 28  1  0
 29 27  2  0
M  END
$$$$
