FTH.pdb
     RDKit          3D

 29 30  0  0  1  0  0  0  0  0999 V2000
    6.1584  -16.3650   25.5438 N   0  0  0  0  0  0  0  0  0  0  0  0
    7.1223  -15.5154   24.8567 C   0  0  1  0  0  0  0  0  0  0  0  0
    7.7511  -14.6351   25.9218 C   0  0  0  0  0  0  0  0  0  0  0  0
    7.0212  -13.3410   26.0418 C   0  0  0  0  0  0  0  0  0  0  0  0
    5.7822  -13.2850   26.6192 C   0  0  0  0  0  0  0  0  0  0  0  0
    5.1340  -12.0844   26.7169 C   0  0  0  0  0  0  0  0  0  0  0  0
    5.7154  -10.9070   26.2359 C   0  0  0  0  0  0  0  0  0  0  0  0
    6.9632  -10.9436   25.6510 C   0  0  0  0  0  0  0  0  0  0  0  0
    7.5803  -12.1714   25.5727 C   0  0  0  0  0  0  0  0  0  0  0  0
    8.1339  -16.4111   24.2407 C   0  0  0  0  0  0  0  0  0  0  0  0
    8.5115  -17.4967   24.7997 O   0  0  0  0  0  0  0  0  0  0  0  0
   11.1737  -17.4435   20.4570 C   0  0  0  0  0  0  0  0  0  0  0  0
   10.0589  -16.5823   21.0120 C   0  0  1  0  0  0  0  0  0  0  0  0
    8.8895  -16.9556   20.3677 O   0  0  0  0  0  0  0  0  0  0  0  0
    9.8872  -16.8589   22.5084 C   0  0  2  0  0  0  0  0  0  0  0  0
    8.7504  -16.1256   22.9919 N   0  0  0  0  0  0  0  0  0  0  0  0
   11.1309  -16.5091   23.2451 C   0  0  0  0  0  0  0  0  0  0  0  0
   11.5867  -15.3525   23.1009 O   0  0  0  0  0  0  0  0  0  0  0  0
   11.8129  -17.4082   24.0886 N   0  0  0  0  0  0  0  0  0  0  0  0
   13.0185  -17.0466   24.8362 C   0  0  1  0  0  0  0  0  0  0  0  0
   12.8620  -17.6835   26.1998 C   0  0  0  0  0  0  0  0  0  0  0  0
   11.8672  -16.9935   27.0542 C   0  0  0  0  0  0  0  0  0  0  0  0
   11.1759  -15.8313   26.7913 C   0  0  0  0  0  0  0  0  0  0  0  0
   10.3802  -15.5962   27.8765 N   0  0  0  0  0  0  0  0  0  0  0  0
   10.5643  -16.5705   28.7833 C   0  0  0  0  0  0  0  0  0  0  0  0
   11.4664  -17.4060   28.2692 N   0  0  0  0  0  0  0  0  0  0  0  0
   14.2155  -17.5533   24.1347 C   0  0  0  0  0  0  0  0  0  0  0  0
   14.0814  -18.5201   23.1634 O   0  0  0  0  0  0  0  0  0  0  0  0
   15.3559  -17.1186   24.4074 O   0  0  0  0  0  0  0  0  0  0  0  0
  2  1  1  1
  2  3  1  0
  4  3  1  0
  4  9  1  0
  5  4  2  0
  6  5  1  0
  6  7  2  0
  7  8  1  0
  8  9  2  0
 10  2  1  0
 11 10  2  0
 13 12  1  6
 14 13  1  0
 15 13  1  0
 15 16  1  1
 16 10  1  0
 17 15  1  0
 18 17  2  0
 19 17  1  0
 20 21  1  1
 20 19  1  0
 21 22  1  0
 22 26  1  0
 23 22  2  0
 23 24  1  0
 24 25  1  0
 26 25  2  0
 27 20  1  0
 27 28  1  0
 29 27  2  0
M  END
$$$$
