FTH.pdb
     RDKit          3D

 29 30  0  0  1  0  0  0  0  0999 V2000
    5.5577  -16.3576   25.0878 N   0  0  0  0  0  0  0  0  0  0  0  0
    6.6506  -15.4846   24.6797 C   0  0  1  0  0  0  0  0  0  0  0  0
    7.3869  -15.0996   25.9502 C   0  0  0  0  0  0  0  0  0  0  0  0
    7.0757  -13.6952   26.3411 C   0  0  0  0  0  0  0  0  0  0  0  0
    7.8471  -12.6560   25.8976 C   0  0  0  0  0  0  0  0  0  0  0  0
    7.5396  -11.3765   26.2712 C   0  0  0  0  0  0  0  0  0  0  0  0
    6.4468  -11.1081   27.1017 C   0  0  0  0  0  0  0  0  0  0  0  0
    5.6581  -12.1423   27.5585 C   0  0  0  0  0  0  0  0  0  0  0  0
    6.0022  -13.4136   27.1590 C   0  0  0  0  0  0  0  0  0  0  0  0
    7.5255  -16.2728   23.7751 C   0  0  0  0  0  0  0  0  0  0  0  0
    7.7557  -17.5157   23.9640 O   0  0  0  0  0  0  0  0  0  0  0  0
    7.6788  -15.7138   19.9254 C   0  0  0  0  0  0  0  0  0  0  0  0
    9.1031  -15.8577   20.4185 C   0  0  1  0  0  0  0  0  0  0  0  0
    9.6520  -14.5858   20.4711 O   0  0  0  0  0  0  0  0  0  0  0  0
    9.1040  -16.4357   21.8366 C   0  0  2  0  0  0  0  0  0  0  0  0
    8.1656  -15.7030   22.6407 N   0  0  0  0  0  0  0  0  0  0  0  0
   10.4762  -16.3999   22.4090 C   0  0  0  0  0  0  0  0  0  0  0  0
   10.8381  -15.3507   22.9873 O   0  0  0  0  0  0  0  0  0  0  0  0
   11.3784  -17.4794   22.3320 N   0  0  0  0  0  0  0  0  0  0  0  0
   12.7773  -17.3849   22.7526 C   0  0  1  0  0  0  0  0  0  0  0  0
   13.1048  -18.7176   23.3900 C   0  0  0  0  0  0  0  0  0  0  0  0
   12.4877  -18.8918   24.7258 C   0  0  0  0  0  0  0  0  0  0  0  0
   12.0504  -17.9189   25.5976 C   0  0  0  0  0  0  0  0  0  0  0  0
   11.5615  -18.5690   26.6950 N   0  0  0  0  0  0  0  0  0  0  0  0
   11.6867  -19.8953   26.5196 C   0  0  0  0  0  0  0  0  0  0  0  0
   12.2484  -20.0716   25.3240 N   0  0  0  0  0  0  0  0  0  0  0  0
   13.6371  -17.1174   21.5818 C   0  0  0  0  0  0  0  0  0  0  0  0
   13.0917  -17.1202   20.3174 O   0  0  0  0  0  0  0  0  0  0  0  0
   14.8587  -16.8868   21.7171 O   0  0  0  0  0  0  0  0  0  0  0  0
  2  1  1  1
  2  3  1  0
  4  3  1  0
  4  9  1  0
  5  4  2  0
  6  5  1  0
  6  7  2  0
  7  8  1  0
  8  9  2  0
 10  2  1  0
 11 10  2  0
 13 12  1  1
 14 13  1  0
 15 13  1  0
 15 16  1  1
 16 10  1  0
 17 15  1  0
 18 17  2  0
 19 17  1  0
 20 21  1  6
 20 19  1  0
 21 22  1  0
 22 26  1  0
 23 22  2  0
 23 24  1  0
 24 25  1  0
 26 25  2  0
 27 20  1  0
 27 28  1  0
 29 27  2  0
M  END
$$$$
