FTH.pdb
     RDKit          3D

 29 30  0  0  1  0  0  0  0  0999 V2000
    9.8766  -16.4521   19.7287 N   0  0  0  0  0  0  0  0  0  0  0  0
    9.8018  -16.4983   21.1831 C   0  0  1  0  0  0  0  0  0  0  0  0
    8.3613  -16.1864   21.5468 C   0  0  0  0  0  0  0  0  0  0  0  0
    7.9701  -14.8332   21.0592 C   0  0  0  0  0  0  0  0  0  0  0  0
    8.5513  -13.7067   21.5737 C   0  0  0  0  0  0  0  0  0  0  0  0
    8.1742  -12.4769   21.1085 C   0  0  0  0  0  0  0  0  0  0  0  0
    7.2012  -12.3474   20.1123 C   0  0  0  0  0  0  0  0  0  0  0  0
    6.6044  -13.4710   19.5817 C   0  0  0  0  0  0  0  0  0  0  0  0
    7.0128  -14.6882   20.0777 C   0  0  0  0  0  0  0  0  0  0  0  0
   10.1691  -17.8764   21.5964 C   0  0  0  0  0  0  0  0  0  0  0  0
    9.4608  -18.5516   22.4185 O   0  0  0  0  0  0  0  0  0  0  0  0
   13.5902  -21.4837   21.5812 C   0  0  0  0  0  0  0  0  0  0  0  0
   13.0589  -20.2179   20.9425 C   0  0  1  0  0  0  0  0  0  0  0  0
   12.5003  -20.5735   19.7245 O   0  0  0  0  0  0  0  0  0  0  0  0
   11.9529  -19.6214   21.8176 C   0  0  2  0  0  0  0  0  0  0  0  0
   11.3290  -18.5385   21.1091 N   0  0  0  0  0  0  0  0  0  0  0  0
   12.5078  -19.1849   23.1267 C   0  0  0  0  0  0  0  0  0  0  0  0
   12.5075  -17.9592   23.3790 O   0  0  0  0  0  0  0  0  0  0  0  0
   13.0282  -20.0762   24.0857 N   0  0  0  0  0  0  0  0  0  0  0  0
   12.9494  -19.8360   25.5276 C   0  0  1  0  0  0  0  0  0  0  0  0
   11.4744  -19.7151   25.8432 C   0  0  0  0  0  0  0  0  0  0  0  0
   11.2023  -19.5085   27.2851 C   0  0  0  0  0  0  0  0  0  0  0  0
   12.1065  -19.4228   28.3207 C   0  0  0  0  0  0  0  0  0  0  0  0
   11.3780  -19.2322   29.4605 N   0  0  0  0  0  0  0  0  0  0  0  0
   10.0703  -19.1996   29.1531 C   0  0  0  0  0  0  0  0  0  0  0  0
    9.9833  -19.3683   27.8340 N   0  0  0  0  0  0  0  0  0  0  0  0
   13.5706  -20.9589   26.2588 C   0  0  0  0  0  0  0  0  0  0  0  0
   14.3676  -20.7056   27.3528 O   0  0  0  0  0  0  0  0  0  0  0  0
   13.3856  -22.1429   25.9016 O   0  0  0  0  0  0  0  0  0  0  0  0
  2  1  1  6
  2  3  1  0
  4  3  1  0
  4  9  1  0
  5  4  2  0
  6  5  1  0
  6  7  2  0
  7  8  1  0
  8  9  2  0
 10  2  1  0
 11 10  2  0
 13 12  1  1
 14 13  1  0
 15 13  1  0
 15 16  1  6
 16 10  1  0
 17 15  1  0
 18 17  2  0
 19 17  1  0
 20 21  1  1
 20 19  1  0
 21 22  1  0
 22 26  1  0
 23 22  2  0
 23 24  1  0
 24 25  1  0
 26 25  2  0
 27 20  1  0
 27 28  1  0
 29 27  2  0
M  END
$$$$
