FTH.pdb
     RDKit          3D

 29 30  0  0  1  0  0  0  0  0999 V2000
    6.0925  -16.4154   25.6416 N   0  0  0  0  0  0  0  0  0  0  0  0
    6.8771  -15.4824   24.8434 C   0  0  1  0  0  0  0  0  0  0  0  0
    7.7117  -14.6784   25.8239 C   0  0  0  0  0  0  0  0  0  0  0  0
    7.0651  -13.3695   26.1251 C   0  0  0  0  0  0  0  0  0  0  0  0
    7.5956  -12.1998   25.6540 C   0  0  0  0  0  0  0  0  0  0  0  0
    6.9824  -11.0122   25.9450 C   0  0  0  0  0  0  0  0  0  0  0  0
    5.8180  -10.9696   26.7185 C   0  0  0  0  0  0  0  0  0  0  0  0
    5.2688  -12.1379   27.2020 C   0  0  0  0  0  0  0  0  0  0  0  0
    5.9171  -13.3102   26.8861 C   0  0  0  0  0  0  0  0  0  0  0  0
    7.7410  -16.2924   23.9476 C   0  0  0  0  0  0  0  0  0  0  0  0
    8.1176  -17.4751   24.2525 O   0  0  0  0  0  0  0  0  0  0  0  0
    7.6663  -15.9836   20.0145 C   0  0  0  0  0  0  0  0  0  0  0  0
    9.1115  -16.0331   20.4632 C   0  0  1  0  0  0  0  0  0  0  0  0
    9.6030  -14.7377   20.4149 O   0  0  0  0  0  0  0  0  0  0  0  0
    9.1868  -16.5172   21.9141 C   0  0  2  0  0  0  0  0  0  0  0  0
    8.2078  -15.8117   22.6937 N   0  0  0  0  0  0  0  0  0  0  0  0
   10.5624  -16.3354   22.4494 C   0  0  0  0  0  0  0  0  0  0  0  0
   10.8607  -15.2142   22.9185 O   0  0  0  0  0  0  0  0  0  0  0  0
   11.5353  -17.3545   22.4534 N   0  0  0  0  0  0  0  0  0  0  0  0
   12.8778  -17.1772   23.0094 C   0  0  1  0  0  0  0  0  0  0  0  0
   13.2327  -18.4995   23.6539 C   0  0  0  0  0  0  0  0  0  0  0  0
   12.4491  -18.7786   24.8802 C   0  0  0  0  0  0  0  0  0  0  0  0
   11.7625  -17.8879   25.6757 C   0  0  0  0  0  0  0  0  0  0  0  0
   11.2026  -18.6177   26.6857 N   0  0  0  0  0  0  0  0  0  0  0  0
   11.5244  -19.9130   26.5308 C   0  0  0  0  0  0  0  0  0  0  0  0
   12.2781  -19.9913   25.4345 N   0  0  0  0  0  0  0  0  0  0  0  0
   13.8256  -16.8269   21.9321 C   0  0  0  0  0  0  0  0  0  0  0  0
   13.4100  -16.8535   20.6196 O   0  0  0  0  0  0  0  0  0  0  0  0
   15.0059  -16.5044   22.1903 O   0  0  0  0  0  0  0  0  0  0  0  0
  2  1  1  1
  2  3  1  0
  4  3  1  0
  4  9  1  0
  5  4  2  0
  6  5  1  0
  6  7  2  0
  7  8  1  0
  8  9  2  0
 10  2  1  0
 11 10  2  0
 13 12  1  1
 14 13  1  0
 15 13  1  0
 15 16  1  1
 16 10  1  0
 17 15  1  0
 18 17  2  0
 19 17  1  0
 20 21  1  6
 20 19  1  0
 21 22  1  0
 22 26  1  0
 23 22  2  0
 23 24  1  0
 24 25  1  0
 26 25  2  0
 27 20  1  0
 27 28  1  0
 29 27  2  0
M  END
$$$$
