FTH.pdb
     RDKit          3D

 29 30  0  0  1  0  0  0  0  0999 V2000
    5.8167  -16.9959   25.6900 N   0  0  0  0  0  0  0  0  0  0  0  0
    6.4551  -15.8288   25.0955 C   0  0  1  0  0  0  0  0  0  0  0  0
    7.2763  -15.1836   26.1973 C   0  0  0  0  0  0  0  0  0  0  0  0
    6.9508  -13.7345   26.3248 C   0  0  0  0  0  0  0  0  0  0  0  0
    7.7643  -12.7815   25.7757 C   0  0  0  0  0  0  0  0  0  0  0  0
    7.4425  -11.4585   25.9072 C   0  0  0  0  0  0  0  0  0  0  0  0
    6.2926  -11.0586   26.5954 C   0  0  0  0  0  0  0  0  0  0  0  0
    5.4607  -12.0045   27.1555 C   0  0  0  0  0  0  0  0  0  0  0  0
    5.8212  -13.3237   26.9999 C   0  0  0  0  0  0  0  0  0  0  0  0
    7.3275  -16.3188   23.9983 C   0  0  0  0  0  0  0  0  0  0  0  0
    8.0522  -17.3644   24.1209 O   0  0  0  0  0  0  0  0  0  0  0  0
    6.4735  -15.6237   20.2118 C   0  0  0  0  0  0  0  0  0  0  0  0
    7.9662  -15.4491   20.3964 C   0  0  1  0  0  0  0  0  0  0  0  0
    8.2237  -14.0870   20.4092 O   0  0  0  0  0  0  0  0  0  0  0  0
    8.3916  -16.0269   21.7493 C   0  0  2  0  0  0  0  0  0  0  0  0
    7.4176  -15.6625   22.7404 N   0  0  0  0  0  0  0  0  0  0  0  0
    9.7556  -15.5546   22.1077 C   0  0  0  0  0  0  0  0  0  0  0  0
    9.8476  -14.5368   22.8300 O   0  0  0  0  0  0  0  0  0  0  0  0
   10.9362  -16.1917   21.6774 N   0  0  0  0  0  0  0  0  0  0  0  0
   12.0435  -16.5179   22.5777 C   0  0  1  0  0  0  0  0  0  0  0  0
   11.5141  -17.5873   23.5082 C   0  0  0  0  0  0  0  0  0  0  0  0
   12.5523  -18.1428   24.4077 C   0  0  0  0  0  0  0  0  0  0  0  0
   13.8756  -17.7750   24.5137 C   0  0  0  0  0  0  0  0  0  0  0  0
   14.4269  -18.5732   25.4755 N   0  0  0  0  0  0  0  0  0  0  0  0
   13.4886  -19.4077   25.9536 C   0  0  0  0  0  0  0  0  0  0  0  0
   12.3621  -19.1332   25.2965 N   0  0  0  0  0  0  0  0  0  0  0  0
   13.2000  -17.0020   21.7969 C   0  0  0  0  0  0  0  0  0  0  0  0
   14.4143  -16.3615   21.9041 O   0  0  0  0  0  0  0  0  0  0  0  0
   13.0975  -17.9885   21.0354 O   0  0  0  0  0  0  0  0  0  0  0  0
  2  1  1  1
  2  3  1  0
  4  3  1  0
  4  9  1  0
  5  4  2  0
  6  5  1  0
  6  7  2  0
  7  8  1  0
  8  9  2  0
 10  2  1  0
 11 10  2  0
 13 12  1  1
 14 13  1  0
 15 13  1  0
 15 16  1  1
 16 10  1  0
 17 15  1  0
 18 17  2  0
 19 17  1  0
 20 21  1  1
 20 19  1  0
 21 22  1  0
 22 26  1  0
 23 22  2  0
 23 24  1  0
 24 25  1  0
 26 25  2  0
 27 20  1  0
 27 28  1  0
 29 27  2  0
M  END
$$$$
