FTH.pdb
     RDKit          3D

 29 30  0  0  1  0  0  0  0  0999 V2000
    9.7591  -16.5119   20.0599 N   0  0  0  0  0  0  0  0  0  0  0  0
    9.6475  -16.0661   21.4427 C   0  0  1  0  0  0  0  0  0  0  0  0
    8.2279  -15.5559   21.6136 C   0  0  0  0  0  0  0  0  0  0  0  0
    7.9832  -14.3644   20.7520 C   0  0  0  0  0  0  0  0  0  0  0  0
    8.6655  -13.1967   20.9587 C   0  0  0  0  0  0  0  0  0  0  0  0
    8.4219  -12.1181   20.1536 C   0  0  0  0  0  0  0  0  0  0  0  0
    7.4845  -12.1854   19.1179 C   0  0  0  0  0  0  0  0  0  0  0  0
    6.7873  -13.3533   18.8943 C   0  0  0  0  0  0  0  0  0  0  0  0
    7.0626  -14.4141   19.7269 C   0  0  0  0  0  0  0  0  0  0  0  0
    9.8956  -17.2493   22.3050 C   0  0  0  0  0  0  0  0  0  0  0  0
    8.9425  -17.9332   22.8123 O   0  0  0  0  0  0  0  0  0  0  0  0
   13.1700  -19.6707   21.9590 C   0  0  0  0  0  0  0  0  0  0  0  0
   12.8989  -19.2480   23.3874 C   0  0  1  0  0  0  0  0  0  0  0  0
   13.7152  -18.1607   23.6579 O   0  0  0  0  0  0  0  0  0  0  0  0
   11.4423  -18.7961   23.5260 C   0  0  2  0  0  0  0  0  0  0  0  0
   11.2045  -17.7023   22.6254 N   0  0  0  0  0  0  0  0  0  0  0  0
   11.1458  -18.4313   24.9370 C   0  0  0  0  0  0  0  0  0  0  0  0
   11.5669  -17.3289   25.3536 O   0  0  0  0  0  0  0  0  0  0  0  0
   10.4212  -19.2588   25.8174 N   0  0  0  0  0  0  0  0  0  0  0  0
   10.1904  -18.9235   27.2235 C   0  0  1  0  0  0  0  0  0  0  0  0
    8.7559  -19.3121   27.5077 C   0  0  0  0  0  0  0  0  0  0  0  0
    7.7803  -18.6160   26.6363 C   0  0  0  0  0  0  0  0  0  0  0  0
    7.5976  -17.2606   26.4720 C   0  0  0  0  0  0  0  0  0  0  0  0
    6.5834  -17.1098   25.5692 N   0  0  0  0  0  0  0  0  0  0  0  0
    6.1474  -18.3206   25.1827 C   0  0  0  0  0  0  0  0  0  0  0  0
    6.8823  -19.2188   25.8380 N   0  0  0  0  0  0  0  0  0  0  0  0
   11.1346  -19.6698   28.0796 C   0  0  0  0  0  0  0  0  0  0  0  0
   11.1611  -19.4344   29.4361 O   0  0  0  0  0  0  0  0  0  0  0  0
   11.9157  -20.5168   27.5936 O   0  0  0  0  0  0  0  0  0  0  0  0
  2  1  1  6
  2  3  1  0
  4  3  1  0
  4  9  1  0
  5  4  2  0
  6  5  1  0
  6  7  2  0
  7  8  1  0
  8  9  2  0
 10  2  1  0
 11 10  2  0
 13 12  1  6
 14 13  1  0
 15 13  1  0
 15 16  1  6
 16 10  1  0
 17 15  1  0
 18 17  2  0
 19 17  1  0
 20 21  1  1
 20 19  1  0
 21 22  1  0
 22 26  1  0
 23 22  2  0
 23 24  1  0
 24 25  1  0
 26 25  2  0
 27 20  1  0
 27 28  1  0
 29 27  2  0
M  END
$$$$
