FTH.pdb
     RDKit          3D

 29 30  0  0  1  0  0  0  0  0999 V2000
    8.5158  -15.0534   15.5058 N   0  0  0  0  0  0  0  0  0  0  0  0
    8.8228  -14.6224   16.8634 C   0  0  1  0  0  0  0  0  0  0  0  0
    7.6313  -13.8070   17.3324 C   0  0  0  0  0  0  0  0  0  0  0  0
    7.7677  -13.4442   18.7717 C   0  0  0  0  0  0  0  0  0  0  0  0
    7.1334  -14.1708   19.7419 C   0  0  0  0  0  0  0  0  0  0  0  0
    7.2754  -13.8165   21.0554 C   0  0  0  0  0  0  0  0  0  0  0  0
    8.0601  -12.7206   21.4284 C   0  0  0  0  0  0  0  0  0  0  0  0
    8.7069  -11.9764   20.4650 C   0  0  0  0  0  0  0  0  0  0  0  0
    8.5374  -12.3669   19.1561 C   0  0  0  0  0  0  0  0  0  0  0  0
    8.9857  -15.8484   17.6852 C   0  0  0  0  0  0  0  0  0  0  0  0
    8.4897  -16.9730   17.3349 O   0  0  0  0  0  0  0  0  0  0  0  0
   10.2268  -18.2804   17.4081 C   0  0  0  0  0  0  0  0  0  0  0  0
   10.9803  -17.8930   18.6630 C   0  0  1  0  0  0  0  0  0  0  0  0
   12.0388  -17.0858   18.2759 O   0  0  0  0  0  0  0  0  0  0  0  0
   10.0688  -17.0748   19.5822 C   0  0  2  0  0  0  0  0  0  0  0  0
    9.7016  -15.8575   18.9135 N   0  0  0  0  0  0  0  0  0  0  0  0
   10.7434  -16.8153   20.8820 C   0  0  0  0  0  0  0  0  0  0  0  0
   11.4215  -15.7688   20.9868 O   0  0  0  0  0  0  0  0  0  0  0  0
   10.6563  -17.6825   21.9891 N   0  0  0  0  0  0  0  0  0  0  0  0
   11.2352  -17.3712   23.2971 C   0  0  1  0  0  0  0  0  0  0  0  0
   10.4041  -18.1341   24.3055 C   0  0  0  0  0  0  0  0  0  0  0  0
    9.0112  -17.6388   24.4063 C   0  0  0  0  0  0  0  0  0  0  0  0
    8.5425  -16.3604   24.1971 C   0  0  0  0  0  0  0  0  0  0  0  0
    7.1937  -16.3993   24.4100 N   0  0  0  0  0  0  0  0  0  0  0  0
    6.8305  -17.6503   24.7392 C   0  0  0  0  0  0  0  0  0  0  0  0
    7.9420  -18.3856   24.7320 N   0  0  0  0  0  0  0  0  0  0  0  0
   12.6510  -17.7903   23.3326 C   0  0  0  0  0  0  0  0  0  0  0  0
   13.4671  -17.3584   24.3542 O   0  0  0  0  0  0  0  0  0  0  0  0
   13.1264  -18.5345   22.4472 O   0  0  0  0  0  0  0  0  0  0  0  0
  2  1  1  6
  2  3  1  0
  4  3  1  0
  4  9  1  0
  5  4  2  0
  6  5  1  0
  6  7  2  0
  7  8  1  0
  8  9  2  0
 10  2  1  0
 11 10  2  0
 13 12  1  6
 14 13  1  0
 15 13  1  0
 15 16  1  6
 16 10  1  0
 17 15  1  0
 18 17  2  0
 19 17  1  0
 20 21  1  1
 20 19  1  0
 21 22  1  0
 22 26  1  0
 23 22  2  0
 23 24  1  0
 24 25  1  0
 26 25  2  0
 27 20  1  0
 27 28  1  0
 29 27  2  0
M  END
$$$$
