FTH.pdb
     RDKit          3D

 29 30  0  0  1  0  0  0  0  0999 V2000
    9.8753  -15.0085   16.2919 N   0  0  0  0  0  0  0  0  0  0  0  0
   10.5742  -14.8125   17.5554 C   0  0  1  0  0  0  0  0  0  0  0  0
    9.6406  -15.3143   18.6422 C   0  0  0  0  0  0  0  0  0  0  0  0
    8.7848  -14.2094   19.1607 C   0  0  0  0  0  0  0  0  0  0  0  0
    9.1375  -13.5181   20.2873 C   0  0  0  0  0  0  0  0  0  0  0  0
    8.3343  -12.5085   20.7418 C   0  0  0  0  0  0  0  0  0  0  0  0
    7.1536  -12.1672   20.0746 C   0  0  0  0  0  0  0  0  0  0  0  0
    6.7817  -12.8525   18.9378 C   0  0  0  0  0  0  0  0  0  0  0  0
    7.6179  -13.8605   18.5147 C   0  0  0  0  0  0  0  0  0  0  0  0
   11.8142  -15.6276   17.5003 C   0  0  0  0  0  0  0  0  0  0  0  0
   12.0839  -16.3897   16.5103 O   0  0  0  0  0  0  0  0  0  0  0  0
   13.9242  -15.3557   15.9780 C   0  0  0  0  0  0  0  0  0  0  0  0
   14.7845  -15.2953   17.2225 C   0  0  1  0  0  0  0  0  0  0  0  0
   14.8453  -13.9679   17.6179 O   0  0  0  0  0  0  0  0  0  0  0  0
   14.1244  -16.0976   18.3476 C   0  0  2  0  0  0  0  0  0  0  0  0
   12.7840  -15.6176   18.5398 N   0  0  0  0  0  0  0  0  0  0  0  0
   14.9335  -16.0055   19.5921 C   0  0  0  0  0  0  0  0  0  0  0  0
   14.8195  -14.9696   20.2848 O   0  0  0  0  0  0  0  0  0  0  0  0
   15.8128  -17.0183   20.0236 N   0  0  0  0  0  0  0  0  0  0  0  0
   16.5436  -16.9575   21.2905 C   0  0  1  0  0  0  0  0  0  0  0  0
   16.9888  -18.3753   21.5757 C   0  0  0  0  0  0  0  0  0  0  0  0
   15.8816  -19.2560   22.0163 C   0  0  0  0  0  0  0  0  0  0  0  0
   14.5960  -18.9027   22.3627 C   0  0  0  0  0  0  0  0  0  0  0  0
   13.9504  -20.0587   22.6987 N   0  0  0  0  0  0  0  0  0  0  0  0
   14.7957  -21.0950   22.5687 C   0  0  0  0  0  0  0  0  0  0  0  0
   15.9581  -20.5908   22.1554 N   0  0  0  0  0  0  0  0  0  0  0  0
   17.6958  -16.0423   21.1625 C   0  0  0  0  0  0  0  0  0  0  0  0
   17.9550  -15.4331   19.9551 O   0  0  0  0  0  0  0  0  0  0  0  0
   18.4455  -15.8081   22.1356 O   0  0  0  0  0  0  0  0  0  0  0  0
  2  1  1  6
  2  3  1  0
  4  3  1  0
  4  9  1  0
  5  4  2  0
  6  5  1  0
  6  7  2  0
  7  8  1  0
  8  9  2  0
 10  2  1  0
 11 10  2  0
 13 12  1  6
 14 13  1  0
 15 13  1  0
 15 16  1  1
 16 10  1  0
 17 15  1  0
 18 17  2  0
 19 17  1  0
 20 21  1  6
 20 19  1  0
 21 22  1  0
 22 26  1  0
 23 22  2  0
 23 24  1  0
 24 25  1  0
 26 25  2  0
 27 20  1  0
 27 28  1  0
 29 27  2  0
M  END
$$$$
