FKM.pdb
     RDKit          3D

 29 29  0  0  1  0  0  0  0  0999 V2000
    5.6285  -18.0599   25.4015 N   0  0  0  0  0  0  0  0  0  0  0  0
    5.9823  -16.6536   25.2572 C   0  0  1  0  0  0  0  0  0  0  0  0
    6.4042  -16.0706   26.5915 C   0  0  0  0  0  0  0  0  0  0  0  0
    6.4883  -14.5921   26.5407 C   0  0  0  0  0  0  0  0  0  0  0  0
    7.7001  -13.9419   26.4542 C   0  0  0  0  0  0  0  0  0  0  0  0
    7.7140  -12.5490   26.4107 C   0  0  0  0  0  0  0  0  0  0  0  0
    6.5632  -11.8167   26.4515 C   0  0  0  0  0  0  0  0  0  0  0  0
    5.3471  -12.4605   26.5381 C   0  0  0  0  0  0  0  0  0  0  0  0
    5.3280  -13.8593   26.5821 C   0  0  0  0  0  0  0  0  0  0  0  0
    7.1525  -16.5957   24.3570 C   0  0  0  0  0  0  0  0  0  0  0  0
    8.1355  -17.3817   24.4316 O   0  0  0  0  0  0  0  0  0  0  0  0
    7.1843  -15.5965   23.3394 N   0  0  0  0  0  0  0  0  0  0  0  0
    8.2348  -15.5338   22.3459 C   0  0  1  0  0  0  0  0  0  0  0  0
    7.7972  -14.5585   21.2909 C   0  0  0  0  0  0  0  0  0  0  0  0
    8.7384  -14.4898   20.1128 C   0  0  0  0  0  0  0  0  0  0  0  0
    8.2447  -13.5406   19.0476 C   0  0  0  0  0  0  0  0  0  0  0  0
    9.2195  -13.5908   17.8899 C   0  0  0  0  0  0  0  0  0  0  0  0
    8.8064  -12.6582   16.8693 N   0  0  0  0  0  0  0  0  0  0  0  0
    9.5483  -15.2114   22.9507 C   0  0  0  0  0  0  0  0  0  0  0  0
    9.8572  -14.0146   23.1913 O   0  0  0  0  0  0  0  0  0  0  0  0
   11.4341  -12.7761   27.1547 C   0  0  0  0  0  0  0  0  0  0  0  0
   11.4702  -14.5363   27.5824 S   0  0  0  0  0  0  0  0  0  0  0  0
   11.3347  -15.5976   26.1575 C   0  0  0  0  0  0  0  0  0  0  0  0
   11.8693  -14.9724   24.9108 C   0  0  0  0  0  0  0  0  0  0  0  0
   11.8688  -15.8806   23.7246 C   0  0  2  0  0  0  0  0  0  0  0  0
   10.5123  -16.1910   23.2878 N   0  0  0  0  0  0  0  0  0  0  0  0
   12.5486  -17.1342   24.0403 C   0  0  0  0  0  0  0  0  0  0  0  0
   11.9773  -18.2503   24.1140 O   0  0  0  0  0  0  0  0  0  0  0  0
   13.9322  -17.1707   24.2899 O   0  0  0  0  0  0  0  0  0  0  0  0
  2  1  1  1
  3  4  1  0
  3  2  1  0
  4  9  2  0
  4  5  1  0
  5  6  2  0
  6  7  1  0
  8  7  2  0
  9  8  1  0
 10 12  1  0
 10  2  1  0
 11 10  2  0
 13 12  1  0
 13 14  1  6
 14 15  1  0
 15 16  1  0
 16 17  1  0
 17 18  1  0
 19 13  1  0
 20 19  2  0
 21 22  1  0
 23 24  1  0
 23 22  1  0
 25 24  1  1
 25 27  1  0
 25 26  1  0
 26 19  1  0
 27 29  1  0
 28 27  2  0
M  END
$$$$
