FKM.pdb
     RDKit          3D

 29 29  0  0  1  0  0  0  0  0999 V2000
    5.3715  -16.8546   21.0040 N   0  0  0  0  0  0  0  0  0  0  0  0
    6.6893  -16.6249   21.5822 C   0  0  1  0  0  0  0  0  0  0  0  0
    6.8972  -15.1502   21.8656 C   0  0  0  0  0  0  0  0  0  0  0  0
    7.4334  -14.4359   20.6833 C   0  0  0  0  0  0  0  0  0  0  0  0
    8.6569  -14.7609   20.1389 C   0  0  0  0  0  0  0  0  0  0  0  0
    9.1075  -14.0519   19.0268 C   0  0  0  0  0  0  0  0  0  0  0  0
    8.3709  -13.0490   18.4665 C   0  0  0  0  0  0  0  0  0  0  0  0
    7.1459  -12.7185   19.0060 C   0  0  0  0  0  0  0  0  0  0  0  0
    6.6892  -13.4275   20.1228 C   0  0  0  0  0  0  0  0  0  0  0  0
    6.7194  -17.3349   22.8774 C   0  0  0  0  0  0  0  0  0  0  0  0
    5.8198  -17.2335   23.7550 O   0  0  0  0  0  0  0  0  0  0  0  0
    7.8257  -18.1886   23.1643 N   0  0  0  0  0  0  0  0  0  0  0  0
    8.2011  -18.5447   24.5159 C   0  0  1  0  0  0  0  0  0  0  0  0
    8.8517  -19.8972   24.4594 C   0  0  0  0  0  0  0  0  0  0  0  0
    8.2698  -20.8823   25.4442 C   0  0  0  0  0  0  0  0  0  0  0  0
    6.9724  -21.4768   24.9517 C   0  0  0  0  0  0  0  0  0  0  0  0
    6.4681  -22.4365   26.0088 C   0  0  0  0  0  0  0  0  0  0  0  0
    5.1289  -22.8600   25.6780 N   0  0  0  0  0  0  0  0  0  0  0  0
    9.0425  -17.5021   25.1483 C   0  0  0  0  0  0  0  0  0  0  0  0
   10.1604  -17.2041   24.6514 O   0  0  0  0  0  0  0  0  0  0  0  0
    7.0820  -11.4786   26.5710 C   0  0  0  0  0  0  0  0  0  0  0  0
    7.9809  -11.9768   28.0631 S   0  0  0  0  0  0  0  0  0  0  0  0
    9.1042  -13.3297   27.7750 C   0  0  0  0  0  0  0  0  0  0  0  0
    8.4599  -14.4866   27.0840 C   0  0  0  0  0  0  0  0  0  0  0  0
    9.3803  -15.6360   26.8321 C   0  0  2  0  0  0  0  0  0  0  0  0
    8.6618  -16.7942   26.3131 N   0  0  0  0  0  0  0  0  0  0  0  0
   10.0567  -16.0291   28.0655 C   0  0  0  0  0  0  0  0  0  0  0  0
    9.7194  -17.0075   28.7770 O   0  0  0  0  0  0  0  0  0  0  0  0
   11.1654  -15.3119   28.5497 O   0  0  0  0  0  0  0  0  0  0  0  0
  2  1  1  1
  3  4  1  0
  3  2  1  0
  4  9  2  0
  4  5  1  0
  5  6  2  0
  6  7  1  0
  8  7  2  0
  9  8  1  0
 10 12  1  0
 10  2  1  0
 11 10  2  0
 13 12  1  0
 13 14  1  6
 14 15  1  0
 15 16  1  0
 16 17  1  0
 17 18  1  0
 19 13  1  0
 20 19  2  0
 21 22  1  0
 23 24  1  0
 23 22  1  0
 25 24  1  1
 25 27  1  0
 25 26  1  0
 26 19  1  0
 27 29  1  0
 28 27  2  0
M  END
$$$$
