FKM.pdb
     RDKit          3D

 29 29  0  0  1  0  0  0  0  0999 V2000
    5.8036  -18.0180   25.1202 N   0  0  0  0  0  0  0  0  0  0  0  0
    6.1918  -16.6212   24.9721 C   0  0  1  0  0  0  0  0  0  0  0  0
    6.8968  -16.1288   26.2205 C   0  0  0  0  0  0  0  0  0  0  0  0
    6.9167  -14.6488   26.2902 C   0  0  0  0  0  0  0  0  0  0  0  0
    8.0965  -13.9401   26.2231 C   0  0  0  0  0  0  0  0  0  0  0  0
    8.0501  -12.5490   26.2949 C   0  0  0  0  0  0  0  0  0  0  0  0
    6.8713  -11.8748   26.4294 C   0  0  0  0  0  0  0  0  0  0  0  0
    5.6870  -12.5774   26.4972 C   0  0  0  0  0  0  0  0  0  0  0  0
    5.7284  -13.9745   26.4256 C   0  0  0  0  0  0  0  0  0  0  0  0
    7.1630  -16.5612   23.8603 C   0  0  0  0  0  0  0  0  0  0  0  0
    8.1847  -17.2957   23.7799 O   0  0  0  0  0  0  0  0  0  0  0  0
    6.9434  -15.6216   22.8098 N   0  0  0  0  0  0  0  0  0  0  0  0
    7.9988  -15.1973   21.9149 C   0  0  1  0  0  0  0  0  0  0  0  0
    7.4436  -14.0977   21.0556 C   0  0  0  0  0  0  0  0  0  0  0  0
    8.4163  -13.6063   20.0110 C   0  0  0  0  0  0  0  0  0  0  0  0
    7.9143  -13.8526   18.6086 C   0  0  0  0  0  0  0  0  0  0  0  0
    9.0050  -13.4386   17.6433 C   0  0  0  0  0  0  0  0  0  0  0  0
    8.6407  -13.8335   16.3041 N   0  0  0  0  0  0  0  0  0  0  0  0
    9.2278  -14.8189   22.6506 C   0  0  0  0  0  0  0  0  0  0  0  0
    9.4831  -13.6064   22.8743 O   0  0  0  0  0  0  0  0  0  0  0  0
    9.9763  -13.7607   28.5948 C   0  0  0  0  0  0  0  0  0  0  0  0
   10.9319  -15.2551   28.2262 S   0  0  0  0  0  0  0  0  0  0  0  0
   11.6370  -15.2396   26.5898 C   0  0  0  0  0  0  0  0  0  0  0  0
   10.6384  -15.5415   25.5209 C   0  0  0  0  0  0  0  0  0  0  0  0
   11.1850  -15.4534   24.1333 C   0  0  2  0  0  0  0  0  0  0  0  0
   10.1666  -15.7604   23.1355 N   0  0  0  0  0  0  0  0  0  0  0  0
   12.2945  -16.3875   23.9607 C   0  0  0  0  0  0  0  0  0  0  0  0
   13.3846  -16.3142   24.5802 O   0  0  0  0  0  0  0  0  0  0  0  0
   12.2082  -17.4638   23.0594 O   0  0  0  0  0  0  0  0  0  0  0  0
  2  1  1  1
  3  4  1  0
  3  2  1  0
  4  9  2  0
  4  5  1  0
  5  6  2  0
  6  7  1  0
  8  7  2  0
  9  8  1  0
 10 12  1  0
 10  2  1  0
 11 10  2  0
 13 12  1  0
 13 14  1  1
 14 15  1  0
 15 16  1  0
 16 17  1  0
 17 18  1  0
 19 13  1  0
 20 19  2  0
 21 22  1  0
 23 24  1  0
 23 22  1  0
 25 24  1  1
 25 27  1  0
 25 26  1  0
 26 19  1  0
 27 29  1  0
 28 27  2  0
M  END
$$$$
