FKM.pdb
     RDKit          3D

 29 29  0  0  1  0  0  0  0  0999 V2000
    5.8423  -17.6028   21.2841 N   0  0  0  0  0  0  0  0  0  0  0  0
    6.9724  -16.6976   21.4492 C   0  0  1  0  0  0  0  0  0  0  0  0
    6.4897  -15.2791   21.6793 C   0  0  0  0  0  0  0  0  0  0  0  0
    7.2601  -14.3016   20.8750 C   0  0  0  0  0  0  0  0  0  0  0  0
    7.9369  -14.6801   19.7360 C   0  0  0  0  0  0  0  0  0  0  0  0
    8.6445  -13.7144   19.0224 C   0  0  0  0  0  0  0  0  0  0  0  0
    8.6836  -12.4101   19.4217 C   0  0  0  0  0  0  0  0  0  0  0  0
    8.0088  -12.0243   20.5604 C   0  0  0  0  0  0  0  0  0  0  0  0
    7.2968  -12.9905   21.2805 C   0  0  0  0  0  0  0  0  0  0  0  0
    7.6907  -17.1257   22.6673 C   0  0  0  0  0  0  0  0  0  0  0  0
    7.1256  -17.3619   23.7694 O   0  0  0  0  0  0  0  0  0  0  0  0
    9.1069  -17.2850   22.6062 N   0  0  0  0  0  0  0  0  0  0  0  0
    9.9025  -17.6080   23.7712 C   0  0  1  0  0  0  0  0  0  0  0  0
   11.1358  -18.3174   23.2900 C   0  0  0  0  0  0  0  0  0  0  0  0
   12.0751  -18.7071   24.4055 C   0  0  0  0  0  0  0  0  0  0  0  0
   12.1033  -20.2003   24.6270 C   0  0  0  0  0  0  0  0  0  0  0  0
   12.9926  -20.4781   25.8206 C   0  0  0  0  0  0  0  0  0  0  0  0
   13.0075  -21.8950   26.0931 N   0  0  0  0  0  0  0  0  0  0  0  0
   10.1850  -16.4104   24.5964 C   0  0  0  0  0  0  0  0  0  0  0  0
   10.6318  -15.3630   24.0590 O   0  0  0  0  0  0  0  0  0  0  0  0
    6.3242  -11.6725   26.2607 C   0  0  0  0  0  0  0  0  0  0  0  0
    7.0688  -12.9830   27.2659 S   0  0  0  0  0  0  0  0  0  0  0  0
    8.5986  -13.5927   26.5852 C   0  0  0  0  0  0  0  0  0  0  0  0
    9.2973  -14.5551   27.4888 C   0  0  0  0  0  0  0  0  0  0  0  0
   10.4406  -15.2726   26.8485 C   0  0  2  0  0  0  0  0  0  0  0  0
    9.9795  -16.3623   25.9958 N   0  0  0  0  0  0  0  0  0  0  0  0
   11.3292  -15.8287   27.8655 C   0  0  0  0  0  0  0  0  0  0  0  0
   12.5515  -15.5569   27.9630 O   0  0  0  0  0  0  0  0  0  0  0  0
   10.8553  -16.7341   28.8319 O   0  0  0  0  0  0  0  0  0  0  0  0
  2  1  1  1
  3  4  1  0
  3  2  1  0
  4  9  2  0
  4  5  1  0
  5  6  2  0
  6  7  1  0
  8  7  2  0
  9  8  1  0
 10 12  1  0
 10  2  1  0
 11 10  2  0
 13 12  1  0
 13 14  1  6
 14 15  1  0
 15 16  1  0
 16 17  1  0
 17 18  1  0
 19 13  1  0
 20 19  2  0
 21 22  1  0
 23 24  1  0
 23 22  1  0
 25 24  1  1
 25 27  1  0
 25 26  1  0
 26 19  1  0
 27 29  1  0
 28 27  2  0
M  END
$$$$
