FKM.pdb
     RDKit          3D

 29 29  0  0  1  0  0  0  0  0999 V2000
    5.8287  -17.6113   25.1194 N   0  0  0  0  0  0  0  0  0  0  0  0
    6.2740  -16.2512   24.8441 C   0  0  1  0  0  0  0  0  0  0  0  0
    7.1066  -15.7201   25.9943 C   0  0  0  0  0  0  0  0  0  0  0  0
    6.7654  -14.3139   26.3133 C   0  0  0  0  0  0  0  0  0  0  0  0
    6.6085  -13.8879   27.6143 C   0  0  0  0  0  0  0  0  0  0  0  0
    6.2867  -12.5526   27.8502 C   0  0  0  0  0  0  0  0  0  0  0  0
    6.1240  -11.6610   26.8299 C   0  0  0  0  0  0  0  0  0  0  0  0
    6.2794  -12.0802   25.5258 C   0  0  0  0  0  0  0  0  0  0  0  0
    6.6025  -13.4203   25.2838 C   0  0  0  0  0  0  0  0  0  0  0  0
    7.1493  -16.3185   23.6558 C   0  0  0  0  0  0  0  0  0  0  0  0
    7.5946  -17.3941   23.1714 O   0  0  0  0  0  0  0  0  0  0  0  0
    7.5199  -15.1023   23.0091 N   0  0  0  0  0  0  0  0  0  0  0  0
    8.1771  -15.0777   21.7199 C   0  0  1  0  0  0  0  0  0  0  0  0
    7.7463  -13.8205   21.0203 C   0  0  0  0  0  0  0  0  0  0  0  0
    8.4607  -13.5902   19.7106 C   0  0  0  0  0  0  0  0  0  0  0  0
    7.9655  -14.5149   18.6247 C   0  0  0  0  0  0  0  0  0  0  0  0
    8.7071  -14.1754   17.3489 C   0  0  0  0  0  0  0  0  0  0  0  0
    8.1607  -14.9400   16.2540 N   0  0  0  0  0  0  0  0  0  0  0  0
    9.6465  -15.2183   21.8464 C   0  0  0  0  0  0  0  0  0  0  0  0
   10.2792  -15.9751   21.0639 O   0  0  0  0  0  0  0  0  0  0  0  0
    9.7244  -13.9213   27.7480 C   0  0  0  0  0  0  0  0  0  0  0  0
   11.0852  -15.1173   27.7563 S   0  0  0  0  0  0  0  0  0  0  0  0
   11.2391  -16.0011   26.2167 C   0  0  0  0  0  0  0  0  0  0  0  0
   10.4476  -15.3866   25.1090 C   0  0  0  0  0  0  0  0  0  0  0  0
   11.2144  -15.2050   23.8397 C   0  0  2  0  0  0  0  0  0  0  0  0
   10.4134  -14.5362   22.8208 N   0  0  0  0  0  0  0  0  0  0  0  0
   11.6436  -16.4976   23.3124 C   0  0  0  0  0  0  0  0  0  0  0  0
   12.8428  -16.8540   23.2011 O   0  0  0  0  0  0  0  0  0  0  0  0
   10.7090  -17.4563   22.8817 O   0  0  0  0  0  0  0  0  0  0  0  0
  2  1  1  1
  3  4  1  0
  3  2  1  0
  4  9  2  0
  4  5  1  0
  5  6  2  0
  6  7  1  0
  8  7  2  0
  9  8  1  0
 10 12  1  0
 10  2  1  0
 11 10  2  0
 13 12  1  0
 13 14  1  1
 14 15  1  0
 15 16  1  0
 16 17  1  0
 17 18  1  0
 19 13  1  0
 20 19  2  0
 21 22  1  0
 23 24  1  0
 23 22  1  0
 25 24  1  1
 25 27  1  0
 25 26  1  0
 26 19  1  0
 27 29  1  0
 28 27  2  0
M  END
$$$$
