FKM.pdb
     RDKit          3D

 29 29  0  0  1  0  0  0  0  0999 V2000
    5.6490  -17.9082   24.6122 N   0  0  0  0  0  0  0  0  0  0  0  0
    6.1081  -16.5336   24.7652 C   0  0  1  0  0  0  0  0  0  0  0  0
    6.6746  -16.3125   26.1539 C   0  0  0  0  0  0  0  0  0  0  0  0
    7.0908  -14.9051   26.3576 C   0  0  0  0  0  0  0  0  0  0  0  0
    6.1843  -13.9298   26.7126 C   0  0  0  0  0  0  0  0  0  0  0  0
    6.6369  -12.6235   26.8889 C   0  0  0  0  0  0  0  0  0  0  0  0
    7.9488  -12.2879   26.7195 C   0  0  0  0  0  0  0  0  0  0  0  0
    8.8612  -13.2585   26.3643 C   0  0  0  0  0  0  0  0  0  0  0  0
    8.4115  -14.5718   26.1860 C   0  0  0  0  0  0  0  0  0  0  0  0
    7.2094  -16.3389   23.7998 C   0  0  0  0  0  0  0  0  0  0  0  0
    8.1354  -17.1740   23.6129 O   0  0  0  0  0  0  0  0  0  0  0  0
    7.2385  -15.1400   23.0275 N   0  0  0  0  0  0  0  0  0  0  0  0
    8.3418  -14.8074   22.1520 C   0  0  1  0  0  0  0  0  0  0  0  0
    7.9140  -13.6352   21.3161 C   0  0  0  0  0  0  0  0  0  0  0  0
    7.4206  -14.0272   19.9444 C   0  0  0  0  0  0  0  0  0  0  0  0
    8.5453  -14.1147   18.9412 C   0  0  0  0  0  0  0  0  0  0  0  0
    7.9367  -14.3768   17.5797 C   0  0  0  0  0  0  0  0  0  0  0  0
    8.9800  -14.4203   16.5839 N   0  0  0  0  0  0  0  0  0  0  0  0
    9.5959  -14.5778   22.9067 C   0  0  0  0  0  0  0  0  0  0  0  0
   10.0181  -13.4059   23.0906 O   0  0  0  0  0  0  0  0  0  0  0  0
    9.3799  -15.1079   28.8527 C   0  0  0  0  0  0  0  0  0  0  0  0
   10.9085  -14.2417   28.4108 S   0  0  0  0  0  0  0  0  0  0  0  0
   11.6711  -14.8916   26.9373 C   0  0  0  0  0  0  0  0  0  0  0  0
   10.7343  -14.9583   25.7758 C   0  0  0  0  0  0  0  0  0  0  0  0
   11.3677  -15.4312   24.5080 C   0  0  2  0  0  0  0  0  0  0  0  0
   10.3784  -15.6225   23.4537 N   0  0  0  0  0  0  0  0  0  0  0  0
   12.0603  -16.6987   24.7245 C   0  0  0  0  0  0  0  0  0  0  0  0
   13.2332  -16.7988   25.1624 O   0  0  0  0  0  0  0  0  0  0  0  0
   11.4359  -17.9278   24.4465 O   0  0  0  0  0  0  0  0  0  0  0  0
  2  1  1  1
  3  4  1  0
  3  2  1  0
  4  9  2  0
  4  5  1  0
  5  6  2  0
  6  7  1  0
  8  7  2  0
  9  8  1  0
 10 12  1  0
 10  2  1  0
 11 10  2  0
 13 12  1  0
 13 14  1  1
 14 15  1  0
 15 16  1  0
 16 17  1  0
 17 18  1  0
 19 13  1  0
 20 19  2  0
 21 22  1  0
 23 24  1  0
 23 22  1  0
 25 24  1  1
 25 27  1  0
 25 26  1  0
 26 19  1  0
 27 29  1  0
 28 27  2  0
M  END
$$$$
