FKM.pdb
     RDKit          3D

 29 29  0  0  1  0  0  0  0  0999 V2000
    5.9701  -16.7617   25.0783 N   0  0  0  0  0  0  0  0  0  0  0  0
    7.0529  -16.0357   24.4269 C   0  0  1  0  0  0  0  0  0  0  0  0
    7.7937  -15.1721   25.4287 C   0  0  0  0  0  0  0  0  0  0  0  0
    7.1352  -13.8571   25.6101 C   0  0  0  0  0  0  0  0  0  0  0  0
    7.4844  -12.7650   24.8458 C   0  0  0  0  0  0  0  0  0  0  0  0
    6.8291  -11.5545   25.0642 C   0  0  0  0  0  0  0  0  0  0  0  0
    5.8552  -11.4246   26.0113 C   0  0  0  0  0  0  0  0  0  0  0  0
    5.5008  -12.5131   26.7796 C   0  0  0  0  0  0  0  0  0  0  0  0
    6.1561  -13.7309   26.5641 C   0  0  0  0  0  0  0  0  0  0  0  0
    8.0046  -17.0468   23.9221 C   0  0  0  0  0  0  0  0  0  0  0  0
    8.2335  -18.1450   24.4976 O   0  0  0  0  0  0  0  0  0  0  0  0
    8.7127  -16.7768   22.7135 N   0  0  0  0  0  0  0  0  0  0  0  0
   10.0596  -17.2523   22.4804 C   0  0  1  0  0  0  0  0  0  0  0  0
   10.4629  -16.8020   21.1056 C   0  0  0  0  0  0  0  0  0  0  0  0
   10.0647  -17.7705   20.0183 C   0  0  0  0  0  0  0  0  0  0  0  0
    9.4707  -17.0666   18.8220 C   0  0  0  0  0  0  0  0  0  0  0  0
    9.0074  -18.1234   17.8415 C   0  0  0  0  0  0  0  0  0  0  0  0
    8.5130  -17.4883   16.6439 N   0  0  0  0  0  0  0  0  0  0  0  0
   10.9906  -16.8197   23.5486 C   0  0  0  0  0  0  0  0  0  0  0  0
   11.7432  -15.8266   23.3678 O   0  0  0  0  0  0  0  0  0  0  0  0
   10.2773  -13.4377   28.4390 C   0  0  0  0  0  0  0  0  0  0  0  0
   11.0904  -14.8370   29.2534 S   0  0  0  0  0  0  0  0  0  0  0  0
   11.9874  -15.8742   28.1154 C   0  0  0  0  0  0  0  0  0  0  0  0
   11.2089  -16.1977   26.8824 C   0  0  0  0  0  0  0  0  0  0  0  0
   11.9609  -17.0155   25.8835 C   0  0  2  0  0  0  0  0  0  0  0  0
   11.0948  -17.4695   24.8015 N   0  0  0  0  0  0  0  0  0  0  0  0
   12.5509  -18.1884   26.5235 C   0  0  0  0  0  0  0  0  0  0  0  0
   13.4611  -18.1407   27.3876 O   0  0  0  0  0  0  0  0  0  0  0  0
   12.1219  -19.4884   26.2009 O   0  0  0  0  0  0  0  0  0  0  0  0
  2  1  1  1
  3  4  1  0
  3  2  1  0
  4  9  2  0
  4  5  1  0
  5  6  2  0
  6  7  1  0
  8  7  2  0
  9  8  1  0
 10 12  1  0
 10  2  1  0
 11 10  2  0
 13 12  1  0
 13 14  1  6
 14 15  1  0
 15 16  1  0
 16 17  1  0
 17 18  1  0
 19 13  1  0
 20 19  2  0
 21 22  1  0
 23 24  1  0
 23 22  1  0
 25 24  1  1
 25 27  1  0
 25 26  1  0
 26 19  1  0
 27 29  1  0
 28 27  2  0
M  END
$$$$
