FKM.pdb
     RDKit          3D

 29 29  0  0  1  0  0  0  0  0999 V2000
    6.5104  -16.2825   26.2100 N   0  0  0  0  0  0  0  0  0  0  0  0
    6.6909  -15.3801   25.0801 C   0  0  1  0  0  0  0  0  0  0  0  0
    7.4674  -14.1480   25.5010 C   0  0  0  0  0  0  0  0  0  0  0  0
    6.5767  -13.1049   26.0616 C   0  0  0  0  0  0  0  0  0  0  0  0
    5.3171  -12.8816   25.5494 C   0  0  0  0  0  0  0  0  0  0  0  0
    4.5266  -11.8853   26.1193 C   0  0  0  0  0  0  0  0  0  0  0  0
    4.9667  -11.1292   27.1666 C   0  0  0  0  0  0  0  0  0  0  0  0
    6.2258  -11.3471   27.6842 C   0  0  0  0  0  0  0  0  0  0  0  0
    7.0235  -12.3465   27.1152 C   0  0  0  0  0  0  0  0  0  0  0  0
    7.5077  -16.1005   24.0817 C   0  0  0  0  0  0  0  0  0  0  0  0
    8.1325  -17.1685   24.3242 O   0  0  0  0  0  0  0  0  0  0  0  0
    7.6033  -15.5671   22.7622 N   0  0  0  0  0  0  0  0  0  0  0  0
    8.6695  -15.9303   21.8536 C   0  0  1  0  0  0  0  0  0  0  0  0
    8.3925  -15.2522   20.5424 C   0  0  0  0  0  0  0  0  0  0  0  0
    9.2955  -15.7177   19.4259 C   0  0  0  0  0  0  0  0  0  0  0  0
    8.8226  -17.0165   18.8187 C   0  0  0  0  0  0  0  0  0  0  0  0
    9.7454  -17.3565   17.6673 C   0  0  0  0  0  0  0  0  0  0  0  0
   10.8797  -18.0998   18.1602 N   0  0  0  0  0  0  0  0  0  0  0  0
   10.0045  -15.6208   22.4168 C   0  0  0  0  0  0  0  0  0  0  0  0
   10.3124  -14.4328   22.6981 O   0  0  0  0  0  0  0  0  0  0  0  0
   10.7953  -14.1942   27.7598 C   0  0  0  0  0  0  0  0  0  0  0  0
   11.5634  -15.8350   27.7516 S   0  0  0  0  0  0  0  0  0  0  0  0
   12.3320  -16.2315   26.1936 C   0  0  0  0  0  0  0  0  0  0  0  0
   11.3584  -16.3003   25.0630 C   0  0  0  0  0  0  0  0  0  0  0  0
   11.9914  -16.5002   23.7246 C   0  0  2  0  0  0  0  0  0  0  0  0
   10.9908  -16.6039   22.6686 N   0  0  0  0  0  0  0  0  0  0  0  0
   12.7966  -17.7188   23.7167 C   0  0  0  0  0  0  0  0  0  0  0  0
   12.3857  -18.8362   23.3168 O   0  0  0  0  0  0  0  0  0  0  0  0
   14.1272  -17.7166   24.1721 O   0  0  0  0  0  0  0  0  0  0  0  0
  2  1  1  1
  3  4  1  0
  3  2  1  0
  4  9  2  0
  4  5  1  0
  5  6  2  0
  6  7  1  0
  8  7  2  0
  9  8  1  0
 10 12  1  0
 10  2  1  0
 11 10  2  0
 13 12  1  0
 13 14  1  6
 14 15  1  0
 15 16  1  0
 16 17  1  0
 17 18  1  0
 19 13  1  0
 20 19  2  0
 21 22  1  0
 23 24  1  0
 23 22  1  0
 25 24  1  1
 25 27  1  0
 25 26  1  0
 26 19  1  0
 27 29  1  0
 28 27  2  0
M  END
$$$$
