FKM.pdb
     RDKit          3D

 29 29  0  0  1  0  0  0  0  0999 V2000
    6.0624  -17.9089   25.2987 N   0  0  0  0  0  0  0  0  0  0  0  0
    6.2983  -16.4871   25.0829 C   0  0  1  0  0  0  0  0  0  0  0  0
    6.9966  -15.8750   26.2812 C   0  0  0  0  0  0  0  0  0  0  0  0
    6.6645  -14.4390   26.4335 C   0  0  0  0  0  0  0  0  0  0  0  0
    5.3700  -13.9822   26.3136 C   0  0  0  0  0  0  0  0  0  0  0  0
    5.1212  -12.6195   26.4668 C   0  0  0  0  0  0  0  0  0  0  0  0
    6.1225  -11.7308   26.7312 C   0  0  0  0  0  0  0  0  0  0  0  0
    7.4200  -12.1808   26.8525 C   0  0  0  0  0  0  0  0  0  0  0  0
    7.6750  -13.5484   26.6995 C   0  0  0  0  0  0  0  0  0  0  0  0
    7.2141  -16.3742   23.9291 C   0  0  0  0  0  0  0  0  0  0  0  0
    8.0720  -17.2469   23.6254 O   0  0  0  0  0  0  0  0  0  0  0  0
    7.1334  -15.2148   23.1021 N   0  0  0  0  0  0  0  0  0  0  0  0
    8.0325  -14.9901   21.9906 C   0  0  1  0  0  0  0  0  0  0  0  0
    7.5438  -13.7744   21.2565 C   0  0  0  0  0  0  0  0  0  0  0  0
    8.3769  -13.4323   20.0450 C   0  0  0  0  0  0  0  0  0  0  0  0
    7.9008  -14.1544   18.8076 C   0  0  0  0  0  0  0  0  0  0  0  0
    8.7447  -13.6863   17.6407 C   0  0  0  0  0  0  0  0  0  0  0  0
    8.2376  -14.2586   16.4170 N   0  0  0  0  0  0  0  0  0  0  0  0
    9.4435  -14.8951   22.4322 C   0  0  0  0  0  0  0  0  0  0  0  0
   10.0848  -13.8230   22.2748 O   0  0  0  0  0  0  0  0  0  0  0  0
    9.9475  -15.2201   28.7147 C   0  0  0  0  0  0  0  0  0  0  0  0
   11.2186  -14.8138   27.4894 S   0  0  0  0  0  0  0  0  0  0  0  0
   11.0751  -15.7779   25.9976 C   0  0  0  0  0  0  0  0  0  0  0  0
   11.5883  -15.0646   24.7898 C   0  0  0  0  0  0  0  0  0  0  0  0
   11.5131  -15.8654   23.5309 C   0  0  2  0  0  0  0  0  0  0  0  0
   10.1434  -15.9646   23.0398 N   0  0  0  0  0  0  0  0  0  0  0  0
   12.0210  -17.2166   23.7535 C   0  0  0  0  0  0  0  0  0  0  0  0
   11.3191  -18.2562   23.6901 O   0  0  0  0  0  0  0  0  0  0  0  0
   13.3737  -17.4454   24.0632 O   0  0  0  0  0  0  0  0  0  0  0  0
  2  1  1  1
  3  4  1  0
  3  2  1  0
  4  9  2  0
  4  5  1  0
  5  6  2  0
  6  7  1  0
  8  7  2  0
  9  8  1  0
 10 12  1  0
 10  2  1  0
 11 10  2  0
 13 12  1  0
 13 14  1  1
 14 15  1  0
 15 16  1  0
 16 17  1  0
 17 18  1  0
 19 13  1  0
 20 19  2  0
 21 22  1  0
 23 24  1  0
 23 22  1  0
 25 24  1  1
 25 27  1  0
 25 26  1  0
 26 19  1  0
 27 29  1  0
 28 27  2  0
M  END
$$$$
