FKM.pdb
     RDKit          3D

 29 29  0  0  1  0  0  0  0  0999 V2000
    5.6815  -17.4854   25.1982 N   0  0  0  0  0  0  0  0  0  0  0  0
    6.2807  -16.2360   24.7468 C   0  0  1  0  0  0  0  0  0  0  0  0
    6.7551  -15.4148   25.9295 C   0  0  0  0  0  0  0  0  0  0  0  0
    6.4890  -13.9702   25.7346 C   0  0  0  0  0  0  0  0  0  0  0  0
    5.2845  -13.4048   26.0925 C   0  0  0  0  0  0  0  0  0  0  0  0
    5.0940  -12.0401   25.8836 C   0  0  0  0  0  0  0  0  0  0  0  0
    6.0658  -11.2539   25.3362 C   0  0  0  0  0  0  0  0  0  0  0  0
    7.2735  -11.8128   24.9757 C   0  0  0  0  0  0  0  0  0  0  0  0
    7.4695  -13.1829   25.1835 C   0  0  0  0  0  0  0  0  0  0  0  0
    7.4711  -16.5947   23.9486 C   0  0  0  0  0  0  0  0  0  0  0  0
    8.2790  -17.5096   24.2647 O   0  0  0  0  0  0  0  0  0  0  0  0
    7.7332  -15.8711   22.7476 N   0  0  0  0  0  0  0  0  0  0  0  0
    8.9497  -16.0489   21.9841 C   0  0  1  0  0  0  0  0  0  0  0  0
    8.7821  -15.3018   20.6921 C   0  0  0  0  0  0  0  0  0  0  0  0
    9.2836  -16.0655   19.4904 C   0  0  0  0  0  0  0  0  0  0  0  0
    8.4089  -17.2532   19.1683 C   0  0  0  0  0  0  0  0  0  0  0  0
    8.9309  -17.8852   17.8951 C   0  0  0  0  0  0  0  0  0  0  0  0
   10.1235  -18.6437   18.1856 N   0  0  0  0  0  0  0  0  0  0  0  0
   10.1494  -15.6480   22.7556 C   0  0  0  0  0  0  0  0  0  0  0  0
   10.5833  -14.4682   22.6825 O   0  0  0  0  0  0  0  0  0  0  0  0
    9.9257  -13.9259   28.3798 C   0  0  0  0  0  0  0  0  0  0  0  0
   11.2155  -15.1824   28.5803 S   0  0  0  0  0  0  0  0  0  0  0  0
   12.0610  -15.5554   27.0568 C   0  0  0  0  0  0  0  0  0  0  0  0
   11.1285  -15.8721   25.9338 C   0  0  0  0  0  0  0  0  0  0  0  0
   11.8075  -16.0947   24.6218 C   0  0  2  0  0  0  0  0  0  0  0  0
   10.8651  -16.5316   23.5980 N   0  0  0  0  0  0  0  0  0  0  0  0
   12.8495  -17.1099   24.7513 C   0  0  0  0  0  0  0  0  0  0  0  0
   12.7014  -18.3193   24.4465 O   0  0  0  0  0  0  0  0  0  0  0  0
   14.1270  -16.7854   25.2420 O   0  0  0  0  0  0  0  0  0  0  0  0
  2  1  1  1
  3  4  1  0
  3  2  1  0
  4  9  2  0
  4  5  1  0
  5  6  2  0
  6  7  1  0
  8  7  2  0
  9  8  1  0
 10 12  1  0
 10  2  1  0
 11 10  2  0
 13 12  1  0
 13 14  1  6
 14 15  1  0
 15 16  1  0
 16 17  1  0
 17 18  1  0
 19 13  1  0
 20 19  2  0
 21 22  1  0
 23 24  1  0
 23 22  1  0
 25 24  1  1
 25 27  1  0
 25 26  1  0
 26 19  1  0
 27 29  1  0
 28 27  2  0
M  END
$$$$
