GPW.pdb
     RDKit          3D

 26 28  0  0  1  0  0  0  0  0999 V2000
    8.1756  -11.9592   18.6366 N   0  0  0  0  0  0  0  0  0  0  0  0
    8.7041  -13.2788   18.6933 C   0  0  0  0  0  0  0  0  0  0  0  0
    8.5278  -13.9931   19.9671 C   0  0  0  0  0  0  0  0  0  0  0  0
    9.3954  -13.6622   20.8649 O   0  0  0  0  0  0  0  0  0  0  0  0
    7.5862  -14.9451   20.3276 N   0  0  0  0  0  0  0  0  0  0  0  0
    6.2671  -15.1632   19.7743 C   0  0  0  0  0  0  0  0  0  0  0  0
    6.2801  -16.7022   19.5845 C   0  0  0  0  0  0  0  0  0  0  0  0
    7.4692  -17.1921   20.4431 C   0  0  0  0  0  0  0  0  0  0  0  0
    7.6342  -16.0121   21.3418 C   0  0  1  0  0  0  0  0  0  0  0  0
    8.7596  -15.9873   22.2419 C   0  0  0  0  0  0  0  0  0  0  0  0
    9.9431  -15.8970   21.8096 O   0  0  0  0  0  0  0  0  0  0  0  0
    8.6704  -16.0637   23.6590 N   0  0  0  0  0  0  0  0  0  0  0  0
    9.8035  -16.0325   24.5598 C   0  0  1  0  0  0  0  0  0  0  0  0
    9.7504  -14.9624   25.5491 C   0  0  0  0  0  0  0  0  0  0  0  0
    8.3887  -14.5398   25.8754 C   0  0  0  0  0  0  0  0  0  0  0  0
    7.3066  -15.4240   26.0144 C   0  0  0  0  0  0  0  0  0  0  0  0
    6.1833  -14.7416   26.2702 N   0  0  0  0  0  0  0  0  0  0  0  0
    6.4836  -13.4314   26.3072 C   0  0  0  0  0  0  0  0  0  0  0  0
    5.7181  -12.3276   26.5493 C   0  0  0  0  0  0  0  0  0  0  0  0
    6.2595  -11.0668   26.5623 C   0  0  0  0  0  0  0  0  0  0  0  0
    7.6138  -10.9488   26.3210 C   0  0  0  0  0  0  0  0  0  0  0  0
    8.4050  -12.0580   26.0729 C   0  0  0  0  0  0  0  0  0  0  0  0
    7.8347  -13.2924   26.0665 C   0  0  0  0  0  0  0  0  0  0  0  0
   10.0178  -17.3615   25.1187 C   0  0  0  0  0  0  0  0  0  0  0  0
    9.0215  -18.3499   24.9683 O   0  0  0  0  0  0  0  0  0  0  0  0
   11.0534  -17.7147   25.7478 O   0  0  0  0  0  0  0  0  0  0  0  0
  2  1  1  0
  3  2  1  0
  4  3  2  0
  5  3  1  0
  6  5  1  0
  7  8  1  0
  7  6  1  0
  8  9  1  0
  9  5  1  0
  9 10  1  6
 10 11  2  0
 12 10  1  0
 12 13  1  0
 13 14  1  1
 15 14  1  0
 15 16  2  0
 17 16  1  0
 18 17  1  0
 19 18  2  0
 20 19  1  0
 21 20  2  0
 21 22  1  0
 22 23  2  0
 23 18  1  0
 23 15  1  0
 24 25  1  0
 24 13  1  0
 26 24  2  0
M  END
$$$$
