GPW.pdb
     RDKit          3D

 26 28  0  0  1  0  0  0  0  0999 V2000
   11.2563  -15.9222   16.8556 N   0  0  0  0  0  0  0  0  0  0  0  0
    9.9947  -15.9611   17.5119 C   0  0  0  0  0  0  0  0  0  0  0  0
    9.9462  -15.3699   18.8580 C   0  0  0  0  0  0  0  0  0  0  0  0
   10.8818  -15.7967   19.6395 O   0  0  0  0  0  0  0  0  0  0  0  0
    9.0607  -14.4443   19.3892 N   0  0  0  0  0  0  0  0  0  0  0  0
    8.4336  -13.3172   18.7333 C   0  0  0  0  0  0  0  0  0  0  0  0
    6.9630  -13.4921   19.1931 C   0  0  0  0  0  0  0  0  0  0  0  0
    7.0401  -14.4738   20.3854 C   0  0  0  0  0  0  0  0  0  0  0  0
    8.4828  -14.3281   20.7389 C   0  0  1  0  0  0  0  0  0  0  0  0
    9.0335  -15.1991   21.7465 C   0  0  0  0  0  0  0  0  0  0  0  0
    9.6680  -16.2455   21.4330 O   0  0  0  0  0  0  0  0  0  0  0  0
    8.9259  -14.9916   23.1491 N   0  0  0  0  0  0  0  0  0  0  0  0
    9.5927  -15.7915   24.1549 C   0  0  1  0  0  0  0  0  0  0  0  0
    9.4801  -15.2630   25.5094 C   0  0  0  0  0  0  0  0  0  0  0  0
    8.1351  -14.7923   25.8395 C   0  0  0  0  0  0  0  0  0  0  0  0
    6.9864  -15.5978   25.7769 C   0  0  0  0  0  0  0  0  0  0  0  0
    5.9015  -14.8791   26.0924 N   0  0  0  0  0  0  0  0  0  0  0  0
    6.2918  -13.6214   26.3641 C   0  0  0  0  0  0  0  0  0  0  0  0
    5.5940  -12.5149   26.7539 C   0  0  0  0  0  0  0  0  0  0  0  0
    6.2222  -11.3210   27.0047 C   0  0  0  0  0  0  0  0  0  0  0  0
    7.5933  -11.2737   26.8495 C   0  0  0  0  0  0  0  0  0  0  0  0
    8.3166  -12.3866   26.4542 C   0  0  0  0  0  0  0  0  0  0  0  0
    7.6611  -13.5532   26.2129 C   0  0  0  0  0  0  0  0  0  0  0  0
    9.1890  -17.1851   24.0150 C   0  0  0  0  0  0  0  0  0  0  0  0
   10.0396  -18.2079   24.4869 O   0  0  0  0  0  0  0  0  0  0  0  0
    8.1073  -17.5674   23.4890 O   0  0  0  0  0  0  0  0  0  0  0  0
  2  1  1  0
  3  2  1  0
  4  3  2  0
  5  3  1  0
  6  5  1  0
  7  8  1  0
  7  6  1  0
  8  9  1  0
  9  5  1  0
  9 10  1  1
 10 11  2  0
 12 10  1  0
 12 13  1  0
 13 14  1  1
 15 14  1  0
 15 16  2  0
 17 16  1  0
 18 17  1  0
 19 18  2  0
 20 19  1  0
 21 20  2  0
 21 22  1  0
 22 23  2  0
 23 18  1  0
 23 15  1  0
 24 25  1  0
 24 13  1  0
 26 24  2  0
M  END
$$$$
