GPW.pdb
     RDKit          3D

 26 28  0  0  1  0  0  0  0  0999 V2000
    8.9171  -18.2171   18.6803 N   0  0  0  0  0  0  0  0  0  0  0  0
    7.9867  -17.6096   19.5686 C   0  0  0  0  0  0  0  0  0  0  0  0
    8.5356  -16.6088   20.4966 C   0  0  0  0  0  0  0  0  0  0  0  0
    9.1846  -17.1279   21.4854 O   0  0  0  0  0  0  0  0  0  0  0  0
    8.4554  -15.2250   20.4581 N   0  0  0  0  0  0  0  0  0  0  0  0
    8.4711  -14.3528   19.3036 C   0  0  0  0  0  0  0  0  0  0  0  0
    7.2827  -13.4120   19.6314 C   0  0  0  0  0  0  0  0  0  0  0  0
    7.0119  -13.6342   21.1375 C   0  0  0  0  0  0  0  0  0  0  0  0
    8.3158  -14.2374   21.5418 C   0  0  1  0  0  0  0  0  0  0  0  0
    8.4517  -14.7403   22.8856 C   0  0  0  0  0  0  0  0  0  0  0  0
    7.6636  -14.3781   23.8040 O   0  0  0  0  0  0  0  0  0  0  0  0
    9.4491  -15.6588   23.3141 N   0  0  0  0  0  0  0  0  0  0  0  0
    9.9802  -15.7317   24.6590 C   0  0  1  0  0  0  0  0  0  0  0  0
    9.0206  -16.1931   25.6556 C   0  0  0  0  0  0  0  0  0  0  0  0
    7.7833  -15.4134   25.6754 C   0  0  0  0  0  0  0  0  0  0  0  0
    6.5378  -15.9106   25.2586 C   0  0  0  0  0  0  0  0  0  0  0  0
    5.6052  -14.9541   25.3506 N   0  0  0  0  0  0  0  0  0  0  0  0
    6.1901  -13.8366   25.8165 C   0  0  0  0  0  0  0  0  0  0  0  0
    5.6902  -12.6009   26.1101 C   0  0  0  0  0  0  0  0  0  0  0  0
    6.4886  -11.6033   26.6102 C   0  0  0  0  0  0  0  0  0  0  0  0
    7.8242  -11.8910   26.8092 C   0  0  0  0  0  0  0  0  0  0  0  0
    8.3481  -13.1391   26.5162 C   0  0  0  0  0  0  0  0  0  0  0  0
    7.5279  -14.1038   26.0206 C   0  0  0  0  0  0  0  0  0  0  0  0
   11.2385  -16.4672   24.6463 C   0  0  0  0  0  0  0  0  0  0  0  0
   11.6550  -17.1156   23.4638 O   0  0  0  0  0  0  0  0  0  0  0  0
   12.0127  -16.5778   25.6370 O   0  0  0  0  0  0  0  0  0  0  0  0
  2  1  1  0
  3  2  1  0
  4  3  2  0
  5  3  1  0
  6  5  1  0
  7  8  1  0
  7  6  1  0
  8  9  1  0
  9  5  1  0
  9 10  1  1
 10 11  2  0
 12 10  1  0
 12 13  1  0
 13 14  1  1
 15 14  1  0
 15 16  2  0
 17 16  1  0
 18 17  1  0
 19 18  2  0
 20 19  1  0
 21 20  2  0
 21 22  1  0
 22 23  2  0
 23 18  1  0
 23 15  1  0
 24 25  1  0
 24 13  1  0
 26 24  2  0
M  END
$$$$
