GPW.pdb
     RDKit          3D

 26 28  0  0  1  0  0  0  0  0999 V2000
   10.6091  -16.0791   15.9732 N   0  0  0  0  0  0  0  0  0  0  0  0
    9.5093  -15.6494   16.7666 C   0  0  0  0  0  0  0  0  0  0  0  0
    9.8266  -15.2277   18.1397 C   0  0  0  0  0  0  0  0  0  0  0  0
   10.8352  -15.8540   18.6483 O   0  0  0  0  0  0  0  0  0  0  0  0
    9.2108  -14.2780   18.9409 N   0  0  0  0  0  0  0  0  0  0  0  0
    8.9025  -12.8990   18.6297 C   0  0  0  0  0  0  0  0  0  0  0  0
    7.4351  -12.8087   19.1230 C   0  0  0  0  0  0  0  0  0  0  0  0
    7.2481  -14.0517   20.0237 C   0  0  0  0  0  0  0  0  0  0  0  0
    8.6772  -14.3724   20.3104 C   0  0  1  0  0  0  0  0  0  0  0  0
    8.9771  -15.5843   21.0305 C   0  0  0  0  0  0  0  0  0  0  0  0
    8.5625  -16.7070   20.6261 O   0  0  0  0  0  0  0  0  0  0  0  0
    9.7374  -15.6515   22.2303 N   0  0  0  0  0  0  0  0  0  0  0  0
    9.1938  -15.4854   23.5618 C   0  0  1  0  0  0  0  0  0  0  0  0
    8.4876  -14.2258   23.7656 C   0  0  0  0  0  0  0  0  0  0  0  0
    7.7102  -14.1894   25.0040 C   0  0  0  0  0  0  0  0  0  0  0  0
    7.1244  -15.3209   25.5944 C   0  0  0  0  0  0  0  0  0  0  0  0
    6.4419  -14.9678   26.6910 N   0  0  0  0  0  0  0  0  0  0  0  0
    6.5558  -13.6375   26.8498 C   0  0  0  0  0  0  0  0  0  0  0  0
    6.0773  -12.7898   27.8066 C   0  0  0  0  0  0  0  0  0  0  0  0
    6.3499  -11.4453   27.7765 C   0  0  0  0  0  0  0  0  0  0  0  0
    7.1301  -10.9731   26.7398 C   0  0  0  0  0  0  0  0  0  0  0  0
    7.6233  -11.8190   25.7605 C   0  0  0  0  0  0  0  0  0  0  0  0
    7.3321  -13.1459   25.8211 C   0  0  0  0  0  0  0  0  0  0  0  0
    8.4300  -16.6719   23.9272 C   0  0  0  0  0  0  0  0  0  0  0  0
    7.7213  -17.3785   22.9319 O   0  0  0  0  0  0  0  0  0  0  0  0
    8.3453  -17.1358   25.0980 O   0  0  0  0  0  0  0  0  0  0  0  0
  2  1  1  0
  3  2  1  0
  4  3  2  0
  5  3  1  0
  6  5  1  0
  7  8  1  0
  7  6  1  0
  8  9  1  0
  9  5  1  0
  9 10  1  6
 10 11  2  0
 12 10  1  0
 12 13  1  0
 13 14  1  6
 15 14  1  0
 15 16  2  0
 17 16  1  0
 18 17  1  0
 19 18  2  0
 20 19  1  0
 21 20  2  0
 21 22  1  0
 22 23  2  0
 23 18  1  0
 23 15  1  0
 24 25  1  0
 24 13  1  0
 26 24  2  0
M  END
$$$$
