GPW.pdb
     RDKit          3D

 26 28  0  0  1  0  0  0  0  0999 V2000
   11.3897  -17.6908   18.1058 N   0  0  0  0  0  0  0  0  0  0  0  0
   10.1178  -17.6980   18.7430 C   0  0  0  0  0  0  0  0  0  0  0  0
    9.9317  -16.7234   19.8291 C   0  0  0  0  0  0  0  0  0  0  0  0
   10.9931  -16.5418   20.5424 O   0  0  0  0  0  0  0  0  0  0  0  0
    8.8072  -15.9934   20.1832 N   0  0  0  0  0  0  0  0  0  0  0  0
    7.9063  -15.2531   19.3264 C   0  0  0  0  0  0  0  0  0  0  0  0
    6.5324  -15.7328   19.8623 C   0  0  0  0  0  0  0  0  0  0  0  0
    6.8502  -16.3781   21.2312 C   0  0  0  0  0  0  0  0  0  0  0  0
    8.1832  -15.7616   21.4970 C   0  0  1  0  0  0  0  0  0  0  0  0
    8.9291  -16.2092   22.6461 C   0  0  0  0  0  0  0  0  0  0  0  0
    9.5349  -17.3178   22.6434 O   0  0  0  0  0  0  0  0  0  0  0  0
    9.0586  -15.4873   23.8643 N   0  0  0  0  0  0  0  0  0  0  0  0
    9.7711  -15.9611   25.0322 C   0  0  1  0  0  0  0  0  0  0  0  0
    9.6343  -15.1034   26.2037 C   0  0  0  0  0  0  0  0  0  0  0  0
    8.2844  -14.5674   26.3770 C   0  0  0  0  0  0  0  0  0  0  0  0
    7.1261  -15.3605   26.4151 C   0  0  0  0  0  0  0  0  0  0  0  0
    6.0408  -14.5860   26.5392 N   0  0  0  0  0  0  0  0  0  0  0  0
    6.4402  -13.3029   26.5860 C   0  0  0  0  0  0  0  0  0  0  0  0
    5.7450  -12.1368   26.7274 C   0  0  0  0  0  0  0  0  0  0  0  0
    6.3818  -10.9223   26.7767 C   0  0  0  0  0  0  0  0  0  0  0  0
    7.7590  -10.9168   26.6784 C   0  0  0  0  0  0  0  0  0  0  0  0
    8.4798  -12.0904   26.5339 C   0  0  0  0  0  0  0  0  0  0  0  0
    7.8158  -13.2761   26.4876 C   0  0  0  0  0  0  0  0  0  0  0  0
    9.4433  -17.3616   25.2676 C   0  0  0  0  0  0  0  0  0  0  0  0
   10.3315  -18.1704   26.0088 O   0  0  0  0  0  0  0  0  0  0  0  0
    8.3976  -17.9317   24.8499 O   0  0  0  0  0  0  0  0  0  0  0  0
  2  1  1  0
  3  2  1  0
  4  3  2  0
  5  3  1  0
  6  5  1  0
  7  8  1  0
  7  6  1  0
  8  9  1  0
  9  5  1  0
  9 10  1  1
 10 11  2  0
 12 10  1  0
 12 13  1  0
 13 14  1  1
 15 14  1  0
 15 16  2  0
 17 16  1  0
 18 17  1  0
 19 18  2  0
 20 19  1  0
 21 20  2  0
 21 22  1  0
 22 23  2  0
 23 18  1  0
 23 15  1  0
 24 25  1  0
 24 13  1  0
 26 24  2  0
M  END
$$$$
