GPW.pdb
     RDKit          3D

 26 28  0  0  1  0  0  0  0  0999 V2000
    9.5189  -17.2910   17.5625 N   0  0  0  0  0  0  0  0  0  0  0  0
    8.4971  -17.0966   18.5331 C   0  0  0  0  0  0  0  0  0  0  0  0
    8.8829  -16.3473   19.7388 C   0  0  0  0  0  0  0  0  0  0  0  0
    9.6575  -17.0124   20.5298 O   0  0  0  0  0  0  0  0  0  0  0  0
    8.5403  -15.0626   20.1326 N   0  0  0  0  0  0  0  0  0  0  0  0
    8.2176  -13.9214   19.3035 C   0  0  0  0  0  0  0  0  0  0  0  0
    6.9377  -13.4009   20.0075 C   0  0  0  0  0  0  0  0  0  0  0  0
    6.9444  -14.0908   21.3914 C   0  0  0  0  0  0  0  0  0  0  0  0
    8.3840  -14.4755   21.4742 C   0  0  1  0  0  0  0  0  0  0  0  0
    8.8135  -15.2911   22.5822 C   0  0  0  0  0  0  0  0  0  0  0  0
    8.4481  -16.4955   22.6900 O   0  0  0  0  0  0  0  0  0  0  0  0
    9.6575  -14.8505   23.6383 N   0  0  0  0  0  0  0  0  0  0  0  0
    9.8756  -15.5708   24.8752 C   0  0  1  0  0  0  0  0  0  0  0  0
    8.6895  -16.2449   25.3906 C   0  0  0  0  0  0  0  0  0  0  0  0
    7.5790  -15.3347   25.6693 C   0  0  0  0  0  0  0  0  0  0  0  0
    6.2364  -15.6250   25.3770 C   0  0  0  0  0  0  0  0  0  0  0  0
    5.4581  -14.5857   25.7041 N   0  0  0  0  0  0  0  0  0  0  0  0
    6.2398  -13.6135   26.2060 C   0  0  0  0  0  0  0  0  0  0  0  0
    5.9490  -12.3757   26.7024 C   0  0  0  0  0  0  0  0  0  0  0  0
    6.9289  -11.5509   27.1949 C   0  0  0  0  0  0  0  0  0  0  0  0
    8.2286  -12.0163   27.1726 C   0  0  0  0  0  0  0  0  0  0  0  0
    8.5413  -13.2690   26.6720 C   0  0  0  0  0  0  0  0  0  0  0  0
    7.5450  -14.0595   26.1908 C   0  0  0  0  0  0  0  0  0  0  0  0
   11.0464  -16.4283   24.7392 C   0  0  0  0  0  0  0  0  0  0  0  0
   11.8409  -16.3439   23.5757 O   0  0  0  0  0  0  0  0  0  0  0  0
   11.4218  -17.2689   25.6027 O   0  0  0  0  0  0  0  0  0  0  0  0
  2  1  1  0
  3  2  1  0
  4  3  2  0
  5  3  1  0
  6  5  1  0
  7  8  1  0
  7  6  1  0
  8  9  1  0
  9  5  1  0
  9 10  1  1
 10 11  2  0
 12 10  1  0
 12 13  1  0
 13 14  1  6
 15 14  1  0
 15 16  2  0
 17 16  1  0
 18 17  1  0
 19 18  2  0
 20 19  1  0
 21 20  2  0
 21 22  1  0
 22 23  2  0
 23 18  1  0
 23 15  1  0
 24 25  1  0
 24 13  1  0
 26 24  2  0
M  END
$$$$
