GPW.pdb
     RDKit          3D

 26 28  0  0  1  0  0  0  0  0999 V2000
    8.0953  -12.2464   18.5856 N   0  0  0  0  0  0  0  0  0  0  0  0
    8.6806  -13.5360   18.7201 C   0  0  0  0  0  0  0  0  0  0  0  0
    8.5210  -14.1866   20.0298 C   0  0  0  0  0  0  0  0  0  0  0  0
    9.2676  -13.6745   20.9510 O   0  0  0  0  0  0  0  0  0  0  0  0
    7.7034  -15.2429   20.4020 N   0  0  0  0  0  0  0  0  0  0  0  0
    6.4306  -15.6395   19.8396 C   0  0  0  0  0  0  0  0  0  0  0  0
    6.6421  -17.1680   19.6858 C   0  0  0  0  0  0  0  0  0  0  0  0
    7.8719  -17.4834   20.5685 C   0  0  0  0  0  0  0  0  0  0  0  0
    7.8729  -16.2728   21.4412 C   0  0  1  0  0  0  0  0  0  0  0  0
    8.9734  -16.0851   22.3528 C   0  0  0  0  0  0  0  0  0  0  0  0
   10.1594  -15.9687   21.9336 O   0  0  0  0  0  0  0  0  0  0  0  0
    8.8557  -16.0176   23.7682 N   0  0  0  0  0  0  0  0  0  0  0  0
    9.9701  -15.8896   24.6835 C   0  0  1  0  0  0  0  0  0  0  0  0
    9.6840  -15.0816   25.8633 C   0  0  0  0  0  0  0  0  0  0  0  0
    8.2854  -14.6635   25.9560 C   0  0  0  0  0  0  0  0  0  0  0  0
    7.1991  -15.5531   25.9329 C   0  0  0  0  0  0  0  0  0  0  0  0
    6.0461  -14.8746   25.9900 N   0  0  0  0  0  0  0  0  0  0  0  0
    6.3306  -13.5619   26.0516 C   0  0  0  0  0  0  0  0  0  0  0  0
    5.5310  -12.4597   26.1459 C   0  0  0  0  0  0  0  0  0  0  0  0
    6.0574  -11.1949   26.2238 C   0  0  0  0  0  0  0  0  0  0  0  0
    7.4324  -11.0711   26.2041 C   0  0  0  0  0  0  0  0  0  0  0  0
    8.2583  -12.1786   26.1083 C   0  0  0  0  0  0  0  0  0  0  0  0
    7.7022  -13.4171   26.0316 C   0  0  0  0  0  0  0  0  0  0  0  0
   10.5160  -17.2097   24.9736 C   0  0  0  0  0  0  0  0  0  0  0  0
    9.7649  -18.3606   24.6517 O   0  0  0  0  0  0  0  0  0  0  0  0
   11.6408  -17.4175   25.5070 O   0  0  0  0  0  0  0  0  0  0  0  0
  2  1  1  0
  3  2  1  0
  4  3  2  0
  5  3  1  0
  6  5  1  0
  7  8  1  0
  7  6  1  0
  8  9  1  0
  9  5  1  0
  9 10  1  6
 10 11  2  0
 12 10  1  0
 12 13  1  0
 13 14  1  1
 15 14  1  0
 15 16  2  0
 17 16  1  0
 18 17  1  0
 19 18  2  0
 20 19  1  0
 21 20  2  0
 21 22  1  0
 22 23  2  0
 23 18  1  0
 23 15  1  0
 24 25  1  0
 24 13  1  0
 26 24  2  0
M  END
$$$$
