GPW.pdb
     RDKit          3D

 26 28  0  0  1  0  0  0  0  0999 V2000
   12.5550  -14.3045   17.7495 N   0  0  0  0  0  0  0  0  0  0  0  0
   11.2308  -14.7667   17.9877 C   0  0  0  0  0  0  0  0  0  0  0  0
   10.6961  -14.5332   19.3381 C   0  0  0  0  0  0  0  0  0  0  0  0
   11.4046  -15.0771   20.2712 O   0  0  0  0  0  0  0  0  0  0  0  0
    9.5694  -13.8302   19.7370 N   0  0  0  0  0  0  0  0  0  0  0  0
    8.9676  -12.6672   19.1213 C   0  0  0  0  0  0  0  0  0  0  0  0
    7.4739  -13.0837   19.1070 C   0  0  0  0  0  0  0  0  0  0  0  0
    7.3890  -14.2695   20.0959 C   0  0  0  0  0  0  0  0  0  0  0  0
    8.6481  -14.0464   20.8655 C   0  0  1  0  0  0  0  0  0  0  0  0
    9.0454  -15.0378   21.8333 C   0  0  0  0  0  0  0  0  0  0  0  0
    9.4684  -16.1726   21.4736 O   0  0  0  0  0  0  0  0  0  0  0  0
    9.0036  -14.8614   23.2436 N   0  0  0  0  0  0  0  0  0  0  0  0
    9.4069  -15.8592   24.2121 C   0  0  1  0  0  0  0  0  0  0  0  0
    9.3261  -15.4129   25.5981 C   0  0  0  0  0  0  0  0  0  0  0  0
    8.0115  -14.8856   25.9630 C   0  0  0  0  0  0  0  0  0  0  0  0
    6.8436  -15.6635   26.0179 C   0  0  0  0  0  0  0  0  0  0  0  0
    5.7933  -14.8966   26.3371 N   0  0  0  0  0  0  0  0  0  0  0  0
    6.2254  -13.6334   26.4976 C   0  0  0  0  0  0  0  0  0  0  0  0
    5.5741  -12.4847   26.8429 C   0  0  0  0  0  0  0  0  0  0  0  0
    6.2411  -11.2927   26.9748 C   0  0  0  0  0  0  0  0  0  0  0  0
    7.6027  -11.2920   26.7457 C   0  0  0  0  0  0  0  0  0  0  0  0
    8.2789  -12.4481   26.3939 C   0  0  0  0  0  0  0  0  0  0  0  0
    7.5858  -13.6115   26.2710 C   0  0  0  0  0  0  0  0  0  0  0  0
    8.7121  -17.1112   23.9393 C   0  0  0  0  0  0  0  0  0  0  0  0
    9.2639  -18.3280   24.3944 O   0  0  0  0  0  0  0  0  0  0  0  0
    7.6226  -17.2022   23.3087 O   0  0  0  0  0  0  0  0  0  0  0  0
  2  1  1  0
  3  2  1  0
  4  3  2  0
  5  3  1  0
  6  5  1  0
  7  8  1  0
  7  6  1  0
  8  9  1  0
  9  5  1  0
  9 10  1  6
 10 11  2  0
 12 10  1  0
 12 13  1  0
 13 14  1  1
 15 14  1  0
 15 16  2  0
 17 16  1  0
 18 17  1  0
 19 18  2  0
 20 19  1  0
 21 20  2  0
 21 22  1  0
 22 23  2  0
 23 18  1  0
 23 15  1  0
 24 25  1  0
 24 13  1  0
 26 24  2  0
M  END
$$$$
