GPW.pdb
     RDKit          3D

 26 28  0  0  1  0  0  0  0  0999 V2000
   13.1618  -13.6687   18.5807 N   0  0  0  0  0  0  0  0  0  0  0  0
   11.8501  -14.2062   18.4612 C   0  0  0  0  0  0  0  0  0  0  0  0
   11.0329  -14.1987   19.6843 C   0  0  0  0  0  0  0  0  0  0  0  0
   11.6715  -14.6074   20.7301 O   0  0  0  0  0  0  0  0  0  0  0  0
    9.7100  -13.8245   19.8654 N   0  0  0  0  0  0  0  0  0  0  0  0
    8.9503  -12.8230   19.1487 C   0  0  0  0  0  0  0  0  0  0  0  0
    7.6427  -13.6029   18.8541 C   0  0  0  0  0  0  0  0  0  0  0  0
    7.6891  -14.8187   19.8085 C   0  0  0  0  0  0  0  0  0  0  0  0
    8.6872  -14.3222   20.8009 C   0  0  1  0  0  0  0  0  0  0  0  0
    9.1448  -15.2271   21.8251 C   0  0  0  0  0  0  0  0  0  0  0  0
    9.9791  -16.1402   21.5683 O   0  0  0  0  0  0  0  0  0  0  0  0
    8.7235  -15.1999   23.1830 N   0  0  0  0  0  0  0  0  0  0  0  0
    9.3640  -15.9248   24.2601 C   0  0  1  0  0  0  0  0  0  0  0  0
    9.2971  -15.2545   25.5535 C   0  0  0  0  0  0  0  0  0  0  0  0
    7.9714  -14.7197   25.8628 C   0  0  0  0  0  0  0  0  0  0  0  0
    6.7912  -15.4796   25.8210 C   0  0  0  0  0  0  0  0  0  0  0  0
    5.7354  -14.7080   26.1090 N   0  0  0  0  0  0  0  0  0  0  0  0
    6.1755  -13.4591   26.3423 C   0  0  0  0  0  0  0  0  0  0  0  0
    5.5220  -12.3135   26.6939 C   0  0  0  0  0  0  0  0  0  0  0  0
    6.1973  -11.1385   26.9094 C   0  0  0  0  0  0  0  0  0  0  0  0
    7.5696  -11.1516   26.7585 C   0  0  0  0  0  0  0  0  0  0  0  0
    8.2484  -12.3048   26.4017 C   0  0  0  0  0  0  0  0  0  0  0  0
    7.5469  -13.4512   26.1948 C   0  0  0  0  0  0  0  0  0  0  0  0
    8.8897  -17.3030   24.2689 C   0  0  0  0  0  0  0  0  0  0  0  0
    7.7912  -17.6673   23.4609 O   0  0  0  0  0  0  0  0  0  0  0  0
    9.3946  -18.2291   24.9621 O   0  0  0  0  0  0  0  0  0  0  0  0
  2  1  1  0
  3  2  1  0
  4  3  2  0
  5  3  1  0
  6  5  1  0
  7  8  1  0
  7  6  1  0
  8  9  1  0
  9  5  1  0
  9 10  1  1
 10 11  2  0
 12 10  1  0
 12 13  1  0
 13 14  1  1
 15 14  1  0
 15 16  2  0
 17 16  1  0
 18 17  1  0
 19 18  2  0
 20 19  1  0
 21 20  2  0
 21 22  1  0
 22 23  2  0
 23 18  1  0
 23 15  1  0
 24 25  1  0
 24 13  1  0
 26 24  2  0
M  END
$$$$
