GPW.pdb
     RDKit          3D

 26 28  0  0  1  0  0  0  0  0999 V2000
   10.1940  -17.9812   18.0056 N   0  0  0  0  0  0  0  0  0  0  0  0
    9.0729  -17.6172   18.8021 C   0  0  0  0  0  0  0  0  0  0  0  0
    9.3286  -16.6422   19.8736 C   0  0  0  0  0  0  0  0  0  0  0  0
   10.3674  -16.9252   20.5871 O   0  0  0  0  0  0  0  0  0  0  0  0
    8.6293  -15.4942   20.2140 N   0  0  0  0  0  0  0  0  0  0  0  0
    7.8042  -14.6575   19.3697 C   0  0  0  0  0  0  0  0  0  0  0  0
    6.5521  -14.4804   20.2673 C   0  0  0  0  0  0  0  0  0  0  0  0
    7.0167  -14.9147   21.6768 C   0  0  0  0  0  0  0  0  0  0  0  0
    8.4942  -14.7949   21.5032 C   0  0  1  0  0  0  0  0  0  0  0  0
    9.3495  -15.2510   22.5698 C   0  0  0  0  0  0  0  0  0  0  0  0
   10.5275  -14.8133   22.6982 O   0  0  0  0  0  0  0  0  0  0  0  0
    8.9825  -16.2088   23.5546 N   0  0  0  0  0  0  0  0  0  0  0  0
    9.7328  -16.4783   24.7631 C   0  0  1  0  0  0  0  0  0  0  0  0
    9.6167  -15.4412   25.7818 C   0  0  0  0  0  0  0  0  0  0  0  0
    8.2486  -14.9571   25.9647 C   0  0  0  0  0  0  0  0  0  0  0  0
    7.1072  -15.7622   25.8198 C   0  0  0  0  0  0  0  0  0  0  0  0
    6.0006  -15.0312   26.0048 N   0  0  0  0  0  0  0  0  0  0  0  0
    6.3694  -13.7655   26.2694 C   0  0  0  0  0  0  0  0  0  0  0  0
    5.6430  -12.6450   26.5521 C   0  0  0  0  0  0  0  0  0  0  0  0
    6.2502  -11.4441   26.8209 C   0  0  0  0  0  0  0  0  0  0  0  0
    7.6302  -11.4046   26.7966 C   0  0  0  0  0  0  0  0  0  0  0  0
    8.3825  -12.5317   26.5110 C   0  0  0  0  0  0  0  0  0  0  0  0
    7.7473  -13.7050   26.2481 C   0  0  0  0  0  0  0  0  0  0  0  0
    9.4300  -17.8240   25.2343 C   0  0  0  0  0  0  0  0  0  0  0  0
    8.3500  -18.5344   24.6675 O   0  0  0  0  0  0  0  0  0  0  0  0
   10.0729  -18.4277   26.1372 O   0  0  0  0  0  0  0  0  0  0  0  0
  2  1  1  0
  3  2  1  0
  4  3  2  0
  5  3  1  0
  6  5  1  0
  7  8  1  0
  7  6  1  0
  8  9  1  0
  9  5  1  0
  9 10  1  1
 10 11  2  0
 12 10  1  0
 12 13  1  0
 13 14  1  1
 15 14  1  0
 15 16  2  0
 17 16  1  0
 18 17  1  0
 19 18  2  0
 20 19  1  0
 21 20  2  0
 21 22  1  0
 22 23  2  0
 23 18  1  0
 23 15  1  0
 24 25  1  0
 24 13  1  0
 26 24  2  0
M  END
$$$$
