GPW.pdb
     RDKit          3D

 26 28  0  0  1  0  0  0  0  0999 V2000
   10.7758  -17.6872   18.3097 N   0  0  0  0  0  0  0  0  0  0  0  0
    9.6140  -17.6343   19.1290 C   0  0  0  0  0  0  0  0  0  0  0  0
    9.6110  -16.6088   20.1836 C   0  0  0  0  0  0  0  0  0  0  0  0
   10.6913  -16.5982   20.8915 O   0  0  0  0  0  0  0  0  0  0  0  0
    8.6372  -15.6783   20.5137 N   0  0  0  0  0  0  0  0  0  0  0  0
    7.6600  -15.0512   19.6503 C   0  0  0  0  0  0  0  0  0  0  0  0
    6.3728  -15.2117   20.5001 C   0  0  0  0  0  0  0  0  0  0  0  0
    6.8817  -15.5523   21.9201 C   0  0  0  0  0  0  0  0  0  0  0  0
    8.2883  -15.0664   21.8071 C   0  0  1  0  0  0  0  0  0  0  0  0
    9.1925  -15.3229   22.8997 C   0  0  0  0  0  0  0  0  0  0  0  0
   10.3889  -14.9181   22.8694 O   0  0  0  0  0  0  0  0  0  0  0  0
    8.8573  -16.0349   24.0839 N   0  0  0  0  0  0  0  0  0  0  0  0
    9.7365  -16.2039   25.2217 C   0  0  1  0  0  0  0  0  0  0  0  0
    9.0660  -16.1108   26.5134 C   0  0  0  0  0  0  0  0  0  0  0  0
    7.8924  -15.2379   26.4972 C   0  0  0  0  0  0  0  0  0  0  0  0
    6.5750  -15.6999   26.3452 C   0  0  0  0  0  0  0  0  0  0  0  0
    5.7234  -14.6668   26.3251 N   0  0  0  0  0  0  0  0  0  0  0  0
    6.4320  -13.5320   26.4599 C   0  0  0  0  0  0  0  0  0  0  0  0
    6.0520  -12.2226   26.5236 C   0  0  0  0  0  0  0  0  0  0  0  0
    6.9689  -11.2161   26.6945 C   0  0  0  0  0  0  0  0  0  0  0  0
    8.2986  -11.5723   26.8012 C   0  0  0  0  0  0  0  0  0  0  0  0
    8.7015  -12.8957   26.7381 C   0  0  0  0  0  0  0  0  0  0  0  0
    7.7657  -13.8673   26.5668 C   0  0  0  0  0  0  0  0  0  0  0  0
   10.5381  -17.4081   25.0429 C   0  0  0  0  0  0  0  0  0  0  0  0
   10.1634  -18.3563   24.0669 O   0  0  0  0  0  0  0  0  0  0  0  0
   11.5733  -17.6842   25.7101 O   0  0  0  0  0  0  0  0  0  0  0  0
  2  1  1  0
  3  2  1  0
  4  3  2  0
  5  3  1  0
  6  5  1  0
  7  8  1  0
  7  6  1  0
  8  9  1  0
  9  5  1  0
  9 10  1  1
 10 11  2  0
 12 10  1  0
 12 13  1  0
 13 14  1  1
 15 14  1  0
 15 16  2  0
 17 16  1  0
 18 17  1  0
 19 18  2  0
 20 19  1  0
 21 20  2  0
 21 22  1  0
 22 23  2  0
 23 18  1  0
 23 15  1  0
 24 25  1  0
 24 13  1  0
 26 24  2  0
M  END
$$$$
