GPW.pdb
     RDKit          3D

 26 28  0  0  1  0  0  0  0  0999 V2000
   11.2664  -17.1891   17.6801 N   0  0  0  0  0  0  0  0  0  0  0  0
   10.1154  -17.5041   18.4547 C   0  0  0  0  0  0  0  0  0  0  0  0
    9.8473  -16.6254   19.6036 C   0  0  0  0  0  0  0  0  0  0  0  0
   10.8844  -16.4214   20.3460 O   0  0  0  0  0  0  0  0  0  0  0  0
    8.6695  -16.0033   19.9890 N   0  0  0  0  0  0  0  0  0  0  0  0
    7.6947  -15.3263   19.1612 C   0  0  0  0  0  0  0  0  0  0  0  0
    6.3760  -15.9346   19.7050 C   0  0  0  0  0  0  0  0  0  0  0  0
    6.7696  -16.5782   21.0549 C   0  0  0  0  0  0  0  0  0  0  0  0
    8.0482  -15.8541   21.3160 C   0  0  1  0  0  0  0  0  0  0  0  0
    8.8477  -16.2591   22.4447 C   0  0  0  0  0  0  0  0  0  0  0  0
    9.5888  -17.2807   22.3904 O   0  0  0  0  0  0  0  0  0  0  0  0
    8.8883  -15.5865   23.6969 N   0  0  0  0  0  0  0  0  0  0  0  0
    9.6401  -16.0349   24.8501 C   0  0  1  0  0  0  0  0  0  0  0  0
    9.5299  -15.1600   26.0117 C   0  0  0  0  0  0  0  0  0  0  0  0
    8.1940  -14.5901   26.1852 C   0  0  0  0  0  0  0  0  0  0  0  0
    7.0084  -15.3400   26.1202 C   0  0  0  0  0  0  0  0  0  0  0  0
    5.9468  -14.5384   26.2730 N   0  0  0  0  0  0  0  0  0  0  0  0
    6.3882  -13.2792   26.4388 C   0  0  0  0  0  0  0  0  0  0  0  0
    5.7290  -12.1034   26.6539 C   0  0  0  0  0  0  0  0  0  0  0  0
    6.4050  -10.9216   26.8240 C   0  0  0  0  0  0  0  0  0  0  0  0
    7.7842  -10.9593   26.7708 C   0  0  0  0  0  0  0  0  0  0  0  0
    8.4689  -12.1431   26.5529 C   0  0  0  0  0  0  0  0  0  0  0  0
    7.7665  -13.2956   26.3872 C   0  0  0  0  0  0  0  0  0  0  0  0
    9.3335  -17.4346   25.1171 C   0  0  0  0  0  0  0  0  0  0  0  0
   10.2457  -18.2196   25.8545 O   0  0  0  0  0  0  0  0  0  0  0  0
    8.2864  -18.0240   24.7309 O   0  0  0  0  0  0  0  0  0  0  0  0
  2  1  1  0
  3  2  1  0
  4  3  2  0
  5  3  1  0
  6  5  1  0
  7  8  1  0
  7  6  1  0
  8  9  1  0
  9  5  1  0
  9 10  1  1
 10 11  2  0
 12 10  1  0
 12 13  1  0
 13 14  1  1
 15 14  1  0
 15 16  2  0
 17 16  1  0
 18 17  1  0
 19 18  2  0
 20 19  1  0
 21 20  2  0
 21 22  1  0
 22 23  2  0
 23 18  1  0
 23 15  1  0
 24 25  1  0
 24 13  1  0
 26 24  2  0
M  END
$$$$
