GPW.pdb
     RDKit          3D

 26 28  0  0  1  0  0  0  0  0999 V2000
   11.8995  -15.3729   17.4118 N   0  0  0  0  0  0  0  0  0  0  0  0
   10.5662  -15.6074   17.8490 C   0  0  0  0  0  0  0  0  0  0  0  0
   10.2181  -15.0812   19.1779 C   0  0  0  0  0  0  0  0  0  0  0  0
   11.1664  -15.2110   20.0452 O   0  0  0  0  0  0  0  0  0  0  0  0
    9.0468  -14.4823   19.6162 N   0  0  0  0  0  0  0  0  0  0  0  0
    8.2006  -13.5390   18.9178 C   0  0  0  0  0  0  0  0  0  0  0  0
    6.8008  -14.1542   19.1765 C   0  0  0  0  0  0  0  0  0  0  0  0
    7.0201  -15.1500   20.3391 C   0  0  0  0  0  0  0  0  0  0  0  0
    8.3071  -14.6243   20.8819 C   0  0  1  0  0  0  0  0  0  0  0  0
    8.9656  -15.3675   21.9265 C   0  0  0  0  0  0  0  0  0  0  0  0
    9.6353  -16.4073   21.6691 O   0  0  0  0  0  0  0  0  0  0  0  0
    8.9340  -15.0324   23.3080 N   0  0  0  0  0  0  0  0  0  0  0  0
    9.6187  -15.7670   24.3509 C   0  0  1  0  0  0  0  0  0  0  0  0
    9.5210  -15.1584   25.6726 C   0  0  0  0  0  0  0  0  0  0  0  0
    8.1793  -14.6698   25.9896 C   0  0  0  0  0  0  0  0  0  0  0  0
    7.0227  -15.4643   25.9317 C   0  0  0  0  0  0  0  0  0  0  0  0
    5.9437  -14.7305   26.2322 N   0  0  0  0  0  0  0  0  0  0  0  0
    6.3455  -13.4734   26.4894 C   0  0  0  0  0  0  0  0  0  0  0  0
    5.6571  -12.3548   26.8610 C   0  0  0  0  0  0  0  0  0  0  0  0
    6.2962  -11.1642   27.0993 C   0  0  0  0  0  0  0  0  0  0  0  0
    7.6685  -11.1329   26.9505 C   0  0  0  0  0  0  0  0  0  0  0  0
    8.3824  -12.2581   26.5735 C   0  0  0  0  0  0  0  0  0  0  0  0
    7.7162  -13.4212   26.3443 C   0  0  0  0  0  0  0  0  0  0  0  0
    9.2212  -17.1684   24.3006 C   0  0  0  0  0  0  0  0  0  0  0  0
    8.0777  -17.5425   23.5625 O   0  0  0  0  0  0  0  0  0  0  0  0
    9.8330  -18.1071   24.8815 O   0  0  0  0  0  0  0  0  0  0  0  0
  2  1  1  0
  3  2  1  0
  4  3  2  0
  5  3  1  0
  6  5  1  0
  7  8  1  0
  7  6  1  0
  8  9  1  0
  9  5  1  0
  9 10  1  1
 10 11  2  0
 12 10  1  0
 12 13  1  0
 13 14  1  1
 15 14  1  0
 15 16  2  0
 17 16  1  0
 18 17  1  0
 19 18  2  0
 20 19  1  0
 21 20  2  0
 21 22  1  0
 22 23  2  0
 23 18  1  0
 23 15  1  0
 24 25  1  0
 24 13  1  0
 26 24  2  0
M  END
$$$$
