CVW.pdb
     RDKit          3D

 28 29  0  0  1  0  0  0  0  0999 V2000
   25.0410  -25.4130  -16.3653 N   0  0  0  0  0  0  0  0  0  0  0  0
   24.6770  -24.0685  -16.0383 C   0  0  1  0  0  0  0  0  0  0  0  0
   23.2900  -24.0783  -15.4310 C   0  0  0  0  0  0  0  0  0  0  0  0
   22.0450  -24.4301  -16.6845 S   0  0  0  0  0  0  0  0  0  0  0  0
   25.6328  -23.4853  -15.0554 C   0  0  0  0  0  0  0  0  0  0  0  0
   26.1362  -24.1863  -14.1497 O   0  0  0  0  0  0  0  0  0  0  0  0
   28.2795  -20.5932  -16.0572 C   0  0  0  0  0  0  0  0  0  0  0  0
   27.4571  -20.2262  -14.8601 C   0  0  2  0  0  0  0  0  0  0  0  0
   28.3582  -19.5100  -13.8706 C   0  0  0  0  0  0  0  0  0  0  0  0
   26.9312  -21.5191  -14.2334 C   0  0  2  0  0  0  0  0  0  0  0  0
   25.9783  -22.1107  -15.1478 N   0  0  0  0  0  0  0  0  0  0  0  0
   26.2416  -21.1769  -12.9804 C   0  0  0  0  0  0  0  0  0  0  0  0
   25.1309  -20.5618  -13.0535 O   0  0  0  0  0  0  0  0  0  0  0  0
   26.7149  -21.4772  -11.6993 N   0  0  0  0  0  0  0  0  0  0  0  0
   26.0272  -21.0795  -10.4503 C   0  0  1  0  0  0  0  0  0  0  0  0
   27.0295  -21.3470   -9.3733 C   0  0  0  0  0  0  0  0  0  0  0  0
   26.8103  -20.7419   -8.0678 C   0  0  0  0  0  0  0  0  0  0  0  0
   25.6333  -20.1660   -7.5701 C   0  0  0  0  0  0  0  0  0  0  0  0
   25.8866  -19.7002   -6.3428 N   0  0  0  0  0  0  0  0  0  0  0  0
   27.1467  -19.9250   -5.9872 C   0  0  0  0  0  0  0  0  0  0  0  0
   27.8363  -19.6348   -4.8158 C   0  0  0  0  0  0  0  0  0  0  0  0
   29.1590  -20.0148   -4.7212 C   0  0  0  0  0  0  0  0  0  0  0  0
   29.7690  -20.6662   -5.7717 C   0  0  0  0  0  0  0  0  0  0  0  0
   29.0652  -20.9381   -6.9137 C   0  0  0  0  0  0  0  0  0  0  0  0
   27.7388  -20.5757   -7.0536 C   0  0  0  0  0  0  0  0  0  0  0  0
   25.7243  -19.6561  -10.5795 C   0  0  0  0  0  0  0  0  0  0  0  0
   24.5773  -19.2377  -10.2907 O   0  0  0  0  0  0  0  0  0  0  0  0
   26.6434  -18.6986  -11.0133 O   0  0  0  0  0  0  0  0  0  0  0  0
  2  5  1  0
  2  1  1  1
  3  2  1  0
  4  3  1  0
  5  6  2  0
  8  7  1  6
  8 10  1  0
  8  9  1  0
 10 11  1  6
 11  5  1  0
 12 13  2  0
 12 10  1  0
 14 12  1  0
 15 26  1  0
 15 14  1  0
 15 16  1  1
 17 16  1  0
 18 17  2  0
 19 20  1  0
 19 18  1  0
 20 25  2  0
 21 20  1  0
 21 22  2  0
 22 23  1  0
 23 24  2  0
 25 17  1  0
 25 24  1  0
 26 28  1  0
 27 26  2  0
M  END
$$$$
