CVW.pdb
     RDKit          3D

 28 29  0  0  1  0  0  0  0  0999 V2000
   26.0146  -17.0822  -16.3286 N   0  0  0  0  0  0  0  0  0  0  0  0
   26.7769  -17.8305  -15.3768 C   0  0  1  0  0  0  0  0  0  0  0  0
   27.6343  -16.8684  -14.5819 C   0  0  0  0  0  0  0  0  0  0  0  0
   28.8672  -16.0875  -15.6378 S   0  0  0  0  0  0  0  0  0  0  0  0
   25.8806  -18.5673  -14.4423 C   0  0  0  0  0  0  0  0  0  0  0  0
   24.7897  -18.0785  -14.0732 O   0  0  0  0  0  0  0  0  0  0  0  0
   24.4325  -21.7872  -15.0882 C   0  0  0  0  0  0  0  0  0  0  0  0
   25.1933  -21.9995  -13.8153 C   0  0  2  0  0  0  0  0  0  0  0  0
   24.3676  -22.9030  -12.9176 C   0  0  0  0  0  0  0  0  0  0  0  0
   25.3788  -20.6378  -13.1427 C   0  0  2  0  0  0  0  0  0  0  0  0
   26.2708  -19.8458  -13.9620 N   0  0  0  0  0  0  0  0  0  0  0  0
   26.0027  -20.8538  -11.8287 C   0  0  0  0  0  0  0  0  0  0  0  0
   27.1861  -21.3181  -11.7936 O   0  0  0  0  0  0  0  0  0  0  0  0
   25.3918  -20.5863  -10.5997 N   0  0  0  0  0  0  0  0  0  0  0  0
   25.9517  -20.9961   -9.2922 C   0  0  1  0  0  0  0  0  0  0  0  0
   26.8844  -19.8869   -8.9235 C   0  0  0  0  0  0  0  0  0  0  0  0
   28.0367  -20.2078   -8.0942 C   0  0  0  0  0  0  0  0  0  0  0  0
   29.1632  -20.9673   -8.4387 C   0  0  0  0  0  0  0  0  0  0  0  0
   29.9578  -21.0403   -7.3660 N   0  0  0  0  0  0  0  0  0  0  0  0
   29.4421  -20.3836   -6.3327 C   0  0  0  0  0  0  0  0  0  0  0  0
   29.9190  -20.1802   -5.0431 C   0  0  0  0  0  0  0  0  0  0  0  0
   29.1612  -19.4223   -4.1747 C   0  0  0  0  0  0  0  0  0  0  0  0
   27.9614  -18.8858   -4.5902 C   0  0  0  0  0  0  0  0  0  0  0  0
   27.5163  -19.1035   -5.8661 C   0  0  0  0  0  0  0  0  0  0  0  0
   28.2413  -19.8567   -6.7702 C   0  0  0  0  0  0  0  0  0  0  0  0
   24.8223  -21.0951   -8.3706 C   0  0  0  0  0  0  0  0  0  0  0  0
   23.7458  -20.5118   -8.6446 O   0  0  0  0  0  0  0  0  0  0  0  0
   24.8527  -21.8114   -7.1724 O   0  0  0  0  0  0  0  0  0  0  0  0
  2  5  1  0
  2  1  1  6
  3  2  1  0
  4  3  1  0
  5  6  2  0
  8  7  1  6
  8 10  1  0
  8  9  1  0
 10 11  1  6
 11  5  1  0
 12 13  2  0
 12 10  1  0
 14 12  1  0
 15 26  1  0
 15 14  1  0
 15 16  1  1
 17 16  1  0
 18 17  2  0
 19 20  1  0
 19 18  1  0
 20 25  2  0
 21 20  1  0
 21 22  2  0
 22 23  1  0
 23 24  2  0
 25 17  1  0
 25 24  1  0
 26 28  1  0
 27 26  2  0
M  END
$$$$
