CVW.pdb
     RDKit          3D

 28 29  0  0  1  0  0  0  0  0999 V2000
   18.1229  -15.8151  -17.5948 N   0  0  0  0  0  0  0  0  0  0  0  0
   17.3171  -14.6436  -17.4349 C   0  0  1  0  0  0  0  0  0  0  0  0
   16.4488  -14.8193  -16.2069 C   0  0  0  0  0  0  0  0  0  0  0  0
   14.9752  -15.7790  -16.5969 S   0  0  0  0  0  0  0  0  0  0  0  0
   18.1695  -13.4347  -17.2575 C   0  0  0  0  0  0  0  0  0  0  0  0
   19.2886  -13.5091  -16.7031 O   0  0  0  0  0  0  0  0  0  0  0  0
   18.7714  -10.8856  -20.0833 C   0  0  0  0  0  0  0  0  0  0  0  0
   18.2722  -10.1386  -18.8845 C   0  0  2  0  0  0  0  0  0  0  0  0
   19.0503   -8.8395  -18.7808 C   0  0  0  0  0  0  0  0  0  0  0  0
   18.5397  -10.9978  -17.6471 C   0  0  2  0  0  0  0  0  0  0  0  0
   17.7043  -12.1769  -17.7251 N   0  0  0  0  0  0  0  0  0  0  0  0
   18.1609  -10.2221  -16.4566 C   0  0  0  0  0  0  0  0  0  0  0  0
   16.9296   -9.9600  -16.2759 O   0  0  0  0  0  0  0  0  0  0  0  0
   19.0568   -9.7437  -15.4954 N   0  0  0  0  0  0  0  0  0  0  0  0
   18.6592   -8.9133  -14.3363 C   0  0  1  0  0  0  0  0  0  0  0  0
   19.7959   -9.0500  -13.3743 C   0  0  0  0  0  0  0  0  0  0  0  0
   19.8586   -8.1254  -12.2520 C   0  0  0  0  0  0  0  0  0  0  0  0
   19.3207   -8.2888  -10.9680 C   0  0  0  0  0  0  0  0  0  0  0  0
   19.5804   -7.1811  -10.2657 N   0  0  0  0  0  0  0  0  0  0  0  0
   20.2529   -6.2927  -10.9891 C   0  0  0  0  0  0  0  0  0  0  0  0
   20.7418   -5.0308  -10.6716 C   0  0  0  0  0  0  0  0  0  0  0  0
   21.4351   -4.3329  -11.6386 C   0  0  0  0  0  0  0  0  0  0  0  0
   21.6306   -4.8865  -12.8857 C   0  0  0  0  0  0  0  0  0  0  0  0
   21.1369   -6.1310  -13.1703 C   0  0  0  0  0  0  0  0  0  0  0  0
   20.4357   -6.8664  -12.2334 C   0  0  0  0  0  0  0  0  0  0  0  0
   18.5205   -7.5466  -14.8340 C   0  0  0  0  0  0  0  0  0  0  0  0
   17.6515   -6.7909  -14.3363 O   0  0  0  0  0  0  0  0  0  0  0  0
   19.3061   -7.0032  -15.8525 O   0  0  0  0  0  0  0  0  0  0  0  0
  2  5  1  0
  2  1  1  1
  3  2  1  0
  4  3  1  0
  5  6  2  0
  8  7  1  6
  8 10  1  0
  8  9  1  0
 10 11  1  6
 11  5  1  0
 12 13  2  0
 12 10  1  0
 14 12  1  0
 15 26  1  0
 15 14  1  0
 15 16  1  1
 17 16  1  0
 18 17  2  0
 19 20  1  0
 19 18  1  0
 20 25  2  0
 21 20  1  0
 21 22  2  0
 22 23  1  0
 23 24  2  0
 25 17  1  0
 25 24  1  0
 26 28  1  0
 27 26  2  0
M  END
$$$$
