CVW.pdb
     RDKit          3D

 28 29  0  0  1  0  0  0  0  0999 V2000
   22.8621  -18.5873  -16.5078 N   0  0  0  0  0  0  0  0  0  0  0  0
   23.5499  -19.2944  -17.5442 C   0  0  1  0  0  0  0  0  0  0  0  0
   23.6903  -18.3785  -18.7418 C   0  0  0  0  0  0  0  0  0  0  0  0
   24.4526  -16.8169  -18.2673 S   0  0  0  0  0  0  0  0  0  0  0  0
   24.9063  -19.7114  -17.0907 C   0  0  0  0  0  0  0  0  0  0  0  0
   25.6300  -20.4412  -17.8041 O   0  0  0  0  0  0  0  0  0  0  0  0
   27.2977  -17.2904  -15.5380 C   0  0  0  0  0  0  0  0  0  0  0  0
   27.3085  -18.4682  -14.6124 C   0  0  2  0  0  0  0  0  0  0  0  0
   28.7519  -18.7748  -14.2563 C   0  0  0  0  0  0  0  0  0  0  0  0
   26.6986  -19.6587  -15.3551 C   0  0  2  0  0  0  0  0  0  0  0  0
   25.3861  -19.2736  -15.8276 N   0  0  0  0  0  0  0  0  0  0  0  0
   26.5564  -20.7715  -14.4043 C   0  0  0  0  0  0  0  0  0  0  0  0
   26.6962  -21.9577  -14.8410 O   0  0  0  0  0  0  0  0  0  0  0  0
   26.2764  -20.6284  -13.0418 N   0  0  0  0  0  0  0  0  0  0  0  0
   25.7950  -21.7292  -12.1772 C   0  0  1  0  0  0  0  0  0  0  0  0
   26.7776  -21.7736  -11.0509 C   0  0  0  0  0  0  0  0  0  0  0  0
   26.5048  -20.9657   -9.8714 C   0  0  0  0  0  0  0  0  0  0  0  0
   25.3050  -20.3340   -9.5165 C   0  0  0  0  0  0  0  0  0  0  0  0
   25.5084  -19.6690   -8.3747 N   0  0  0  0  0  0  0  0  0  0  0  0
   26.7567  -19.8130   -7.9434 C   0  0  0  0  0  0  0  0  0  0  0  0
   27.3999  -19.3238   -6.8125 C   0  0  0  0  0  0  0  0  0  0  0  0
   28.7217  -19.6627   -6.6107 C   0  0  0  0  0  0  0  0  0  0  0  0
   29.3762  -20.4683   -7.5177 C   0  0  0  0  0  0  0  0  0  0  0  0
   28.7175  -20.9350   -8.6230 C   0  0  0  0  0  0  0  0  0  0  0  0
   27.3937  -20.6209   -8.8667 C   0  0  0  0  0  0  0  0  0  0  0  0
   24.4583  -21.3480  -11.7270 C   0  0  0  0  0  0  0  0  0  0  0  0
   24.1035  -20.1461  -11.7864 O   0  0  0  0  0  0  0  0  0  0  0  0
   23.5188  -22.2483  -11.2205 O   0  0  0  0  0  0  0  0  0  0  0  0
  2  5  1  0
  2  1  1  1
  3  2  1  0
  4  3  1  0
  5  6  2  0
  8  7  1  6
  8 10  1  0
  8  9  1  0
 10 11  1  1
 11  5  1  0
 12 13  2  0
 12 10  1  0
 14 12  1  0
 15 26  1  0
 15 14  1  0
 15 16  1  1
 17 16  1  0
 18 17  2  0
 19 20  1  0
 19 18  1  0
 20 25  2  0
 21 20  1  0
 21 22  2  0
 22 23  1  0
 23 24  2  0
 25 17  1  0
 25 24  1  0
 26 28  1  0
 27 26  2  0
M  END
$$$$
