CVW.pdb
     RDKit          3D

 28 29  0  0  1  0  0  0  0  0999 V2000
   27.5492  -18.2805  -17.3998 N   0  0  0  0  0  0  0  0  0  0  0  0
   27.8321  -19.1896  -16.3318 C   0  0  1  0  0  0  0  0  0  0  0  0
   29.2790  -19.0156  -15.9207 C   0  0  0  0  0  0  0  0  0  0  0  0
   30.3796  -19.8253  -17.0945 S   0  0  0  0  0  0  0  0  0  0  0  0
   26.9577  -18.9151  -15.1572 C   0  0  0  0  0  0  0  0  0  0  0  0
   26.8196  -17.7541  -14.7119 O   0  0  0  0  0  0  0  0  0  0  0  0
   23.5706  -19.3889  -15.3072 C   0  0  0  0  0  0  0  0  0  0  0  0
   23.9056  -20.2323  -14.1153 C   0  0  2  0  0  0  0  0  0  0  0  0
   22.8105  -20.0435  -13.0813 C   0  0  0  0  0  0  0  0  0  0  0  0
   25.2385  -19.7403  -13.5477 C   0  0  2  0  0  0  0  0  0  0  0  0
   26.2695  -19.9889  -14.5323 N   0  0  0  0  0  0  0  0  0  0  0  0
   25.5383  -20.5174  -12.3357 C   0  0  0  0  0  0  0  0  0  0  0  0
   25.6910  -21.7748  -12.4496 O   0  0  0  0  0  0  0  0  0  0  0  0
   25.6706  -19.9782  -11.0523 N   0  0  0  0  0  0  0  0  0  0  0  0
   25.8038  -20.7928   -9.8236 C   0  0  1  0  0  0  0  0  0  0  0  0
   26.8403  -20.0794   -9.0156 C   0  0  0  0  0  0  0  0  0  0  0  0
   27.0209  -20.4779   -7.6274 C   0  0  0  0  0  0  0  0  0  0  0  0
   26.3720  -21.5088   -6.9341 C   0  0  0  0  0  0  0  0  0  0  0  0
   26.8130  -21.5011   -5.6720 N   0  0  0  0  0  0  0  0  0  0  0  0
   27.7090  -20.5403   -5.4753 C   0  0  0  0  0  0  0  0  0  0  0  0
   28.4334  -20.1769   -4.3460 C   0  0  0  0  0  0  0  0  0  0  0  0
   29.3260  -19.1301   -4.4471 C   0  0  0  0  0  0  0  0  0  0  0  0
   29.4851  -18.4694   -5.6463 C   0  0  0  0  0  0  0  0  0  0  0  0
   28.7576  -18.8486   -6.7419 C   0  0  0  0  0  0  0  0  0  0  0  0
   27.8514  -19.8908   -6.6873 C   0  0  0  0  0  0  0  0  0  0  0  0
   24.4949  -20.7804   -9.1746 C   0  0  0  0  0  0  0  0  0  0  0  0
   23.7335  -19.7959   -9.3334 O   0  0  0  0  0  0  0  0  0  0  0  0
   24.0142  -21.8130   -8.3669 O   0  0  0  0  0  0  0  0  0  0  0  0
  2  5  1  0
  2  1  1  6
  3  2  1  0
  4  3  1  0
  5  6  2  0
  8  7  1  6
  8 10  1  0
  8  9  1  0
 10 11  1  6
 11  5  1  0
 12 13  2  0
 12 10  1  0
 14 12  1  0
 15 26  1  0
 15 14  1  0
 15 16  1  1
 17 16  1  0
 18 17  2  0
 19 20  1  0
 19 18  1  0
 20 25  2  0
 21 20  1  0
 21 22  2  0
 22 23  1  0
 23 24  2  0
 25 17  1  0
 25 24  1  0
 26 28  1  0
 27 26  2  0
M  END
$$$$
