CVW.pdb
     RDKit          3D

 28 29  0  0  1  0  0  0  0  0999 V2000
   27.8897  -22.2232  -16.0638 N   0  0  0  0  0  0  0  0  0  0  0  0
   28.1199  -20.8177  -15.9273 C   0  0  1  0  0  0  0  0  0  0  0  0
   27.9850  -20.1721  -17.2903 C   0  0  0  0  0  0  0  0  0  0  0  0
   29.0437  -20.9926  -18.4947 S   0  0  0  0  0  0  0  0  0  0  0  0
   27.1268  -20.2060  -15.0003 C   0  0  0  0  0  0  0  0  0  0  0  0
   27.1026  -18.9708  -14.8032 O   0  0  0  0  0  0  0  0  0  0  0  0
   23.5497  -20.2556  -15.1263 C   0  0  0  0  0  0  0  0  0  0  0  0
   23.8410  -20.8998  -13.8057 C   0  0  2  0  0  0  0  0  0  0  0  0
   22.8311  -20.3842  -12.7966 C   0  0  0  0  0  0  0  0  0  0  0  0
   25.2509  -20.4863  -13.3787 C   0  0  2  0  0  0  0  0  0  0  0  0
   26.1921  -21.0386  -14.3291 N   0  0  0  0  0  0  0  0  0  0  0  0
   25.5183  -21.0620  -12.0522 C   0  0  0  0  0  0  0  0  0  0  0  0
   25.5906  -22.3275  -11.9490 O   0  0  0  0  0  0  0  0  0  0  0  0
   25.7019  -20.3206  -10.8809 N   0  0  0  0  0  0  0  0  0  0  0  0
   25.8595  -20.9230   -9.5380 C   0  0  1  0  0  0  0  0  0  0  0  0
   26.9872  -20.1604   -8.9191 C   0  0  0  0  0  0  0  0  0  0  0  0
   27.4253  -20.5468   -7.5859 C   0  0  0  0  0  0  0  0  0  0  0  0
   27.4448  -21.8298   -7.0220 C   0  0  0  0  0  0  0  0  0  0  0  0
   27.8875  -21.7234   -5.7649 N   0  0  0  0  0  0  0  0  0  0  0  0
   28.1649  -20.4626   -5.4517 C   0  0  0  0  0  0  0  0  0  0  0  0
   28.6576  -19.8935   -4.2832 C   0  0  0  0  0  0  0  0  0  0  0  0
   28.8709  -18.5310   -4.2557 C   0  0  0  0  0  0  0  0  0  0  0  0
   28.5973  -17.7647   -5.3683 C   0  0  0  0  0  0  0  0  0  0  0  0
   28.1120  -18.3524   -6.5052 C   0  0  0  0  0  0  0  0  0  0  0  0
   27.8821  -19.7134   -6.5785 C   0  0  0  0  0  0  0  0  0  0  0  0
   24.5969  -20.7057   -8.8358 C   0  0  0  0  0  0  0  0  0  0  0  0
   23.8524  -19.7558   -9.1786 O   0  0  0  0  0  0  0  0  0  0  0  0
   24.1438  -21.4998   -7.7804 O   0  0  0  0  0  0  0  0  0  0  0  0
  2  5  1  0
  2  1  1  6
  3  2  1  0
  4  3  1  0
  5  6  2  0
  8  7  1  6
  8 10  1  0
  8  9  1  0
 10 11  1  6
 11  5  1  0
 12 13  2  0
 12 10  1  0
 14 12  1  0
 15 26  1  0
 15 14  1  0
 15 16  1  1
 17 16  1  0
 18 17  2  0
 19 20  1  0
 19 18  1  0
 20 25  2  0
 21 20  1  0
 21 22  2  0
 22 23  1  0
 23 24  2  0
 25 17  1  0
 25 24  1  0
 26 28  1  0
 27 26  2  0
M  END
$$$$
