CVW.pdb
     RDKit          3D

 28 29  0  0  1  0  0  0  0  0999 V2000
   15.1146  -23.8395    0.8571 N   0  0  0  0  0  0  0  0  0  0  0  0
   14.9168  -25.0016    0.0462 C   0  0  1  0  0  0  0  0  0  0  0  0
   13.5835  -24.8755   -0.6605 C   0  0  0  0  0  0  0  0  0  0  0  0
   12.2309  -25.3299    0.4389 S   0  0  0  0  0  0  0  0  0  0  0  0
   15.9962  -25.1262   -0.9730 C   0  0  0  0  0  0  0  0  0  0  0  0
   16.5987  -24.1173   -1.4025 O   0  0  0  0  0  0  0  0  0  0  0  0
   18.7275  -27.9775   -0.7770 C   0  0  0  0  0  0  0  0  0  0  0  0
   18.0617  -27.9781   -2.1189 C   0  0  2  0  0  0  0  0  0  0  0  0
   19.1176  -28.2717   -3.1690 C   0  0  0  0  0  0  0  0  0  0  0  0
   17.4748  -26.5851   -2.3560 C   0  0  2  0  0  0  0  0  0  0  0  0
   16.3473  -26.4112   -1.4656 N   0  0  0  0  0  0  0  0  0  0  0  0
   17.0006  -26.5152   -3.7463 C   0  0  0  0  0  0  0  0  0  0  0  0
   15.9653  -27.1823   -4.0632 O   0  0  0  0  0  0  0  0  0  0  0  0
   17.6041  -25.7649   -4.7602 N   0  0  0  0  0  0  0  0  0  0  0  0
   17.1605  -25.7768   -6.1724 C   0  0  1  0  0  0  0  0  0  0  0  0
   17.8910  -24.6332   -6.8008 C   0  0  0  0  0  0  0  0  0  0  0  0
   17.4985  -24.2231   -8.1410 C   0  0  0  0  0  0  0  0  0  0  0  0
   16.3756  -23.4750   -8.5205 C   0  0  0  0  0  0  0  0  0  0  0  0
   16.3845  -23.3607   -9.8525 N   0  0  0  0  0  0  0  0  0  0  0  0
   17.4326  -23.9778  -10.3870 C   0  0  0  0  0  0  0  0  0  0  0  0
   17.8494  -24.1040  -11.7070 C   0  0  0  0  0  0  0  0  0  0  0  0
   19.0135  -24.7979  -11.9644 C   0  0  0  0  0  0  0  0  0  0  0  0
   19.7356  -25.3477  -10.9271 C   0  0  0  0  0  0  0  0  0  0  0  0
   19.3004  -25.2082   -9.6368 C   0  0  0  0  0  0  0  0  0  0  0  0
   18.1400  -24.5223   -9.3315 C   0  0  0  0  0  0  0  0  0  0  0  0
   17.5737  -27.0646   -6.7253 C   0  0  0  0  0  0  0  0  0  0  0  0
   18.6516  -27.5841   -6.3481 O   0  0  0  0  0  0  0  0  0  0  0  0
   16.8366  -27.7811   -7.6703 O   0  0  0  0  0  0  0  0  0  0  0  0
  2  5  1  0
  2  1  1  6
  3  2  1  0
  4  3  1  0
  5  6  2  0
  8  7  1  1
  8 10  1  0
  8  9  1  0
 10 11  1  1
 11  5  1  0
 12 13  2  0
 12 10  1  0
 14 12  1  0
 15 26  1  0
 15 14  1  0
 15 16  1  6
 17 16  1  0
 18 17  2  0
 19 20  1  0
 19 18  1  0
 20 25  2  0
 21 20  1  0
 21 22  2  0
 22 23  1  0
 23 24  2  0
 25 17  1  0
 25 24  1  0
 26 28  1  0
 27 26  2  0
M  END
$$$$
