CVW.pdb
     RDKit          3D

 28 29  0  0  1  0  0  0  0  0999 V2000
   27.9367  -20.5752  -16.5919 N   0  0  0  0  0  0  0  0  0  0  0  0
   27.9350  -21.2152  -15.3122 C   0  0  1  0  0  0  0  0  0  0  0  0
   29.3384  -21.1650  -14.7459 C   0  0  0  0  0  0  0  0  0  0  0  0
   30.1161  -22.7882  -14.8182 S   0  0  0  0  0  0  0  0  0  0  0  0
   27.0084  -20.5214  -14.3744 C   0  0  0  0  0  0  0  0  0  0  0  0
   27.0601  -19.2817  -14.2142 O   0  0  0  0  0  0  0  0  0  0  0  0
   23.5141  -20.3104  -14.6039 C   0  0  0  0  0  0  0  0  0  0  0  0
   23.6912  -20.9548  -13.2633 C   0  0  2  0  0  0  0  0  0  0  0  0
   22.6691  -20.3565  -12.3138 C   0  0  0  0  0  0  0  0  0  0  0  0
   25.1026  -20.6340  -12.7673 C   0  0  2  0  0  0  0  0  0  0  0  0
   26.0504  -21.2796  -13.6499 N   0  0  0  0  0  0  0  0  0  0  0  0
   25.2537  -21.1910  -11.4147 C   0  0  0  0  0  0  0  0  0  0  0  0
   25.2739  -22.4559  -11.2837 O   0  0  0  0  0  0  0  0  0  0  0  0
   25.3785  -20.4324  -10.2467 N   0  0  0  0  0  0  0  0  0  0  0  0
   25.4844  -21.0154   -8.8903 C   0  0  1  0  0  0  0  0  0  0  0  0
   26.1533  -19.9513   -8.0800 C   0  0  0  0  0  0  0  0  0  0  0  0
   27.5494  -20.1431   -7.7160 C   0  0  0  0  0  0  0  0  0  0  0  0
   28.5760  -20.6957   -8.4940 C   0  0  0  0  0  0  0  0  0  0  0  0
   29.6910  -20.7141   -7.7565 N   0  0  0  0  0  0  0  0  0  0  0  0
   29.4810  -20.2131   -6.5442 C   0  0  0  0  0  0  0  0  0  0  0  0
   30.3395  -20.0220   -5.4679 C   0  0  0  0  0  0  0  0  0  0  0  0
   29.8351  -19.4478   -4.3195 C   0  0  0  0  0  0  0  0  0  0  0  0
   28.5090  -19.0774   -4.2555 C   0  0  0  0  0  0  0  0  0  0  0  0
   27.6865  -19.2785   -5.3310 C   0  0  0  0  0  0  0  0  0  0  0  0
   28.1476  -19.8508   -6.5015 C   0  0  0  0  0  0  0  0  0  0  0  0
   24.1178  -21.2717   -8.4417 C   0  0  0  0  0  0  0  0  0  0  0  0
   23.1736  -20.5913   -8.9104 O   0  0  0  0  0  0  0  0  0  0  0  0
   23.7742  -22.2462   -7.5026 O   0  0  0  0  0  0  0  0  0  0  0  0
  2  5  1  0
  2  1  1  6
  3  2  1  0
  4  3  1  0
  5  6  2  0
  8  7  1  6
  8 10  1  0
  8  9  1  0
 10 11  1  6
 11  5  1  0
 12 13  2  0
 12 10  1  0
 14 12  1  0
 15 26  1  0
 15 14  1  0
 15 16  1  1
 17 16  1  0
 18 17  2  0
 19 20  1  0
 19 18  1  0
 20 25  2  0
 21 20  1  0
 21 22  2  0
 22 23  1  0
 23 24  2  0
 25 17  1  0
 25 24  1  0
 26 28  1  0
 27 26  2  0
M  END
$$$$
