CVW.pdb
     RDKit          3D

 28 29  0  0  1  0  0  0  0  0999 V2000
   17.1518  -30.5217   -6.9096 N   0  0  0  0  0  0  0  0  0  0  0  0
   17.2024  -29.1383   -6.5477 C   0  0  1  0  0  0  0  0  0  0  0  0
   16.9418  -28.3061   -7.7856 C   0  0  0  0  0  0  0  0  0  0  0  0
   18.3735  -28.3191   -8.8786 S   0  0  0  0  0  0  0  0  0  0  0  0
   16.1685  -28.8208   -5.5232 C   0  0  0  0  0  0  0  0  0  0  0  0
   15.0228  -29.3195   -5.5855 O   0  0  0  0  0  0  0  0  0  0  0  0
   17.4070  -27.5960   -1.9281 C   0  0  0  0  0  0  0  0  0  0  0  0
   15.9940  -28.0629   -2.0998 C   0  0  2  0  0  0  0  0  0  0  0  0
   15.9914  -29.5804   -2.0650 C   0  0  0  0  0  0  0  0  0  0  0  0
   15.4989  -27.5796   -3.4645 C   0  0  2  0  0  0  0  0  0  0  0  0
   16.4884  -27.9375   -4.4580 N   0  0  0  0  0  0  0  0  0  0  0  0
   15.3768  -26.1148   -3.4182 C   0  0  0  0  0  0  0  0  0  0  0  0
   16.4431  -25.4233   -3.3711 O   0  0  0  0  0  0  0  0  0  0  0  0
   14.1675  -25.4127   -3.4219 N   0  0  0  0  0  0  0  0  0  0  0  0
   14.0668  -23.9402   -3.3085 C   0  0  1  0  0  0  0  0  0  0  0  0
   13.4191  -23.5128   -4.5868 C   0  0  0  0  0  0  0  0  0  0  0  0
   12.9674  -22.1337   -4.6982 C   0  0  0  0  0  0  0  0  0  0  0  0
   13.4313  -21.0140   -3.9942 C   0  0  0  0  0  0  0  0  0  0  0  0
   12.7141  -19.9543   -4.3816 N   0  0  0  0  0  0  0  0  0  0  0  0
   11.8070  -20.2874   -5.2932 C   0  0  0  0  0  0  0  0  0  0  0  0
   10.8698  -19.5232   -5.9784 C   0  0  0  0  0  0  0  0  0  0  0  0
   10.0591  -20.1507   -6.9014 C   0  0  0  0  0  0  0  0  0  0  0  0
   10.1869  -21.5043   -7.1281 C   0  0  0  0  0  0  0  0  0  0  0  0
   11.1183  -22.2319   -6.4378 C   0  0  0  0  0  0  0  0  0  0  0  0
   11.9513  -21.6461   -5.5033 C   0  0  0  0  0  0  0  0  0  0  0  0
   13.2228  -23.6711   -2.1467 C   0  0  0  0  0  0  0  0  0  0  0  0
   12.3280  -24.4904   -1.8274 O   0  0  0  0  0  0  0  0  0  0  0  0
   13.3414  -22.5364   -1.3416 O   0  0  0  0  0  0  0  0  0  0  0  0
  2  5  1  0
  2  1  1  6
  3  2  1  0
  4  3  1  0
  5  6  2  0
  8  7  1  6
  8 10  1  0
  8  9  1  0
 10 11  1  6
 11  5  1  0
 12 13  2  0
 12 10  1  0
 14 12  1  0
 15 26  1  0
 15 14  1  0
 15 16  1  6
 17 16  1  0
 18 17  2  0
 19 20  1  0
 19 18  1  0
 20 25  2  0
 21 20  1  0
 21 22  2  0
 22 23  1  0
 23 24  2  0
 25 17  1  0
 25 24  1  0
 26 28  1  0
 27 26  2  0
M  END
$$$$
