CVW.pdb
     RDKit          3D

 28 29  0  0  1  0  0  0  0  0999 V2000
   29.3977  -21.6279  -17.4940 N   0  0  0  0  0  0  0  0  0  0  0  0
   28.4925  -22.1189  -16.5007 C   0  0  1  0  0  0  0  0  0  0  0  0
   28.9372  -23.5057  -16.0861 C   0  0  0  0  0  0  0  0  0  0  0  0
   28.3663  -24.7406  -17.2669 S   0  0  0  0  0  0  0  0  0  0  0  0
   28.4885  -21.2325  -15.3033 C   0  0  0  0  0  0  0  0  0  0  0  0
   29.5550  -20.7800  -14.8311 O   0  0  0  0  0  0  0  0  0  0  0  0
   26.9880  -18.0154  -14.9924 C   0  0  0  0  0  0  0  0  0  0  0  0
   26.3006  -18.8136  -13.9274 C   0  0  2  0  0  0  0  0  0  0  0  0
   26.1104  -17.9187  -12.7162 C   0  0  0  0  0  0  0  0  0  0  0  0
   27.2068  -19.9902  -13.5594 C   0  0  2  0  0  0  0  0  0  0  0  0
   27.2539  -20.8956  -14.6874 N   0  0  0  0  0  0  0  0  0  0  0  0
   26.6115  -20.6890  -12.4107 C   0  0  0  0  0  0  0  0  0  0  0  0
   25.6452  -21.4872  -12.6268 O   0  0  0  0  0  0  0  0  0  0  0  0
   27.0275  -20.5447  -11.0835 N   0  0  0  0  0  0  0  0  0  0  0  0
   26.4427  -21.2933   -9.9482 C   0  0  1  0  0  0  0  0  0  0  0  0
   27.5678  -21.4264   -8.9723 C   0  0  0  0  0  0  0  0  0  0  0  0
   27.7079  -20.4052   -7.9447 C   0  0  0  0  0  0  0  0  0  0  0  0
   27.1900  -19.1028   -7.9460 C   0  0  0  0  0  0  0  0  0  0  0  0
   27.5899  -18.4965   -6.8236 N   0  0  0  0  0  0  0  0  0  0  0  0
   28.3359  -19.3013   -6.0749 C   0  0  0  0  0  0  0  0  0  0  0  0
   28.9429  -19.1059   -4.8398 C   0  0  0  0  0  0  0  0  0  0  0  0
   29.6516  -20.1507   -4.2839 C   0  0  0  0  0  0  0  0  0  0  0  0
   29.7470  -21.3541   -4.9491 C   0  0  0  0  0  0  0  0  0  0  0  0
   29.1394  -21.5176   -6.1647 C   0  0  0  0  0  0  0  0  0  0  0  0
   28.4198  -20.4989   -6.7603 C   0  0  0  0  0  0  0  0  0  0  0  0
   25.3549  -20.4697   -9.4256 C   0  0  0  0  0  0  0  0  0  0  0  0
   25.2346  -19.2826   -9.8135 O   0  0  0  0  0  0  0  0  0  0  0  0
   24.4116  -20.9186   -8.4991 O   0  0  0  0  0  0  0  0  0  0  0  0
  2  5  1  0
  2  1  1  6
  3  2  1  0
  4  3  1  0
  5  6  2  0
  8  7  1  6
  8 10  1  0
  8  9  1  0
 10 11  1  6
 11  5  1  0
 12 13  2  0
 12 10  1  0
 14 12  1  0
 15 26  1  0
 15 14  1  0
 15 16  1  1
 17 16  1  0
 18 17  2  0
 19 20  1  0
 19 18  1  0
 20 25  2  0
 21 20  1  0
 21 22  2  0
 22 23  1  0
 23 24  2  0
 25 17  1  0
 25 24  1  0
 26 28  1  0
 27 26  2  0
M  END
$$$$
