CVW.pdb
     RDKit          3D

 28 29  0  0  1  0  0  0  0  0999 V2000
   28.3573  -17.4951  -18.0136 N   0  0  0  0  0  0  0  0  0  0  0  0
   28.3109  -17.8767  -16.6354 C   0  0  1  0  0  0  0  0  0  0  0  0
   27.8736  -16.6795  -15.8179 C   0  0  0  0  0  0  0  0  0  0  0  0
   28.8741  -15.2347  -16.2131 S   0  0  0  0  0  0  0  0  0  0  0  0
   27.3408  -18.9877  -16.4259 C   0  0  0  0  0  0  0  0  0  0  0  0
   26.5691  -19.3527  -17.3406 O   0  0  0  0  0  0  0  0  0  0  0  0
   28.6266  -22.2041  -15.4180 C   0  0  0  0  0  0  0  0  0  0  0  0
   27.2468  -21.9310  -15.9333 C   0  0  2  0  0  0  0  0  0  0  0  0
   27.3713  -21.3547  -17.3320 C   0  0  0  0  0  0  0  0  0  0  0  0
   26.5924  -20.9014  -15.0099 C   0  0  2  0  0  0  0  0  0  0  0  0
   27.2906  -19.6436  -15.1671 N   0  0  0  0  0  0  0  0  0  0  0  0
   26.7466  -21.3629  -13.6222 C   0  0  0  0  0  0  0  0  0  0  0  0
   27.7700  -22.0591  -13.3298 O   0  0  0  0  0  0  0  0  0  0  0  0
   25.8474  -21.0946  -12.5855 N   0  0  0  0  0  0  0  0  0  0  0  0
   26.0044  -21.6015  -11.2037 C   0  0  1  0  0  0  0  0  0  0  0  0
   27.1849  -20.8568  -10.6669 C   0  0  0  0  0  0  0  0  0  0  0  0
   26.9978  -20.0446   -9.4737 C   0  0  0  0  0  0  0  0  0  0  0  0
   26.2011  -18.9011   -9.3242 C   0  0  0  0  0  0  0  0  0  0  0  0
   26.3514  -18.4517   -8.0741 N   0  0  0  0  0  0  0  0  0  0  0  0
   27.1898  -19.2137   -7.3804 C   0  0  0  0  0  0  0  0  0  0  0  0
   27.6237  -19.1375   -6.0621 C   0  0  0  0  0  0  0  0  0  0  0  0
   28.4975  -20.1005   -5.6017 C   0  0  0  0  0  0  0  0  0  0  0  0
   28.9217  -21.1085   -6.4408 C   0  0  0  0  0  0  0  0  0  0  0  0
   28.4783  -21.1578   -7.7348 C   0  0  0  0  0  0  0  0  0  0  0  0
   27.6033  -20.2145   -8.2397 C   0  0  0  0  0  0  0  0  0  0  0  0
   24.7717  -21.2634  -10.4959 C   0  0  0  0  0  0  0  0  0  0  0  0
   23.9695  -20.4439  -11.0049 O   0  0  0  0  0  0  0  0  0  0  0  0
   24.4095  -21.8000   -9.2588 O   0  0  0  0  0  0  0  0  0  0  0  0
  2  5  1  0
  2  1  1  6
  3  2  1  0
  4  3  1  0
  5  6  2  0
  8  7  1  1
  8 10  1  0
  8  9  1  0
 10 11  1  1
 11  5  1  0
 12 13  2  0
 12 10  1  0
 14 12  1  0
 15 26  1  0
 15 14  1  0
 15 16  1  1
 17 16  1  0
 18 17  2  0
 19 20  1  0
 19 18  1  0
 20 25  2  0
 21 20  1  0
 21 22  2  0
 22 23  1  0
 23 24  2  0
 25 17  1  0
 25 24  1  0
 26 28  1  0
 27 26  2  0
M  END
$$$$
