CVW.pdb
     RDKit          3D

 28 29  0  0  1  0  0  0  0  0999 V2000
   26.9817  -17.3532  -16.4708 N   0  0  0  0  0  0  0  0  0  0  0  0
   27.4575  -18.2231  -15.4393 C   0  0  1  0  0  0  0  0  0  0  0  0
   28.6387  -17.5638  -14.7589 C   0  0  0  0  0  0  0  0  0  0  0  0
   30.0259  -17.4049  -15.8969 S   0  0  0  0  0  0  0  0  0  0  0  0
   26.3938  -18.4759  -14.4272 C   0  0  0  0  0  0  0  0  0  0  0  0
   25.6424  -17.5552  -14.0361 O   0  0  0  0  0  0  0  0  0  0  0  0
   23.5777  -20.5243  -14.7904 C   0  0  0  0  0  0  0  0  0  0  0  0
   24.2583  -21.1438  -13.6085 C   0  0  2  0  0  0  0  0  0  0  0  0
   23.1896  -21.5669  -12.6171 C   0  0  0  0  0  0  0  0  0  0  0  0
   25.1586  -20.0831  -12.9718 C   0  0  2  0  0  0  0  0  0  0  0  0
   26.2298  -19.7834  -13.8974 N   0  0  0  0  0  0  0  0  0  0  0  0
   25.7343  -20.6455  -11.7410 C   0  0  0  0  0  0  0  0  0  0  0  0
   26.5441  -21.6204  -11.8464 O   0  0  0  0  0  0  0  0  0  0  0  0
   25.4594  -20.1888  -10.4482 N   0  0  0  0  0  0  0  0  0  0  0  0
   25.8044  -20.9354   -9.2175 C   0  0  1  0  0  0  0  0  0  0  0  0
   26.7625  -20.0413   -8.4971 C   0  0  0  0  0  0  0  0  0  0  0  0
   27.3152  -20.5060   -7.2334 C   0  0  0  0  0  0  0  0  0  0  0  0
   27.2777  -21.8013   -6.6992 C   0  0  0  0  0  0  0  0  0  0  0  0
   27.8733  -21.7737   -5.5026 N   0  0  0  0  0  0  0  0  0  0  0  0
   28.3052  -20.5539   -5.2019 C   0  0  0  0  0  0  0  0  0  0  0  0
   28.9842  -20.0679   -4.0907 C   0  0  0  0  0  0  0  0  0  0  0  0
   29.3289  -18.7325   -4.0642 C   0  0  0  0  0  0  0  0  0  0  0  0
   29.0012  -17.9116   -5.1219 C   0  0  0  0  0  0  0  0  0  0  0  0
   28.3315  -18.4179   -6.2029 C   0  0  0  0  0  0  0  0  0  0  0  0
   27.9651  -19.7487   -6.2729 C   0  0  0  0  0  0  0  0  0  0  0  0
   24.5568  -21.1148   -8.4786 C   0  0  0  0  0  0  0  0  0  0  0  0
   23.5773  -20.3710   -8.7261 O   0  0  0  0  0  0  0  0  0  0  0  0
   24.3681  -22.0808   -7.4882 O   0  0  0  0  0  0  0  0  0  0  0  0
  2  5  1  0
  2  1  1  6
  3  2  1  0
  4  3  1  0
  5  6  2  0
  8  7  1  6
  8 10  1  0
  8  9  1  0
 10 11  1  6
 11  5  1  0
 12 13  2  0
 12 10  1  0
 14 12  1  0
 15 26  1  0
 15 14  1  0
 15 16  1  1
 17 16  1  0
 18 17  2  0
 19 20  1  0
 19 18  1  0
 20 25  2  0
 21 20  1  0
 21 22  2  0
 22 23  1  0
 23 24  2  0
 25 17  1  0
 25 24  1  0
 26 28  1  0
 27 26  2  0
M  END
$$$$
