CVW.pdb
     RDKit          3D

 28 29  0  0  1  0  0  0  0  0999 V2000
   29.4833  -20.9658  -18.9159 N   0  0  0  0  0  0  0  0  0  0  0  0
   28.2886  -21.1559  -18.1518 C   0  0  1  0  0  0  0  0  0  0  0  0
   27.8941  -22.6158  -18.2286 C   0  0  0  0  0  0  0  0  0  0  0  0
   27.2578  -23.0216  -19.8643 S   0  0  0  0  0  0  0  0  0  0  0  0
   28.5081  -20.7871  -16.7252 C   0  0  0  0  0  0  0  0  0  0  0  0
   29.6618  -20.7157  -16.2466 O   0  0  0  0  0  0  0  0  0  0  0  0
   25.8621  -18.3471  -15.2008 C   0  0  0  0  0  0  0  0  0  0  0  0
   27.2172  -18.4963  -14.5799 C   0  0  2  0  0  0  0  0  0  0  0  0
   28.2171  -17.7517  -15.4458 C   0  0  0  0  0  0  0  0  0  0  0  0
   27.5657  -19.9859  -14.5579 C   0  0  2  0  0  0  0  0  0  0  0  0
   27.3894  -20.5121  -15.8944 N   0  0  0  0  0  0  0  0  0  0  0  0
   26.6292  -20.6651  -13.6500 C   0  0  0  0  0  0  0  0  0  0  0  0
   25.5427  -21.1159  -14.1334 O   0  0  0  0  0  0  0  0  0  0  0  0
   26.8400  -20.8575  -12.2811 N   0  0  0  0  0  0  0  0  0  0  0  0
   25.9278  -21.6262  -11.4047 C   0  0  1  0  0  0  0  0  0  0  0  0
   26.7257  -21.8743  -10.1646 C   0  0  0  0  0  0  0  0  0  0  0  0
   26.7229  -20.8490   -9.1316 C   0  0  0  0  0  0  0  0  0  0  0  0
   25.7290  -19.8981   -8.8621 C   0  0  0  0  0  0  0  0  0  0  0  0
   26.1523  -19.1308   -7.8524 N   0  0  0  0  0  0  0  0  0  0  0  0
   27.3556  -19.5027   -7.4297 C   0  0  0  0  0  0  0  0  0  0  0  0
   28.1635  -19.0117   -6.4107 C   0  0  0  0  0  0  0  0  0  0  0  0
   29.3784  -19.6242   -6.1833 C   0  0  0  0  0  0  0  0  0  0  0  0
   29.7686  -20.6966   -6.9562 C   0  0  0  0  0  0  0  0  0  0  0  0
   28.9525  -21.1582   -7.9535 C   0  0  0  0  0  0  0  0  0  0  0  0
   27.7274  -20.5756   -8.2181 C   0  0  0  0  0  0  0  0  0  0  0  0
   24.7729  -20.7672  -11.1538 C   0  0  0  0  0  0  0  0  0  0  0  0
   24.8790  -19.5262  -11.3045 O   0  0  0  0  0  0  0  0  0  0  0  0
   23.5232  -21.2386  -10.7467 O   0  0  0  0  0  0  0  0  0  0  0  0
  2  5  1  0
  2  1  1  6
  3  2  1  0
  4  3  1  0
  5  6  2  0
  8  7  1  6
  8 10  1  0
  8  9  1  0
 10 11  1  6
 11  5  1  0
 12 13  2  0
 12 10  1  0
 14 12  1  0
 15 26  1  0
 15 14  1  0
 15 16  1  1
 17 16  1  0
 18 17  2  0
 19 20  1  0
 19 18  1  0
 20 25  2  0
 21 20  1  0
 21 22  2  0
 22 23  1  0
 23 24  2  0
 25 17  1  0
 25 24  1  0
 26 28  1  0
 27 26  2  0
M  END
$$$$
