CVW.pdb
     RDKit          3D

 28 29  0  0  1  0  0  0  0  0999 V2000
   25.2006  -17.1988  -16.1488 N   0  0  0  0  0  0  0  0  0  0  0  0
   26.1779  -17.8661  -15.3446 C   0  0  1  0  0  0  0  0  0  0  0  0
   27.1081  -16.8272  -14.7545 C   0  0  0  0  0  0  0  0  0  0  0  0
   28.3196  -16.2871  -15.9732 S   0  0  0  0  0  0  0  0  0  0  0  0
   25.5268  -18.6196  -14.2365 C   0  0  0  0  0  0  0  0  0  0  0  0
   24.6186  -18.1016  -13.5493 O   0  0  0  0  0  0  0  0  0  0  0  0
   24.3705  -22.2389  -14.6487 C   0  0  0  0  0  0  0  0  0  0  0  0
   25.2275  -22.1890  -13.4211 C   0  0  2  0  0  0  0  0  0  0  0  0
   24.5781  -23.0553  -12.3572 C   0  0  0  0  0  0  0  0  0  0  0  0
   25.2803  -20.7376  -12.9400 C   0  0  2  0  0  0  0  0  0  0  0  0
   25.9437  -19.9478  -13.9551 N   0  0  0  0  0  0  0  0  0  0  0  0
   26.0745  -20.6904  -11.7033 C   0  0  0  0  0  0  0  0  0  0  0  0
   27.3305  -20.8718  -11.7876 O   0  0  0  0  0  0  0  0  0  0  0  0
   25.5534  -20.4591  -10.4265 N   0  0  0  0  0  0  0  0  0  0  0  0
   26.3399  -20.5818   -9.1785 C   0  0  1  0  0  0  0  0  0  0  0  0
   26.0507  -19.3190   -8.4317 C   0  0  0  0  0  0  0  0  0  0  0  0
   27.0661  -18.8150   -7.5188 C   0  0  0  0  0  0  0  0  0  0  0  0
   27.8836  -17.6871   -7.6747 C   0  0  0  0  0  0  0  0  0  0  0  0
   28.6969  -17.6152   -6.6160 N   0  0  0  0  0  0  0  0  0  0  0  0
   28.4794  -18.6130   -5.7664 C   0  0  0  0  0  0  0  0  0  0  0  0
   29.0672  -18.9249   -4.5460 C   0  0  0  0  0  0  0  0  0  0  0  0
   28.6127  -20.0337   -3.8627 C   0  0  0  0  0  0  0  0  0  0  0  0
   27.5991  -20.8046   -4.3900 C   0  0  0  0  0  0  0  0  0  0  0  0
   27.0395  -20.4738   -5.5945 C   0  0  0  0  0  0  0  0  0  0  0  0
   27.4630  -19.3727   -6.3147 C   0  0  0  0  0  0  0  0  0  0  0  0
   25.8314  -21.7617   -8.4828 C   0  0  0  0  0  0  0  0  0  0  0  0
   24.6363  -22.1084   -8.6425 O   0  0  0  0  0  0  0  0  0  0  0  0
   26.5992  -22.5554   -7.6283 O   0  0  0  0  0  0  0  0  0  0  0  0
  2  5  1  0
  2  1  1  1
  3  2  1  0
  4  3  1  0
  5  6  2  0
  8  7  1  6
  8 10  1  0
  8  9  1  0
 10 11  1  6
 11  5  1  0
 12 13  2  0
 12 10  1  0
 14 12  1  0
 15 26  1  0
 15 14  1  0
 15 16  1  1
 17 16  1  0
 18 17  2  0
 19 20  1  0
 19 18  1  0
 20 25  2  0
 21 20  1  0
 21 22  2  0
 22 23  1  0
 23 24  2  0
 25 17  1  0
 25 24  1  0
 26 28  1  0
 27 26  2  0
M  END
$$$$
