RHN.pdb
     RDKit          3D

 30 30  0  0  1  0  0  0  0  0999 V2000
    7.7917  -14.0937   17.6784 N   0  0  0  0  0  0  0  0  0  0  0  0
    8.0629  -13.8211   16.3129 C   0  0  0  0  0  0  0  0  0  0  0  0
    8.0810  -12.5969   15.8614 N   0  0  0  0  0  0  0  0  0  0  0  0
    8.3154  -14.9174   15.4448 N   0  0  0  0  0  0  0  0  0  0  0  0
    8.4014  -16.2505   15.9874 C   0  0  0  0  0  0  0  0  0  0  0  0
    9.8068  -16.7040   16.2165 C   0  0  0  0  0  0  0  0  0  0  0  0
   10.4242  -16.0804   17.4511 C   0  0  0  0  0  0  0  0  0  0  0  0
   10.6142  -17.0979   18.5521 C   0  0  2  0  0  0  0  0  0  0  0  0
    9.4433  -17.9234   18.6340 N   0  0  0  0  0  0  0  0  0  0  0  0
   10.8739  -16.4109   19.8268 C   0  0  0  0  0  0  0  0  0  0  0  0
   10.5617  -15.1892   19.9040 O   0  0  0  0  0  0  0  0  0  0  0  0
    8.3126  -12.4484   14.8603 N   0  0  0  0  0  0  0  0  0  0  0  0
   11.4443  -17.0162   20.9648 C   0  0  1  0  0  0  0  0  0  0  0  0
   10.8754  -16.7891   22.2633 C   0  0  0  0  0  0  0  0  0  0  0  0
    9.4238  -17.0377   22.3928 C   0  0  0  0  0  0  0  0  0  0  0  0
    8.5318  -15.9396   22.0617 C   0  0  0  0  0  0  0  0  0  0  0  0
    8.8117  -14.6211   21.8261 N   0  0  0  0  0  0  0  0  0  0  0  0
    7.6409  -13.9619   21.5633 C   0  0  0  0  0  0  0  0  0  0  0  0
    6.6640  -14.8507   21.6351 N   0  0  0  0  0  0  0  0  0  0  0  0
    7.1741  -16.0430   21.9326 C   0  0  0  0  0  0  0  0  0  0  0  0
   11.5815  -17.6394   23.2945 O   0  0  0  0  0  0  0  0  0  0  0  0
   11.4683  -18.8930   23.2906 N   0  0  0  0  0  0  0  0  0  0  0  0
   15.2267  -18.0826   23.5660 C   0  0  0  0  0  0  0  0  0  0  0  0
   15.4177  -17.3880   24.8087 O   0  0  0  0  0  0  0  0  0  0  0  0
   16.5834  -16.9269   24.9594 C   0  0  0  0  0  0  0  0  0  0  0  0
   14.3276  -17.2478   25.7919 C   0  0  2  0  0  0  0  0  0  0  0  0
   13.0869  -17.9036   25.3063 N   0  0  0  0  0  0  0  0  0  0  0  0
   12.3990  -17.0820   24.3083 C   0  0  0  0  0  0  0  0  0  0  0  0
   12.1104  -17.9785   26.4522 O   0  0  0  0  0  0  0  0  0  0  0  0
   10.9105  -17.2495   26.3814 O   0  0  0  0  0  0  0  0  0  0  0  0
  2  3  2  0
  2  1  1  0
  4  2  1  0
  5  4  1  0
  6  5  1  0
  7  6  1  0
  8  7  1  0
  8  9  1  1
 10 11  2  0
 10  8  1  0
 12 10  1  0
 13 20  1  0
 13 12  1  0
 13 14  1  1
 15 14  1  0
 15 19  1  0
 16 15  2  0
 17 16  1  0
 17 18  1  0
 18 19  2  0
 20 21  2  0
 23 22  1  0
 24 23  2  0
 25 23  1  0
 26 25  1  6
 27 26  1  0
 27 20  1  0
 28 26  1  0
 29 28  1  0
 30 28  2  0
M  END
$$$$
