RHN.pdb
     RDKit          3D

 30 30  0  0  1  0  0  0  0  0999 V2000
   10.8921  -19.7265   17.0054 N   0  0  0  0  0  0  0  0  0  0  0  0
    9.5448  -20.1703   17.0032 C   0  0  0  0  0  0  0  0  0  0  0  0
    9.2543  -21.4399   16.9209 N   0  0  0  0  0  0  0  0  0  0  0  0
    8.5146  -19.1957   17.0932 N   0  0  0  0  0  0  0  0  0  0  0  0
    8.4001  -18.3882   18.2823 C   0  0  0  0  0  0  0  0  0  0  0  0
    9.0176  -19.0219   19.4867 C   0  0  0  0  0  0  0  0  0  0  0  0
    8.8361  -18.1886   20.7385 C   0  0  0  0  0  0  0  0  0  0  0  0
    9.1418  -16.7306   20.4850 C   0  0  2  0  0  0  0  0  0  0  0  0
   10.4112  -16.6264   19.8241 N   0  0  0  0  0  0  0  0  0  0  0  0
    9.1396  -15.9919   21.7573 C   0  0  0  0  0  0  0  0  0  0  0  0
   10.2221  -15.9481   22.4072 O   0  0  0  0  0  0  0  0  0  0  0  0
    8.2546  -21.7165   16.9650 N   0  0  0  0  0  0  0  0  0  0  0  0
    8.0196  -15.3316   22.3016 C   0  0  1  0  0  0  0  0  0  0  0  0
    8.1225  -14.6628   23.5679 C   0  0  0  0  0  0  0  0  0  0  0  0
    6.9838  -13.7983   23.9443 C   0  0  0  0  0  0  0  0  0  0  0  0
    7.0888  -13.0741   25.1996 C   0  0  0  0  0  0  0  0  0  0  0  0
    6.2020  -12.9822   26.2375 N   0  0  0  0  0  0  0  0  0  0  0  0
    6.7365  -12.1735   27.2041 C   0  0  0  0  0  0  0  0  0  0  0  0
    7.9225  -11.7764   26.7736 N   0  0  0  0  0  0  0  0  0  0  0  0
    8.1551  -12.3036   25.5743 C   0  0  0  0  0  0  0  0  0  0  0  0
    8.3173  -15.6744   24.6741 O   0  0  0  0  0  0  0  0  0  0  0  0
    7.6367  -16.7324   24.7141 N   0  0  0  0  0  0  0  0  0  0  0  0
   10.9132  -19.6713   25.4816 C   0  0  0  0  0  0  0  0  0  0  0  0
   10.5205  -18.7463   26.5079 O   0  0  0  0  0  0  0  0  0  0  0  0
    9.9642  -19.2940   27.5003 C   0  0  0  0  0  0  0  0  0  0  0  0
   10.7623  -17.2975   26.3771 C   0  0  2  0  0  0  0  0  0  0  0  0
    9.5413  -16.5226   26.7151 N   0  0  0  0  0  0  0  0  0  0  0  0
    9.2634  -15.4920   25.7127 C   0  0  0  0  0  0  0  0  0  0  0  0
    9.8094  -15.7415   27.9761 O   0  0  0  0  0  0  0  0  0  0  0  0
    9.8563  -14.3377   27.9181 O   0  0  0  0  0  0  0  0  0  0  0  0
  2  3  2  0
  2  1  1  0
  4  2  1  0
  5  4  1  0
  6  5  1  0
  7  6  1  0
  8  7  1  0
  8  9  1  1
 10 11  2  0
 10  8  1  0
 12 10  1  0
 13 20  1  0
 13 12  1  0
 13 14  1  1
 15 14  1  0
 15 19  1  0
 16 15  2  0
 17 16  1  0
 17 18  1  0
 18 19  2  0
 20 21  2  0
 23 22  1  0
 24 23  2  0
 25 23  1  0
 26 25  1  6
 27 26  1  0
 27 20  1  0
 28 26  1  0
 29 28  1  0
 30 28  2  0
M  END
$$$$
