RHN.pdb
     RDKit          3D

 30 30  0  0  1  0  0  0  0  0999 V2000
   14.4770  -16.7273   12.8870 N   0  0  0  0  0  0  0  0  0  0  0  0
   15.3854  -17.6004   13.5389 C   0  0  0  0  0  0  0  0  0  0  0  0
   15.9027  -18.6226   12.9141 N   0  0  0  0  0  0  0  0  0  0  0  0
   15.7202  -17.3343   14.8940 N   0  0  0  0  0  0  0  0  0  0  0  0
   15.1718  -16.1722   15.5481 C   0  0  0  0  0  0  0  0  0  0  0  0
   13.7729  -16.3744   16.0336 C   0  0  0  0  0  0  0  0  0  0  0  0
   13.6862  -16.4377   17.5445 C   0  0  0  0  0  0  0  0  0  0  0  0
   12.2808  -16.7429   18.0084 C   0  0  2  0  0  0  0  0  0  0  0  0
   11.3767  -16.5715   16.9074 N   0  0  0  0  0  0  0  0  0  0  0  0
   11.9251  -15.8644   19.1336 C   0  0  0  0  0  0  0  0  0  0  0  0
   12.6251  -14.8270   19.3063 O   0  0  0  0  0  0  0  0  0  0  0  0
   16.5712  -19.2249   13.4318 N   0  0  0  0  0  0  0  0  0  0  0  0
   10.8625  -16.0965   20.0301 C   0  0  1  0  0  0  0  0  0  0  0  0
   10.6195  -15.1837   21.1113 C   0  0  0  0  0  0  0  0  0  0  0  0
    9.2250  -14.7206   21.2741 C   0  0  0  0  0  0  0  0  0  0  0  0
    8.6333  -13.9973   20.1614 C   0  0  0  0  0  0  0  0  0  0  0  0
    9.1928  -13.5921   18.9803 N   0  0  0  0  0  0  0  0  0  0  0  0
    8.2444  -12.9312   18.2468 C   0  0  0  0  0  0  0  0  0  0  0  0
    7.1286  -12.9286   18.9572 N   0  0  0  0  0  0  0  0  0  0  0  0
    7.3378  -13.5618   20.1085 C   0  0  0  0  0  0  0  0  0  0  0  0
   11.0542  -15.8028   22.4200 O   0  0  0  0  0  0  0  0  0  0  0  0
   10.7638  -15.2659   23.5208 N   0  0  0  0  0  0  0  0  0  0  0  0
    9.5366  -17.9174   24.0983 C   0  0  0  0  0  0  0  0  0  0  0  0
   10.3664  -19.0895   24.0726 O   0  0  0  0  0  0  0  0  0  0  0  0
    9.7277  -20.1680   24.2247 C   0  0  0  0  0  0  0  0  0  0  0  0
   11.8262  -18.9998   23.8838 C   0  0  2  0  0  0  0  0  0  0  0  0
   12.2578  -17.5856   23.7453 N   0  0  0  0  0  0  0  0  0  0  0  0
   11.8013  -17.0050   22.4809 C   0  0  0  0  0  0  0  0  0  0  0  0
   13.7611  -17.5570   23.6375 O   0  0  0  0  0  0  0  0  0  0  0  0
   14.3564  -17.0857   22.4545 O   0  0  0  0  0  0  0  0  0  0  0  0
  2  3  2  0
  2  1  1  0
  4  2  1  0
  5  4  1  0
  6  5  1  0
  7  6  1  0
  8  7  1  0
  8  9  1  6
 10 11  2  0
 10  8  1  0
 12 10  1  0
 13 20  1  0
 13 12  1  0
 13 14  1  1
 15 14  1  0
 15 19  1  0
 16 15  2  0
 17 16  1  0
 17 18  1  0
 18 19  2  0
 20 21  2  0
 23 22  1  0
 24 23  2  0
 25 23  1  0
 26 25  1  1
 27 26  1  0
 27 20  1  0
 28 26  1  0
 29 28  1  0
 30 28  2  0
M  END
$$$$
