RHN.pdb
     RDKit          3D

 30 30  0  0  1  0  0  0  0  0999 V2000
    8.9884  -12.7323   14.9108 N   0  0  0  0  0  0  0  0  0  0  0  0
    7.6353  -13.1303   15.0624 C   0  0  0  0  0  0  0  0  0  0  0  0
    6.7709  -12.9577   14.1001 N   0  0  0  0  0  0  0  0  0  0  0  0
    7.2418  -13.7240   16.2920 N   0  0  0  0  0  0  0  0  0  0  0  0
    8.1804  -13.7877   17.3846 C   0  0  0  0  0  0  0  0  0  0  0  0
    7.5914  -14.3555   18.6353 C   0  0  0  0  0  0  0  0  0  0  0  0
    8.5676  -14.3457   19.7933 C   0  0  0  0  0  0  0  0  0  0  0  0
    8.7553  -15.7282   20.3740 C   0  0  2  0  0  0  0  0  0  0  0  0
    7.5540  -16.4871   20.1739 N   0  0  0  0  0  0  0  0  0  0  0  0
    9.0920  -15.6277   21.8026 C   0  0  0  0  0  0  0  0  0  0  0  0
   10.1271  -14.9728   22.1122 O   0  0  0  0  0  0  0  0  0  0  0  0
    5.7945  -13.2734   14.2576 N   0  0  0  0  0  0  0  0  0  0  0  0
    8.3448  -16.2078   22.8475 C   0  0  1  0  0  0  0  0  0  0  0  0
    8.7759  -16.0613   24.2091 C   0  0  0  0  0  0  0  0  0  0  0  0
    7.7174  -15.7823   25.2028 C   0  0  0  0  0  0  0  0  0  0  0  0
    7.2690  -14.4056   25.3238 C   0  0  0  0  0  0  0  0  0  0  0  0
    7.7645  -13.2667   24.7496 N   0  0  0  0  0  0  0  0  0  0  0  0
    7.0169  -12.1996   25.1699 C   0  0  0  0  0  0  0  0  0  0  0  0
    6.0844  -12.6680   25.9826 N   0  0  0  0  0  0  0  0  0  0  0  0
    6.2159  -13.9877   26.0900 C   0  0  0  0  0  0  0  0  0  0  0  0
    9.5109  -17.3040   24.6567 O   0  0  0  0  0  0  0  0  0  0  0  0
    9.1104  -18.4504   24.3255 N   0  0  0  0  0  0  0  0  0  0  0  0
   14.1751  -20.3258   25.4743 C   0  0  0  0  0  0  0  0  0  0  0  0
   13.6345  -19.3472   26.3761 O   0  0  0  0  0  0  0  0  0  0  0  0
   13.8572  -19.5995   27.5932 C   0  0  0  0  0  0  0  0  0  0  0  0
   12.8936  -18.1699   25.8865 C   0  0  1  0  0  0  0  0  0  0  0  0
   11.4356  -18.4461   25.8293 N   0  0  0  0  0  0  0  0  0  0  0  0
   10.6754  -17.2497   25.4619 C   0  0  0  0  0  0  0  0  0  0  0  0
   10.9587  -18.7670   27.2228 O   0  0  0  0  0  0  0  0  0  0  0  0
   11.1026  -20.0762   27.7139 O   0  0  0  0  0  0  0  0  0  0  0  0
  2  3  2  0
  2  1  1  0
  4  2  1  0
  5  4  1  0
  6  5  1  0
  7  6  1  0
  8  7  1  0
  8  9  1  1
 10 11  2  0
 10  8  1  0
 12 10  1  0
 13 20  1  0
 13 12  1  0
 13 14  1  1
 15 14  1  0
 15 19  1  0
 16 15  2  0
 17 16  1  0
 17 18  1  0
 18 19  2  0
 20 21  2  0
 23 22  1  0
 24 23  2  0
 25 23  1  0
 26 25  1  6
 27 26  1  0
 27 20  1  0
 28 26  1  0
 29 28  1  0
 30 28  2  0
M  END
$$$$
