RHN.pdb
     RDKit          3D

 30 30  0  0  1  0  0  0  0  0999 V2000
   17.7842  -16.0384   17.5686 N   0  0  0  0  0  0  0  0  0  0  0  0
   18.1872  -14.6783   17.5710 C   0  0  0  0  0  0  0  0  0  0  0  0
   19.0769  -14.2412   18.4197 N   0  0  0  0  0  0  0  0  0  0  0  0
   17.5966  -13.7994   16.6234 N   0  0  0  0  0  0  0  0  0  0  0  0
   16.4884  -14.2564   15.8222 C   0  0  0  0  0  0  0  0  0  0  0  0
   15.5013  -15.0724   16.5925 C   0  0  0  0  0  0  0  0  0  0  0  0
   14.5251  -14.2174   17.3736 C   0  0  0  0  0  0  0  0  0  0  0  0
   13.5256  -15.0631   18.1283 C   0  0  2  0  0  0  0  0  0  0  0  0
   12.1987  -14.6464   17.7753 N   0  0  0  0  0  0  0  0  0  0  0  0
   13.7579  -14.9375   19.5756 C   0  0  0  0  0  0  0  0  0  0  0  0
   13.6006  -13.7961   20.0937 O   0  0  0  0  0  0  0  0  0  0  0  0
   19.2976  -13.2268   18.4176 N   0  0  0  0  0  0  0  0  0  0  0  0
   14.1422  -15.9962   20.4230 C   0  0  1  0  0  0  0  0  0  0  0  0
   14.4559  -15.7392   21.8003 C   0  0  0  0  0  0  0  0  0  0  0  0
   13.6948  -16.5185   22.7998 C   0  0  0  0  0  0  0  0  0  0  0  0
   12.2800  -16.2171   22.9369 C   0  0  0  0  0  0  0  0  0  0  0  0
   11.5204  -15.2648   22.3138 N   0  0  0  0  0  0  0  0  0  0  0  0
   10.2347  -15.3547   22.7753 C   0  0  0  0  0  0  0  0  0  0  0  0
   10.2019  -16.3371   23.6605 N   0  0  0  0  0  0  0  0  0  0  0  0
   11.4164  -16.8686   23.7739 C   0  0  0  0  0  0  0  0  0  0  0  0
   15.9267  -15.9818   22.0509 O   0  0  0  0  0  0  0  0  0  0  0  0
   16.5709  -16.8245   21.3733 N   0  0  0  0  0  0  0  0  0  0  0  0
   21.1481  -14.7283   22.9837 C   0  0  0  0  0  0  0  0  0  0  0  0
   20.1806  -14.5050   24.0216 O   0  0  0  0  0  0  0  0  0  0  0  0
   20.6659  -14.5467   25.1866 C   0  0  0  0  0  0  0  0  0  0  0  0
   18.7604  -14.2536   23.7141 C   0  0  1  0  0  0  0  0  0  0  0  0
   18.0829  -15.5006   23.2768 N   0  0  0  0  0  0  0  0  0  0  0  0
   16.6530  -15.2841   23.0474 C   0  0  0  0  0  0  0  0  0  0  0  0
   18.1238  -16.4871   24.4159 O   0  0  0  0  0  0  0  0  0  0  0  0
   19.3266  -17.1555   24.7032 O   0  0  0  0  0  0  0  0  0  0  0  0
  2  3  2  0
  2  1  1  0
  4  2  1  0
  5  4  1  0
  6  5  1  0
  7  6  1  0
  8  7  1  0
  8  9  1  1
 10 11  2  0
 10  8  1  0
 12 10  1  0
 13 20  1  0
 13 12  1  0
 13 14  1  1
 15 14  1  0
 15 19  1  0
 16 15  2  0
 17 16  1  0
 17 18  1  0
 18 19  2  0
 20 21  2  0
 23 22  1  0
 24 23  2  0
 25 23  1  0
 26 25  1  6
 27 26  1  0
 27 20  1  0
 28 26  1  0
 29 28  1  0
 30 28  2  0
M  END
$$$$
