RHN.pdb
     RDKit          3D

 30 30  0  0  1  0  0  0  0  0999 V2000
    7.6852  -12.3989   19.5567 N   0  0  0  0  0  0  0  0  0  0  0  0
    8.7060  -12.5806   18.5886 C   0  0  0  0  0  0  0  0  0  0  0  0
    9.5408  -11.6194   18.3019 N   0  0  0  0  0  0  0  0  0  0  0  0
    8.7985  -13.8393   17.9357 N   0  0  0  0  0  0  0  0  0  0  0  0
    7.7028  -14.7719   18.0286 C   0  0  0  0  0  0  0  0  0  0  0  0
    7.8037  -15.6843   19.2079 C   0  0  0  0  0  0  0  0  0  0  0  0
    9.2073  -16.2155   19.4125 C   0  0  0  0  0  0  0  0  0  0  0  0
    9.3039  -17.0660   20.6579 C   0  0  2  0  0  0  0  0  0  0  0  0
    8.3032  -18.0929   20.6023 N   0  0  0  0  0  0  0  0  0  0  0  0
    9.1383  -16.2226   21.8519 C   0  0  0  0  0  0  0  0  0  0  0  0
    8.7786  -15.0248   21.6735 O   0  0  0  0  0  0  0  0  0  0  0  0
   10.1994  -11.7632   17.5123 N   0  0  0  0  0  0  0  0  0  0  0  0
    9.3516  -16.6540   23.1768 C   0  0  1  0  0  0  0  0  0  0  0  0
    9.0633  -15.7761   24.2756 C   0  0  0  0  0  0  0  0  0  0  0  0
    7.6638  -15.3146   24.3930 C   0  0  0  0  0  0  0  0  0  0  0  0
    7.3564  -14.4022   25.4813 C   0  0  0  0  0  0  0  0  0  0  0  0
    8.1844  -13.8309   26.4089 N   0  0  0  0  0  0  0  0  0  0  0  0
    7.4355  -13.0478   27.2456 C   0  0  0  0  0  0  0  0  0  0  0  0
    6.1779  -13.1339   26.8447 N   0  0  0  0  0  0  0  0  0  0  0  0
    6.1063  -13.9403   25.7888 C   0  0  0  0  0  0  0  0  0  0  0  0
    9.4402  -16.4385   25.5810 O   0  0  0  0  0  0  0  0  0  0  0  0
    8.8449  -17.4733   25.9800 N   0  0  0  0  0  0  0  0  0  0  0  0
   10.9383  -17.2911   30.6100 C   0  0  0  0  0  0  0  0  0  0  0  0
   10.1436  -17.9059   29.5836 O   0  0  0  0  0  0  0  0  0  0  0  0
    9.8667  -19.1166   29.8117 C   0  0  0  0  0  0  0  0  0  0  0  0
    9.7109  -17.1583   28.3884 C   0  0  1  0  0  0  0  0  0  0  0  0
   10.8792  -16.6147   27.6503 N   0  0  0  0  0  0  0  0  0  0  0  0
   10.4700  -15.9401   26.4167 C   0  0  0  0  0  0  0  0  0  0  0  0
   11.7181  -17.7719   27.1716 O   0  0  0  0  0  0  0  0  0  0  0  0
   12.5247  -18.4632   28.0923 O   0  0  0  0  0  0  0  0  0  0  0  0
  2  3  2  0
  2  1  1  0
  4  2  1  0
  5  4  1  0
  6  5  1  0
  7  6  1  0
  8  7  1  0
  8  9  1  6
 10 11  2  0
 10  8  1  0
 12 10  1  0
 13 20  1  0
 13 12  1  0
 13 14  1  1
 15 14  1  0
 15 19  1  0
 16 15  2  0
 17 16  1  0
 17 18  1  0
 18 19  2  0
 20 21  2  0
 23 22  1  0
 24 23  2  0
 25 23  1  0
 26 25  1  1
 27 26  1  0
 27 20  1  0
 28 26  1  0
 29 28  1  0
 30 28  2  0
M  END
$$$$
