RHN.pdb
     RDKit          3D

 30 30  0  0  1  0  0  0  0  0999 V2000
    9.5763  -15.3548   12.0838 N   0  0  0  0  0  0  0  0  0  0  0  0
    9.5570  -16.2864   13.1534 C   0  0  0  0  0  0  0  0  0  0  0  0
    8.4736  -16.9520   13.4471 N   0  0  0  0  0  0  0  0  0  0  0  0
   10.7503  -16.4785   13.9006 N   0  0  0  0  0  0  0  0  0  0  0  0
   10.8100  -17.5252   14.8905 C   0  0  0  0  0  0  0  0  0  0  0  0
   10.2235  -17.1265   16.2059 C   0  0  0  0  0  0  0  0  0  0  0  0
   11.2414  -16.4824   17.1242 C   0  0  0  0  0  0  0  0  0  0  0  0
   11.4115  -17.2682   18.4038 C   0  0  2  0  0  0  0  0  0  0  0  0
   10.8294  -18.5688   18.2355 N   0  0  0  0  0  0  0  0  0  0  0  0
   10.7863  -16.5434   19.5210 C   0  0  0  0  0  0  0  0  0  0  0  0
   11.2561  -15.4079   19.8142 O   0  0  0  0  0  0  0  0  0  0  0  0
    8.5261  -17.6627   14.2021 N   0  0  0  0  0  0  0  0  0  0  0  0
    9.7038  -17.0236   20.2854 C   0  0  2  0  0  0  0  0  0  0  0  0
    9.2106  -16.2590   21.3960 C   0  0  0  0  0  0  0  0  0  0  0  0
    7.9065  -15.5905   21.2009 C   0  0  0  0  0  0  0  0  0  0  0  0
    7.8390  -14.5544   20.1845 C   0  0  0  0  0  0  0  0  0  0  0  0
    7.3189  -14.5973   18.9196 N   0  0  0  0  0  0  0  0  0  0  0  0
    7.4957  -13.3753   18.3284 C   0  0  0  0  0  0  0  0  0  0  0  0
    8.1093  -12.5985   19.2058 N   0  0  0  0  0  0  0  0  0  0  0  0
    8.3253  -13.2838   20.3256 C   0  0  0  0  0  0  0  0  0  0  0  0
    9.0984  -17.1374   22.6211 O   0  0  0  0  0  0  0  0  0  0  0  0
    8.1488  -17.9535   22.7506 N   0  0  0  0  0  0  0  0  0  0  0  0
   10.5203  -21.0270   23.9553 C   0  0  0  0  0  0  0  0  0  0  0  0
   11.3365  -20.3539   22.9838 O   0  0  0  0  0  0  0  0  0  0  0  0
   11.8312  -21.1242   22.1141 C   0  0  0  0  0  0  0  0  0  0  0  0
   11.5527  -18.8959   23.0318 C   0  0  2  0  0  0  0  0  0  0  0  0
   10.7701  -18.2791   24.1329 N   0  0  0  0  0  0  0  0  0  0  0  0
   10.0420  -17.0932   23.6769 C   0  0  0  0  0  0  0  0  0  0  0  0
   11.7359  -17.7417   25.1580 O   0  0  0  0  0  0  0  0  0  0  0  0
   11.8078  -18.3535   26.4216 O   0  0  0  0  0  0  0  0  0  0  0  0
  2  3  2  0
  2  1  1  0
  4  2  1  0
  5  4  1  0
  6  5  1  0
  7  6  1  0
  8  7  1  0
  8  9  1  6
 10 11  2  0
 10  8  1  0
 12 10  1  0
 13 20  1  0
 13 12  1  0
 13 14  1  6
 15 14  1  0
 15 19  1  0
 16 15  2  0
 17 16  1  0
 17 18  1  0
 18 19  2  0
 20 21  2  0
 23 22  1  0
 24 23  2  0
 25 23  1  0
 26 25  1  6
 27 26  1  0
 27 20  1  0
 28 26  1  0
 29 28  1  0
 30 28  2  0
M  END
$$$$
