RHN.pdb
     RDKit          3D

 30 30  0  0  1  0  0  0  0  0999 V2000
    9.1689  -15.2117   16.9146 N   0  0  0  0  0  0  0  0  0  0  0  0
    8.2008  -14.3376   16.3568 C   0  0  0  0  0  0  0  0  0  0  0  0
    7.7726  -14.4990   15.1347 N   0  0  0  0  0  0  0  0  0  0  0  0
    7.7063  -13.2775   17.1637 N   0  0  0  0  0  0  0  0  0  0  0  0
    8.1567  -13.1510   18.5276 C   0  0  0  0  0  0  0  0  0  0  0  0
    8.6288  -14.4418   19.1145 C   0  0  0  0  0  0  0  0  0  0  0  0
    9.0217  -14.3079   20.5711 C   0  0  0  0  0  0  0  0  0  0  0  0
    9.3802  -15.6458   21.1755 C   0  0  2  0  0  0  0  0  0  0  0  0
    8.4176  -16.6229   20.7539 N   0  0  0  0  0  0  0  0  0  0  0  0
    9.4224  -15.5354   22.6420 C   0  0  0  0  0  0  0  0  0  0  0  0
   10.2035  -14.6758   23.1390 O   0  0  0  0  0  0  0  0  0  0  0  0
    7.0859  -13.8149   14.7629 N   0  0  0  0  0  0  0  0  0  0  0  0
    8.6561  -16.3176   23.5295 C   0  0  1  0  0  0  0  0  0  0  0  0
    8.8399  -16.1873   24.9474 C   0  0  0  0  0  0  0  0  0  0  0  0
    7.6371  -15.8370   25.7324 C   0  0  0  0  0  0  0  0  0  0  0  0
    7.2030  -14.4509   25.6957 C   0  0  0  0  0  0  0  0  0  0  0  0
    7.8090  -13.3549   25.1445 N   0  0  0  0  0  0  0  0  0  0  0  0
    7.0244  -12.2562   25.3716 C   0  0  0  0  0  0  0  0  0  0  0  0
    5.9618  -12.6638   26.0457 N   0  0  0  0  0  0  0  0  0  0  0  0
    6.0471  -13.9755   26.2515 C   0  0  0  0  0  0  0  0  0  0  0  0
    9.4037  -17.4690   25.5170 O   0  0  0  0  0  0  0  0  0  0  0  0
    8.8537  -18.5781   25.2897 N   0  0  0  0  0  0  0  0  0  0  0  0
   13.0921  -20.1811   24.7681 C   0  0  0  0  0  0  0  0  0  0  0  0
   13.0743  -18.8997   25.4169 O   0  0  0  0  0  0  0  0  0  0  0  0
   13.4907  -17.9556   24.6891 C   0  0  0  0  0  0  0  0  0  0  0  0
   12.6056  -18.7425   26.8062 C   0  0  2  0  0  0  0  0  0  0  0  0
   11.1218  -18.7358   26.8685 N   0  0  0  0  0  0  0  0  0  0  0  0
   10.5661  -17.4942   26.3264 C   0  0  0  0  0  0  0  0  0  0  0  0
   10.7081  -18.7177   28.3179 O   0  0  0  0  0  0  0  0  0  0  0  0
   11.0015  -19.8269   29.1302 O   0  0  0  0  0  0  0  0  0  0  0  0
  2  3  2  0
  2  1  1  0
  4  2  1  0
  5  4  1  0
  6  5  1  0
  7  6  1  0
  8  7  1  0
  8  9  1  1
 10 11  2  0
 10  8  1  0
 12 10  1  0
 13 20  1  0
 13 12  1  0
 13 14  1  1
 15 14  1  0
 15 19  1  0
 16 15  2  0
 17 16  1  0
 17 18  1  0
 18 19  2  0
 20 21  2  0
 23 22  1  0
 24 23  2  0
 25 23  1  0
 26 25  1  6
 27 26  1  0
 27 20  1  0
 28 26  1  0
 29 28  1  0
 30 28  2  0
M  END
$$$$
