RHN.pdb
     RDKit          3D

 30 30  0  0  1  0  0  0  0  0999 V2000
   12.1853  -16.9939   12.7644 N   0  0  0  0  0  0  0  0  0  0  0  0
   12.9159  -18.2021   12.9011 C   0  0  0  0  0  0  0  0  0  0  0  0
   13.0844  -19.0055   11.8867 N   0  0  0  0  0  0  0  0  0  0  0  0
   13.4623  -18.5182   14.1742 N   0  0  0  0  0  0  0  0  0  0  0  0
   13.3221  -17.5820   15.2617 C   0  0  0  0  0  0  0  0  0  0  0  0
   11.9748  -17.6258   15.9071 C   0  0  0  0  0  0  0  0  0  0  0  0
   11.8997  -16.7675   17.1529 C   0  0  0  0  0  0  0  0  0  0  0  0
   10.5914  -16.9620   17.8839 C   0  0  2  0  0  0  0  0  0  0  0  0
    9.5207  -16.4658   17.0676 N   0  0  0  0  0  0  0  0  0  0  0  0
   10.6380  -16.2713   19.1821 C   0  0  0  0  0  0  0  0  0  0  0  0
   11.3130  -15.2056   19.2508 O   0  0  0  0  0  0  0  0  0  0  0  0
   13.7501  -19.7949   11.9935 N   0  0  0  0  0  0  0  0  0  0  0  0
    9.9853  -16.7120   20.3511 C   0  0  1  0  0  0  0  0  0  0  0  0
   10.0918  -15.9533   21.5653 C   0  0  0  0  0  0  0  0  0  0  0  0
    8.8368  -15.3658   22.0804 C   0  0  0  0  0  0  0  0  0  0  0  0
    8.1129  -14.4695   21.1951 C   0  0  0  0  0  0  0  0  0  0  0  0
    6.9833  -14.6890   20.4548 N   0  0  0  0  0  0  0  0  0  0  0  0
    6.6796  -13.5467   19.7642 C   0  0  0  0  0  0  0  0  0  0  0  0
    7.5983  -12.6456   20.0703 N   0  0  0  0  0  0  0  0  0  0  0  0
    8.4678  -13.1762   20.9263 C   0  0  0  0  0  0  0  0  0  0  0  0
   10.6826  -16.8099   22.6617 O   0  0  0  0  0  0  0  0  0  0  0  0
   10.2822  -17.9878   22.8529 N   0  0  0  0  0  0  0  0  0  0  0  0
   15.0765  -17.7284   23.2600 C   0  0  0  0  0  0  0  0  0  0  0  0
   14.5862  -16.5486   23.9162 O   0  0  0  0  0  0  0  0  0  0  0  0
   15.0677  -15.4749   23.4582 C   0  0  0  0  0  0  0  0  0  0  0  0
   13.6107  -16.6259   25.0194 C   0  0  2  0  0  0  0  0  0  0  0  0
   12.3198  -17.1890   24.5483 N   0  0  0  0  0  0  0  0  0  0  0  0
   11.7058  -16.3428   23.5231 C   0  0  0  0  0  0  0  0  0  0  0  0
   11.3384  -17.1462   25.6916 O   0  0  0  0  0  0  0  0  0  0  0  0
   11.5772  -17.9324   26.8322 O   0  0  0  0  0  0  0  0  0  0  0  0
  2  3  2  0
  2  1  1  0
  4  2  1  0
  5  4  1  0
  6  5  1  0
  7  6  1  0
  8  7  1  0
  8  9  1  6
 10 11  2  0
 10  8  1  0
 12 10  1  0
 13 20  1  0
 13 12  1  0
 13 14  1  1
 15 14  1  0
 15 19  1  0
 16 15  2  0
 17 16  1  0
 17 18  1  0
 18 19  2  0
 20 21  2  0
 23 22  1  0
 24 23  2  0
 25 23  1  0
 26 25  1  6
 27 26  1  0
 27 20  1  0
 28 26  1  0
 29 28  1  0
 30 28  2  0
M  END
$$$$
