RHN.pdb
     RDKit          3D

 30 30  0  0  1  0  0  0  0  0999 V2000
    8.3788  -11.8243   18.1735 N   0  0  0  0  0  0  0  0  0  0  0  0
    7.6138  -12.9568   17.7934 C   0  0  0  0  0  0  0  0  0  0  0  0
    6.3175  -12.8811   17.6640 N   0  0  0  0  0  0  0  0  0  0  0  0
    8.2954  -14.1808   17.5558 N   0  0  0  0  0  0  0  0  0  0  0  0
    9.2659  -14.6528   18.5120 C   0  0  0  0  0  0  0  0  0  0  0  0
    8.8307  -14.4743   19.9305 C   0  0  0  0  0  0  0  0  0  0  0  0
    9.8712  -14.9529   20.9216 C   0  0  0  0  0  0  0  0  0  0  0  0
    9.4591  -16.2507   21.5771 C   0  0  2  0  0  0  0  0  0  0  0  0
    8.1467  -16.6094   21.1212 N   0  0  0  0  0  0  0  0  0  0  0  0
    9.4947  -16.1037   23.0405 C   0  0  0  0  0  0  0  0  0  0  0  0
    9.8072  -14.9710   23.5046 O   0  0  0  0  0  0  0  0  0  0  0  0
    5.8024  -13.7403   17.3917 N   0  0  0  0  0  0  0  0  0  0  0  0
    9.2060  -17.1330   23.9592 C   0  0  1  0  0  0  0  0  0  0  0  0
    9.2391  -16.8697   25.3702 C   0  0  0  0  0  0  0  0  0  0  0  0
    7.9712  -16.4151   25.9796 C   0  0  0  0  0  0  0  0  0  0  0  0
    7.5418  -15.0594   25.6812 C   0  0  0  0  0  0  0  0  0  0  0  0
    8.1732  -14.0740   24.9723 N   0  0  0  0  0  0  0  0  0  0  0  0
    7.3817  -12.9570   24.9689 C   0  0  0  0  0  0  0  0  0  0  0  0
    6.2903  -13.2457   25.6580 N   0  0  0  0  0  0  0  0  0  0  0  0
    6.3640  -14.5004   26.0948 C   0  0  0  0  0  0  0  0  0  0  0  0
    9.6921  -18.1033   26.1172 O   0  0  0  0  0  0  0  0  0  0  0  0
    9.1735  -19.2275   25.8900 N   0  0  0  0  0  0  0  0  0  0  0  0
   12.4504  -20.6272   25.4885 C   0  0  0  0  0  0  0  0  0  0  0  0
   13.0788  -19.6349   26.3152 O   0  0  0  0  0  0  0  0  0  0  0  0
   14.0037  -19.0010   25.7347 C   0  0  0  0  0  0  0  0  0  0  0  0
   12.6542  -19.4077   27.7090 C   0  0  2  0  0  0  0  0  0  0  0  0
   11.1787  -19.2645   27.7980 N   0  0  0  0  0  0  0  0  0  0  0  0
   10.7114  -18.0648   27.1004 C   0  0  0  0  0  0  0  0  0  0  0  0
   10.8126  -19.0138   29.2387 O   0  0  0  0  0  0  0  0  0  0  0  0
   10.2614  -17.7727   29.6018 O   0  0  0  0  0  0  0  0  0  0  0  0
  2  3  2  0
  2  1  1  0
  4  2  1  0
  5  4  1  0
  6  5  1  0
  7  6  1  0
  8  7  1  0
  8  9  1  6
 10 11  2  0
 10  8  1  0
 12 10  1  0
 13 20  1  0
 13 12  1  0
 13 14  1  1
 15 14  1  0
 15 19  1  0
 16 15  2  0
 17 16  1  0
 17 18  1  0
 18 19  2  0
 20 21  2  0
 23 22  1  0
 24 23  2  0
 25 23  1  0
 26 25  1  6
 27 26  1  0
 27 20  1  0
 28 26  1  0
 29 28  1  0
 30 28  2  0
M  END
$$$$
