RHN.pdb
     RDKit          3D

 30 30  0  0  1  0  0  0  0  0999 V2000
   10.6425  -13.1331   19.5066 N   0  0  0  0  0  0  0  0  0  0  0  0
    9.7771  -12.0225   19.3332 C   0  0  0  0  0  0  0  0  0  0  0  0
   10.2082  -10.8014   19.4951 N   0  0  0  0  0  0  0  0  0  0  0  0
    8.4242  -12.2721   18.9776 N   0  0  0  0  0  0  0  0  0  0  0  0
    7.9076  -13.6167   19.0412 C   0  0  0  0  0  0  0  0  0  0  0  0
    7.1683  -13.9047   20.3077 C   0  0  0  0  0  0  0  0  0  0  0  0
    6.7086  -15.3452   20.3968 C   0  0  0  0  0  0  0  0  0  0  0  0
    7.7829  -16.2368   20.9752 C   0  0  2  0  0  0  0  0  0  0  0  0
    7.3523  -17.6031   20.8921 N   0  0  0  0  0  0  0  0  0  0  0  0
    8.0585  -15.8473   22.3669 C   0  0  0  0  0  0  0  0  0  0  0  0
    7.5464  -14.7697   22.7823 O   0  0  0  0  0  0  0  0  0  0  0  0
    9.5217  -10.0264   19.4184 N   0  0  0  0  0  0  0  0  0  0  0  0
    8.8506  -16.5879   23.2673 C   0  0  1  0  0  0  0  0  0  0  0  0
    8.9284  -16.1988   24.6470 C   0  0  0  0  0  0  0  0  0  0  0  0
    7.6423  -16.0864   25.3674 C   0  0  0  0  0  0  0  0  0  0  0  0
    7.1090  -14.7494   25.5657 C   0  0  0  0  0  0  0  0  0  0  0  0
    7.6296  -13.5346   25.2112 N   0  0  0  0  0  0  0  0  0  0  0  0
    6.7699  -12.5504   25.6192 C   0  0  0  0  0  0  0  0  0  0  0  0
    5.7454  -13.1426   26.2103 N   0  0  0  0  0  0  0  0  0  0  0  0
    5.9269  -14.4606   26.1901 C   0  0  0  0  0  0  0  0  0  0  0  0
    9.8002  -17.1690   25.4110 O   0  0  0  0  0  0  0  0  0  0  0  0
   10.3377  -18.1512   24.8358 N   0  0  0  0  0  0  0  0  0  0  0  0
   11.2597  -19.1124   30.9178 C   0  0  0  0  0  0  0  0  0  0  0  0
   11.8244  -18.5640   29.7163 O   0  0  0  0  0  0  0  0  0  0  0  0
   12.9504  -19.0501   29.4159 C   0  0  0  0  0  0  0  0  0  0  0  0
   11.1225  -17.5299   28.9337 C   0  0  2  0  0  0  0  0  0  0  0  0
   10.8495  -18.0030   27.5527 N   0  0  0  0  0  0  0  0  0  0  0  0
   10.0584  -17.0297   26.7970 C   0  0  0  0  0  0  0  0  0  0  0  0
    9.9558  -19.2141   27.6343 O   0  0  0  0  0  0  0  0  0  0  0  0
   10.5331  -20.4833   27.8134 O   0  0  0  0  0  0  0  0  0  0  0  0
  2  3  2  0
  2  1  1  0
  4  2  1  0
  5  4  1  0
  6  5  1  0
  7  6  1  0
  8  7  1  0
  8  9  1  1
 10 11  2  0
 10  8  1  0
 12 10  1  0
 13 20  1  0
 13 12  1  0
 13 14  1  1
 15 14  1  0
 15 19  1  0
 16 15  2  0
 17 16  1  0
 17 18  1  0
 18 19  2  0
 20 21  2  0
 23 22  1  0
 24 23  2  0
 25 23  1  0
 26 25  1  6
 27 26  1  0
 27 20  1  0
 28 26  1  0
 29 28  1  0
 30 28  2  0
M  END
$$$$
