RHN.pdb
     RDKit          3D

 30 30  0  0  1  0  0  0  0  0999 V2000
    7.0056  -16.8047   15.6415 N   0  0  0  0  0  0  0  0  0  0  0  0
    7.8311  -16.5843   14.5091 C   0  0  0  0  0  0  0  0  0  0  0  0
    7.3623  -16.0087   13.4359 N   0  0  0  0  0  0  0  0  0  0  0  0
    9.1863  -17.0070   14.5714 N   0  0  0  0  0  0  0  0  0  0  0  0
    9.6392  -17.7831   15.6991 C   0  0  0  0  0  0  0  0  0  0  0  0
    9.9564  -16.9501   16.8986 C   0  0  0  0  0  0  0  0  0  0  0  0
   11.3317  -17.2427   17.4615 C   0  0  0  0  0  0  0  0  0  0  0  0
   11.2523  -17.7847   18.8699 C   0  0  2  0  0  0  0  0  0  0  0  0
   10.1599  -18.7114   18.9540 N   0  0  0  0  0  0  0  0  0  0  0  0
   11.0868  -16.6758   19.8225 C   0  0  0  0  0  0  0  0  0  0  0  0
   11.9942  -15.7974   19.8569 O   0  0  0  0  0  0  0  0  0  0  0  0
    8.0285  -15.7794   12.6734 N   0  0  0  0  0  0  0  0  0  0  0  0
    9.9917  -16.5236   20.6968 C   0  0  1  0  0  0  0  0  0  0  0  0
    9.9676  -15.4413   21.6398 C   0  0  0  0  0  0  0  0  0  0  0  0
    8.7037  -14.6796   21.7275 C   0  0  0  0  0  0  0  0  0  0  0  0
    8.1710  -14.1358   20.4899 C   0  0  0  0  0  0  0  0  0  0  0  0
    6.9807  -14.3834   19.8622 N   0  0  0  0  0  0  0  0  0  0  0  0
    6.9264  -13.6432   18.7118 C   0  0  0  0  0  0  0  0  0  0  0  0
    8.0541  -12.9567   18.6317 N   0  0  0  0  0  0  0  0  0  0  0  0
    8.8157  -13.2359   19.6865 C   0  0  0  0  0  0  0  0  0  0  0  0
   10.2933  -15.9529   23.0245 O   0  0  0  0  0  0  0  0  0  0  0  0
   10.2108  -15.2014   24.0308 N   0  0  0  0  0  0  0  0  0  0  0  0
   11.5724  -20.9321   26.3374 C   0  0  0  0  0  0  0  0  0  0  0  0
   11.1114  -19.5794   26.1932 O   0  0  0  0  0  0  0  0  0  0  0  0
   11.2158  -18.8916   27.2470 C   0  0  0  0  0  0  0  0  0  0  0  0
   10.5723  -19.0780   24.9155 C   0  0  2  0  0  0  0  0  0  0  0  0
   11.1478  -17.7506   24.5807 N   0  0  0  0  0  0  0  0  0  0  0  0
   10.7030  -17.2877   23.2646 C   0  0  0  0  0  0  0  0  0  0  0  0
   12.6394  -17.9054   24.4274 O   0  0  0  0  0  0  0  0  0  0  0  0
   13.4897  -17.3870   25.4195 O   0  0  0  0  0  0  0  0  0  0  0  0
  2  3  2  0
  2  1  1  0
  4  2  1  0
  5  4  1  0
  6  5  1  0
  7  6  1  0
  8  7  1  0
  8  9  1  6
 10 11  2  0
 10  8  1  0
 12 10  1  0
 13 20  1  0
 13 12  1  0
 13 14  1  6
 15 14  1  0
 15 19  1  0
 16 15  2  0
 17 16  1  0
 17 18  1  0
 18 19  2  0
 20 21  2  0
 23 22  1  0
 24 23  2  0
 25 23  1  0
 26 25  1  1
 27 26  1  0
 27 20  1  0
 28 26  1  0
 29 28  1  0
 30 28  2  0
M  END
$$$$
