RHN.pdb
     RDKit          3D

 30 30  0  0  1  0  0  0  0  0999 V2000
   10.4788  -21.6553   14.9772 N   0  0  0  0  0  0  0  0  0  0  0  0
   11.3649  -20.9347   14.1359 C   0  0  0  0  0  0  0  0  0  0  0  0
   11.0375  -20.6411   12.9073 N   0  0  0  0  0  0  0  0  0  0  0  0
   12.6228  -20.5384   14.6649 N   0  0  0  0  0  0  0  0  0  0  0  0
   12.6701  -19.6751   15.8189 C   0  0  0  0  0  0  0  0  0  0  0  0
   11.4200  -19.7158   16.6369 C   0  0  0  0  0  0  0  0  0  0  0  0
   11.5063  -18.8442   17.8727 C   0  0  0  0  0  0  0  0  0  0  0  0
   10.3377  -17.8903   17.9628 C   0  0  2  0  0  0  0  0  0  0  0  0
   10.2614  -17.1275   16.7499 N   0  0  0  0  0  0  0  0  0  0  0  0
   10.4971  -17.0157   19.1351 C   0  0  0  0  0  0  0  0  0  0  0  0
   11.5438  -16.3111   19.1979 O   0  0  0  0  0  0  0  0  0  0  0  0
   11.7444  -20.1670   12.3129 N   0  0  0  0  0  0  0  0  0  0  0  0
    9.5684  -16.9078   20.1899 C   0  0  1  0  0  0  0  0  0  0  0  0
    9.8300  -16.0267   21.2929 C   0  0  0  0  0  0  0  0  0  0  0  0
    8.7148  -15.1485   21.7059 C   0  0  0  0  0  0  0  0  0  0  0  0
    8.1339  -14.2918   20.6860 C   0  0  0  0  0  0  0  0  0  0  0  0
    8.4142  -12.9909   20.3677 N   0  0  0  0  0  0  0  0  0  0  0  0
    7.5984  -12.6030   19.3390 C   0  0  0  0  0  0  0  0  0  0  0  0
    6.8344  -13.6379   19.0307 N   0  0  0  0  0  0  0  0  0  0  0  0
    7.1375  -14.6614   19.8250 C   0  0  0  0  0  0  0  0  0  0  0  0
   10.2595  -16.8244   22.5029 O   0  0  0  0  0  0  0  0  0  0  0  0
   10.0459  -18.0629   22.5739 N   0  0  0  0  0  0  0  0  0  0  0  0
   14.8038  -18.0250   25.6358 C   0  0  0  0  0  0  0  0  0  0  0  0
   13.6462  -17.2405   25.9640 O   0  0  0  0  0  0  0  0  0  0  0  0
   13.3072  -17.3179   27.1779 C   0  0  0  0  0  0  0  0  0  0  0  0
   12.9459  -16.4326   24.9484 C   0  0  1  0  0  0  0  0  0  0  0  0
   11.6226  -17.0216   24.6211 N   0  0  0  0  0  0  0  0  0  0  0  0
   10.9177  -16.2324   23.6090 C   0  0  0  0  0  0  0  0  0  0  0  0
   10.7429  -16.9189   25.8409 O   0  0  0  0  0  0  0  0  0  0  0  0
   10.9388  -17.8141   26.9068 O   0  0  0  0  0  0  0  0  0  0  0  0
  2  3  2  0
  2  1  1  0
  4  2  1  0
  5  4  1  0
  6  5  1  0
  7  6  1  0
  8  7  1  0
  8  9  1  6
 10 11  2  0
 10  8  1  0
 12 10  1  0
 13 20  1  0
 13 12  1  0
 13 14  1  6
 15 14  1  0
 15 19  1  0
 16 15  2  0
 17 16  1  0
 17 18  1  0
 18 19  2  0
 20 21  2  0
 23 22  1  0
 24 23  2  0
 25 23  1  0
 26 25  1  6
 27 26  1  0
 27 20  1  0
 28 26  1  0
 29 28  1  0
 30 28  2  0
M  END
$$$$
