RHN.pdb
     RDKit          3D

 30 30  0  0  1  0  0  0  0  0999 V2000
    9.1825  -14.5266   15.4508 N   0  0  0  0  0  0  0  0  0  0  0  0
    7.8379  -14.0934   15.3210 C   0  0  0  0  0  0  0  0  0  0  0  0
    7.1899  -14.2367   14.1974 N   0  0  0  0  0  0  0  0  0  0  0  0
    7.2108  -13.4972   16.4481 N   0  0  0  0  0  0  0  0  0  0  0  0
    7.6829  -13.8101   17.7741 C   0  0  0  0  0  0  0  0  0  0  0  0
    7.5811  -15.2631   18.1083 C   0  0  0  0  0  0  0  0  0  0  0  0
    8.0589  -15.5708   19.5123 C   0  0  0  0  0  0  0  0  0  0  0  0
    9.0791  -14.5616   19.9860 C   0  0  2  0  0  0  0  0  0  0  0  0
   10.3790  -14.9586   19.5259 N   0  0  0  0  0  0  0  0  0  0  0  0
    9.0388  -14.4629   21.4534 C   0  0  0  0  0  0  0  0  0  0  0  0
    9.9491  -15.0518   22.1019 O   0  0  0  0  0  0  0  0  0  0  0  0
    6.1948  -13.9425   14.1660 N   0  0  0  0  0  0  0  0  0  0  0  0
    8.0604  -13.7603   22.1853 C   0  0  2  0  0  0  0  0  0  0  0  0
    8.0822  -13.7798   23.6207 C   0  0  0  0  0  0  0  0  0  0  0  0
    6.9426  -13.1276   24.3001 C   0  0  0  0  0  0  0  0  0  0  0  0
    6.9755  -13.0815   25.7520 C   0  0  0  0  0  0  0  0  0  0  0  0
    7.6156  -12.2083   26.5888 N   0  0  0  0  0  0  0  0  0  0  0  0
    7.3622  -12.5726   27.8839 C   0  0  0  0  0  0  0  0  0  0  0  0
    6.5860  -13.6430   27.8471 N   0  0  0  0  0  0  0  0  0  0  0  0
    6.3411  -13.9663   26.5799 C   0  0  0  0  0  0  0  0  0  0  0  0
    8.1601  -15.2049   24.1187 O   0  0  0  0  0  0  0  0  0  0  0  0
    7.4577  -16.1128   23.6023 N   0  0  0  0  0  0  0  0  0  0  0  0
    9.1679  -19.9117   25.8411 C   0  0  0  0  0  0  0  0  0  0  0  0
   10.2972  -19.0932   25.4979 O   0  0  0  0  0  0  0  0  0  0  0  0
   11.4110  -19.6362   25.7404 C   0  0  0  0  0  0  0  0  0  0  0  0
   10.1296  -17.7478   24.9178 C   0  0  1  0  0  0  0  0  0  0  0  0
    9.0993  -16.9751   25.6574 N   0  0  0  0  0  0  0  0  0  0  0  0
    9.0159  -15.5938   25.1786 C   0  0  0  0  0  0  0  0  0  0  0  0
    9.5474  -16.8376   27.0901 O   0  0  0  0  0  0  0  0  0  0  0  0
    9.7437  -15.5541   27.6286 O   0  0  0  0  0  0  0  0  0  0  0  0
  2  3  2  0
  2  1  1  0
  4  2  1  0
  5  4  1  0
  6  5  1  0
  7  6  1  0
  8  7  1  0
  8  9  1  1
 10 11  2  0
 10  8  1  0
 12 10  1  0
 13 20  1  0
 13 12  1  0
 13 14  1  1
 15 14  1  0
 15 19  1  0
 16 15  2  0
 17 16  1  0
 17 18  1  0
 18 19  2  0
 20 21  2  0
 23 22  1  0
 24 23  2  0
 25 23  1  0
 26 25  1  6
 27 26  1  0
 27 20  1  0
 28 26  1  0
 29 28  1  0
 30 28  2  0
M  END
$$$$
