RDE.pdb
     RDKit          3D

 29 28  0  0  1  0  0  0  0  0999 V2000
   25.0309  -24.5059  -15.1083 N   0  0  0  0  0  0  0  0  0  0  0  0
   25.8244  -24.3590  -16.2799 C   0  0  0  0  0  0  0  0  0  0  0  0
   26.9483  -25.0082  -16.3451 N   0  0  0  0  0  0  0  0  0  0  0  0
   25.3860  -23.5246  -17.3328 N   0  0  0  0  0  0  0  0  0  0  0  0
   24.0907  -22.8957  -17.2807 C   0  0  0  0  0  0  0  0  0  0  0  0
   24.1924  -21.7427  -16.3329 C   0  0  0  0  0  0  0  0  0  0  0  0
   22.9432  -20.8866  -16.2888 C   0  0  0  0  0  0  0  0  0  0  0  0
   23.2201  -19.7573  -15.3163 C   0  0  2  0  0  0  0  0  0  0  0  0
   24.2604  -20.2210  -14.4157 N   0  0  0  0  0  0  0  0  0  0  0  0
   22.0015  -19.3369  -14.5795 C   0  0  0  0  0  0  0  0  0  0  0  0
   21.6287  -19.9552  -13.5626 O   0  0  0  0  0  0  0  0  0  0  0  0
   27.5561  -24.9052  -17.1686 N   0  0  0  0  0  0  0  0  0  0  0  0
   21.2529  -18.2379  -15.0168 C   0  0  2  0  0  0  0  0  0  0  0  0
   20.0083  -17.7859  -14.4076 C   0  0  0  0  0  0  0  0  0  0  0  0
   19.9102  -16.3280  -14.7973 C   0  0  0  0  0  0  0  0  0  0  0  0
   18.6550  -15.7970  -14.2131 O   0  0  0  0  0  0  0  0  0  0  0  0
   18.0405  -14.8517  -14.8186 C   0  0  0  0  0  0  0  0  0  0  0  0
   18.9098  -18.6238  -14.8937 O   0  0  0  0  0  0  0  0  0  0  0  0
   18.8295  -18.8684  -16.1234 O   0  0  0  0  0  0  0  0  0  0  0  0
   18.1027  -16.2677  -13.0336 N   0  0  0  0  0  0  0  0  0  0  0  0
   17.9690  -19.1416  -14.0046 C   0  0  2  0  0  0  0  0  0  0  0  0
   16.8362  -19.9444  -14.5032 C   0  0  0  0  0  0  0  0  0  0  0  0
   16.7656  -21.1072  -13.5765 C   0  0  0  0  0  0  0  0  0  0  0  0
   15.6527  -22.0474  -13.8672 C   0  0  0  0  0  0  0  0  0  0  0  0
   15.5774  -23.1937  -12.9272 O   0  0  0  0  0  0  0  0  0  0  0  0
   14.4730  -23.3946  -12.3378 C   0  0  0  0  0  0  0  0  0  0  0  0
   15.6769  -19.1154  -14.7128 O   0  0  0  0  0  0  0  0  0  0  0  0
   14.5624  -19.5689  -15.4407 O   0  0  0  0  0  0  0  0  0  0  0  0
   16.6106  -24.0506  -12.6487 O   0  0  0  0  0  0  0  0  0  0  0  0
  2  3  2  0
  2  1  1  0
  4  2  1  0
  5  4  1  0
  6  5  1  0
  7  6  1  0
  8  7  1  0
  8  9  1  1
 10  8  1  0
 10 11  2  0
 12 10  1  0
 13 12  1  0
 13 14  1  6
 14 15  1  0
 15 16  2  0
 15 19  1  0
 17 13  1  0
 18 17  2  0
 20 17  1  0
 21 20  1  0
 21 22  1  1
 23 22  1  0
 24 23  1  0
 24 25  2  0
 26 21  1  0
 26 27  1  0
 28 24  1  0
 29 26  2  0
M  END
$$$$
