RDE.pdb
     RDKit          3D

 29 28  0  0  1  0  0  0  0  0999 V2000
   28.5245  -20.8263  -15.8002 N   0  0  0  0  0  0  0  0  0  0  0  0
   28.4876  -19.5228  -16.3687 C   0  0  0  0  0  0  0  0  0  0  0  0
   28.9169  -19.3718  -17.5860 N   0  0  0  0  0  0  0  0  0  0  0  0
   27.9951  -18.4341  -15.6141 N   0  0  0  0  0  0  0  0  0  0  0  0
   27.0087  -18.6408  -14.5844 C   0  0  0  0  0  0  0  0  0  0  0  0
   25.6630  -18.5601  -15.2331 C   0  0  0  0  0  0  0  0  0  0  0  0
   25.0512  -19.9155  -15.5230 C   0  0  0  0  0  0  0  0  0  0  0  0
   24.1781  -20.2652  -14.3343 C   0  0  2  0  0  0  0  0  0  0  0  0
   24.7328  -21.4696  -13.7426 N   0  0  0  0  0  0  0  0  0  0  0  0
   22.7541  -20.4445  -14.7148 C   0  0  0  0  0  0  0  0  0  0  0  0
   22.4485  -20.9409  -15.8174 O   0  0  0  0  0  0  0  0  0  0  0  0
   28.9058  -18.4416  -18.0250 N   0  0  0  0  0  0  0  0  0  0  0  0
   21.7327  -20.0585  -13.8389 C   0  0  1  0  0  0  0  0  0  0  0  0
   20.3080  -20.2098  -14.1071 C   0  0  0  0  0  0  0  0  0  0  0  0
   19.7293  -20.6831  -12.7925 C   0  0  0  0  0  0  0  0  0  0  0  0
   19.3987  -22.1204  -12.9460 O   0  0  0  0  0  0  0  0  0  0  0  0
   19.6723  -22.7049  -14.0512 C   0  0  0  0  0  0  0  0  0  0  0  0
   19.7760  -18.9314  -14.5841 O   0  0  0  0  0  0  0  0  0  0  0  0
   19.9882  -17.8938  -13.9082 O   0  0  0  0  0  0  0  0  0  0  0  0
   18.8007  -22.8768  -11.9521 N   0  0  0  0  0  0  0  0  0  0  0  0
   19.0461  -18.8680  -15.7704 C   0  0  2  0  0  0  0  0  0  0  0  0
   18.4694  -17.5877  -16.2223 C   0  0  0  0  0  0  0  0  0  0  0  0
   18.9316  -17.4458  -17.6302 C   0  0  0  0  0  0  0  0  0  0  0  0
   20.3758  -17.1246  -17.7648 C   0  0  0  0  0  0  0  0  0  0  0  0
   20.8396  -17.0337  -19.1718 O   0  0  0  0  0  0  0  0  0  0  0  0
   19.9898  -17.2662  -20.0835 C   0  0  0  0  0  0  0  0  0  0  0  0
   17.0639  -17.5239  -15.9129 O   0  0  0  0  0  0  0  0  0  0  0  0
   16.3609  -16.3060  -15.9034 O   0  0  0  0  0  0  0  0  0  0  0  0
   22.1160  -16.7175  -19.5595 O   0  0  0  0  0  0  0  0  0  0  0  0
  2  3  2  0
  2  1  1  0
  4  2  1  0
  5  4  1  0
  6  5  1  0
  7  6  1  0
  8  7  1  0
  8  9  1  6
 10  8  1  0
 10 11  2  0
 12 10  1  0
 13 12  1  0
 13 14  1  6
 14 15  1  0
 15 16  2  0
 15 19  1  0
 17 13  1  0
 18 17  2  0
 20 17  1  0
 21 20  1  0
 21 22  1  1
 23 22  1  0
 24 23  1  0
 24 25  2  0
 26 21  1  0
 26 27  1  0
 28 24  1  0
 29 26  2  0
M  END
$$$$
