RDE.pdb
     RDKit          3D

 29 28  0  0  1  0  0  0  0  0999 V2000
   28.6300  -20.0739   -4.2675 N   0  0  0  0  0  0  0  0  0  0  0  0
   27.6842  -19.4654   -5.1386 C   0  0  0  0  0  0  0  0  0  0  0  0
   26.9843  -18.4690   -4.6846 N   0  0  0  0  0  0  0  0  0  0  0  0
   27.5237  -19.9461   -6.4578 N   0  0  0  0  0  0  0  0  0  0  0  0
   28.5478  -20.7490   -7.0764 C   0  0  0  0  0  0  0  0  0  0  0  0
   28.4724  -20.5095   -8.5512 C   0  0  0  0  0  0  0  0  0  0  0  0
   27.0659  -20.6041   -9.1062 C   0  0  0  0  0  0  0  0  0  0  0  0
   27.1663  -21.3310  -10.4326 C   0  0  2  0  0  0  0  0  0  0  0  0
   28.5805  -21.4899  -10.7211 N   0  0  0  0  0  0  0  0  0  0  0  0
   26.4594  -20.6131  -11.5233 C   0  0  0  0  0  0  0  0  0  0  0  0
   26.9851  -19.6297  -12.0819 O   0  0  0  0  0  0  0  0  0  0  0  0
   26.3196  -17.9826   -5.3008 N   0  0  0  0  0  0  0  0  0  0  0  0
   25.1905  -21.0315  -11.9408 C   0  0  1  0  0  0  0  0  0  0  0  0
   24.4591  -20.4660  -13.0676 C   0  0  0  0  0  0  0  0  0  0  0  0
   24.4225  -21.5827  -14.0868 C   0  0  0  0  0  0  0  0  0  0  0  0
   25.8164  -21.8206  -14.5332 O   0  0  0  0  0  0  0  0  0  0  0  0
   26.2961  -23.0051  -14.4637 C   0  0  0  0  0  0  0  0  0  0  0  0
   23.1440  -20.0184  -12.6039 O   0  0  0  0  0  0  0  0  0  0  0  0
   22.7188  -20.4266  -11.4944 O   0  0  0  0  0  0  0  0  0  0  0  0
   26.6417  -20.8231  -15.0245 N   0  0  0  0  0  0  0  0  0  0  0  0
   22.3771  -19.1524  -13.3823 C   0  0  1  0  0  0  0  0  0  0  0  0
   20.9187  -19.3448  -13.4932 C   0  0  0  0  0  0  0  0  0  0  0  0
   20.7659  -20.6519  -14.1889 C   0  0  0  0  0  0  0  0  0  0  0  0
   19.3615  -21.1267  -14.2858 C   0  0  0  0  0  0  0  0  0  0  0  0
   19.2295  -22.4915  -14.8541 O   0  0  0  0  0  0  0  0  0  0  0  0
   18.6541  -23.3681  -14.1414 C   0  0  0  0  0  0  0  0  0  0  0  0
   20.2769  -19.1225  -12.2228 O   0  0  0  0  0  0  0  0  0  0  0  0
   20.7726  -19.6846  -11.0328 O   0  0  0  0  0  0  0  0  0  0  0  0
   19.6823  -22.8752  -16.0899 O   0  0  0  0  0  0  0  0  0  0  0  0
  2  3  2  0
  2  1  1  0
  4  2  1  0
  5  4  1  0
  6  5  1  0
  7  6  1  0
  8  7  1  0
  8  9  1  6
 10  8  1  0
 10 11  2  0
 12 10  1  0
 13 12  1  0
 13 14  1  6
 14 15  1  0
 15 16  2  0
 15 19  1  0
 17 13  1  0
 18 17  2  0
 20 17  1  0
 21 20  1  0
 21 22  1  6
 23 22  1  0
 24 23  1  0
 24 25  2  0
 26 21  1  0
 26 27  1  0
 28 24  1  0
 29 26  2  0
M  END
$$$$
