RDE.pdb
     RDKit          3D

 29 28  0  0  1  0  0  0  0  0999 V2000
   24.5601  -21.0979  -10.0309 N   0  0  0  0  0  0  0  0  0  0  0  0
   25.8205  -20.9264   -9.3939 C   0  0  0  0  0  0  0  0  0  0  0  0
   25.8418  -20.3923   -8.2095 N   0  0  0  0  0  0  0  0  0  0  0  0
   27.0062  -21.3311  -10.0479 N   0  0  0  0  0  0  0  0  0  0  0  0
   27.0182  -21.5615  -11.4702 C   0  0  0  0  0  0  0  0  0  0  0  0
   27.8715  -20.4987  -12.0871 C   0  0  0  0  0  0  0  0  0  0  0  0
   27.1238  -19.6200  -13.0691 C   0  0  0  0  0  0  0  0  0  0  0  0
   26.3905  -20.5482  -14.0170 C   0  0  2  0  0  0  0  0  0  0  0  0
   27.3693  -21.4926  -14.5251 N   0  0  0  0  0  0  0  0  0  0  0  0
   25.7141  -19.8123  -15.1150 C   0  0  0  0  0  0  0  0  0  0  0  0
   24.9593  -18.8513  -14.8654 O   0  0  0  0  0  0  0  0  0  0  0  0
   26.7362  -20.2637   -7.7178 N   0  0  0  0  0  0  0  0  0  0  0  0
   25.9152  -20.1875  -16.4485 C   0  0  1  0  0  0  0  0  0  0  0  0
   25.3022  -19.5317  -17.5968 C   0  0  0  0  0  0  0  0  0  0  0  0
   26.2537  -19.8123  -18.7384 C   0  0  0  0  0  0  0  0  0  0  0  0
   27.0218  -18.5692  -18.9903 O   0  0  0  0  0  0  0  0  0  0  0  0
   26.4203  -17.4422  -18.9129 C   0  0  0  0  0  0  0  0  0  0  0  0
   23.9507  -20.0646  -17.7826 O   0  0  0  0  0  0  0  0  0  0  0  0
   23.6520  -21.1639  -17.2529 O   0  0  0  0  0  0  0  0  0  0  0  0
   28.3687  -18.5557  -19.3117 N   0  0  0  0  0  0  0  0  0  0  0  0
   23.0110  -19.3615  -18.5354 C   0  0  2  0  0  0  0  0  0  0  0  0
   21.5684  -19.5647  -18.3035 C   0  0  0  0  0  0  0  0  0  0  0  0
   21.3987  -19.3974  -16.8342 C   0  0  0  0  0  0  0  0  0  0  0  0
   20.2577  -20.1595  -16.2648 C   0  0  0  0  0  0  0  0  0  0  0  0
   19.5898  -19.4766  -15.1287 O   0  0  0  0  0  0  0  0  0  0  0  0
   20.3312  -18.9206  -14.2635 C   0  0  0  0  0  0  0  0  0  0  0  0
   20.7881  -18.7694  -19.2167 O   0  0  0  0  0  0  0  0  0  0  0  0
   19.4416  -19.0653  -19.4941 O   0  0  0  0  0  0  0  0  0  0  0  0
   18.2333  -19.4017  -14.9447 O   0  0  0  0  0  0  0  0  0  0  0  0
  2  3  2  0
  2  1  1  0
  4  2  1  0
  5  4  1  0
  6  5  1  0
  7  6  1  0
  8  7  1  0
  8  9  1  6
 10  8  1  0
 10 11  2  0
 12 10  1  0
 13 12  1  0
 13 14  1  1
 14 15  1  0
 15 16  2  0
 15 19  1  0
 17 13  1  0
 18 17  2  0
 20 17  1  0
 21 20  1  0
 21 22  1  1
 23 22  1  0
 24 23  1  0
 24 25  2  0
 26 21  1  0
 26 27  1  0
 28 24  1  0
 29 26  2  0
M  END
$$$$
