RDE.pdb
     RDKit          3D

 29 28  0  0  1  0  0  0  0  0999 V2000
   17.0081  -14.6925  -14.4940 N   0  0  0  0  0  0  0  0  0  0  0  0
   17.4852  -14.1955  -15.7386 C   0  0  0  0  0  0  0  0  0  0  0  0
   17.8152  -15.0542  -16.6564 N   0  0  0  0  0  0  0  0  0  0  0  0
   17.5913  -12.8024  -15.9518 N   0  0  0  0  0  0  0  0  0  0  0  0
   16.9797  -11.8711  -15.0383 C   0  0  0  0  0  0  0  0  0  0  0  0
   16.3713  -10.7770  -15.8574 C   0  0  0  0  0  0  0  0  0  0  0  0
   15.7223   -9.6903  -15.0247 C   0  0  0  0  0  0  0  0  0  0  0  0
   15.2702   -8.6112  -15.9885 C   0  0  2  0  0  0  0  0  0  0  0  0
   14.9253   -9.2742  -17.2334 N   0  0  0  0  0  0  0  0  0  0  0  0
   16.3055   -7.5661  -16.1900 C   0  0  0  0  0  0  0  0  0  0  0  0
   17.2214   -7.7307  -17.0204 O   0  0  0  0  0  0  0  0  0  0  0  0
   18.2093  -14.7289  -17.5492 N   0  0  0  0  0  0  0  0  0  0  0  0
   16.2675   -6.3789  -15.4493 C   0  0  1  0  0  0  0  0  0  0  0  0
   17.2472   -5.3047  -15.5522 C   0  0  0  0  0  0  0  0  0  0  0  0
   16.4895   -4.0669  -15.1267 C   0  0  0  0  0  0  0  0  0  0  0  0
   15.6509   -3.6447  -16.2743 O   0  0  0  0  0  0  0  0  0  0  0  0
   16.2233   -3.2349  -17.3431 C   0  0  0  0  0  0  0  0  0  0  0  0
   18.4020   -5.6330  -14.7133 O   0  0  0  0  0  0  0  0  0  0  0  0
   18.2058   -6.0610  -13.5486 O   0  0  0  0  0  0  0  0  0  0  0  0
   14.2664   -3.6649  -16.2566 N   0  0  0  0  0  0  0  0  0  0  0  0
   19.6982   -5.4731  -15.2012 C   0  0  1  0  0  0  0  0  0  0  0  0
   20.8584   -5.8364  -14.3656 C   0  0  0  0  0  0  0  0  0  0  0  0
   21.4876   -6.9823  -15.0776 C   0  0  0  0  0  0  0  0  0  0  0  0
   22.7379   -7.4762  -14.4454 C   0  0  0  0  0  0  0  0  0  0  0  0
   23.4264   -8.5333  -15.2276 O   0  0  0  0  0  0  0  0  0  0  0  0
   22.9961   -9.7202  -15.1113 C   0  0  0  0  0  0  0  0  0  0  0  0
   21.6390   -4.6698  -14.0417 O   0  0  0  0  0  0  0  0  0  0  0  0
   22.4579   -4.6187  -12.8997 O   0  0  0  0  0  0  0  0  0  0  0  0
   24.4911   -8.3233  -16.0653 O   0  0  0  0  0  0  0  0  0  0  0  0
  2  3  2  0
  2  1  1  0
  4  2  1  0
  5  4  1  0
  6  5  1  0
  7  6  1  0
  8  7  1  0
  8  9  1  6
 10  8  1  0
 10 11  2  0
 12 10  1  0
 13 12  1  0
 13 14  1  1
 14 15  1  0
 15 16  2  0
 15 19  1  0
 17 13  1  0
 18 17  2  0
 20 17  1  0
 21 20  1  0
 21 22  1  1
 23 22  1  0
 24 23  1  0
 24 25  2  0
 26 21  1  0
 26 27  1  0
 28 24  1  0
 29 26  2  0
M  END
$$$$
