RDE.pdb
     RDKit          3D

 29 28  0  0  1  0  0  0  0  0999 V2000
   31.8723  -22.2626   -9.1137 N   0  0  0  0  0  0  0  0  0  0  0  0
   31.7334  -22.3777  -10.5248 C   0  0  0  0  0  0  0  0  0  0  0  0
   32.5767  -23.1313  -11.1649 N   0  0  0  0  0  0  0  0  0  0  0  0
   30.7009  -21.6830  -11.1945 N   0  0  0  0  0  0  0  0  0  0  0  0
   29.7214  -20.9303  -10.4529 C   0  0  0  0  0  0  0  0  0  0  0  0
   28.3771  -21.4939  -10.7896 C   0  0  0  0  0  0  0  0  0  0  0  0
   27.6883  -20.7706  -11.9289 C   0  0  0  0  0  0  0  0  0  0  0  0
   26.2869  -21.3401  -12.0257 C   0  0  2  0  0  0  0  0  0  0  0  0
   26.4179  -22.7059  -12.5011 N   0  0  0  0  0  0  0  0  0  0  0  0
   25.4101  -20.5313  -12.9099 C   0  0  0  0  0  0  0  0  0  0  0  0
   25.0238  -19.3989  -12.5581 O   0  0  0  0  0  0  0  0  0  0  0  0
   32.5565  -23.1702  -12.1927 N   0  0  0  0  0  0  0  0  0  0  0  0
   25.0047  -21.0297  -14.1536 C   0  0  2  0  0  0  0  0  0  0  0  0
   24.2023  -20.2925  -15.1217 C   0  0  0  0  0  0  0  0  0  0  0  0
   25.0220  -20.3309  -16.3920 C   0  0  0  0  0  0  0  0  0  0  0  0
   26.1315  -19.3603  -16.2326 O   0  0  0  0  0  0  0  0  0  0  0  0
   27.3379  -19.7859  -16.2693 C   0  0  0  0  0  0  0  0  0  0  0  0
   22.8847  -20.9235  -15.2252 O   0  0  0  0  0  0  0  0  0  0  0  0
   22.8166  -22.1509  -15.4844 O   0  0  0  0  0  0  0  0  0  0  0  0
   25.9368  -18.0027  -16.0407 N   0  0  0  0  0  0  0  0  0  0  0  0
   21.7248  -20.1727  -15.0382 C   0  0  2  0  0  0  0  0  0  0  0  0
   20.4027  -20.8268  -15.0609 C   0  0  0  0  0  0  0  0  0  0  0  0
   19.8826  -20.6666  -13.6754 C   0  0  0  0  0  0  0  0  0  0  0  0
   18.5810  -21.3410  -13.4345 C   0  0  0  0  0  0  0  0  0  0  0  0
   18.1066  -21.2416  -12.0316 O   0  0  0  0  0  0  0  0  0  0  0  0
   18.8060  -20.5575  -11.2252 C   0  0  0  0  0  0  0  0  0  0  0  0
   19.6251  -20.3664  -16.1828 O   0  0  0  0  0  0  0  0  0  0  0  0
   18.6123  -21.1551  -16.7569 O   0  0  0  0  0  0  0  0  0  0  0  0
   16.9704  -21.8328  -11.5426 O   0  0  0  0  0  0  0  0  0  0  0  0
  2  3  2  0
  2  1  1  0
  4  2  1  0
  5  4  1  0
  6  5  1  0
  7  6  1  0
  8  7  1  0
  8  9  1  6
 10  8  1  0
 10 11  2  0
 12 10  1  0
 13 12  1  0
 13 14  1  1
 14 15  1  0
 15 16  2  0
 15 19  1  0
 17 13  1  0
 18 17  2  0
 20 17  1  0
 21 20  1  0
 21 22  1  1
 23 22  1  0
 24 23  1  0
 24 25  2  0
 26 21  1  0
 26 27  1  0
 28 24  1  0
 29 26  2  0
M  END
$$$$
