RDE.pdb
     RDKit          3D

 29 28  0  0  1  0  0  0  0  0999 V2000
   27.6646  -22.4392  -16.3682 N   0  0  0  0  0  0  0  0  0  0  0  0
   27.3405  -23.7480  -16.8216 C   0  0  0  0  0  0  0  0  0  0  0  0
   28.2811  -24.6447  -16.8306 N   0  0  0  0  0  0  0  0  0  0  0  0
   26.0262  -24.0455  -17.2476 N   0  0  0  0  0  0  0  0  0  0  0  0
   24.9126  -23.2442  -16.8072 C   0  0  0  0  0  0  0  0  0  0  0  0
   24.9856  -23.1604  -15.3153 C   0  0  0  0  0  0  0  0  0  0  0  0
   23.8870  -22.3145  -14.7046 C   0  0  0  0  0  0  0  0  0  0  0  0
   22.9432  -23.2665  -13.9970 C   0  0  2  0  0  0  0  0  0  0  0  0
   22.3577  -24.1172  -15.0177 N   0  0  0  0  0  0  0  0  0  0  0  0
   21.9040  -22.5512  -13.2141 C   0  0  0  0  0  0  0  0  0  0  0  0
   22.2252  -21.7130  -12.3483 O   0  0  0  0  0  0  0  0  0  0  0  0
   28.0904  -25.5883  -17.1931 N   0  0  0  0  0  0  0  0  0  0  0  0
   20.5462  -22.8078  -13.4381 C   0  0  1  0  0  0  0  0  0  0  0  0
   19.4502  -22.1387  -12.7486 C   0  0  0  0  0  0  0  0  0  0  0  0
   18.7989  -21.2908  -13.8182 C   0  0  0  0  0  0  0  0  0  0  0  0
   17.6344  -20.6136  -13.1984 O   0  0  0  0  0  0  0  0  0  0  0  0
   17.7414  -20.1644  -12.0049 C   0  0  0  0  0  0  0  0  0  0  0  0
   18.5747  -23.1509  -12.1537 O   0  0  0  0  0  0  0  0  0  0  0  0
   18.1033  -24.0549  -12.8878 O   0  0  0  0  0  0  0  0  0  0  0  0
   16.4210  -20.4389  -13.8423 N   0  0  0  0  0  0  0  0  0  0  0  0
   18.2705  -23.1110  -10.7936 C   0  0  2  0  0  0  0  0  0  0  0  0
   17.3649  -24.1150  -10.2035 C   0  0  0  0  0  0  0  0  0  0  0  0
   17.5012  -23.9231   -8.7336 C   0  0  0  0  0  0  0  0  0  0  0  0
   18.2708  -24.9949   -8.0511 C   0  0  0  0  0  0  0  0  0  0  0  0
   18.4449  -24.7710   -6.5941 O   0  0  0  0  0  0  0  0  0  0  0  0
   19.1200  -25.6276   -5.9477 C   0  0  0  0  0  0  0  0  0  0  0  0
   16.0656  -24.0564  -10.8229 O   0  0  0  0  0  0  0  0  0  0  0  0
   15.3908  -25.2167  -11.2424 O   0  0  0  0  0  0  0  0  0  0  0  0
   17.9314  -23.7090   -5.8955 O   0  0  0  0  0  0  0  0  0  0  0  0
  2  3  2  0
  2  1  1  0
  4  2  1  0
  5  4  1  0
  6  5  1  0
  7  6  1  0
  8  7  1  0
  8  9  1  6
 10  8  1  0
 10 11  2  0
 12 10  1  0
 13 12  1  0
 13 14  1  1
 14 15  1  0
 15 16  2  0
 15 19  1  0
 17 13  1  0
 18 17  2  0
 20 17  1  0
 21 20  1  0
 21 22  1  1
 23 22  1  0
 24 23  1  0
 24 25  2  0
 26 21  1  0
 26 27  1  0
 28 24  1  0
 29 26  2  0
M  END
$$$$
