RDE.pdb
     RDKit          3D

 29 28  0  0  1  0  0  0  0  0999 V2000
   29.4661  -23.5407  -16.6434 N   0  0  0  0  0  0  0  0  0  0  0  0
   28.6102  -24.6510  -16.4015 C   0  0  0  0  0  0  0  0  0  0  0  0
   29.1544  -25.8166  -16.2177 N   0  0  0  0  0  0  0  0  0  0  0  0
   27.2088  -24.4714  -16.3668 N   0  0  0  0  0  0  0  0  0  0  0  0
   26.6284  -23.1753  -16.6105 C   0  0  0  0  0  0  0  0  0  0  0  0
   27.0181  -22.2902  -15.4690 C   0  0  0  0  0  0  0  0  0  0  0  0
   25.8334  -21.7330  -14.7066 C   0  0  0  0  0  0  0  0  0  0  0  0
   25.1091  -20.7924  -15.6491 C   0  0  2  0  0  0  0  0  0  0  0  0
   25.9888  -19.6592  -15.8736 N   0  0  0  0  0  0  0  0  0  0  0  0
   23.7895  -20.3678  -15.1171 C   0  0  0  0  0  0  0  0  0  0  0  0
   23.3166  -20.8988  -14.0925 O   0  0  0  0  0  0  0  0  0  0  0  0
   28.5621  -26.6470  -16.0847 N   0  0  0  0  0  0  0  0  0  0  0  0
   23.0566  -19.3629  -15.7594 C   0  0  2  0  0  0  0  0  0  0  0  0
   21.7271  -18.9201  -15.3586 C   0  0  0  0  0  0  0  0  0  0  0  0
   21.4419  -17.7365  -16.2559 C   0  0  0  0  0  0  0  0  0  0  0  0
   20.1154  -17.1978  -15.8700 O   0  0  0  0  0  0  0  0  0  0  0  0
   19.3315  -16.7661  -16.7849 C   0  0  0  0  0  0  0  0  0  0  0  0
   20.7906  -20.0367  -15.5038 O   0  0  0  0  0  0  0  0  0  0  0  0
   21.0608  -20.9556  -16.3168 O   0  0  0  0  0  0  0  0  0  0  0  0
   19.6700  -17.1304  -14.5605 N   0  0  0  0  0  0  0  0  0  0  0  0
   19.6182  -20.0785  -14.7504 C   0  0  2  0  0  0  0  0  0  0  0  0
   18.7672  -21.2834  -14.7635 C   0  0  0  0  0  0  0  0  0  0  0  0
   19.6770  -22.3881  -14.3542 C   0  0  0  0  0  0  0  0  0  0  0  0
   19.0055  -23.7057  -14.2124 C   0  0  0  0  0  0  0  0  0  0  0  0
   19.9297  -24.8134  -13.8631 O   0  0  0  0  0  0  0  0  0  0  0  0
   20.0553  -25.1046  -12.6356 C   0  0  0  0  0  0  0  0  0  0  0  0
   17.5423  -21.0505  -14.0419 O   0  0  0  0  0  0  0  0  0  0  0  0
   17.4748  -20.1453  -12.9678 O   0  0  0  0  0  0  0  0  0  0  0  0
   20.6566  -25.5446  -14.7666 O   0  0  0  0  0  0  0  0  0  0  0  0
  2  3  2  0
  2  1  1  0
  4  2  1  0
  5  4  1  0
  6  5  1  0
  7  6  1  0
  8  7  1  0
  8  9  1  1
 10  8  1  0
 10 11  2  0
 12 10  1  0
 13 12  1  0
 13 14  1  6
 14 15  1  0
 15 16  2  0
 15 19  1  0
 17 13  1  0
 18 17  2  0
 20 17  1  0
 21 20  1  0
 21 22  1  6
 23 22  1  0
 24 23  1  0
 24 25  2  0
 26 21  1  0
 26 27  1  0
 28 24  1  0
 29 26  2  0
M  END
$$$$
