RDE.pdb
     RDKit          3D

 29 28  0  0  1  0  0  0  0  0999 V2000
   26.1961  -18.2210  -18.8925 N   0  0  0  0  0  0  0  0  0  0  0  0
   26.4397  -17.1647  -19.8138 C   0  0  0  0  0  0  0  0  0  0  0  0
   27.2263  -17.3986  -20.8214 N   0  0  0  0  0  0  0  0  0  0  0  0
   25.8347  -15.9022  -19.6209 N   0  0  0  0  0  0  0  0  0  0  0  0
   25.0891  -15.6210  -18.4205 C   0  0  0  0  0  0  0  0  0  0  0  0
   24.5157  -14.2466  -18.5631 C   0  0  0  0  0  0  0  0  0  0  0  0
   23.6911  -13.8106  -17.3693 C   0  0  0  0  0  0  0  0  0  0  0  0
   24.2669  -12.4900  -16.8979 C   0  0  2  0  0  0  0  0  0  0  0  0
   25.5600  -12.7807  -16.3047 N   0  0  0  0  0  0  0  0  0  0  0  0
   23.3682  -11.7921  -15.9440 C   0  0  0  0  0  0  0  0  0  0  0  0
   23.0469  -12.3286  -14.8650 O   0  0  0  0  0  0  0  0  0  0  0  0
   27.4790  -16.6377  -21.4658 N   0  0  0  0  0  0  0  0  0  0  0  0
   22.8686  -10.5191  -16.2432 C   0  0  1  0  0  0  0  0  0  0  0  0
   21.9211   -9.7836  -15.4151 C   0  0  0  0  0  0  0  0  0  0  0  0
   22.5895   -8.4474  -15.1807 C   0  0  0  0  0  0  0  0  0  0  0  0
   21.6952   -7.6525  -14.3049 O   0  0  0  0  0  0  0  0  0  0  0  0
   20.6786   -8.2223  -13.7759 C   0  0  0  0  0  0  0  0  0  0  0  0
   20.6364   -9.7100  -16.1143 O   0  0  0  0  0  0  0  0  0  0  0  0
   20.5855   -9.1459  -17.2357 O   0  0  0  0  0  0  0  0  0  0  0  0
   21.8959   -6.3114  -14.0242 N   0  0  0  0  0  0  0  0  0  0  0  0
   19.4886  -10.2584  -15.5436 C   0  0  2  0  0  0  0  0  0  0  0  0
   18.1889  -10.1485  -16.2327 C   0  0  0  0  0  0  0  0  0  0  0  0
   17.5888  -11.5059  -16.1176 C   0  0  0  0  0  0  0  0  0  0  0  0
   16.9399  -11.7730  -14.8082 C   0  0  0  0  0  0  0  0  0  0  0  0
   16.3431  -13.1279  -14.7019 O   0  0  0  0  0  0  0  0  0  0  0  0
   15.0837  -13.2221  -14.8135 C   0  0  0  0  0  0  0  0  0  0  0  0
   17.4616   -8.9948  -15.7687 O   0  0  0  0  0  0  0  0  0  0  0  0
   16.3075   -8.5319  -16.4254 O   0  0  0  0  0  0  0  0  0  0  0  0
   17.0500  -14.2836  -14.4925 O   0  0  0  0  0  0  0  0  0  0  0  0
  2  3  2  0
  2  1  1  0
  4  2  1  0
  5  4  1  0
  6  5  1  0
  7  6  1  0
  8  7  1  0
  8  9  1  1
 10  8  1  0
 10 11  2  0
 12 10  1  0
 13 12  1  0
 13 14  1  6
 14 15  1  0
 15 16  2  0
 15 19  1  0
 17 13  1  0
 18 17  2  0
 20 17  1  0
 21 20  1  0
 21 22  1  1
 23 22  1  0
 24 23  1  0
 24 25  2  0
 26 21  1  0
 26 27  1  0
 28 24  1  0
 29 26  2  0
M  END
$$$$
