RDE.pdb
     RDKit          3D

 29 28  0  0  1  0  0  0  0  0999 V2000
   21.3359  -24.4048  -13.9000 N   0  0  0  0  0  0  0  0  0  0  0  0
   21.1860  -23.0091  -13.6690 C   0  0  0  0  0  0  0  0  0  0  0  0
   19.9960  -22.4957  -13.7645 N   0  0  0  0  0  0  0  0  0  0  0  0
   22.3124  -22.2190  -13.3466 N   0  0  0  0  0  0  0  0  0  0  0  0
   23.6140  -22.8199  -13.2029 C   0  0  0  0  0  0  0  0  0  0  0  0
   24.5664  -21.7338  -12.8136 C   0  0  0  0  0  0  0  0  0  0  0  0
   26.0026  -22.2030  -12.7014 C   0  0  0  0  0  0  0  0  0  0  0  0
   26.8366  -20.9834  -12.3627 C   0  0  2  0  0  0  0  0  0  0  0  0
   26.4751  -20.5858  -11.0138 N   0  0  0  0  0  0  0  0  0  0  0  0
   26.6385  -19.8781  -13.3341 C   0  0  0  0  0  0  0  0  0  0  0  0
   25.8948  -18.9155  -13.0585 O   0  0  0  0  0  0  0  0  0  0  0  0
   19.8481  -21.4968  -13.5682 N   0  0  0  0  0  0  0  0  0  0  0  0
   27.2855  -19.9010  -14.5752 C   0  0  2  0  0  0  0  0  0  0  0  0
   27.1775  -18.8574  -15.5870 C   0  0  0  0  0  0  0  0  0  0  0  0
   28.3706  -19.0863  -16.4877 C   0  0  0  0  0  0  0  0  0  0  0  0
   28.3782  -18.0001  -17.4971 O   0  0  0  0  0  0  0  0  0  0  0  0
   27.5407  -17.0395  -17.3807 C   0  0  0  0  0  0  0  0  0  0  0  0
   25.8781  -18.9736  -16.2525 O   0  0  0  0  0  0  0  0  0  0  0  0
   25.5091  -20.0979  -16.6744 O   0  0  0  0  0  0  0  0  0  0  0  0
   29.2476  -17.9649  -18.5744 N   0  0  0  0  0  0  0  0  0  0  0  0
   25.0641  -17.8533  -16.4141 C   0  0  2  0  0  0  0  0  0  0  0  0
   23.7508  -17.9762  -17.0748 C   0  0  0  0  0  0  0  0  0  0  0  0
   22.8940  -16.9671  -16.3941 C   0  0  0  0  0  0  0  0  0  0  0  0
   21.5171  -16.8710  -16.9436 C   0  0  0  0  0  0  0  0  0  0  0  0
   20.6977  -15.8017  -16.3203 O   0  0  0  0  0  0  0  0  0  0  0  0
   20.7974  -15.6452  -15.0661 C   0  0  0  0  0  0  0  0  0  0  0  0
   23.8967  -17.9522  -18.5078 O   0  0  0  0  0  0  0  0  0  0  0  0
   23.0919  -18.7414  -19.3487 O   0  0  0  0  0  0  0  0  0  0  0  0
   19.8424  -14.9716  -16.9977 O   0  0  0  0  0  0  0  0  0  0  0  0
  2  3  2  0
  2  1  1  0
  4  2  1  0
  5  4  1  0
  6  5  1  0
  7  6  1  0
  8  7  1  0
  8  9  1  1
 10  8  1  0
 10 11  2  0
 12 10  1  0
 13 12  1  0
 13 14  1  6
 14 15  1  0
 15 16  2  0
 15 19  1  0
 17 13  1  0
 18 17  2  0
 20 17  1  0
 21 20  1  0
 21 22  1  1
 23 22  1  0
 24 23  1  0
 24 25  2  0
 26 21  1  0
 26 27  1  0
 28 24  1  0
 29 26  2  0
M  END
$$$$
