RDE.pdb
     RDKit          3D

 29 28  0  0  1  0  0  0  0  0999 V2000
   16.3809  -14.4576   -9.6270 N   0  0  0  0  0  0  0  0  0  0  0  0
   15.1308  -15.0437   -9.9696 C   0  0  0  0  0  0  0  0  0  0  0  0
   14.7584  -16.1122   -9.3304 N   0  0  0  0  0  0  0  0  0  0  0  0
   14.3304  -14.4660  -10.9809 N   0  0  0  0  0  0  0  0  0  0  0  0
   14.7242  -13.2333  -11.6144 C   0  0  0  0  0  0  0  0  0  0  0  0
   13.9924  -12.1245  -10.9265 C   0  0  0  0  0  0  0  0  0  0  0  0
   14.1779  -10.7760  -11.5917 C   0  0  0  0  0  0  0  0  0  0  0  0
   13.3808   -9.7739  -10.7803 C   0  0  2  0  0  0  0  0  0  0  0  0
   12.0523   -9.7193  -11.3638 N   0  0  0  0  0  0  0  0  0  0  0  0
   14.0237   -8.4358  -10.7491 C   0  0  0  0  0  0  0  0  0  0  0  0
   13.8310   -7.6166  -11.6696 O   0  0  0  0  0  0  0  0  0  0  0  0
   13.8371  -16.5299   -9.5172 N   0  0  0  0  0  0  0  0  0  0  0  0
   14.8561   -8.0744   -9.6833 C   0  0  2  0  0  0  0  0  0  0  0  0
   15.5786   -6.8123   -9.5855 C   0  0  0  0  0  0  0  0  0  0  0  0
   15.3797   -6.3789   -8.1503 C   0  0  0  0  0  0  0  0  0  0  0  0
   15.9165   -5.0023   -8.0249 O   0  0  0  0  0  0  0  0  0  0  0  0
   15.8900   -4.4282   -6.8815 C   0  0  0  0  0  0  0  0  0  0  0  0
   16.9746   -7.0330   -9.9694 O   0  0  0  0  0  0  0  0  0  0  0  0
   17.6929   -7.7736   -9.2525 O   0  0  0  0  0  0  0  0  0  0  0  0
   16.4490   -4.2907   -9.0869 N   0  0  0  0  0  0  0  0  0  0  0  0
   17.4968   -6.4306  -11.1132 C   0  0  1  0  0  0  0  0  0  0  0  0
   18.8678   -6.7430  -11.5595 C   0  0  0  0  0  0  0  0  0  0  0  0
   18.7337   -8.0195  -12.3134 C   0  0  0  0  0  0  0  0  0  0  0  0
   19.9938   -8.4837  -12.9487 C   0  0  0  0  0  0  0  0  0  0  0  0
   19.8546   -9.7630  -13.6885 O   0  0  0  0  0  0  0  0  0  0  0  0
   19.5509  -10.7955  -13.0183 C   0  0  0  0  0  0  0  0  0  0  0  0
   19.4750   -5.5952  -12.1833 O   0  0  0  0  0  0  0  0  0  0  0  0
   18.7144   -4.4884  -12.6005 O   0  0  0  0  0  0  0  0  0  0  0  0
   20.0294   -9.9121  -15.0400 O   0  0  0  0  0  0  0  0  0  0  0  0
  2  3  2  0
  2  1  1  0
  4  2  1  0
  5  4  1  0
  6  5  1  0
  7  6  1  0
  8  7  1  0
  8  9  1  6
 10  8  1  0
 10 11  2  0
 12 10  1  0
 13 12  1  0
 13 14  1  1
 14 15  1  0
 15 16  2  0
 15 19  1  0
 17 13  1  0
 18 17  2  0
 20 17  1  0
 21 20  1  0
 21 22  1  1
 23 22  1  0
 24 23  1  0
 24 25  2  0
 26 21  1  0
 26 27  1  0
 28 24  1  0
 29 26  2  0
M  END
$$$$
