RDE.pdb
     RDKit          3D

 29 28  0  0  1  0  0  0  0  0999 V2000
   27.5001  -24.8682  -16.8652 N   0  0  0  0  0  0  0  0  0  0  0  0
   28.7510  -24.3234  -17.2681 C   0  0  0  0  0  0  0  0  0  0  0  0
   29.4313  -24.9555  -18.1772 N   0  0  0  0  0  0  0  0  0  0  0  0
   29.2244  -23.1271  -16.6835 N   0  0  0  0  0  0  0  0  0  0  0  0
   28.3917  -22.3697  -15.7840 C   0  0  0  0  0  0  0  0  0  0  0  0
   28.1462  -21.0373  -16.4186 C   0  0  0  0  0  0  0  0  0  0  0  0
   27.3367  -20.0960  -15.5502 C   0  0  0  0  0  0  0  0  0  0  0  0
   25.9380  -20.6737  -15.4638 C   0  0  2  0  0  0  0  0  0  0  0  0
   25.7452  -21.4926  -16.6472 N   0  0  0  0  0  0  0  0  0  0  0  0
   24.8991  -19.6190  -15.3491 C   0  0  0  0  0  0  0  0  0  0  0  0
   24.9619  -18.7606  -14.4465 O   0  0  0  0  0  0  0  0  0  0  0  0
   30.3403  -24.5887  -18.4890 N   0  0  0  0  0  0  0  0  0  0  0  0
   23.8329  -19.5733  -16.2550 C   0  0  2  0  0  0  0  0  0  0  0  0
   22.7525  -18.5957  -16.2165 C   0  0  0  0  0  0  0  0  0  0  0  0
   22.8062  -17.9269  -17.5719 C   0  0  0  0  0  0  0  0  0  0  0  0
   23.9908  -17.0350  -17.5789 O   0  0  0  0  0  0  0  0  0  0  0  0
   24.9530  -17.2883  -18.3837 C   0  0  0  0  0  0  0  0  0  0  0  0
   21.4951  -19.2884  -15.9263 O   0  0  0  0  0  0  0  0  0  0  0  0
   21.3313  -20.4574  -16.3563 O   0  0  0  0  0  0  0  0  0  0  0  0
   24.1204  -15.9312  -16.7527 N   0  0  0  0  0  0  0  0  0  0  0  0
   20.4967  -18.6594  -15.1837 C   0  0  2  0  0  0  0  0  0  0  0  0
   19.2935  -19.4064  -14.7707 C   0  0  0  0  0  0  0  0  0  0  0  0
   19.7902  -20.3931  -13.7729 C   0  0  0  0  0  0  0  0  0  0  0  0
   18.7264  -21.2438  -13.1800 C   0  0  0  0  0  0  0  0  0  0  0  0
   19.2354  -22.2570  -12.2221 O   0  0  0  0  0  0  0  0  0  0  0  0
   18.3826  -23.0003  -11.6496 C   0  0  0  0  0  0  0  0  0  0  0  0
   18.2262  -18.5029  -14.4246 O   0  0  0  0  0  0  0  0  0  0  0  0
   18.4191  -17.1108  -14.3759 O   0  0  0  0  0  0  0  0  0  0  0  0
   20.5564  -22.4496  -11.9102 O   0  0  0  0  0  0  0  0  0  0  0  0
  2  3  2  0
  2  1  1  0
  4  2  1  0
  5  4  1  0
  6  5  1  0
  7  6  1  0
  8  7  1  0
  8  9  1  6
 10  8  1  0
 10 11  2  0
 12 10  1  0
 13 12  1  0
 13 14  1  1
 14 15  1  0
 15 16  2  0
 15 19  1  0
 17 13  1  0
 18 17  2  0
 20 17  1  0
 21 20  1  0
 21 22  1  6
 23 22  1  0
 24 23  1  0
 24 25  2  0
 26 21  1  0
 26 27  1  0
 28 24  1  0
 29 26  2  0
M  END
$$$$
