RDE.pdb
     RDKit          3D

 29 28  0  0  1  0  0  0  0  0999 V2000
   29.9722  -24.4097  -16.0661 N   0  0  0  0  0  0  0  0  0  0  0  0
   28.8755  -24.9639  -16.7829 C   0  0  0  0  0  0  0  0  0  0  0  0
   28.6518  -26.2392  -16.6723 N   0  0  0  0  0  0  0  0  0  0  0  0
   28.0635  -24.1342  -17.5889 N   0  0  0  0  0  0  0  0  0  0  0  0
   28.1958  -22.7005  -17.5338 C   0  0  0  0  0  0  0  0  0  0  0  0
   27.7331  -22.2615  -16.1805 C   0  0  0  0  0  0  0  0  0  0  0  0
   26.2580  -21.9196  -16.1294 C   0  0  0  0  0  0  0  0  0  0  0  0
   26.0694  -20.6677  -16.9630 C   0  0  2  0  0  0  0  0  0  0  0  0
   27.3202  -19.9323  -16.9097 N   0  0  0  0  0  0  0  0  0  0  0  0
   24.9266  -19.8447  -16.4925 C   0  0  0  0  0  0  0  0  0  0  0  0
   24.7385  -19.6557  -15.2742 O   0  0  0  0  0  0  0  0  0  0  0  0
   27.8616  -26.6692  -17.1711 N   0  0  0  0  0  0  0  0  0  0  0  0
   24.0429  -19.2677  -17.4122 C   0  0  1  0  0  0  0  0  0  0  0  0
   22.9508  -18.3683  -17.0619 C   0  0  0  0  0  0  0  0  0  0  0  0
   22.6778  -17.5994  -18.3353 C   0  0  0  0  0  0  0  0  0  0  0  0
   23.6174  -16.4528  -18.3703 O   0  0  0  0  0  0  0  0  0  0  0  0
   24.4181  -16.2770  -17.3876 C   0  0  0  0  0  0  0  0  0  0  0  0
   21.8208  -19.1611  -16.5725 O   0  0  0  0  0  0  0  0  0  0  0  0
   21.5910  -20.2801  -17.0952 O   0  0  0  0  0  0  0  0  0  0  0  0
   23.6783  -15.5471  -19.4161 N   0  0  0  0  0  0  0  0  0  0  0  0
   21.0138  -18.6805  -15.5421 C   0  0  2  0  0  0  0  0  0  0  0  0
   19.9823  -19.5456  -14.9390 C   0  0  0  0  0  0  0  0  0  0  0  0
   20.0848  -19.2858  -13.4768 C   0  0  0  0  0  0  0  0  0  0  0  0
   21.2184  -19.9816  -12.8153 C   0  0  0  0  0  0  0  0  0  0  0  0
   21.3843  -19.6271  -11.3835 O   0  0  0  0  0  0  0  0  0  0  0  0
   20.6005  -18.7540  -10.9031 C   0  0  0  0  0  0  0  0  0  0  0  0
   18.7210  -19.3829  -15.6155 O   0  0  0  0  0  0  0  0  0  0  0  0
   17.6944  -20.3384  -15.5110 O   0  0  0  0  0  0  0  0  0  0  0  0
   22.3197  -20.1720  -10.5424 O   0  0  0  0  0  0  0  0  0  0  0  0
  2  3  2  0
  2  1  1  0
  4  2  1  0
  5  4  1  0
  6  5  1  0
  7  6  1  0
  8  7  1  0
  8  9  1  1
 10  8  1  0
 10 11  2  0
 12 10  1  0
 13 12  1  0
 13 14  1  1
 14 15  1  0
 15 16  2  0
 15 19  1  0
 17 13  1  0
 18 17  2  0
 20 17  1  0
 21 20  1  0
 21 22  1  1
 23 22  1  0
 24 23  1  0
 24 25  2  0
 26 21  1  0
 26 27  1  0
 28 24  1  0
 29 26  2  0
M  END
$$$$
