RDE.pdb
     RDKit          3D

 29 28  0  0  1  0  0  0  0  0999 V2000
   31.0032  -21.8801   -9.0781 N   0  0  0  0  0  0  0  0  0  0  0  0
   30.4503  -21.7621  -10.3836 C   0  0  0  0  0  0  0  0  0  0  0  0
   31.2450  -21.4386  -11.3595 N   0  0  0  0  0  0  0  0  0  0  0  0
   29.0719  -21.9932  -10.5931 N   0  0  0  0  0  0  0  0  0  0  0  0
   28.2713  -21.0448  -11.3250 C   0  0  0  0  0  0  0  0  0  0  0  0
   27.2620  -21.8234  -12.1080 C   0  0  0  0  0  0  0  0  0  0  0  0
   25.8885  -21.8439  -11.4690 C   0  0  0  0  0  0  0  0  0  0  0  0
   25.2754  -20.4778  -11.7044 C   0  0  2  0  0  0  0  0  0  0  0  0
   25.2854  -19.7847  -10.4285 N   0  0  0  0  0  0  0  0  0  0  0  0
   23.9064  -20.5651  -12.2725 C   0  0  0  0  0  0  0  0  0  0  0  0
   23.7067  -21.1324  -13.3651 O   0  0  0  0  0  0  0  0  0  0  0  0
   30.8686  -21.3010  -12.3069 N   0  0  0  0  0  0  0  0  0  0  0  0
   22.8184  -20.0111  -11.5878 C   0  0  1  0  0  0  0  0  0  0  0  0
   21.4194  -20.2689  -11.9052 C   0  0  0  0  0  0  0  0  0  0  0  0
   20.6651  -19.7837  -10.6875 C   0  0  0  0  0  0  0  0  0  0  0  0
   19.2390  -20.1426  -10.8779 O   0  0  0  0  0  0  0  0  0  0  0  0
   18.4030  -19.8767   -9.9461 C   0  0  0  0  0  0  0  0  0  0  0  0
   21.0795  -19.5770  -13.1505 O   0  0  0  0  0  0  0  0  0  0  0  0
   20.9625  -18.3262  -13.1391 O   0  0  0  0  0  0  0  0  0  0  0  0
   18.7526  -20.7596  -12.0181 N   0  0  0  0  0  0  0  0  0  0  0  0
   20.8897  -20.2964  -14.3296 C   0  0  2  0  0  0  0  0  0  0  0  0
   20.5686  -19.5943  -15.5867 C   0  0  0  0  0  0  0  0  0  0  0  0
   21.5513  -20.1232  -16.5718 C   0  0  0  0  0  0  0  0  0  0  0  0
   21.3709  -19.5984  -17.9498 C   0  0  0  0  0  0  0  0  0  0  0  0
   22.3046  -20.1885  -18.9415 O   0  0  0  0  0  0  0  0  0  0  0  0
   21.9544  -21.2704  -19.5021 C   0  0  0  0  0  0  0  0  0  0  0  0
   19.1569  -19.6653  -15.8643 O   0  0  0  0  0  0  0  0  0  0  0  0
   18.5321  -18.7822  -16.7628 O   0  0  0  0  0  0  0  0  0  0  0  0
   23.5154  -19.6525  -19.2965 O   0  0  0  0  0  0  0  0  0  0  0  0
  2  3  2  0
  2  1  1  0
  4  2  1  0
  5  4  1  0
  6  5  1  0
  7  6  1  0
  8  7  1  0
  8  9  1  1
 10  8  1  0
 10 11  2  0
 12 10  1  0
 13 12  1  0
 13 14  1  6
 14 15  1  0
 15 16  2  0
 15 19  1  0
 17 13  1  0
 18 17  2  0
 20 17  1  0
 21 20  1  0
 21 22  1  1
 23 22  1  0
 24 23  1  0
 24 25  2  0
 26 21  1  0
 26 27  1  0
 28 24  1  0
 29 26  2  0
M  END
$$$$
