RDE.pdb
     RDKit          3D

 29 28  0  0  1  0  0  0  0  0999 V2000
   25.7895  -20.5869   -9.1166 N   0  0  0  0  0  0  0  0  0  0  0  0
   24.3883  -20.7979   -8.9914 C   0  0  0  0  0  0  0  0  0  0  0  0
   23.9217  -21.1465   -7.8297 N   0  0  0  0  0  0  0  0  0  0  0  0
   23.5431  -20.6292  -10.1115 N   0  0  0  0  0  0  0  0  0  0  0  0
   23.4726  -21.6390  -11.1368 C   0  0  0  0  0  0  0  0  0  0  0  0
   24.4183  -21.2373  -12.2243 C   0  0  0  0  0  0  0  0  0  0  0  0
   24.3924  -22.1678  -13.4197 C   0  0  0  0  0  0  0  0  0  0  0  0
   25.4561  -21.6756  -14.3810 C   0  0  2  0  0  0  0  0  0  0  0  0
   26.6807  -21.5260  -13.6154 N   0  0  0  0  0  0  0  0  0  0  0  0
   25.0674  -20.4086  -15.0505 C   0  0  0  0  0  0  0  0  0  0  0  0
   25.1848  -19.3160  -14.4606 O   0  0  0  0  0  0  0  0  0  0  0  0
   22.9154  -21.3231   -7.7101 N   0  0  0  0  0  0  0  0  0  0  0  0
   24.5632  -20.4230  -16.3563 C   0  0  1  0  0  0  0  0  0  0  0  0
   24.1692  -19.2374  -17.1071 C   0  0  0  0  0  0  0  0  0  0  0  0
   24.7408  -19.4639  -18.4888 C   0  0  0  0  0  0  0  0  0  0  0  0
   24.5484  -18.2111  -19.2584 O   0  0  0  0  0  0  0  0  0  0  0  0
   23.9390  -17.2310  -18.7054 C   0  0  0  0  0  0  0  0  0  0  0  0
   22.7109  -19.1095  -17.0623 O   0  0  0  0  0  0  0  0  0  0  0  0
   22.0222  -20.1093  -16.7393 O   0  0  0  0  0  0  0  0  0  0  0  0
   24.9925  -18.0378  -20.5586 N   0  0  0  0  0  0  0  0  0  0  0  0
   22.0979  -17.8964  -17.3730 C   0  0  1  0  0  0  0  0  0  0  0  0
   20.6705  -17.6837  -17.0671 C   0  0  0  0  0  0  0  0  0  0  0  0
   20.3970  -18.5843  -15.9139 C   0  0  0  0  0  0  0  0  0  0  0  0
   19.0146  -18.4825  -15.3796 C   0  0  0  0  0  0  0  0  0  0  0  0
   18.7639  -19.3484  -14.2003 O   0  0  0  0  0  0  0  0  0  0  0  0
   19.7621  -19.6669  -13.4865 C   0  0  0  0  0  0  0  0  0  0  0  0
   20.3733  -16.2773  -16.9726 O   0  0  0  0  0  0  0  0  0  0  0  0
   19.1638  -15.7409  -17.4491 O   0  0  0  0  0  0  0  0  0  0  0  0
   17.5361  -19.8292  -13.8253 O   0  0  0  0  0  0  0  0  0  0  0  0
  2  3  2  0
  2  1  1  0
  4  2  1  0
  5  4  1  0
  6  5  1  0
  7  6  1  0
  8  7  1  0
  8  9  1  1
 10  8  1  0
 10 11  2  0
 12 10  1  0
 13 12  1  0
 13 14  1  6
 14 15  1  0
 15 16  2  0
 15 19  1  0
 17 13  1  0
 18 17  2  0
 20 17  1  0
 21 20  1  0
 21 22  1  6
 23 22  1  0
 24 23  1  0
 24 25  2  0
 26 21  1  0
 26 27  1  0
 28 24  1  0
 29 26  2  0
M  END
$$$$
