RTW.pdb
     RDKit          3D

 33 34  0  0  1  0  0  0  0  0999 V2000
    7.4556  -12.5571   15.8241 N   0  0  0  0  0  0  0  0  0  0  0  0
    8.0324  -13.6052   15.0344 C   0  0  0  0  0  0  0  0  0  0  0  0
    7.6611  -13.7166   13.8174 N   0  0  0  0  0  0  0  0  0  0  0  0
    8.9840  -14.4797   15.6068 N   0  0  0  0  0  0  0  0  0  0  0  0
    8.8017  -15.9304   15.4619 C   0  0  0  0  0  0  0  0  0  0  0  0
    9.8188  -16.6412   16.3167 C   0  0  0  0  0  0  0  0  0  0  0  0
   10.2258  -15.8956   17.5306 C   0  0  0  0  0  0  0  0  0  0  0  0
   10.1416  -16.6485   18.8064 C   0  0  2  0  0  0  0  0  0  0  0  0
    9.4517  -17.8892   18.7885 N   0  0  0  0  0  0  0  0  0  0  0  0
    9.6681  -15.7493   19.9132 C   0  0  0  0  0  0  0  0  0  0  0  0
    9.2504  -14.5893   19.6829 O   0  0  0  0  0  0  0  0  0  0  0  0
    7.9358  -14.5135   13.2038 C   0  0  0  0  0  0  0  0  0  0  0  0
    7.3174  -14.4690   20.7607 C   0  0  2  0  0  0  0  0  0  0  0  0
    7.6445  -15.2298   22.0076 O   0  0  0  0  0  0  0  0  0  0  0  0
    7.0595  -16.4941   21.9106 C   0  0  2  0  0  0  0  0  0  0  0  0
    9.1199  -15.3290   22.3114 N   0  0  0  0  0  0  0  0  0  0  0  0
    9.6854  -16.2018   21.2557 C   0  0  0  0  0  0  0  0  0  0  0  0
    9.4313  -15.9988   23.5910 O   0  0  0  0  0  0  0  0  0  0  0  0
    9.0204  -17.1941   23.8115 N   0  0  0  0  0  0  0  0  0  0  0  0
   10.1706  -15.4584   24.6679 C   0  0  2  0  0  0  0  0  0  0  0  0
   10.3352  -16.1276   25.9385 C   0  0  0  0  0  0  0  0  0  0  0  0
    9.7324  -15.4020   27.1099 C   0  0  0  0  0  0  0  0  0  0  0  0
    8.3485  -15.0025   26.8352 C   0  0  0  0  0  0  0  0  0  0  0  0
    7.3036  -15.8684   26.4920 N   0  0  0  0  0  0  0  0  0  0  0  0
    6.2338  -15.0994   26.3017 C   0  0  0  0  0  0  0  0  0  0  0  0
    6.5065  -13.7890   26.4976 C   0  0  0  0  0  0  0  0  0  0  0  0
    5.7341  -12.6530   26.4266 C   0  0  0  0  0  0  0  0  0  0  0  0
    6.3011  -11.4362   26.6971 C   0  0  0  0  0  0  0  0  0  0  0  0
    7.6415  -11.3598   27.0386 C   0  0  0  0  0  0  0  0  0  0  0  0
    8.4314  -12.4859   27.1146 C   0  0  0  0  0  0  0  0  0  0  0  0
    7.8608  -13.7215   26.8402 C   0  0  0  0  0  0  0  0  0  0  0  0
    9.7999  -17.4942   25.8075 O   0  0  0  0  0  0  0  0  0  0  0  0
    9.2441  -17.9050   24.6166 O   0  0  0  0  0  0  0  0  0  0  0  0
  2  4  1  0
  2  1  1  0
  3  2  2  0
  5  4  1  0
  6  5  1  0
  7  6  1  0
  8  7  1  0
  8  9  1  6
 10  8  1  0
 11 10  2  0
 13 12  1  1
 13 14  1  0
 13 15  1  0
 15 17  1  0
 15 16  1  1
 16 10  1  0
 17 18  2  0
 19 20  1  0
 19 17  1  0
 20 21  1  6
 20 31  1  0
 21 22  1  0
 22 30  1  0
 23 22  2  0
 23 24  1  0
 24 25  1  0
 25 26  1  0
 26 27  2  0
 28 27  1  0
 29 28  2  0
 30 25  2  0
 30 29  1  0
 31 33  2  0
 31 32  1  0
M  END
$$$$
