RTW.pdb
     RDKit          3D

 33 34  0  0  1  0  0  0  0  0999 V2000
    8.7788  -13.5255   14.0016 N   0  0  0  0  0  0  0  0  0  0  0  0
    9.1190  -14.7161   14.7238 C   0  0  0  0  0  0  0  0  0  0  0  0
   10.2357  -15.2794   14.4649 N   0  0  0  0  0  0  0  0  0  0  0  0
    8.2287  -15.2349   15.6913 N   0  0  0  0  0  0  0  0  0  0  0  0
    7.2987  -14.3226   16.3708 C   0  0  0  0  0  0  0  0  0  0  0  0
    8.0887  -13.3440   17.2007 C   0  0  0  0  0  0  0  0  0  0  0  0
    7.9272  -13.5127   18.6638 C   0  0  0  0  0  0  0  0  0  0  0  0
    9.1189  -14.0192   19.3884 C   0  0  2  0  0  0  0  0  0  0  0  0
   10.1785  -14.5543   18.6095 N   0  0  0  0  0  0  0  0  0  0  0  0
    8.7021  -14.9454   20.4958 C   0  0  0  0  0  0  0  0  0  0  0  0
    7.6399  -14.7644   21.1378 O   0  0  0  0  0  0  0  0  0  0  0  0
   10.5278  -16.1917   14.8763 C   0  0  0  0  0  0  0  0  0  0  0  0
    8.7313  -18.8391   20.2266 C   0  0  2  0  0  0  0  0  0  0  0  0
    9.4499  -18.3576   21.4483 O   0  0  0  0  0  0  0  0  0  0  0  0
   10.8224  -18.4348   21.2031 C   0  0  2  0  0  0  0  0  0  0  0  0
    9.0504  -16.9753   21.9053 N   0  0  0  0  0  0  0  0  0  0  0  0
    9.5130  -16.0551   20.8398 C   0  0  0  0  0  0  0  0  0  0  0  0
    9.7262  -16.5266   23.1402 O   0  0  0  0  0  0  0  0  0  0  0  0
   10.8521  -15.9149   23.0749 N   0  0  0  0  0  0  0  0  0  0  0  0
    9.2613  -16.6940   24.4647 C   0  0  1  0  0  0  0  0  0  0  0  0
   10.0415  -16.3551   25.6332 C   0  0  0  0  0  0  0  0  0  0  0  0
    9.7070  -15.0216   26.2431 C   0  0  0  0  0  0  0  0  0  0  0  0
    8.2693  -14.7442   26.1634 C   0  0  0  0  0  0  0  0  0  0  0  0
    7.2627  -15.7029   25.9986 N   0  0  0  0  0  0  0  0  0  0  0  0
    6.1157  -15.0292   25.9471 C   0  0  0  0  0  0  0  0  0  0  0  0
    6.3023  -13.6947   26.0675 C   0  0  0  0  0  0  0  0  0  0  0  0
    5.4348  -12.6274   26.0810 C   0  0  0  0  0  0  0  0  0  0  0  0
    5.9301  -11.3600   26.2347 C   0  0  0  0  0  0  0  0  0  0  0  0
    7.2944  -11.1644   26.3747 C   0  0  0  0  0  0  0  0  0  0  0  0
    8.1791  -12.2203   26.3633 C   0  0  0  0  0  0  0  0  0  0  0  0
    7.6812  -13.5069   26.2068 C   0  0  0  0  0  0  0  0  0  0  0  0
    9.9046  -17.4519   26.6077 O   0  0  0  0  0  0  0  0  0  0  0  0
   10.7180  -17.4923   27.7179 O   0  0  0  0  0  0  0  0  0  0  0  0
  2  4  1  0
  2  1  1  0
  3  2  2  0
  5  4  1  0
  6  5  1  0
  7  6  1  0
  8  7  1  0
  8  9  1  6
 10  8  1  0
 11 10  2  0
 13 12  1  1
 13 14  1  0
 13 15  1  0
 15 17  1  0
 15 16  1  1
 16 10  1  0
 17 18  2  0
 19 20  1  0
 19 17  1  0
 20 21  1  1
 20 31  1  0
 21 22  1  0
 22 30  1  0
 23 22  2  0
 23 24  1  0
 24 25  1  0
 25 26  1  0
 26 27  2  0
 28 27  1  0
 29 28  2  0
 30 25  2  0
 30 29  1  0
 31 33  2  0
 31 32  1  0
M  END
$$$$
