RTW.pdb
     RDKit          3D

 33 34  0  0  1  0  0  0  0  0999 V2000
    9.6710  -23.2690   20.7908 N   0  0  0  0  0  0  0  0  0  0  0  0
   10.9394  -22.8179   20.2982 C   0  0  0  0  0  0  0  0  0  0  0  0
   11.6257  -23.6192   19.5784 N   0  0  0  0  0  0  0  0  0  0  0  0
   11.3983  -21.5184   20.6124 N   0  0  0  0  0  0  0  0  0  0  0  0
   10.7263  -20.3573   20.0134 C   0  0  0  0  0  0  0  0  0  0  0  0
    9.2836  -20.7054   19.7521 C   0  0  0  0  0  0  0  0  0  0  0  0
    8.3192  -19.6521   20.1466 C   0  0  0  0  0  0  0  0  0  0  0  0
    8.1644  -18.5301   19.1881 C   0  0  2  0  0  0  0  0  0  0  0  0
    8.6077  -18.7427   17.8562 N   0  0  0  0  0  0  0  0  0  0  0  0
    8.7147  -17.2614   19.7759 C   0  0  0  0  0  0  0  0  0  0  0  0
    9.9226  -16.9489   19.6480 O   0  0  0  0  0  0  0  0  0  0  0  0
   12.5988  -23.4177   19.2628 C   0  0  0  0  0  0  0  0  0  0  0  0
    7.7697  -12.7435   21.4505 C   0  0  2  0  0  0  0  0  0  0  0  0
    7.4089  -14.0759   20.8713 O   0  0  0  0  0  0  0  0  0  0  0  0
    7.1298  -13.8980   19.5147 C   0  0  1  0  0  0  0  0  0  0  0  0
    8.4466  -15.1518   21.0822 N   0  0  0  0  0  0  0  0  0  0  0  0
    7.8673  -16.3833   20.4957 C   0  0  0  0  0  0  0  0  0  0  0  0
    8.7083  -15.4713   22.5008 O   0  0  0  0  0  0  0  0  0  0  0  0
    8.0317  -16.3867   23.0926 N   0  0  0  0  0  0  0  0  0  0  0  0
    9.6688  -14.8610   23.3395 C   0  0  2  0  0  0  0  0  0  0  0  0
    9.8591  -15.2185   24.7270 C   0  0  0  0  0  0  0  0  0  0  0  0
    8.7196  -15.9882   25.3361 C   0  0  0  0  0  0  0  0  0  0  0  0
    7.5926  -15.1072   25.6584 C   0  0  0  0  0  0  0  0  0  0  0  0
    6.2414  -15.3993   25.4383 N   0  0  0  0  0  0  0  0  0  0  0  0
    5.5613  -14.3285   25.8418 C   0  0  0  0  0  0  0  0  0  0  0  0
    6.3748  -13.3552   26.3119 C   0  0  0  0  0  0  0  0  0  0  0  0
    6.1324  -12.1054   26.8326 C   0  0  0  0  0  0  0  0  0  0  0  0
    7.1850  -11.3332   27.2462 C   0  0  0  0  0  0  0  0  0  0  0  0
    8.4793  -11.8152   27.1373 C   0  0  0  0  0  0  0  0  0  0  0  0
    8.7423  -13.0639   26.6181 C   0  0  0  0  0  0  0  0  0  0  0  0
    7.6780  -13.8496   26.1968 C   0  0  0  0  0  0  0  0  0  0  0  0
   11.1342  -15.9484   24.8399 O   0  0  0  0  0  0  0  0  0  0  0  0
   11.8908  -16.1909   23.7153 O   0  0  0  0  0  0  0  0  0  0  0  0
  2  4  1  0
  2  1  1  0
  3  2  2  0
  5  4  1  0
  6  5  1  0
  7  6  1  0
  8  7  1  0
  8  9  1  6
 10  8  1  0
 11 10  2  0
 13 12  1  1
 13 14  1  0
 13 15  1  0
 15 17  1  0
 15 16  1  1
 16 10  1  0
 17 18  2  0
 19 20  1  0
 19 17  1  0
 20 21  1  6
 20 31  1  0
 21 22  1  0
 22 30  1  0
 23 22  2  0
 23 24  1  0
 24 25  1  0
 25 26  1  0
 26 27  2  0
 28 27  1  0
 29 28  2  0
 30 25  2  0
 30 29  1  0
 31 33  2  0
 31 32  1  0
M  END
$$$$
