RTW.pdb
     RDKit          3D

 33 34  0  0  1  0  0  0  0  0999 V2000
    8.1628  -13.2590   17.1612 N   0  0  0  0  0  0  0  0  0  0  0  0
    8.3860  -12.5831   18.4055 C   0  0  0  0  0  0  0  0  0  0  0  0
    9.2427  -11.6362   18.4315 N   0  0  0  0  0  0  0  0  0  0  0  0
    7.6668  -12.9701   19.5592 N   0  0  0  0  0  0  0  0  0  0  0  0
    7.5671  -14.3967   19.8958 C   0  0  0  0  0  0  0  0  0  0  0  0
    6.8210  -14.5436   21.1968 C   0  0  0  0  0  0  0  0  0  0  0  0
    6.4891  -15.9419   21.5570 C   0  0  0  0  0  0  0  0  0  0  0  0
    7.4612  -16.9696   21.1090 C   0  0  2  0  0  0  0  0  0  0  0  0
    7.0000  -17.9486   20.1901 N   0  0  0  0  0  0  0  0  0  0  0  0
    8.1565  -17.5816   22.2922 C   0  0  0  0  0  0  0  0  0  0  0  0
    7.5610  -18.3640   23.0708 O   0  0  0  0  0  0  0  0  0  0  0  0
    9.4617  -11.0832   19.2878 C   0  0  0  0  0  0  0  0  0  0  0  0
   11.3978  -19.5173   22.1980 C   0  0  2  0  0  0  0  0  0  0  0  0
   11.5022  -18.4207   23.2117 O   0  0  0  0  0  0  0  0  0  0  0  0
   12.2638  -17.3894   22.6583 C   0  0  2  0  0  0  0  0  0  0  0  0
   10.1756  -17.9113   23.7215 N   0  0  0  0  0  0  0  0  0  0  0  0
    9.5162  -17.2813   22.5535 C   0  0  0  0  0  0  0  0  0  0  0  0
   10.2864  -16.8457   24.7390 O   0  0  0  0  0  0  0  0  0  0  0  0
   10.6375  -15.6600   24.3974 N   0  0  0  0  0  0  0  0  0  0  0  0
   10.0380  -16.9736   26.1248 C   0  0  1  0  0  0  0  0  0  0  0  0
   10.2299  -15.8993   27.0725 C   0  0  0  0  0  0  0  0  0  0  0  0
    8.9887  -15.4957   27.8198 C   0  0  0  0  0  0  0  0  0  0  0  0
    7.9087  -15.1254   26.8997 C   0  0  0  0  0  0  0  0  0  0  0  0
    6.9787  -16.0081   26.3380 N   0  0  0  0  0  0  0  0  0  0  0  0
    6.2017  -15.2718   25.5467 C   0  0  0  0  0  0  0  0  0  0  0  0
    6.5589  -13.9670   25.5522 C   0  0  0  0  0  0  0  0  0  0  0  0
    6.0554  -12.8577   24.9136 C   0  0  0  0  0  0  0  0  0  0  0  0
    6.6344  -11.6359   25.1309 C   0  0  0  0  0  0  0  0  0  0  0  0
    7.7172  -11.5278   25.9882 C   0  0  0  0  0  0  0  0  0  0  0  0
    8.2360  -12.6271   26.6366 C   0  0  0  0  0  0  0  0  0  0  0  0
    7.6525  -13.8679   26.4184 C   0  0  0  0  0  0  0  0  0  0  0  0
   11.3177  -16.2867   27.9879 O   0  0  0  0  0  0  0  0  0  0  0  0
   11.9205  -17.5180   27.8591 O   0  0  0  0  0  0  0  0  0  0  0  0
  2  4  1  0
  2  1  1  0
  3  2  2  0
  5  4  1  0
  6  5  1  0
  7  6  1  0
  8  7  1  0
  8  9  1  1
 10  8  1  0
 11 10  2  0
 13 12  1  1
 13 14  1  0
 13 15  1  0
 15 17  1  0
 15 16  1  1
 16 10  1  0
 17 18  2  0
 19 20  1  0
 19 17  1  0
 20 21  1  1
 20 31  1  0
 21 22  1  0
 22 30  1  0
 23 22  2  0
 23 24  1  0
 24 25  1  0
 25 26  1  0
 26 27  2  0
 28 27  1  0
 29 28  2  0
 30 25  2  0
 30 29  1  0
 31 33  2  0
 31 32  1  0
M  END
$$$$
