RTW.pdb
     RDKit          3D

 33 34  0  0  1  0  0  0  0  0999 V2000
    8.1211  -12.2150   16.6363 N   0  0  0  0  0  0  0  0  0  0  0  0
    8.0964  -12.5445   18.0312 C   0  0  0  0  0  0  0  0  0  0  0  0
    8.4154  -11.6362   18.8705 N   0  0  0  0  0  0  0  0  0  0  0  0
    7.7259  -13.8446   18.4440 N   0  0  0  0  0  0  0  0  0  0  0  0
    8.6708  -14.6396   19.2401 C   0  0  0  0  0  0  0  0  0  0  0  0
    8.0801  -16.0040   19.4855 C   0  0  0  0  0  0  0  0  0  0  0  0
    8.9542  -16.9193   20.2557 C   0  0  0  0  0  0  0  0  0  0  0  0
    8.3710  -18.2447   20.5798 C   0  0  2  0  0  0  0  0  0  0  0  0
    7.2884  -18.6954   19.7795 N   0  0  0  0  0  0  0  0  0  0  0  0
    8.0705  -18.3378   22.0492 C   0  0  0  0  0  0  0  0  0  0  0  0
    6.8940  -18.4311   22.4738 O   0  0  0  0  0  0  0  0  0  0  0  0
    8.5448  -11.8156   19.8894 C   0  0  0  0  0  0  0  0  0  0  0  0
    8.6765  -21.1043   23.8355 C   0  0  2  0  0  0  0  0  0  0  0  0
    9.3645  -20.0378   24.6293 O   0  0  0  0  0  0  0  0  0  0  0  0
   10.7310  -20.1019   24.3492 C   0  0  2  0  0  0  0  0  0  0  0  0
    8.8232  -18.6459   24.4087 N   0  0  0  0  0  0  0  0  0  0  0  0
    9.1255  -18.3213   22.9947 C   0  0  0  0  0  0  0  0  0  0  0  0
    9.4940  -17.6010   25.2094 O   0  0  0  0  0  0  0  0  0  0  0  0
   10.4531  -16.9153   24.7036 N   0  0  0  0  0  0  0  0  0  0  0  0
    9.1943  -17.2373   26.5422 C   0  0  1  0  0  0  0  0  0  0  0  0
    9.9391  -16.2467   27.2859 C   0  0  0  0  0  0  0  0  0  0  0  0
    9.0984  -15.3639   28.1668 C   0  0  0  0  0  0  0  0  0  0  0  0
    7.9893  -14.7643   27.4182 C   0  0  0  0  0  0  0  0  0  0  0  0
    6.8027  -15.4146   27.0598 N   0  0  0  0  0  0  0  0  0  0  0  0
    6.0886  -14.5274   26.3707 C   0  0  0  0  0  0  0  0  0  0  0  0
    6.7262  -13.3400   26.2539 C   0  0  0  0  0  0  0  0  0  0  0  0
    6.3845  -12.1512   25.6523 C   0  0  0  0  0  0  0  0  0  0  0  0
    7.2522  -11.0934   25.7120 C   0  0  0  0  0  0  0  0  0  0  0  0
    8.4611  -11.2289   26.3748 C   0  0  0  0  0  0  0  0  0  0  0  0
    8.8214  -12.4113   26.9830 C   0  0  0  0  0  0  0  0  0  0  0  0
    7.9450  -13.4865   26.9241 C   0  0  0  0  0  0  0  0  0  0  0  0
   10.9878  -16.9435   28.0514 O   0  0  0  0  0  0  0  0  0  0  0  0
   11.0831  -18.3161   27.9971 O   0  0  0  0  0  0  0  0  0  0  0  0
  2  4  1  0
  2  1  1  0
  3  2  2  0
  5  4  1  0
  6  5  1  0
  7  6  1  0
  8  7  1  0
  8  9  1  6
 10  8  1  0
 11 10  2  0
 13 12  1  1
 13 14  1  0
 13 15  1  0
 15 17  1  0
 15 16  1  1
 16 10  1  0
 17 18  2  0
 19 20  1  0
 19 17  1  0
 20 21  1  1
 20 31  1  0
 21 22  1  0
 22 30  1  0
 23 22  2  0
 23 24  1  0
 24 25  1  0
 25 26  1  0
 26 27  2  0
 28 27  1  0
 29 28  2  0
 30 25  2  0
 30 29  1  0
 31 33  2  0
 31 32  1  0
M  END
$$$$
