RTW.pdb
     RDKit          3D

 33 34  0  0  1  0  0  0  0  0999 V2000
    8.3405  -15.0351   15.2416 N   0  0  0  0  0  0  0  0  0  0  0  0
    8.2325  -13.6127   15.0997 C   0  0  0  0  0  0  0  0  0  0  0  0
    7.7786  -13.1499   13.9992 N   0  0  0  0  0  0  0  0  0  0  0  0
    8.6231  -12.7646   16.1608 N   0  0  0  0  0  0  0  0  0  0  0  0
    9.1605  -13.3593   17.3921 C   0  0  0  0  0  0  0  0  0  0  0  0
    8.1256  -13.2516   18.4821 C   0  0  0  0  0  0  0  0  0  0  0  0
    7.5891  -14.5521   18.9468 C   0  0  0  0  0  0  0  0  0  0  0  0
    8.5479  -15.6844   18.9356 C   0  0  2  0  0  0  0  0  0  0  0  0
    8.6671  -16.4277   17.7318 N   0  0  0  0  0  0  0  0  0  0  0  0
    8.3269  -16.5677   20.1309 C   0  0  0  0  0  0  0  0  0  0  0  0
    7.4880  -17.4999   20.1120 O   0  0  0  0  0  0  0  0  0  0  0  0
    7.6077  -12.1354   13.8298 C   0  0  0  0  0  0  0  0  0  0  0  0
    8.7153  -19.2226   20.7276 C   0  0  2  0  0  0  0  0  0  0  0  0
    9.5187  -18.6395   21.8481 O   0  0  0  0  0  0  0  0  0  0  0  0
   10.8312  -18.4745   21.4009 C   0  0  2  0  0  0  0  0  0  0  0  0
    8.9646  -17.3535   22.4122 N   0  0  0  0  0  0  0  0  0  0  0  0
    9.0724  -16.3603   21.3178 C   0  0  0  0  0  0  0  0  0  0  0  0
    9.7486  -16.7967   23.5340 O   0  0  0  0  0  0  0  0  0  0  0  0
   10.8855  -16.2437   23.3161 N   0  0  0  0  0  0  0  0  0  0  0  0
    9.3824  -16.7939   24.8994 C   0  0  1  0  0  0  0  0  0  0  0  0
   10.2390  -16.3015   25.9544 C   0  0  0  0  0  0  0  0  0  0  0  0
    9.8714  -14.9386   26.4732 C   0  0  0  0  0  0  0  0  0  0  0  0
    8.4348  -14.6826   26.3294 C   0  0  0  0  0  0  0  0  0  0  0  0
    7.4466  -15.6592   26.1580 N   0  0  0  0  0  0  0  0  0  0  0  0
    6.2946  -15.0025   26.0404 C   0  0  0  0  0  0  0  0  0  0  0  0
    6.4607  -13.6626   26.1238 C   0  0  0  0  0  0  0  0  0  0  0  0
    5.5809  -12.6068   26.0688 C   0  0  0  0  0  0  0  0  0  0  0  0
    6.0549  -11.3286   26.1994 C   0  0  0  0  0  0  0  0  0  0  0  0
    7.4104  -11.1108   26.3849 C   0  0  0  0  0  0  0  0  0  0  0  0
    8.3072  -12.1550   26.4422 C   0  0  0  0  0  0  0  0  0  0  0  0
    7.8309  -13.4523   26.3094 C   0  0  0  0  0  0  0  0  0  0  0  0
   10.2629  -17.3080   27.0304 O   0  0  0  0  0  0  0  0  0  0  0  0
    9.4347  -18.4061   26.9649 O   0  0  0  0  0  0  0  0  0  0  0  0
  2  4  1  0
  2  1  1  0
  3  2  2  0
  5  4  1  0
  6  5  1  0
  7  6  1  0
  8  7  1  0
  8  9  1  6
 10  8  1  0
 11 10  2  0
 13 12  1  1
 13 14  1  0
 13 15  1  0
 15 17  1  0
 15 16  1  1
 16 10  1  0
 17 18  2  0
 19 20  1  0
 19 17  1  0
 20 21  1  1
 20 31  1  0
 21 22  1  0
 22 30  1  0
 23 22  2  0
 23 24  1  0
 24 25  1  0
 25 26  1  0
 26 27  2  0
 28 27  1  0
 29 28  2  0
 30 25  2  0
 30 29  1  0
 31 33  2  0
 31 32  1  0
M  END
$$$$
