RTW.pdb
     RDKit          3D

 33 34  0  0  1  0  0  0  0  0999 V2000
   10.2750  -13.5434   19.5032 N   0  0  0  0  0  0  0  0  0  0  0  0
    9.0988  -13.1406   18.7896 C   0  0  0  0  0  0  0  0  0  0  0  0
    9.1903  -12.9643   17.5279 N   0  0  0  0  0  0  0  0  0  0  0  0
    7.8819  -12.9498   19.4829 N   0  0  0  0  0  0  0  0  0  0  0  0
    7.7906  -13.3517   20.8932 C   0  0  0  0  0  0  0  0  0  0  0  0
    7.7375  -14.8555   20.9731 C   0  0  0  0  0  0  0  0  0  0  0  0
    6.3742  -15.4113   21.1396 C   0  0  0  0  0  0  0  0  0  0  0  0
    6.2904  -16.8891   21.2439 C   0  0  2  0  0  0  0  0  0  0  0  0
    4.9957  -17.4718   21.2426 N   0  0  0  0  0  0  0  0  0  0  0  0
    7.1352  -17.3808   22.3851 C   0  0  0  0  0  0  0  0  0  0  0  0
    6.6530  -17.5601   23.5289 O   0  0  0  0  0  0  0  0  0  0  0  0
    8.4368  -12.5306   16.9525 C   0  0  0  0  0  0  0  0  0  0  0  0
   11.3769  -19.6554   23.5847 C   0  0  1  0  0  0  0  0  0  0  0  0
   10.4286  -18.9961   22.6323 O   0  0  0  0  0  0  0  0  0  0  0  0
    9.9643  -19.9658   21.7413 C   0  0  1  0  0  0  0  0  0  0  0  0
    9.2852  -18.2648   23.2933 N   0  0  0  0  0  0  0  0  0  0  0  0
    8.5112  -17.6542   22.1869 C   0  0  0  0  0  0  0  0  0  0  0  0
    9.7030  -17.1398   24.1553 O   0  0  0  0  0  0  0  0  0  0  0  0
   10.1831  -16.0702   23.6343 N   0  0  0  0  0  0  0  0  0  0  0  0
    9.6355  -17.0881   25.5664 C   0  0  1  0  0  0  0  0  0  0  0  0
   10.5106  -16.2728   26.3779 C   0  0  0  0  0  0  0  0  0  0  0  0
    9.8165  -15.1766   27.1384 C   0  0  0  0  0  0  0  0  0  0  0  0
    8.4177  -15.0400   26.7200 C   0  0  0  0  0  0  0  0  0  0  0  0
    7.5703  -16.0926   26.3549 N   0  0  0  0  0  0  0  0  0  0  0  0
    6.4097  -15.5334   26.0195 C   0  0  0  0  0  0  0  0  0  0  0  0
    6.4390  -14.1864   26.1406 C   0  0  0  0  0  0  0  0  0  0  0  0
    5.4975  -13.2078   25.9216 C   0  0  0  0  0  0  0  0  0  0  0  0
    5.8241  -11.8974   26.1485 C   0  0  0  0  0  0  0  0  0  0  0  0
    7.0940  -11.5698   26.5947 C   0  0  0  0  0  0  0  0  0  0  0  0
    8.0507  -12.5354   26.8194 C   0  0  0  0  0  0  0  0  0  0  0  0
    7.7240  -13.8651   26.5898 C   0  0  0  0  0  0  0  0  0  0  0  0
   11.2663  -17.1660   27.2737 O   0  0  0  0  0  0  0  0  0  0  0  0
   12.3452  -16.6819   27.9791 O   0  0  0  0  0  0  0  0  0  0  0  0
  2  4  1  0
  2  1  1  0
  3  2  2  0
  5  4  1  0
  6  5  1  0
  7  6  1  0
  8  7  1  0
  8  9  1  1
 10  8  1  0
 11 10  2  0
 13 12  1  6
 13 14  1  0
 13 15  1  0
 15 17  1  0
 15 16  1  6
 16 10  1  0
 17 18  2  0
 19 20  1  0
 19 17  1  0
 20 21  1  1
 20 31  1  0
 21 22  1  0
 22 30  1  0
 23 22  2  0
 23 24  1  0
 24 25  1  0
 25 26  1  0
 26 27  2  0
 28 27  1  0
 29 28  2  0
 30 25  2  0
 30 29  1  0
 31 33  2  0
 31 32  1  0
M  END
$$$$
