RTW.pdb
     RDKit          3D

 33 34  0  0  1  0  0  0  0  0999 V2000
    7.5066  -13.0668   16.8940 N   0  0  0  0  0  0  0  0  0  0  0  0
    7.8756  -13.6872   15.6555 C   0  0  0  0  0  0  0  0  0  0  0  0
    7.2641  -13.3247   14.5944 N   0  0  0  0  0  0  0  0  0  0  0  0
    8.8908  -14.6704   15.6322 N   0  0  0  0  0  0  0  0  0  0  0  0
    8.5491  -16.0605   15.9633 C   0  0  0  0  0  0  0  0  0  0  0  0
    8.9685  -16.3449   17.3824 C   0  0  0  0  0  0  0  0  0  0  0  0
   10.4189  -16.5948   17.5531 C   0  0  0  0  0  0  0  0  0  0  0  0
   10.8630  -16.8840   18.9391 C   0  0  2  0  0  0  0  0  0  0  0  0
   10.7257  -18.2183   19.4041 N   0  0  0  0  0  0  0  0  0  0  0  0
   10.2755  -15.8844   19.8949 C   0  0  0  0  0  0  0  0  0  0  0  0
   10.4808  -14.6538   19.7658 O   0  0  0  0  0  0  0  0  0  0  0  0
    7.5097  -13.6724   13.6427 C   0  0  0  0  0  0  0  0  0  0  0  0
    6.7128  -15.0350   20.7110 C   0  0  2  0  0  0  0  0  0  0  0  0
    7.4290  -15.5375   21.9257 O   0  0  0  0  0  0  0  0  0  0  0  0
    7.1226  -16.8909   22.0812 C   0  0  2  0  0  0  0  0  0  0  0  0
    8.9213  -15.3101   21.9111 N   0  0  0  0  0  0  0  0  0  0  0  0
    9.4682  -16.3201   20.9746 C   0  0  0  0  0  0  0  0  0  0  0  0
    9.5858  -15.5664   23.2057 O   0  0  0  0  0  0  0  0  0  0  0  0
   10.8595  -15.4550   23.3115 N   0  0  0  0  0  0  0  0  0  0  0  0
    8.9586  -15.9395   24.4164 C   0  0  1  0  0  0  0  0  0  0  0  0
    9.6818  -16.2256   25.6347 C   0  0  0  0  0  0  0  0  0  0  0  0
    8.8615  -16.1114   26.8901 C   0  0  0  0  0  0  0  0  0  0  0  0
    7.7300  -15.1970   26.7067 C   0  0  0  0  0  0  0  0  0  0  0  0
    6.4299  -15.5715   26.3475 N   0  0  0  0  0  0  0  0  0  0  0  0
    5.7305  -14.4421   26.2614 C   0  0  0  0  0  0  0  0  0  0  0  0
    6.4836  -13.3535   26.5403 C   0  0  0  0  0  0  0  0  0  0  0  0
    6.2004  -12.0083   26.5866 C   0  0  0  0  0  0  0  0  0  0  0  0
    7.1909  -11.1234   26.9201 C   0  0  0  0  0  0  0  0  0  0  0  0
    8.4640  -11.5884   27.2068 C   0  0  0  0  0  0  0  0  0  0  0  0
    8.7673  -12.9316   27.1653 C   0  0  0  0  0  0  0  0  0  0  0  0
    7.7662  -13.8320   26.8268 C   0  0  0  0  0  0  0  0  0  0  0  0
   10.2931  -17.5596   25.5004 O   0  0  0  0  0  0  0  0  0  0  0  0
   11.1791  -18.0104   26.4532 O   0  0  0  0  0  0  0  0  0  0  0  0
  2  4  1  0
  2  1  1  0
  3  2  2  0
  5  4  1  0
  6  5  1  0
  7  6  1  0
  8  7  1  0
  8  9  1  1
 10  8  1  0
 11 10  2  0
 13 12  1  1
 13 14  1  0
 13 15  1  0
 15 17  1  0
 15 16  1  1
 16 10  1  0
 17 18  2  0
 19 20  1  0
 19 17  1  0
 20 21  1  1
 20 31  1  0
 21 22  1  0
 22 30  1  0
 23 22  2  0
 23 24  1  0
 24 25  1  0
 25 26  1  0
 26 27  2  0
 28 27  1  0
 29 28  2  0
 30 25  2  0
 30 29  1  0
 31 33  2  0
 31 32  1  0
M  END
$$$$
