RTW.pdb
     RDKit          3D

 33 34  0  0  1  0  0  0  0  0999 V2000
    9.3323  -14.0571   15.8741 N   0  0  0  0  0  0  0  0  0  0  0  0
    8.0369  -13.4483   15.7939 C   0  0  0  0  0  0  0  0  0  0  0  0
    7.4392  -13.4500   14.6652 N   0  0  0  0  0  0  0  0  0  0  0  0
    7.4559  -12.8683   16.9446 N   0  0  0  0  0  0  0  0  0  0  0  0
    8.2059  -12.8782   18.2079 C   0  0  0  0  0  0  0  0  0  0  0  0
    8.2528  -14.2871   18.7405 C   0  0  0  0  0  0  0  0  0  0  0  0
    9.5417  -14.9828   18.5170 C   0  0  0  0  0  0  0  0  0  0  0  0
    9.5982  -16.3940   18.9720 C   0  0  2  0  0  0  0  0  0  0  0  0
    9.1917  -17.3944   18.0503 N   0  0  0  0  0  0  0  0  0  0  0  0
    8.9221  -16.5400   20.3060 C   0  0  0  0  0  0  0  0  0  0  0  0
    7.7081  -16.2654   20.4600 O   0  0  0  0  0  0  0  0  0  0  0  0
    6.4766  -13.0752   14.5245 C   0  0  0  0  0  0  0  0  0  0  0  0
    8.1575  -19.5521   21.3813 C   0  0  2  0  0  0  0  0  0  0  0  0
    8.9381  -18.9865   22.5265 O   0  0  0  0  0  0  0  0  0  0  0  0
   10.2459  -19.4680   22.4400 C   0  0  2  0  0  0  0  0  0  0  0  0
    8.9123  -17.4798   22.6180 N   0  0  0  0  0  0  0  0  0  0  0  0
    9.6543  -16.9966   21.4298 C   0  0  0  0  0  0  0  0  0  0  0  0
    9.6311  -16.9314   23.7866 O   0  0  0  0  0  0  0  0  0  0  0  0
   10.9069  -16.7998   23.7571 N   0  0  0  0  0  0  0  0  0  0  0  0
    9.0571  -16.5058   25.0064 C   0  0  1  0  0  0  0  0  0  0  0  0
    9.8342  -16.1239   26.1637 C   0  0  0  0  0  0  0  0  0  0  0  0
    9.1229  -15.2052   27.1188 C   0  0  0  0  0  0  0  0  0  0  0  0
    7.8519  -14.7344   26.5594 C   0  0  0  0  0  0  0  0  0  0  0  0
    6.7529  -15.5412   26.2422 N   0  0  0  0  0  0  0  0  0  0  0  0
    5.8292  -14.7260   25.7379 C   0  0  0  0  0  0  0  0  0  0  0  0
    6.2480  -13.4401   25.7037 C   0  0  0  0  0  0  0  0  0  0  0  0
    5.6507  -12.2736   25.2861 C   0  0  0  0  0  0  0  0  0  0  0  0
    6.3364  -11.0927   25.3883 C   0  0  0  0  0  0  0  0  0  0  0  0
    7.6201  -11.0828   25.9093 C   0  0  0  0  0  0  0  0  0  0  0  0
    8.2354  -12.2405   26.3324 C   0  0  0  0  0  0  0  0  0  0  0  0
    7.5440  -13.4400   26.2297 C   0  0  0  0  0  0  0  0  0  0  0  0
   10.2961  -17.3543   26.8301 O   0  0  0  0  0  0  0  0  0  0  0  0
   11.2390  -17.2831   27.8310 O   0  0  0  0  0  0  0  0  0  0  0  0
  2  4  1  0
  2  1  1  0
  3  2  2  0
  5  4  1  0
  6  5  1  0
  7  6  1  0
  8  7  1  0
  8  9  1  6
 10  8  1  0
 11 10  2  0
 13 12  1  1
 13 14  1  0
 13 15  1  0
 15 17  1  0
 15 16  1  1
 16 10  1  0
 17 18  2  0
 19 20  1  0
 19 17  1  0
 20 21  1  1
 20 31  1  0
 21 22  1  0
 22 30  1  0
 23 22  2  0
 23 24  1  0
 24 25  1  0
 25 26  1  0
 26 27  2  0
 28 27  1  0
 29 28  2  0
 30 25  2  0
 30 29  1  0
 31 33  2  0
 31 32  1  0
M  END
$$$$
