RTW.pdb
     RDKit          3D

 33 34  0  0  1  0  0  0  0  0999 V2000
    9.4484  -14.5746   16.0388 N   0  0  0  0  0  0  0  0  0  0  0  0
    8.5052  -13.7192   15.3804 C   0  0  0  0  0  0  0  0  0  0  0  0
    8.6205  -13.5531   14.1192 N   0  0  0  0  0  0  0  0  0  0  0  0
    7.4838  -13.0872   16.1255 N   0  0  0  0  0  0  0  0  0  0  0  0
    7.2548  -13.4971   17.5177 C   0  0  0  0  0  0  0  0  0  0  0  0
    8.5446  -13.3685   18.2862 C   0  0  0  0  0  0  0  0  0  0  0  0
    8.5412  -14.0451   19.6042 C   0  0  0  0  0  0  0  0  0  0  0  0
    8.7047  -15.5195   19.5708 C   0  0  2  0  0  0  0  0  0  0  0  0
    7.9498  -16.2389   18.6074 N   0  0  0  0  0  0  0  0  0  0  0  0
    8.5590  -16.0926   20.9522 C   0  0  0  0  0  0  0  0  0  0  0  0
    7.4364  -16.2096   21.4991 O   0  0  0  0  0  0  0  0  0  0  0  0
    7.9693  -12.9657   13.5554 C   0  0  0  0  0  0  0  0  0  0  0  0
    9.6975  -19.4771   21.5018 C   0  0  2  0  0  0  0  0  0  0  0  0
   10.2776  -18.6361   22.5959 O   0  0  0  0  0  0  0  0  0  0  0  0
   11.6122  -18.3735   22.2801 C   0  0  2  0  0  0  0  0  0  0  0  0
    9.5180  -17.3617   22.8753 N   0  0  0  0  0  0  0  0  0  0  0  0
    9.7033  -16.5166   21.6721 C   0  0  0  0  0  0  0  0  0  0  0  0
   10.0540  -16.5719   24.0031 O   0  0  0  0  0  0  0  0  0  0  0  0
   11.0531  -15.7869   23.8252 N   0  0  0  0  0  0  0  0  0  0  0  0
    9.5761  -16.5695   25.3335 C   0  0  1  0  0  0  0  0  0  0  0  0
   10.3406  -16.0731   26.4553 C   0  0  0  0  0  0  0  0  0  0  0  0
    9.6443  -15.0163   27.2677 C   0  0  0  0  0  0  0  0  0  0  0  0
    8.2726  -14.7991   26.7971 C   0  0  0  0  0  0  0  0  0  0  0  0
    7.3287  -15.8022   26.5472 N   0  0  0  0  0  0  0  0  0  0  0  0
    6.2354  -15.1805   26.1111 C   0  0  0  0  0  0  0  0  0  0  0  0
    6.3985  -13.8386   26.0590 C   0  0  0  0  0  0  0  0  0  0  0  0
    5.5636  -12.8095   25.6905 C   0  0  0  0  0  0  0  0  0  0  0  0
    6.0171  -11.5190   25.7560 C   0  0  0  0  0  0  0  0  0  0  0  0
    7.3071  -11.2621   26.1910 C   0  0  0  0  0  0  0  0  0  0  0  0
    8.1582  -12.2791   26.5639 C   0  0  0  0  0  0  0  0  0  0  0  0
    7.7026  -13.5889   26.4981 C   0  0  0  0  0  0  0  0  0  0  0  0
   10.7379  -17.2258   27.2829 O   0  0  0  0  0  0  0  0  0  0  0  0
   11.6517  -17.0611   28.2997 O   0  0  0  0  0  0  0  0  0  0  0  0
  2  4  1  0
  2  1  1  0
  3  2  2  0
  5  4  1  0
  6  5  1  0
  7  6  1  0
  8  7  1  0
  8  9  1  6
 10  8  1  0
 11 10  2  0
 13 12  1  1
 13 14  1  0
 13 15  1  0
 15 17  1  0
 15 16  1  1
 16 10  1  0
 17 18  2  0
 19 20  1  0
 19 17  1  0
 20 21  1  1
 20 31  1  0
 21 22  1  0
 22 30  1  0
 23 22  2  0
 23 24  1  0
 24 25  1  0
 25 26  1  0
 26 27  2  0
 28 27  1  0
 29 28  2  0
 30 25  2  0
 30 29  1  0
 31 33  2  0
 31 32  1  0
M  END
$$$$
