RTW.pdb
     RDKit          3D

 33 34  0  0  1  0  0  0  0  0999 V2000
    8.8292  -14.8723   15.7994 N   0  0  0  0  0  0  0  0  0  0  0  0
    8.3770  -13.5514   16.1246 C   0  0  0  0  0  0  0  0  0  0  0  0
    7.9828  -12.7979   15.1716 N   0  0  0  0  0  0  0  0  0  0  0  0
    8.3756  -13.1156   17.4692 N   0  0  0  0  0  0  0  0  0  0  0  0
    7.5322  -13.8153   18.4479 C   0  0  0  0  0  0  0  0  0  0  0  0
    7.9570  -15.2593   18.5193 C   0  0  0  0  0  0  0  0  0  0  0  0
    8.5633  -15.6552   19.8118 C   0  0  0  0  0  0  0  0  0  0  0  0
    8.1511  -16.9806   20.3364 C   0  0  2  0  0  0  0  0  0  0  0  0
    7.2898  -17.7653   19.5253 N   0  0  0  0  0  0  0  0  0  0  0  0
    7.6445  -16.8501   21.7451 C   0  0  0  0  0  0  0  0  0  0  0  0
    6.4175  -16.7942   21.9986 O   0  0  0  0  0  0  0  0  0  0  0  0
    7.7036  -11.8022   15.3046 C   0  0  0  0  0  0  0  0  0  0  0  0
    6.3814  -18.6149   23.3644 C   0  0  2  0  0  0  0  0  0  0  0  0
    7.4866  -18.3004   24.3237 O   0  0  0  0  0  0  0  0  0  0  0  0
    8.4924  -19.2541   24.1546 C   0  0  2  0  0  0  0  0  0  0  0  0
    8.0343  -16.8982   24.2097 N   0  0  0  0  0  0  0  0  0  0  0  0
    8.5566  -16.7866   22.8274 C   0  0  0  0  0  0  0  0  0  0  0  0
    9.1858  -16.6238   25.0939 O   0  0  0  0  0  0  0  0  0  0  0  0
   10.3760  -16.9158   24.7144 N   0  0  0  0  0  0  0  0  0  0  0  0
    9.1405  -16.0436   26.3822 C   0  0  1  0  0  0  0  0  0  0  0  0
   10.3166  -15.6257   27.1111 C   0  0  0  0  0  0  0  0  0  0  0  0
   10.2175  -14.2566   27.7258 C   0  0  0  0  0  0  0  0  0  0  0  0
    8.8350  -13.7677   27.7191 C   0  0  0  0  0  0  0  0  0  0  0  0
    7.8739  -14.0292   28.7026 N   0  0  0  0  0  0  0  0  0  0  0  0
    6.7574  -13.4281   28.2973 C   0  0  0  0  0  0  0  0  0  0  0  0
    6.9219  -12.7902   27.1157 C   0  0  0  0  0  0  0  0  0  0  0  0
    6.0741  -12.0437   26.3309 C   0  0  0  0  0  0  0  0  0  0  0  0
    6.5415  -11.5005   25.1639 C   0  0  0  0  0  0  0  0  0  0  0  0
    7.8581  -11.7064   24.7853 C   0  0  0  0  0  0  0  0  0  0  0  0
    8.7222  -12.4514   25.5575 C   0  0  0  0  0  0  0  0  0  0  0  0
    8.2522  -13.0046   26.7410 C   0  0  0  0  0  0  0  0  0  0  0  0
   10.6196  -16.6570   28.1190 O   0  0  0  0  0  0  0  0  0  0  0  0
   11.8092  -16.6150   28.8112 O   0  0  0  0  0  0  0  0  0  0  0  0
  2  4  1  0
  2  1  1  0
  3  2  2  0
  5  4  1  0
  6  5  1  0
  7  6  1  0
  8  7  1  0
  8  9  1  6
 10  8  1  0
 11 10  2  0
 13 12  1  1
 13 14  1  0
 13 15  1  0
 15 17  1  0
 15 16  1  1
 16 10  1  0
 17 18  2  0
 19 20  1  0
 19 17  1  0
 20 21  1  1
 20 31  1  0
 21 22  1  0
 22 30  1  0
 23 22  2  0
 23 24  1  0
 24 25  1  0
 25 26  1  0
 26 27  2  0
 28 27  1  0
 29 28  2  0
 30 25  2  0
 30 29  1  0
 31 33  2  0
 31 32  1  0
M  END
$$$$
