RTW.pdb
     RDKit          3D

 33 34  0  0  1  0  0  0  0  0999 V2000
    8.5652  -12.2122   17.0203 N   0  0  0  0  0  0  0  0  0  0  0  0
    8.1831  -13.3759   16.2755 C   0  0  0  0  0  0  0  0  0  0  0  0
    8.1605  -13.2949   15.0010 N   0  0  0  0  0  0  0  0  0  0  0  0
    7.8448  -14.5694   16.9530 N   0  0  0  0  0  0  0  0  0  0  0  0
    8.8087  -15.1566   17.8937 C   0  0  0  0  0  0  0  0  0  0  0  0
    8.7691  -14.3817   19.1854 C   0  0  0  0  0  0  0  0  0  0  0  0
    8.4452  -15.1981   20.3787 C   0  0  0  0  0  0  0  0  0  0  0  0
    9.2043  -16.4656   20.5161 C   0  0  2  0  0  0  0  0  0  0  0  0
    8.9886  -17.4663   19.5324 N   0  0  0  0  0  0  0  0  0  0  0  0
    9.0745  -17.0031   21.9133 C   0  0  0  0  0  0  0  0  0  0  0  0
    8.0164  -17.5460   22.3119 O   0  0  0  0  0  0  0  0  0  0  0  0
    8.0147  -14.1164   14.3758 C   0  0  0  0  0  0  0  0  0  0  0  0
   10.8820  -19.8166   22.9282 C   0  0  2  0  0  0  0  0  0  0  0  0
   11.1945  -18.7438   23.9243 O   0  0  0  0  0  0  0  0  0  0  0  0
   12.4193  -18.1711   23.5753 C   0  0  2  0  0  0  0  0  0  0  0  0
   10.1194  -17.6943   24.0718 N   0  0  0  0  0  0  0  0  0  0  0  0
   10.1600  -16.9047   22.8184 C   0  0  0  0  0  0  0  0  0  0  0  0
   10.3635  -16.7258   25.1607 O   0  0  0  0  0  0  0  0  0  0  0  0
   11.1071  -15.7001   24.9586 N   0  0  0  0  0  0  0  0  0  0  0  0
    9.8495  -16.7884   26.4761 C   0  0  1  0  0  0  0  0  0  0  0  0
   10.2295  -15.8706   27.5260 C   0  0  0  0  0  0  0  0  0  0  0  0
    9.0897  -15.3976   28.3857 C   0  0  0  0  0  0  0  0  0  0  0  0
    7.9350  -15.0045   27.5718 C   0  0  0  0  0  0  0  0  0  0  0  0
    6.9607  -15.8736   27.0669 N   0  0  0  0  0  0  0  0  0  0  0  0
    6.1188  -15.1175   26.3657 C   0  0  0  0  0  0  0  0  0  0  0  0
    6.4748  -13.8124   26.3775 C   0  0  0  0  0  0  0  0  0  0  0  0
    5.9184  -12.6870   25.8157 C   0  0  0  0  0  0  0  0  0  0  0  0
    6.5135  -11.4701   26.0171 C   0  0  0  0  0  0  0  0  0  0  0  0
    7.6655  -11.3833   26.7817 C   0  0  0  0  0  0  0  0  0  0  0  0
    8.2380  -12.4989   27.3522 C   0  0  0  0  0  0  0  0  0  0  0  0
    7.6383  -13.7347   27.1497 C   0  0  0  0  0  0  0  0  0  0  0  0
   11.2909  -16.5064   28.3263 O   0  0  0  0  0  0  0  0  0  0  0  0
   11.9782  -15.7718   29.2665 O   0  0  0  0  0  0  0  0  0  0  0  0
  2  4  1  0
  2  1  1  0
  3  2  2  0
  5  4  1  0
  6  5  1  0
  7  6  1  0
  8  7  1  0
  8  9  1  6
 10  8  1  0
 11 10  2  0
 13 12  1  1
 13 14  1  0
 13 15  1  0
 15 17  1  0
 15 16  1  1
 16 10  1  0
 17 18  2  0
 19 20  1  0
 19 17  1  0
 20 21  1  1
 20 31  1  0
 21 22  1  0
 22 30  1  0
 23 22  2  0
 23 24  1  0
 24 25  1  0
 25 26  1  0
 26 27  2  0
 28 27  1  0
 29 28  2  0
 30 25  2  0
 30 29  1  0
 31 33  2  0
 31 32  1  0
M  END
$$$$
