RTW.pdb
     RDKit          3D

 33 34  0  0  1  0  0  0  0  0999 V2000
    7.7345  -19.9704   13.9215 N   0  0  0  0  0  0  0  0  0  0  0  0
    7.2187  -18.8372   14.6320 C   0  0  0  0  0  0  0  0  0  0  0  0
    6.9048  -17.7971   13.9605 N   0  0  0  0  0  0  0  0  0  0  0  0
    7.0697  -18.8913   16.0365 N   0  0  0  0  0  0  0  0  0  0  0  0
    8.1894  -19.3719   16.8574 C   0  0  0  0  0  0  0  0  0  0  0  0
    8.3752  -18.4415   18.0282 C   0  0  0  0  0  0  0  0  0  0  0  0
    9.0832  -17.1816   17.7018 C   0  0  0  0  0  0  0  0  0  0  0  0
   10.4095  -17.0044   18.3431 C   0  0  2  0  0  0  0  0  0  0  0  0
   11.0081  -18.1486   18.9330 N   0  0  0  0  0  0  0  0  0  0  0  0
   10.3844  -15.8286   19.2784 C   0  0  0  0  0  0  0  0  0  0  0  0
   11.4417  -15.2830   19.6751 O   0  0  0  0  0  0  0  0  0  0  0  0
    6.5507  -16.9181   14.3953 C   0  0  0  0  0  0  0  0  0  0  0  0
    7.9799  -12.8473   18.4836 C   0  0  2  0  0  0  0  0  0  0  0  0
    7.9017  -13.2859   19.9127 O   0  0  0  0  0  0  0  0  0  0  0  0
    6.7635  -14.0811   20.0609 C   0  0  2  0  0  0  0  0  0  0  0  0
    9.1358  -13.9931   20.4188 N   0  0  0  0  0  0  0  0  0  0  0  0
    9.1485  -15.3082   19.7358 C   0  0  0  0  0  0  0  0  0  0  0  0
    9.1105  -14.2956   21.8648 O   0  0  0  0  0  0  0  0  0  0  0  0
    8.3421  -13.6334   22.6502 N   0  0  0  0  0  0  0  0  0  0  0  0
    9.8701  -15.2828   22.5333 C   0  0  1  0  0  0  0  0  0  0  0  0
    9.6600  -15.6515   23.9150 C   0  0  0  0  0  0  0  0  0  0  0  0
    8.2525  -16.0670   24.2441 C   0  0  0  0  0  0  0  0  0  0  0  0
    7.7271  -15.3131   25.3868 C   0  0  0  0  0  0  0  0  0  0  0  0
    7.4902  -15.8316   26.6652 N   0  0  0  0  0  0  0  0  0  0  0  0
    6.9908  -14.8286   27.3841 C   0  0  0  0  0  0  0  0  0  0  0  0
    6.8850  -13.6884   26.6639 C   0  0  0  0  0  0  0  0  0  0  0  0
    6.4438  -12.4236   26.9760 C   0  0  0  0  0  0  0  0  0  0  0  0
    6.4675  -11.4470   26.0163 C   0  0  0  0  0  0  0  0  0  0  0  0
    6.9337  -11.7397   24.7450 C   0  0  0  0  0  0  0  0  0  0  0  0
    7.3793  -13.0003   24.4131 C   0  0  0  0  0  0  0  0  0  0  0  0
    7.3562  -13.9936   25.3829 C   0  0  0  0  0  0  0  0  0  0  0  0
   10.6350  -16.7008   24.2609 O   0  0  0  0  0  0  0  0  0  0  0  0
   11.0203  -16.8781   25.5709 O   0  0  0  0  0  0  0  0  0  0  0  0
  2  4  1  0
  2  1  1  0
  3  2  2  0
  5  4  1  0
  6  5  1  0
  7  6  1  0
  8  7  1  0
  8  9  1  1
 10  8  1  0
 11 10  2  0
 13 12  1  1
 13 14  1  0
 13 15  1  0
 15 17  1  0
 15 16  1  1
 16 10  1  0
 17 18  2  0
 19 20  1  0
 19 17  1  0
 20 21  1  1
 20 31  1  0
 21 22  1  0
 22 30  1  0
 23 22  2  0
 23 24  1  0
 24 25  1  0
 25 26  1  0
 26 27  2  0
 28 27  1  0
 29 28  2  0
 30 25  2  0
 30 29  1  0
 31 33  2  0
 31 32  1  0
M  END
$$$$
