RTW.pdb
     RDKit          3D

 33 34  0  0  1  0  0  0  0  0999 V2000
   17.3511  -17.4042   18.1848 N   0  0  0  0  0  0  0  0  0  0  0  0
   16.7975  -18.0579   17.0354 C   0  0  0  0  0  0  0  0  0  0  0  0
   17.5230  -18.1527   15.9885 N   0  0  0  0  0  0  0  0  0  0  0  0
   15.4831  -18.5759   17.0812 N   0  0  0  0  0  0  0  0  0  0  0  0
   14.5533  -18.0798   18.1049 C   0  0  0  0  0  0  0  0  0  0  0  0
   14.2283  -16.6371   17.8158 C   0  0  0  0  0  0  0  0  0  0  0  0
   13.3659  -15.9890   18.8313 C   0  0  0  0  0  0  0  0  0  0  0  0
   12.0745  -15.4550   18.3323 C   0  0  2  0  0  0  0  0  0  0  0  0
   12.1082  -14.6510   17.1627 N   0  0  0  0  0  0  0  0  0  0  0  0
   11.3124  -14.8020   19.4506 C   0  0  0  0  0  0  0  0  0  0  0  0
   11.6190  -13.6626   19.8760 O   0  0  0  0  0  0  0  0  0  0  0  0
   17.1744  -18.5273   15.0801 C   0  0  0  0  0  0  0  0  0  0  0  0
    7.7419  -13.9537   19.4218 C   0  0  2  0  0  0  0  0  0  0  0  0
    8.0096  -14.7924   20.6325 O   0  0  0  0  0  0  0  0  0  0  0  0
    7.5836  -16.0942   20.3613 C   0  0  2  0  0  0  0  0  0  0  0  0
    9.4435  -14.7705   21.1044 N   0  0  0  0  0  0  0  0  0  0  0  0
   10.2186  -15.4710   20.0534 C   0  0  0  0  0  0  0  0  0  0  0  0
    9.6833  -15.5298   22.3489 O   0  0  0  0  0  0  0  0  0  0  0  0
   10.5274  -16.4959   22.3641 N   0  0  0  0  0  0  0  0  0  0  0  0
    9.0650  -15.3131   23.6016 C   0  0  1  0  0  0  0  0  0  0  0  0
    9.4147  -16.0404   24.8007 C   0  0  0  0  0  0  0  0  0  0  0  0
    9.2182  -15.2712   26.0781 C   0  0  0  0  0  0  0  0  0  0  0  0
    7.8736  -14.6906   26.1497 C   0  0  0  0  0  0  0  0  0  0  0  0
    6.6743  -15.3874   25.9608 N   0  0  0  0  0  0  0  0  0  0  0  0
    5.7010  -14.4873   26.0814 C   0  0  0  0  0  0  0  0  0  0  0  0
    6.1809  -13.2486   26.3370 C   0  0  0  0  0  0  0  0  0  0  0  0
    5.5695  -12.0340   26.5437 C   0  0  0  0  0  0  0  0  0  0  0  0
    6.3373  -10.9292   26.7991 C   0  0  0  0  0  0  0  0  0  0  0  0
    7.7171  -11.0438   26.8470 C   0  0  0  0  0  0  0  0  0  0  0  0
    8.3479  -12.2513   26.6423 C   0  0  0  0  0  0  0  0  0  0  0  0
    7.5731  -13.3736   26.3822 C   0  0  0  0  0  0  0  0  0  0  0  0
    8.6606  -17.3064   24.8032 O   0  0  0  0  0  0  0  0  0  0  0  0
    9.0271  -18.3246   25.6546 O   0  0  0  0  0  0  0  0  0  0  0  0
  2  4  1  0
  2  1  1  0
  3  2  2  0
  5  4  1  0
  6  5  1  0
  7  6  1  0
  8  7  1  0
  8  9  1  6
 10  8  1  0
 11 10  2  0
 13 12  1  1
 13 14  1  0
 13 15  1  0
 15 17  1  0
 15 16  1  1
 16 10  1  0
 17 18  2  0
 19 20  1  0
 19 17  1  0
 20 21  1  1
 20 31  1  0
 21 22  1  0
 22 30  1  0
 23 22  2  0
 23 24  1  0
 24 25  1  0
 25 26  1  0
 26 27  2  0
 28 27  1  0
 29 28  2  0
 30 25  2  0
 30 29  1  0
 31 33  2  0
 31 32  1  0
M  END
$$$$
