IGH.pdb
     RDKit          3D

 23 23  0  0  1  0  0  0  0  0999 V2000
    6.0489  -11.3213   26.2185 C   0  0  0  0  0  0  0  0  0  0  0  0
    5.6631  -12.7774   25.9549 C   0  0  0  0  0  0  0  0  0  0  0  0
    6.8326  -13.4652   25.3131 C   0  0  2  0  0  0  0  0  0  0  0  0
    7.2677  -12.7126   24.0741 C   0  0  0  0  0  0  0  0  0  0  0  0
    6.6960  -14.9129   25.0826 C   0  0  2  0  0  0  0  0  0  0  0  0
    5.9931  -15.6567   26.1167 N   0  0  0  0  0  0  0  0  0  0  0  0
    7.8135  -15.6799   24.5578 C   0  0  0  0  0  0  0  0  0  0  0  0
    8.2924  -16.6530   25.2303 O   0  0  0  0  0  0  0  0  0  0  0  0
    8.4255  -15.4069   23.3173 N   0  0  0  0  0  0  0  0  0  0  0  0
    9.3063  -16.4115   22.7056 C   0  0  0  0  0  0  0  0  0  0  0  0
   10.5862  -16.5069   23.4282 C   0  0  0  0  0  0  0  0  0  0  0  0
   11.6834  -16.4318   22.8245 O   0  0  0  0  0  0  0  0  0  0  0  0
   10.5908  -16.6863   24.8264 N   0  0  0  0  0  0  0  0  0  0  0  0
   11.8296  -16.9261   25.5824 C   0  0  1  0  0  0  0  0  0  0  0  0
   11.4681  -17.1802   27.0227 C   0  0  0  0  0  0  0  0  0  0  0  0
   10.8350  -15.9899   27.6167 C   0  0  0  0  0  0  0  0  0  0  0  0
   10.7187  -14.7231   27.0634 C   0  0  0  0  0  0  0  0  0  0  0  0
   10.0777  -13.9403   27.9319 N   0  0  0  0  0  0  0  0  0  0  0  0
    9.7767  -14.6554   29.0240 C   0  0  0  0  0  0  0  0  0  0  0  0
   10.2385  -15.8812   28.8166 N   0  0  0  0  0  0  0  0  0  0  0  0
   12.5187  -18.1193   25.0392 C   0  0  0  0  0  0  0  0  0  0  0  0
   11.9865  -18.9516   24.0737 O   0  0  0  0  0  0  0  0  0  0  0  0
   13.6703  -18.3837   25.4992 O   0  0  0  0  0  0  0  0  0  0  0  0
  1  2  1  0
  2  3  1  0
  3  5  1  0
  3  4  1  6
  5  7  1  0
  5  6  1  1
  7  9  1  0
  7  8  2  0
  9 10  1  0
 10 11  1  0
 11 12  2  0
 13 14  1  0
 13 11  1  0
 14 15  1  1
 16 17  2  0
 16 15  1  0
 18 17  1  0
 19 20  2  0
 19 18  1  0
 20 16  1  0
 21 22  1  0
 21 14  1  0
 23 21  2  0
M  END
$$$$
