IGH.pdb
     RDKit          3D

 23 23  0  0  1  0  0  0  0  0999 V2000
    7.7791  -11.5108   26.7841 C   0  0  0  0  0  0  0  0  0  0  0  0
    7.1504  -12.8561   27.1496 C   0  0  0  0  0  0  0  0  0  0  0  0
    7.5099  -13.8488   26.0827 C   0  0  2  0  0  0  0  0  0  0  0  0
    7.0949  -13.3298   24.7229 C   0  0  0  0  0  0  0  0  0  0  0  0
    7.0903  -15.2409   26.3143 C   0  0  2  0  0  0  0  0  0  0  0  0
    7.2146  -15.7220   27.6817 N   0  0  0  0  0  0  0  0  0  0  0  0
    7.4437  -16.2807   25.3623 C   0  0  0  0  0  0  0  0  0  0  0  0
    8.3996  -17.0856   25.6207 O   0  0  0  0  0  0  0  0  0  0  0  0
    6.7815  -16.4602   24.1305 N   0  0  0  0  0  0  0  0  0  0  0  0
    7.1186  -17.6149   23.2866 C   0  0  0  0  0  0  0  0  0  0  0  0
    8.2923  -17.3323   22.4429 C   0  0  0  0  0  0  0  0  0  0  0  0
    8.7155  -18.1711   21.6115 O   0  0  0  0  0  0  0  0  0  0  0  0
    8.9619  -16.0975   22.5633 N   0  0  0  0  0  0  0  0  0  0  0  0
   10.1780  -15.7866   21.7964 C   0  0  1  0  0  0  0  0  0  0  0  0
   10.1242  -14.3390   21.3826 C   0  0  0  0  0  0  0  0  0  0  0  0
    9.1346  -14.1425   20.3091 C   0  0  0  0  0  0  0  0  0  0  0  0
    8.3972  -15.1115   19.6444 C   0  0  0  0  0  0  0  0  0  0  0  0
    7.6190  -14.5073   18.7458 N   0  0  0  0  0  0  0  0  0  0  0  0
    7.8275  -13.1854   18.8068 C   0  0  0  0  0  0  0  0  0  0  0  0
    8.7389  -12.9860   19.7493 N   0  0  0  0  0  0  0  0  0  0  0  0
   11.3701  -16.0018   22.6486 C   0  0  0  0  0  0  0  0  0  0  0  0
   12.6730  -15.8601   22.2122 O   0  0  0  0  0  0  0  0  0  0  0  0
   11.1682  -16.3388   23.8542 O   0  0  0  0  0  0  0  0  0  0  0  0
  1  2  1  0
  2  3  1  0
  3  5  1  0
  3  4  1  6
  5  7  1  0
  5  6  1  1
  7  9  1  0
  7  8  2  0
  9 10  1  0
 10 11  1  0
 11 12  2  0
 13 14  1  0
 13 11  1  0
 14 15  1  1
 16 17  2  0
 16 15  1  0
 18 17  1  0
 19 20  2  0
 19 18  1  0
 20 16  1  0
 21 22  1  0
 21 14  1  0
 23 21  2  0
M  END
$$$$
