IGH.pdb
     RDKit          3D

 23 23  0  0  1  0  0  0  0  0999 V2000
    7.6158  -12.1371   20.1550 C   0  0  0  0  0  0  0  0  0  0  0  0
    8.5075  -13.2918   20.6133 C   0  0  0  0  0  0  0  0  0  0  0  0
    7.7358  -14.1197   21.5990 C   0  0  2  0  0  0  0  0  0  0  0  0
    7.2116  -13.2472   22.7192 C   0  0  0  0  0  0  0  0  0  0  0  0
    8.3963  -15.3410   22.0887 C   0  0  2  0  0  0  0  0  0  0  0  0
    9.1322  -16.1066   21.0942 N   0  0  0  0  0  0  0  0  0  0  0  0
    7.7117  -16.2207   23.0213 C   0  0  0  0  0  0  0  0  0  0  0  0
    7.0771  -17.2402   22.5895 O   0  0  0  0  0  0  0  0  0  0  0  0
    7.6982  -16.0115   24.4155 N   0  0  0  0  0  0  0  0  0  0  0  0
    6.9008  -16.8973   25.2749 C   0  0  0  0  0  0  0  0  0  0  0  0
    7.7608  -17.8406   26.0097 C   0  0  0  0  0  0  0  0  0  0  0  0
    7.2728  -18.7201   26.7595 O   0  0  0  0  0  0  0  0  0  0  0  0
    9.1620  -17.7631   25.8754 N   0  0  0  0  0  0  0  0  0  0  0  0
   10.0707  -18.6590   26.6069 C   0  0  1  0  0  0  0  0  0  0  0  0
   11.4314  -18.5872   25.9641 C   0  0  0  0  0  0  0  0  0  0  0  0
   11.4178  -19.2441   24.6455 C   0  0  0  0  0  0  0  0  0  0  0  0
   10.3579  -19.8941   24.0300 C   0  0  0  0  0  0  0  0  0  0  0  0
   10.7704  -20.3459   22.8452 N   0  0  0  0  0  0  0  0  0  0  0  0
   12.0563  -20.0113   22.6744 C   0  0  0  0  0  0  0  0  0  0  0  0
   12.4268  -19.3516   23.7635 N   0  0  0  0  0  0  0  0  0  0  0  0
   10.1776  -18.2145   28.0156 C   0  0  0  0  0  0  0  0  0  0  0  0
   10.8675  -18.9002   28.9965 O   0  0  0  0  0  0  0  0  0  0  0  0
    9.5927  -17.1341   28.3290 O   0  0  0  0  0  0  0  0  0  0  0  0
  1  2  1  0
  2  3  1  0
  3  5  1  0
  3  4  1  1
  5  7  1  0
  5  6  1  6
  7  9  1  0
  7  8  2  0
  9 10  1  0
 10 11  1  0
 11 12  2  0
 13 14  1  0
 13 11  1  0
 14 15  1  6
 16 17  2  0
 16 15  1  0
 18 17  1  0
 19 20  2  0
 19 18  1  0
 20 16  1  0
 21 22  1  0
 21 14  1  0
 23 21  2  0
M  END
$$$$
