IGH.pdb
     RDKit          3D

 23 23  0  0  1  0  0  0  0  0999 V2000
    7.5939  -11.4174   26.4893 C   0  0  0  0  0  0  0  0  0  0  0  0
    7.0179  -12.7776   26.8850 C   0  0  0  0  0  0  0  0  0  0  0  0
    7.4281  -13.7820   25.8478 C   0  0  2  0  0  0  0  0  0  0  0  0
    7.0045  -13.3164   24.4714 C   0  0  0  0  0  0  0  0  0  0  0  0
    7.0644  -15.1838   26.1128 C   0  0  2  0  0  0  0  0  0  0  0  0
    7.2324  -15.6344   27.4859 N   0  0  0  0  0  0  0  0  0  0  0  0
    7.4372  -16.2278   25.1728 C   0  0  0  0  0  0  0  0  0  0  0  0
    8.3864  -17.0327   25.4553 O   0  0  0  0  0  0  0  0  0  0  0  0
    6.8020  -16.4115   23.9275 N   0  0  0  0  0  0  0  0  0  0  0  0
    7.1337  -17.5864   23.1097 C   0  0  0  0  0  0  0  0  0  0  0  0
    8.3241  -17.3370   22.2790 C   0  0  0  0  0  0  0  0  0  0  0  0
    8.7084  -18.1697   21.4229 O   0  0  0  0  0  0  0  0  0  0  0  0
    9.0543  -16.1420   22.4403 N   0  0  0  0  0  0  0  0  0  0  0  0
   10.2554  -15.8433   21.6455 C   0  0  1  0  0  0  0  0  0  0  0  0
   10.2334  -14.3825   21.2779 C   0  0  0  0  0  0  0  0  0  0  0  0
    9.1905  -14.1160   20.2721 C   0  0  0  0  0  0  0  0  0  0  0  0
    8.3267  -15.0264   19.6809 C   0  0  0  0  0  0  0  0  0  0  0  0
    7.5416  -14.3698   18.8262 N   0  0  0  0  0  0  0  0  0  0  0  0
    7.8672  -13.0704   18.8448 C   0  0  0  0  0  0  0  0  0  0  0  0
    8.8573  -12.9377   19.7171 N   0  0  0  0  0  0  0  0  0  0  0  0
   11.4658  -16.1205   22.4528 C   0  0  0  0  0  0  0  0  0  0  0  0
   12.7586  -16.0013   21.9809 O   0  0  0  0  0  0  0  0  0  0  0  0
   11.2905  -16.4916   23.6525 O   0  0  0  0  0  0  0  0  0  0  0  0
  1  2  1  0
  2  3  1  0
  3  5  1  0
  3  4  1  6
  5  7  1  0
  5  6  1  1
  7  9  1  0
  7  8  2  0
  9 10  1  0
 10 11  1  0
 11 12  2  0
 13 14  1  0
 13 11  1  0
 14 15  1  1
 16 17  2  0
 16 15  1  0
 18 17  1  0
 19 20  2  0
 19 18  1  0
 20 16  1  0
 21 22  1  0
 21 14  1  0
 23 21  2  0
M  END
$$$$
