IGH.pdb
     RDKit          3D

 23 23  0  0  1  0  0  0  0  0999 V2000
    6.4160  -10.4485   25.9944 C   0  0  0  0  0  0  0  0  0  0  0  0
    7.3816  -11.5861   26.3295 C   0  0  0  0  0  0  0  0  0  0  0  0
    6.7188  -12.8854   25.9756 C   0  0  2  0  0  0  0  0  0  0  0  0
    5.4146  -13.0308   26.7297 C   0  0  0  0  0  0  0  0  0  0  0  0
    7.5590  -14.0920   26.0514 C   0  0  2  0  0  0  0  0  0  0  0  0
    8.9294  -13.9412   25.5866 N   0  0  0  0  0  0  0  0  0  0  0  0
    7.0190  -15.3862   25.6695 C   0  0  0  0  0  0  0  0  0  0  0  0
    6.2944  -16.0432   26.4891 O   0  0  0  0  0  0  0  0  0  0  0  0
    7.2556  -15.9842   24.4147 N   0  0  0  0  0  0  0  0  0  0  0  0
    6.7428  -17.3348   24.1460 C   0  0  0  0  0  0  0  0  0  0  0  0
    7.7833  -18.3528   24.3699 C   0  0  0  0  0  0  0  0  0  0  0  0
    7.5634  -19.5690   24.1542 O   0  0  0  0  0  0  0  0  0  0  0  0
    9.0559  -17.9646   24.8359 N   0  0  0  0  0  0  0  0  0  0  0  0
   10.1469  -18.9310   25.0346 C   0  0  1  0  0  0  0  0  0  0  0  0
   11.4000  -18.3703   24.4143 C   0  0  0  0  0  0  0  0  0  0  0  0
   11.1631  -18.0025   23.0075 C   0  0  0  0  0  0  0  0  0  0  0  0
   10.4152  -18.6905   22.0630 C   0  0  0  0  0  0  0  0  0  0  0  0
   10.4592  -18.0135   20.9151 N   0  0  0  0  0  0  0  0  0  0  0  0
   11.2073  -16.9152   21.0847 C   0  0  0  0  0  0  0  0  0  0  0  0
   11.6204  -16.9258   22.3449 N   0  0  0  0  0  0  0  0  0  0  0  0
   10.3733  -19.1318   26.4845 C   0  0  0  0  0  0  0  0  0  0  0  0
    9.6703  -18.4790   27.4784 O   0  0  0  0  0  0  0  0  0  0  0  0
   11.2739  -19.9579   26.8221 O   0  0  0  0  0  0  0  0  0  0  0  0
  1  2  1  0
  2  3  1  0
  3  5  1  0
  3  4  1  1
  5  7  1  0
  5  6  1  6
  7  9  1  0
  7  8  2  0
  9 10  1  0
 10 11  1  0
 11 12  2  0
 13 14  1  0
 13 11  1  0
 14 15  1  1
 16 17  2  0
 16 15  1  0
 18 17  1  0
 19 20  2  0
 19 18  1  0
 20 16  1  0
 21 22  1  0
 21 14  1  0
 23 21  2  0
M  END
$$$$
