IGH.pdb
     RDKit          3D

 23 23  0  0  1  0  0  0  0  0999 V2000
    7.8550  -11.7751   20.2820 C   0  0  0  0  0  0  0  0  0  0  0  0
    8.1761  -13.2656   20.1628 C   0  0  0  0  0  0  0  0  0  0  0  0
    7.4147  -13.9976   21.2291 C   0  0  2  0  0  0  0  0  0  0  0  0
    7.7479  -13.4319   22.5929 C   0  0  0  0  0  0  0  0  0  0  0  0
    7.4811  -15.4679   21.1898 C   0  0  2  0  0  0  0  0  0  0  0  0
    7.3957  -16.0719   19.8690 N   0  0  0  0  0  0  0  0  0  0  0  0
    6.7608  -16.2605   22.1724 C   0  0  0  0  0  0  0  0  0  0  0  0
    5.4890  -16.3476   22.1150 O   0  0  0  0  0  0  0  0  0  0  0  0
    7.3955  -16.9569   23.2213 N   0  0  0  0  0  0  0  0  0  0  0  0
    6.5816  -17.6175   24.2511 C   0  0  0  0  0  0  0  0  0  0  0  0
    7.4306  -18.2454   25.2778 C   0  0  0  0  0  0  0  0  0  0  0  0
    6.9311  -18.8591   26.2514 O   0  0  0  0  0  0  0  0  0  0  0  0
    8.8341  -18.1617   25.1750 N   0  0  0  0  0  0  0  0  0  0  0  0
    9.7309  -18.7549   26.1787 C   0  0  1  0  0  0  0  0  0  0  0  0
   11.1541  -18.5351   25.7363 C   0  0  0  0  0  0  0  0  0  0  0  0
   11.3602  -19.0550   24.3734 C   0  0  0  0  0  0  0  0  0  0  0  0
   10.4436  -19.7136   23.5667 C   0  0  0  0  0  0  0  0  0  0  0  0
   11.0370  -20.0131   22.4109 N   0  0  0  0  0  0  0  0  0  0  0  0
   12.3017  -19.5722   22.4427 C   0  0  0  0  0  0  0  0  0  0  0  0
   12.4769  -19.0009   23.6266 N   0  0  0  0  0  0  0  0  0  0  0  0
    9.5224  -18.0891   27.4851 C   0  0  0  0  0  0  0  0  0  0  0  0
    9.8595  -18.6459   28.7035 O   0  0  0  0  0  0  0  0  0  0  0  0
    8.9988  -16.9344   27.4708 O   0  0  0  0  0  0  0  0  0  0  0  0
  1  2  1  0
  2  3  1  0
  3  5  1  0
  3  4  1  1
  5  7  1  0
  5  6  1  6
  7  9  1  0
  7  8  2  0
  9 10  1  0
 10 11  1  0
 11 12  2  0
 13 14  1  0
 13 11  1  0
 14 15  1  6
 16 17  2  0
 16 15  1  0
 18 17  1  0
 19 20  2  0
 19 18  1  0
 20 16  1  0
 21 22  1  0
 21 14  1  0
 23 21  2  0
M  END
$$$$
