IGH.pdb
     RDKit          3D

 23 23  0  0  1  0  0  0  0  0999 V2000
    7.6361  -11.9728   20.2487 C   0  0  0  0  0  0  0  0  0  0  0  0
    7.8119  -13.3147   19.5368 C   0  0  0  0  0  0  0  0  0  0  0  0
    7.7311  -14.4063   20.5637 C   0  0  2  0  0  0  0  0  0  0  0  0
    8.6957  -14.1316   21.6973 C   0  0  0  0  0  0  0  0  0  0  0  0
    7.8202  -15.7872   20.0610 C   0  0  2  0  0  0  0  0  0  0  0  0
    7.0967  -16.0620   18.8290 N   0  0  0  0  0  0  0  0  0  0  0  0
    7.7279  -16.9091   20.9804 C   0  0  0  0  0  0  0  0  0  0  0  0
    6.7327  -17.0051   21.7735 O   0  0  0  0  0  0  0  0  0  0  0  0
    8.6997  -17.9276   21.0593 N   0  0  0  0  0  0  0  0  0  0  0  0
    8.5898  -18.9566   22.1025 C   0  0  0  0  0  0  0  0  0  0  0  0
    9.6890  -18.8457   23.0765 C   0  0  0  0  0  0  0  0  0  0  0  0
   10.1399  -19.8553   23.6693 O   0  0  0  0  0  0  0  0  0  0  0  0
   10.2538  -17.5848   23.3565 N   0  0  0  0  0  0  0  0  0  0  0  0
   11.3791  -17.4189   24.2890 C   0  0  1  0  0  0  0  0  0  0  0  0
   12.0039  -16.0694   24.0477 C   0  0  0  0  0  0  0  0  0  0  0  0
   12.4886  -15.9624   22.6606 C   0  0  0  0  0  0  0  0  0  0  0  0
   12.4890  -16.9455   21.6817 C   0  0  0  0  0  0  0  0  0  0  0  0
   13.0154  -16.4329   20.5690 N   0  0  0  0  0  0  0  0  0  0  0  0
   13.3541  -15.1565   20.7944 C   0  0  0  0  0  0  0  0  0  0  0  0
   13.0308  -14.8926   22.0532 N   0  0  0  0  0  0  0  0  0  0  0  0
   10.8811  -17.4788   25.6826 C   0  0  0  0  0  0  0  0  0  0  0  0
   11.6944  -17.5809   26.7946 O   0  0  0  0  0  0  0  0  0  0  0  0
    9.6255  -17.4337   25.8524 O   0  0  0  0  0  0  0  0  0  0  0  0
  1  2  1  0
  2  3  1  0
  3  5  1  0
  3  4  1  1
  5  7  1  0
  5  6  1  6
  7  9  1  0
  7  8  2  0
  9 10  1  0
 10 11  1  0
 11 12  2  0
 13 14  1  0
 13 11  1  0
 14 15  1  6
 16 17  2  0
 16 15  1  0
 18 17  1  0
 19 20  2  0
 19 18  1  0
 20 16  1  0
 21 22  1  0
 21 14  1  0
 23 21  2  0
M  END
$$$$
