IGH.pdb
     RDKit          3D

 23 23  0  0  1  0  0  0  0  0999 V2000
    7.2118  -11.9331   18.7549 C   0  0  0  0  0  0  0  0  0  0  0  0
    8.6927  -12.2583   18.9548 C   0  0  0  0  0  0  0  0  0  0  0  0
    8.7929  -13.4980   19.7948 C   0  0  2  0  0  0  0  0  0  0  0  0
    7.9829  -13.3383   21.0634 C   0  0  0  0  0  0  0  0  0  0  0  0
   10.1496  -14.0123   20.0453 C   0  0  2  0  0  0  0  0  0  0  0  0
   11.0796  -13.9185   18.9305 N   0  0  0  0  0  0  0  0  0  0  0  0
   10.3392  -15.2526   20.7788 C   0  0  0  0  0  0  0  0  0  0  0  0
   10.5165  -16.3475   20.1477 O   0  0  0  0  0  0  0  0  0  0  0  0
   10.3344  -15.3281   22.1868 N   0  0  0  0  0  0  0  0  0  0  0  0
   10.5938  -16.6157   22.8456 C   0  0  0  0  0  0  0  0  0  0  0  0
   12.0272  -16.9523   22.8092 C   0  0  0  0  0  0  0  0  0  0  0  0
   12.4161  -18.1328   22.6390 O   0  0  0  0  0  0  0  0  0  0  0  0
   12.9909  -15.9356   22.9677 N   0  0  0  0  0  0  0  0  0  0  0  0
   14.4344  -16.2010   22.8706 C   0  0  1  0  0  0  0  0  0  0  0  0
   15.0943  -15.0164   22.2141 C   0  0  0  0  0  0  0  0  0  0  0  0
   16.5468  -15.2318   22.0946 C   0  0  0  0  0  0  0  0  0  0  0  0
   17.2701  -16.3638   22.4410 C   0  0  0  0  0  0  0  0  0  0  0  0
   18.5569  -16.1414   22.1716 N   0  0  0  0  0  0  0  0  0  0  0  0
   18.6897  -14.9085   21.6646 C   0  0  0  0  0  0  0  0  0  0  0  0
   17.4745  -14.3789   21.6262 N   0  0  0  0  0  0  0  0  0  0  0  0
   14.9985  -16.3774   24.2286 C   0  0  0  0  0  0  0  0  0  0  0  0
   14.2789  -16.2131   25.3963 O   0  0  0  0  0  0  0  0  0  0  0  0
   16.2222  -16.6988   24.3113 O   0  0  0  0  0  0  0  0  0  0  0  0
  1  2  1  0
  2  3  1  0
  3  5  1  0
  3  4  1  1
  5  7  1  0
  5  6  1  6
  7  9  1  0
  7  8  2  0
  9 10  1  0
 10 11  1  0
 11 12  2  0
 13 14  1  0
 13 11  1  0
 14 15  1  1
 16 17  2  0
 16 15  1  0
 18 17  1  0
 19 20  2  0
 19 18  1  0
 20 16  1  0
 21 22  1  0
 21 14  1  0
 23 21  2  0
M  END
$$$$
