IGH.pdb
     RDKit          3D

 23 23  0  0  1  0  0  0  0  0999 V2000
    7.5994  -11.5800   27.6052 C   0  0  0  0  0  0  0  0  0  0  0  0
    6.7648  -12.8398   27.3705 C   0  0  0  0  0  0  0  0  0  0  0  0
    7.2521  -13.4997   26.1136 C   0  0  2  0  0  0  0  0  0  0  0  0
    7.2743  -12.5040   24.9739 C   0  0  0  0  0  0  0  0  0  0  0  0
    6.6060  -14.7710   25.7478 C   0  0  2  0  0  0  0  0  0  0  0  0
    6.4513  -15.7371   26.8245 N   0  0  0  0  0  0  0  0  0  0  0  0
    6.9457  -15.4329   24.4991 C   0  0  0  0  0  0  0  0  0  0  0  0
    7.1126  -14.7460   23.4367 O   0  0  0  0  0  0  0  0  0  0  0  0
    7.1025  -16.8291   24.3805 N   0  0  0  0  0  0  0  0  0  0  0  0
    7.5066  -17.4073   23.0915 C   0  0  0  0  0  0  0  0  0  0  0  0
    8.9647  -17.6058   23.0316 C   0  0  0  0  0  0  0  0  0  0  0  0
    9.6233  -17.9176   24.0529 O   0  0  0  0  0  0  0  0  0  0  0  0
    9.6450  -17.4449   21.8074 N   0  0  0  0  0  0  0  0  0  0  0  0
   10.6909  -16.4280   21.6189 C   0  0  1  0  0  0  0  0  0  0  0  0
   10.0781  -15.0681   21.8309 C   0  0  0  0  0  0  0  0  0  0  0  0
    9.2578  -14.6817   20.6698 C   0  0  0  0  0  0  0  0  0  0  0  0
    9.1508  -15.3332   19.4496 C   0  0  0  0  0  0  0  0  0  0  0  0
    8.3025  -14.6507   18.6797 N   0  0  0  0  0  0  0  0  0  0  0  0
    7.8591  -13.5840   19.3582 C   0  0  0  0  0  0  0  0  0  0  0  0
    8.4426  -13.6195   20.5486 N   0  0  0  0  0  0  0  0  0  0  0  0
   11.7676  -16.6336   22.6150 C   0  0  0  0  0  0  0  0  0  0  0  0
   12.9687  -17.2593   22.3427 O   0  0  0  0  0  0  0  0  0  0  0  0
   11.5607  -16.2043   23.7899 O   0  0  0  0  0  0  0  0  0  0  0  0
  1  2  1  0
  2  3  1  0
  3  5  1  0
  3  4  1  6
  5  7  1  0
  5  6  1  1
  7  9  1  0
  7  8  2  0
  9 10  1  0
 10 11  1  0
 11 12  2  0
 13 14  1  0
 13 11  1  0
 14 15  1  1
 16 17  2  0
 16 15  1  0
 18 17  1  0
 19 20  2  0
 19 18  1  0
 20 16  1  0
 21 22  1  0
 21 14  1  0
 23 21  2  0
M  END
$$$$
