IGH.pdb
     RDKit          3D

 23 23  0  0  1  0  0  0  0  0999 V2000
    7.5363  -11.5822   26.7678 C   0  0  0  0  0  0  0  0  0  0  0  0
    7.3733  -13.0269   27.2421 C   0  0  0  0  0  0  0  0  0  0  0  0
    7.3852  -13.9219   26.0373 C   0  0  2  0  0  0  0  0  0  0  0  0
    6.3774  -13.4395   25.0164 C   0  0  0  0  0  0  0  0  0  0  0  0
    7.2892  -15.3684   26.2942 C   0  0  2  0  0  0  0  0  0  0  0  0
    7.9895  -15.8512   27.4746 N   0  0  0  0  0  0  0  0  0  0  0  0
    7.4012  -16.3163   25.1982 C   0  0  0  0  0  0  0  0  0  0  0  0
    8.3838  -17.1294   25.1546 O   0  0  0  0  0  0  0  0  0  0  0  0
    6.4684  -16.3948   24.1438 N   0  0  0  0  0  0  0  0  0  0  0  0
    6.6019  -17.4535   23.1336 C   0  0  0  0  0  0  0  0  0  0  0  0
    7.7380  -17.1899   22.2342 C   0  0  0  0  0  0  0  0  0  0  0  0
    7.9455  -17.8988   21.2202 O   0  0  0  0  0  0  0  0  0  0  0  0
    8.6168  -16.1222   22.5082 N   0  0  0  0  0  0  0  0  0  0  0  0
    9.8062  -15.8542   21.6855 C   0  0  1  0  0  0  0  0  0  0  0  0
    9.8636  -14.3769   21.3962 C   0  0  0  0  0  0  0  0  0  0  0  0
    8.9124  -14.0195   20.3294 C   0  0  0  0  0  0  0  0  0  0  0  0
    8.0675  -14.8649   19.6251 C   0  0  0  0  0  0  0  0  0  0  0  0
    7.3745  -14.1358   18.7498 N   0  0  0  0  0  0  0  0  0  0  0  0
    7.7413  -12.8524   18.8639 C   0  0  0  0  0  0  0  0  0  0  0  0
    8.6637  -12.8024   19.8155 N   0  0  0  0  0  0  0  0  0  0  0  0
   11.0238  -16.2485   22.4309 C   0  0  0  0  0  0  0  0  0  0  0  0
   11.0138  -16.8207   23.6882 O   0  0  0  0  0  0  0  0  0  0  0  0
   12.1410  -16.0411   21.8685 O   0  0  0  0  0  0  0  0  0  0  0  0
  1  2  1  0
  2  3  1  0
  3  5  1  0
  3  4  1  6
  5  7  1  0
  5  6  1  1
  7  9  1  0
  7  8  2  0
  9 10  1  0
 10 11  1  0
 11 12  2  0
 13 14  1  0
 13 11  1  0
 14 15  1  1
 16 17  2  0
 16 15  1  0
 18 17  1  0
 19 20  2  0
 19 18  1  0
 20 16  1  0
 21 22  1  0
 21 14  1  0
 23 21  2  0
M  END
$$$$
