IGH.pdb
     RDKit          3D

 23 23  0  0  1  0  0  0  0  0999 V2000
    8.0155  -11.8156   19.4794 C   0  0  0  0  0  0  0  0  0  0  0  0
    7.3968  -12.8869   20.3783 C   0  0  0  0  0  0  0  0  0  0  0  0
    8.2768  -14.1020   20.3362 C   0  0  2  0  0  0  0  0  0  0  0  0
    8.5532  -14.4993   18.9022 C   0  0  0  0  0  0  0  0  0  0  0  0
    7.8634  -15.2401   21.1738 C   0  0  2  0  0  0  0  0  0  0  0  0
    6.8017  -14.9707   22.1314 N   0  0  0  0  0  0  0  0  0  0  0  0
    8.8603  -16.1339   21.7393 C   0  0  0  0  0  0  0  0  0  0  0  0
    9.3824  -17.0474   21.0173 O   0  0  0  0  0  0  0  0  0  0  0  0
    9.2978  -16.0584   23.0775 N   0  0  0  0  0  0  0  0  0  0  0  0
   10.3699  -16.9494   23.5422 C   0  0  0  0  0  0  0  0  0  0  0  0
   10.6766  -16.7159   24.9637 C   0  0  0  0  0  0  0  0  0  0  0  0
   11.6959  -17.2118   25.5013 O   0  0  0  0  0  0  0  0  0  0  0  0
    9.8145  -15.9207   25.7459 N   0  0  0  0  0  0  0  0  0  0  0  0
    9.3015  -16.3688   27.0497 C   0  0  1  0  0  0  0  0  0  0  0  0
    7.8075  -16.1755   27.0667 C   0  0  0  0  0  0  0  0  0  0  0  0
    7.4584  -14.7949   26.6892 C   0  0  0  0  0  0  0  0  0  0  0  0
    8.2921  -13.6867   26.6523 C   0  0  0  0  0  0  0  0  0  0  0  0
    7.5767  -12.6332   26.2569 N   0  0  0  0  0  0  0  0  0  0  0  0
    6.3133  -13.0213   26.0377 C   0  0  0  0  0  0  0  0  0  0  0  0
    6.2618  -14.3198   26.3021 N   0  0  0  0  0  0  0  0  0  0  0  0
    9.6051  -17.8066   27.2344 C   0  0  0  0  0  0  0  0  0  0  0  0
   10.2136  -18.3342   28.3567 O   0  0  0  0  0  0  0  0  0  0  0  0
    9.2818  -18.5932   26.2941 O   0  0  0  0  0  0  0  0  0  0  0  0
  1  2  1  0
  2  3  1  0
  3  5  1  0
  3  4  1  6
  5  7  1  0
  5  6  1  1
  7  9  1  0
  7  8  2  0
  9 10  1  0
 10 11  1  0
 11 12  2  0
 13 14  1  0
 13 11  1  0
 14 15  1  6
 16 17  2  0
 16 15  1  0
 18 17  1  0
 19 20  2  0
 19 18  1  0
 20 16  1  0
 21 22  1  0
 21 14  1  0
 23 21  2  0
M  END
$$$$
