IGH.pdb
     RDKit          3D

 23 23  0  0  1  0  0  0  0  0999 V2000
    7.2331  -10.8244   26.9751 C   0  0  0  0  0  0  0  0  0  0  0  0
    7.6966  -12.2598   27.2273 C   0  0  0  0  0  0  0  0  0  0  0  0
    6.9647  -13.1640   26.2790 C   0  0  2  0  0  0  0  0  0  0  0  0
    5.4695  -13.0008   26.4482 C   0  0  0  0  0  0  0  0  0  0  0  0
    7.3860  -14.5746   26.2614 C   0  0  2  0  0  0  0  0  0  0  0  0
    8.7813  -14.8243   26.5893 N   0  0  0  0  0  0  0  0  0  0  0  0
    6.9332  -15.4614   25.2026 C   0  0  0  0  0  0  0  0  0  0  0  0
    6.4636  -16.6125   25.4905 O   0  0  0  0  0  0  0  0  0  0  0  0
    6.9857  -15.1241   23.8346 N   0  0  0  0  0  0  0  0  0  0  0  0
    6.5855  -16.1154   22.8265 C   0  0  0  0  0  0  0  0  0  0  0  0
    7.6681  -16.3548   21.8571 C   0  0  0  0  0  0  0  0  0  0  0  0
    7.5115  -17.1283   20.8819 O   0  0  0  0  0  0  0  0  0  0  0  0
    8.9099  -15.7073   22.0181 N   0  0  0  0  0  0  0  0  0  0  0  0
   10.0407  -15.9415   21.1071 C   0  0  1  0  0  0  0  0  0  0  0  0
   10.3634  -14.6484   20.4046 C   0  0  0  0  0  0  0  0  0  0  0  0
    9.2139  -14.1915   19.6046 C   0  0  0  0  0  0  0  0  0  0  0  0
    8.5334  -12.9867   19.7044 C   0  0  0  0  0  0  0  0  0  0  0  0
    7.5585  -12.9758   18.7948 N   0  0  0  0  0  0  0  0  0  0  0  0
    7.5854  -14.1285   18.1126 C   0  0  0  0  0  0  0  0  0  0  0  0
    8.5841  -14.8441   18.6121 N   0  0  0  0  0  0  0  0  0  0  0  0
   11.2229  -16.3766   21.8859 C   0  0  0  0  0  0  0  0  0  0  0  0
   12.4455  -16.6974   21.3285 O   0  0  0  0  0  0  0  0  0  0  0  0
   11.0911  -16.4571   23.1444 O   0  0  0  0  0  0  0  0  0  0  0  0
  1  2  1  0
  2  3  1  0
  3  5  1  0
  3  4  1  1
  5  7  1  0
  5  6  1  6
  7  9  1  0
  7  8  2  0
  9 10  1  0
 10 11  1  0
 11 12  2  0
 13 14  1  0
 13 11  1  0
 14 15  1  1
 16 17  2  0
 16 15  1  0
 18 17  1  0
 19 20  2  0
 19 18  1  0
 20 16  1  0
 21 22  1  0
 21 14  1  0
 23 21  2  0
M  END
$$$$
