IGH.pdb
     RDKit          3D

 23 23  0  0  1  0  0  0  0  0999 V2000
    6.4001  -11.0981   27.1037 C   0  0  0  0  0  0  0  0  0  0  0  0
    6.9133  -12.5377   27.1556 C   0  0  0  0  0  0  0  0  0  0  0  0
    7.1392  -13.0077   25.7483 C   0  0  2  0  0  0  0  0  0  0  0  0
    5.8455  -12.9551   24.9643 C   0  0  0  0  0  0  0  0  0  0  0  0
    7.8500  -14.2874   25.5906 C   0  0  2  0  0  0  0  0  0  0  0  0
    8.8412  -14.5926   26.6109 N   0  0  0  0  0  0  0  0  0  0  0  0
    8.3043  -14.7164   24.2784 C   0  0  0  0  0  0  0  0  0  0  0  0
    9.2079  -14.0543   23.6670 O   0  0  0  0  0  0  0  0  0  0  0  0
    7.7917  -15.8492   23.6135 N   0  0  0  0  0  0  0  0  0  0  0  0
    8.1781  -16.1098   22.2200 C   0  0  0  0  0  0  0  0  0  0  0  0
    9.5178  -16.7171   22.1445 C   0  0  0  0  0  0  0  0  0  0  0  0
    9.8280  -17.4996   21.2143 O   0  0  0  0  0  0  0  0  0  0  0  0
   10.4793  -16.4204   23.1319 N   0  0  0  0  0  0  0  0  0  0  0  0
   11.8526  -16.9436   23.0718 C   0  0  1  0  0  0  0  0  0  0  0  0
   12.8011  -15.7807   22.9396 C   0  0  0  0  0  0  0  0  0  0  0  0
   12.8121  -15.2745   21.5561 C   0  0  0  0  0  0  0  0  0  0  0  0
   12.0917  -15.7509   20.4705 C   0  0  0  0  0  0  0  0  0  0  0  0
   12.3940  -15.0088   19.4047 N   0  0  0  0  0  0  0  0  0  0  0  0
   13.2822  -14.0721   19.7631 C   0  0  0  0  0  0  0  0  0  0  0  0
   13.5206  -14.2471   21.0559 N   0  0  0  0  0  0  0  0  0  0  0  0
   12.1587  -17.6775   24.3213 C   0  0  0  0  0  0  0  0  0  0  0  0
   13.3659  -18.2959   24.5833 O   0  0  0  0  0  0  0  0  0  0  0  0
   11.2452  -17.7357   25.1986 O   0  0  0  0  0  0  0  0  0  0  0  0
  1  2  1  0
  2  3  1  0
  3  5  1  0
  3  4  1  1
  5  7  1  0
  5  6  1  1
  7  9  1  0
  7  8  2  0
  9 10  1  0
 10 11  1  0
 11 12  2  0
 13 14  1  0
 13 11  1  0
 14 15  1  1
 16 17  2  0
 16 15  1  0
 18 17  1  0
 19 20  2  0
 19 18  1  0
 20 16  1  0
 21 22  1  0
 21 14  1  0
 23 21  2  0
M  END
$$$$
