IGH.pdb
     RDKit          3D

 23 23  0  0  1  0  0  0  0  0999 V2000
    7.9870  -11.6618   20.2854 C   0  0  0  0  0  0  0  0  0  0  0  0
    7.2749  -12.9759   20.6092 C   0  0  0  0  0  0  0  0  0  0  0  0
    8.0653  -14.1003   20.0062 C   0  0  2  0  0  0  0  0  0  0  0  0
    8.2521  -13.8723   18.5216 C   0  0  0  0  0  0  0  0  0  0  0  0
    7.6094  -15.4645   20.3207 C   0  0  2  0  0  0  0  0  0  0  0  0
    6.4724  -15.9467   19.5517 N   0  0  0  0  0  0  0  0  0  0  0  0
    7.5310  -15.9106   21.7018 C   0  0  0  0  0  0  0  0  0  0  0  0
    6.4239  -16.3343   22.1745 O   0  0  0  0  0  0  0  0  0  0  0  0
    8.6319  -15.9005   22.5826 N   0  0  0  0  0  0  0  0  0  0  0  0
    8.4634  -16.3811   23.9609 C   0  0  0  0  0  0  0  0  0  0  0  0
    9.7426  -16.3622   24.6906 C   0  0  0  0  0  0  0  0  0  0  0  0
   10.6883  -17.1214   24.3695 O   0  0  0  0  0  0  0  0  0  0  0  0
    9.9195  -15.4772   25.7737 N   0  0  0  0  0  0  0  0  0  0  0  0
    9.4821  -15.8100   27.1380 C   0  0  1  0  0  0  0  0  0  0  0  0
    7.9783  -15.7353   27.1887 C   0  0  0  0  0  0  0  0  0  0  0  0
    7.5209  -14.3479   26.9982 C   0  0  0  0  0  0  0  0  0  0  0  0
    8.2969  -13.2017   26.9053 C   0  0  0  0  0  0  0  0  0  0  0  0
    7.4869  -12.1561   26.7357 N   0  0  0  0  0  0  0  0  0  0  0  0
    6.2182  -12.5858   26.7158 C   0  0  0  0  0  0  0  0  0  0  0  0
    6.2586  -13.9018   26.8745 N   0  0  0  0  0  0  0  0  0  0  0  0
    9.9092  -17.1879   27.4734 C   0  0  0  0  0  0  0  0  0  0  0  0
   11.0541  -17.4956   28.1826 O   0  0  0  0  0  0  0  0  0  0  0  0
    9.1684  -18.1375   27.0773 O   0  0  0  0  0  0  0  0  0  0  0  0
  1  2  1  0
  2  3  1  0
  3  5  1  0
  3  4  1  6
  5  7  1  0
  5  6  1  1
  7  9  1  0
  7  8  2  0
  9 10  1  0
 10 11  1  0
 11 12  2  0
 13 14  1  0
 13 11  1  0
 14 15  1  6
 16 17  2  0
 16 15  1  0
 18 17  1  0
 19 20  2  0
 19 18  1  0
 20 16  1  0
 21 22  1  0
 21 14  1  0
 23 21  2  0
M  END
$$$$
