ESI.pdb
     RDKit          3D

 24 23  0  0  1  0  0  0  0  0999 V2000
    7.9687  -18.0781   19.2563 N   0  0  0  0  0  0  0  0  0  0  0  0
    8.4119  -18.7714   20.4996 C   0  0  1  0  0  0  0  0  0  0  0  0
    9.8999  -18.7781   20.4058 C   0  0  0  0  0  0  0  0  0  0  0  0
   10.5850  -17.4775   20.2137 C   0  0  0  0  0  0  0  0  0  0  0  0
   12.0478  -17.6436   20.0258 C   0  0  0  0  0  0  0  0  0  0  0  0
   12.8455  -17.8809   20.9692 O   0  0  0  0  0  0  0  0  0  0  0  0
    7.8557  -17.9674   21.5981 C   0  0  0  0  0  0  0  0  0  0  0  0
    7.5943  -16.7362   21.3788 O   0  0  0  0  0  0  0  0  0  0  0  0
   12.5789  -17.5316   18.7117 O   0  0  0  0  0  0  0  0  0  0  0  0
    7.1769  -18.9335   25.7356 O   0  0  0  0  0  0  0  0  0  0  0  0
    6.1936  -18.3825   24.9114 C   0  0  0  0  0  0  0  0  0  0  0  0
    6.9018  -17.5535   23.8803 C   0  0  2  0  0  0  0  0  0  0  0  0
    7.5673  -18.4297   22.9117 N   0  0  0  0  0  0  0  0  0  0  0  0
    7.9196  -16.6718   24.4978 C   0  0  0  0  0  0  0  0  0  0  0  0
    9.1211  -17.0045   24.4978 O   0  0  0  0  0  0  0  0  0  0  0  0
    6.3838  -11.7219   27.1134 C   0  0  0  0  0  0  0  0  0  0  0  0
    6.7963  -13.1212   26.7097 C   0  0  0  0  0  0  0  0  0  0  0  0
    7.9809  -13.1244   25.7968 C   0  0  2  0  0  0  0  0  0  0  0  0
    7.6531  -12.6597   24.4041 C   0  0  0  0  0  0  0  0  0  0  0  0
    8.5369  -14.5373   25.7094 C   0  0  2  0  0  0  0  0  0  0  0  0
    7.5730  -15.4315   25.1046 N   0  0  0  0  0  0  0  0  0  0  0  0
    8.9335  -15.0401   27.0501 C   0  0  0  0  0  0  0  0  0  0  0  0
    8.3183  -15.9752   27.6417 O   0  0  0  0  0  0  0  0  0  0  0  0
   10.0161  -14.5002   27.7284 O   0  0  0  0  0  0  0  0  0  0  0  0
  2  1  1  6
  3  2  1  0
  4  3  1  0
  5  4  1  0
  6  5  2  0
  7  2  1  0
  8  7  2  0
  9  5  1  0
 10 11  1  0
 12 11  1  1
 12 14  1  0
 12 13  1  0
 13  7  1  0
 14 21  1  0
 15 14  2  0
 17 16  1  0
 18 20  1  0
 18 17  1  0
 18 19  1  6
 20 22  1  0
 20 21  1  1
 22 23  2  0
 22 24  1  0
M  END
$$$$
