ESI.pdb
     RDKit          3D

 24 23  0  0  1  0  0  0  0  0999 V2000
   10.2858  -15.3383   17.8440 N   0  0  0  0  0  0  0  0  0  0  0  0
   10.8208  -15.9840   19.0767 C   0  0  1  0  0  0  0  0  0  0  0  0
   12.1018  -15.2679   19.3400 C   0  0  0  0  0  0  0  0  0  0  0  0
   13.2837  -15.6475   18.5295 C   0  0  0  0  0  0  0  0  0  0  0  0
   14.5034  -14.9141   18.9503 C   0  0  0  0  0  0  0  0  0  0  0  0
   14.6138  -13.6621   18.8934 O   0  0  0  0  0  0  0  0  0  0  0  0
    9.7727  -15.7886   20.0896 C   0  0  0  0  0  0  0  0  0  0  0  0
    9.1047  -14.6998   20.0714 O   0  0  0  0  0  0  0  0  0  0  0  0
   15.6062  -15.6619   19.4462 O   0  0  0  0  0  0  0  0  0  0  0  0
    8.4227  -18.3649   23.2917 O   0  0  0  0  0  0  0  0  0  0  0  0
    7.5984  -17.7086   22.3755 C   0  0  0  0  0  0  0  0  0  0  0  0
    8.2877  -16.4276   22.0069 C   0  0  2  0  0  0  0  0  0  0  0  0
    9.4131  -16.7103   21.1113 N   0  0  0  0  0  0  0  0  0  0  0  0
    8.8017  -15.7233   23.2046 C   0  0  0  0  0  0  0  0  0  0  0  0
   10.0139  -15.7756   23.4912 O   0  0  0  0  0  0  0  0  0  0  0  0
    7.0783  -11.1874   27.1143 C   0  0  0  0  0  0  0  0  0  0  0  0
    7.9868  -12.3292   26.7116 C   0  0  0  0  0  0  0  0  0  0  0  0
    7.4305  -13.1254   25.5743 C   0  0  2  0  0  0  0  0  0  0  0  0
    6.1097  -13.7695   25.8960 C   0  0  0  0  0  0  0  0  0  0  0  0
    8.4181  -14.2215   25.2053 C   0  0  2  0  0  0  0  0  0  0  0  0
    7.9477  -14.9719   24.0606 N   0  0  0  0  0  0  0  0  0  0  0  0
    8.6590  -15.1333   26.3535 C   0  0  0  0  0  0  0  0  0  0  0  0
    8.0562  -16.2382   26.4904 O   0  0  0  0  0  0  0  0  0  0  0  0
    9.5726  -14.8121   27.3464 O   0  0  0  0  0  0  0  0  0  0  0  0
  2  1  1  6
  3  2  1  0
  4  3  1  0
  5  4  1  0
  6  5  2  0
  7  2  1  0
  8  7  2  0
  9  5  1  0
 10 11  1  0
 12 11  1  1
 12 14  1  0
 12 13  1  0
 13  7  1  0
 14 21  1  0
 15 14  2  0
 17 16  1  0
 18 20  1  0
 18 17  1  0
 18 19  1  1
 20 22  1  0
 20 21  1  6
 22 23  2  0
 22 24  1  0
M  END
$$$$
