ESI.pdb
     RDKit          3D

 24 23  0  0  1  0  0  0  0  0999 V2000
   11.8177  -16.6512   19.7064 N   0  0  0  0  0  0  0  0  0  0  0  0
   11.8617  -17.0745   21.1353 C   0  0  1  0  0  0  0  0  0  0  0  0
   13.1594  -16.5385   21.6372 C   0  0  0  0  0  0  0  0  0  0  0  0
   14.3844  -17.3265   21.3612 C   0  0  0  0  0  0  0  0  0  0  0  0
   15.6003  -16.6687   21.9011 C   0  0  0  0  0  0  0  0  0  0  0  0
   15.9937  -16.8058   23.0882 O   0  0  0  0  0  0  0  0  0  0  0  0
   10.6606  -16.4805   21.7413 C   0  0  0  0  0  0  0  0  0  0  0  0
   10.3472  -15.2836   21.4230 O   0  0  0  0  0  0  0  0  0  0  0  0
   16.3646  -15.8410   21.0336 O   0  0  0  0  0  0  0  0  0  0  0  0
    7.8432  -18.4412   24.0398 O   0  0  0  0  0  0  0  0  0  0  0  0
    7.4430  -17.3681   23.2411 C   0  0  0  0  0  0  0  0  0  0  0  0
    8.6024  -16.4178   23.1729 C   0  0  2  0  0  0  0  0  0  0  0  0
    9.7868  -17.1167   22.6656 N   0  0  0  0  0  0  0  0  0  0  0  0
    8.9209  -15.8531   24.5050 C   0  0  0  0  0  0  0  0  0  0  0  0
    9.9706  -16.1824   25.0915 O   0  0  0  0  0  0  0  0  0  0  0  0
    4.9630  -12.8224   27.3713 C   0  0  0  0  0  0  0  0  0  0  0  0
    5.9715  -13.7930   26.7950 C   0  0  0  0  0  0  0  0  0  0  0  0
    7.3537  -13.2230   26.7587 C   0  0  2  0  0  0  0  0  0  0  0  0
    7.5187  -12.1420   25.7255 C   0  0  0  0  0  0  0  0  0  0  0  0
    8.3420  -14.3359   26.4462 C   0  0  2  0  0  0  0  0  0  0  0  0
    8.0570  -14.9281   25.1568 N   0  0  0  0  0  0  0  0  0  0  0  0
    8.3265  -15.3782   27.5050 C   0  0  0  0  0  0  0  0  0  0  0  0
    8.8351  -15.1999   28.6506 O   0  0  0  0  0  0  0  0  0  0  0  0
    7.7429  -16.6171   27.2850 O   0  0  0  0  0  0  0  0  0  0  0  0
  2  1  1  6
  3  2  1  0
  4  3  1  0
  5  4  1  0
  6  5  2  0
  7  2  1  0
  8  7  2  0
  9  5  1  0
 10 11  1  0
 12 11  1  1
 12 14  1  0
 12 13  1  0
 13  7  1  0
 14 21  1  0
 15 14  2  0
 17 16  1  0
 18 20  1  0
 18 17  1  0
 18 19  1  6
 20 22  1  0
 20 21  1  6
 22 23  2  0
 22 24  1  0
M  END
$$$$
