ESI.pdb
     RDKit          3D

 24 23  0  0  1  0  0  0  0  0999 V2000
    8.7278  -17.8834   19.5025 N   0  0  0  0  0  0  0  0  0  0  0  0
    8.2797  -16.4632   19.5739 C   0  0  1  0  0  0  0  0  0  0  0  0
    7.3535  -16.3116   18.4154 C   0  0  0  0  0  0  0  0  0  0  0  0
    7.2320  -17.4516   17.4754 C   0  0  0  0  0  0  0  0  0  0  0  0
    7.9111  -17.1803   16.1839 C   0  0  0  0  0  0  0  0  0  0  0  0
    7.8158  -16.0883   15.5664 O   0  0  0  0  0  0  0  0  0  0  0  0
    7.6549  -16.3314   20.8987 C   0  0  0  0  0  0  0  0  0  0  0  0
    7.0618  -15.2368   21.1852 O   0  0  0  0  0  0  0  0  0  0  0  0
    8.7143  -18.2050   15.6126 O   0  0  0  0  0  0  0  0  0  0  0  0
    7.7162  -19.1379   23.9448 O   0  0  0  0  0  0  0  0  0  0  0  0
    6.5607  -18.3628   23.8280 C   0  0  0  0  0  0  0  0  0  0  0  0
    6.9679  -17.0636   23.1968 C   0  0  2  0  0  0  0  0  0  0  0  0
    7.6380  -17.3220   21.9190 N   0  0  0  0  0  0  0  0  0  0  0  0
    7.8913  -16.3017   24.0695 C   0  0  0  0  0  0  0  0  0  0  0  0
    9.1238  -16.3793   23.8984 O   0  0  0  0  0  0  0  0  0  0  0  0
    5.7532  -11.9051   26.5116 C   0  0  0  0  0  0  0  0  0  0  0  0
    6.6895  -12.8681   25.8138 C   0  0  0  0  0  0  0  0  0  0  0  0
    7.5001  -13.6740   26.7784 C   0  0  2  0  0  0  0  0  0  0  0  0
    8.4734  -12.8428   27.5688 C   0  0  0  0  0  0  0  0  0  0  0  0
    8.2852  -14.7258   26.0103 C   0  0  2  0  0  0  0  0  0  0  0  0
    7.4170  -15.4653   25.1194 N   0  0  0  0  0  0  0  0  0  0  0  0
    8.9826  -15.6551   26.9364 C   0  0  0  0  0  0  0  0  0  0  0  0
    8.4347  -16.6955   27.4058 O   0  0  0  0  0  0  0  0  0  0  0  0
   10.2902  -15.4235   27.3367 O   0  0  0  0  0  0  0  0  0  0  0  0
  2  1  1  1
  3  2  1  0
  4  3  1  0
  5  4  1  0
  6  5  2  0
  7  2  1  0
  8  7  2  0
  9  5  1  0
 10 11  1  0
 12 11  1  1
 12 14  1  0
 12 13  1  0
 13  7  1  0
 14 21  1  0
 15 14  2  0
 17 16  1  0
 18 20  1  0
 18 17  1  0
 18 19  1  6
 20 22  1  0
 20 21  1  1
 22 23  2  0
 22 24  1  0
M  END
$$$$
