ESI.pdb
     RDKit          3D

 24 23  0  0  1  0  0  0  0  0999 V2000
    9.1739  -15.1487   18.9623 N   0  0  0  0  0  0  0  0  0  0  0  0
    8.4065  -13.9750   19.4686 C   0  0  1  0  0  0  0  0  0  0  0  0
    7.4506  -13.6590   18.3689 C   0  0  0  0  0  0  0  0  0  0  0  0
    8.0056  -13.1087   17.1091 C   0  0  0  0  0  0  0  0  0  0  0  0
    8.2708  -14.1725   16.1087 C   0  0  0  0  0  0  0  0  0  0  0  0
    7.8822  -15.3616   16.2416 O   0  0  0  0  0  0  0  0  0  0  0  0
    7.7913  -14.4389   20.7212 C   0  0  0  0  0  0  0  0  0  0  0  0
    7.1186  -13.6030   21.4146 O   0  0  0  0  0  0  0  0  0  0  0  0
    9.0001  -13.8332   14.9363 O   0  0  0  0  0  0  0  0  0  0  0  0
    8.3868  -18.0909   22.7456 O   0  0  0  0  0  0  0  0  0  0  0  0
    7.0957  -17.5638   22.6767 C   0  0  0  0  0  0  0  0  0  0  0  0
    7.2376  -16.0763   22.5384 C   0  0  2  0  0  0  0  0  0  0  0  0
    7.8656  -15.7557   21.2533 N   0  0  0  0  0  0  0  0  0  0  0  0
    8.0674  -15.5065   23.6254 C   0  0  0  0  0  0  0  0  0  0  0  0
    9.2977  -15.3751   23.4726 O   0  0  0  0  0  0  0  0  0  0  0  0
    6.0003  -11.5887   26.6692 C   0  0  0  0  0  0  0  0  0  0  0  0
    6.8939  -12.5532   25.9192 C   0  0  0  0  0  0  0  0  0  0  0  0
    7.4605  -13.6135   26.8089 C   0  0  2  0  0  0  0  0  0  0  0  0
    8.3427  -13.0619   27.8954 C   0  0  0  0  0  0  0  0  0  0  0  0
    8.2841  -14.5782   25.9699 C   0  0  2  0  0  0  0  0  0  0  0  0
    7.5033  -15.0932   24.8655 N   0  0  0  0  0  0  0  0  0  0  0  0
    8.8041  -15.6975   26.7974 C   0  0  0  0  0  0  0  0  0  0  0  0
    9.8851  -15.6219   27.4521 O   0  0  0  0  0  0  0  0  0  0  0  0
    8.1174  -16.8986   26.8942 O   0  0  0  0  0  0  0  0  0  0  0  0
  2  1  1  6
  3  2  1  0
  4  3  1  0
  5  4  1  0
  6  5  2  0
  7  2  1  0
  8  7  2  0
  9  5  1  0
 10 11  1  0
 12 11  1  1
 12 14  1  0
 12 13  1  0
 13  7  1  0
 14 21  1  0
 15 14  2  0
 17 16  1  0
 18 20  1  0
 18 17  1  0
 18 19  1  1
 20 22  1  0
 20 21  1  6
 22 23  2  0
 22 24  1  0
M  END
$$$$
