ESI.pdb
     RDKit          3D

 24 23  0  0  1  0  0  0  0  0999 V2000
    8.4897  -17.7622   18.8252 N   0  0  0  0  0  0  0  0  0  0  0  0
    9.2019  -17.9912   20.1148 C   0  0  1  0  0  0  0  0  0  0  0  0
   10.5716  -17.4514   19.8788 C   0  0  0  0  0  0  0  0  0  0  0  0
   11.5091  -18.2745   19.0780 C   0  0  0  0  0  0  0  0  0  0  0  0
   12.8826  -18.2558   19.6401 C   0  0  0  0  0  0  0  0  0  0  0  0
   13.2985  -19.0927   20.4823 O   0  0  0  0  0  0  0  0  0  0  0  0
    8.4064  -17.2681   21.1182 C   0  0  0  0  0  0  0  0  0  0  0  0
    8.0316  -16.0758   20.8532 O   0  0  0  0  0  0  0  0  0  0  0  0
   13.7789  -17.2417   19.2047 O   0  0  0  0  0  0  0  0  0  0  0  0
    7.0377  -18.6393   24.8816 O   0  0  0  0  0  0  0  0  0  0  0  0
    6.2307  -17.8657   24.0451 C   0  0  0  0  0  0  0  0  0  0  0  0
    7.1449  -16.9671   23.2647 C   0  0  2  0  0  0  0  0  0  0  0  0
    7.9967  -17.7713   22.3837 N   0  0  0  0  0  0  0  0  0  0  0  0
    8.0125  -16.1660   24.1592 C   0  0  0  0  0  0  0  0  0  0  0  0
    9.2045  -16.4882   24.3309 O   0  0  0  0  0  0  0  0  0  0  0  0
    6.0073  -11.9362   27.6109 C   0  0  0  0  0  0  0  0  0  0  0  0
    6.3964  -13.1073   26.7343 C   0  0  0  0  0  0  0  0  0  0  0  0
    7.6708  -12.8630   25.9907 C   0  0  2  0  0  0  0  0  0  0  0  0
    7.4617  -12.1580   24.6783 C   0  0  0  0  0  0  0  0  0  0  0  0
    8.3474  -14.1965   25.7129 C   0  0  2  0  0  0  0  0  0  0  0  0
    7.5288  -15.0165   24.8459 N   0  0  0  0  0  0  0  0  0  0  0  0
    8.6423  -14.9203   26.9766 C   0  0  0  0  0  0  0  0  0  0  0  0
    8.0411  -15.9817   27.3156 O   0  0  0  0  0  0  0  0  0  0  0  0
    9.6078  -14.4600   27.8596 O   0  0  0  0  0  0  0  0  0  0  0  0
  2  1  1  6
  3  2  1  0
  4  3  1  0
  5  4  1  0
  6  5  2  0
  7  2  1  0
  8  7  2  0
  9  5  1  0
 10 11  1  0
 12 11  1  1
 12 14  1  0
 12 13  1  0
 13  7  1  0
 14 21  1  0
 15 14  2  0
 17 16  1  0
 18 20  1  0
 18 17  1  0
 18 19  1  6
 20 22  1  0
 20 21  1  6
 22 23  2  0
 22 24  1  0
M  END
$$$$
