ESI.pdb
     RDKit          3D

 24 23  0  0  1  0  0  0  0  0999 V2000
    9.4459  -17.8914   19.2467 N   0  0  0  0  0  0  0  0  0  0  0  0
    9.7155  -18.6729   20.4874 C   0  0  1  0  0  0  0  0  0  0  0  0
   11.1849  -18.5328   20.6977 C   0  0  0  0  0  0  0  0  0  0  0  0
   11.7670  -17.1719   20.6150 C   0  0  0  0  0  0  0  0  0  0  0  0
   13.2252  -17.1748   20.8917 C   0  0  0  0  0  0  0  0  0  0  0  0
   13.7158  -16.9454   22.0272 O   0  0  0  0  0  0  0  0  0  0  0  0
    8.8715  -18.0483   21.5170 C   0  0  0  0  0  0  0  0  0  0  0  0
    8.1929  -17.0129   21.2014 O   0  0  0  0  0  0  0  0  0  0  0  0
   14.1174  -17.4531   19.8203 O   0  0  0  0  0  0  0  0  0  0  0  0
    6.2420  -18.2776   25.4947 O   0  0  0  0  0  0  0  0  0  0  0  0
    7.1805  -18.9179   24.6829 C   0  0  0  0  0  0  0  0  0  0  0  0
    7.7194  -17.8835   23.7385 C   0  0  2  0  0  0  0  0  0  0  0  0
    8.7249  -18.4897   22.8610 N   0  0  0  0  0  0  0  0  0  0  0  0
    8.3458  -16.7563   24.4677 C   0  0  0  0  0  0  0  0  0  0  0  0
    9.5383  -16.8253   24.8248 O   0  0  0  0  0  0  0  0  0  0  0  0
    7.0337  -10.8897   26.2231 C   0  0  0  0  0  0  0  0  0  0  0  0
    7.8758  -12.1466   26.2705 C   0  0  0  0  0  0  0  0  0  0  0  0
    7.2109  -13.3032   25.5944 C   0  0  2  0  0  0  0  0  0  0  0  0
    5.9522  -13.7474   26.2882 C   0  0  0  0  0  0  0  0  0  0  0  0
    8.1753  -14.4786   25.5578 C   0  0  2  0  0  0  0  0  0  0  0  0
    7.6245  -15.5702   24.7836 N   0  0  0  0  0  0  0  0  0  0  0  0
    8.5095  -14.9395   26.9302 C   0  0  0  0  0  0  0  0  0  0  0  0
    9.2145  -14.2572   27.7304 O   0  0  0  0  0  0  0  0  0  0  0  0
    8.0560  -16.1598   27.4086 O   0  0  0  0  0  0  0  0  0  0  0  0
  2  1  1  6
  3  2  1  0
  4  3  1  0
  5  4  1  0
  6  5  2  0
  7  2  1  0
  8  7  2  0
  9  5  1  0
 10 11  1  0
 12 11  1  1
 12 14  1  0
 12 13  1  0
 13  7  1  0
 14 21  1  0
 15 14  2  0
 17 16  1  0
 18 20  1  0
 18 17  1  0
 18 19  1  1
 20 22  1  0
 20 21  1  6
 22 23  2  0
 22 24  1  0
M  END
$$$$
