ESI.pdb
     RDKit          3D

 24 23  0  0  1  0  0  0  0  0999 V2000
    8.4714  -18.0346   19.3087 N   0  0  0  0  0  0  0  0  0  0  0  0
    9.1008  -18.5319   20.5655 C   0  0  1  0  0  0  0  0  0  0  0  0
   10.5431  -18.1848   20.4162 C   0  0  0  0  0  0  0  0  0  0  0  0
   11.1431  -18.2955   19.0651 C   0  0  0  0  0  0  0  0  0  0  0  0
   12.6007  -18.0165   19.0811 C   0  0  0  0  0  0  0  0  0  0  0  0
   13.4686  -18.8402   18.6926 O   0  0  0  0  0  0  0  0  0  0  0  0
    8.3939  -17.8269   21.6454 C   0  0  0  0  0  0  0  0  0  0  0  0
    8.0562  -16.6092   21.4577 O   0  0  0  0  0  0  0  0  0  0  0  0
   13.0432  -16.7521   19.5577 O   0  0  0  0  0  0  0  0  0  0  0  0
    7.3821  -19.2067   25.5220 O   0  0  0  0  0  0  0  0  0  0  0  0
    6.4310  -18.5751   24.7181 C   0  0  0  0  0  0  0  0  0  0  0  0
    7.1745  -17.6233   23.8273 C   0  0  2  0  0  0  0  0  0  0  0  0
    8.0343  -18.3741   22.9079 N   0  0  0  0  0  0  0  0  0  0  0  0
    8.0194  -16.6929   24.6117 C   0  0  0  0  0  0  0  0  0  0  0  0
    9.2603  -16.8128   24.6024 O   0  0  0  0  0  0  0  0  0  0  0  0
    5.5940  -12.0042   26.2489 C   0  0  0  0  0  0  0  0  0  0  0  0
    6.6292  -12.9771   25.7266 C   0  0  0  0  0  0  0  0  0  0  0  0
    7.3679  -13.6683   26.8282 C   0  0  2  0  0  0  0  0  0  0  0  0
    8.2483  -12.7407   27.6202 C   0  0  0  0  0  0  0  0  0  0  0  0
    8.2414  -14.7609   26.2314 C   0  0  2  0  0  0  0  0  0  0  0  0
    7.4585  -15.6431   25.3928 N   0  0  0  0  0  0  0  0  0  0  0  0
    8.9273  -15.5385   27.2956 C   0  0  0  0  0  0  0  0  0  0  0  0
    9.9923  -15.1441   27.8552 O   0  0  0  0  0  0  0  0  0  0  0  0
    8.4240  -16.7540   27.7349 O   0  0  0  0  0  0  0  0  0  0  0  0
  2  1  1  6
  3  2  1  0
  4  3  1  0
  5  4  1  0
  6  5  2  0
  7  2  1  0
  8  7  2  0
  9  5  1  0
 10 11  1  0
 12 11  1  1
 12 14  1  0
 12 13  1  0
 13  7  1  0
 14 21  1  0
 15 14  2  0
 17 16  1  0
 18 20  1  0
 18 17  1  0
 18 19  1  6
 20 22  1  0
 20 21  1  1
 22 23  2  0
 22 24  1  0
M  END
$$$$
