ESI.pdb
     RDKit          3D

 24 23  0  0  1  0  0  0  0  0999 V2000
    6.6685  -19.4971   19.2026 N   0  0  0  0  0  0  0  0  0  0  0  0
    7.8275  -18.9151   19.9380 C   0  0  1  0  0  0  0  0  0  0  0  0
    8.5875  -18.1691   18.8945 C   0  0  0  0  0  0  0  0  0  0  0  0
    7.8153  -17.3364   17.9416 C   0  0  0  0  0  0  0  0  0  0  0  0
    8.6994  -16.6172   16.9909 C   0  0  0  0  0  0  0  0  0  0  0  0
    9.9494  -16.7576   16.9648 O   0  0  0  0  0  0  0  0  0  0  0  0
    7.2262  -18.0837   20.9915 C   0  0  0  0  0  0  0  0  0  0  0  0
    6.1890  -17.3950   20.7050 O   0  0  0  0  0  0  0  0  0  0  0  0
    8.1061  -15.7235   16.0577 O   0  0  0  0  0  0  0  0  0  0  0  0
    6.8557  -18.3691   25.3325 O   0  0  0  0  0  0  0  0  0  0  0  0
    6.1155  -18.1374   24.1715 C   0  0  0  0  0  0  0  0  0  0  0  0
    6.9210  -17.2012   23.3191 C   0  0  2  0  0  0  0  0  0  0  0  0
    7.6880  -17.9660   22.3314 N   0  0  0  0  0  0  0  0  0  0  0  0
    7.8645  -16.4007   24.1338 C   0  0  0  0  0  0  0  0  0  0  0  0
    9.0408  -16.7835   24.2887 O   0  0  0  0  0  0  0  0  0  0  0  0
    5.9736  -11.7582   27.0183 C   0  0  0  0  0  0  0  0  0  0  0  0
    6.5211  -13.1112   26.6174 C   0  0  0  0  0  0  0  0  0  0  0  0
    7.7787  -13.0016   25.8153 C   0  0  2  0  0  0  0  0  0  0  0  0
    7.5661  -12.3622   24.4703 C   0  0  0  0  0  0  0  0  0  0  0  0
    8.3513  -14.3934   25.5964 C   0  0  2  0  0  0  0  0  0  0  0  0
    7.4730  -15.1840   24.7608 N   0  0  0  0  0  0  0  0  0  0  0  0
    8.5884  -15.0841   26.8904 C   0  0  0  0  0  0  0  0  0  0  0  0
    7.9415  -16.1120   27.2481 O   0  0  0  0  0  0  0  0  0  0  0  0
    9.5471  -14.6281   27.7830 O   0  0  0  0  0  0  0  0  0  0  0  0
  2  1  1  6
  3  2  1  0
  4  3  1  0
  5  4  1  0
  6  5  2  0
  7  2  1  0
  8  7  2  0
  9  5  1  0
 10 11  1  0
 12 11  1  1
 12 14  1  0
 12 13  1  0
 13  7  1  0
 14 21  1  0
 15 14  2  0
 17 16  1  0
 18 20  1  0
 18 17  1  0
 18 19  1  6
 20 22  1  0
 20 21  1  6
 22 23  2  0
 22 24  1  0
M  END
$$$$
