ESI.pdb
     RDKit          3D

 24 23  0  0  1  0  0  0  0  0999 V2000
   11.7018  -16.5775   20.2737 N   0  0  0  0  0  0  0  0  0  0  0  0
   11.8455  -17.6355   21.3143 C   0  0  1  0  0  0  0  0  0  0  0  0
   13.2965  -17.6192   21.6567 C   0  0  0  0  0  0  0  0  0  0  0  0
   13.8336  -16.4111   22.3275 C   0  0  0  0  0  0  0  0  0  0  0  0
   15.2759  -16.5502   22.6487 C   0  0  0  0  0  0  0  0  0  0  0  0
   15.9611  -15.6340   23.1721 O   0  0  0  0  0  0  0  0  0  0  0  0
   10.9401  -17.2239   22.3977 C   0  0  0  0  0  0  0  0  0  0  0  0
   10.8196  -15.9771   22.6489 O   0  0  0  0  0  0  0  0  0  0  0  0
   15.9200  -17.7827   22.3531 O   0  0  0  0  0  0  0  0  0  0  0  0
    8.8907  -19.7083   25.0011 O   0  0  0  0  0  0  0  0  0  0  0  0
    8.2081  -18.5686   24.5711 C   0  0  0  0  0  0  0  0  0  0  0  0
    9.2466  -17.5439   24.2195 C   0  0  2  0  0  0  0  0  0  0  0  0
   10.1616  -18.0906   23.2134 N   0  0  0  0  0  0  0  0  0  0  0  0
   10.0355  -17.1407   25.4069 C   0  0  0  0  0  0  0  0  0  0  0  0
   11.1813  -17.5990   25.5841 O   0  0  0  0  0  0  0  0  0  0  0  0
    8.1046  -12.7056   27.9338 C   0  0  0  0  0  0  0  0  0  0  0  0
    8.9445  -13.7916   27.2964 C   0  0  0  0  0  0  0  0  0  0  0  0
    9.5192  -14.7332   28.3062 C   0  0  2  0  0  0  0  0  0  0  0  0
   10.4992  -14.0729   29.2372 C   0  0  0  0  0  0  0  0  0  0  0  0
   10.2363  -15.8618   27.5816 C   0  0  2  0  0  0  0  0  0  0  0  0
    9.5264  -16.2298   26.3753 N   0  0  0  0  0  0  0  0  0  0  0  0
   10.3985  -17.0463   28.4638 C   0  0  0  0  0  0  0  0  0  0  0  0
    9.5101  -17.9406   28.5818 O   0  0  0  0  0  0  0  0  0  0  0  0
   11.5514  -17.2321   29.2122 O   0  0  0  0  0  0  0  0  0  0  0  0
  2  1  1  6
  3  2  1  0
  4  3  1  0
  5  4  1  0
  6  5  2  0
  7  2  1  0
  8  7  2  0
  9  5  1  0
 10 11  1  0
 12 11  1  1
 12 14  1  0
 12 13  1  0
 13  7  1  0
 14 21  1  0
 15 14  2  0
 17 16  1  0
 18 20  1  0
 18 17  1  0
 18 19  1  1
 20 22  1  0
 20 21  1  6
 22 23  2  0
 22 24  1  0
M  END
$$$$
