ESI.pdb
     RDKit          3D

 24 23  0  0  1  0  0  0  0  0999 V2000
   10.2406  -19.1517   20.3792 N   0  0  0  0  0  0  0  0  0  0  0  0
   10.5019  -17.6854   20.3108 C   0  0  1  0  0  0  0  0  0  0  0  0
   10.3190  -17.3467   18.8704 C   0  0  0  0  0  0  0  0  0  0  0  0
   10.9096  -18.2629   17.8657 C   0  0  0  0  0  0  0  0  0  0  0  0
   10.5424  -17.8776   16.4803 C   0  0  0  0  0  0  0  0  0  0  0  0
   11.3785  -17.4907   15.6235 O   0  0  0  0  0  0  0  0  0  0  0  0
    9.5205  -17.0847   21.2267 C   0  0  0  0  0  0  0  0  0  0  0  0
    9.3038  -15.8282   21.1469 O   0  0  0  0  0  0  0  0  0  0  0  0
    9.1752  -17.9503   16.0967 O   0  0  0  0  0  0  0  0  0  0  0  0
    7.3998  -18.9165   24.3792 O   0  0  0  0  0  0  0  0  0  0  0  0
    6.7353  -18.0421   23.5169 C   0  0  0  0  0  0  0  0  0  0  0  0
    7.7575  -17.0672   23.0102 C   0  0  2  0  0  0  0  0  0  0  0  0
    8.7652  -17.7745   22.2147 N   0  0  0  0  0  0  0  0  0  0  0  0
    8.4396  -16.3675   24.1237 C   0  0  0  0  0  0  0  0  0  0  0  0
    9.5937  -16.6984   24.4595 O   0  0  0  0  0  0  0  0  0  0  0  0
    5.8298  -11.8337   25.7929 C   0  0  0  0  0  0  0  0  0  0  0  0
    6.8509  -12.8583   25.3472 C   0  0  0  0  0  0  0  0  0  0  0  0
    7.5136  -13.5410   26.5012 C   0  0  2  0  0  0  0  0  0  0  0  0
    8.3413  -12.6077   27.3419 C   0  0  0  0  0  0  0  0  0  0  0  0
    8.4227  -14.6398   25.9730 C   0  0  2  0  0  0  0  0  0  0  0  0
    7.8160  -15.3081   24.8417 N   0  0  0  0  0  0  0  0  0  0  0  0
    8.7467  -15.6241   27.0379 C   0  0  0  0  0  0  0  0  0  0  0  0
    9.7773  -15.5312   27.7674 O   0  0  0  0  0  0  0  0  0  0  0  0
    7.9205  -16.7096   27.2883 O   0  0  0  0  0  0  0  0  0  0  0  0
  2  1  1  6
  3  2  1  0
  4  3  1  0
  5  4  1  0
  6  5  2  0
  7  2  1  0
  8  7  2  0
  9  5  1  0
 10 11  1  0
 12 11  1  1
 12 14  1  0
 12 13  1  0
 13  7  1  0
 14 21  1  0
 15 14  2  0
 17 16  1  0
 18 20  1  0
 18 17  1  0
 18 19  1  6
 20 22  1  0
 20 21  1  6
 22 23  2  0
 22 24  1  0
M  END
$$$$
