ELW.pdb
     RDKit          3D

 32 33  0  0  1  0  0  0  0  0999 V2000
    9.3308  -18.8178   19.4694 N   0  0  0  0  0  0  0  0  0  0  0  0
   10.7150  -18.3317   19.4741 C   0  0  1  0  0  0  0  0  0  0  0  0
   11.3187  -18.3643   18.1151 C   0  0  0  0  0  0  0  0  0  0  0  0
   10.3715  -18.0754   16.9949 C   0  0  0  0  0  0  0  0  0  0  0  0
   11.1406  -18.0548   15.7267 C   0  0  0  0  0  0  0  0  0  0  0  0
   10.6013  -17.8252   14.6158 O   0  0  0  0  0  0  0  0  0  0  0  0
   10.7677  -17.0332   20.1484 C   0  0  0  0  0  0  0  0  0  0  0  0
   11.8783  -16.4881   20.3447 O   0  0  0  0  0  0  0  0  0  0  0  0
   12.5004  -18.2965   15.7609 O   0  0  0  0  0  0  0  0  0  0  0  0
    9.2470  -12.6323   19.7618 C   0  0  0  0  0  0  0  0  0  0  0  0
    8.1054  -13.6590   19.9557 C   0  0  2  0  0  0  0  0  0  0  0  0
    6.8270  -12.8966   19.8919 C   0  0  0  0  0  0  0  0  0  0  0  0
    8.3915  -14.3611   21.2228 C   0  0  0  0  0  0  0  0  0  0  0  0
    9.6942  -15.0795   21.3451 C   0  0  2  0  0  0  0  0  0  0  0  0
    9.6059  -16.3584   20.5946 N   0  0  0  0  0  0  0  0  0  0  0  0
   10.1391  -15.4009   22.7006 C   0  0  0  0  0  0  0  0  0  0  0  0
   11.0934  -14.7040   23.1988 O   0  0  0  0  0  0  0  0  0  0  0  0
    9.6384  -16.4001   23.5494 N   0  0  0  0  0  0  0  0  0  0  0  0
   10.0129  -16.5751   24.9534 C   0  0  1  0  0  0  0  0  0  0  0  0
    9.7073  -15.3774   25.7501 C   0  0  0  0  0  0  0  0  0  0  0  0
    8.2740  -15.0648   25.8248 C   0  0  0  0  0  0  0  0  0  0  0  0
    7.2126  -15.9465   25.5585 C   0  0  0  0  0  0  0  0  0  0  0  0
    6.0570  -15.2835   25.7031 N   0  0  0  0  0  0  0  0  0  0  0  0
    6.2685  -14.0022   26.0536 C   0  0  0  0  0  0  0  0  0  0  0  0
    5.4108  -12.9400   26.3333 C   0  0  0  0  0  0  0  0  0  0  0  0
    5.9114  -11.7119   26.6986 C   0  0  0  0  0  0  0  0  0  0  0  0
    7.2802  -11.5728   26.7772 C   0  0  0  0  0  0  0  0  0  0  0  0
    8.1307  -12.6217   26.5004 C   0  0  0  0  0  0  0  0  0  0  0  0
    7.6379  -13.8609   26.1307 C   0  0  0  0  0  0  0  0  0  0  0  0
    9.5312  -17.8148   25.5154 C   0  0  0  0  0  0  0  0  0  0  0  0
    8.8218  -18.5598   24.7524 O   0  0  0  0  0  0  0  0  0  0  0  0
    9.7510  -18.2992   26.7852 O   0  0  0  0  0  0  0  0  0  0  0  0
  2  3  1  0
  2  1  1  6
  4  3  1  0
  5  6  2  0
  5  4  1  0
  7 15  1  0
  7  2  1  0
  8  7  2  0
  9  5  1  0
 11 10  1  1
 11 12  1  0
 13 11  1  0
 14 16  1  0
 14 13  1  1
 14 15  1  0
 16 17  2  0
 18 19  1  0
 18 16  1  0
 19 30  1  0
 19 20  1  1
 21 20  1  0
 22 21  2  0
 23 24  1  0
 23 22  1  0
 24 29  2  0
 25 26  2  0
 25 24  1  0
 26 27  1  0
 27 28  2  0
 29 21  1  0
 29 28  1  0
 30 31  2  0
 30 32  1  0
M  END
$$$$
