ELW.pdb
     RDKit          3D

 32 33  0  0  1  0  0  0  0  0999 V2000
    9.3253  -18.6427   19.4243 N   0  0  0  0  0  0  0  0  0  0  0  0
   10.7041  -18.2311   19.7100 C   0  0  1  0  0  0  0  0  0  0  0  0
   11.5255  -18.1479   18.4726 C   0  0  0  0  0  0  0  0  0  0  0  0
   10.8651  -18.6731   17.2384 C   0  0  0  0  0  0  0  0  0  0  0  0
   11.8086  -18.5221   16.1037 C   0  0  0  0  0  0  0  0  0  0  0  0
   12.4104  -17.4452   15.8673 O   0  0  0  0  0  0  0  0  0  0  0  0
   10.6851  -17.0172   20.5281 C   0  0  0  0  0  0  0  0  0  0  0  0
   11.7687  -16.4801   20.8548 O   0  0  0  0  0  0  0  0  0  0  0  0
   12.0386  -19.6010   15.2721 O   0  0  0  0  0  0  0  0  0  0  0  0
    8.6960  -13.0167   19.7534 C   0  0  0  0  0  0  0  0  0  0  0  0
    7.7073  -14.1037   20.2393 C   0  0  2  0  0  0  0  0  0  0  0  0
    6.3407  -13.5204   20.1302 C   0  0  0  0  0  0  0  0  0  0  0  0
    8.1521  -14.4919   21.5927 C   0  0  0  0  0  0  0  0  0  0  0  0
    9.4905  -15.1384   21.7299 C   0  0  2  0  0  0  0  0  0  0  0  0
    9.4828  -16.4163   20.9727 N   0  0  0  0  0  0  0  0  0  0  0  0
    9.9337  -15.4418   23.0901 C   0  0  0  0  0  0  0  0  0  0  0  0
   10.7707  -14.6408   23.6401 O   0  0  0  0  0  0  0  0  0  0  0  0
    9.5464  -16.5260   23.8928 N   0  0  0  0  0  0  0  0  0  0  0  0
    9.9793  -16.7461   25.2734 C   0  0  1  0  0  0  0  0  0  0  0  0
    9.6355  -15.6074   26.1382 C   0  0  0  0  0  0  0  0  0  0  0  0
    8.2391  -15.1688   26.0138 C   0  0  0  0  0  0  0  0  0  0  0  0
    7.1513  -15.9553   25.5977 C   0  0  0  0  0  0  0  0  0  0  0  0
    6.0502  -15.1917   25.5830 N   0  0  0  0  0  0  0  0  0  0  0  0
    6.3234  -13.9315   25.9657 C   0  0  0  0  0  0  0  0  0  0  0  0
    5.5325  -12.7956   26.1282 C   0  0  0  0  0  0  0  0  0  0  0  0
    6.0841  -11.6138   26.5657 C   0  0  0  0  0  0  0  0  0  0  0  0
    7.4354  -11.5956   26.8351 C   0  0  0  0  0  0  0  0  0  0  0  0
    8.2200  -12.7176   26.6745 C   0  0  0  0  0  0  0  0  0  0  0  0
    7.6757  -13.9112   26.2338 C   0  0  0  0  0  0  0  0  0  0  0  0
    9.5878  -18.0369   25.7883 C   0  0  0  0  0  0  0  0  0  0  0  0
    9.9679  -18.3260   26.9768 O   0  0  0  0  0  0  0  0  0  0  0  0
    8.8418  -19.0015   25.1495 O   0  0  0  0  0  0  0  0  0  0  0  0
  2  3  1  0
  2  1  1  6
  4  3  1  0
  5  6  2  0
  5  4  1  0
  7 15  1  0
  7  2  1  0
  8  7  2  0
  9  5  1  0
 11 10  1  1
 11 12  1  0
 13 11  1  0
 14 16  1  0
 14 13  1  1
 14 15  1  0
 16 17  2  0
 18 19  1  0
 18 16  1  0
 19 30  1  0
 19 20  1  1
 21 20  1  0
 22 21  2  0
 23 24  1  0
 23 22  1  0
 24 29  2  0
 25 26  2  0
 25 24  1  0
 26 27  1  0
 27 28  2  0
 29 21  1  0
 29 28  1  0
 30 31  2  0
 30 32  1  0
M  END
$$$$
