ELW.pdb
     RDKit          3D

 32 33  0  0  1  0  0  0  0  0999 V2000
    9.4080  -18.6663   20.1068 N   0  0  0  0  0  0  0  0  0  0  0  0
   10.7223  -18.0152   20.1398 C   0  0  1  0  0  0  0  0  0  0  0  0
   11.3506  -17.9660   18.7924 C   0  0  0  0  0  0  0  0  0  0  0  0
   11.2934  -19.2452   18.0206 C   0  0  0  0  0  0  0  0  0  0  0  0
   12.0516  -19.0634   16.7587 C   0  0  0  0  0  0  0  0  0  0  0  0
   11.7743  -18.1605   15.9307 O   0  0  0  0  0  0  0  0  0  0  0  0
   10.6036  -16.7239   20.8195 C   0  0  0  0  0  0  0  0  0  0  0  0
   11.6218  -16.0078   20.9589 O   0  0  0  0  0  0  0  0  0  0  0  0
   13.1024  -19.9149   16.4768 O   0  0  0  0  0  0  0  0  0  0  0  0
    8.6820  -13.0150   19.7875 C   0  0  0  0  0  0  0  0  0  0  0  0
    7.6409  -14.0490   20.2795 C   0  0  2  0  0  0  0  0  0  0  0  0
    6.2966  -13.4724   19.9966 C   0  0  0  0  0  0  0  0  0  0  0  0
    7.9593  -14.3139   21.6968 C   0  0  0  0  0  0  0  0  0  0  0  0
    9.2837  -14.9255   22.0131 C   0  0  2  0  0  0  0  0  0  0  0  0
    9.3752  -16.2431   21.3333 N   0  0  0  0  0  0  0  0  0  0  0  0
    9.5815  -15.1448   23.4280 C   0  0  0  0  0  0  0  0  0  0  0  0
    9.9026  -14.1259   24.1374 O   0  0  0  0  0  0  0  0  0  0  0  0
    9.5569  -16.3613   24.1274 N   0  0  0  0  0  0  0  0  0  0  0  0
    9.9716  -16.5384   25.5197 C   0  0  1  0  0  0  0  0  0  0  0  0
    8.8229  -16.8043   26.3987 C   0  0  0  0  0  0  0  0  0  0  0  0
    7.7232  -15.8426   26.2444 C   0  0  0  0  0  0  0  0  0  0  0  0
    6.4900  -16.0794   25.6137 C   0  0  0  0  0  0  0  0  0  0  0  0
    5.7672  -14.9514   25.6470 N   0  0  0  0  0  0  0  0  0  0  0  0
    6.4349  -13.9604   26.2644 C   0  0  0  0  0  0  0  0  0  0  0  0
    6.1110  -12.6378   26.5610 C   0  0  0  0  0  0  0  0  0  0  0  0
    6.9970  -11.8342   27.2402 C   0  0  0  0  0  0  0  0  0  0  0  0
    8.2057  -12.3811   27.6132 C   0  0  0  0  0  0  0  0  0  0  0  0
    8.5287  -13.6888   27.3204 C   0  0  0  0  0  0  0  0  0  0  0  0
    7.6454  -14.5056   26.6365 C   0  0  0  0  0  0  0  0  0  0  0  0
   11.0726  -17.4606   25.6674 C   0  0  0  0  0  0  0  0  0  0  0  0
   11.4712  -18.0613   24.6088 O   0  0  0  0  0  0  0  0  0  0  0  0
   11.7561  -17.7698   26.8218 O   0  0  0  0  0  0  0  0  0  0  0  0
  2  3  1  0
  2  1  1  6
  4  3  1  0
  5  6  2  0
  5  4  1  0
  7 15  1  0
  7  2  1  0
  8  7  2  0
  9  5  1  0
 11 10  1  1
 11 12  1  0
 13 11  1  0
 14 16  1  0
 14 13  1  1
 14 15  1  0
 16 17  2  0
 18 19  1  0
 18 16  1  0
 19 30  1  0
 19 20  1  1
 21 20  1  0
 22 21  2  0
 23 24  1  0
 23 22  1  0
 24 29  2  0
 25 26  2  0
 25 24  1  0
 26 27  1  0
 27 28  2  0
 29 21  1  0
 29 28  1  0
 30 31  2  0
 30 32  1  0
M  END
$$$$
