ELW.pdb
     RDKit          3D

 32 33  0  0  1  0  0  0  0  0999 V2000
    9.1641  -18.7509   19.9488 N   0  0  0  0  0  0  0  0  0  0  0  0
   10.4597  -18.0756   19.8156 C   0  0  1  0  0  0  0  0  0  0  0  0
   10.8815  -17.9608   18.3938 C   0  0  0  0  0  0  0  0  0  0  0  0
   11.1704  -19.2600   17.7127 C   0  0  0  0  0  0  0  0  0  0  0  0
   11.6575  -18.9703   16.3418 C   0  0  0  0  0  0  0  0  0  0  0  0
   12.8545  -18.6754   16.1009 O   0  0  0  0  0  0  0  0  0  0  0  0
   10.4249  -16.8149   20.5590 C   0  0  0  0  0  0  0  0  0  0  0  0
   11.4574  -16.1079   20.6172 O   0  0  0  0  0  0  0  0  0  0  0  0
   10.7676  -19.0244   15.2865 O   0  0  0  0  0  0  0  0  0  0  0  0
    8.5287  -12.9836   19.8031 C   0  0  0  0  0  0  0  0  0  0  0  0
    7.5200  -14.0634   20.2634 C   0  0  2  0  0  0  0  0  0  0  0  0
    6.1586  -13.4942   20.0584 C   0  0  0  0  0  0  0  0  0  0  0  0
    7.8881  -14.4082   21.6512 C   0  0  0  0  0  0  0  0  0  0  0  0
    9.2270  -15.0248   21.8865 C   0  0  2  0  0  0  0  0  0  0  0  0
    9.2632  -16.3538   21.2239 N   0  0  0  0  0  0  0  0  0  0  0  0
    9.6193  -15.2238   23.2812 C   0  0  0  0  0  0  0  0  0  0  0  0
   10.0326  -14.2032   23.9386 O   0  0  0  0  0  0  0  0  0  0  0  0
    9.5972  -16.4217   24.0121 N   0  0  0  0  0  0  0  0  0  0  0  0
   10.1135  -16.5859   25.3716 C   0  0  1  0  0  0  0  0  0  0  0  0
    9.0264  -16.7342   26.3510 C   0  0  0  0  0  0  0  0  0  0  0  0
    7.9071  -15.8068   26.1392 C   0  0  0  0  0  0  0  0  0  0  0  0
    6.6598  -16.1198   25.5726 C   0  0  0  0  0  0  0  0  0  0  0  0
    5.9200  -15.0037   25.5198 N   0  0  0  0  0  0  0  0  0  0  0  0
    6.5893  -13.9488   26.0182 C   0  0  0  0  0  0  0  0  0  0  0  0
    6.2527  -12.6083   26.1963 C   0  0  0  0  0  0  0  0  0  0  0  0
    7.1452  -11.7310   26.7674 C   0  0  0  0  0  0  0  0  0  0  0  0
    8.3731  -12.2231   27.1535 C   0  0  0  0  0  0  0  0  0  0  0  0
    8.7087  -13.5485   26.9779 C   0  0  0  0  0  0  0  0  0  0  0  0
    7.8190  -14.4393   26.4033 C   0  0  0  0  0  0  0  0  0  0  0  0
   11.1515  -17.5852   25.4640 C   0  0  0  0  0  0  0  0  0  0  0  0
   11.4345  -18.2274   24.3925 O   0  0  0  0  0  0  0  0  0  0  0  0
   11.8851  -17.9295   26.5770 O   0  0  0  0  0  0  0  0  0  0  0  0
  2  3  1  0
  2  1  1  6
  4  3  1  0
  5  6  2  0
  5  4  1  0
  7 15  1  0
  7  2  1  0
  8  7  2  0
  9  5  1  0
 11 10  1  1
 11 12  1  0
 13 11  1  0
 14 16  1  0
 14 13  1  1
 14 15  1  0
 16 17  2  0
 18 19  1  0
 18 16  1  0
 19 30  1  0
 19 20  1  1
 21 20  1  0
 22 21  2  0
 23 24  1  0
 23 22  1  0
 24 29  2  0
 25 26  2  0
 25 24  1  0
 26 27  1  0
 27 28  2  0
 29 21  1  0
 29 28  1  0
 30 31  2  0
 30 32  1  0
M  END
$$$$
