ELW.pdb
     RDKit          3D

 32 33  0  0  1  0  0  0  0  0999 V2000
   10.0646  -20.1982   19.6554 N   0  0  0  0  0  0  0  0  0  0  0  0
    9.4744  -19.6609   20.8864 C   0  0  1  0  0  0  0  0  0  0  0  0
    9.9596  -20.3809   22.0942 C   0  0  0  0  0  0  0  0  0  0  0  0
    9.7310  -21.8584   22.0843 C   0  0  0  0  0  0  0  0  0  0  0  0
    8.6638  -22.1721   23.0657 C   0  0  0  0  0  0  0  0  0  0  0  0
    7.5126  -22.5333   22.7161 O   0  0  0  0  0  0  0  0  0  0  0  0
    9.6540  -18.2081   20.9128 C   0  0  0  0  0  0  0  0  0  0  0  0
   10.7366  -17.7162   20.5191 O   0  0  0  0  0  0  0  0  0  0  0  0
    8.9386  -22.0649   24.4153 O   0  0  0  0  0  0  0  0  0  0  0  0
    6.2404  -13.1517   21.3198 C   0  0  0  0  0  0  0  0  0  0  0  0
    7.6981  -13.6475   21.4763 C   0  0  2  0  0  0  0  0  0  0  0  0
    8.5026  -12.9514   20.4333 C   0  0  0  0  0  0  0  0  0  0  0  0
    7.6449  -15.1208   21.3934 C   0  0  0  0  0  0  0  0  0  0  0  0
    8.9199  -15.8771   21.5677 C   0  0  2  0  0  0  0  0  0  0  0  0
    8.6473  -17.3238   21.3697 N   0  0  0  0  0  0  0  0  0  0  0  0
    9.5938  -15.7344   22.8577 C   0  0  0  0  0  0  0  0  0  0  0  0
   10.4470  -14.7856   22.9861 O   0  0  0  0  0  0  0  0  0  0  0  0
    9.4181  -16.5234   24.0050 N   0  0  0  0  0  0  0  0  0  0  0  0
   10.1475  -16.3523   25.2622 C   0  0  1  0  0  0  0  0  0  0  0  0
    9.2332  -16.1902   26.4026 C   0  0  0  0  0  0  0  0  0  0  0  0
    8.0716  -15.3384   26.1148 C   0  0  0  0  0  0  0  0  0  0  0  0
    6.8064  -15.7707   25.6821 C   0  0  0  0  0  0  0  0  0  0  0  0
    6.0257  -14.6973   25.4979 N   0  0  0  0  0  0  0  0  0  0  0  0
    6.6840  -13.5589   25.7810 C   0  0  0  0  0  0  0  0  0  0  0  0
    6.3105  -12.2164   25.7642 C   0  0  0  0  0  0  0  0  0  0  0  0
    7.2019  -11.2359   26.1334 C   0  0  0  0  0  0  0  0  0  0  0  0
    8.4661  -11.6275   26.5172 C   0  0  0  0  0  0  0  0  0  0  0  0
    8.8382  -12.9547   26.5341 C   0  0  0  0  0  0  0  0  0  0  0  0
    7.9500  -13.9490   26.1634 C   0  0  0  0  0  0  0  0  0  0  0  0
   11.1831  -17.3401   25.4525 C   0  0  0  0  0  0  0  0  0  0  0  0
   11.8926  -17.2385   26.5140 O   0  0  0  0  0  0  0  0  0  0  0  0
   11.4980  -18.3929   24.6231 O   0  0  0  0  0  0  0  0  0  0  0  0
  2  3  1  0
  2  1  1  6
  4  3  1  0
  5  6  2  0
  5  4  1  0
  7 15  1  0
  7  2  1  0
  8  7  2  0
  9  5  1  0
 11 10  1  6
 11 12  1  0
 13 11  1  0
 14 16  1  0
 14 13  1  1
 14 15  1  0
 16 17  2  0
 18 19  1  0
 18 16  1  0
 19 30  1  0
 19 20  1  1
 21 20  1  0
 22 21  2  0
 23 24  1  0
 23 22  1  0
 24 29  2  0
 25 26  2  0
 25 24  1  0
 26 27  1  0
 27 28  2  0
 29 21  1  0
 29 28  1  0
 30 31  2  0
 30 32  1  0
M  END
$$$$
