ELW.pdb
     RDKit          3D

 32 33  0  0  1  0  0  0  0  0999 V2000
    9.3539  -18.9773   19.1934 N   0  0  0  0  0  0  0  0  0  0  0  0
   10.6683  -18.3262   19.1705 C   0  0  1  0  0  0  0  0  0  0  0  0
   11.1986  -18.1963   17.7868 C   0  0  0  0  0  0  0  0  0  0  0  0
   11.2429  -19.4695   17.0042 C   0  0  0  0  0  0  0  0  0  0  0  0
   11.8234  -19.1777   15.6706 C   0  0  0  0  0  0  0  0  0  0  0  0
   11.2965  -19.5810   14.6040 O   0  0  0  0  0  0  0  0  0  0  0  0
   10.6012  -17.0775   19.9318 C   0  0  0  0  0  0  0  0  0  0  0  0
   11.6357  -16.3840   20.0661 O   0  0  0  0  0  0  0  0  0  0  0  0
   12.9863  -18.4361   15.5909 O   0  0  0  0  0  0  0  0  0  0  0  0
    8.3071  -12.8127   19.8987 C   0  0  0  0  0  0  0  0  0  0  0  0
    7.5253  -14.1448   19.9968 C   0  0  2  0  0  0  0  0  0  0  0  0
    6.0784  -13.8007   19.9096 C   0  0  0  0  0  0  0  0  0  0  0  0
    7.9738  -14.7965   21.2436 C   0  0  0  0  0  0  0  0  0  0  0  0
    9.3646  -15.3365   21.2888 C   0  0  2  0  0  0  0  0  0  0  0  0
    9.4054  -16.6135   20.5311 N   0  0  0  0  0  0  0  0  0  0  0  0
    9.9210  -15.6002   22.6153 C   0  0  0  0  0  0  0  0  0  0  0  0
   10.9301  -14.9036   22.9909 O   0  0  0  0  0  0  0  0  0  0  0  0
    9.4766  -16.5421   23.5560 N   0  0  0  0  0  0  0  0  0  0  0  0
    9.8777  -16.5780   24.9630 C   0  0  1  0  0  0  0  0  0  0  0  0
    9.6830  -15.2750   25.6165 C   0  0  0  0  0  0  0  0  0  0  0  0
    8.2733  -14.8865   25.7561 C   0  0  0  0  0  0  0  0  0  0  0  0
    7.1547  -15.6875   25.4696 C   0  0  0  0  0  0  0  0  0  0  0  0
    6.0448  -14.9702   25.6919 N   0  0  0  0  0  0  0  0  0  0  0  0
    6.3412  -13.7280   26.1142 C   0  0  0  0  0  0  0  0  0  0  0  0
    5.5559  -12.6386   26.4865 C   0  0  0  0  0  0  0  0  0  0  0  0
    6.1381  -11.4668   26.9110 C   0  0  0  0  0  0  0  0  0  0  0  0
    7.5144  -11.4113   26.9543 C   0  0  0  0  0  0  0  0  0  0  0  0
    8.2934  -12.4873   26.5860 C   0  0  0  0  0  0  0  0  0  0  0  0
    7.7182  -13.6703   26.1562 C   0  0  0  0  0  0  0  0  0  0  0  0
    9.3238  -17.7027   25.6790 C   0  0  0  0  0  0  0  0  0  0  0  0
    8.4958  -18.4440   25.0423 O   0  0  0  0  0  0  0  0  0  0  0  0
    9.5870  -18.0806   26.9765 O   0  0  0  0  0  0  0  0  0  0  0  0
  2  3  1  0
  2  1  1  6
  4  3  1  0
  5  6  2  0
  5  4  1  0
  7 15  1  0
  7  2  1  0
  8  7  2  0
  9  5  1  0
 11 10  1  1
 11 12  1  0
 13 11  1  0
 14 16  1  0
 14 13  1  1
 14 15  1  0
 16 17  2  0
 18 19  1  0
 18 16  1  0
 19 30  1  0
 19 20  1  1
 21 20  1  0
 22 21  2  0
 23 24  1  0
 23 22  1  0
 24 29  2  0
 25 26  2  0
 25 24  1  0
 26 27  1  0
 27 28  2  0
 29 21  1  0
 29 28  1  0
 30 31  2  0
 30 32  1  0
M  END
$$$$
