ELW.pdb
     RDKit          3D

 32 33  0  0  1  0  0  0  0  0999 V2000
    9.2427  -18.7563   20.2250 N   0  0  0  0  0  0  0  0  0  0  0  0
   10.5854  -18.1770   20.1079 C   0  0  1  0  0  0  0  0  0  0  0  0
   11.0696  -18.1794   18.7014 C   0  0  0  0  0  0  0  0  0  0  0  0
   11.2444  -19.5347   18.0949 C   0  0  0  0  0  0  0  0  0  0  0  0
   10.0061  -19.8777   17.3537 C   0  0  0  0  0  0  0  0  0  0  0  0
    9.2124  -20.7692   17.7448 O   0  0  0  0  0  0  0  0  0  0  0  0
   10.6072  -16.8725   20.7722 C   0  0  0  0  0  0  0  0  0  0  0  0
   11.6849  -16.2380   20.8436 O   0  0  0  0  0  0  0  0  0  0  0  0
    9.7085  -19.1960   16.1894 O   0  0  0  0  0  0  0  0  0  0  0  0
    8.8705  -13.0731   19.6422 C   0  0  0  0  0  0  0  0  0  0  0  0
    7.8365  -14.0571   20.2405 C   0  0  2  0  0  0  0  0  0  0  0  0
    6.4896  -13.4785   19.9745 C   0  0  0  0  0  0  0  0  0  0  0  0
    8.2085  -14.2362   21.6582 C   0  0  0  0  0  0  0  0  0  0  0  0
    9.4905  -14.9383   21.9610 C   0  0  2  0  0  0  0  0  0  0  0  0
    9.4514  -16.2895   21.3453 N   0  0  0  0  0  0  0  0  0  0  0  0
    9.8217  -15.1142   23.3745 C   0  0  0  0  0  0  0  0  0  0  0  0
   10.1877  -14.0791   24.0373 O   0  0  0  0  0  0  0  0  0  0  0  0
    9.7858  -16.3037   24.1185 N   0  0  0  0  0  0  0  0  0  0  0  0
   10.1266  -16.4178   25.5372 C   0  0  1  0  0  0  0  0  0  0  0  0
    8.9438  -16.7203   26.3571 C   0  0  0  0  0  0  0  0  0  0  0  0
    7.7920  -15.8521   26.0791 C   0  0  0  0  0  0  0  0  0  0  0  0
    6.6016  -16.2265   25.4327 C   0  0  0  0  0  0  0  0  0  0  0  0
    5.8077  -15.1510   25.3383 N   0  0  0  0  0  0  0  0  0  0  0  0
    6.3865  -14.0661   25.8835 C   0  0  0  0  0  0  0  0  0  0  0  0
    5.9678  -12.7469   26.0463 C   0  0  0  0  0  0  0  0  0  0  0  0
    6.7740  -11.8281   26.6773 C   0  0  0  0  0  0  0  0  0  0  0  0
    7.9997  -12.2572   27.1384 C   0  0  0  0  0  0  0  0  0  0  0  0
    8.4164  -13.5614   26.9780 C   0  0  0  0  0  0  0  0  0  0  0  0
    7.6140  -14.4935   26.3436 C   0  0  0  0  0  0  0  0  0  0  0  0
   11.2641  -17.2741   25.7770 C   0  0  0  0  0  0  0  0  0  0  0  0
   11.6903  -17.3473   26.9826 O   0  0  0  0  0  0  0  0  0  0  0  0
   11.9485  -18.0340   24.8554 O   0  0  0  0  0  0  0  0  0  0  0  0
  2  3  1  0
  2  1  1  6
  4  3  1  0
  5  6  2  0
  5  4  1  0
  7 15  1  0
  7  2  1  0
  8  7  2  0
  9  5  1  0
 11 10  1  1
 11 12  1  0
 13 11  1  0
 14 16  1  0
 14 13  1  1
 14 15  1  0
 16 17  2  0
 18 19  1  0
 18 16  1  0
 19 30  1  0
 19 20  1  1
 21 20  1  0
 22 21  2  0
 23 24  1  0
 23 22  1  0
 24 29  2  0
 25 26  2  0
 25 24  1  0
 26 27  1  0
 27 28  2  0
 29 21  1  0
 29 28  1  0
 30 31  2  0
 30 32  1  0
M  END
$$$$
