ELW.pdb
     RDKit          3D

 32 33  0  0  1  0  0  0  0  0999 V2000
   10.4800  -19.0825   18.9446 N   0  0  0  0  0  0  0  0  0  0  0  0
   11.5366  -18.7078   19.8909 C   0  0  1  0  0  0  0  0  0  0  0  0
   12.8926  -18.8783   19.3038 C   0  0  0  0  0  0  0  0  0  0  0  0
   13.0786  -20.1192   18.4908 C   0  0  0  0  0  0  0  0  0  0  0  0
   14.4828  -20.1589   18.0141 C   0  0  0  0  0  0  0  0  0  0  0  0
   14.7789  -20.1882   16.7938 O   0  0  0  0  0  0  0  0  0  0  0  0
   11.2528  -17.3756   20.4276 C   0  0  0  0  0  0  0  0  0  0  0  0
   12.1825  -16.5414   20.5228 O   0  0  0  0  0  0  0  0  0  0  0  0
   15.5076  -20.1646   18.9406 O   0  0  0  0  0  0  0  0  0  0  0  0
    6.3156  -13.8825   21.4021 C   0  0  0  0  0  0  0  0  0  0  0  0
    7.8271  -13.9635   21.7243 C   0  0  2  0  0  0  0  0  0  0  0  0
    8.4625  -12.7660   21.1064 C   0  0  0  0  0  0  0  0  0  0  0  0
    8.2844  -15.2791   21.2339 C   0  0  0  0  0  0  0  0  0  0  0  0
    9.7143  -15.6478   21.4519 C   0  0  2  0  0  0  0  0  0  0  0  0
    9.9597  -16.9834   20.8498 N   0  0  0  0  0  0  0  0  0  0  0  0
   10.1701  -15.7066   22.8403 C   0  0  0  0  0  0  0  0  0  0  0  0
   11.0991  -14.8992   23.2004 O   0  0  0  0  0  0  0  0  0  0  0  0
    9.7052  -16.5554   23.8566 N   0  0  0  0  0  0  0  0  0  0  0  0
   10.1592  -16.5276   25.2477 C   0  0  1  0  0  0  0  0  0  0  0  0
    9.8115  -15.2599   25.9070 C   0  0  0  0  0  0  0  0  0  0  0  0
    8.3661  -15.0497   26.0630 C   0  0  0  0  0  0  0  0  0  0  0  0
    7.3585  -16.0126   25.8826 C   0  0  0  0  0  0  0  0  0  0  0  0
    6.1680  -15.4311   26.0833 N   0  0  0  0  0  0  0  0  0  0  0  0
    6.3051  -14.1288   26.3911 C   0  0  0  0  0  0  0  0  0  0  0  0
    5.3897  -13.1242   26.6991 C   0  0  0  0  0  0  0  0  0  0  0  0
    5.8195  -11.8537   27.0050 C   0  0  0  0  0  0  0  0  0  0  0  0
    7.1765  -11.6141   26.9958 C   0  0  0  0  0  0  0  0  0  0  0  0
    8.0839  -12.6060   26.6908 C   0  0  0  0  0  0  0  0  0  0  0  0
    7.6625  -13.8871   26.3803 C   0  0  0  0  0  0  0  0  0  0  0  0
    9.7920  -17.7136   25.9847 C   0  0  0  0  0  0  0  0  0  0  0  0
   10.1669  -17.7747   27.2079 O   0  0  0  0  0  0  0  0  0  0  0  0
    9.0743  -18.7952   25.5261 O   0  0  0  0  0  0  0  0  0  0  0  0
  2  3  1  0
  2  1  1  6
  4  3  1  0
  5  6  2  0
  5  4  1  0
  7 15  1  0
  7  2  1  0
  8  7  2  0
  9  5  1  0
 11 10  1  6
 11 12  1  0
 13 11  1  0
 14 16  1  0
 14 13  1  1
 14 15  1  0
 16 17  2  0
 18 19  1  0
 18 16  1  0
 19 30  1  0
 19 20  1  1
 21 20  1  0
 22 21  2  0
 23 24  1  0
 23 22  1  0
 24 29  2  0
 25 26  2  0
 25 24  1  0
 26 27  1  0
 27 28  2  0
 29 21  1  0
 29 28  1  0
 30 31  2  0
 30 32  1  0
M  END
$$$$
