ELW.pdb
     RDKit          3D

 32 33  0  0  1  0  0  0  0  0999 V2000
   11.4158  -18.6596   17.9724 N   0  0  0  0  0  0  0  0  0  0  0  0
   10.7810  -18.8616   19.2795 C   0  0  1  0  0  0  0  0  0  0  0  0
   11.5045  -19.8719   20.0971 C   0  0  0  0  0  0  0  0  0  0  0  0
   11.7819  -21.1666   19.4027 C   0  0  0  0  0  0  0  0  0  0  0  0
   12.4347  -22.0838   20.3686 C   0  0  0  0  0  0  0  0  0  0  0  0
   12.6751  -21.7514   21.5559 O   0  0  0  0  0  0  0  0  0  0  0  0
   10.5837  -17.5626   19.9255 C   0  0  0  0  0  0  0  0  0  0  0  0
   11.5102  -16.7198   19.9048 O   0  0  0  0  0  0  0  0  0  0  0  0
   12.7947  -23.3516   19.9542 O   0  0  0  0  0  0  0  0  0  0  0  0
    5.8052  -14.0522   21.2453 C   0  0  0  0  0  0  0  0  0  0  0  0
    7.3265  -14.1537   21.5108 C   0  0  2  0  0  0  0  0  0  0  0  0
    7.9567  -12.9755   20.8519 C   0  0  0  0  0  0  0  0  0  0  0  0
    7.7436  -15.4833   21.0222 C   0  0  0  0  0  0  0  0  0  0  0  0
    9.1805  -15.8614   21.1657 C   0  0  2  0  0  0  0  0  0  0  0  0
    9.3788  -17.2125   20.5811 N   0  0  0  0  0  0  0  0  0  0  0  0
    9.7154  -15.8938   22.5264 C   0  0  0  0  0  0  0  0  0  0  0  0
   10.6550  -15.0719   22.8203 O   0  0  0  0  0  0  0  0  0  0  0  0
    9.3181  -16.7306   23.5806 N   0  0  0  0  0  0  0  0  0  0  0  0
    9.8772  -16.7016   24.9328 C   0  0  1  0  0  0  0  0  0  0  0  0
    9.7561  -15.3685   25.5419 C   0  0  0  0  0  0  0  0  0  0  0  0
    8.3679  -14.9342   25.7467 C   0  0  0  0  0  0  0  0  0  0  0  0
    7.2214  -15.7439   25.6775 C   0  0  0  0  0  0  0  0  0  0  0  0
    6.1419  -14.9788   25.8902 N   0  0  0  0  0  0  0  0  0  0  0  0
    6.4855  -13.6956   26.1016 C   0  0  0  0  0  0  0  0  0  0  0  0
    5.7459  -12.5478   26.3801 C   0  0  0  0  0  0  0  0  0  0  0  0
    6.3737  -11.3401   26.5789 C   0  0  0  0  0  0  0  0  0  0  0  0
    7.7487  -11.3082   26.4934 C   0  0  0  0  0  0  0  0  0  0  0  0
    8.4825  -12.4420   26.2173 C   0  0  0  0  0  0  0  0  0  0  0  0
    7.8611  -13.6617   26.0143 C   0  0  0  0  0  0  0  0  0  0  0  0
    9.4106  -17.7892   25.7597 C   0  0  0  0  0  0  0  0  0  0  0  0
    8.5218  -18.5609   25.2547 O   0  0  0  0  0  0  0  0  0  0  0  0
    9.8160  -18.1025   27.0375 O   0  0  0  0  0  0  0  0  0  0  0  0
  2  3  1  0
  2  1  1  6
  4  3  1  0
  5  6  2  0
  5  4  1  0
  7 15  1  0
  7  2  1  0
  8  7  2  0
  9  5  1  0
 11 10  1  6
 11 12  1  0
 13 11  1  0
 14 16  1  0
 14 13  1  1
 14 15  1  0
 16 17  2  0
 18 19  1  0
 18 16  1  0
 19 30  1  0
 19 20  1  1
 21 20  1  0
 22 21  2  0
 23 24  1  0
 23 22  1  0
 24 29  2  0
 25 26  2  0
 25 24  1  0
 26 27  1  0
 27 28  2  0
 29 21  1  0
 29 28  1  0
 30 31  2  0
 30 32  1  0
M  END
$$$$
