ELW.pdb
     RDKit          3D

 32 33  0  0  1  0  0  0  0  0999 V2000
    8.7880  -18.8156   19.6805 N   0  0  0  0  0  0  0  0  0  0  0  0
   10.0758  -18.2421   19.2748 C   0  0  1  0  0  0  0  0  0  0  0  0
   10.2230  -18.2011   17.7951 C   0  0  0  0  0  0  0  0  0  0  0  0
    9.9493  -19.4941   17.0961 C   0  0  0  0  0  0  0  0  0  0  0  0
   10.0410  -19.2628   15.6338 C   0  0  0  0  0  0  0  0  0  0  0  0
   11.0576  -18.7598   15.0941 O   0  0  0  0  0  0  0  0  0  0  0  0
   10.2688  -16.9605   19.9559 C   0  0  0  0  0  0  0  0  0  0  0  0
   11.3441  -16.3376   19.7987 O   0  0  0  0  0  0  0  0  0  0  0  0
    8.9727  -19.6103   14.8296 O   0  0  0  0  0  0  0  0  0  0  0  0
    8.6972  -13.1651   19.1673 C   0  0  0  0  0  0  0  0  0  0  0  0
    7.6829  -14.0705   19.9066 C   0  0  2  0  0  0  0  0  0  0  0  0
    6.3558  -13.4014   19.8038 C   0  0  0  0  0  0  0  0  0  0  0  0
    8.2189  -14.2656   21.2686 C   0  0  0  0  0  0  0  0  0  0  0  0
    9.4782  -15.0530   21.4179 C   0  0  2  0  0  0  0  0  0  0  0  0
    9.2831  -16.3873   20.7950 N   0  0  0  0  0  0  0  0  0  0  0  0
    9.9520  -15.2759   22.7834 C   0  0  0  0  0  0  0  0  0  0  0  0
   10.2033  -14.2464   23.5057 O   0  0  0  0  0  0  0  0  0  0  0  0
   10.1694  -16.5066   23.4218 N   0  0  0  0  0  0  0  0  0  0  0  0
    9.9025  -16.7789   24.8348 C   0  0  1  0  0  0  0  0  0  0  0  0
    8.5746  -16.2935   25.2398 C   0  0  0  0  0  0  0  0  0  0  0  0
    8.6142  -15.0859   26.0752 C   0  0  0  0  0  0  0  0  0  0  0  0
    9.4644  -14.8563   27.1704 C   0  0  0  0  0  0  0  0  0  0  0  0
    9.1775  -13.6558   27.6923 N   0  0  0  0  0  0  0  0  0  0  0  0
    8.1828  -13.0533   27.0164 C   0  0  0  0  0  0  0  0  0  0  0  0
    7.5531  -11.8178   27.1543 C   0  0  0  0  0  0  0  0  0  0  0  0
    6.5554  -11.4385   26.2865 C   0  0  0  0  0  0  0  0  0  0  0  0
    6.2056  -12.3178   25.2848 C   0  0  0  0  0  0  0  0  0  0  0  0
    6.8266  -13.5408   25.1467 C   0  0  0  0  0  0  0  0  0  0  0  0
    7.8304  -13.9329   26.0148 C   0  0  0  0  0  0  0  0  0  0  0  0
   10.1884  -18.1433   25.2102 C   0  0  0  0  0  0  0  0  0  0  0  0
   10.3089  -18.9928   24.2592 O   0  0  0  0  0  0  0  0  0  0  0  0
   10.3545  -18.6441   26.4818 O   0  0  0  0  0  0  0  0  0  0  0  0
  2  3  1  0
  2  1  1  6
  4  3  1  0
  5  6  2  0
  5  4  1  0
  7 15  1  0
  7  2  1  0
  8  7  2  0
  9  5  1  0
 11 10  1  6
 11 12  1  0
 13 11  1  0
 14 16  1  0
 14 13  1  1
 14 15  1  0
 16 17  2  0
 18 19  1  0
 18 16  1  0
 19 30  1  0
 19 20  1  6
 21 20  1  0
 22 21  2  0
 23 24  1  0
 23 22  1  0
 24 29  2  0
 25 26  2  0
 25 24  1  0
 26 27  1  0
 27 28  2  0
 29 21  1  0
 29 28  1  0
 30 31  2  0
 30 32  1  0
M  END
$$$$
