ELW.pdb
     RDKit          3D

 32 33  0  0  1  0  0  0  0  0999 V2000
   11.7601  -19.2645   18.5755 N   0  0  0  0  0  0  0  0  0  0  0  0
   10.5303  -19.2145   19.3737 C   0  0  1  0  0  0  0  0  0  0  0  0
   10.3947  -20.4029   20.2581 C   0  0  0  0  0  0  0  0  0  0  0  0
   11.2950  -20.4092   21.4518 C   0  0  0  0  0  0  0  0  0  0  0  0
   11.0579  -21.6627   22.2087 C   0  0  0  0  0  0  0  0  0  0  0  0
   10.1962  -22.5073   21.8596 O   0  0  0  0  0  0  0  0  0  0  0  0
   10.4485  -17.9200   20.0526 C   0  0  0  0  0  0  0  0  0  0  0  0
   11.5044  -17.3187   20.3570 O   0  0  0  0  0  0  0  0  0  0  0  0
   11.8082  -21.9170   23.3405 O   0  0  0  0  0  0  0  0  0  0  0  0
    5.9466  -13.9153   21.3818 C   0  0  0  0  0  0  0  0  0  0  0  0
    7.4778  -14.1162   21.4829 C   0  0  2  0  0  0  0  0  0  0  0  0
    8.1083  -12.9965   20.7291 C   0  0  0  0  0  0  0  0  0  0  0  0
    7.7496  -15.4801   20.9867 C   0  0  0  0  0  0  0  0  0  0  0  0
    9.1610  -15.9650   21.0128 C   0  0  2  0  0  0  0  0  0  0  0  0
    9.2148  -17.3104   20.3854 N   0  0  0  0  0  0  0  0  0  0  0  0
    9.7911  -16.0734   22.3281 C   0  0  0  0  0  0  0  0  0  0  0  0
   10.8633  -15.4012   22.5358 O   0  0  0  0  0  0  0  0  0  0  0  0
    9.3576  -16.8377   23.4224 N   0  0  0  0  0  0  0  0  0  0  0  0
    9.8690  -16.7150   24.7882 C   0  0  1  0  0  0  0  0  0  0  0  0
    9.8387  -15.3211   25.2560 C   0  0  0  0  0  0  0  0  0  0  0  0
    8.4831  -14.7773   25.4118 C   0  0  0  0  0  0  0  0  0  0  0  0
    7.2776  -15.4773   25.2338 C   0  0  0  0  0  0  0  0  0  0  0  0
    6.2569  -14.6322   25.4334 N   0  0  0  0  0  0  0  0  0  0  0  0
    6.6959  -13.3979   25.7382 C   0  0  0  0  0  0  0  0  0  0  0  0
    6.0421  -12.2058   26.0441 C   0  0  0  0  0  0  0  0  0  0  0  0
    6.7581  -11.0710   26.3471 C   0  0  0  0  0  0  0  0  0  0  0  0
    8.1335  -11.1565   26.3371 C   0  0  0  0  0  0  0  0  0  0  0  0
    8.7826  -12.3342   26.0341 C   0  0  0  0  0  0  0  0  0  0  0  0
    8.0722  -13.4813   25.7266 C   0  0  0  0  0  0  0  0  0  0  0  0
    9.2837  -17.6714   25.6977 C   0  0  0  0  0  0  0  0  0  0  0  0
    9.7695  -17.7170   26.8820 O   0  0  0  0  0  0  0  0  0  0  0  0
    8.2507  -18.5450   25.4428 O   0  0  0  0  0  0  0  0  0  0  0  0
  2  3  1  0
  2  1  1  1
  4  3  1  0
  5  6  2  0
  5  4  1  0
  7 15  1  0
  7  2  1  0
  8  7  2  0
  9  5  1  0
 11 10  1  6
 11 12  1  0
 13 11  1  0
 14 16  1  0
 14 13  1  1
 14 15  1  0
 16 17  2  0
 18 19  1  0
 18 16  1  0
 19 30  1  0
 19 20  1  1
 21 20  1  0
 22 21  2  0
 23 24  1  0
 23 22  1  0
 24 29  2  0
 25 26  2  0
 25 24  1  0
 26 27  1  0
 27 28  2  0
 29 21  1  0
 29 28  1  0
 30 31  2  0
 30 32  1  0
M  END
$$$$
