ELW.pdb
     RDKit          3D

 32 33  0  0  1  0  0  0  0  0999 V2000
    9.0689  -18.7928   19.7941 N   0  0  0  0  0  0  0  0  0  0  0  0
   10.4378  -18.2742   19.6974 C   0  0  1  0  0  0  0  0  0  0  0  0
   10.9134  -18.2235   18.2889 C   0  0  0  0  0  0  0  0  0  0  0  0
   10.9366  -19.5403   17.5813 C   0  0  0  0  0  0  0  0  0  0  0  0
   11.4315  -19.3195   16.2004 C   0  0  0  0  0  0  0  0  0  0  0  0
   11.7871  -18.1885   15.7854 O   0  0  0  0  0  0  0  0  0  0  0  0
   10.5274  -17.0105   20.4313 C   0  0  0  0  0  0  0  0  0  0  0  0
   11.6443  -16.4616   20.5743 O   0  0  0  0  0  0  0  0  0  0  0  0
   11.5062  -20.3923   15.3332 O   0  0  0  0  0  0  0  0  0  0  0  0
    8.7419  -12.8752   19.7461 C   0  0  0  0  0  0  0  0  0  0  0  0
    7.7422  -13.9476   20.2418 C   0  0  2  0  0  0  0  0  0  0  0  0
    6.3846  -13.3397   20.1592 C   0  0  0  0  0  0  0  0  0  0  0  0
    8.2024  -14.3523   21.5852 C   0  0  0  0  0  0  0  0  0  0  0  0
    9.5087  -15.0669   21.6906 C   0  0  2  0  0  0  0  0  0  0  0  0
    9.3951  -16.3739   20.9941 N   0  0  0  0  0  0  0  0  0  0  0  0
   10.0000  -15.3356   23.0416 C   0  0  0  0  0  0  0  0  0  0  0  0
   10.7903  -14.4771   23.5734 O   0  0  0  0  0  0  0  0  0  0  0  0
    9.7056  -16.4422   23.8531 N   0  0  0  0  0  0  0  0  0  0  0  0
   10.1809  -16.6284   25.2247 C   0  0  1  0  0  0  0  0  0  0  0  0
    9.8191  -15.4908   26.0837 C   0  0  0  0  0  0  0  0  0  0  0  0
    8.4087  -15.0939   25.9792 C   0  0  0  0  0  0  0  0  0  0  0  0
    7.3346  -15.9205   25.6079 C   0  0  0  0  0  0  0  0  0  0  0  0
    6.2125  -15.1879   25.5981 N   0  0  0  0  0  0  0  0  0  0  0  0
    6.4586  -13.9110   25.9421 C   0  0  0  0  0  0  0  0  0  0  0  0
    5.6401  -12.7933   26.0930 C   0  0  0  0  0  0  0  0  0  0  0  0
    6.1679  -11.5858   26.4876 C   0  0  0  0  0  0  0  0  0  0  0  0
    7.5236  -11.5236   26.7262 C   0  0  0  0  0  0  0  0  0  0  0  0
    8.3355  -12.6276   26.5770 C   0  0  0  0  0  0  0  0  0  0  0  0
    7.8154  -13.8468   26.1793 C   0  0  0  0  0  0  0  0  0  0  0  0
    9.8483  -17.9249   25.7659 C   0  0  0  0  0  0  0  0  0  0  0  0
   10.2486  -18.1758   26.9564 O   0  0  0  0  0  0  0  0  0  0  0  0
    9.1396  -18.9319   25.1503 O   0  0  0  0  0  0  0  0  0  0  0  0
  2  3  1  0
  2  1  1  6
  4  3  1  0
  5  6  2  0
  5  4  1  0
  7 15  1  0
  7  2  1  0
  8  7  2  0
  9  5  1  0
 11 10  1  1
 11 12  1  0
 13 11  1  0
 14 16  1  0
 14 13  1  1
 14 15  1  0
 16 17  2  0
 18 19  1  0
 18 16  1  0
 19 30  1  0
 19 20  1  1
 21 20  1  0
 22 21  2  0
 23 24  1  0
 23 22  1  0
 24 29  2  0
 25 26  2  0
 25 24  1  0
 26 27  1  0
 27 28  2  0
 29 21  1  0
 29 28  1  0
 30 31  2  0
 30 32  1  0
M  END
$$$$
