ELW.pdb
     RDKit          3D

 32 33  0  0  1  0  0  0  0  0999 V2000
    9.3369  -18.6538   19.2655 N   0  0  0  0  0  0  0  0  0  0  0  0
   10.7171  -18.2248   19.5170 C   0  0  1  0  0  0  0  0  0  0  0  0
   11.4928  -18.0853   18.2555 C   0  0  0  0  0  0  0  0  0  0  0  0
   10.8470  -18.6823   17.0463 C   0  0  0  0  0  0  0  0  0  0  0  0
   11.5624  -18.1897   15.8438 C   0  0  0  0  0  0  0  0  0  0  0  0
   10.9582  -17.7806   14.8214 O   0  0  0  0  0  0  0  0  0  0  0  0
   10.7044  -17.0387   20.3752 C   0  0  0  0  0  0  0  0  0  0  0  0
   11.7902  -16.5090   20.7062 O   0  0  0  0  0  0  0  0  0  0  0  0
   12.9439  -18.1779   15.8409 O   0  0  0  0  0  0  0  0  0  0  0  0
    8.5824  -13.0205   19.7216 C   0  0  0  0  0  0  0  0  0  0  0  0
    7.6674  -14.1718   20.2037 C   0  0  2  0  0  0  0  0  0  0  0  0
    6.2681  -13.6647   20.1367 C   0  0  0  0  0  0  0  0  0  0  0  0
    8.1634  -14.5630   21.5384 C   0  0  0  0  0  0  0  0  0  0  0  0
    9.5161  -15.1879   21.6257 C   0  0  2  0  0  0  0  0  0  0  0  0
    9.5058  -16.4573   20.8543 N   0  0  0  0  0  0  0  0  0  0  0  0
   10.0074  -15.4988   22.9676 C   0  0  0  0  0  0  0  0  0  0  0  0
   10.8939  -14.7236   23.4754 O   0  0  0  0  0  0  0  0  0  0  0  0
    9.6191  -16.5648   23.7937 N   0  0  0  0  0  0  0  0  0  0  0  0
   10.0419  -16.7486   25.1827 C   0  0  1  0  0  0  0  0  0  0  0  0
    9.7888  -15.5463   25.9909 C   0  0  0  0  0  0  0  0  0  0  0  0
    8.4130  -15.0418   25.8884 C   0  0  0  0  0  0  0  0  0  0  0  0
    7.2695  -15.7949   25.5723 C   0  0  0  0  0  0  0  0  0  0  0  0
    6.2097  -14.9752   25.5443 N   0  0  0  0  0  0  0  0  0  0  0  0
    6.5637  -13.7080   25.8242 C   0  0  0  0  0  0  0  0  0  0  0  0
    5.8403  -12.5220   25.9341 C   0  0  0  0  0  0  0  0  0  0  0  0
    6.4703  -11.3443   26.2635 C   0  0  0  0  0  0  0  0  0  0  0  0
    7.8308  -11.3812   26.4791 C   0  0  0  0  0  0  0  0  0  0  0  0
    8.5487  -12.5529   26.3703 C   0  0  0  0  0  0  0  0  0  0  0  0
    7.9253  -13.7429   26.0382 C   0  0  0  0  0  0  0  0  0  0  0  0
    9.5580  -17.9796   25.7615 C   0  0  0  0  0  0  0  0  0  0  0  0
    9.9045  -18.2273   26.9694 O   0  0  0  0  0  0  0  0  0  0  0  0
    8.7552  -18.9258   25.1653 O   0  0  0  0  0  0  0  0  0  0  0  0
  2  3  1  0
  2  1  1  6
  4  3  1  0
  5  6  2  0
  5  4  1  0
  7 15  1  0
  7  2  1  0
  8  7  2  0
  9  5  1  0
 11 10  1  1
 11 12  1  0
 13 11  1  0
 14 16  1  0
 14 13  1  1
 14 15  1  0
 16 17  2  0
 18 19  1  0
 18 16  1  0
 19 30  1  0
 19 20  1  1
 21 20  1  0
 22 21  2  0
 23 24  1  0
 23 22  1  0
 24 29  2  0
 25 26  2  0
 25 24  1  0
 26 27  1  0
 27 28  2  0
 29 21  1  0
 29 28  1  0
 30 31  2  0
 30 32  1  0
M  END
$$$$
