ELW.pdb
     RDKit          3D

 32 33  0  0  1  0  0  0  0  0999 V2000
    9.9602  -17.8407   18.7301 N   0  0  0  0  0  0  0  0  0  0  0  0
   10.6440  -17.8769   20.0275 C   0  0  1  0  0  0  0  0  0  0  0  0
   12.0675  -18.2872   19.8927 C   0  0  0  0  0  0  0  0  0  0  0  0
   12.3786  -19.6636   20.3867 C   0  0  0  0  0  0  0  0  0  0  0  0
   13.8380  -19.7508   20.6376 C   0  0  0  0  0  0  0  0  0  0  0  0
   14.6170  -18.7894   20.4212 O   0  0  0  0  0  0  0  0  0  0  0  0
   10.4246  -16.6077   20.7236 C   0  0  0  0  0  0  0  0  0  0  0  0
   11.1872  -15.6411   20.4926 O   0  0  0  0  0  0  0  0  0  0  0  0
   14.3671  -20.9295   21.1268 O   0  0  0  0  0  0  0  0  0  0  0  0
    8.5506  -13.0324   20.1770 C   0  0  0  0  0  0  0  0  0  0  0  0
    7.5857  -14.2253   20.3799 C   0  0  2  0  0  0  0  0  0  0  0  0
    6.2324  -13.7575   19.9686 C   0  0  0  0  0  0  0  0  0  0  0  0
    7.7382  -14.6456   21.7872 C   0  0  0  0  0  0  0  0  0  0  0  0
    9.0896  -15.0869   22.2423 C   0  0  2  0  0  0  0  0  0  0  0  0
    9.3773  -16.4219   21.6579 N   0  0  0  0  0  0  0  0  0  0  0  0
    9.2910  -15.1923   23.6869 C   0  0  0  0  0  0  0  0  0  0  0  0
    9.3221  -14.1063   24.3682 O   0  0  0  0  0  0  0  0  0  0  0  0
    9.4559  -16.3631   24.4431 N   0  0  0  0  0  0  0  0  0  0  0  0
   10.2017  -16.4540   25.6991 C   0  0  1  0  0  0  0  0  0  0  0  0
    9.5252  -15.7299   26.7858 C   0  0  0  0  0  0  0  0  0  0  0  0
    8.2012  -15.2108   26.4180 C   0  0  0  0  0  0  0  0  0  0  0  0
    7.1270  -15.9552   25.9016 C   0  0  0  0  0  0  0  0  0  0  0  0
    6.1039  -15.1234   25.6625 N   0  0  0  0  0  0  0  0  0  0  0  0
    6.4173  -13.8562   25.9867 C   0  0  0  0  0  0  0  0  0  0  0  0
    5.7038  -12.6599   25.9415 C   0  0  0  0  0  0  0  0  0  0  0  0
    6.2776  -11.4847   26.3679 C   0  0  0  0  0  0  0  0  0  0  0  0
    7.5722  -11.5343   26.8375 C   0  0  0  0  0  0  0  0  0  0  0  0
    8.2803  -12.7161   26.8826 C   0  0  0  0  0  0  0  0  0  0  0  0
    7.7133  -13.9039   26.4549 C   0  0  0  0  0  0  0  0  0  0  0  0
   10.5953  -17.8043   26.0250 C   0  0  0  0  0  0  0  0  0  0  0  0
   11.2046  -17.9775   27.1382 O   0  0  0  0  0  0  0  0  0  0  0  0
   10.3862  -18.9407   25.2765 O   0  0  0  0  0  0  0  0  0  0  0  0
  2  3  1  0
  2  1  1  6
  4  3  1  0
  5  6  2  0
  5  4  1  0
  7 15  1  0
  7  2  1  0
  8  7  2  0
  9  5  1  0
 11 10  1  1
 11 12  1  0
 13 11  1  0
 14 16  1  0
 14 13  1  1
 14 15  1  0
 16 17  2  0
 18 19  1  0
 18 16  1  0
 19 30  1  0
 19 20  1  1
 21 20  1  0
 22 21  2  0
 23 24  1  0
 23 22  1  0
 24 29  2  0
 25 26  2  0
 25 24  1  0
 26 27  1  0
 27 28  2  0
 29 21  1  0
 29 28  1  0
 30 31  2  0
 30 32  1  0
M  END
$$$$
