ELW.pdb
     RDKit          3D

 32 33  0  0  1  0  0  0  0  0999 V2000
    9.4916  -18.6654   19.6620 N   0  0  0  0  0  0  0  0  0  0  0  0
   10.7303  -17.8830   19.5862 C   0  0  1  0  0  0  0  0  0  0  0  0
   11.1724  -17.6794   18.1805 C   0  0  0  0  0  0  0  0  0  0  0  0
   11.8356  -18.8610   17.5486 C   0  0  0  0  0  0  0  0  0  0  0  0
   13.1543  -18.4305   17.0231 C   0  0  0  0  0  0  0  0  0  0  0  0
   13.2825  -17.8607   15.9110 O   0  0  0  0  0  0  0  0  0  0  0  0
   10.5762  -16.6589   20.3744 C   0  0  0  0  0  0  0  0  0  0  0  0
   11.5600  -15.8982   20.5254 O   0  0  0  0  0  0  0  0  0  0  0  0
   14.2874  -18.6617   17.7788 O   0  0  0  0  0  0  0  0  0  0  0  0
    8.6113  -12.7663   19.7374 C   0  0  0  0  0  0  0  0  0  0  0  0
    7.6591  -13.9659   19.9594 C   0  0  2  0  0  0  0  0  0  0  0  0
    6.2881  -13.4951   19.6153 C   0  0  0  0  0  0  0  0  0  0  0  0
    7.8730  -14.4116   21.3508 C   0  0  0  0  0  0  0  0  0  0  0  0
    9.1992  -15.0010   21.6998 C   0  0  2  0  0  0  0  0  0  0  0  0
    9.3510  -16.2924   20.9817 N   0  0  0  0  0  0  0  0  0  0  0  0
    9.4468  -15.2604   23.1176 C   0  0  0  0  0  0  0  0  0  0  0  0
    9.1842  -14.3233   23.9527 O   0  0  0  0  0  0  0  0  0  0  0  0
    9.9460  -16.4377   23.6960 N   0  0  0  0  0  0  0  0  0  0  0  0
   10.1449  -16.6502   25.1303 C   0  0  1  0  0  0  0  0  0  0  0  0
    9.9666  -15.4057   25.8934 C   0  0  0  0  0  0  0  0  0  0  0  0
    8.5638  -14.9944   26.0373 C   0  0  0  0  0  0  0  0  0  0  0  0
    7.4315  -15.7862   25.7807 C   0  0  0  0  0  0  0  0  0  0  0  0
    6.3338  -15.0485   25.9966 N   0  0  0  0  0  0  0  0  0  0  0  0
    6.6514  -13.8009   26.3864 C   0  0  0  0  0  0  0  0  0  0  0  0
    5.8849  -12.6922   26.7403 C   0  0  0  0  0  0  0  0  0  0  0  0
    6.4873  -11.5190   27.1313 C   0  0  0  0  0  0  0  0  0  0  0  0
    7.8646  -11.4817   27.1600 C   0  0  0  0  0  0  0  0  0  0  0  0
    8.6251  -12.5768   26.8098 C   0  0  0  0  0  0  0  0  0  0  0  0
    8.0294  -13.7615   26.4138 C   0  0  0  0  0  0  0  0  0  0  0  0
    9.4095  -17.7832   25.6400 C   0  0  0  0  0  0  0  0  0  0  0  0
    9.5617  -18.0620   26.8809 O   0  0  0  0  0  0  0  0  0  0  0  0
    8.5505  -18.6046   24.9453 O   0  0  0  0  0  0  0  0  0  0  0  0
  2  3  1  0
  2  1  1  6
  4  3  1  0
  5  6  2  0
  5  4  1  0
  7 15  1  0
  7  2  1  0
  8  7  2  0
  9  5  1  0
 11 10  1  1
 11 12  1  0
 13 11  1  0
 14 16  1  0
 14 13  1  1
 14 15  1  0
 16 17  2  0
 18 19  1  0
 18 16  1  0
 19 30  1  0
 19 20  1  1
 21 20  1  0
 22 21  2  0
 23 24  1  0
 23 22  1  0
 24 29  2  0
 25 26  2  0
 25 24  1  0
 26 27  1  0
 27 28  2  0
 29 21  1  0
 29 28  1  0
 30 31  2  0
 30 32  1  0
M  END
$$$$
