NIP.pdb
     RDKit          3D

 24 24  0  0  1  0  0  0  0  0999 V2000
   14.3515  -19.0272   20.1294 N   0  0  0  0  0  0  0  0  0  0  0  0
   13.3533  -19.0155   21.1238 C   0  0  0  0  0  0  0  0  0  0  0  0
   12.6665  -20.0342   21.3571 O   0  0  0  0  0  0  0  0  0  0  0  0
   13.1044  -17.7892   21.9079 C   0  0  0  0  0  0  0  0  0  0  0  0
   11.6934  -17.3485   21.6069 C   0  0  2  0  0  0  0  0  0  0  0  0
   11.6237  -16.8895   20.2114 N   0  0  0  0  0  0  0  0  0  0  0  0
   11.1590  -16.3399   22.5159 C   0  0  0  0  0  0  0  0  0  0  0  0
   11.8917  -15.3578   22.8833 O   0  0  0  0  0  0  0  0  0  0  0  0
    6.7022  -14.0520   21.3841 C   0  0  0  0  0  0  0  0  0  0  0  0
    8.0439  -14.3696   21.9664 C   0  0  0  0  0  0  0  0  0  0  0  0
    8.0746  -14.9129   23.3291 C   0  0  2  0  0  0  0  0  0  0  0  0
    7.2272  -14.0447   24.2364 C   0  0  0  0  0  0  0  0  0  0  0  0
    9.3270  -15.3923   23.9513 C   0  0  2  0  0  0  0  0  0  0  0  0
    9.8428  -16.3687   23.0365 N   0  0  0  0  0  0  0  0  0  0  0  0
    9.3320  -15.6878   25.3718 C   0  0  0  0  0  0  0  0  0  0  0  0
    8.6844  -16.7725   25.6270 O   0  0  0  0  0  0  0  0  0  0  0  0
    9.8988  -15.0179   26.4565 N   0  0  0  0  0  0  0  0  0  0  0  0
   10.6148  -13.7143   26.4602 C   0  0  0  0  0  0  0  0  0  0  0  0
    9.7987  -12.9767   27.5050 C   0  0  0  0  0  0  0  0  0  0  0  0
    9.1875  -14.0659   28.3681 C   0  0  0  0  0  0  0  0  0  0  0  0
   10.0197  -15.2778   27.8600 C   0  0  1  0  0  0  0  0  0  0  0  0
    9.5950  -16.5065   28.4410 C   0  0  0  0  0  0  0  0  0  0  0  0
   10.1727  -17.1689   29.2938 O   0  0  0  0  0  0  0  0  0  0  0  0
    8.3614  -17.0476   27.9966 O   0  0  0  0  0  0  0  0  0  0  0  0
  1  2  1  0
  2  3  2  0
  4  2  1  0
  4  5  1  0
  5  6  1  6
  7  8  2  0
  7  5  1  0
  9 10  1  0
 10 11  1  0
 11 12  1  1
 13 11  1  0
 13 14  1  6
 14  7  1  0
 15 13  1  0
 16 15  2  0
 17 18  1  0
 17 15  1  0
 19 18  1  0
 20 21  1  0
 20 19  1  0
 21 17  1  0
 22 24  1  0
 21 22  1  6
 23 22  2  0
M  END
$$$$
