NIP.pdb
     RDKit          3D

 24 24  0  0  1  0  0  0  0  0999 V2000
    8.2759  -16.8943   19.5456 N   0  0  0  0  0  0  0  0  0  0  0  0
    8.4327  -17.7920   20.6202 C   0  0  0  0  0  0  0  0  0  0  0  0
    8.2817  -19.0226   20.4571 O   0  0  0  0  0  0  0  0  0  0  0  0
    8.7796  -17.2851   21.9631 C   0  0  0  0  0  0  0  0  0  0  0  0
    8.6826  -15.7807   21.9085 C   0  0  2  0  0  0  0  0  0  0  0  0
    9.5164  -15.2880   20.8017 N   0  0  0  0  0  0  0  0  0  0  0  0
    9.0138  -15.0992   23.1555 C   0  0  0  0  0  0  0  0  0  0  0  0
   10.2295  -14.7985   23.4165 O   0  0  0  0  0  0  0  0  0  0  0  0
    5.4330  -11.8233   25.7375 C   0  0  0  0  0  0  0  0  0  0  0  0
    6.6688  -12.4741   25.1995 C   0  0  0  0  0  0  0  0  0  0  0  0
    7.2237  -13.5984   25.9618 C   0  0  2  0  0  0  0  0  0  0  0  0
    7.2977  -13.2246   27.4280 C   0  0  0  0  0  0  0  0  0  0  0  0
    8.3862  -14.3728   25.4778 C   0  0  2  0  0  0  0  0  0  0  0  0
    8.0545  -14.7317   24.1297 N   0  0  0  0  0  0  0  0  0  0  0  0
    8.9686  -15.3757   26.3495 C   0  0  0  0  0  0  0  0  0  0  0  0
    8.2153  -16.4182   26.4332 O   0  0  0  0  0  0  0  0  0  0  0  0
   10.1580  -15.3931   27.0786 N   0  0  0  0  0  0  0  0  0  0  0  0
   11.3107  -14.4584   26.9804 C   0  0  0  0  0  0  0  0  0  0  0  0
   11.4084  -14.0189   28.4292 C   0  0  0  0  0  0  0  0  0  0  0  0
   10.7854  -15.1505   29.2266 C   0  0  0  0  0  0  0  0  0  0  0  0
   10.7071  -16.2265   28.1062 C   0  0  1  0  0  0  0  0  0  0  0  0
   10.0572  -17.4157   28.5435 C   0  0  0  0  0  0  0  0  0  0  0  0
    8.9326  -17.8029   28.2521 O   0  0  0  0  0  0  0  0  0  0  0  0
   10.7756  -18.2686   29.4200 O   0  0  0  0  0  0  0  0  0  0  0  0
  1  2  1  0
  2  3  2  0
  4  2  1  0
  4  5  1  0
  5  6  1  6
  7  8  2  0
  7  5  1  0
  9 10  1  0
 10 11  1  0
 11 12  1  1
 13 11  1  0
 13 14  1  6
 14  7  1  0
 15 13  1  0
 16 15  2  0
 17 18  1  0
 17 15  1  0
 19 18  1  0
 20 21  1  0
 20 19  1  0
 21 17  1  0
 22 24  1  0
 21 22  1  1
 23 22  2  0
M  END
$$$$
