NIP.pdb
     RDKit          3D

 24 24  0  0  1  0  0  0  0  0999 V2000
   12.5689  -19.4325   20.4168 N   0  0  0  0  0  0  0  0  0  0  0  0
   13.2573  -19.3179   21.6409 C   0  0  0  0  0  0  0  0  0  0  0  0
   14.0654  -20.1985   22.0088 O   0  0  0  0  0  0  0  0  0  0  0  0
   13.0297  -18.1466   22.5109 C   0  0  0  0  0  0  0  0  0  0  0  0
   11.8748  -17.3746   21.9228 C   0  0  2  0  0  0  0  0  0  0  0  0
   12.3209  -16.7159   20.6858 N   0  0  0  0  0  0  0  0  0  0  0  0
   11.2527  -16.4159   22.8301 C   0  0  0  0  0  0  0  0  0  0  0  0
   11.9241  -15.4166   23.2628 O   0  0  0  0  0  0  0  0  0  0  0  0
    6.4587  -14.5700   21.8007 C   0  0  0  0  0  0  0  0  0  0  0  0
    7.8487  -14.6926   22.3420 C   0  0  0  0  0  0  0  0  0  0  0  0
    8.0015  -15.2816   23.6772 C   0  0  2  0  0  0  0  0  0  0  0  0
    7.0853  -14.5678   24.6500 C   0  0  0  0  0  0  0  0  0  0  0  0
    9.3282  -15.6189   24.2356 C   0  0  2  0  0  0  0  0  0  0  0  0
    9.9137  -16.5130   23.2797 N   0  0  0  0  0  0  0  0  0  0  0  0
    9.4313  -15.9337   25.6481 C   0  0  0  0  0  0  0  0  0  0  0  0
    8.8322  -17.0403   25.9265 O   0  0  0  0  0  0  0  0  0  0  0  0
   10.0463  -15.2625   26.7054 N   0  0  0  0  0  0  0  0  0  0  0  0
   10.8202  -13.9930   26.6631 C   0  0  0  0  0  0  0  0  0  0  0  0
   10.0561  -13.1925   27.7010 C   0  0  0  0  0  0  0  0  0  0  0  0
    9.4117  -14.2303   28.6023 C   0  0  0  0  0  0  0  0  0  0  0  0
   10.1796  -15.4914   28.1132 C   0  0  1  0  0  0  0  0  0  0  0  0
    9.7103  -16.6842   28.7333 C   0  0  0  0  0  0  0  0  0  0  0  0
    8.9827  -17.5418   28.2488 O   0  0  0  0  0  0  0  0  0  0  0  0
   10.1195  -16.9310   30.0689 O   0  0  0  0  0  0  0  0  0  0  0  0
  1  2  1  0
  2  3  2  0
  4  2  1  0
  4  5  1  0
  5  6  1  6
  7  8  2  0
  7  5  1  0
  9 10  1  0
 10 11  1  0
 11 12  1  1
 13 11  1  0
 13 14  1  6
 14  7  1  0
 15 13  1  0
 16 15  2  0
 17 18  1  0
 17 15  1  0
 19 18  1  0
 20 21  1  0
 20 19  1  0
 21 17  1  0
 22 24  1  0
 21 22  1  6
 23 22  2  0
M  END
$$$$
