NIP.pdb
     RDKit          3D

 24 24  0  0  1  0  0  0  0  0999 V2000
   10.7755  -18.0715   19.0185 N   0  0  0  0  0  0  0  0  0  0  0  0
   10.0319  -17.7921   20.1822 C   0  0  0  0  0  0  0  0  0  0  0  0
    8.9456  -18.3699   20.4051 O   0  0  0  0  0  0  0  0  0  0  0  0
   10.5314  -16.8047   21.1600 C   0  0  0  0  0  0  0  0  0  0  0  0
    9.3546  -15.9575   21.5761 C   0  0  2  0  0  0  0  0  0  0  0  0
    9.0882  -14.9618   20.5271 N   0  0  0  0  0  0  0  0  0  0  0  0
    9.4901  -15.3183   22.8808 C   0  0  0  0  0  0  0  0  0  0  0  0
   10.5180  -14.6017   23.1381 O   0  0  0  0  0  0  0  0  0  0  0  0
    5.7676  -12.2521   24.9875 C   0  0  0  0  0  0  0  0  0  0  0  0
    7.0553  -12.9349   24.6472 C   0  0  0  0  0  0  0  0  0  0  0  0
    7.4282  -14.1063   25.4484 C   0  0  2  0  0  0  0  0  0  0  0  0
    7.1361  -13.8307   26.9091 C   0  0  0  0  0  0  0  0  0  0  0  0
    8.6875  -14.8445   25.2145 C   0  0  2  0  0  0  0  0  0  0  0  0
    8.5327  -15.4355   23.9172 N   0  0  0  0  0  0  0  0  0  0  0  0
    9.2367  -15.6465   26.2916 C   0  0  0  0  0  0  0  0  0  0  0  0
    8.6746  -16.8050   26.3468 O   0  0  0  0  0  0  0  0  0  0  0  0
   10.2298  -15.3784   27.2342 N   0  0  0  0  0  0  0  0  0  0  0  0
   11.1489  -14.2106   27.2950 C   0  0  0  0  0  0  0  0  0  0  0  0
   10.8552  -13.7263   28.7024 C   0  0  0  0  0  0  0  0  0  0  0  0
   10.3437  -14.9502   29.4410 C   0  0  0  0  0  0  0  0  0  0  0  0
   10.7273  -16.0422   28.4020 C   0  0  1  0  0  0  0  0  0  0  0  0
   10.2752  -17.3366   28.7866 C   0  0  0  0  0  0  0  0  0  0  0  0
    9.2198  -17.8796   28.4849 O   0  0  0  0  0  0  0  0  0  0  0  0
   11.1293  -18.1073   29.6164 O   0  0  0  0  0  0  0  0  0  0  0  0
  1  2  1  0
  2  3  2  0
  4  2  1  0
  4  5  1  0
  5  6  1  6
  7  8  2  0
  7  5  1  0
  9 10  1  0
 10 11  1  0
 11 12  1  1
 13 11  1  0
 13 14  1  6
 14  7  1  0
 15 13  1  0
 16 15  2  0
 17 18  1  0
 17 15  1  0
 19 18  1  0
 20 21  1  0
 20 19  1  0
 21 17  1  0
 22 24  1  0
 21 22  1  1
 23 22  2  0
M  END
$$$$
