NIP.pdb
     RDKit          3D

 24 24  0  0  1  0  0  0  0  0999 V2000
    9.4070  -19.9407   20.3180 N   0  0  0  0  0  0  0  0  0  0  0  0
    8.7884  -18.9488   21.1047 C   0  0  0  0  0  0  0  0  0  0  0  0
    7.5496  -18.7814   21.0707 O   0  0  0  0  0  0  0  0  0  0  0  0
    9.6033  -18.0880   21.9854 C   0  0  0  0  0  0  0  0  0  0  0  0
    9.1199  -16.6720   21.7930 C   0  0  2  0  0  0  0  0  0  0  0  0
    9.6597  -16.1505   20.5283 N   0  0  0  0  0  0  0  0  0  0  0  0
    9.4152  -15.7677   22.8995 C   0  0  0  0  0  0  0  0  0  0  0  0
   10.5862  -15.2675   23.0213 O   0  0  0  0  0  0  0  0  0  0  0  0
    5.7032  -12.9969   26.5896 C   0  0  0  0  0  0  0  0  0  0  0  0
    6.3978  -14.0107   25.7354 C   0  0  0  0  0  0  0  0  0  0  0  0
    7.7225  -13.6566   25.2130 C   0  0  2  0  0  0  0  0  0  0  0  0
    7.5633  -12.7443   24.0140 C   0  0  0  0  0  0  0  0  0  0  0  0
    8.7994  -14.6591   25.0688 C   0  0  2  0  0  0  0  0  0  0  0  0
    8.4669  -15.3887   23.8800 N   0  0  0  0  0  0  0  0  0  0  0  0
    9.2341  -15.3902   26.2442 C   0  0  0  0  0  0  0  0  0  0  0  0
    8.6249  -16.5216   26.3441 O   0  0  0  0  0  0  0  0  0  0  0  0
   10.1628  -15.0805   27.2383 N   0  0  0  0  0  0  0  0  0  0  0  0
   11.0686  -13.9033   27.3162 C   0  0  0  0  0  0  0  0  0  0  0  0
   10.6818  -13.3725   28.6838 C   0  0  0  0  0  0  0  0  0  0  0  0
   10.1318  -14.5740   29.4312 C   0  0  0  0  0  0  0  0  0  0  0  0
   10.5884  -15.6985   28.4585 C   0  0  1  0  0  0  0  0  0  0  0  0
   10.1208  -16.9824   28.8592 C   0  0  0  0  0  0  0  0  0  0  0  0
   10.6999  -17.8036   29.5592 O   0  0  0  0  0  0  0  0  0  0  0  0
    8.8364  -17.3804   28.4076 O   0  0  0  0  0  0  0  0  0  0  0  0
  1  2  1  0
  2  3  2  0
  4  2  1  0
  4  5  1  0
  5  6  1  6
  7  8  2  0
  7  5  1  0
  9 10  1  0
 10 11  1  0
 11 12  1  6
 13 11  1  0
 13 14  1  6
 14  7  1  0
 15 13  1  0
 16 15  2  0
 17 18  1  0
 17 15  1  0
 19 18  1  0
 20 21  1  0
 20 19  1  0
 21 17  1  0
 22 24  1  0
 21 22  1  1
 23 22  2  0
M  END
$$$$
