NIP.pdb
     RDKit          3D

 24 24  0  0  1  0  0  0  0  0999 V2000
    9.7381  -17.7687   19.4770 N   0  0  0  0  0  0  0  0  0  0  0  0
    9.8868  -18.5369   20.6489 C   0  0  0  0  0  0  0  0  0  0  0  0
   10.1386  -19.7602   20.5879 O   0  0  0  0  0  0  0  0  0  0  0  0
    9.7452  -17.9002   21.9738 C   0  0  0  0  0  0  0  0  0  0  0  0
    9.3263  -16.4705   21.7368 C   0  0  2  0  0  0  0  0  0  0  0  0
   10.0893  -15.9311   20.6012 N   0  0  0  0  0  0  0  0  0  0  0  0
    9.4362  -15.5984   22.9015 C   0  0  0  0  0  0  0  0  0  0  0  0
   10.5305  -14.9784   23.1350 O   0  0  0  0  0  0  0  0  0  0  0  0
    5.9669  -12.0729   26.3252 C   0  0  0  0  0  0  0  0  0  0  0  0
    7.2858  -12.7592   26.1535 C   0  0  0  0  0  0  0  0  0  0  0  0
    7.3220  -13.9396   25.2826 C   0  0  2  0  0  0  0  0  0  0  0  0
    6.0817  -14.7771   25.5182 C   0  0  0  0  0  0  0  0  0  0  0  0
    8.5557  -14.7308   25.0893 C   0  0  2  0  0  0  0  0  0  0  0  0
    8.3831  -15.3789   23.8219 N   0  0  0  0  0  0  0  0  0  0  0  0
    9.0752  -15.4975   26.2062 C   0  0  0  0  0  0  0  0  0  0  0  0
    8.4782  -16.6348   26.3119 O   0  0  0  0  0  0  0  0  0  0  0  0
   10.0713  -15.2153   27.1414 N   0  0  0  0  0  0  0  0  0  0  0  0
   11.0005  -14.0543   27.1735 C   0  0  0  0  0  0  0  0  0  0  0  0
   10.7120  -13.5337   28.5690 C   0  0  0  0  0  0  0  0  0  0  0  0
   10.1906  -14.7348   29.3372 C   0  0  0  0  0  0  0  0  0  0  0  0
   10.5640  -15.8549   28.3247 C   0  0  1  0  0  0  0  0  0  0  0  0
   10.1010  -17.1357   28.7407 C   0  0  0  0  0  0  0  0  0  0  0  0
    9.0371  -17.6731   28.4599 O   0  0  0  0  0  0  0  0  0  0  0  0
   10.9539  -17.8982   29.5793 O   0  0  0  0  0  0  0  0  0  0  0  0
  1  2  1  0
  2  3  2  0
  4  2  1  0
  4  5  1  0
  5  6  1  6
  7  8  2  0
  7  5  1  0
  9 10  1  0
 10 11  1  0
 11 12  1  1
 13 11  1  0
 13 14  1  6
 14  7  1  0
 15 13  1  0
 16 15  2  0
 17 18  1  0
 17 15  1  0
 19 18  1  0
 20 21  1  0
 20 19  1  0
 21 17  1  0
 22 24  1  0
 21 22  1  1
 23 22  2  0
M  END
$$$$
