NIP.pdb
     RDKit          3D

 24 24  0  0  1  0  0  0  0  0999 V2000
    8.4408  -18.8610   27.0526 N   0  0  0  0  0  0  0  0  0  0  0  0
    8.4203  -19.7530   25.9621 C   0  0  0  0  0  0  0  0  0  0  0  0
    8.9701  -20.8736   26.0378 O   0  0  0  0  0  0  0  0  0  0  0  0
    7.7438  -19.3708   24.7063 C   0  0  0  0  0  0  0  0  0  0  0  0
    6.4932  -18.6180   25.0870 C   0  0  2  0  0  0  0  0  0  0  0  0
    5.3205  -19.4415   24.7561 N   0  0  0  0  0  0  0  0  0  0  0  0
    6.3777  -17.2858   24.5030 C   0  0  0  0  0  0  0  0  0  0  0  0
    5.8167  -17.1337   23.3635 O   0  0  0  0  0  0  0  0  0  0  0  0
    6.4022  -12.5845   27.4898 C   0  0  0  0  0  0  0  0  0  0  0  0
    6.1531  -13.5919   26.4112 C   0  0  0  0  0  0  0  0  0  0  0  0
    7.2503  -13.8605   25.4747 C   0  0  2  0  0  0  0  0  0  0  0  0
    7.8344  -12.5479   24.9940 C   0  0  0  0  0  0  0  0  0  0  0  0
    7.1450  -14.8943   24.4233 C   0  0  2  0  0  0  0  0  0  0  0  0
    6.8554  -16.1088   25.1284 N   0  0  0  0  0  0  0  0  0  0  0  0
    8.1360  -14.9156   23.3637 C   0  0  0  0  0  0  0  0  0  0  0  0
    9.2817  -15.3111   23.8016 O   0  0  0  0  0  0  0  0  0  0  0  0
    8.0525  -14.5917   22.0092 N   0  0  0  0  0  0  0  0  0  0  0  0
    6.8334  -14.3172   21.2025 C   0  0  0  0  0  0  0  0  0  0  0  0
    7.1958  -12.9530   20.6465 C   0  0  0  0  0  0  0  0  0  0  0  0
    8.7133  -12.9102   20.6666 C   0  0  0  0  0  0  0  0  0  0  0  0
    8.9977  -14.4133   20.9476 C   0  0  1  0  0  0  0  0  0  0  0  0
   10.3864  -14.6777   21.1189 C   0  0  0  0  0  0  0  0  0  0  0  0
   11.1838  -15.0619   20.2727 O   0  0  0  0  0  0  0  0  0  0  0  0
   10.9344  -14.4807   22.4124 O   0  0  0  0  0  0  0  0  0  0  0  0
  1  2  1  0
  2  3  2  0
  4  2  1  0
  4  5  1  0
  5  6  1  6
  7  8  2  0
  7  5  1  0
  9 10  1  0
 10 11  1  0
 11 12  1  6
 13 11  1  0
 13 14  1  1
 14  7  1  0
 15 13  1  0
 16 15  2  0
 17 18  1  0
 17 15  1  0
 19 18  1  0
 20 21  1  0
 20 19  1  0
 21 17  1  0
 22 24  1  0
 21 22  1  1
 23 22  2  0
M  END
$$$$
