NIP.pdb
     RDKit          3D

 24 24  0  0  1  0  0  0  0  0999 V2000
    7.8028  -18.6175   20.4001 N   0  0  0  0  0  0  0  0  0  0  0  0
    9.1000  -18.0728   20.4779 C   0  0  0  0  0  0  0  0  0  0  0  0
    9.8592  -18.0763   19.4843 O   0  0  0  0  0  0  0  0  0  0  0  0
    9.5817  -17.4871   21.7450 C   0  0  0  0  0  0  0  0  0  0  0  0
    9.2100  -16.0251   21.7279 C   0  0  2  0  0  0  0  0  0  0  0  0
    9.9631  -15.3532   20.6583 N   0  0  0  0  0  0  0  0  0  0  0  0
    9.3817  -15.3339   23.0015 C   0  0  0  0  0  0  0  0  0  0  0  0
   10.5123  -14.8152   23.3000 O   0  0  0  0  0  0  0  0  0  0  0  0
    5.6286  -12.0892   25.2836 C   0  0  0  0  0  0  0  0  0  0  0  0
    6.8858  -12.7710   24.8424 C   0  0  0  0  0  0  0  0  0  0  0  0
    7.3212  -13.9428   25.6107 C   0  0  2  0  0  0  0  0  0  0  0  0
    7.1340  -13.6730   27.0896 C   0  0  0  0  0  0  0  0  0  0  0  0
    8.5639  -14.6738   25.2840 C   0  0  2  0  0  0  0  0  0  0  0  0
    8.3522  -15.1884   23.9624 N   0  0  0  0  0  0  0  0  0  0  0  0
    9.1493  -15.5397   26.2903 C   0  0  0  0  0  0  0  0  0  0  0  0
    8.5019  -16.6499   26.3872 O   0  0  0  0  0  0  0  0  0  0  0  0
   10.2496  -15.3722   27.1317 N   0  0  0  0  0  0  0  0  0  0  0  0
   11.2448  -14.2669   27.1352 C   0  0  0  0  0  0  0  0  0  0  0  0
   11.1300  -13.8234   28.5816 C   0  0  0  0  0  0  0  0  0  0  0  0
   10.6181  -15.0426   29.3275 C   0  0  0  0  0  0  0  0  0  0  0  0
   10.8201  -16.1128   28.2171 C   0  0  1  0  0  0  0  0  0  0  0  0
   10.3260  -17.3914   28.6026 C   0  0  0  0  0  0  0  0  0  0  0  0
   10.9744  -18.3643   28.9668 O   0  0  0  0  0  0  0  0  0  0  0  0
    8.9214  -17.5865   28.5692 O   0  0  0  0  0  0  0  0  0  0  0  0
  1  2  1  0
  2  3  2  0
  4  2  1  0
  4  5  1  0
  5  6  1  6
  7  8  2  0
  7  5  1  0
  9 10  1  0
 10 11  1  0
 11 12  1  1
 13 11  1  0
 13 14  1  6
 14  7  1  0
 15 13  1  0
 16 15  2  0
 17 18  1  0
 17 15  1  0
 19 18  1  0
 20 21  1  0
 20 19  1  0
 21 17  1  0
 22 24  1  0
 21 22  1  1
 23 22  2  0
M  END
$$$$
