NIP.pdb
     RDKit          3D

 24 24  0  0  1  0  0  0  0  0999 V2000
    9.6089  -20.4340   21.1350 N   0  0  0  0  0  0  0  0  0  0  0  0
   10.8550  -19.8152   21.3580 C   0  0  0  0  0  0  0  0  0  0  0  0
   11.8954  -20.2522   20.8191 O   0  0  0  0  0  0  0  0  0  0  0  0
   10.9471  -18.6335   22.2388 C   0  0  0  0  0  0  0  0  0  0  0  0
   10.8992  -17.4140   21.3522 C   0  0  2  0  0  0  0  0  0  0  0  0
   12.2372  -17.1804   20.7883 N   0  0  0  0  0  0  0  0  0  0  0  0
   10.3851  -16.2088   21.9944 C   0  0  0  0  0  0  0  0  0  0  0  0
   11.1589  -15.4884   22.7145 O   0  0  0  0  0  0  0  0  0  0  0  0
    7.1596  -12.8568   19.4816 C   0  0  0  0  0  0  0  0  0  0  0  0
    8.1520  -13.4326   20.4427 C   0  0  0  0  0  0  0  0  0  0  0  0
    7.6362  -13.9410   21.7188 C   0  0  2  0  0  0  0  0  0  0  0  0
    6.7875  -12.8741   22.3796 C   0  0  0  0  0  0  0  0  0  0  0  0
    8.4871  -14.7018   22.6583 C   0  0  2  0  0  0  0  0  0  0  0  0
    9.0472  -15.7622   21.8722 N   0  0  0  0  0  0  0  0  0  0  0  0
    7.9703  -15.0037   23.9801 C   0  0  0  0  0  0  0  0  0  0  0  0
    7.1780  -16.0198   23.9525 O   0  0  0  0  0  0  0  0  0  0  0  0
    8.1829  -14.3991   25.2193 N   0  0  0  0  0  0  0  0  0  0  0  0
    9.0584  -13.2400   25.5392 C   0  0  0  0  0  0  0  0  0  0  0  0
    8.0454  -12.3310   26.2093 C   0  0  0  0  0  0  0  0  0  0  0  0
    6.9682  -13.2624   26.7356 C   0  0  0  0  0  0  0  0  0  0  0  0
    7.7058  -14.6194   26.5520 C   0  0  1  0  0  0  0  0  0  0  0  0
    6.8820  -15.7318   26.8861 C   0  0  0  0  0  0  0  0  0  0  0  0
    5.9727  -16.2141   26.2227 O   0  0  0  0  0  0  0  0  0  0  0  0
    7.1228  -16.3738   28.1278 O   0  0  0  0  0  0  0  0  0  0  0  0
  1  2  1  0
  2  3  2  0
  4  2  1  0
  4  5  1  0
  5  6  1  1
  7  8  2  0
  7  5  1  0
  9 10  1  0
 10 11  1  0
 11 12  1  1
 13 11  1  0
 13 14  1  6
 14  7  1  0
 15 13  1  0
 16 15  2  0
 17 18  1  0
 17 15  1  0
 19 18  1  0
 20 21  1  0
 20 19  1  0
 21 17  1  0
 22 24  1  0
 21 22  1  6
 23 22  2  0
M  END
$$$$
