TEN.pdb
     RDKit          3D

 25 24  0  0  1  0  0  0  0  0999 V2000
   13.5144   -9.7242   -9.0657 C   0  0  0  0  0  0  0  0  0  0  0  0
   13.8313   -8.3744   -8.4434 C   0  0  1  0  0  0  0  0  0  0  0  0
   13.4953   -8.3628   -7.0861 O   0  0  0  0  0  0  0  0  0  0  0  0
   15.2901   -8.0379   -8.5825 C   0  0  2  0  0  0  0  0  0  0  0  0
   15.6591   -6.8280   -7.9129 N   0  0  0  0  0  0  0  0  0  0  0  0
   15.6180   -7.9918  -10.0319 C   0  0  0  0  0  0  0  0  0  0  0  0
   15.4195   -9.0108  -10.7459 O   0  0  0  0  0  0  0  0  0  0  0  0
   16.1518   -6.8408  -10.6646 N   0  0  0  0  0  0  0  0  0  0  0  0
   16.4214   -6.8615  -12.0736 C   0  0  1  0  0  0  0  0  0  0  0  0
   15.6245   -5.8260  -12.8337 C   0  0  0  0  0  0  0  0  0  0  0  0
   14.1798   -6.1793  -12.9560 C   0  0  0  0  0  0  0  0  0  0  0  0
   13.5035   -5.1550  -13.7839 C   0  0  0  0  0  0  0  0  0  0  0  0
   12.6500   -4.4159  -13.2765 O   0  0  0  0  0  0  0  0  0  0  0  0
   17.8590   -6.5242  -12.2789 C   0  0  0  0  0  0  0  0  0  0  0  0
   18.4007   -5.6618  -11.5386 O   0  0  0  0  0  0  0  0  0  0  0  0
   13.8230   -5.0233  -15.1184 O   0  0  0  0  0  0  0  0  0  0  0  0
   22.8678   -6.5908  -13.9788 N   0  0  0  0  0  0  0  0  0  0  0  0
   22.2875   -7.8327  -13.6511 C   0  0  0  0  0  0  0  0  0  0  0  0
   23.0329   -8.8331  -13.5960 O   0  0  0  0  0  0  0  0  0  0  0  0
   20.8646   -7.9391  -13.3866 C   0  0  0  0  0  0  0  0  0  0  0  0
   20.0507   -6.6987  -13.4531 C   0  0  2  0  0  0  0  0  0  0  0  0
   18.6609   -7.1142  -13.2585 N   0  0  0  0  0  0  0  0  0  0  0  0
   20.1249   -5.9188  -14.6825 C   0  0  0  0  0  0  0  0  0  0  0  0
   19.1578   -5.9860  -15.6583 O   0  0  0  0  0  0  0  0  0  0  0  0
   21.0994   -5.1277  -14.9192 O   0  0  0  0  0  0  0  0  0  0  0  0
  2  1  1  1
  2  3  1  0
  4  6  1  0
  4  2  1  0
  4  5  1  6
  6  7  2  0
  8  9  1  0
  8  6  1  0
  9 14  1  0
 10 11  1  0
  9 10  1  6
 12 11  1  0
 13 12  2  0
 14 22  1  0
 14 15  2  0
 16 12  1  0
 18 17  1  0
 18 20  1  0
 19 18  2  0
 21 20  1  6
 21 23  1  0
 22 21  1  0
 23 25  2  0
 23 24  1  0
M  END
$$$$
