TEN.pdb
     RDKit          3D

 25 24  0  0  1  0  0  0  0  0999 V2000
   14.6099   -9.4339  -14.3743 C   0  0  0  0  0  0  0  0  0  0  0  0
   14.9631  -10.9115  -14.3359 C   0  0  1  0  0  0  0  0  0  0  0  0
   14.2633  -11.6146  -15.3213 O   0  0  0  0  0  0  0  0  0  0  0  0
   16.4366  -11.1264  -14.5440 C   0  0  2  0  0  0  0  0  0  0  0  0
   16.8028  -12.5078  -14.6207 N   0  0  0  0  0  0  0  0  0  0  0  0
   17.1652  -10.4188  -13.4581 C   0  0  0  0  0  0  0  0  0  0  0  0
   17.1224  -10.8730  -12.2837 O   0  0  0  0  0  0  0  0  0  0  0  0
   17.9193   -9.2387  -13.6786 N   0  0  0  0  0  0  0  0  0  0  0  0
   18.5437   -8.5737  -12.5712 C   0  0  1  0  0  0  0  0  0  0  0  0
   19.6499   -7.6382  -13.0028 C   0  0  0  0  0  0  0  0  0  0  0  0
   20.2574   -6.8915  -11.8625 C   0  0  0  0  0  0  0  0  0  0  0  0
   21.4232   -6.1247  -12.3575 C   0  0  0  0  0  0  0  0  0  0  0  0
   21.6939   -5.0236  -11.8609 O   0  0  0  0  0  0  0  0  0  0  0  0
   17.5172   -7.7316  -11.8931 C   0  0  0  0  0  0  0  0  0  0  0  0
   16.7713   -6.9921  -12.5874 O   0  0  0  0  0  0  0  0  0  0  0  0
   22.2070   -6.6350  -13.3700 O   0  0  0  0  0  0  0  0  0  0  0  0
   14.3200   -5.5744   -8.2930 N   0  0  0  0  0  0  0  0  0  0  0  0
   14.3760   -6.9807   -8.3676 C   0  0  0  0  0  0  0  0  0  0  0  0
   13.5432   -7.6375   -7.7084 O   0  0  0  0  0  0  0  0  0  0  0  0
   15.3748   -7.6401   -9.1883 C   0  0  0  0  0  0  0  0  0  0  0  0
   16.3679   -6.7893   -9.8922 C   0  0  2  0  0  0  0  0  0  0  0  0
   17.3246   -7.7086  -10.5100 N   0  0  0  0  0  0  0  0  0  0  0  0
   17.1133   -5.8304   -9.0860 C   0  0  0  0  0  0  0  0  0  0  0  0
   16.6122   -4.5909   -8.7629 O   0  0  0  0  0  0  0  0  0  0  0  0
   18.2792   -6.0933   -8.6353 O   0  0  0  0  0  0  0  0  0  0  0  0
  2  1  1  6
  2  3  1  0
  4  6  1  0
  4  2  1  0
  4  5  1  1
  6  7  2  0
  8  9  1  0
  8  6  1  0
  9 14  1  0
 10 11  1  0
  9 10  1  6
 12 11  1  0
 13 12  2  0
 14 22  1  0
 14 15  2  0
 16 12  1  0
 18 17  1  0
 18 20  1  0
 19 18  2  0
 21 20  1  1
 21 23  1  0
 22 21  1  0
 23 25  2  0
 23 24  1  0
M  END
$$$$
