TEN.pdb
     RDKit          3D

 25 24  0  0  1  0  0  0  0  0999 V2000
   15.9784  -10.7868  -17.1759 C   0  0  0  0  0  0  0  0  0  0  0  0
   16.3397  -10.2335  -15.8073 C   0  0  1  0  0  0  0  0  0  0  0  0
   15.2831  -10.4058  -14.9078 O   0  0  0  0  0  0  0  0  0  0  0  0
   17.5625  -10.9085  -15.2507 C   0  0  2  0  0  0  0  0  0  0  0  0
   17.3743  -12.3048  -14.9991 N   0  0  0  0  0  0  0  0  0  0  0  0
   17.9785  -10.1754  -14.0260 C   0  0  0  0  0  0  0  0  0  0  0  0
   17.8177  -10.7112  -12.8971 O   0  0  0  0  0  0  0  0  0  0  0  0
   18.5572   -8.8816  -14.0620 N   0  0  0  0  0  0  0  0  0  0  0  0
   19.0122   -8.2693  -12.8469 C   0  0  1  0  0  0  0  0  0  0  0  0
   19.9914   -7.1444  -13.0933 C   0  0  0  0  0  0  0  0  0  0  0  0
   20.4442   -6.4821  -11.8350 C   0  0  0  0  0  0  0  0  0  0  0  0
   21.3402   -5.3555  -12.1812 C   0  0  0  0  0  0  0  0  0  0  0  0
   22.5639   -5.4726  -12.0356 O   0  0  0  0  0  0  0  0  0  0  0  0
   17.8356   -7.6639  -12.1601 C   0  0  0  0  0  0  0  0  0  0  0  0
   16.9932   -7.0176  -12.8369 O   0  0  0  0  0  0  0  0  0  0  0  0
   20.8139   -4.1769  -12.6650 O   0  0  0  0  0  0  0  0  0  0  0  0
   14.1699   -6.4371   -8.5655 N   0  0  0  0  0  0  0  0  0  0  0  0
   14.4254   -7.7928   -8.8544 C   0  0  0  0  0  0  0  0  0  0  0  0
   13.6198   -8.6462   -8.4276 O   0  0  0  0  0  0  0  0  0  0  0  0
   15.5924   -8.1790   -9.6257 C   0  0  0  0  0  0  0  0  0  0  0  0
   16.4619   -7.0993  -10.1584 C   0  0  2  0  0  0  0  0  0  0  0  0
   17.6014   -7.7688  -10.7872 N   0  0  0  0  0  0  0  0  0  0  0  0
   16.9763   -6.1262   -9.2025 C   0  0  0  0  0  0  0  0  0  0  0  0
   18.3225   -5.9466   -8.9846 O   0  0  0  0  0  0  0  0  0  0  0  0
   16.1978   -5.3852   -8.5123 O   0  0  0  0  0  0  0  0  0  0  0  0
  2  1  1  6
  2  3  1  0
  4  6  1  0
  4  2  1  0
  4  5  1  1
  6  7  2  0
  8  9  1  0
  8  6  1  0
  9 14  1  0
 10 11  1  0
  9 10  1  6
 12 11  1  0
 13 12  2  0
 14 22  1  0
 14 15  2  0
 16 12  1  0
 18 17  1  0
 18 20  1  0
 19 18  2  0
 21 20  1  1
 21 23  1  0
 22 21  1  0
 23 25  2  0
 23 24  1  0
M  END
$$$$
