TEN.pdb
     RDKit          3D

 25 24  0  0  1  0  0  0  0  0999 V2000
   18.3100   -9.9346  -18.0768 C   0  0  0  0  0  0  0  0  0  0  0  0
   17.5709  -10.9230  -17.1898 C   0  0  1  0  0  0  0  0  0  0  0  0
   17.7126  -12.2268  -17.6747 O   0  0  0  0  0  0  0  0  0  0  0  0
   18.0810  -10.8756  -15.7762 C   0  0  2  0  0  0  0  0  0  0  0  0
   17.8480  -12.0858  -15.0487 N   0  0  0  0  0  0  0  0  0  0  0  0
   17.4715   -9.6980  -15.1037 C   0  0  0  0  0  0  0  0  0  0  0  0
   17.5644   -8.5610  -15.6384 O   0  0  0  0  0  0  0  0  0  0  0  0
   16.7784   -9.7888  -13.8703 N   0  0  0  0  0  0  0  0  0  0  0  0
   16.1352   -8.6275  -13.3261 C   0  0  1  0  0  0  0  0  0  0  0  0
   14.7174   -8.9030  -12.8801 C   0  0  0  0  0  0  0  0  0  0  0  0
   13.7904   -9.1655  -14.0198 C   0  0  0  0  0  0  0  0  0  0  0  0
   12.4403   -9.4524  -13.4842 C   0  0  0  0  0  0  0  0  0  0  0  0
   12.2512  -10.4638  -12.7960 O   0  0  0  0  0  0  0  0  0  0  0  0
   16.8870   -8.2040  -12.1103 C   0  0  0  0  0  0  0  0  0  0  0  0
   17.6253   -9.0370  -11.5219 O   0  0  0  0  0  0  0  0  0  0  0  0
   11.3943   -8.5951  -13.7507 O   0  0  0  0  0  0  0  0  0  0  0  0
   19.8288   -5.7869   -8.7020 N   0  0  0  0  0  0  0  0  0  0  0  0
   20.1260   -6.2873   -9.9856 C   0  0  0  0  0  0  0  0  0  0  0  0
   21.3231   -6.3236  -10.3393 O   0  0  0  0  0  0  0  0  0  0  0  0
   19.0671   -6.7454  -10.8659 C   0  0  0  0  0  0  0  0  0  0  0  0
   17.6626   -6.5302  -10.4341 C   0  0  2  0  0  0  0  0  0  0  0  0
   16.8248   -6.9176  -11.5700 N   0  0  0  0  0  0  0  0  0  0  0  0
   17.2891   -5.1795  -10.0326 C   0  0  0  0  0  0  0  0  0  0  0  0
   17.2890   -4.7740   -8.7182 O   0  0  0  0  0  0  0  0  0  0  0  0
   16.9392   -4.2966  -10.8867 O   0  0  0  0  0  0  0  0  0  0  0  0
  2  1  1  6
  2  3  1  0
  4  6  1  0
  4  2  1  0
  4  5  1  1
  6  7  2  0
  8  9  1  0
  8  6  1  0
  9 14  1  0
 10 11  1  0
  9 10  1  1
 12 11  1  0
 13 12  2  0
 14 22  1  0
 14 15  2  0
 16 12  1  0
 18 17  1  0
 18 20  1  0
 19 18  2  0
 21 20  1  6
 21 23  1  0
 22 21  1  0
 23 25  2  0
 23 24  1  0
M  END
$$$$
