TEN.pdb
     RDKit          3D

 25 24  0  0  1  0  0  0  0  0999 V2000
   14.8277  -12.3867  -11.8910 C   0  0  0  0  0  0  0  0  0  0  0  0
   14.8937  -10.8775  -11.7247 C   0  0  1  0  0  0  0  0  0  0  0  0
   13.8192  -10.4154  -10.9584 O   0  0  0  0  0  0  0  0  0  0  0  0
   16.1758  -10.4567  -11.0615 C   0  0  2  0  0  0  0  0  0  0  0  0
   16.3217  -10.9691   -9.7332 N   0  0  0  0  0  0  0  0  0  0  0  0
   16.2480   -8.9720  -11.0944 C   0  0  0  0  0  0  0  0  0  0  0  0
   16.3254   -8.3788  -12.2032 O   0  0  0  0  0  0  0  0  0  0  0  0
   16.2338   -8.1741   -9.9226 N   0  0  0  0  0  0  0  0  0  0  0  0
   16.1807   -6.7447  -10.0333 C   0  0  1  0  0  0  0  0  0  0  0  0
   15.6140   -6.0859   -8.7964 C   0  0  0  0  0  0  0  0  0  0  0  0
   15.4840   -4.6057   -8.9342 C   0  0  0  0  0  0  0  0  0  0  0  0
   14.6595   -4.0902   -7.8177 C   0  0  0  0  0  0  0  0  0  0  0  0
   13.9237   -3.1106   -7.9946 O   0  0  0  0  0  0  0  0  0  0  0  0
   17.5740   -6.2359  -10.1836 C   0  0  0  0  0  0  0  0  0  0  0  0
   18.4562   -6.6064   -9.3651 O   0  0  0  0  0  0  0  0  0  0  0  0
   14.7101   -4.6993   -6.5822 O   0  0  0  0  0  0  0  0  0  0  0  0
   21.9945   -5.6257  -12.6850 N   0  0  0  0  0  0  0  0  0  0  0  0
   21.1747   -6.7488  -12.4547 C   0  0  0  0  0  0  0  0  0  0  0  0
   21.6059   -7.8704  -12.7945 O   0  0  0  0  0  0  0  0  0  0  0  0
   19.8685   -6.5994  -11.8403 C   0  0  0  0  0  0  0  0  0  0  0  0
   19.3813   -5.2229  -11.5693 C   0  0  2  0  0  0  0  0  0  0  0  0
   17.9732   -5.3574  -11.1933 N   0  0  0  0  0  0  0  0  0  0  0  0
   19.4716   -4.2583  -12.6585 C   0  0  0  0  0  0  0  0  0  0  0  0
   18.4082   -3.9760  -13.4840 O   0  0  0  0  0  0  0  0  0  0  0  0
   20.5509   -3.6213  -12.9049 O   0  0  0  0  0  0  0  0  0  0  0  0
  2  1  1  1
  2  3  1  0
  4  6  1  0
  4  2  1  0
  4  5  1  1
  6  7  2  0
  8  9  1  0
  8  6  1  0
  9 14  1  0
 10 11  1  0
  9 10  1  1
 12 11  1  0
 13 12  2  0
 14 22  1  0
 14 15  2  0
 16 12  1  0
 18 17  1  0
 18 20  1  0
 19 18  2  0
 21 20  1  6
 21 23  1  0
 22 21  1  0
 23 25  2  0
 23 24  1  0
M  END
$$$$
