TEN.pdb
     RDKit          3D

 25 24  0  0  1  0  0  0  0  0999 V2000
   25.2942   -9.9018  -15.2467 C   0  0  0  0  0  0  0  0  0  0  0  0
   25.1305  -10.8152  -16.4503 C   0  0  1  0  0  0  0  0  0  0  0  0
   26.1655  -11.7539  -16.5050 O   0  0  0  0  0  0  0  0  0  0  0  0
   23.8175  -11.5464  -16.4064 C   0  0  2  0  0  0  0  0  0  0  0  0
   23.7050  -12.5696  -17.4007 N   0  0  0  0  0  0  0  0  0  0  0  0
   22.7256  -10.5434  -16.5166 C   0  0  0  0  0  0  0  0  0  0  0  0
   22.4479  -10.0493  -17.6418 O   0  0  0  0  0  0  0  0  0  0  0  0
   21.9666  -10.1057  -15.4020 N   0  0  0  0  0  0  0  0  0  0  0  0
   20.9819   -9.0757  -15.5694 C   0  0  1  0  0  0  0  0  0  0  0  0
   19.6812   -9.3946  -14.8684 C   0  0  0  0  0  0  0  0  0  0  0  0
   18.8823  -10.4396  -15.5732 C   0  0  0  0  0  0  0  0  0  0  0  0
   17.6364  -10.6859  -14.8121 C   0  0  0  0  0  0  0  0  0  0  0  0
   16.5372  -10.5118  -15.3541 O   0  0  0  0  0  0  0  0  0  0  0  0
   21.5034   -7.8256  -14.9466 C   0  0  0  0  0  0  0  0  0  0  0  0
   22.4832   -7.8929  -14.1586 O   0  0  0  0  0  0  0  0  0  0  0  0
   17.6989  -11.1086  -13.5016 O   0  0  0  0  0  0  0  0  0  0  0  0
   25.0472   -4.0881  -15.9881 N   0  0  0  0  0  0  0  0  0  0  0  0
   23.8525   -4.2146  -15.2510 C   0  0  0  0  0  0  0  0  0  0  0  0
   23.5882   -3.3348  -14.4052 O   0  0  0  0  0  0  0  0  0  0  0  0
   22.9599   -5.3370  -15.4734 C   0  0  0  0  0  0  0  0  0  0  0  0
   21.6614   -5.3456  -14.7528 C   0  0  2  0  0  0  0  0  0  0  0  0
   20.9656   -6.5588  -15.1845 N   0  0  0  0  0  0  0  0  0  0  0  0
   20.7729   -4.2101  -14.9683 C   0  0  0  0  0  0  0  0  0  0  0  0
   20.6625   -3.1781  -14.0657 O   0  0  0  0  0  0  0  0  0  0  0  0
   20.0453   -4.1145  -16.0137 O   0  0  0  0  0  0  0  0  0  0  0  0
  2  1  1  1
  2  3  1  0
  4  6  1  0
  4  2  1  0
  4  5  1  6
  6  7  2  0
  8  9  1  0
  8  6  1  0
  9 14  1  0
 10 11  1  0
  9 10  1  1
 12 11  1  0
 13 12  2  0
 14 22  1  0
 14 15  2  0
 16 12  1  0
 18 17  1  0
 18 20  1  0
 19 18  2  0
 21 20  1  6
 21 23  1  0
 22 21  1  0
 23 25  2  0
 23 24  1  0
M  END
$$$$
