TEN.pdb
     RDKit          3D

 25 24  0  0  1  0  0  0  0  0999 V2000
   27.0240  -10.6280  -15.4562 C   0  0  0  0  0  0  0  0  0  0  0  0
   27.1675  -11.6400  -16.5808 C   0  0  1  0  0  0  0  0  0  0  0  0
   28.1626  -12.5758  -16.2821 O   0  0  0  0  0  0  0  0  0  0  0  0
   25.8763  -12.3703  -16.8265 C   0  0  2  0  0  0  0  0  0  0  0  0
   26.0046  -13.4521  -17.7546 N   0  0  0  0  0  0  0  0  0  0  0  0
   24.8606  -11.3783  -17.2678 C   0  0  0  0  0  0  0  0  0  0  0  0
   24.7974  -11.0537  -18.4836 O   0  0  0  0  0  0  0  0  0  0  0  0
   23.9427  -10.7673  -16.3767 N   0  0  0  0  0  0  0  0  0  0  0  0
   22.9334   -9.8843  -16.8865 C   0  0  1  0  0  0  0  0  0  0  0  0
   21.5547  -10.5038  -16.8676 C   0  0  0  0  0  0  0  0  0  0  0  0
   21.1809  -11.0488  -15.5296 C   0  0  0  0  0  0  0  0  0  0  0  0
   19.7779  -11.5190  -15.5777 C   0  0  0  0  0  0  0  0  0  0  0  0
   18.9700  -11.1404  -14.7196 O   0  0  0  0  0  0  0  0  0  0  0  0
   22.8715   -8.6858  -16.0020 C   0  0  0  0  0  0  0  0  0  0  0  0
   23.1451   -8.8085  -14.7791 O   0  0  0  0  0  0  0  0  0  0  0  0
   19.3702  -12.3773  -16.5763 O   0  0  0  0  0  0  0  0  0  0  0  0
   22.5216   -2.5744  -16.6234 N   0  0  0  0  0  0  0  0  0  0  0  0
   22.6734   -3.7421  -15.8489 C   0  0  0  0  0  0  0  0  0  0  0  0
   22.8736   -3.6122  -14.6232 O   0  0  0  0  0  0  0  0  0  0  0  0
   22.5983   -5.0543  -16.4641 C   0  0  0  0  0  0  0  0  0  0  0  0
   22.6296   -6.2423  -15.5734 C   0  0  2  0  0  0  0  0  0  0  0  0
   22.5227   -7.4096  -16.4498 N   0  0  0  0  0  0  0  0  0  0  0  0
   21.5896   -6.3395  -14.5565 C   0  0  0  0  0  0  0  0  0  0  0  0
   21.8035   -5.9815  -13.2458 O   0  0  0  0  0  0  0  0  0  0  0  0
   20.4175   -6.7660  -14.8320 O   0  0  0  0  0  0  0  0  0  0  0  0
  2  1  1  1
  2  3  1  0
  4  6  1  0
  4  2  1  0
  4  5  1  6
  6  7  2  0
  8  9  1  0
  8  6  1  0
  9 14  1  0
 10 11  1  0
  9 10  1  1
 12 11  1  0
 13 12  2  0
 14 22  1  0
 14 15  2  0
 16 12  1  0
 18 17  1  0
 18 20  1  0
 19 18  2  0
 21 20  1  6
 21 23  1  0
 22 21  1  0
 23 25  2  0
 23 24  1  0
M  END
$$$$
