TEN.pdb
     RDKit          3D

 25 24  0  0  1  0  0  0  0  0999 V2000
   28.8077  -21.8382  -18.0727 C   0  0  0  0  0  0  0  0  0  0  0  0
   27.8701  -22.1478  -16.9174 C   0  0  1  0  0  0  0  0  0  0  0  0
   28.5924  -22.4979  -15.7724 O   0  0  0  0  0  0  0  0  0  0  0  0
   26.9942  -20.9693  -16.5939 C   0  0  2  0  0  0  0  0  0  0  0  0
   27.7321  -19.7838  -16.2800 N   0  0  0  0  0  0  0  0  0  0  0  0
   26.0795  -21.3620  -15.4896 C   0  0  0  0  0  0  0  0  0  0  0  0
   25.2543  -22.2969  -15.6699 O   0  0  0  0  0  0  0  0  0  0  0  0
   26.0870  -20.7286  -14.2212 N   0  0  0  0  0  0  0  0  0  0  0  0
   25.0680  -21.0420  -13.2611 C   0  0  1  0  0  0  0  0  0  0  0  0
   25.4626  -20.6680  -11.8507 C   0  0  0  0  0  0  0  0  0  0  0  0
   24.4513  -21.0832  -10.8349 C   0  0  0  0  0  0  0  0  0  0  0  0
   24.9546  -20.7359   -9.4865 C   0  0  0  0  0  0  0  0  0  0  0  0
   24.3912  -21.1887   -8.4816 O   0  0  0  0  0  0  0  0  0  0  0  0
   23.8552  -20.2391  -13.5887 C   0  0  0  0  0  0  0  0  0  0  0  0
   23.9923  -19.0578  -14.0024 O   0  0  0  0  0  0  0  0  0  0  0  0
   26.0492  -19.9094   -9.3488 O   0  0  0  0  0  0  0  0  0  0  0  0
   20.7361  -17.8427  -15.8101 N   0  0  0  0  0  0  0  0  0  0  0  0
   21.1878  -19.0528  -16.3742 C   0  0  0  0  0  0  0  0  0  0  0  0
   21.2630  -19.1290  -17.6184 O   0  0  0  0  0  0  0  0  0  0  0  0
   21.5532  -20.1739  -15.5282 C   0  0  0  0  0  0  0  0  0  0  0  0
   21.4183  -20.0085  -14.0585 C   0  0  2  0  0  0  0  0  0  0  0  0
   22.5502  -20.7209  -13.4642 N   0  0  0  0  0  0  0  0  0  0  0  0
   20.1938  -20.5047  -13.4425 C   0  0  0  0  0  0  0  0  0  0  0  0
   19.8964  -21.8456  -13.3678 O   0  0  0  0  0  0  0  0  0  0  0  0
   19.3270  -19.7142  -12.9372 O   0  0  0  0  0  0  0  0  0  0  0  0
  2  1  1  6
  2  3  1  0
  4  6  1  0
  4  2  1  0
  4  5  1  1
  6  7  2  0
  8  9  1  0
  8  6  1  0
  9 14  1  0
 10 11  1  0
  9 10  1  1
 12 11  1  0
 13 12  2  0
 14 22  1  0
 14 15  2  0
 16 12  1  0
 18 17  1  0
 18 20  1  0
 19 18  2  0
 21 20  1  6
 21 23  1  0
 22 21  1  0
 23 25  2  0
 23 24  1  0
M  END
$$$$
