TEN.pdb
     RDKit          3D

 25 24  0  0  1  0  0  0  0  0999 V2000
   21.0063   -6.8561  -10.8681 C   0  0  0  0  0  0  0  0  0  0  0  0
   21.2428   -6.2342  -12.2345 C   0  0  1  0  0  0  0  0  0  0  0  0
   22.5871   -5.8843  -12.3943 O   0  0  0  0  0  0  0  0  0  0  0  0
   20.8551   -7.1782  -13.3386 C   0  0  2  0  0  0  0  0  0  0  0  0
   21.2062   -6.7014  -14.6415 N   0  0  0  0  0  0  0  0  0  0  0  0
   19.3985   -7.4527  -13.2224 C   0  0  0  0  0  0  0  0  0  0  0  0
   18.5714   -6.6197  -13.6799 O   0  0  0  0  0  0  0  0  0  0  0  0
   18.8818   -8.6238  -12.6128 N   0  0  0  0  0  0  0  0  0  0  0  0
   17.4694   -8.8751  -12.6335 C   0  0  1  0  0  0  0  0  0  0  0  0
   17.1394  -10.3168  -12.9460 C   0  0  0  0  0  0  0  0  0  0  0  0
   17.4009  -10.6772  -14.3704 C   0  0  0  0  0  0  0  0  0  0  0  0
   17.0022  -12.0860  -14.5901 C   0  0  0  0  0  0  0  0  0  0  0  0
   15.8302  -12.3576  -14.8818 O   0  0  0  0  0  0  0  0  0  0  0  0
   16.9265   -8.6018  -11.2722 C   0  0  0  0  0  0  0  0  0  0  0  0
   17.5889   -8.9582  -10.2624 O   0  0  0  0  0  0  0  0  0  0  0  0
   17.9337  -13.0950  -14.4704 O   0  0  0  0  0  0  0  0  0  0  0  0
   15.5247   -6.2694   -6.7938 N   0  0  0  0  0  0  0  0  0  0  0  0
   14.9864   -5.8928   -8.0408 C   0  0  0  0  0  0  0  0  0  0  0  0
   14.0158   -5.1071   -8.0484 O   0  0  0  0  0  0  0  0  0  0  0  0
   15.5481   -6.4068   -9.2762 C   0  0  0  0  0  0  0  0  0  0  0  0
   15.1886   -7.7899   -9.6806 C   0  0  2  0  0  0  0  0  0  0  0  0
   15.7065   -7.9633  -11.0384 N   0  0  0  0  0  0  0  0  0  0  0  0
   13.7723   -8.1351   -9.6858 C   0  0  0  0  0  0  0  0  0  0  0  0
   13.0764   -8.3775  -10.8472 O   0  0  0  0  0  0  0  0  0  0  0  0
   13.0993   -8.2301   -8.6044 O   0  0  0  0  0  0  0  0  0  0  0  0
  2  1  1  1
  2  3  1  0
  4  6  1  0
  4  2  1  0
  4  5  1  6
  6  7  2  0
  8  9  1  0
  8  6  1  0
  9 14  1  0
 10 11  1  0
  9 10  1  1
 12 11  1  0
 13 12  2  0
 14 22  1  0
 14 15  2  0
 16 12  1  0
 18 17  1  0
 18 20  1  0
 19 18  2  0
 21 20  1  6
 21 23  1  0
 22 21  1  0
 23 25  2  0
 23 24  1  0
M  END
$$$$
