TEN.pdb
     RDKit          3D

 25 24  0  0  1  0  0  0  0  0999 V2000
   14.5804   -5.4622   -7.9210 C   0  0  0  0  0  0  0  0  0  0  0  0
   15.5909   -5.8991   -8.9686 C   0  0  1  0  0  0  0  0  0  0  0  0
   16.8173   -6.2125   -8.3745 O   0  0  0  0  0  0  0  0  0  0  0  0
   15.1030   -7.0997   -9.7309 C   0  0  2  0  0  0  0  0  0  0  0  0
   14.9997   -8.2786   -8.9261 N   0  0  0  0  0  0  0  0  0  0  0  0
   16.0005   -7.3022  -10.8988 C   0  0  0  0  0  0  0  0  0  0  0  0
   16.7032   -8.3457  -10.9680 O   0  0  0  0  0  0  0  0  0  0  0  0
   16.1092   -6.3661  -11.9580 N   0  0  0  0  0  0  0  0  0  0  0  0
   16.8455   -6.7091  -13.1406 C   0  0  1  0  0  0  0  0  0  0  0  0
   16.1554   -6.2572  -14.4073 C   0  0  0  0  0  0  0  0  0  0  0  0
   14.9618   -7.0864  -14.7463 C   0  0  0  0  0  0  0  0  0  0  0  0
   14.0512   -6.2904  -15.6002 C   0  0  0  0  0  0  0  0  0  0  0  0
   14.3673   -6.0349  -16.7695 O   0  0  0  0  0  0  0  0  0  0  0  0
   18.1564   -6.0004  -13.0965 C   0  0  0  0  0  0  0  0  0  0  0  0
   18.2546   -4.9280  -12.4441 O   0  0  0  0  0  0  0  0  0  0  0  0
   12.8526   -5.8339  -15.0953 O   0  0  0  0  0  0  0  0  0  0  0  0
   21.2413   -6.9889  -11.0932 N   0  0  0  0  0  0  0  0  0  0  0  0
   21.8600   -7.4643  -12.2670 C   0  0  0  0  0  0  0  0  0  0  0  0
   22.6111   -8.4577  -12.1741 O   0  0  0  0  0  0  0  0  0  0  0  0
   21.6270   -6.8139  -13.5432 C   0  0  0  0  0  0  0  0  0  0  0  0
   20.5845   -5.7580  -13.6049 C   0  0  2  0  0  0  0  0  0  0  0  0
   19.3063   -6.4572  -13.7444 N   0  0  0  0  0  0  0  0  0  0  0  0
   20.6891   -4.7813  -14.6821 C   0  0  0  0  0  0  0  0  0  0  0  0
   21.3779   -3.5990  -14.5416 O   0  0  0  0  0  0  0  0  0  0  0  0
   20.1420   -4.9741  -15.8201 O   0  0  0  0  0  0  0  0  0  0  0  0
  2  1  1  1
  2  3  1  0
  4  6  1  0
  4  2  1  0
  4  5  1  1
  6  7  2  0
  8  9  1  0
  8  6  1  0
  9 14  1  0
 10 11  1  0
  9 10  1  6
 12 11  1  0
 13 12  2  0
 14 22  1  0
 14 15  2  0
 16 12  1  0
 18 17  1  0
 18 20  1  0
 19 18  2  0
 21 20  1  6
 21 23  1  0
 22 21  1  0
 23 25  2  0
 23 24  1  0
M  END
$$$$
