TEN.pdb
     RDKit          3D

 25 24  0  0  1  0  0  0  0  0999 V2000
   15.4355   -5.4245   -8.5230 C   0  0  0  0  0  0  0  0  0  0  0  0
   14.8437   -6.5186   -7.6498 C   0  0  1  0  0  0  0  0  0  0  0  0
   13.8375   -6.0055   -6.8255 O   0  0  0  0  0  0  0  0  0  0  0  0
   14.2661   -7.6293   -8.4824 C   0  0  2  0  0  0  0  0  0  0  0  0
   13.6734   -8.6729   -7.7027 N   0  0  0  0  0  0  0  0  0  0  0  0
   15.3382   -8.1441   -9.3746 C   0  0  0  0  0  0  0  0  0  0  0  0
   16.1529   -8.9995   -8.9364 O   0  0  0  0  0  0  0  0  0  0  0  0
   15.4950   -7.7156  -10.7169 N   0  0  0  0  0  0  0  0  0  0  0  0
   16.4085   -8.4034  -11.5834 C   0  0  1  0  0  0  0  0  0  0  0  0
   15.7451   -8.9106  -12.8435 C   0  0  0  0  0  0  0  0  0  0  0  0
   14.9383  -10.1457  -12.6187 C   0  0  0  0  0  0  0  0  0  0  0  0
   14.3630  -10.5849  -13.9103 C   0  0  0  0  0  0  0  0  0  0  0  0
   14.9366  -11.4557  -14.5774 O   0  0  0  0  0  0  0  0  0  0  0  0
   17.4581   -7.4374  -12.0166 C   0  0  0  0  0  0  0  0  0  0  0  0
   17.1558   -6.2238  -12.1613 O   0  0  0  0  0  0  0  0  0  0  0  0
   13.1902  -10.0258  -14.3706 O   0  0  0  0  0  0  0  0  0  0  0  0
   22.0851   -5.4593  -13.7403 N   0  0  0  0  0  0  0  0  0  0  0  0
   22.2052   -6.8023  -13.3299 C   0  0  0  0  0  0  0  0  0  0  0  0
   23.3152   -7.3594  -13.4603 O   0  0  0  0  0  0  0  0  0  0  0  0
   21.0682   -7.5115  -12.7728 C   0  0  0  0  0  0  0  0  0  0  0  0
   19.7577   -6.8132  -12.7482 C   0  0  2  0  0  0  0  0  0  0  0  0
   18.7820   -7.7976  -12.2779 N   0  0  0  0  0  0  0  0  0  0  0  0
   19.2749   -6.2591  -14.0071 C   0  0  0  0  0  0  0  0  0  0  0  0
   18.6875   -7.0363  -14.9782 O   0  0  0  0  0  0  0  0  0  0  0  0
   19.3738   -5.0143  -14.2759 O   0  0  0  0  0  0  0  0  0  0  0  0
  2  1  1  6
  2  3  1  0
  4  6  1  0
  4  2  1  0
  4  5  1  1
  6  7  2  0
  8  9  1  0
  8  6  1  0
  9 14  1  0
 10 11  1  0
  9 10  1  6
 12 11  1  0
 13 12  2  0
 14 22  1  0
 14 15  2  0
 16 12  1  0
 18 17  1  0
 18 20  1  0
 19 18  2  0
 21 20  1  6
 21 23  1  0
 22 21  1  0
 23 25  2  0
 23 24  1  0
M  END
$$$$
