TEN.pdb
     RDKit          3D

 25 24  0  0  1  0  0  0  0  0999 V2000
   11.8068  -10.5637  -10.3357 C   0  0  0  0  0  0  0  0  0  0  0  0
   12.2498  -12.0004  -10.1138 C   0  0  1  0  0  0  0  0  0  0  0  0
   11.2143  -12.8908  -10.4144 O   0  0  0  0  0  0  0  0  0  0  0  0
   13.4420  -12.3419  -10.9638 C   0  0  2  0  0  0  0  0  0  0  0  0
   13.8444  -13.7107  -10.8522 N   0  0  0  0  0  0  0  0  0  0  0  0
   14.5444  -11.4090  -10.6104 C   0  0  0  0  0  0  0  0  0  0  0  0
   15.1773  -11.5755   -9.5337 O   0  0  0  0  0  0  0  0  0  0  0  0
   14.9282  -10.3223  -11.4361 N   0  0  0  0  0  0  0  0  0  0  0  0
   16.0077   -9.4670  -11.0339 C   0  0  1  0  0  0  0  0  0  0  0  0
   16.9979   -9.2166  -12.1482 C   0  0  0  0  0  0  0  0  0  0  0  0
   18.1509   -8.3705  -11.7218 C   0  0  0  0  0  0  0  0  0  0  0  0
   18.9592   -8.0250  -12.9131 C   0  0  0  0  0  0  0  0  0  0  0  0
   19.5034   -6.9158  -12.9894 O   0  0  0  0  0  0  0  0  0  0  0  0
   15.4389   -8.1389  -10.6663 C   0  0  0  0  0  0  0  0  0  0  0  0
   14.5271   -7.6414  -11.3780 O   0  0  0  0  0  0  0  0  0  0  0  0
   19.1066   -8.9364  -13.9367 O   0  0  0  0  0  0  0  0  0  0  0  0
   14.0611   -3.9247   -7.7722 N   0  0  0  0  0  0  0  0  0  0  0  0
   14.1249   -5.1789   -7.1323 C   0  0  0  0  0  0  0  0  0  0  0  0
   13.6472   -5.2767   -5.9826 O   0  0  0  0  0  0  0  0  0  0  0  0
   14.7295   -6.3194   -7.7954 C   0  0  0  0  0  0  0  0  0  0  0  0
   15.1978   -6.1424   -9.1936 C   0  0  2  0  0  0  0  0  0  0  0  0
   15.8596   -7.3949   -9.5616 N   0  0  0  0  0  0  0  0  0  0  0  0
   16.1227   -5.0457   -9.4521 C   0  0  0  0  0  0  0  0  0  0  0  0
   17.4045   -5.2530   -9.9061 O   0  0  0  0  0  0  0  0  0  0  0  0
   15.7885   -3.8266   -9.2682 O   0  0  0  0  0  0  0  0  0  0  0  0
  2  1  1  6
  2  3  1  0
  4  6  1  0
  4  2  1  0
  4  5  1  1
  6  7  2  0
  8  9  1  0
  8  6  1  0
  9 14  1  0
 10 11  1  0
  9 10  1  6
 12 11  1  0
 13 12  2  0
 14 22  1  0
 14 15  2  0
 16 12  1  0
 18 17  1  0
 18 20  1  0
 19 18  2  0
 21 20  1  1
 21 23  1  0
 22 21  1  0
 23 25  2  0
 23 24  1  0
M  END
$$$$
