TEN.pdb
     RDKit          3D

 25 24  0  0  1  0  0  0  0  0999 V2000
   21.7624  -14.2939  -19.1847 C   0  0  0  0  0  0  0  0  0  0  0  0
   20.7286  -13.2621  -18.7648 C   0  0  1  0  0  0  0  0  0  0  0  0
   19.7692  -13.8349  -17.9242 O   0  0  0  0  0  0  0  0  0  0  0  0
   21.3701  -12.1065  -18.0482 C   0  0  2  0  0  0  0  0  0  0  0  0
   22.0474  -12.4897  -16.8471 N   0  0  0  0  0  0  0  0  0  0  0  0
   20.3231  -11.0824  -17.7920 C   0  0  0  0  0  0  0  0  0  0  0  0
   19.7449  -10.5289  -18.7650 O   0  0  0  0  0  0  0  0  0  0  0  0
   19.9338  -10.6888  -16.4868 N   0  0  0  0  0  0  0  0  0  0  0  0
   19.0074   -9.6070  -16.3142 C   0  0  1  0  0  0  0  0  0  0  0  0
   17.6790  -10.0621  -15.7548 C   0  0  0  0  0  0  0  0  0  0  0  0
   17.7263  -11.4459  -15.1981 C   0  0  0  0  0  0  0  0  0  0  0  0
   16.3921  -11.7918  -14.6576 C   0  0  0  0  0  0  0  0  0  0  0  0
   15.4080  -11.1019  -14.9542 O   0  0  0  0  0  0  0  0  0  0  0  0
   19.5814   -8.6547  -15.3211 C   0  0  0  0  0  0  0  0  0  0  0  0
   20.3885   -9.0817  -14.4541 O   0  0  0  0  0  0  0  0  0  0  0  0
   16.2443  -12.8804  -13.8250 O   0  0  0  0  0  0  0  0  0  0  0  0
   21.9483   -4.6106  -13.2485 N   0  0  0  0  0  0  0  0  0  0  0  0
   22.3687   -5.5146  -14.2448 C   0  0  0  0  0  0  0  0  0  0  0  0
   23.5680   -5.4902  -14.5917 O   0  0  0  0  0  0  0  0  0  0  0  0
   21.4302   -6.4439  -14.8460 C   0  0  0  0  0  0  0  0  0  0  0  0
   20.0097   -6.3709  -14.4189 C   0  0  2  0  0  0  0  0  0  0  0  0
   19.2765   -7.2921  -15.2885 N   0  0  0  0  0  0  0  0  0  0  0  0
   19.3605   -5.0674  -14.4861 C   0  0  0  0  0  0  0  0  0  0  0  0
   18.8312   -4.5660  -15.6524 O   0  0  0  0  0  0  0  0  0  0  0  0
   19.2495   -4.3177  -13.4579 O   0  0  0  0  0  0  0  0  0  0  0  0
  2  1  1  1
  2  3  1  0
  4  6  1  0
  4  2  1  0
  4  5  1  1
  6  7  2  0
  8  9  1  0
  8  6  1  0
  9 14  1  0
 10 11  1  0
  9 10  1  1
 12 11  1  0
 13 12  2  0
 14 22  1  0
 14 15  2  0
 16 12  1  0
 18 17  1  0
 18 20  1  0
 19 18  2  0
 21 20  1  6
 21 23  1  0
 22 21  1  0
 23 25  2  0
 23 24  1  0
M  END
$$$$
