TEN.pdb
     RDKit          3D

 25 24  0  0  1  0  0  0  0  0999 V2000
   24.5367  -11.5538  -18.7304 C   0  0  0  0  0  0  0  0  0  0  0  0
   23.7108  -12.5655  -17.9533 C   0  0  1  0  0  0  0  0  0  0  0  0
   24.3945  -13.7797  -17.8373 O   0  0  0  0  0  0  0  0  0  0  0  0
   23.3852  -12.0612  -16.5748 C   0  0  2  0  0  0  0  0  0  0  0  0
   22.9609  -13.0936  -15.6790 N   0  0  0  0  0  0  0  0  0  0  0  0
   22.3666  -10.9860  -16.7042 C   0  0  0  0  0  0  0  0  0  0  0  0
   22.5719  -10.0287  -17.4972 O   0  0  0  0  0  0  0  0  0  0  0  0
   21.1543  -10.9810  -15.9691 N   0  0  0  0  0  0  0  0  0  0  0  0
   20.2148   -9.9117  -16.1496 C   0  0  1  0  0  0  0  0  0  0  0  0
   18.8312  -10.2627  -15.6522 C   0  0  0  0  0  0  0  0  0  0  0  0
   18.1501  -11.2835  -16.5014 C   0  0  0  0  0  0  0  0  0  0  0  0
   16.8427  -11.6191  -15.8930 C   0  0  0  0  0  0  0  0  0  0  0  0
   16.7051  -12.6810  -15.2720 O   0  0  0  0  0  0  0  0  0  0  0  0
   20.6728   -8.7463  -15.3405 C   0  0  0  0  0  0  0  0  0  0  0  0
   21.1557   -8.9442  -14.1946 O   0  0  0  0  0  0  0  0  0  0  0  0
   15.7792  -10.7510  -16.0173 O   0  0  0  0  0  0  0  0  0  0  0  0
   22.2490   -3.8931  -13.9638 N   0  0  0  0  0  0  0  0  0  0  0  0
   22.7742   -4.4776  -15.1339 C   0  0  0  0  0  0  0  0  0  0  0  0
   23.7459   -3.9187  -15.6844 O   0  0  0  0  0  0  0  0  0  0  0  0
   22.1981   -5.6933  -15.6780 C   0  0  0  0  0  0  0  0  0  0  0  0
   21.0704   -6.3183  -14.9409 C   0  0  2  0  0  0  0  0  0  0  0  0
   20.6000   -7.4223  -15.7789 N   0  0  0  0  0  0  0  0  0  0  0  0
   19.9291   -5.4682  -14.6249 C   0  0  0  0  0  0  0  0  0  0  0  0
   19.8910   -4.6708  -13.5048 O   0  0  0  0  0  0  0  0  0  0  0  0
   18.8977   -5.4202  -15.3768 O   0  0  0  0  0  0  0  0  0  0  0  0
  2  1  1  1
  2  3  1  0
  4  6  1  0
  4  2  1  0
  4  5  1  1
  6  7  2  0
  8  9  1  0
  8  6  1  0
  9 14  1  0
 10 11  1  0
  9 10  1  1
 12 11  1  0
 13 12  2  0
 14 22  1  0
 14 15  2  0
 16 12  1  0
 18 17  1  0
 18 20  1  0
 19 18  2  0
 21 20  1  6
 21 23  1  0
 22 21  1  0
 23 25  2  0
 23 24  1  0
M  END
$$$$
