TEN.pdb
     RDKit          3D

 25 24  0  0  1  0  0  0  0  0999 V2000
   15.5941   -6.1480   -8.3789 C   0  0  0  0  0  0  0  0  0  0  0  0
   14.5403   -7.1203   -7.8751 C   0  0  1  0  0  0  0  0  0  0  0  0
   13.4920   -6.4365   -7.2517 O   0  0  0  0  0  0  0  0  0  0  0  0
   13.9774   -7.9460   -8.9985 C   0  0  2  0  0  0  0  0  0  0  0  0
   12.9510   -8.8505   -8.5782 N   0  0  0  0  0  0  0  0  0  0  0  0
   15.1040   -8.6547   -9.6611 C   0  0  0  0  0  0  0  0  0  0  0  0
   15.1677   -9.9116   -9.6013 O   0  0  0  0  0  0  0  0  0  0  0  0
   16.1290   -7.9785  -10.3697 N   0  0  0  0  0  0  0  0  0  0  0  0
   16.6663   -8.5539  -11.5692 C   0  0  1  0  0  0  0  0  0  0  0  0
   15.5963   -8.8936  -12.5815 C   0  0  0  0  0  0  0  0  0  0  0  0
   16.1532   -9.4297  -13.8580 C   0  0  0  0  0  0  0  0  0  0  0  0
   15.0333   -9.7764  -14.7622 C   0  0  0  0  0  0  0  0  0  0  0  0
   15.0637  -10.8337  -15.4053 O   0  0  0  0  0  0  0  0  0  0  0  0
   17.5543   -7.5448  -12.2139 C   0  0  0  0  0  0  0  0  0  0  0  0
   17.0666   -6.4466  -12.5902 O   0  0  0  0  0  0  0  0  0  0  0  0
   13.9576   -8.9239  -14.8888 O   0  0  0  0  0  0  0  0  0  0  0  0
   21.9606   -4.9629  -13.6807 N   0  0  0  0  0  0  0  0  0  0  0  0
   22.2427   -6.1816  -13.0313 C   0  0  0  0  0  0  0  0  0  0  0  0
   23.4365   -6.4536  -12.7855 O   0  0  0  0  0  0  0  0  0  0  0  0
   21.1727   -7.0896  -12.6618 C   0  0  0  0  0  0  0  0  0  0  0  0
   19.7750   -6.6564  -12.9155 C   0  0  2  0  0  0  0  0  0  0  0  0
   18.9197   -7.7414  -12.4324 N   0  0  0  0  0  0  0  0  0  0  0  0
   19.4078   -6.3675  -14.2964 C   0  0  0  0  0  0  0  0  0  0  0  0
   19.5281   -5.1117  -14.8445 O   0  0  0  0  0  0  0  0  0  0  0  0
   18.9515   -7.2722  -15.0742 O   0  0  0  0  0  0  0  0  0  0  0  0
  2  1  1  6
  2  3  1  0
  4  6  1  0
  4  2  1  0
  4  5  1  1
  6  7  2  0
  8  9  1  0
  8  6  1  0
  9 14  1  0
 10 11  1  0
  9 10  1  6
 12 11  1  0
 13 12  2  0
 14 22  1  0
 14 15  2  0
 16 12  1  0
 18 17  1  0
 18 20  1  0
 19 18  2  0
 21 20  1  6
 21 23  1  0
 22 21  1  0
 23 25  2  0
 23 24  1  0
M  END
$$$$
