TEN.pdb
     RDKit          3D

 25 24  0  0  1  0  0  0  0  0999 V2000
   14.1800  -12.2257  -17.1805 C   0  0  0  0  0  0  0  0  0  0  0  0
   14.5343  -13.6312  -16.7235 C   0  0  1  0  0  0  0  0  0  0  0  0
   13.8046  -14.5846  -17.4404 O   0  0  0  0  0  0  0  0  0  0  0  0
   16.0007  -13.9106  -16.9031 C   0  0  2  0  0  0  0  0  0  0  0  0
   16.3696  -15.2489  -16.5551 N   0  0  0  0  0  0  0  0  0  0  0  0
   16.7629  -12.9033  -16.1188 C   0  0  0  0  0  0  0  0  0  0  0  0
   16.8693  -13.0394  -14.8708 O   0  0  0  0  0  0  0  0  0  0  0  0
   17.3877  -11.7774  -16.7121 N   0  0  0  0  0  0  0  0  0  0  0  0
   18.1595  -10.8801  -15.9012 C   0  0  1  0  0  0  0  0  0  0  0  0
   19.6361  -10.9312  -16.2207 C   0  0  0  0  0  0  0  0  0  0  0  0
   19.9370  -11.7164  -17.4535 C   0  0  0  0  0  0  0  0  0  0  0  0
   21.3854  -11.6172  -17.7443 C   0  0  0  0  0  0  0  0  0  0  0  0
   22.0759  -12.6432  -17.7985 O   0  0  0  0  0  0  0  0  0  0  0  0
   17.7117   -9.4876  -16.1897 C   0  0  0  0  0  0  0  0  0  0  0  0
   17.4163   -9.1684  -17.3713 O   0  0  0  0  0  0  0  0  0  0  0  0
   21.9655  -10.3846  -17.9545 O   0  0  0  0  0  0  0  0  0  0  0  0
   14.2819   -7.5959  -15.7336 N   0  0  0  0  0  0  0  0  0  0  0  0
   14.7988   -6.9892  -14.5711 C   0  0  0  0  0  0  0  0  0  0  0  0
   13.9966   -6.6696  -13.6690 O   0  0  0  0  0  0  0  0  0  0  0  0
   16.2227   -6.7457  -14.4328 C   0  0  0  0  0  0  0  0  0  0  0  0
   17.1096   -7.1546  -15.5516 C   0  0  2  0  0  0  0  0  0  0  0  0
   17.5959   -8.4936  -15.2155 N   0  0  0  0  0  0  0  0  0  0  0  0
   18.2631   -6.3079  -15.8302 C   0  0  0  0  0  0  0  0  0  0  0  0
   18.2186   -5.2759  -16.7385 O   0  0  0  0  0  0  0  0  0  0  0  0
   19.3833   -6.4825  -15.2417 O   0  0  0  0  0  0  0  0  0  0  0  0
  2  1  1  6
  2  3  1  0
  4  6  1  0
  4  2  1  0
  4  5  1  1
  6  7  2  0
  8  9  1  0
  8  6  1  0
  9 14  1  0
 10 11  1  0
  9 10  1  6
 12 11  1  0
 13 12  2  0
 14 22  1  0
 14 15  2  0
 16 12  1  0
 18 17  1  0
 18 20  1  0
 19 18  2  0
 21 20  1  1
 21 23  1  0
 22 21  1  0
 23 25  2  0
 23 24  1  0
M  END
$$$$
