STT.pdb
     RDKit          3D

 21 20  0  0  1  0  0  0  0  0999 V2000
   20.5751  -12.2439  -20.3284 O   0  0  0  0  0  0  0  0  0  0  0  0
   20.8646  -11.8701  -19.0298 C   0  0  0  0  0  0  0  0  0  0  0  0
   22.1683  -12.4511  -18.5251 C   0  0  2  0  0  0  0  0  0  0  0  0
   22.0355  -13.8727  -18.4497 N   0  0  0  0  0  0  0  0  0  0  0  0
   22.5616  -11.8681  -17.2202 C   0  0  0  0  0  0  0  0  0  0  0  0
   22.3657  -12.4561  -16.1330 O   0  0  0  0  0  0  0  0  0  0  0  0
   25.7464   -9.1046  -14.8916 C   0  0  0  0  0  0  0  0  0  0  0  0
   25.2035   -9.9933  -15.9765 C   0  0  1  0  0  0  0  0  0  0  0  0
   25.6173  -11.2969  -15.8606 O   0  0  0  0  0  0  0  0  0  0  0  0
   23.6723   -9.9502  -16.0129 C   0  0  2  0  0  0  0  0  0  0  0  0
   23.1846  -10.5903  -17.2204 N   0  0  0  0  0  0  0  0  0  0  0  0
   23.2373   -8.5297  -16.0710 C   0  0  0  0  0  0  0  0  0  0  0  0
   23.4537   -7.8354  -17.0947 O   0  0  0  0  0  0  0  0  0  0  0  0
   20.1743   -7.1379  -16.4525 C   0  0  0  0  0  0  0  0  0  0  0  0
   20.6334   -6.3850  -15.2201 C   0  0  1  0  0  0  0  0  0  0  0  0
   20.0741   -7.0478  -14.1243 O   0  0  0  0  0  0  0  0  0  0  0  0
   22.1241   -6.5460  -15.1168 C   0  0  2  0  0  0  0  0  0  0  0  0
   22.5685   -7.8869  -15.0022 N   0  0  0  0  0  0  0  0  0  0  0  0
   22.6599   -5.7041  -13.9903 C   0  0  0  0  0  0  0  0  0  0  0  0
   22.5878   -4.3235  -13.9892 O   0  0  0  0  0  0  0  0  0  0  0  0
   23.1955   -6.2729  -13.0082 O   0  0  0  0  0  0  0  0  0  0  0  0
  2  1  1  0
  3  2  1  0
  3  4  1  1
  5 11  1  0
  5  3  1  0
  6  5  2  0
  8  7  1  1
  9  8  1  0
 10 12  1  0
 10  8  1  0
 10 11  1  6
 12 18  1  0
 13 12  2  0
 15 14  1  6
 15 16  1  0
 17 15  1  0
 17 18  1  1
 19 20  1  0
 19 17  1  0
 21 19  2  0
M  END
$$$$
