STT.pdb
     RDKit          3D

 21 20  0  0  1  0  0  0  0  0999 V2000
   18.1441  -13.6711  -15.3454 O   0  0  0  0  0  0  0  0  0  0  0  0
   18.0751  -12.3116  -15.5835 C   0  0  0  0  0  0  0  0  0  0  0  0
   16.9162  -11.6460  -14.8723 C   0  0  2  0  0  0  0  0  0  0  0  0
   15.6951  -12.1667  -15.4035 N   0  0  0  0  0  0  0  0  0  0  0  0
   16.9765  -10.1692  -14.9855 C   0  0  0  0  0  0  0  0  0  0  0  0
   16.4529   -9.5441  -15.9348 O   0  0  0  0  0  0  0  0  0  0  0  0
   15.5322   -7.5036  -13.2143 C   0  0  0  0  0  0  0  0  0  0  0  0
   16.9998   -7.3335  -12.9338 C   0  0  1  0  0  0  0  0  0  0  0  0
   17.3696   -7.8074  -11.6999 O   0  0  0  0  0  0  0  0  0  0  0  0
   17.8517   -8.0114  -14.0120 C   0  0  2  0  0  0  0  0  0  0  0  0
   17.6596   -9.4490  -13.9677 N   0  0  0  0  0  0  0  0  0  0  0  0
   19.2861   -7.7578  -13.7147 C   0  0  0  0  0  0  0  0  0  0  0  0
   20.0670   -8.7101  -13.4693 O   0  0  0  0  0  0  0  0  0  0  0  0
   21.6445   -6.2270  -16.0015 C   0  0  0  0  0  0  0  0  0  0  0  0
   22.0433   -6.9023  -14.7048 C   0  0  1  0  0  0  0  0  0  0  0  0
   23.3835   -6.5725  -14.4865 O   0  0  0  0  0  0  0  0  0  0  0  0
   21.2488   -6.2682  -13.5978 C   0  0  2  0  0  0  0  0  0  0  0  0
   19.8476   -6.4588  -13.6902 N   0  0  0  0  0  0  0  0  0  0  0  0
   21.5863   -4.8055  -13.4895 C   0  0  0  0  0  0  0  0  0  0  0  0
   22.8339   -4.3528  -13.1025 O   0  0  0  0  0  0  0  0  0  0  0  0
   20.7027   -3.9564  -13.7604 O   0  0  0  0  0  0  0  0  0  0  0  0
  2  1  1  0
  3  2  1  0
  3  4  1  6
  5 11  1  0
  5  3  1  0
  6  5  2  0
  8  7  1  6
  9  8  1  0
 10 12  1  0
 10  8  1  0
 10 11  1  1
 12 18  1  0
 13 12  2  0
 15 14  1  6
 15 16  1  0
 17 15  1  0
 17 18  1  6
 19 20  1  0
 19 17  1  0
 21 19  2  0
M  END
$$$$
