STT.pdb
     RDKit          3D

 21 20  0  0  1  0  0  0  0  0999 V2000
   18.1732   -9.9376  -18.3733 O   0  0  0  0  0  0  0  0  0  0  0  0
   18.2827   -9.0267  -17.3399 C   0  0  0  0  0  0  0  0  0  0  0  0
   19.2350   -9.4787  -16.2532 C   0  0  2  0  0  0  0  0  0  0  0  0
   18.7484  -10.7044  -15.7008 N   0  0  0  0  0  0  0  0  0  0  0  0
   19.4118   -8.4403  -15.2101 C   0  0  0  0  0  0  0  0  0  0  0  0
   18.7915   -8.4643  -14.1235 O   0  0  0  0  0  0  0  0  0  0  0  0
   22.2978   -5.0809  -13.2282 C   0  0  0  0  0  0  0  0  0  0  0  0
   21.9657   -6.3351  -13.9886 C   0  0  1  0  0  0  0  0  0  0  0  0
   22.1156   -7.4744  -13.2379 O   0  0  0  0  0  0  0  0  0  0  0  0
   20.5402   -6.2821  -14.5481 C   0  0  2  0  0  0  0  0  0  0  0  0
   20.3255   -7.3825  -15.4693 N   0  0  0  0  0  0  0  0  0  0  0  0
   20.3819   -5.0272  -15.3296 C   0  0  0  0  0  0  0  0  0  0  0  0
   21.0420   -4.8406  -16.3814 O   0  0  0  0  0  0  0  0  0  0  0  0
   18.0721   -0.9452  -16.5776 C   0  0  0  0  0  0  0  0  0  0  0  0
   18.0680   -2.0972  -15.5930 C   0  0  1  0  0  0  0  0  0  0  0  0
   17.0905   -2.9908  -16.0386 O   0  0  0  0  0  0  0  0  0  0  0  0
   19.3914   -2.8002  -15.7088 C   0  0  2  0  0  0  0  0  0  0  0  0
   19.4987   -3.9899  -14.9463 N   0  0  0  0  0  0  0  0  0  0  0  0
   20.5131   -1.8507  -15.3842 C   0  0  0  0  0  0  0  0  0  0  0  0
   21.2594   -1.2144  -16.3586 O   0  0  0  0  0  0  0  0  0  0  0  0
   20.7872   -1.6228  -14.1809 O   0  0  0  0  0  0  0  0  0  0  0  0
  2  1  1  0
  3  2  1  0
  3  4  1  1
  5 11  1  0
  5  3  1  0
  6  5  2  0
  8  7  1  1
  9  8  1  0
 10 12  1  0
 10  8  1  0
 10 11  1  6
 12 18  1  0
 13 12  2  0
 15 14  1  6
 15 16  1  0
 17 15  1  0
 17 18  1  1
 19 20  1  0
 19 17  1  0
 21 19  2  0
M  END
$$$$
