STT.pdb
     RDKit          3D

 21 20  0  0  1  0  0  0  0  0999 V2000
   17.3291  -12.8663  -17.2461 O   0  0  0  0  0  0  0  0  0  0  0  0
   18.0718  -12.2067  -16.2853 C   0  0  0  0  0  0  0  0  0  0  0  0
   18.2445  -10.7322  -16.5822 C   0  0  2  0  0  0  0  0  0  0  0  0
   18.9783  -10.5952  -17.8018 N   0  0  0  0  0  0  0  0  0  0  0  0
   18.9054  -10.0196  -15.4629 C   0  0  0  0  0  0  0  0  0  0  0  0
   18.4858  -10.0783  -14.2854 O   0  0  0  0  0  0  0  0  0  0  0  0
   22.3829  -10.5157  -14.2584 C   0  0  0  0  0  0  0  0  0  0  0  0
   22.2942   -9.1046  -14.7705 C   0  0  1  0  0  0  0  0  0  0  0  0
   22.7892   -8.9624  -16.0429 O   0  0  0  0  0  0  0  0  0  0  0  0
   20.8515   -8.5902  -14.7288 C   0  0  2  0  0  0  0  0  0  0  0  0
   20.0600   -9.2432  -15.7548 N   0  0  0  0  0  0  0  0  0  0  0  0
   20.8547   -7.1374  -15.0450 C   0  0  0  0  0  0  0  0  0  0  0  0
   20.6659   -6.7377  -16.2203 O   0  0  0  0  0  0  0  0  0  0  0  0
   20.1297   -2.5369  -14.4317 C   0  0  0  0  0  0  0  0  0  0  0  0
   19.8793   -3.9845  -14.0597 C   0  0  1  0  0  0  0  0  0  0  0  0
   18.8549   -4.4334  -14.8974 O   0  0  0  0  0  0  0  0  0  0  0  0
   21.1125   -4.7663  -14.4158 C   0  0  2  0  0  0  0  0  0  0  0  0
   21.0657   -6.1385  -14.0648 N   0  0  0  0  0  0  0  0  0  0  0  0
   22.3324   -4.1039  -13.8342 C   0  0  0  0  0  0  0  0  0  0  0  0
   22.9889   -3.0623  -14.4628 O   0  0  0  0  0  0  0  0  0  0  0  0
   22.7771   -4.5095  -12.7330 O   0  0  0  0  0  0  0  0  0  0  0  0
  2  1  1  0
  3  2  1  0
  3  4  1  6
  5 11  1  0
  5  3  1  0
  6  5  2  0
  8  7  1  6
  9  8  1  0
 10 12  1  0
 10  8  1  0
 10 11  1  6
 12 18  1  0
 13 12  2  0
 15 14  1  6
 15 16  1  0
 17 15  1  0
 17 18  1  1
 19 20  1  0
 19 17  1  0
 21 19  2  0
M  END
$$$$
