STT.pdb
     RDKit          3D

 21 20  0  0  1  0  0  0  0  0999 V2000
   17.3443  -14.3186  -14.7833 O   0  0  0  0  0  0  0  0  0  0  0  0
   17.7953  -13.2292  -15.5041 C   0  0  0  0  0  0  0  0  0  0  0  0
   16.6730  -12.3339  -15.9848 C   0  0  2  0  0  0  0  0  0  0  0  0
   15.8911  -13.0554  -16.9401 N   0  0  0  0  0  0  0  0  0  0  0  0
   17.1865  -11.0619  -16.5466 C   0  0  0  0  0  0  0  0  0  0  0  0
   17.3481  -10.8843  -17.7748 O   0  0  0  0  0  0  0  0  0  0  0  0
   17.1362   -6.3027  -16.1799 C   0  0  0  0  0  0  0  0  0  0  0  0
   16.7010   -7.7331  -16.0188 C   0  0  1  0  0  0  0  0  0  0  0  0
   15.7679   -8.1190  -16.9486 O   0  0  0  0  0  0  0  0  0  0  0  0
   17.8991   -8.6863  -16.0790 C   0  0  2  0  0  0  0  0  0  0  0  0
   17.5032  -10.0121  -15.6417 N   0  0  0  0  0  0  0  0  0  0  0  0
   18.9357   -8.2088  -15.1263 C   0  0  0  0  0  0  0  0  0  0  0  0
   18.7647   -8.3172  -13.8870 O   0  0  0  0  0  0  0  0  0  0  0  0
   22.2229   -9.4271  -14.6892 C   0  0  0  0  0  0  0  0  0  0  0  0
   22.4681   -7.9348  -14.7878 C   0  0  1  0  0  0  0  0  0  0  0  0
   22.8826   -7.6911  -16.0998 O   0  0  0  0  0  0  0  0  0  0  0  0
   21.1458   -7.2431  -14.6091 C   0  0  2  0  0  0  0  0  0  0  0  0
   20.1506   -7.6166  -15.5463 N   0  0  0  0  0  0  0  0  0  0  0  0
   21.3390   -5.7505  -14.5963 C   0  0  0  0  0  0  0  0  0  0  0  0
   22.0172   -5.0932  -13.5867 O   0  0  0  0  0  0  0  0  0  0  0  0
   20.8672   -5.0687  -15.5383 O   0  0  0  0  0  0  0  0  0  0  0  0
  2  1  1  0
  3  2  1  0
  3  4  1  6
  5 11  1  0
  5  3  1  0
  6  5  2  0
  8  7  1  6
  9  8  1  0
 10 12  1  0
 10  8  1  0
 10 11  1  1
 12 18  1  0
 13 12  2  0
 15 14  1  6
 15 16  1  0
 17 15  1  0
 17 18  1  6
 19 20  1  0
 19 17  1  0
 21 19  2  0
M  END
$$$$
