STT.pdb
     RDKit          3D

 21 20  0  0  1  0  0  0  0  0999 V2000
   17.2494  -13.0250  -13.7361 O   0  0  0  0  0  0  0  0  0  0  0  0
   17.7367  -11.9820  -14.5005 C   0  0  0  0  0  0  0  0  0  0  0  0
   16.6548  -11.2670  -15.2817 C   0  0  2  0  0  0  0  0  0  0  0  0
   16.0157  -12.2110  -16.1448 N   0  0  0  0  0  0  0  0  0  0  0  0
   17.1945  -10.1119  -16.0379 C   0  0  0  0  0  0  0  0  0  0  0  0
   17.5846  -10.2055  -17.2233 O   0  0  0  0  0  0  0  0  0  0  0  0
   17.1303   -5.2584  -16.5038 C   0  0  0  0  0  0  0  0  0  0  0  0
   16.6177   -6.5870  -16.0208 C   0  0  1  0  0  0  0  0  0  0  0  0
   15.5470   -7.0461  -16.7467 O   0  0  0  0  0  0  0  0  0  0  0  0
   17.7261   -7.6448  -16.0305 C   0  0  2  0  0  0  0  0  0  0  0  0
   17.2652   -8.8554  -15.3767 N   0  0  0  0  0  0  0  0  0  0  0  0
   18.8763   -7.1365  -15.2372 C   0  0  0  0  0  0  0  0  0  0  0  0
   18.8379   -7.1364  -13.9821 O   0  0  0  0  0  0  0  0  0  0  0  0
   23.5120   -5.8367  -14.6433 C   0  0  0  0  0  0  0  0  0  0  0  0
   22.4919   -6.3415  -15.6438 C   0  0  1  0  0  0  0  0  0  0  0  0
   22.6999   -7.7188  -15.7552 O   0  0  0  0  0  0  0  0  0  0  0  0
   21.1287   -6.1504  -15.0404 C   0  0  2  0  0  0  0  0  0  0  0  0
   20.0574   -6.6331  -15.8326 N   0  0  0  0  0  0  0  0  0  0  0  0
   20.9202   -4.7047  -14.6777 C   0  0  0  0  0  0  0  0  0  0  0  0
   21.1670   -4.2087  -13.4111 O   0  0  0  0  0  0  0  0  0  0  0  0
   20.5052   -3.9115  -15.5571 O   0  0  0  0  0  0  0  0  0  0  0  0
  2  1  1  0
  3  2  1  0
  3  4  1  6
  5 11  1  0
  5  3  1  0
  6  5  2  0
  8  7  1  6
  9  8  1  0
 10 12  1  0
 10  8  1  0
 10 11  1  1
 12 18  1  0
 13 12  2  0
 15 14  1  1
 15 16  1  0
 17 15  1  0
 17 18  1  6
 19 20  1  0
 19 17  1  0
 21 19  2  0
M  END
$$$$
