STT.pdb
     RDKit          3D

 21 20  0  0  1  0  0  0  0  0999 V2000
   14.3435  -10.6617  -15.7352 O   0  0  0  0  0  0  0  0  0  0  0  0
   15.6343  -10.5327  -15.2588 C   0  0  0  0  0  0  0  0  0  0  0  0
   16.5870  -11.5484  -15.8528 C   0  0  2  0  0  0  0  0  0  0  0  0
   16.1583  -12.8566  -15.4664 N   0  0  0  0  0  0  0  0  0  0  0  0
   17.9892  -11.2900  -15.4475 C   0  0  0  0  0  0  0  0  0  0  0  0
   18.5382  -11.8925  -14.4980 O   0  0  0  0  0  0  0  0  0  0  0  0
   21.0982  -11.8530  -17.3064 C   0  0  0  0  0  0  0  0  0  0  0  0
   20.9769  -10.3644  -17.1305 C   0  0  1  0  0  0  0  0  0  0  0  0
   20.4635   -9.7327  -18.2357 O   0  0  0  0  0  0  0  0  0  0  0  0
   20.1208  -10.0194  -15.9075 C   0  0  2  0  0  0  0  0  0  0  0  0
   18.7261  -10.3166  -16.1759 N   0  0  0  0  0  0  0  0  0  0  0  0
   20.2110   -8.5560  -15.6608 C   0  0  0  0  0  0  0  0  0  0  0  0
   19.3125   -7.7811  -16.0718 O   0  0  0  0  0  0  0  0  0  0  0  0
   21.6108   -4.7578  -13.0608 C   0  0  0  0  0  0  0  0  0  0  0  0
   21.7887   -6.2482  -13.2705 C   0  0  1  0  0  0  0  0  0  0  0  0
   20.9371   -6.8771  -12.3584 O   0  0  0  0  0  0  0  0  0  0  0  0
   21.2807   -6.5786  -14.6458 C   0  0  2  0  0  0  0  0  0  0  0  0
   21.2890   -7.9595  -14.9643 N   0  0  0  0  0  0  0  0  0  0  0  0
   22.0309   -5.7839  -15.6805 C   0  0  0  0  0  0  0  0  0  0  0  0
   21.6036   -4.5477  -16.1282 O   0  0  0  0  0  0  0  0  0  0  0  0
   23.0891   -6.2576  -16.1609 O   0  0  0  0  0  0  0  0  0  0  0  0
  2  1  1  0
  3  2  1  0
  3  4  1  1
  5 11  1  0
  5  3  1  0
  6  5  2  0
  8  7  1  6
  9  8  1  0
 10 12  1  0
 10  8  1  0
 10 11  1  6
 12 18  1  0
 13 12  2  0
 15 14  1  1
 15 16  1  0
 17 15  1  0
 17 18  1  6
 19 20  1  0
 19 17  1  0
 21 19  2  0
M  END
$$$$
