STT.pdb
     RDKit          3D

 21 20  0  0  1  0  0  0  0  0999 V2000
   16.8138  -10.7288  -17.0245 O   0  0  0  0  0  0  0  0  0  0  0  0
   17.9146  -10.1916  -16.3845 C   0  0  0  0  0  0  0  0  0  0  0  0
   19.1793  -10.9915  -16.6141 C   0  0  2  0  0  0  0  0  0  0  0  0
   18.9919  -12.3046  -16.0802 N   0  0  0  0  0  0  0  0  0  0  0  0
   20.3657  -10.3255  -16.0255 C   0  0  0  0  0  0  0  0  0  0  0  0
   20.8717  -10.6868  -14.9395 O   0  0  0  0  0  0  0  0  0  0  0  0
   24.2592   -7.4374  -16.6833 C   0  0  0  0  0  0  0  0  0  0  0  0
   23.1891   -8.3782  -17.1643 C   0  0  1  0  0  0  0  0  0  0  0  0
   23.6482   -9.6557  -17.3671 O   0  0  0  0  0  0  0  0  0  0  0  0
   22.0059   -8.4146  -16.1915 C   0  0  2  0  0  0  0  0  0  0  0  0
   20.9395   -9.2352  -16.7347 N   0  0  0  0  0  0  0  0  0  0  0  0
   21.4626   -7.0378  -16.0509 C   0  0  0  0  0  0  0  0  0  0  0  0
   20.9313   -6.4564  -17.0290 O   0  0  0  0  0  0  0  0  0  0  0  0
   19.4531   -3.3261  -13.9237 C   0  0  0  0  0  0  0  0  0  0  0  0
   19.8017   -4.8009  -13.9179 C   0  0  1  0  0  0  0  0  0  0  0  0
   18.7578   -5.4535  -14.5790 O   0  0  0  0  0  0  0  0  0  0  0  0
   21.0346   -4.9809  -14.7584 C   0  0  2  0  0  0  0  0  0  0  0  0
   21.5093   -6.3139  -14.8356 N   0  0  0  0  0  0  0  0  0  0  0  0
   22.1209   -4.0497  -14.2916 C   0  0  0  0  0  0  0  0  0  0  0  0
   23.0496   -4.4061  -13.3316 O   0  0  0  0  0  0  0  0  0  0  0  0
   22.1920   -2.9004  -14.7907 O   0  0  0  0  0  0  0  0  0  0  0  0
  2  1  1  0
  3  2  1  0
  3  4  1  1
  5 11  1  0
  5  3  1  0
  6  5  2  0
  8  7  1  1
  9  8  1  0
 10 12  1  0
 10  8  1  0
 10 11  1  6
 12 18  1  0
 13 12  2  0
 15 14  1  6
 15 16  1  0
 17 15  1  0
 17 18  1  1
 19 20  1  0
 19 17  1  0
 21 19  2  0
M  END
$$$$
