STT.pdb
     RDKit          3D

 21 20  0  0  1  0  0  0  0  0999 V2000
   19.9603  -23.4702  -11.5908 O   0  0  0  0  0  0  0  0  0  0  0  0
   18.9263  -24.0577  -10.8869 C   0  0  0  0  0  0  0  0  0  0  0  0
   19.3097  -25.3888  -10.2760 C   0  0  2  0  0  0  0  0  0  0  0  0
   19.4230  -26.3557  -11.3232 N   0  0  0  0  0  0  0  0  0  0  0  0
   18.3416  -25.8168   -9.2382 C   0  0  0  0  0  0  0  0  0  0  0  0
   17.5829  -26.8006   -9.3891 O   0  0  0  0  0  0  0  0  0  0  0  0
   16.9995  -25.1758   -4.4804 C   0  0  0  0  0  0  0  0  0  0  0  0
   17.9673  -24.9459   -5.6082 C   0  0  1  0  0  0  0  0  0  0  0  0
   19.1723  -25.5754   -5.4192 O   0  0  0  0  0  0  0  0  0  0  0  0
   17.3706  -25.3878   -6.9485 C   0  0  2  0  0  0  0  0  0  0  0  0
   18.2848  -25.0703   -8.0297 N   0  0  0  0  0  0  0  0  0  0  0  0
   16.1256  -24.6132   -7.1939 C   0  0  0  0  0  0  0  0  0  0  0  0
   16.1475  -23.3579   -7.2202 O   0  0  0  0  0  0  0  0  0  0  0  0
   13.2083  -25.4228   -9.8277 C   0  0  0  0  0  0  0  0  0  0  0  0
   12.6419  -25.1492   -8.4489 C   0  0  1  0  0  0  0  0  0  0  0  0
   12.4355  -26.3970   -7.8548 O   0  0  0  0  0  0  0  0  0  0  0  0
   13.7066  -24.4524   -7.6490 C   0  0  2  0  0  0  0  0  0  0  0  0
   14.8685  -25.2271   -7.4080 N   0  0  0  0  0  0  0  0  0  0  0  0
   13.1298  -23.9330   -6.3596 C   0  0  0  0  0  0  0  0  0  0  0  0
   12.3398  -22.8003   -6.2967 O   0  0  0  0  0  0  0  0  0  0  0  0
   13.3725  -24.5493   -5.2936 O   0  0  0  0  0  0  0  0  0  0  0  0
  2  1  1  0
  3  2  1  0
  3  4  1  6
  5 11  1  0
  5  3  1  0
  6  5  2  0
  8  7  1  1
  9  8  1  0
 10 12  1  0
 10  8  1  0
 10 11  1  6
 12 18  1  0
 13 12  2  0
 15 14  1  6
 15 16  1  0
 17 15  1  0
 17 18  1  1
 19 20  1  0
 19 17  1  0
 21 19  2  0
M  END
$$$$
