STT.pdb
     RDKit          3D

 21 20  0  0  1  0  0  0  0  0999 V2000
   16.5912  -10.3582  -18.3812 O   0  0  0  0  0  0  0  0  0  0  0  0
   17.2630   -9.9990  -17.2283 C   0  0  0  0  0  0  0  0  0  0  0  0
   18.3619  -10.9723  -16.8579 C   0  0  2  0  0  0  0  0  0  0  0  0
   17.7682  -12.2380  -16.5579 N   0  0  0  0  0  0  0  0  0  0  0  0
   19.1828  -10.4717  -15.7298 C   0  0  0  0  0  0  0  0  0  0  0  0
   18.9339  -10.7563  -14.5369 O   0  0  0  0  0  0  0  0  0  0  0  0
   22.5430  -11.1426  -14.6260 C   0  0  0  0  0  0  0  0  0  0  0  0
   22.5575   -9.7194  -15.1118 C   0  0  1  0  0  0  0  0  0  0  0  0
   23.0197   -9.5953  -16.3982 O   0  0  0  0  0  0  0  0  0  0  0  0
   21.1660   -9.0860  -15.0111 C   0  0  2  0  0  0  0  0  0  0  0  0
   20.2931   -9.6365  -16.0312 N   0  0  0  0  0  0  0  0  0  0  0  0
   21.2851   -7.6294  -15.2845 C   0  0  0  0  0  0  0  0  0  0  0  0
   21.4123   -7.2072  -16.4603 O   0  0  0  0  0  0  0  0  0  0  0  0
   19.2841   -5.1295  -15.7355 C   0  0  0  0  0  0  0  0  0  0  0  0
   20.1260   -4.5043  -14.6415 C   0  0  1  0  0  0  0  0  0  0  0  0
   19.4415   -4.7272  -13.4438 O   0  0  0  0  0  0  0  0  0  0  0  0
   21.4140   -5.2747  -14.5613 C   0  0  2  0  0  0  0  0  0  0  0  0
   21.2630   -6.6515  -14.2617 N   0  0  0  0  0  0  0  0  0  0  0  0
   22.3543   -4.6132  -13.5900 C   0  0  0  0  0  0  0  0  0  0  0  0
   22.6995   -5.1823  -12.3783 O   0  0  0  0  0  0  0  0  0  0  0  0
   22.8488   -3.4985  -13.8864 O   0  0  0  0  0  0  0  0  0  0  0  0
  2  1  1  0
  3  2  1  0
  3  4  1  1
  5 11  1  0
  5  3  1  0
  6  5  2  0
  8  7  1  6
  9  8  1  0
 10 12  1  0
 10  8  1  0
 10 11  1  6
 12 18  1  0
 13 12  2  0
 15 14  1  6
 15 16  1  0
 17 15  1  0
 17 18  1  1
 19 20  1  0
 19 17  1  0
 21 19  2  0
M  END
$$$$
