STT.pdb
     RDKit          3D

 21 20  0  0  1  0  0  0  0  0999 V2000
   18.0211  -12.1124  -20.1285 O   0  0  0  0  0  0  0  0  0  0  0  0
   18.0587  -11.3848  -18.9543 C   0  0  0  0  0  0  0  0  0  0  0  0
   18.8174  -12.0875  -17.8486 C   0  0  2  0  0  0  0  0  0  0  0  0
   18.1347  -13.3021  -17.5273 N   0  0  0  0  0  0  0  0  0  0  0  0
   18.9818  -11.2206  -16.6574 C   0  0  0  0  0  0  0  0  0  0  0  0
   18.3081  -11.3742  -15.6140 O   0  0  0  0  0  0  0  0  0  0  0  0
   22.0015   -8.1721  -14.2693 C   0  0  0  0  0  0  0  0  0  0  0  0
   21.6953   -9.2220  -15.3015 C   0  0  1  0  0  0  0  0  0  0  0  0
   22.1211  -10.4748  -14.9365 O   0  0  0  0  0  0  0  0  0  0  0  0
   20.1964   -9.2690  -15.6156 C   0  0  2  0  0  0  0  0  0  0  0  0
   19.9468  -10.1784  -16.7184 N   0  0  0  0  0  0  0  0  0  0  0  0
   19.7610   -7.9192  -16.0617 C   0  0  0  0  0  0  0  0  0  0  0  0
   20.2728   -7.3843  -17.0760 O   0  0  0  0  0  0  0  0  0  0  0  0
   16.2189   -6.6186  -16.6872 C   0  0  0  0  0  0  0  0  0  0  0  0
   16.9062   -5.6129  -15.7857 C   0  0  1  0  0  0  0  0  0  0  0  0
   16.4875   -5.9020  -14.4843 O   0  0  0  0  0  0  0  0  0  0  0  0
   18.3833   -5.8849  -15.8427 C   0  0  2  0  0  0  0  0  0  0  0  0
   18.7666   -7.1710  -15.3876 N   0  0  0  0  0  0  0  0  0  0  0  0
   19.1374   -4.8084  -15.1095 C   0  0  0  0  0  0  0  0  0  0  0  0
   19.8277   -5.0464  -13.9356 O   0  0  0  0  0  0  0  0  0  0  0  0
   19.1437   -3.6442  -15.5781 O   0  0  0  0  0  0  0  0  0  0  0  0
  2  1  1  0
  3  2  1  0
  3  4  1  1
  5 11  1  0
  5  3  1  0
  6  5  2  0
  8  7  1  1
  9  8  1  0
 10 12  1  0
 10  8  1  0
 10 11  1  6
 12 18  1  0
 13 12  2  0
 15 14  1  6
 15 16  1  0
 17 15  1  0
 17 18  1  1
 19 20  1  0
 19 17  1  0
 21 19  2  0
M  END
$$$$
