STT.pdb
     RDKit          3D

 21 20  0  0  1  0  0  0  0  0999 V2000
   30.2904   -7.1951  -20.5753 O   0  0  0  0  0  0  0  0  0  0  0  0
   30.6793   -7.1391  -19.2504 C   0  0  0  0  0  0  0  0  0  0  0  0
   30.9336   -8.5062  -18.6517 C   0  0  2  0  0  0  0  0  0  0  0  0
   29.6891   -9.2047  -18.5642 N   0  0  0  0  0  0  0  0  0  0  0  0
   31.6028   -8.4128  -17.3323 C   0  0  0  0  0  0  0  0  0  0  0  0
   30.9980   -8.6096  -16.2545 O   0  0  0  0  0  0  0  0  0  0  0  0
   35.5666   -9.1612  -14.7677 C   0  0  0  0  0  0  0  0  0  0  0  0
   34.6914   -9.2403  -15.9880 C   0  0  1  0  0  0  0  0  0  0  0  0
   33.9435  -10.3901  -16.0394 O   0  0  0  0  0  0  0  0  0  0  0  0
   33.7605   -8.0269  -16.0812 C   0  0  2  0  0  0  0  0  0  0  0  0
   32.9862   -8.0861  -17.3070 N   0  0  0  0  0  0  0  0  0  0  0  0
   34.5898   -6.7950  -16.1531 C   0  0  0  0  0  0  0  0  0  0  0  0
   35.2328   -6.5163  -17.1951 O   0  0  0  0  0  0  0  0  0  0  0  0
   33.5720   -3.2034  -15.3319 C   0  0  0  0  0  0  0  0  0  0  0  0
   34.8658   -3.4766  -14.5917 C   0  0  1  0  0  0  0  0  0  0  0  0
   34.5069   -3.8020  -13.2810 O   0  0  0  0  0  0  0  0  0  0  0  0
   35.4854   -4.7057  -15.1955 C   0  0  2  0  0  0  0  0  0  0  0  0
   34.7035   -5.8818  -15.0779 N   0  0  0  0  0  0  0  0  0  0  0  0
   36.8656   -4.9195  -14.6348 C   0  0  0  0  0  0  0  0  0  0  0  0
   37.9255   -4.0777  -14.9163 O   0  0  0  0  0  0  0  0  0  0  0  0
   37.0693   -5.9009  -13.8797 O   0  0  0  0  0  0  0  0  0  0  0  0
  2  1  1  0
  3  2  1  0
  3  4  1  1
  5 11  1  0
  5  3  1  0
  6  5  2  0
  8  7  1  1
  9  8  1  0
 10 12  1  0
 10  8  1  0
 10 11  1  6
 12 18  1  0
 13 12  2  0
 15 14  1  6
 15 16  1  0
 17 15  1  0
 17 18  1  1
 19 20  1  0
 19 17  1  0
 21 19  2  0
M  END
$$$$
