STT.pdb
     RDKit          3D

 21 20  0  0  1  0  0  0  0  0999 V2000
   16.1540  -11.5297  -16.1395 O   0  0  0  0  0  0  0  0  0  0  0  0
   17.2795  -10.7672  -15.8914 C   0  0  0  0  0  0  0  0  0  0  0  0
   18.5162  -11.2972  -16.5857 C   0  0  2  0  0  0  0  0  0  0  0  0
   18.8284  -12.5828  -16.0433 N   0  0  0  0  0  0  0  0  0  0  0  0
   19.6586  -10.3602  -16.4652 C   0  0  0  0  0  0  0  0  0  0  0  0
   20.6351  -10.5813  -15.7145 O   0  0  0  0  0  0  0  0  0  0  0  0
   21.7457   -6.2958  -18.4734 C   0  0  0  0  0  0  0  0  0  0  0  0
   20.7383   -7.4110  -18.5281 C   0  0  1  0  0  0  0  0  0  0  0  0
   20.9697   -8.2945  -19.5527 O   0  0  0  0  0  0  0  0  0  0  0  0
   20.6876   -8.1766  -17.2019 C   0  0  2  0  0  0  0  0  0  0  0  0
   19.6288   -9.1682  -17.2393 N   0  0  0  0  0  0  0  0  0  0  0  0
   20.3474   -7.2222  -16.1138 C   0  0  0  0  0  0  0  0  0  0  0  0
   19.1497   -6.9982  -15.8102 O   0  0  0  0  0  0  0  0  0  0  0  0
   21.7668   -7.7866  -12.7279 C   0  0  0  0  0  0  0  0  0  0  0  0
   20.5806   -6.9034  -13.0587 C   0  0  1  0  0  0  0  0  0  0  0  0
   20.3140   -6.1571  -11.9078 O   0  0  0  0  0  0  0  0  0  0  0  0
   21.0170   -5.9331  -14.1203 C   0  0  2  0  0  0  0  0  0  0  0  0
   21.3282   -6.5235  -15.3704 N   0  0  0  0  0  0  0  0  0  0  0  0
   22.1646   -5.0981  -13.6195 C   0  0  0  0  0  0  0  0  0  0  0  0
   22.0565   -4.2567  -12.5279 O   0  0  0  0  0  0  0  0  0  0  0  0
   23.2683   -5.1640  -14.2131 O   0  0  0  0  0  0  0  0  0  0  0  0
  2  1  1  0
  3  2  1  0
  3  4  1  1
  5 11  1  0
  5  3  1  0
  6  5  2  0
  8  7  1  1
  9  8  1  0
 10 12  1  0
 10  8  1  0
 10 11  1  6
 12 18  1  0
 13 12  2  0
 15 14  1  1
 15 16  1  0
 17 15  1  0
 17 18  1  6
 19 20  1  0
 19 17  1  0
 21 19  2  0
M  END
$$$$
