STT.pdb
     RDKit          3D

 21 20  0  0  1  0  0  0  0  0999 V2000
   15.7971  -11.6944  -14.5204 O   0  0  0  0  0  0  0  0  0  0  0  0
   17.0740  -11.1769  -14.6278 C   0  0  0  0  0  0  0  0  0  0  0  0
   17.7817  -11.6101  -15.8941 C   0  0  2  0  0  0  0  0  0  0  0  0
   17.8845  -13.0362  -15.8943 N   0  0  0  0  0  0  0  0  0  0  0  0
   19.1098  -10.9657  -16.0297 C   0  0  0  0  0  0  0  0  0  0  0  0
   20.1746  -11.5444  -15.7176 O   0  0  0  0  0  0  0  0  0  0  0  0
   20.9139   -9.8445  -18.9887 C   0  0  0  0  0  0  0  0  0  0  0  0
   20.6086   -8.5965  -18.2072 C   0  0  1  0  0  0  0  0  0  0  0  0
   19.5151   -7.9176  -18.6842 O   0  0  0  0  0  0  0  0  0  0  0  0
   20.4006   -8.9104  -16.7219 C   0  0  2  0  0  0  0  0  0  0  0  0
   19.1590   -9.6381  -16.5357 N   0  0  0  0  0  0  0  0  0  0  0  0
   20.2663   -7.6296  -15.9789 C   0  0  0  0  0  0  0  0  0  0  0  0
   19.1453   -7.0787  -15.8504 O   0  0  0  0  0  0  0  0  0  0  0  0
   20.6080   -6.9209  -12.5736 C   0  0  0  0  0  0  0  0  0  0  0  0
   21.5299   -5.8838  -13.1829 C   0  0  1  0  0  0  0  0  0  0  0  0
   22.8212   -6.4118  -13.1036 O   0  0  0  0  0  0  0  0  0  0  0  0
   21.1894   -5.7731  -14.6426 C   0  0  2  0  0  0  0  0  0  0  0  0
   21.3669   -6.9675  -15.3844 N   0  0  0  0  0  0  0  0  0  0  0  0
   21.9496   -4.6343  -15.2674 C   0  0  0  0  0  0  0  0  0  0  0  0
   21.7674   -3.3172  -14.8891 O   0  0  0  0  0  0  0  0  0  0  0  0
   22.7851   -4.8842  -16.1699 O   0  0  0  0  0  0  0  0  0  0  0  0
  2  1  1  0
  3  2  1  0
  3  4  1  1
  5 11  1  0
  5  3  1  0
  6  5  2  0
  8  7  1  6
  9  8  1  0
 10 12  1  0
 10  8  1  0
 10 11  1  6
 12 18  1  0
 13 12  2  0
 15 14  1  1
 15 16  1  0
 17 15  1  0
 17 18  1  6
 19 20  1  0
 19 17  1  0
 21 19  2  0
M  END
$$$$
