STT.pdb
     RDKit          3D

 21 20  0  0  1  0  0  0  0  0999 V2000
   20.1403  -12.4639  -20.5773 O   0  0  0  0  0  0  0  0  0  0  0  0
   19.8704  -11.9486  -19.3238 C   0  0  0  0  0  0  0  0  0  0  0  0
   20.5051  -10.5935  -19.0936 C   0  0  2  0  0  0  0  0  0  0  0  0
   21.8791  -10.6611  -19.4836 N   0  0  0  0  0  0  0  0  0  0  0  0
   20.3565  -10.1483  -17.6875 C   0  0  0  0  0  0  0  0  0  0  0  0
   19.2532  -10.1374  -17.0972 O   0  0  0  0  0  0  0  0  0  0  0  0
   22.6455   -9.4446  -13.4069 C   0  0  0  0  0  0  0  0  0  0  0  0
   22.4841  -10.0531  -14.7726 C   0  0  1  0  0  0  0  0  0  0  0  0
   22.0820  -11.3649  -14.7324 O   0  0  0  0  0  0  0  0  0  0  0  0
   21.4974   -9.2477  -15.6244 C   0  0  2  0  0  0  0  0  0  0  0  0
   21.5226   -9.7200  -16.9962 N   0  0  0  0  0  0  0  0  0  0  0  0
   21.9378   -7.8278  -15.6482 C   0  0  0  0  0  0  0  0  0  0  0  0
   22.9565   -7.4844  -16.2972 O   0  0  0  0  0  0  0  0  0  0  0  0
   20.3117   -4.8615  -16.9109 C   0  0  0  0  0  0  0  0  0  0  0  0
   20.6893   -4.4675  -15.4971 C   0  0  1  0  0  0  0  0  0  0  0  0
   19.5405   -4.6420  -14.7210 O   0  0  0  0  0  0  0  0  0  0  0  0
   21.7069   -5.4578  -15.0045 C   0  0  2  0  0  0  0  0  0  0  0  0
   21.2531   -6.7995  -14.9577 N   0  0  0  0  0  0  0  0  0  0  0  0
   22.2460   -5.0257  -13.6675 C   0  0  0  0  0  0  0  0  0  0  0  0
   23.0328   -3.9003  -13.5070 O   0  0  0  0  0  0  0  0  0  0  0  0
   21.9737   -5.7112  -12.6522 O   0  0  0  0  0  0  0  0  0  0  0  0
  2  1  1  0
  3  2  1  0
  3  4  1  1
  5 11  1  0
  5  3  1  0
  6  5  2  0
  8  7  1  1
  9  8  1  0
 10 12  1  0
 10  8  1  0
 10 11  1  6
 12 18  1  0
 13 12  2  0
 15 14  1  6
 15 16  1  0
 17 15  1  0
 17 18  1  1
 19 20  1  0
 19 17  1  0
 21 19  2  0
M  END
$$$$
