YQI.pdb
     RDKit          3D

 30 30  0  0  1  0  0  0  0  0999 V2000
   25.1591  -12.5692  -15.3059 O   0  0  0  0  0  0  0  0  0  0  0  0
   24.2962  -11.4882  -15.0911 C   0  0  0  0  0  0  0  0  0  0  0  0
   23.5643  -11.4348  -13.9249 C   0  0  0  0  0  0  0  0  0  0  0  0
   22.7115  -10.3629  -13.7185 C   0  0  0  0  0  0  0  0  0  0  0  0
   22.5711   -9.3445  -14.6450 C   0  0  0  0  0  0  0  0  0  0  0  0
   21.6377   -8.2307  -14.3202 C   0  0  0  0  0  0  0  0  0  0  0  0
   20.2832   -8.6197  -14.8212 C   0  0  2  0  0  0  0  0  0  0  0  0
   20.3050   -8.8135  -16.2690 N   0  0  0  0  0  0  0  0  0  0  0  0
   19.2057   -7.6371  -14.4761 C   0  0  0  0  0  0  0  0  0  0  0  0
   19.0103   -6.6043  -15.1326 O   0  0  0  0  0  0  0  0  0  0  0  0
   23.3092   -9.4153  -15.8014 C   0  0  0  0  0  0  0  0  0  0  0  0
   24.1725  -10.4948  -16.0176 C   0  0  0  0  0  0  0  0  0  0  0  0
   13.6157   -9.5031  -15.4532 N   0  0  0  0  0  0  0  0  0  0  0  0
   14.6321   -8.5153  -15.4801 C   0  0  0  0  0  0  0  0  0  0  0  0
   14.6063   -7.6492  -16.3904 O   0  0  0  0  0  0  0  0  0  0  0  0
   15.7004   -8.5017  -14.4715 C   0  0  0  0  0  0  0  0  0  0  0  0
   16.1302   -7.0954  -14.0827 C   0  0  0  0  0  0  0  0  0  0  0  0
   17.1838   -7.1390  -12.9998 C   0  0  2  0  0  0  0  0  0  0  0  0
   18.3569   -7.8808  -13.3438 N   0  0  0  0  0  0  0  0  0  0  0  0
   16.6609   -7.4803  -11.6647 C   0  0  0  0  0  0  0  0  0  0  0  0
   16.8162   -8.6322  -11.1550 O   0  0  0  0  0  0  0  0  0  0  0  0
   13.6898   -5.8523   -6.5853 C   0  0  0  0  0  0  0  0  0  0  0  0
   15.0182   -6.2806   -7.1171 C   0  0  0  0  0  0  0  0  0  0  0  0
   15.3462   -5.8419   -8.5046 C   0  0  2  0  0  0  0  0  0  0  0  0
   14.3228   -4.8102   -9.0067 C   0  0  0  0  0  0  0  0  0  0  0  0
   15.5042   -6.9064   -9.5098 C   0  0  2  0  0  0  0  0  0  0  0  0
   15.9349   -6.5530  -10.8224 N   0  0  0  0  0  0  0  0  0  0  0  0
   14.3516   -7.8891   -9.5023 C   0  0  0  0  0  0  0  0  0  0  0  0
   14.2440   -8.7760   -8.6479 O   0  0  0  0  0  0  0  0  0  0  0  0
   13.4264   -7.7202  -10.5188 O   0  0  0  0  0  0  0  0  0  0  0  0
  1  2  1  0
  2 12  2  0
  3  4  2  0
  3  2  1  0
  4  5  1  0
  5  6  1  0
  5 11  2  0
  7  8  1  6
  7  6  1  0
  9  7  1  0
  9 10  2  0
 12 11  1  0
 13 14  1  0
 14 15  2  0
 16 17  1  0
 16 14  1  0
 18 17  1  6
 18 19  1  0
 18 20  1  0
 19  9  1  0
 20 27  1  0
 21 20  2  0
 22 23  1  0
 23 24  1  0
 24 25  1  6
 24 26  1  0
 26 28  1  0
 26 27  1  6
 28 29  2  0
 28 30  1  0
M  END
$$$$
