YQI.pdb
     RDKit          3D

 30 30  0  0  1  0  0  0  0  0999 V2000
   31.4488  -17.9024  -19.5664 O   0  0  0  0  0  0  0  0  0  0  0  0
   30.5602  -17.7908  -18.4907 C   0  0  0  0  0  0  0  0  0  0  0  0
   30.4961  -18.8088  -17.5643 C   0  0  0  0  0  0  0  0  0  0  0  0
   29.6142  -18.6928  -16.5024 C   0  0  0  0  0  0  0  0  0  0  0  0
   28.7960  -17.5883  -16.3420 C   0  0  0  0  0  0  0  0  0  0  0  0
   27.8932  -17.5558  -15.1582 C   0  0  0  0  0  0  0  0  0  0  0  0
   26.8436  -18.6009  -15.3655 C   0  0  2  0  0  0  0  0  0  0  0  0
   26.1423  -18.3838  -16.6285 N   0  0  0  0  0  0  0  0  0  0  0  0
   25.8393  -18.6777  -14.2561 C   0  0  0  0  0  0  0  0  0  0  0  0
   24.9290  -17.8474  -14.1223 O   0  0  0  0  0  0  0  0  0  0  0  0
   28.8744  -16.5837  -17.2757 C   0  0  0  0  0  0  0  0  0  0  0  0
   29.7623  -16.6934  -18.3513 C   0  0  0  0  0  0  0  0  0  0  0  0
   21.8433  -22.7756  -14.1155 N   0  0  0  0  0  0  0  0  0  0  0  0
   21.6565  -22.2390  -12.8168 C   0  0  0  0  0  0  0  0  0  0  0  0
   20.6017  -22.5211  -12.1945 O   0  0  0  0  0  0  0  0  0  0  0  0
   22.6679  -21.3652  -12.2068 C   0  0  0  0  0  0  0  0  0  0  0  0
   23.8358  -21.0718  -13.1362 C   0  0  0  0  0  0  0  0  0  0  0  0
   24.8555  -20.1911  -12.4512 C   0  0  2  0  0  0  0  0  0  0  0  0
   25.9175  -19.7448  -13.2984 N   0  0  0  0  0  0  0  0  0  0  0  0
   25.3346  -20.7169  -11.1603 C   0  0  0  0  0  0  0  0  0  0  0  0
   25.9426  -21.8272  -11.0694 O   0  0  0  0  0  0  0  0  0  0  0  0
   28.2252  -18.6013   -7.2460 C   0  0  0  0  0  0  0  0  0  0  0  0
   27.5604  -19.6597   -8.0637 C   0  0  0  0  0  0  0  0  0  0  0  0
   26.1950  -20.0714   -7.6263 C   0  0  2  0  0  0  0  0  0  0  0  0
   26.2701  -20.9844   -6.3915 C   0  0  0  0  0  0  0  0  0  0  0  0
   25.3388  -20.6966   -8.6482 C   0  0  2  0  0  0  0  0  0  0  0  0
   25.1620  -20.0311   -9.8969 N   0  0  0  0  0  0  0  0  0  0  0  0
   24.0478  -21.2404   -8.0719 C   0  0  0  0  0  0  0  0  0  0  0  0
   22.9488  -20.7272   -8.3109 O   0  0  0  0  0  0  0  0  0  0  0  0
   24.1873  -22.3548   -7.2617 O   0  0  0  0  0  0  0  0  0  0  0  0
  1  2  1  0
  2 12  2  0
  3  4  2  0
  3  2  1  0
  4  5  1  0
  5  6  1  0
  5 11  2  0
  7  8  1  6
  7  6  1  0
  9  7  1  0
  9 10  2  0
 12 11  1  0
 13 14  1  0
 14 15  2  0
 16 17  1  0
 16 14  1  0
 18 17  1  6
 18 19  1  0
 18 20  1  0
 19  9  1  0
 20 27  1  0
 21 20  2  0
 22 23  1  0
 23 24  1  0
 24 25  1  1
 24 26  1  0
 26 28  1  0
 26 27  1  6
 28 29  2  0
 28 30  1  0
M  END
$$$$
