YQI.pdb
     RDKit          3D

 30 30  0  0  1  0  0  0  0  0999 V2000
   28.6331  -11.2376  -16.6906 O   0  0  0  0  0  0  0  0  0  0  0  0
   27.6983  -12.2734  -16.5787 C   0  0  0  0  0  0  0  0  0  0  0  0
   27.5458  -12.9122  -15.3674 C   0  0  0  0  0  0  0  0  0  0  0  0
   26.6197  -13.9370  -15.2631 C   0  0  0  0  0  0  0  0  0  0  0  0
   25.8431  -14.3396  -16.3355 C   0  0  0  0  0  0  0  0  0  0  0  0
   24.8673  -15.4425  -16.1141 C   0  0  0  0  0  0  0  0  0  0  0  0
   25.5943  -16.7331  -16.3208 C   0  0  2  0  0  0  0  0  0  0  0  0
   25.9690  -16.8949  -17.7234 N   0  0  0  0  0  0  0  0  0  0  0  0
   24.8225  -17.9392  -15.8791 C   0  0  0  0  0  0  0  0  0  0  0  0
   23.9436  -18.4616  -16.5796 O   0  0  0  0  0  0  0  0  0  0  0  0
   26.0093  -13.6906  -17.5348 C   0  0  0  0  0  0  0  0  0  0  0  0
   26.9429  -12.6549  -17.6484 C   0  0  0  0  0  0  0  0  0  0  0  0
   26.0614  -22.7044  -13.3927 N   0  0  0  0  0  0  0  0  0  0  0  0
   24.8890  -22.6660  -12.5968 C   0  0  0  0  0  0  0  0  0  0  0  0
   24.4004  -23.7508  -12.1916 O   0  0  0  0  0  0  0  0  0  0  0  0
   24.2492  -21.3888  -12.2537 C   0  0  0  0  0  0  0  0  0  0  0  0
   25.0252  -20.1825  -12.7599 C   0  0  0  0  0  0  0  0  0  0  0  0
   24.3871  -19.6233  -14.0108 C   0  0  2  0  0  0  0  0  0  0  0  0
   25.0938  -18.5273  -14.5974 N   0  0  0  0  0  0  0  0  0  0  0  0
   22.9401  -19.3720  -13.8877 C   0  0  0  0  0  0  0  0  0  0  0  0
   22.4832  -18.3124  -13.3591 O   0  0  0  0  0  0  0  0  0  0  0  0
   19.4160  -16.7235  -16.2595 C   0  0  0  0  0  0  0  0  0  0  0  0
   19.8716  -17.6106  -15.1476 C   0  0  0  0  0  0  0  0  0  0  0  0
   20.0866  -19.0455  -15.4939 C   0  0  2  0  0  0  0  0  0  0  0  0
   18.8271  -19.6451  -16.1406 C   0  0  0  0  0  0  0  0  0  0  0  0
   20.5439  -19.9228  -14.4032 C   0  0  2  0  0  0  0  0  0  0  0  0
   21.9205  -20.2907  -14.3491 N   0  0  0  0  0  0  0  0  0  0  0  0
   19.6038  -21.0851  -14.1588 C   0  0  0  0  0  0  0  0  0  0  0  0
   19.9623  -22.2622  -14.2784 O   0  0  0  0  0  0  0  0  0  0  0  0
   18.3163  -20.7342  -13.7888 O   0  0  0  0  0  0  0  0  0  0  0  0
  1  2  1  0
  2 12  2  0
  3  4  2  0
  3  2  1  0
  4  5  1  0
  5  6  1  0
  5 11  2  0
  7  8  1  6
  7  6  1  0
  9  7  1  0
  9 10  2  0
 12 11  1  0
 13 14  1  0
 14 15  2  0
 16 17  1  0
 16 14  1  0
 18 17  1  1
 18 19  1  0
 18 20  1  0
 19  9  1  0
 20 27  1  0
 21 20  2  0
 22 23  1  0
 23 24  1  0
 24 25  1  1
 24 26  1  0
 26 28  1  0
 26 27  1  6
 28 29  2  0
 28 30  1  0
M  END
$$$$
