YQI.pdb
     RDKit          3D

 30 30  0  0  1  0  0  0  0  0999 V2000
   31.2374  -17.7176  -19.2875 O   0  0  0  0  0  0  0  0  0  0  0  0
   30.2495  -17.8341  -18.3027 C   0  0  0  0  0  0  0  0  0  0  0  0
   30.4102  -17.1664  -17.1082 C   0  0  0  0  0  0  0  0  0  0  0  0
   29.4295  -17.2862  -16.1373 C   0  0  0  0  0  0  0  0  0  0  0  0
   28.2942  -18.0542  -16.3282 C   0  0  0  0  0  0  0  0  0  0  0  0
   27.2940  -18.1055  -15.2262 C   0  0  0  0  0  0  0  0  0  0  0  0
   27.8136  -19.0532  -14.1923 C   0  0  2  0  0  0  0  0  0  0  0  0
   27.9842  -20.3896  -14.7572 N   0  0  0  0  0  0  0  0  0  0  0  0
   26.9523  -19.1459  -12.9697 C   0  0  0  0  0  0  0  0  0  0  0  0
   26.4992  -18.1452  -12.3959 O   0  0  0  0  0  0  0  0  0  0  0  0
   28.1517  -18.7121  -17.5257 C   0  0  0  0  0  0  0  0  0  0  0  0
   29.1379  -18.5965  -18.5113 C   0  0  0  0  0  0  0  0  0  0  0  0
   21.8969  -21.5883  -11.1968 N   0  0  0  0  0  0  0  0  0  0  0  0
   22.3980  -21.1904  -12.4616 C   0  0  0  0  0  0  0  0  0  0  0  0
   21.5856  -20.7858  -13.3312 O   0  0  0  0  0  0  0  0  0  0  0  0
   23.8353  -21.2528  -12.7595 C   0  0  0  0  0  0  0  0  0  0  0  0
   24.6709  -21.6766  -11.5613 C   0  0  0  0  0  0  0  0  0  0  0  0
   25.7768  -20.6795  -11.3016 C   0  0  2  0  0  0  0  0  0  0  0  0
   26.6288  -20.4340  -12.4234 N   0  0  0  0  0  0  0  0  0  0  0  0
   26.5256  -20.9221  -10.0555 C   0  0  0  0  0  0  0  0  0  0  0  0
   27.3665  -21.8666   -9.9482 O   0  0  0  0  0  0  0  0  0  0  0  0
   29.3193  -20.3551   -4.9584 C   0  0  0  0  0  0  0  0  0  0  0  0
   27.8916  -20.5157   -5.3669 C   0  0  0  0  0  0  0  0  0  0  0  0
   27.4913  -19.8523   -6.6415 C   0  0  2  0  0  0  0  0  0  0  0  0
   26.8045  -18.5052   -6.3630 C   0  0  0  0  0  0  0  0  0  0  0  0
   26.6603  -20.6463   -7.5621 C   0  0  2  0  0  0  0  0  0  0  0  0
   26.3778  -20.1220   -8.8578 N   0  0  0  0  0  0  0  0  0  0  0  0
   25.4468  -21.2447   -6.8811 C   0  0  0  0  0  0  0  0  0  0  0  0
   24.2941  -20.8888   -7.1511 O   0  0  0  0  0  0  0  0  0  0  0  0
   25.7217  -22.2205   -5.9377 O   0  0  0  0  0  0  0  0  0  0  0  0
  1  2  1  0
  2 12  2  0
  3  4  2  0
  3  2  1  0
  4  5  1  0
  5  6  1  0
  5 11  2  0
  7  8  1  6
  7  6  1  0
  9  7  1  0
  9 10  2  0
 12 11  1  0
 13 14  1  0
 14 15  2  0
 16 17  1  0
 16 14  1  0
 18 17  1  6
 18 19  1  0
 18 20  1  0
 19  9  1  0
 20 27  1  0
 21 20  2  0
 22 23  1  0
 23 24  1  0
 24 25  1  1
 24 26  1  0
 26 28  1  0
 26 27  1  6
 28 29  2  0
 28 30  1  0
M  END
$$$$
