YQI.pdb
     RDKit          3D

 30 30  0  0  1  0  0  0  0  0999 V2000
   31.3653  -16.2296  -19.4298 O   0  0  0  0  0  0  0  0  0  0  0  0
   30.3152  -16.3227  -18.5089 C   0  0  0  0  0  0  0  0  0  0  0  0
   30.1759  -17.4731  -17.7635 C   0  0  0  0  0  0  0  0  0  0  0  0
   29.1343  -17.5595  -16.8545 C   0  0  0  0  0  0  0  0  0  0  0  0
   28.2297  -16.5283  -16.6708 C   0  0  0  0  0  0  0  0  0  0  0  0
   27.1542  -16.7169  -15.6583 C   0  0  0  0  0  0  0  0  0  0  0  0
   26.2499  -17.7974  -16.1601 C   0  0  2  0  0  0  0  0  0  0  0  0
   25.5828  -17.3811  -17.3913 N   0  0  0  0  0  0  0  0  0  0  0  0
   25.2153  -18.2301  -15.1662 C   0  0  0  0  0  0  0  0  0  0  0  0
   24.1962  -17.5647  -14.9324 O   0  0  0  0  0  0  0  0  0  0  0  0
   28.3852  -15.3894  -17.4230 C   0  0  0  0  0  0  0  0  0  0  0  0
   29.4344  -15.2944  -18.3435 C   0  0  0  0  0  0  0  0  0  0  0  0
   20.8400  -19.9801  -14.2311 N   0  0  0  0  0  0  0  0  0  0  0  0
   21.1529  -20.8798  -13.1814 C   0  0  0  0  0  0  0  0  0  0  0  0
   20.2633  -21.1521  -12.3363 O   0  0  0  0  0  0  0  0  0  0  0  0
   22.4892  -21.4807  -13.0733 C   0  0  0  0  0  0  0  0  0  0  0  0
   23.4572  -20.9667  -14.1280 C   0  0  0  0  0  0  0  0  0  0  0  0
   24.4671  -20.0252  -13.5129 C   0  0  2  0  0  0  0  0  0  0  0  0
   25.3927  -19.4584  -14.4438 N   0  0  0  0  0  0  0  0  0  0  0  0
   25.1221  -20.5525  -12.3024 C   0  0  0  0  0  0  0  0  0  0  0  0
   26.0042  -21.4634  -12.3566 O   0  0  0  0  0  0  0  0  0  0  0  0
   26.6449  -17.5529   -8.3322 C   0  0  0  0  0  0  0  0  0  0  0  0
   26.7876  -18.8117   -9.1234 C   0  0  0  0  0  0  0  0  0  0  0  0
   25.9114  -19.9488   -8.7183 C   0  0  2  0  0  0  0  0  0  0  0  0
   26.6379  -20.8699   -7.7244 C   0  0  0  0  0  0  0  0  0  0  0  0
   25.3381  -20.7566   -9.8078 C   0  0  2  0  0  0  0  0  0  0  0  0
   24.8290  -20.0911  -10.9617 N   0  0  0  0  0  0  0  0  0  0  0  0
   24.4272  -21.8552   -9.3001 C   0  0  0  0  0  0  0  0  0  0  0  0
   23.2092  -21.8551   -9.5117 O   0  0  0  0  0  0  0  0  0  0  0  0
   25.0573  -22.8602   -8.5854 O   0  0  0  0  0  0  0  0  0  0  0  0
  1  2  1  0
  2 12  2  0
  3  4  2  0
  3  2  1  0
  4  5  1  0
  5  6  1  0
  5 11  2  0
  7  8  1  6
  7  6  1  0
  9  7  1  0
  9 10  2  0
 12 11  1  0
 13 14  1  0
 14 15  2  0
 16 17  1  0
 16 14  1  0
 18 17  1  6
 18 19  1  0
 18 20  1  0
 19  9  1  0
 20 27  1  0
 21 20  2  0
 22 23  1  0
 23 24  1  0
 24 25  1  1
 24 26  1  0
 26 28  1  0
 26 27  1  6
 28 29  2  0
 28 30  1  0
M  END
$$$$
