YQI.pdb
     RDKit          3D

 30 30  0  0  1  0  0  0  0  0999 V2000
   26.7771  -20.9454   -6.3864 O   0  0  0  0  0  0  0  0  0  0  0  0
   26.7667  -20.8023   -7.7788 C   0  0  0  0  0  0  0  0  0  0  0  0
   27.7416  -21.4275   -8.5253 C   0  0  0  0  0  0  0  0  0  0  0  0
   27.7264  -21.2814   -9.9027 C   0  0  0  0  0  0  0  0  0  0  0  0
   26.7643  -20.5285  -10.5528 C   0  0  0  0  0  0  0  0  0  0  0  0
   26.8297  -20.4466  -12.0383 C   0  0  0  0  0  0  0  0  0  0  0  0
   25.7100  -21.2751  -12.5832 C   0  0  2  0  0  0  0  0  0  0  0  0
   26.0409  -22.6964  -12.5170 N   0  0  0  0  0  0  0  0  0  0  0  0
   25.3296  -20.9271  -13.9901 C   0  0  0  0  0  0  0  0  0  0  0  0
   25.5484  -21.6844  -14.9465 O   0  0  0  0  0  0  0  0  0  0  0  0
   25.8005  -19.9130   -9.7916 C   0  0  0  0  0  0  0  0  0  0  0  0
   25.8092  -20.0554   -8.3998 C   0  0  0  0  0  0  0  0  0  0  0  0
   21.1816  -21.9458  -17.2519 N   0  0  0  0  0  0  0  0  0  0  0  0
   21.4850  -20.7241  -17.9036 C   0  0  0  0  0  0  0  0  0  0  0  0
   20.9120  -20.4632  -18.9914 O   0  0  0  0  0  0  0  0  0  0  0  0
   22.4528  -19.7800  -17.3285 C   0  0  0  0  0  0  0  0  0  0  0  0
   23.0258  -20.2537  -16.0015 C   0  0  0  0  0  0  0  0  0  0  0  0
   24.0800  -19.2929  -15.5013 C   0  0  2  0  0  0  0  0  0  0  0  0
   24.6880  -19.6719  -14.2638 N   0  0  0  0  0  0  0  0  0  0  0  0
   23.6660  -17.8786  -15.5270 C   0  0  0  0  0  0  0  0  0  0  0  0
   22.8145  -17.4113  -14.7100 O   0  0  0  0  0  0  0  0  0  0  0  0
   26.8716  -13.6530  -18.0987 C   0  0  0  0  0  0  0  0  0  0  0  0
   25.6894  -14.5402  -17.8839 C   0  0  0  0  0  0  0  0  0  0  0  0
   25.1623  -14.6116  -16.4902 C   0  0  2  0  0  0  0  0  0  0  0  0
   26.2842  -14.9658  -15.5004 C   0  0  0  0  0  0  0  0  0  0  0  0
   24.0117  -15.5033  -16.2682 C   0  0  2  0  0  0  0  0  0  0  0  0
   24.1808  -16.9051  -16.4670 N   0  0  0  0  0  0  0  0  0  0  0  0
   22.7322  -14.9631  -16.8728 C   0  0  0  0  0  0  0  0  0  0  0  0
   22.3651  -13.7941  -16.7087 O   0  0  0  0  0  0  0  0  0  0  0  0
   22.0059  -15.8717  -17.6244 O   0  0  0  0  0  0  0  0  0  0  0  0
  1  2  1  0
  2 12  2  0
  3  4  2  0
  3  2  1  0
  4  5  1  0
  5  6  1  0
  5 11  2  0
  7  8  1  6
  7  6  1  0
  9  7  1  0
  9 10  2  0
 12 11  1  0
 13 14  1  0
 14 15  2  0
 16 17  1  0
 16 14  1  0
 18 17  1  1
 18 19  1  0
 18 20  1  0
 19  9  1  0
 20 27  1  0
 21 20  2  0
 22 23  1  0
 23 24  1  0
 24 25  1  1
 24 26  1  0
 26 28  1  0
 26 27  1  6
 28 29  2  0
 28 30  1  0
M  END
$$$$
