YQI.pdb
     RDKit          3D

 30 30  0  0  1  0  0  0  0  0999 V2000
   27.4685  -17.5378  -15.5079 O   0  0  0  0  0  0  0  0  0  0  0  0
   26.7385  -16.3735  -15.7743 C   0  0  0  0  0  0  0  0  0  0  0  0
   26.5362  -15.9926  -17.0828 C   0  0  0  0  0  0  0  0  0  0  0  0
   25.8137  -14.8390  -17.3400 C   0  0  0  0  0  0  0  0  0  0  0  0
   25.2888  -14.0574  -16.3257 C   0  0  0  0  0  0  0  0  0  0  0  0
   24.5159  -12.8440  -16.7099 C   0  0  0  0  0  0  0  0  0  0  0  0
   23.0748  -13.2363  -16.7895 C   0  0  2  0  0  0  0  0  0  0  0  0
   22.8738  -14.2548  -17.8173 N   0  0  0  0  0  0  0  0  0  0  0  0
   22.1490  -12.0877  -17.0522 C   0  0  0  0  0  0  0  0  0  0  0  0
   21.9212  -11.6629  -18.1940 O   0  0  0  0  0  0  0  0  0  0  0  0
   25.5009  -14.4537  -15.0275 C   0  0  0  0  0  0  0  0  0  0  0  0
   26.2298  -15.6173  -14.7595 C   0  0  0  0  0  0  0  0  0  0  0  0
   16.4067  -11.5401  -15.1987 N   0  0  0  0  0  0  0  0  0  0  0  0
   16.6835  -10.2396  -15.6899 C   0  0  0  0  0  0  0  0  0  0  0  0
   15.7236   -9.4518  -15.8833 O   0  0  0  0  0  0  0  0  0  0  0  0
   18.0612   -9.8163  -15.9754 C   0  0  0  0  0  0  0  0  0  0  0  0
   19.0720  -10.9416  -15.8154 C   0  0  0  0  0  0  0  0  0  0  0  0
   20.4762  -10.4367  -16.0564 C   0  0  2  0  0  0  0  0  0  0  0  0
   21.4918  -11.4380  -15.9531 N   0  0  0  0  0  0  0  0  0  0  0  0
   20.8081   -9.2053  -15.3176 C   0  0  0  0  0  0  0  0  0  0  0  0
   21.2343   -9.2314  -14.1224 O   0  0  0  0  0  0  0  0  0  0  0  0
   23.7365   -3.8867  -16.1456 C   0  0  0  0  0  0  0  0  0  0  0  0
   22.8494   -4.7657  -15.3263 C   0  0  0  0  0  0  0  0  0  0  0  0
   22.1830   -5.8878  -16.0485 C   0  0  2  0  0  0  0  0  0  0  0  0
   21.4346   -5.3705  -17.2880 C   0  0  0  0  0  0  0  0  0  0  0  0
   21.2839   -6.7395  -15.2519 C   0  0  2  0  0  0  0  0  0  0  0  0
   20.6834   -7.8740  -15.8729 N   0  0  0  0  0  0  0  0  0  0  0  0
   20.3148   -5.9350  -14.4105 C   0  0  0  0  0  0  0  0  0  0  0  0
   20.6897   -5.0442  -13.6396 O   0  0  0  0  0  0  0  0  0  0  0  0
   18.9797   -6.2668  -14.5697 O   0  0  0  0  0  0  0  0  0  0  0  0
  1  2  1  0
  2 12  2  0
  3  4  2  0
  3  2  1  0
  4  5  1  0
  5  6  1  0
  5 11  2  0
  7  8  1  6
  7  6  1  0
  9  7  1  0
  9 10  2  0
 12 11  1  0
 13 14  1  0
 14 15  2  0
 16 17  1  0
 16 14  1  0
 18 17  1  1
 18 19  1  0
 18 20  1  0
 19  9  1  0
 20 27  1  0
 21 20  2  0
 22 23  1  0
 23 24  1  0
 24 25  1  6
 24 26  1  0
 26 28  1  0
 26 27  1  6
 28 29  2  0
 28 30  1  0
M  END
$$$$
