YQI.pdb
     RDKit          3D

 30 30  0  0  1  0  0  0  0  0999 V2000
   28.7641  -13.8952  -18.5774 O   0  0  0  0  0  0  0  0  0  0  0  0
   27.7567  -14.7543  -18.1231 C   0  0  0  0  0  0  0  0  0  0  0  0
   27.6731  -15.0388  -16.7776 C   0  0  0  0  0  0  0  0  0  0  0  0
   26.6745  -15.8903  -16.3343 C   0  0  0  0  0  0  0  0  0  0  0  0
   25.7585  -16.4638  -17.1987 C   0  0  0  0  0  0  0  0  0  0  0  0
   24.7157  -17.3545  -16.6183 C   0  0  0  0  0  0  0  0  0  0  0  0
   25.3762  -18.6499  -16.2681 C   0  0  2  0  0  0  0  0  0  0  0  0
   25.7691  -19.3714  -17.4760 N   0  0  0  0  0  0  0  0  0  0  0  0
   24.5322  -19.5478  -15.4155 C   0  0  0  0  0  0  0  0  0  0  0  0
   23.7590  -20.3892  -15.8954 O   0  0  0  0  0  0  0  0  0  0  0  0
   25.8577  -16.1680  -18.5365 C   0  0  0  0  0  0  0  0  0  0  0  0
   26.8638  -15.3092  -18.9922 C   0  0  0  0  0  0  0  0  0  0  0  0
   25.4472  -20.7590   -9.0891 N   0  0  0  0  0  0  0  0  0  0  0  0
   24.1975  -21.3416   -9.4182 C   0  0  0  0  0  0  0  0  0  0  0  0
   23.5941  -22.0087   -8.5403 O   0  0  0  0  0  0  0  0  0  0  0  0
   23.6161  -21.1785  -10.7576 C   0  0  0  0  0  0  0  0  0  0  0  0
   24.4689  -20.3125  -11.6722 C   0  0  0  0  0  0  0  0  0  0  0  0
   23.8519  -20.2206  -13.0490 C   0  0  2  0  0  0  0  0  0  0  0  0
   24.6046  -19.4447  -13.9850 N   0  0  0  0  0  0  0  0  0  0  0  0
   22.4179  -19.8802  -13.0444 C   0  0  0  0  0  0  0  0  0  0  0  0
   22.0078  -18.6952  -12.8481 O   0  0  0  0  0  0  0  0  0  0  0  0
   17.0780  -20.6785  -15.7555 C   0  0  0  0  0  0  0  0  0  0  0  0
   17.9690  -19.9567  -14.7984 C   0  0  0  0  0  0  0  0  0  0  0  0
   19.3797  -20.4353  -14.7208 C   0  0  2  0  0  0  0  0  0  0  0  0
   19.5210  -21.8233  -15.3668 C   0  0  0  0  0  0  0  0  0  0  0  0
   19.9950  -20.4510  -13.3831 C   0  0  2  0  0  0  0  0  0  0  0  0
   21.3600  -20.8449  -13.2596 N   0  0  0  0  0  0  0  0  0  0  0  0
   19.0952  -21.0746  -12.3363 C   0  0  0  0  0  0  0  0  0  0  0  0
   19.2927  -22.2084  -11.8848 O   0  0  0  0  0  0  0  0  0  0  0  0
   18.0385  -20.2824  -11.9197 O   0  0  0  0  0  0  0  0  0  0  0  0
  1  2  1  0
  2 12  2  0
  3  4  2  0
  3  2  1  0
  4  5  1  0
  5  6  1  0
  5 11  2  0
  7  8  1  6
  7  6  1  0
  9  7  1  0
  9 10  2  0
 12 11  1  0
 13 14  1  0
 14 15  2  0
 16 17  1  0
 16 14  1  0
 18 17  1  1
 18 19  1  0
 18 20  1  0
 19  9  1  0
 20 27  1  0
 21 20  2  0
 22 23  1  0
 23 24  1  0
 24 25  1  1
 24 26  1  0
 26 28  1  0
 26 27  1  6
 28 29  2  0
 28 30  1  0
M  END
$$$$
