YQI.pdb
     RDKit          3D

 30 30  0  0  1  0  0  0  0  0999 V2000
   25.5680  -13.7669  -19.6194 O   0  0  0  0  0  0  0  0  0  0  0  0
   25.5404  -14.8770  -18.7671 C   0  0  0  0  0  0  0  0  0  0  0  0
   26.1394  -14.7883  -17.5295 C   0  0  0  0  0  0  0  0  0  0  0  0
   26.1094  -15.8905  -16.6910 C   0  0  0  0  0  0  0  0  0  0  0  0
   25.4975  -17.0769  -17.0559 C   0  0  0  0  0  0  0  0  0  0  0  0
   25.5095  -18.1976  -16.0753 C   0  0  0  0  0  0  0  0  0  0  0  0
   26.9040  -18.7360  -16.0262 C   0  0  2  0  0  0  0  0  0  0  0  0
   27.2700  -19.3370  -17.3064 N   0  0  0  0  0  0  0  0  0  0  0  0
   27.1272  -19.7379  -14.9345 C   0  0  0  0  0  0  0  0  0  0  0  0
   26.5060  -20.8087  -14.8753 O   0  0  0  0  0  0  0  0  0  0  0  0
   24.9056  -17.1459  -18.2936 C   0  0  0  0  0  0  0  0  0  0  0  0
   24.9319  -16.0372  -19.1465 C   0  0  0  0  0  0  0  0  0  0  0  0
   30.3585  -22.1675  -10.9716 N   0  0  0  0  0  0  0  0  0  0  0  0
   31.0012  -21.5072  -12.0486 C   0  0  0  0  0  0  0  0  0  0  0  0
   31.9495  -22.0898  -12.6326 O   0  0  0  0  0  0  0  0  0  0  0  0
   30.5773  -20.1667  -12.4752 C   0  0  0  0  0  0  0  0  0  0  0  0
   29.3173  -19.6908  -11.7685 C   0  0  0  0  0  0  0  0  0  0  0  0
   28.0895  -20.0187  -12.5870 C   0  0  2  0  0  0  0  0  0  0  0  0
   28.0916  -19.4661  -13.9058 N   0  0  0  0  0  0  0  0  0  0  0  0
   26.8167  -19.8010  -11.8764 C   0  0  0  0  0  0  0  0  0  0  0  0
   26.4244  -18.6425  -11.5374 O   0  0  0  0  0  0  0  0  0  0  0  0
   20.9029  -20.5979  -11.8353 C   0  0  0  0  0  0  0  0  0  0  0  0
   22.1381  -20.4419  -11.0103 C   0  0  0  0  0  0  0  0  0  0  0  0
   23.4186  -20.8547  -11.6545 C   0  0  2  0  0  0  0  0  0  0  0  0
   23.3677  -22.3340  -12.0706 C   0  0  0  0  0  0  0  0  0  0  0  0
   24.6505  -20.6021  -10.8882 C   0  0  2  0  0  0  0  0  0  0  0  0
   25.9090  -20.8659  -11.5047 N   0  0  0  0  0  0  0  0  0  0  0  0
   24.5638  -21.1098   -9.4637 C   0  0  0  0  0  0  0  0  0  0  0  0
   23.5948  -20.8706   -8.7341 O   0  0  0  0  0  0  0  0  0  0  0  0
   25.6456  -21.8630   -9.0395 O   0  0  0  0  0  0  0  0  0  0  0  0
  1  2  1  0
  2 12  2  0
  3  4  2  0
  3  2  1  0
  4  5  1  0
  5  6  1  0
  5 11  2  0
  7  8  1  6
  7  6  1  0
  9  7  1  0
  9 10  2  0
 12 11  1  0
 13 14  1  0
 14 15  2  0
 16 17  1  0
 16 14  1  0
 18 17  1  1
 18 19  1  0
 18 20  1  0
 19  9  1  0
 20 27  1  0
 21 20  2  0
 22 23  1  0
 23 24  1  0
 24 25  1  1
 24 26  1  0
 26 28  1  0
 26 27  1  6
 28 29  2  0
 28 30  1  0
M  END
$$$$
