YQI.pdb
     RDKit          3D

 30 30  0  0  1  0  0  0  0  0999 V2000
   16.4539  -15.9268  -20.6611 O   0  0  0  0  0  0  0  0  0  0  0  0
   16.7535  -14.7933  -19.8965 C   0  0  0  0  0  0  0  0  0  0  0  0
   17.2859  -13.6852  -20.5186 C   0  0  0  0  0  0  0  0  0  0  0  0
   17.5810  -12.5669  -19.7563 C   0  0  0  0  0  0  0  0  0  0  0  0
   17.3585  -12.5267  -18.3910 C   0  0  0  0  0  0  0  0  0  0  0  0
   17.6978  -11.2708  -17.6663 C   0  0  0  0  0  0  0  0  0  0  0  0
   19.1776  -11.2638  -17.4493 C   0  0  2  0  0  0  0  0  0  0  0  0
   19.5755  -12.3631  -16.5735 N   0  0  0  0  0  0  0  0  0  0  0  0
   19.7001   -9.9771  -16.8864 C   0  0  0  0  0  0  0  0  0  0  0  0
   19.4120   -9.5820  -15.7476 O   0  0  0  0  0  0  0  0  0  0  0  0
   16.8270  -13.6411  -17.7888 C   0  0  0  0  0  0  0  0  0  0  0  0
   16.5265  -14.7747  -18.5516 C   0  0  0  0  0  0  0  0  0  0  0  0
   25.2048   -7.0405  -18.3087 N   0  0  0  0  0  0  0  0  0  0  0  0
   24.4143   -6.0226  -17.7186 C   0  0  0  0  0  0  0  0  0  0  0  0
   24.9461   -4.9091  -17.4802 O   0  0  0  0  0  0  0  0  0  0  0  0
   23.0034   -6.2589  -17.3840 C   0  0  0  0  0  0  0  0  0  0  0  0
   22.5126   -7.6309  -17.8206 C   0  0  0  0  0  0  0  0  0  0  0  0
   21.1239   -7.8965  -17.2864 C   0  0  2  0  0  0  0  0  0  0  0  0
   20.5676   -9.1534  -17.6808 N   0  0  0  0  0  0  0  0  0  0  0  0
   20.1858   -6.7736  -17.4637 C   0  0  0  0  0  0  0  0  0  0  0  0
   19.8163   -6.3799  -18.6123 O   0  0  0  0  0  0  0  0  0  0  0  0
   14.7894   -4.6156  -16.6497 C   0  0  0  0  0  0  0  0  0  0  0  0
   16.2347   -4.2398  -16.6802 C   0  0  0  0  0  0  0  0  0  0  0  0
   17.2083   -5.3404  -16.4233 C   0  0  2  0  0  0  0  0  0  0  0  0
   16.9776   -5.9596  -15.0351 C   0  0  0  0  0  0  0  0  0  0  0  0
   18.6337   -5.0063  -16.5814 C   0  0  2  0  0  0  0  0  0  0  0  0
   19.6062   -6.0269  -16.3670 N   0  0  0  0  0  0  0  0  0  0  0  0
   18.9974   -3.6871  -15.9318 C   0  0  0  0  0  0  0  0  0  0  0  0
   19.7919   -3.6116  -14.9877 O   0  0  0  0  0  0  0  0  0  0  0  0
   18.3788   -2.5729  -16.4736 O   0  0  0  0  0  0  0  0  0  0  0  0
  1  2  1  0
  2 12  2  0
  3  4  2  0
  3  2  1  0
  4  5  1  0
  5  6  1  0
  5 11  2  0
  7  8  1  1
  7  6  1  0
  9  7  1  0
  9 10  2  0
 12 11  1  0
 13 14  1  0
 14 15  2  0
 16 17  1  0
 16 14  1  0
 18 17  1  6
 18 19  1  0
 18 20  1  0
 19  9  1  0
 20 27  1  0
 21 20  2  0
 22 23  1  0
 23 24  1  0
 24 25  1  1
 24 26  1  0
 26 28  1  0
 26 27  1  1
 28 29  2  0
 28 30  1  0
M  END
$$$$
