YQI.pdb
     RDKit          3D

 30 30  0  0  1  0  0  0  0  0999 V2000
   30.5483  -15.4646  -20.1652 O   0  0  0  0  0  0  0  0  0  0  0  0
   29.6192  -16.0807  -19.3187 C   0  0  0  0  0  0  0  0  0  0  0  0
   28.3599  -16.3670  -19.7990 C   0  0  0  0  0  0  0  0  0  0  0  0
   27.4447  -16.9761  -18.9562 C   0  0  0  0  0  0  0  0  0  0  0  0
   27.7542  -17.3061  -17.6483 C   0  0  0  0  0  0  0  0  0  0  0  0
   26.7026  -17.9708  -16.8298 C   0  0  0  0  0  0  0  0  0  0  0  0
   27.2746  -19.2561  -16.3223 C   0  0  2  0  0  0  0  0  0  0  0  0
   27.5430  -20.1730  -17.4274 N   0  0  0  0  0  0  0  0  0  0  0  0
   26.4081  -19.9470  -15.3138 C   0  0  0  0  0  0  0  0  0  0  0  0
   25.5938  -20.8276  -15.6262 O   0  0  0  0  0  0  0  0  0  0  0  0
   29.0147  -17.0129  -17.1878 C   0  0  0  0  0  0  0  0  0  0  0  0
   29.9447  -16.3975  -18.0326 C   0  0  0  0  0  0  0  0  0  0  0  0
   26.4221  -22.2419  -10.4285 N   0  0  0  0  0  0  0  0  0  0  0  0
   25.3114  -21.4860   -9.9766 C   0  0  0  0  0  0  0  0  0  0  0  0
   24.5118  -22.0166   -9.1650 O   0  0  0  0  0  0  0  0  0  0  0  0
   25.0894  -20.1122  -10.4477 C   0  0  0  0  0  0  0  0  0  0  0  0
   26.1090  -19.6699  -11.4861 C   0  0  0  0  0  0  0  0  0  0  0  0
   25.6633  -20.0658  -12.8751 C   0  0  2  0  0  0  0  0  0  0  0  0
   26.5069  -19.5890  -13.9266 N   0  0  0  0  0  0  0  0  0  0  0  0
   24.2321  -19.8314  -13.1376 C   0  0  0  0  0  0  0  0  0  0  0  0
   23.7374  -18.6633  -13.1776 O   0  0  0  0  0  0  0  0  0  0  0  0
   19.5066  -20.3376  -16.6595 C   0  0  0  0  0  0  0  0  0  0  0  0
   19.9870  -20.2965  -15.2458 C   0  0  0  0  0  0  0  0  0  0  0  0
   21.4180  -20.6549  -15.0244 C   0  0  2  0  0  0  0  0  0  0  0  0
   21.7375  -22.0281  -15.6376 C   0  0  0  0  0  0  0  0  0  0  0  0
   21.8971  -20.6149  -13.6326 C   0  0  2  0  0  0  0  0  0  0  0  0
   23.2718  -20.8895  -13.3713 N   0  0  0  0  0  0  0  0  0  0  0  0
   20.9548  -21.3116  -12.6728 C   0  0  0  0  0  0  0  0  0  0  0  0
   21.3051  -22.2786  -11.9869 O   0  0  0  0  0  0  0  0  0  0  0  0
   19.6751  -20.7854  -12.6170 O   0  0  0  0  0  0  0  0  0  0  0  0
  1  2  1  0
  2 12  2  0
  3  4  2  0
  3  2  1  0
  4  5  1  0
  5  6  1  0
  5 11  2  0
  7  8  1  6
  7  6  1  0
  9  7  1  0
  9 10  2  0
 12 11  1  0
 13 14  1  0
 14 15  2  0
 16 17  1  0
 16 14  1  0
 18 17  1  1
 18 19  1  0
 18 20  1  0
 19  9  1  0
 20 27  1  0
 21 20  2  0
 22 23  1  0
 23 24  1  0
 24 25  1  1
 24 26  1  0
 26 28  1  0
 26 27  1  6
 28 29  2  0
 28 30  1  0
M  END
$$$$
