YQI.pdb
     RDKit          3D

 30 30  0  0  1  0  0  0  0  0999 V2000
   15.2735  -18.0039  -17.6927 O   0  0  0  0  0  0  0  0  0  0  0  0
   16.0693  -18.9124  -16.9852 C   0  0  0  0  0  0  0  0  0  0  0  0
   16.7939  -18.4677  -15.9010 C   0  0  0  0  0  0  0  0  0  0  0  0
   17.5802  -19.3715  -15.2053 C   0  0  0  0  0  0  0  0  0  0  0  0
   17.6611  -20.7057  -15.5638 C   0  0  0  0  0  0  0  0  0  0  0  0
   18.5250  -21.5971  -14.7414 C   0  0  0  0  0  0  0  0  0  0  0  0
   19.8705  -21.6441  -15.3929 C   0  0  2  0  0  0  0  0  0  0  0  0
   19.7923  -22.3124  -16.6896 N   0  0  0  0  0  0  0  0  0  0  0  0
   20.9221  -22.3130  -14.5612 C   0  0  0  0  0  0  0  0  0  0  0  0
   20.7809  -23.4547  -14.0999 O   0  0  0  0  0  0  0  0  0  0  0  0
   16.9312  -21.1301  -16.6474 C   0  0  0  0  0  0  0  0  0  0  0  0
   16.1350  -20.2235  -17.3555 C   0  0  0  0  0  0  0  0  0  0  0  0
   26.0508  -24.3288  -15.9315 N   0  0  0  0  0  0  0  0  0  0  0  0
   25.8240  -22.9562  -16.2035 C   0  0  0  0  0  0  0  0  0  0  0  0
   26.4591  -22.4155  -17.1437 O   0  0  0  0  0  0  0  0  0  0  0  0
   24.8723  -22.1737  -15.4032 C   0  0  0  0  0  0  0  0  0  0  0  0
   24.2076  -22.9915  -14.3064 C   0  0  0  0  0  0  0  0  0  0  0  0
   23.2435  -22.1387  -13.5139 C   0  0  2  0  0  0  0  0  0  0  0  0
   22.1475  -21.6219  -14.2731 N   0  0  0  0  0  0  0  0  0  0  0  0
   23.8938  -21.1150  -12.6764 C   0  0  0  0  0  0  0  0  0  0  0  0
   23.7872  -19.8749  -12.9245 O   0  0  0  0  0  0  0  0  0  0  0  0
   27.0248  -19.2747   -7.6090 C   0  0  0  0  0  0  0  0  0  0  0  0
   26.7672  -19.3206   -9.0795 C   0  0  0  0  0  0  0  0  0  0  0  0
   25.9274  -20.4527   -9.5674 C   0  0  2  0  0  0  0  0  0  0  0  0
   26.4963  -21.7990   -9.0900 C   0  0  0  0  0  0  0  0  0  0  0  0
   25.6814  -20.5101  -11.0181 C   0  0  2  0  0  0  0  0  0  0  0  0
   24.7002  -21.4189  -11.5129 N   0  0  0  0  0  0  0  0  0  0  0  0
   26.9629  -20.5151  -11.8257 C   0  0  0  0  0  0  0  0  0  0  0  0
   27.4447  -21.5522  -12.2953 O   0  0  0  0  0  0  0  0  0  0  0  0
   27.5531  -19.2749  -12.0024 O   0  0  0  0  0  0  0  0  0  0  0  0
  1  2  1  0
  2 12  2  0
  3  4  2  0
  3  2  1  0
  4  5  1  0
  5  6  1  0
  5 11  2  0
  7  8  1  6
  7  6  1  0
  9  7  1  0
  9 10  2  0
 12 11  1  0
 13 14  1  0
 14 15  2  0
 16 17  1  0
 16 14  1  0
 18 17  1  6
 18 19  1  0
 18 20  1  0
 19  9  1  0
 20 27  1  0
 21 20  2  0
 22 23  1  0
 23 24  1  0
 24 25  1  6
 24 26  1  0
 26 28  1  0
 26 27  1  1
 28 29  2  0
 28 30  1  0
M  END
$$$$
