YQI.pdb
     RDKit          3D

 30 30  0  0  1  0  0  0  0  0999 V2000
   28.7827  -20.3954   -7.4089 O   0  0  0  0  0  0  0  0  0  0  0  0
   28.2988  -20.3402   -8.7211 C   0  0  0  0  0  0  0  0  0  0  0  0
   29.1918  -20.1977   -9.7607 C   0  0  0  0  0  0  0  0  0  0  0  0
   28.7067  -20.1430  -11.0570 C   0  0  0  0  0  0  0  0  0  0  0  0
   27.3549  -20.2269  -11.3415 C   0  0  0  0  0  0  0  0  0  0  0  0
   26.9387  -20.1713  -12.7702 C   0  0  0  0  0  0  0  0  0  0  0  0
   26.8777  -21.5778  -13.2750 C   0  0  2  0  0  0  0  0  0  0  0  0
   28.1701  -21.9868  -13.8193 N   0  0  0  0  0  0  0  0  0  0  0  0
   25.8182  -21.8032  -14.3104 C   0  0  0  0  0  0  0  0  0  0  0  0
   25.9836  -21.5211  -15.5058 O   0  0  0  0  0  0  0  0  0  0  0  0
   26.4802  -20.3690  -10.2919 C   0  0  0  0  0  0  0  0  0  0  0  0
   26.9622  -20.4247   -8.9797 C   0  0  0  0  0  0  0  0  0  0  0  0
   22.9178  -27.0590  -15.2023 N   0  0  0  0  0  0  0  0  0  0  0  0
   22.2041  -26.1742  -16.0491 C   0  0  0  0  0  0  0  0  0  0  0  0
   21.4524  -26.6600  -16.9315 O   0  0  0  0  0  0  0  0  0  0  0  0
   22.3399  -24.7180  -15.9082 C   0  0  0  0  0  0  0  0  0  0  0  0
   23.3347  -24.3173  -14.8296 C   0  0  0  0  0  0  0  0  0  0  0  0
   23.5310  -22.8187  -14.8139 C   0  0  2  0  0  0  0  0  0  0  0  0
   24.5540  -22.3643  -13.9242 N   0  0  0  0  0  0  0  0  0  0  0  0
   22.2802  -22.0491  -14.6898 C   0  0  0  0  0  0  0  0  0  0  0  0
   21.7878  -21.7419  -13.5611 O   0  0  0  0  0  0  0  0  0  0  0  0
   19.2863  -17.2286  -17.0209 C   0  0  0  0  0  0  0  0  0  0  0  0
   19.2738  -18.4964  -16.2315 C   0  0  0  0  0  0  0  0  0  0  0  0
   20.4241  -19.4208  -16.4490 C   0  0  2  0  0  0  0  0  0  0  0  0
   20.5806  -19.7547  -17.9416 C   0  0  0  0  0  0  0  0  0  0  0  0
   20.4226  -20.6669  -15.6644 C   0  0  2  0  0  0  0  0  0  0  0  0
   21.5083  -21.5781  -15.8206 N   0  0  0  0  0  0  0  0  0  0  0  0
   19.0685  -21.3456  -15.6534 C   0  0  0  0  0  0  0  0  0  0  0  0
   18.0422  -20.7682  -15.2770 O   0  0  0  0  0  0  0  0  0  0  0  0
   19.0628  -22.6571  -16.0980 O   0  0  0  0  0  0  0  0  0  0  0  0
  1  2  1  0
  2 12  2  0
  3  4  2  0
  3  2  1  0
  4  5  1  0
  5  6  1  0
  5 11  2  0
  7  8  1  6
  7  6  1  0
  9  7  1  0
  9 10  2  0
 12 11  1  0
 13 14  1  0
 14 15  2  0
 16 17  1  0
 16 14  1  0
 18 17  1  1
 18 19  1  0
 18 20  1  0
 19  9  1  0
 20 27  1  0
 21 20  2  0
 22 23  1  0
 23 24  1  0
 24 25  1  6
 24 26  1  0
 26 28  1  0
 26 27  1  6
 28 29  2  0
 28 30  1  0
M  END
$$$$
