YQI.pdb
     RDKit          3D

 30 30  0  0  1  0  0  0  0  0999 V2000
   29.9176  -15.5050  -18.9259 O   0  0  0  0  0  0  0  0  0  0  0  0
   29.2227  -16.0068  -17.8192 C   0  0  0  0  0  0  0  0  0  0  0  0
   28.1874  -15.2704  -17.2862 C   0  0  0  0  0  0  0  0  0  0  0  0
   27.5040  -15.7719  -16.1906 C   0  0  0  0  0  0  0  0  0  0  0  0
   27.8274  -16.9880  -15.6146 C   0  0  0  0  0  0  0  0  0  0  0  0
   27.0214  -17.4427  -14.4479 C   0  0  0  0  0  0  0  0  0  0  0  0
   26.1388  -18.5547  -14.9183 C   0  0  2  0  0  0  0  0  0  0  0  0
   25.1399  -18.0567  -15.8608 N   0  0  0  0  0  0  0  0  0  0  0  0
   25.4432  -19.2847  -13.8098 C   0  0  0  0  0  0  0  0  0  0  0  0
   24.5147  -18.7824  -13.1605 O   0  0  0  0  0  0  0  0  0  0  0  0
   28.8625  -17.7077  -16.1602 C   0  0  0  0  0  0  0  0  0  0  0  0
   29.5578  -17.2079  -17.2665 C   0  0  0  0  0  0  0  0  0  0  0  0
   24.2063  -25.4233  -13.5973 N   0  0  0  0  0  0  0  0  0  0  0  0
   23.2965  -24.3611  -13.8279 C   0  0  0  0  0  0  0  0  0  0  0  0
   22.1875  -24.6223  -14.3584 O   0  0  0  0  0  0  0  0  0  0  0  0
   23.6384  -22.9796  -13.4627 C   0  0  0  0  0  0  0  0  0  0  0  0
   25.0172  -22.8574  -12.8321 C   0  0  0  0  0  0  0  0  0  0  0  0
   25.2959  -21.4273  -12.4300 C   0  0  2  0  0  0  0  0  0  0  0  0
   25.8538  -20.6178  -13.4684 N   0  0  0  0  0  0  0  0  0  0  0  0
   26.0127  -21.2909  -11.1494 C   0  0  0  0  0  0  0  0  0  0  0  0
   27.1585  -21.8031  -10.9612 O   0  0  0  0  0  0  0  0  0  0  0  0
   28.6163  -19.5560   -6.2012 C   0  0  0  0  0  0  0  0  0  0  0  0
   27.5071  -20.3869   -6.7581 C   0  0  0  0  0  0  0  0  0  0  0  0
   27.0149  -20.0074   -8.1141 C   0  0  2  0  0  0  0  0  0  0  0  0
   26.5906  -18.5299   -8.1465 C   0  0  0  0  0  0  0  0  0  0  0  0
   25.9397  -20.8398   -8.6792 C   0  0  2  0  0  0  0  0  0  0  0  0
   25.4899  -20.5732  -10.0058 N   0  0  0  0  0  0  0  0  0  0  0  0
   24.8084  -21.0726   -7.6992 C   0  0  0  0  0  0  0  0  0  0  0  0
   25.0088  -21.3755   -6.5175 O   0  0  0  0  0  0  0  0  0  0  0  0
   23.5351  -20.9185   -8.2213 O   0  0  0  0  0  0  0  0  0  0  0  0
  1  2  1  0
  2 12  2  0
  3  4  2  0
  3  2  1  0
  4  5  1  0
  5  6  1  0
  5 11  2  0
  7  8  1  6
  7  6  1  0
  9  7  1  0
  9 10  2  0
 12 11  1  0
 13 14  1  0
 14 15  2  0
 16 17  1  0
 16 14  1  0
 18 17  1  6
 18 19  1  0
 18 20  1  0
 19  9  1  0
 20 27  1  0
 21 20  2  0
 22 23  1  0
 23 24  1  0
 24 25  1  1
 24 26  1  0
 26 28  1  0
 26 27  1  6
 28 29  2  0
 28 30  1  0
M  END
$$$$
