YQI.pdb
     RDKit          3D

 30 30  0  0  1  0  0  0  0  0999 V2000
   23.5942  -21.2568   -7.5709 O   0  0  0  0  0  0  0  0  0  0  0  0
   24.1149  -21.0745   -8.8574 C   0  0  0  0  0  0  0  0  0  0  0  0
   25.3740  -21.5537   -9.1462 C   0  0  0  0  0  0  0  0  0  0  0  0
   25.8841  -21.3695  -10.4208 C   0  0  0  0  0  0  0  0  0  0  0  0
   25.1703  -20.7203  -11.4129 C   0  0  0  0  0  0  0  0  0  0  0  0
   25.8043  -20.5866  -12.7537 C   0  0  0  0  0  0  0  0  0  0  0  0
   24.8656  -21.1807  -13.7552 C   0  0  2  0  0  0  0  0  0  0  0  0
   24.7087  -22.6151  -13.5272 N   0  0  0  0  0  0  0  0  0  0  0  0
   25.2771  -20.9544  -15.1781 C   0  0  0  0  0  0  0  0  0  0  0  0
   25.7336  -21.8588  -15.8920 O   0  0  0  0  0  0  0  0  0  0  0  0
   23.9167  -20.2498  -11.1059 C   0  0  0  0  0  0  0  0  0  0  0  0
   23.3945  -20.4315   -9.8208 C   0  0  0  0  0  0  0  0  0  0  0  0
   23.5017  -22.2921  -19.3962 N   0  0  0  0  0  0  0  0  0  0  0  0
   22.7250  -21.2541  -18.8230 C   0  0  0  0  0  0  0  0  0  0  0  0
   21.4730  -21.3194  -18.9116 O   0  0  0  0  0  0  0  0  0  0  0  0
   23.3635  -20.1188  -18.1433 C   0  0  0  0  0  0  0  0  0  0  0  0
   24.8824  -20.2005  -18.1528 C   0  0  0  0  0  0  0  0  0  0  0  0
   25.4731  -19.2884  -17.1022 C   0  0  2  0  0  0  0  0  0  0  0  0
   25.1484  -19.6462  -15.7564 N   0  0  0  0  0  0  0  0  0  0  0  0
   25.2822  -17.8527  -17.3755 C   0  0  0  0  0  0  0  0  0  0  0  0
   24.2428  -17.2283  -17.0006 O   0  0  0  0  0  0  0  0  0  0  0  0
   26.9610  -13.1002  -15.5615 C   0  0  0  0  0  0  0  0  0  0  0  0
   27.3755  -13.5659  -16.9187 C   0  0  0  0  0  0  0  0  0  0  0  0
   27.4067  -15.0424  -17.1288 C   0  0  2  0  0  0  0  0  0  0  0  0
   28.7471  -15.4776  -17.7435 C   0  0  0  0  0  0  0  0  0  0  0  0
   26.2985  -15.6181  -17.9091 C   0  0  2  0  0  0  0  0  0  0  0  0
   26.2429  -17.0324  -18.0829 N   0  0  0  0  0  0  0  0  0  0  0  0
   26.0226  -14.8473  -19.1836 C   0  0  0  0  0  0  0  0  0  0  0  0
   26.0960  -13.6146  -19.2401 O   0  0  0  0  0  0  0  0  0  0  0  0
   25.6858  -15.6229  -20.2803 O   0  0  0  0  0  0  0  0  0  0  0  0
  1  2  1  0
  2 12  2  0
  3  4  2  0
  3  2  1  0
  4  5  1  0
  5  6  1  0
  5 11  2  0
  7  8  1  1
  7  6  1  0
  9  7  1  0
  9 10  2  0
 12 11  1  0
 13 14  1  0
 14 15  2  0
 16 17  1  0
 16 14  1  0
 18 17  1  6
 18 19  1  0
 18 20  1  0
 19  9  1  0
 20 27  1  0
 21 20  2  0
 22 23  1  0
 23 24  1  0
 24 25  1  6
 24 26  1  0
 26 28  1  0
 26 27  1  6
 28 29  2  0
 28 30  1  0
M  END
$$$$
