AFY.pdb
     RDKit          3D

 29 30  0  0  1  0  0  0  0  0999 V2000
   10.4188  -18.2917   19.8042 C   0  0  0  0  0  0  0  0  0  0  0  0
   10.0409  -16.8657   19.4390 C   0  0  2  0  0  0  0  0  0  0  0  0
   11.0439  -16.2872   18.5701 N   0  0  0  0  0  0  0  0  0  0  0  0
    9.8888  -16.0369   20.6427 C   0  0  0  0  0  0  0  0  0  0  0  0
   10.9234  -15.4360   21.0867 O   0  0  0  0  0  0  0  0  0  0  0  0
    8.6474  -15.8715   21.3365 N   0  0  0  0  0  0  0  0  0  0  0  0
    8.5302  -15.0008   22.4889 C   0  0  1  0  0  0  0  0  0  0  0  0
    7.1321  -14.5132   22.7030 C   0  0  0  0  0  0  0  0  0  0  0  0
    7.0455  -13.7652   23.9641 C   0  0  0  0  0  0  0  0  0  0  0  0
    6.3585  -14.2773   25.0286 C   0  0  0  0  0  0  0  0  0  0  0  0
    6.3067  -13.5340   26.1932 C   0  0  0  0  0  0  0  0  0  0  0  0
    6.9309  -12.3108   26.2771 C   0  0  0  0  0  0  0  0  0  0  0  0
    7.6237  -11.8036   25.1910 C   0  0  0  0  0  0  0  0  0  0  0  0
    7.6840  -12.5339   24.0224 C   0  0  0  0  0  0  0  0  0  0  0  0
    9.0110  -15.7404   23.6993 C   0  0  0  0  0  0  0  0  0  0  0  0
    8.7754  -16.9677   23.8319 O   0  0  0  0  0  0  0  0  0  0  0  0
   12.0153  -17.1496   31.9256 O   0  0  0  0  0  0  0  0  0  0  0  0
   11.6908  -16.5549   30.6973 C   0  0  0  0  0  0  0  0  0  0  0  0
   10.9089  -15.4147   30.6409 C   0  0  0  0  0  0  0  0  0  0  0  0
   10.6020  -14.8463   29.4250 C   0  0  0  0  0  0  0  0  0  0  0  0
   11.0544  -15.3801   28.2125 C   0  0  0  0  0  0  0  0  0  0  0  0
   10.7163  -14.7769   26.9214 C   0  0  0  0  0  0  0  0  0  0  0  0
   10.2508  -15.7968   25.9080 C   0  0  2  0  0  0  0  0  0  0  0  0
    9.7398  -15.1053   24.7323 N   0  0  0  0  0  0  0  0  0  0  0  0
    9.1840  -16.6823   26.4078 C   0  0  0  0  0  0  0  0  0  0  0  0
    7.8869  -16.2291   26.5623 O   0  0  0  0  0  0  0  0  0  0  0  0
   11.8389  -16.5254   28.2786 C   0  0  0  0  0  0  0  0  0  0  0  0
   12.1369  -17.0816   29.5048 C   0  0  0  0  0  0  0  0  0  0  0  0
    9.4346  -17.8709   26.7053 O   0  0  0  0  0  0  0  0  0  0  0  0
  2  1  1  1
  2  3  1  0
  4  2  1  0
  5  4  2  0
  6  4  1  0
  7  6  1  0
  7  8  1  1
  9 14  1  0
  9  8  1  0
 10  9  2  0
 11 12  2  0
 11 10  1  0
 12 13  1  0
 13 14  2  0
 15 24  1  0
 15  7  1  0
 16 15  2  0
 18 17  1  0
 19 18  2  0
 20 19  1  0
 21 20  2  0
 21 27  1  0
 23 22  1  1
 22 21  1  0
 23 25  1  0
 23 24  1  0
 25 26  1  0
 27 28  2  0
 28 18  1  0
 29 25  2  0
M  END
$$$$
