AFY.pdb
     RDKit          3D

 29 30  0  0  1  0  0  0  0  0999 V2000
   10.2664  -21.0493   21.4352 C   0  0  0  0  0  0  0  0  0  0  0  0
    8.9470  -20.4202   21.0189 C   0  0  2  0  0  0  0  0  0  0  0  0
    8.5279  -20.9367   19.7332 N   0  0  0  0  0  0  0  0  0  0  0  0
    9.0595  -18.9566   20.9536 C   0  0  0  0  0  0  0  0  0  0  0  0
   10.1712  -18.4612   20.5695 O   0  0  0  0  0  0  0  0  0  0  0  0
    7.9924  -18.0660   21.2966 N   0  0  0  0  0  0  0  0  0  0  0  0
    8.1451  -16.6274   21.2117 C   0  0  1  0  0  0  0  0  0  0  0  0
    6.8983  -15.9418   20.7495 C   0  0  0  0  0  0  0  0  0  0  0  0
    7.1392  -14.5003   20.6026 C   0  0  0  0  0  0  0  0  0  0  0  0
    7.6628  -13.9989   19.4443 C   0  0  0  0  0  0  0  0  0  0  0  0
    7.8706  -12.6349   19.3563 C   0  0  0  0  0  0  0  0  0  0  0  0
    7.5580  -11.8049   20.4082 C   0  0  0  0  0  0  0  0  0  0  0  0
    7.0281  -12.3261   21.5762 C   0  0  0  0  0  0  0  0  0  0  0  0
    6.8152  -13.6851   21.6786 C   0  0  0  0  0  0  0  0  0  0  0  0
    8.5527  -16.1085   22.5562 C   0  0  0  0  0  0  0  0  0  0  0  0
    7.7512  -15.4315   23.2481 O   0  0  0  0  0  0  0  0  0  0  0  0
   11.1388  -14.3766   30.5690 O   0  0  0  0  0  0  0  0  0  0  0  0
   10.6889  -14.7722   29.3007 C   0  0  0  0  0  0  0  0  0  0  0  0
   10.3332  -13.8363   28.3456 C   0  0  0  0  0  0  0  0  0  0  0  0
    9.8941  -14.2456   27.1065 C   0  0  0  0  0  0  0  0  0  0  0  0
    9.7875  -15.5972   26.7577 C   0  0  0  0  0  0  0  0  0  0  0  0
    9.3102  -16.0268   25.4415 C   0  0  0  0  0  0  0  0  0  0  0  0
   10.3135  -15.7581   24.3437 C   0  0  2  0  0  0  0  0  0  0  0  0
    9.8353  -16.3506   23.1020 N   0  0  0  0  0  0  0  0  0  0  0  0
   11.6522  -16.3097   24.6187 C   0  0  0  0  0  0  0  0  0  0  0  0
   11.9056  -17.6653   24.5196 O   0  0  0  0  0  0  0  0  0  0  0  0
   10.1466  -16.5302   27.7232 C   0  0  0  0  0  0  0  0  0  0  0  0
   10.5844  -16.1030   28.9591 C   0  0  0  0  0  0  0  0  0  0  0  0
   12.5926  -15.5550   24.9508 O   0  0  0  0  0  0  0  0  0  0  0  0
  2  1  1  6
  2  3  1  0
  4  2  1  0
  5  4  2  0
  6  4  1  0
  7  6  1  0
  7  8  1  1
  9 14  1  0
  9  8  1  0
 10  9  2  0
 11 12  2  0
 11 10  1  0
 12 13  1  0
 13 14  2  0
 15 24  1  0
 15  7  1  0
 16 15  2  0
 18 17  1  0
 19 18  2  0
 20 19  1  0
 21 20  2  0
 21 27  1  0
 23 22  1  1
 22 21  1  0
 23 25  1  0
 23 24  1  0
 25 26  1  0
 27 28  2  0
 28 18  1  0
 29 25  2  0
M  END
$$$$
