AFY.pdb
     RDKit          3D

 29 30  0  0  1  0  0  0  0  0999 V2000
    7.0732  -19.5545   23.7413 C   0  0  0  0  0  0  0  0  0  0  0  0
    6.3443  -18.4308   23.0233 C   0  0  2  0  0  0  0  0  0  0  0  0
    5.7895  -18.9093   21.7748 N   0  0  0  0  0  0  0  0  0  0  0  0
    7.2456  -17.2995   22.7651 C   0  0  0  0  0  0  0  0  0  0  0  0
    7.7048  -17.1617   21.5824 O   0  0  0  0  0  0  0  0  0  0  0  0
    7.6312  -16.3519   23.7666 N   0  0  0  0  0  0  0  0  0  0  0  0
    8.4634  -15.2082   23.4514 C   0  0  1  0  0  0  0  0  0  0  0  0
    8.7471  -14.3549   24.6470 C   0  0  0  0  0  0  0  0  0  0  0  0
    7.5516  -13.5836   25.0123 C   0  0  0  0  0  0  0  0  0  0  0  0
    7.3605  -12.3243   24.5175 C   0  0  0  0  0  0  0  0  0  0  0  0
    6.2190  -11.6400   24.8917 C   0  0  0  0  0  0  0  0  0  0  0  0
    5.3000  -12.2130   25.7403 C   0  0  0  0  0  0  0  0  0  0  0  0
    5.5060  -13.4897   26.2345 C   0  0  0  0  0  0  0  0  0  0  0  0
    6.6403  -14.1846   25.8699 C   0  0  0  0  0  0  0  0  0  0  0  0
    9.7445  -15.6987   22.8503 C   0  0  0  0  0  0  0  0  0  0  0  0
   10.1231  -15.2807   21.7272 O   0  0  0  0  0  0  0  0  0  0  0  0
   11.6515  -15.6361   31.1911 O   0  0  0  0  0  0  0  0  0  0  0  0
   11.2408  -15.7310   29.8533 C   0  0  0  0  0  0  0  0  0  0  0  0
   10.9789  -16.9593   29.2725 C   0  0  0  0  0  0  0  0  0  0  0  0
   10.5767  -17.0307   27.9577 C   0  0  0  0  0  0  0  0  0  0  0  0
   10.4159  -15.8915   27.1600 C   0  0  0  0  0  0  0  0  0  0  0  0
    9.9974  -15.9743   25.7590 C   0  0  0  0  0  0  0  0  0  0  0  0
   11.1046  -16.4549   24.8495 C   0  0  2  0  0  0  0  0  0  0  0  0
   10.5747  -16.6386   23.5053 N   0  0  0  0  0  0  0  0  0  0  0  0
   11.7057  -17.7318   25.2742 C   0  0  0  0  0  0  0  0  0  0  0  0
   11.1201  -18.9432   24.9561 O   0  0  0  0  0  0  0  0  0  0  0  0
   10.6813  -14.6621   27.7514 C   0  0  0  0  0  0  0  0  0  0  0  0
   11.0831  -14.6088   29.0695 C   0  0  0  0  0  0  0  0  0  0  0  0
   12.7661  -17.7434   25.9373 O   0  0  0  0  0  0  0  0  0  0  0  0
  2  1  1  6
  2  3  1  0
  4  2  1  0
  5  4  2  0
  6  4  1  0
  7  6  1  0
  7  8  1  1
  9 14  1  0
  9  8  1  0
 10  9  2  0
 11 12  2  0
 11 10  1  0
 12 13  1  0
 13 14  2  0
 15 24  1  0
 15  7  1  0
 16 15  2  0
 18 17  1  0
 19 18  2  0
 20 19  1  0
 21 20  2  0
 21 27  1  0
 23 22  1  1
 22 21  1  0
 23 25  1  0
 23 24  1  0
 25 26  1  0
 27 28  2  0
 28 18  1  0
 29 25  2  0
M  END
$$$$
