AFY.pdb
     RDKit          3D

 29 30  0  0  1  0  0  0  0  0999 V2000
    6.6887  -19.3441   22.3804 C   0  0  0  0  0  0  0  0  0  0  0  0
    6.9572  -18.4222   21.2024 C   0  0  2  0  0  0  0  0  0  0  0  0
    7.2586  -19.1966   20.0171 N   0  0  0  0  0  0  0  0  0  0  0  0
    8.0689  -17.5066   21.4935 C   0  0  0  0  0  0  0  0  0  0  0  0
    9.2317  -17.8311   21.0796 O   0  0  0  0  0  0  0  0  0  0  0  0
    7.9135  -16.2786   22.2128 N   0  0  0  0  0  0  0  0  0  0  0  0
    9.0530  -15.4603   22.5760 C   0  0  1  0  0  0  0  0  0  0  0  0
    8.8039  -14.0000   22.3672 C   0  0  0  0  0  0  0  0  0  0  0  0
    8.3762  -13.7532   20.9839 C   0  0  0  0  0  0  0  0  0  0  0  0
    7.0587  -13.5372   20.6931 C   0  0  0  0  0  0  0  0  0  0  0  0
    6.7077  -13.3097   19.3753 C   0  0  0  0  0  0  0  0  0  0  0  0
    7.6612  -13.3012   18.3833 C   0  0  0  0  0  0  0  0  0  0  0  0
    8.9927  -13.5215   18.6918 C   0  0  0  0  0  0  0  0  0  0  0  0
    9.3579  -13.7498   20.0021 C   0  0  0  0  0  0  0  0  0  0  0  0
    9.3969  -15.7266   24.0092 C   0  0  0  0  0  0  0  0  0  0  0  0
   10.3966  -15.1779   24.5376 O   0  0  0  0  0  0  0  0  0  0  0  0
    6.8577  -10.8170   27.1638 O   0  0  0  0  0  0  0  0  0  0  0  0
    7.0537  -12.2056   27.1288 C   0  0  0  0  0  0  0  0  0  0  0  0
    6.0600  -13.0554   26.6758 C   0  0  0  0  0  0  0  0  0  0  0  0
    6.2725  -14.4154   26.6494 C   0  0  0  0  0  0  0  0  0  0  0  0
    7.4759  -14.9945   27.0694 C   0  0  0  0  0  0  0  0  0  0  0  0
    7.6926  -16.4428   27.0484 C   0  0  0  0  0  0  0  0  0  0  0  0
    8.9013  -16.8374   26.2316 C   0  0  2  0  0  0  0  0  0  0  0  0
    8.6278  -16.5922   24.8220 N   0  0  0  0  0  0  0  0  0  0  0  0
    9.2754  -18.2555   26.3769 C   0  0  0  0  0  0  0  0  0  0  0  0
    9.8194  -18.7388   27.5525 O   0  0  0  0  0  0  0  0  0  0  0  0
    8.4682  -14.1335   27.5230 C   0  0  0  0  0  0  0  0  0  0  0  0
    8.2387  -12.7739   27.5426 C   0  0  0  0  0  0  0  0  0  0  0  0
    9.1073  -19.0554   25.4303 O   0  0  0  0  0  0  0  0  0  0  0  0
  2  1  1  1
  2  3  1  0
  4  2  1  0
  5  4  2  0
  6  4  1  0
  7  6  1  0
  7  8  1  1
  9 14  1  0
  9  8  1  0
 10  9  2  0
 11 12  2  0
 11 10  1  0
 12 13  1  0
 13 14  2  0
 15 24  1  0
 15  7  1  0
 16 15  2  0
 18 17  1  0
 19 18  2  0
 20 19  1  0
 21 20  2  0
 21 27  1  0
 23 22  1  1
 22 21  1  0
 23 25  1  0
 23 24  1  0
 25 26  1  0
 27 28  2  0
 28 18  1  0
 29 25  2  0
M  END
$$$$
