AFY.pdb
     RDKit          3D

 29 30  0  0  1  0  0  0  0  0999 V2000
    9.6541  -18.4371   19.7056 C   0  0  0  0  0  0  0  0  0  0  0  0
    9.2867  -17.0007   19.3719 C   0  0  2  0  0  0  0  0  0  0  0  0
   10.2406  -16.4425   18.4369 N   0  0  0  0  0  0  0  0  0  0  0  0
    9.2390  -16.1742   20.5858 C   0  0  0  0  0  0  0  0  0  0  0  0
   10.3286  -15.6475   20.9909 O   0  0  0  0  0  0  0  0  0  0  0  0
    8.0405  -15.9325   21.3306 N   0  0  0  0  0  0  0  0  0  0  0  0
    8.0357  -15.0952   22.5134 C   0  0  1  0  0  0  0  0  0  0  0  0
    6.6582  -14.6692   22.9124 C   0  0  0  0  0  0  0  0  0  0  0  0
    6.7228  -13.7773   24.0777 C   0  0  0  0  0  0  0  0  0  0  0  0
    7.1420  -12.4842   23.9391 C   0  0  0  0  0  0  0  0  0  0  0  0
    7.1850  -11.6854   25.0667 C   0  0  0  0  0  0  0  0  0  0  0  0
    6.8151  -12.1807   26.2959 C   0  0  0  0  0  0  0  0  0  0  0  0
    6.3923  -13.4930   26.4222 C   0  0  0  0  0  0  0  0  0  0  0  0
    6.3442  -14.3018   25.3060 C   0  0  0  0  0  0  0  0  0  0  0  0
    8.6903  -15.8439   23.6333 C   0  0  0  0  0  0  0  0  0  0  0  0
    8.4751  -17.0720   23.7907 O   0  0  0  0  0  0  0  0  0  0  0  0
   11.9487  -17.0660   31.7733 O   0  0  0  0  0  0  0  0  0  0  0  0
   11.6002  -16.5253   30.5267 C   0  0  0  0  0  0  0  0  0  0  0  0
   11.9929  -17.1362   29.3489 C   0  0  0  0  0  0  0  0  0  0  0  0
   11.6404  -16.5893   28.1355 C   0  0  0  0  0  0  0  0  0  0  0  0
   10.8847  -15.4152   28.0336 C   0  0  0  0  0  0  0  0  0  0  0  0
   10.5212  -14.8326   26.7401 C   0  0  0  0  0  0  0  0  0  0  0  0
   10.1199  -15.8775   25.7246 C   0  0  2  0  0  0  0  0  0  0  0  0
    9.5660  -15.2168   24.5506 N   0  0  0  0  0  0  0  0  0  0  0  0
    9.1109  -16.8291   26.2229 C   0  0  0  0  0  0  0  0  0  0  0  0
    7.8261  -16.4202   26.5288 O   0  0  0  0  0  0  0  0  0  0  0  0
   10.4949  -14.8083   29.2216 C   0  0  0  0  0  0  0  0  0  0  0  0
   10.8565  -15.3696   30.4282 C   0  0  0  0  0  0  0  0  0  0  0  0
    9.4011  -18.0353   26.3810 O   0  0  0  0  0  0  0  0  0  0  0  0
  2  1  1  1
  2  3  1  0
  4  2  1  0
  5  4  2  0
  6  4  1  0
  7  6  1  0
  7  8  1  1
  9 14  1  0
  9  8  1  0
 10  9  2  0
 11 12  2  0
 11 10  1  0
 12 13  1  0
 13 14  2  0
 15 24  1  0
 15  7  1  0
 16 15  2  0
 18 17  1  0
 19 18  2  0
 20 19  1  0
 21 20  2  0
 21 27  1  0
 23 22  1  1
 22 21  1  0
 23 25  1  0
 23 24  1  0
 25 26  1  0
 27 28  2  0
 28 18  1  0
 29 25  2  0
M  END
$$$$
