AFY.pdb
     RDKit          3D

 29 30  0  0  1  0  0  0  0  0999 V2000
    8.7643  -20.2948   19.5653 C   0  0  0  0  0  0  0  0  0  0  0  0
    8.5729  -18.9093   18.9707 C   0  0  2  0  0  0  0  0  0  0  0  0
    9.0984  -18.8644   17.6226 N   0  0  0  0  0  0  0  0  0  0  0  0
    9.2321  -17.8873   19.7951 C   0  0  0  0  0  0  0  0  0  0  0  0
   10.4491  -17.6054   19.5340 O   0  0  0  0  0  0  0  0  0  0  0  0
    8.5821  -17.1976   20.8681 N   0  0  0  0  0  0  0  0  0  0  0  0
    9.3162  -16.3397   21.7765 C   0  0  1  0  0  0  0  0  0  0  0  0
    8.4448  -15.3170   22.4344 C   0  0  0  0  0  0  0  0  0  0  0  0
    7.8531  -14.4314   21.4228 C   0  0  0  0  0  0  0  0  0  0  0  0
    6.6075  -14.6855   20.9216 C   0  0  0  0  0  0  0  0  0  0  0  0
    6.0955  -13.8217   19.9713 C   0  0  0  0  0  0  0  0  0  0  0  0
    6.8220  -12.7350   19.5421 C   0  0  0  0  0  0  0  0  0  0  0  0
    8.0830  -12.4892   20.0582 C   0  0  0  0  0  0  0  0  0  0  0  0
    8.6069  -13.3423   21.0070 C   0  0  0  0  0  0  0  0  0  0  0  0
    9.9816  -17.1946   22.8106 C   0  0  0  0  0  0  0  0  0  0  0  0
    9.4261  -18.2431   23.2248 O   0  0  0  0  0  0  0  0  0  0  0  0
   16.1732  -22.7132   25.0910 O   0  0  0  0  0  0  0  0  0  0  0  0
   15.2947  -21.7529   24.5678 C   0  0  0  0  0  0  0  0  0  0  0  0
   13.9253  -21.9497   24.5927 C   0  0  0  0  0  0  0  0  0  0  0  0
   13.0801  -20.9946   24.0740 C   0  0  0  0  0  0  0  0  0  0  0  0
   13.5515  -19.8040   23.5083 C   0  0  0  0  0  0  0  0  0  0  0  0
   12.6481  -18.7961   22.9489 C   0  0  0  0  0  0  0  0  0  0  0  0
   12.1261  -17.8391   23.9957 C   0  0  2  0  0  0  0  0  0  0  0  0
   11.2438  -16.8695   23.3609 N   0  0  0  0  0  0  0  0  0  0  0  0
   13.1868  -17.0918   24.6946 C   0  0  0  0  0  0  0  0  0  0  0  0
   13.6374  -17.4805   25.9426 O   0  0  0  0  0  0  0  0  0  0  0  0
   14.9283  -19.6149   23.4873 C   0  0  0  0  0  0  0  0  0  0  0  0
   15.7604  -20.5817   24.0113 C   0  0  0  0  0  0  0  0  0  0  0  0
   13.7031  -16.0820   24.1675 O   0  0  0  0  0  0  0  0  0  0  0  0
  2  1  1  1
  2  3  1  0
  4  2  1  0
  5  4  2  0
  6  4  1  0
  7  6  1  0
  7  8  1  1
  9 14  1  0
  9  8  1  0
 10  9  2  0
 11 12  2  0
 11 10  1  0
 12 13  1  0
 13 14  2  0
 15 24  1  0
 15  7  1  0
 16 15  2  0
 18 17  1  0
 19 18  2  0
 20 19  1  0
 21 20  2  0
 21 27  1  0
 23 22  1  6
 22 21  1  0
 23 25  1  0
 23 24  1  0
 25 26  1  0
 27 28  2  0
 28 18  1  0
 29 25  2  0
M  END
$$$$
