AFY.pdb
     RDKit          3D

 29 30  0  0  1  0  0  0  0  0999 V2000
    8.3474  -17.3461   18.7555 C   0  0  0  0  0  0  0  0  0  0  0  0
    9.0031  -17.5943   20.1038 C   0  0  2  0  0  0  0  0  0  0  0  0
    8.3573  -18.6992   20.7805 N   0  0  0  0  0  0  0  0  0  0  0  0
    8.9439  -16.3925   20.9470 C   0  0  0  0  0  0  0  0  0  0  0  0
    9.6055  -15.3680   20.5711 O   0  0  0  0  0  0  0  0  0  0  0  0
    8.1867  -16.3144   22.1595 N   0  0  0  0  0  0  0  0  0  0  0  0
    8.0841  -15.0816   22.9143 C   0  0  1  0  0  0  0  0  0  0  0  0
    6.7836  -14.9590   23.6437 C   0  0  0  0  0  0  0  0  0  0  0  0
    6.8300  -13.8208   24.5710 C   0  0  0  0  0  0  0  0  0  0  0  0
    7.1848  -12.5782   24.1270 C   0  0  0  0  0  0  0  0  0  0  0  0
    7.2130  -11.5401   25.0398 C   0  0  0  0  0  0  0  0  0  0  0  0
    6.8921  -11.7539   26.3605 C   0  0  0  0  0  0  0  0  0  0  0  0
    6.5343  -13.0181   26.7971 C   0  0  0  0  0  0  0  0  0  0  0  0
    6.5016  -14.0635   25.8979 C   0  0  0  0  0  0  0  0  0  0  0  0
    9.2270  -15.0142   23.8798 C   0  0  0  0  0  0  0  0  0  0  0  0
    9.1000  -14.4155   24.9775 O   0  0  0  0  0  0  0  0  0  0  0  0
   10.4338  -14.5849   30.8168 O   0  0  0  0  0  0  0  0  0  0  0  0
   10.5180  -15.1671   29.5433 C   0  0  0  0  0  0  0  0  0  0  0  0
   10.8442  -16.5030   29.3896 C   0  0  0  0  0  0  0  0  0  0  0  0
   10.9215  -17.0553   28.1308 C   0  0  0  0  0  0  0  0  0  0  0  0
   10.6799  -16.3114   26.9696 C   0  0  0  0  0  0  0  0  0  0  0  0
   10.7735  -16.9019   25.6326 C   0  0  0  0  0  0  0  0  0  0  0  0
   11.4424  -15.9823   24.6371 C   0  0  2  0  0  0  0  0  0  0  0  0
   10.4812  -15.6098   23.6080 N   0  0  0  0  0  0  0  0  0  0  0  0
   12.6081  -16.5850   23.9665 C   0  0  0  0  0  0  0  0  0  0  0  0
   12.4655  -17.6474   23.0933 O   0  0  0  0  0  0  0  0  0  0  0  0
   10.3533  -14.9705   27.1335 C   0  0  0  0  0  0  0  0  0  0  0  0
   10.2801  -14.4335   28.4016 C   0  0  0  0  0  0  0  0  0  0  0  0
   13.7590  -16.1432   24.1775 O   0  0  0  0  0  0  0  0  0  0  0  0
  2  1  1  6
  2  3  1  0
  4  2  1  0
  5  4  2  0
  6  4  1  0
  7  6  1  0
  7  8  1  1
  9 14  1  0
  9  8  1  0
 10  9  2  0
 11 12  2  0
 11 10  1  0
 12 13  1  0
 13 14  2  0
 15 24  1  0
 15  7  1  0
 16 15  2  0
 18 17  1  0
 19 18  2  0
 20 19  1  0
 21 20  2  0
 21 27  1  0
 23 22  1  1
 22 21  1  0
 23 25  1  0
 23 24  1  0
 25 26  1  0
 27 28  2  0
 28 18  1  0
 29 25  2  0
M  END
$$$$
