AFY.pdb
     RDKit          3D

 29 30  0  0  1  0  0  0  0  0999 V2000
    9.3724  -18.2136   19.6443 C   0  0  0  0  0  0  0  0  0  0  0  0
    9.3753  -16.7091   19.4295 C   0  0  2  0  0  0  0  0  0  0  0  0
   10.5571  -16.3089   18.6955 N   0  0  0  0  0  0  0  0  0  0  0  0
    9.3215  -15.9944   20.7122 C   0  0  0  0  0  0  0  0  0  0  0  0
   10.4172  -15.5509   21.1933 O   0  0  0  0  0  0  0  0  0  0  0  0
    8.1105  -15.7726   21.4430 N   0  0  0  0  0  0  0  0  0  0  0  0
    8.0826  -14.9542   22.6386 C   0  0  1  0  0  0  0  0  0  0  0  0
    6.7045  -14.4853   22.9839 C   0  0  0  0  0  0  0  0  0  0  0  0
    6.7347  -13.6973   24.2232 C   0  0  0  0  0  0  0  0  0  0  0  0
    6.2659  -14.2257   25.3928 C   0  0  0  0  0  0  0  0  0  0  0  0
    6.3165  -13.4432   26.5315 C   0  0  0  0  0  0  0  0  0  0  0  0
    6.8259  -12.1659   26.4869 C   0  0  0  0  0  0  0  0  0  0  0  0
    7.2976  -11.6427   25.2951 C   0  0  0  0  0  0  0  0  0  0  0  0
    7.2536  -12.4117   24.1508 C   0  0  0  0  0  0  0  0  0  0  0  0
    8.6600  -15.7432   23.7731 C   0  0  0  0  0  0  0  0  0  0  0  0
    8.3180  -16.9384   23.9576 O   0  0  0  0  0  0  0  0  0  0  0  0
   12.2660  -17.2083   31.7413 O   0  0  0  0  0  0  0  0  0  0  0  0
   11.9110  -16.6323   30.5126 C   0  0  0  0  0  0  0  0  0  0  0  0
   11.2636  -15.4106   30.4576 C   0  0  0  0  0  0  0  0  0  0  0  0
   10.9239  -14.8624   29.2412 C   0  0  0  0  0  0  0  0  0  0  0  0
   11.2093  -15.4976   28.0267 C   0  0  0  0  0  0  0  0  0  0  0  0
   10.8365  -14.9142   26.7361 C   0  0  0  0  0  0  0  0  0  0  0  0
   10.1140  -15.8955   25.8422 C   0  0  2  0  0  0  0  0  0  0  0  0
    9.6003  -15.1918   24.6749 N   0  0  0  0  0  0  0  0  0  0  0  0
    8.9780  -16.5669   26.4983 C   0  0  0  0  0  0  0  0  0  0  0  0
    7.7958  -15.8966   26.7525 O   0  0  0  0  0  0  0  0  0  0  0  0
   11.8595  -16.7242   28.0914 C   0  0  0  0  0  0  0  0  0  0  0  0
   12.1925  -17.2589   29.3181 C   0  0  0  0  0  0  0  0  0  0  0  0
    9.0632  -17.7665   26.8417 O   0  0  0  0  0  0  0  0  0  0  0  0
  2  1  1  1
  2  3  1  0
  4  2  1  0
  5  4  2  0
  6  4  1  0
  7  6  1  0
  7  8  1  1
  9 14  1  0
  9  8  1  0
 10  9  2  0
 11 12  2  0
 11 10  1  0
 12 13  1  0
 13 14  2  0
 15 24  1  0
 15  7  1  0
 16 15  2  0
 18 17  1  0
 19 18  2  0
 20 19  1  0
 21 20  2  0
 21 27  1  0
 23 22  1  1
 22 21  1  0
 23 25  1  0
 23 24  1  0
 25 26  1  0
 27 28  2  0
 28 18  1  0
 29 25  2  0
M  END
$$$$
