AFY.pdb
     RDKit          3D

 29 30  0  0  1  0  0  0  0  0999 V2000
    9.4845  -18.3722   20.7367 C   0  0  0  0  0  0  0  0  0  0  0  0
    9.6556  -16.8964   20.4167 C   0  0  2  0  0  0  0  0  0  0  0  0
   10.9499  -16.6602   19.8129 N   0  0  0  0  0  0  0  0  0  0  0  0
    9.5150  -16.0758   21.6273 C   0  0  0  0  0  0  0  0  0  0  0  0
   10.5316  -15.9606   22.3901 O   0  0  0  0  0  0  0  0  0  0  0  0
    8.3038  -15.4045   21.9907 N   0  0  0  0  0  0  0  0  0  0  0  0
    8.1685  -14.7110   23.2559 C   0  0  1  0  0  0  0  0  0  0  0  0
    6.9709  -13.8153   23.2969 C   0  0  0  0  0  0  0  0  0  0  0  0
    6.8281  -13.2237   24.6338 C   0  0  0  0  0  0  0  0  0  0  0  0
    7.5450  -12.1135   24.9813 C   0  0  0  0  0  0  0  0  0  0  0  0
    7.3746  -11.5953   26.2517 C   0  0  0  0  0  0  0  0  0  0  0  0
    6.5057  -12.1830   27.1420 C   0  0  0  0  0  0  0  0  0  0  0  0
    5.7855  -13.3076   26.7770 C   0  0  0  0  0  0  0  0  0  0  0  0
    5.9450  -13.8359   25.5128 C   0  0  0  0  0  0  0  0  0  0  0  0
    8.0924  -15.7270   24.3536 C   0  0  0  0  0  0  0  0  0  0  0  0
    7.7051  -16.8981   24.1128 O   0  0  0  0  0  0  0  0  0  0  0  0
   14.1050  -19.5636   29.1876 O   0  0  0  0  0  0  0  0  0  0  0  0
   13.2394  -18.8103   28.3808 C   0  0  0  0  0  0  0  0  0  0  0  0
   12.4834  -19.4114   27.3899 C   0  0  0  0  0  0  0  0  0  0  0  0
   11.6397  -18.6540   26.6088 C   0  0  0  0  0  0  0  0  0  0  0  0
   11.5065  -17.2701   26.7732 C   0  0  0  0  0  0  0  0  0  0  0  0
   10.6148  -16.4680   25.9327 C   0  0  0  0  0  0  0  0  0  0  0  0
    9.2401  -16.3015   26.5379 C   0  0  2  0  0  0  0  0  0  0  0  0
    8.4461  -15.4234   25.6894 N   0  0  0  0  0  0  0  0  0  0  0  0
    9.2571  -15.7224   27.8930 C   0  0  0  0  0  0  0  0  0  0  0  0
    9.0918  -14.3650   28.0970 O   0  0  0  0  0  0  0  0  0  0  0  0
   12.2697  -16.6748   27.7706 C   0  0  0  0  0  0  0  0  0  0  0  0
   13.1096  -17.4483   28.5438 C   0  0  0  0  0  0  0  0  0  0  0  0
    9.4241  -16.4547   28.8930 O   0  0  0  0  0  0  0  0  0  0  0  0
  2  1  1  1
  2  3  1  0
  4  2  1  0
  5  4  2  0
  6  4  1  0
  7  6  1  0
  7  8  1  6
  9 14  1  0
  9  8  1  0
 10  9  2  0
 11 12  2  0
 11 10  1  0
 12 13  1  0
 13 14  2  0
 15 24  1  0
 15  7  1  0
 16 15  2  0
 18 17  1  0
 19 18  2  0
 20 19  1  0
 21 20  2  0
 21 27  1  0
 23 22  1  6
 22 21  1  0
 23 25  1  0
 23 24  1  0
 25 26  1  0
 27 28  2  0
 28 18  1  0
 29 25  2  0
M  END
$$$$
