AFY.pdb
     RDKit          3D

 29 30  0  0  1  0  0  0  0  0999 V2000
    8.7612  -18.1111   19.8231 C   0  0  0  0  0  0  0  0  0  0  0  0
    9.1533  -16.6449   19.7444 C   0  0  2  0  0  0  0  0  0  0  0  0
   10.4494  -16.5048   19.1151 N   0  0  0  0  0  0  0  0  0  0  0  0
    9.1816  -16.0354   21.0811 C   0  0  0  0  0  0  0  0  0  0  0  0
   10.2451  -16.1683   21.7739 O   0  0  0  0  0  0  0  0  0  0  0  0
    8.0841  -15.3057   21.6402 N   0  0  0  0  0  0  0  0  0  0  0  0
    8.1545  -14.7223   22.9648 C   0  0  1  0  0  0  0  0  0  0  0  0
    6.9885  -13.8347   23.2664 C   0  0  0  0  0  0  0  0  0  0  0  0
    7.1209  -13.2673   24.6147 C   0  0  0  0  0  0  0  0  0  0  0  0
    7.9879  -12.2382   24.8522 C   0  0  0  0  0  0  0  0  0  0  0  0
    8.0755  -11.7396   26.1388 C   0  0  0  0  0  0  0  0  0  0  0  0
    7.3092  -12.2666   27.1527 C   0  0  0  0  0  0  0  0  0  0  0  0
    6.4346  -13.3092   26.8982 C   0  0  0  0  0  0  0  0  0  0  0  0
    6.3365  -13.8171   25.6196 C   0  0  0  0  0  0  0  0  0  0  0  0
    8.2369  -15.8279   23.9717 C   0  0  0  0  0  0  0  0  0  0  0  0
    7.6214  -16.9076   23.7849 O   0  0  0  0  0  0  0  0  0  0  0  0
   13.5434  -21.8327   26.9307 O   0  0  0  0  0  0  0  0  0  0  0  0
   12.8707  -20.7174   26.4101 C   0  0  0  0  0  0  0  0  0  0  0  0
   13.5580  -19.7118   25.7534 C   0  0  0  0  0  0  0  0  0  0  0  0
   12.8789  -18.6253   25.2495 C   0  0  0  0  0  0  0  0  0  0  0  0
   11.4914  -18.4855   25.3728 C   0  0  0  0  0  0  0  0  0  0  0  0
   10.7755  -17.3225   24.8436 C   0  0  0  0  0  0  0  0  0  0  0  0
    9.7012  -16.8250   25.7829 C   0  0  2  0  0  0  0  0  0  0  0  0
    8.9972  -15.7127   25.1593 N   0  0  0  0  0  0  0  0  0  0  0  0
   10.2209  -16.3573   27.0803 C   0  0  0  0  0  0  0  0  0  0  0  0
   11.1097  -15.3013   27.1605 O   0  0  0  0  0  0  0  0  0  0  0  0
   10.8092  -19.5000   26.0339 C   0  0  0  0  0  0  0  0  0  0  0  0
   11.5051  -20.5812   26.5323 C   0  0  0  0  0  0  0  0  0  0  0  0
    9.8650  -16.9129   28.1428 O   0  0  0  0  0  0  0  0  0  0  0  0
  2  1  1  1
  2  3  1  0
  4  2  1  0
  5  4  2  0
  6  4  1  0
  7  6  1  0
  7  8  1  1
  9 14  1  0
  9  8  1  0
 10  9  2  0
 11 12  2  0
 11 10  1  0
 12 13  1  0
 13 14  2  0
 15 24  1  0
 15  7  1  0
 16 15  2  0
 18 17  1  0
 19 18  2  0
 20 19  1  0
 21 20  2  0
 21 27  1  0
 23 22  1  6
 22 21  1  0
 23 25  1  0
 23 24  1  0
 25 26  1  0
 27 28  2  0
 28 18  1  0
 29 25  2  0
M  END
$$$$
