AFY.pdb
     RDKit          3D

 29 30  0  0  1  0  0  0  0  0999 V2000
    9.1214  -18.9455   20.1157 C   0  0  0  0  0  0  0  0  0  0  0  0
    8.8256  -17.5675   19.5470 C   0  0  2  0  0  0  0  0  0  0  0  0
    9.7437  -17.2608   18.4706 N   0  0  0  0  0  0  0  0  0  0  0  0
    8.9204  -16.5366   20.5896 C   0  0  0  0  0  0  0  0  0  0  0  0
   10.0524  -15.9763   20.7721 O   0  0  0  0  0  0  0  0  0  0  0  0
    7.8146  -16.1329   21.4044 N   0  0  0  0  0  0  0  0  0  0  0  0
    7.9530  -15.1106   22.4223 C   0  0  1  0  0  0  0  0  0  0  0  0
    6.6371  -14.5419   22.8505 C   0  0  0  0  0  0  0  0  0  0  0  0
    6.8380  -13.5491   23.9142 C   0  0  0  0  0  0  0  0  0  0  0  0
    7.4310  -12.3489   23.6400 C   0  0  0  0  0  0  0  0  0  0  0  0
    7.5970  -11.4488   24.6762 C   0  0  0  0  0  0  0  0  0  0  0  0
    7.1759  -11.7546   25.9499 C   0  0  0  0  0  0  0  0  0  0  0  0
    6.5765  -12.9744   26.2139 C   0  0  0  0  0  0  0  0  0  0  0  0
    6.4041  -13.8825   25.1901 C   0  0  0  0  0  0  0  0  0  0  0  0
    8.6694  -15.6993   23.5985 C   0  0  0  0  0  0  0  0  0  0  0  0
    8.0616  -16.4446   24.4075 O   0  0  0  0  0  0  0  0  0  0  0  0
   11.4946  -15.8754   31.5238 O   0  0  0  0  0  0  0  0  0  0  0  0
   11.0501  -15.9588   30.1960 C   0  0  0  0  0  0  0  0  0  0  0  0
   11.0360  -17.1675   29.5226 C   0  0  0  0  0  0  0  0  0  0  0  0
   10.5958  -17.2279   28.2195 C   0  0  0  0  0  0  0  0  0  0  0  0
   10.1505  -16.0965   27.5255 C   0  0  0  0  0  0  0  0  0  0  0  0
    9.6928  -16.1651   26.1360 C   0  0  0  0  0  0  0  0  0  0  0  0
   10.6368  -15.4747   25.1788 C   0  0  2  0  0  0  0  0  0  0  0  0
   10.0389  -15.4496   23.8508 N   0  0  0  0  0  0  0  0  0  0  0  0
   11.9511  -16.1320   25.0677 C   0  0  0  0  0  0  0  0  0  0  0  0
   12.9405  -15.9252   26.0111 O   0  0  0  0  0  0  0  0  0  0  0  0
   10.1683  -14.8868   28.2095 C   0  0  0  0  0  0  0  0  0  0  0  0
   10.6122  -14.8443   29.5144 C   0  0  0  0  0  0  0  0  0  0  0  0
   12.1987  -16.8956   24.1086 O   0  0  0  0  0  0  0  0  0  0  0  0
  2  1  1  1
  2  3  1  0
  4  2  1  0
  5  4  2  0
  6  4  1  0
  7  6  1  0
  7  8  1  1
  9 14  1  0
  9  8  1  0
 10  9  2  0
 11 12  2  0
 11 10  1  0
 12 13  1  0
 13 14  2  0
 15 24  1  0
 15  7  1  0
 16 15  2  0
 18 17  1  0
 19 18  2  0
 20 19  1  0
 21 20  2  0
 21 27  1  0
 23 22  1  1
 22 21  1  0
 23 25  1  0
 23 24  1  0
 25 26  1  0
 27 28  2  0
 28 18  1  0
 29 25  2  0
M  END
$$$$
