AFY.pdb
     RDKit          3D

 29 30  0  0  1  0  0  0  0  0999 V2000
    7.7462  -20.6270   23.7349 C   0  0  0  0  0  0  0  0  0  0  0  0
    6.7215  -19.7284   23.0623 C   0  0  2  0  0  0  0  0  0  0  0  0
    6.6253  -20.0438   21.6527 N   0  0  0  0  0  0  0  0  0  0  0  0
    7.0723  -18.3117   23.2316 C   0  0  0  0  0  0  0  0  0  0  0  0
    7.8954  -17.7987   22.4021 O   0  0  0  0  0  0  0  0  0  0  0  0
    6.5409  -17.4850   24.2726 N   0  0  0  0  0  0  0  0  0  0  0  0
    6.9490  -16.1034   24.4300 C   0  0  1  0  0  0  0  0  0  0  0  0
    6.0032  -15.3164   25.2810 C   0  0  0  0  0  0  0  0  0  0  0  0
    6.4266  -13.9112   25.3401 C   0  0  0  0  0  0  0  0  0  0  0  0
    6.6727  -13.3108   26.5427 C   0  0  0  0  0  0  0  0  0  0  0  0
    7.0688  -11.9861   26.5442 C   0  0  0  0  0  0  0  0  0  0  0  0
    7.2111  -11.2916   25.3651 C   0  0  0  0  0  0  0  0  0  0  0  0
    6.9585  -11.9121   24.1535 C   0  0  0  0  0  0  0  0  0  0  0  0
    6.5626  -13.2332   24.1363 C   0  0  0  0  0  0  0  0  0  0  0  0
    8.3243  -16.0745   25.0224 C   0  0  0  0  0  0  0  0  0  0  0  0
    8.4981  -16.3193   26.2428 O   0  0  0  0  0  0  0  0  0  0  0  0
   11.5949  -17.1298   31.0058 O   0  0  0  0  0  0  0  0  0  0  0  0
   11.4769  -17.1501   29.6082 C   0  0  0  0  0  0  0  0  0  0  0  0
   12.4265  -16.5464   28.8030 C   0  0  0  0  0  0  0  0  0  0  0  0
   12.2921  -16.5777   27.4331 C   0  0  0  0  0  0  0  0  0  0  0  0
   11.2137  -17.2068   26.7998 C   0  0  0  0  0  0  0  0  0  0  0  0
   11.0707  -17.2282   25.3424 C   0  0  0  0  0  0  0  0  0  0  0  0
   10.8346  -15.8531   24.7617 C   0  0  2  0  0  0  0  0  0  0  0  0
    9.4724  -15.7759   24.2516 N   0  0  0  0  0  0  0  0  0  0  0  0
   11.7485  -15.5134   23.6565 C   0  0  0  0  0  0  0  0  0  0  0  0
   12.9746  -14.9202   23.8939 O   0  0  0  0  0  0  0  0  0  0  0  0
   10.2646  -17.8103   27.6163 C   0  0  0  0  0  0  0  0  0  0  0  0
   10.4147  -17.7696   28.9865 C   0  0  0  0  0  0  0  0  0  0  0  0
   11.4285  -15.7566   22.4722 O   0  0  0  0  0  0  0  0  0  0  0  0
  2  1  1  6
  2  3  1  0
  4  2  1  0
  5  4  2  0
  6  4  1  0
  7  6  1  0
  7  8  1  1
  9 14  1  0
  9  8  1  0
 10  9  2  0
 11 12  2  0
 11 10  1  0
 12 13  1  0
 13 14  2  0
 15 24  1  0
 15  7  1  0
 16 15  2  0
 18 17  1  0
 19 18  2  0
 20 19  1  0
 21 20  2  0
 21 27  1  0
 23 22  1  6
 22 21  1  0
 23 25  1  0
 23 24  1  0
 25 26  1  0
 27 28  2  0
 28 18  1  0
 29 25  2  0
M  END
$$$$
