AFY.pdb
     RDKit          3D

 29 30  0  0  1  0  0  0  0  0999 V2000
   10.2555  -18.3312   19.7888 C   0  0  0  0  0  0  0  0  0  0  0  0
    9.9238  -16.8827   19.4699 C   0  0  2  0  0  0  0  0  0  0  0  0
   10.9732  -16.2924   18.6662 N   0  0  0  0  0  0  0  0  0  0  0  0
    9.7417  -16.1013   20.7008 C   0  0  0  0  0  0  0  0  0  0  0  0
   10.7862  -15.6575   21.2845 O   0  0  0  0  0  0  0  0  0  0  0  0
    8.4610  -15.8156   21.2732 N   0  0  0  0  0  0  0  0  0  0  0  0
    8.3222  -14.9759   22.4461 C   0  0  1  0  0  0  0  0  0  0  0  0
    6.9212  -14.4901   22.6446 C   0  0  0  0  0  0  0  0  0  0  0  0
    6.8529  -13.6114   23.8196 C   0  0  0  0  0  0  0  0  0  0  0  0
    7.3833  -12.3528   23.7764 C   0  0  0  0  0  0  0  0  0  0  0  0
    7.2933  -11.5651   24.9090 C   0  0  0  0  0  0  0  0  0  0  0  0
    6.6852  -12.0371   26.0494 C   0  0  0  0  0  0  0  0  0  0  0  0
    6.1519  -13.3144   26.0796 C   0  0  0  0  0  0  0  0  0  0  0  0
    6.2342  -14.1118   24.9572 C   0  0  0  0  0  0  0  0  0  0  0  0
    8.7763  -15.7494   23.6456 C   0  0  0  0  0  0  0  0  0  0  0  0
    8.5900  -16.9905   23.7120 O   0  0  0  0  0  0  0  0  0  0  0  0
   12.0336  -17.3240   31.7864 O   0  0  0  0  0  0  0  0  0  0  0  0
   11.6729  -16.7298   30.5680 C   0  0  0  0  0  0  0  0  0  0  0  0
   12.2643  -17.1220   29.3801 C   0  0  0  0  0  0  0  0  0  0  0  0
   11.8960  -16.5261   28.1948 C   0  0  0  0  0  0  0  0  0  0  0  0
   10.9275  -15.5172   28.1322 C   0  0  0  0  0  0  0  0  0  0  0  0
   10.5469  -14.8799   26.8696 C   0  0  0  0  0  0  0  0  0  0  0  0
    9.9867  -15.8635   25.8683 C   0  0  2  0  0  0  0  0  0  0  0  0
    9.4245  -15.1320   24.7412 N   0  0  0  0  0  0  0  0  0  0  0  0
    8.9264  -16.7270   26.4178 C   0  0  0  0  0  0  0  0  0  0  0  0
    9.2015  -18.0043   26.8699 O   0  0  0  0  0  0  0  0  0  0  0  0
   10.3390  -15.1295   29.3301 C   0  0  0  0  0  0  0  0  0  0  0  0
   10.7196  -15.7368   30.5082 C   0  0  0  0  0  0  0  0  0  0  0  0
    7.7467  -16.3171   26.4851 O   0  0  0  0  0  0  0  0  0  0  0  0
  2  1  1  1
  2  3  1  0
  4  2  1  0
  5  4  2  0
  6  4  1  0
  7  6  1  0
  7  8  1  1
  9 14  1  0
  9  8  1  0
 10  9  2  0
 11 12  2  0
 11 10  1  0
 12 13  1  0
 13 14  2  0
 15 24  1  0
 15  7  1  0
 16 15  2  0
 18 17  1  0
 19 18  2  0
 20 19  1  0
 21 20  2  0
 21 27  1  0
 23 22  1  1
 22 21  1  0
 23 25  1  0
 23 24  1  0
 25 26  1  0
 27 28  2  0
 28 18  1  0
 29 25  2  0
M  END
$$$$
