KKL.pdb
     RDKit          3D

 27 26  0  0  1  0  0  0  0  0999 V2000
    5.8289  -18.4146   21.0886 N   0  0  0  0  0  0  0  0  0  0  0  0
    6.5779  -18.4756   22.3076 C   0  0  1  0  0  0  0  0  0  0  0  0
    7.1552  -19.8631   22.5437 C   0  0  0  0  0  0  0  0  0  0  0  0
    6.3443  -20.9082   21.8204 C   0  0  0  0  0  0  0  0  0  0  0  0
    5.8562  -21.9861   22.7288 C   0  0  0  0  0  0  0  0  0  0  0  0
    5.1441  -23.0980   22.0128 C   0  0  0  0  0  0  0  0  0  0  0  0
    4.7777  -24.1847   22.8785 N   0  0  0  0  0  0  0  0  0  0  0  0
    7.6513  -17.4509   22.2542 C   0  0  0  0  0  0  0  0  0  0  0  0
    8.8736  -17.8228   22.2905 O   0  0  0  0  0  0  0  0  0  0  0  0
    7.3452  -16.0652   22.1634 N   0  0  0  0  0  0  0  0  0  0  0  0
    8.4136  -15.0882   22.1019 C   0  0  1  0  0  0  0  0  0  0  0  0
    7.9167  -13.9432   21.2829 C   0  0  0  0  0  0  0  0  0  0  0  0
    7.5338  -14.2911   19.8794 C   0  0  0  0  0  0  0  0  0  0  0  0
    8.2977  -13.4610   18.8554 C   0  0  0  0  0  0  0  0  0  0  0  0
    7.8008  -13.8259   17.4718 C   0  0  0  0  0  0  0  0  0  0  0  0
    8.6049  -13.0842   16.4896 N   0  0  0  0  0  0  0  0  0  0  0  0
    8.8375  -14.7463   23.4565 C   0  0  0  0  0  0  0  0  0  0  0  0
    9.8648  -14.0756   23.7359 O   0  0  0  0  0  0  0  0  0  0  0  0
    6.0083  -12.0358   26.7268 C   0  0  0  0  0  0  0  0  0  0  0  0
    7.1874  -12.7591   26.1166 C   0  0  1  0  0  0  0  0  0  0  0  0
    8.4063  -11.8767   26.4511 C   0  0  0  0  0  0  0  0  0  0  0  0
    7.3727  -14.1319   26.6620 C   0  0  0  0  0  0  0  0  0  0  0  0
    8.4600  -14.8705   25.9586 C   0  0  2  0  0  0  0  0  0  0  0  0
    8.0671  -15.1796   24.5689 N   0  0  0  0  0  0  0  0  0  0  0  0
    8.8757  -16.1331   26.5970 C   0  0  0  0  0  0  0  0  0  0  0  0
    8.7165  -17.2211   25.9961 O   0  0  0  0  0  0  0  0  0  0  0  0
    9.4481  -16.1983   27.8525 O   0  0  0  0  0  0  0  0  0  0  0  0
  2  1  1  6
  3  2  1  0
  4  5  1  0
  4  3  1  0
  5  6  1  0
  7  6  1  0
  8  2  1  0
  8  9  2  0
 10  8  1  0
 11 10  1  0
 11 12  1  1
 13 12  1  0
 14 15  1  0
 14 13  1  0
 15 16  1  0
 17 11  1  0
 18 17  2  0
 20 19  1  1
 20 22  1  0
 20 21  1  0
 23 22  1  1
 23 24  1  0
 23 25  1  0
 24 17  1  0
 25 27  1  0
 26 25  2  0
M  END
$$$$
