KKL.pdb
     RDKit          3D

 27 26  0  0  1  0  0  0  0  0999 V2000
    6.3037  -17.2575   20.6551 N   0  0  0  0  0  0  0  0  0  0  0  0
    7.4613  -16.5173   21.0588 C   0  0  1  0  0  0  0  0  0  0  0  0
    7.2898  -15.0263   20.8104 C   0  0  0  0  0  0  0  0  0  0  0  0
    8.1093  -14.5856   19.6241 C   0  0  0  0  0  0  0  0  0  0  0  0
    8.0381  -13.1137   19.3923 C   0  0  0  0  0  0  0  0  0  0  0  0
    8.7470  -12.6672   18.1457 C   0  0  0  0  0  0  0  0  0  0  0  0
    8.6856  -11.2467   17.9382 N   0  0  0  0  0  0  0  0  0  0  0  0
    7.7223  -16.7947   22.4941 C   0  0  0  0  0  0  0  0  0  0  0  0
    6.7349  -16.9504   23.2907 O   0  0  0  0  0  0  0  0  0  0  0  0
    9.0484  -16.8901   22.9984 N   0  0  0  0  0  0  0  0  0  0  0  0
    9.2735  -17.2170   24.3919 C   0  0  1  0  0  0  0  0  0  0  0  0
   10.2879  -18.3117   24.4293 C   0  0  0  0  0  0  0  0  0  0  0  0
    9.7646  -19.6684   24.0787 C   0  0  0  0  0  0  0  0  0  0  0  0
   10.8218  -20.7518   24.2522 C   0  0  0  0  0  0  0  0  0  0  0  0
   10.1784  -22.0987   23.9951 C   0  0  0  0  0  0  0  0  0  0  0  0
   11.2378  -23.1180   24.0049 N   0  0  0  0  0  0  0  0  0  0  0  0
    9.6377  -16.0063   25.1220 C   0  0  0  0  0  0  0  0  0  0  0  0
   10.6002  -15.2534   24.8224 O   0  0  0  0  0  0  0  0  0  0  0  0
    5.7500  -12.9675   27.2792 C   0  0  0  0  0  0  0  0  0  0  0  0
    7.0174  -13.5310   26.6776 C   0  0  1  0  0  0  0  0  0  0  0  0
    7.4981  -12.4503   25.6891 C   0  0  0  0  0  0  0  0  0  0  0  0
    8.0684  -13.8117   27.6942 C   0  0  0  0  0  0  0  0  0  0  0  0
    9.2702  -14.4562   27.0920 C   0  0  2  0  0  0  0  0  0  0  0  0
    8.8807  -15.6108   26.2575 N   0  0  0  0  0  0  0  0  0  0  0  0
   10.2817  -14.9237   28.0577 C   0  0  0  0  0  0  0  0  0  0  0  0
   10.4819  -16.1513   28.2106 O   0  0  0  0  0  0  0  0  0  0  0  0
   11.0484  -14.0717   28.8287 O   0  0  0  0  0  0  0  0  0  0  0  0
  2  1  1  1
  3  2  1  0
  4  5  1  0
  4  3  1  0
  5  6  1  0
  7  6  1  0
  8  2  1  0
  8  9  2  0
 10  8  1  0
 11 10  1  0
 11 12  1  6
 13 12  1  0
 14 15  1  0
 14 13  1  0
 15 16  1  0
 17 11  1  0
 18 17  2  0
 20 19  1  1
 20 22  1  0
 20 21  1  0
 23 22  1  1
 23 24  1  0
 23 25  1  0
 24 17  1  0
 25 27  1  0
 26 25  2  0
M  END
$$$$
