KKL.pdb
     RDKit          3D

 27 26  0  0  1  0  0  0  0  0999 V2000
    7.2953  -19.9670   21.3567 N   0  0  0  0  0  0  0  0  0  0  0  0
    6.8022  -18.7143   21.8450 C   0  0  1  0  0  0  0  0  0  0  0  0
    6.2897  -18.8300   23.2725 C   0  0  0  0  0  0  0  0  0  0  0  0
    7.2575  -19.6107   24.1250 C   0  0  0  0  0  0  0  0  0  0  0  0
    6.7105  -19.9199   25.4780 C   0  0  0  0  0  0  0  0  0  0  0  0
    7.6158  -20.7838   26.3086 C   0  0  0  0  0  0  0  0  0  0  0  0
    7.0659  -21.1048   27.5967 N   0  0  0  0  0  0  0  0  0  0  0  0
    7.8896  -17.7079   21.7461 C   0  0  0  0  0  0  0  0  0  0  0  0
    9.1062  -18.0916   21.8265 O   0  0  0  0  0  0  0  0  0  0  0  0
    7.6033  -16.3271   21.5638 N   0  0  0  0  0  0  0  0  0  0  0  0
    8.6854  -15.3731   21.4267 C   0  0  1  0  0  0  0  0  0  0  0  0
    8.2484  -14.3518   20.4294 C   0  0  0  0  0  0  0  0  0  0  0  0
    8.3208  -14.7930   19.0020 C   0  0  0  0  0  0  0  0  0  0  0  0
    7.9882  -13.6626   18.0361 C   0  0  0  0  0  0  0  0  0  0  0  0
    8.0625  -14.1996   16.6217 C   0  0  0  0  0  0  0  0  0  0  0  0
    7.6757  -13.1183   15.7038 N   0  0  0  0  0  0  0  0  0  0  0  0
    9.0385  -14.8469   22.7419 C   0  0  0  0  0  0  0  0  0  0  0  0
   10.0266  -14.1028   22.9722 O   0  0  0  0  0  0  0  0  0  0  0  0
    8.2587  -11.6528   26.5646 C   0  0  0  0  0  0  0  0  0  0  0  0
    7.2793  -12.8017   26.6461 C   0  0  1  0  0  0  0  0  0  0  0  0
    5.9288  -12.1436   26.9915 C   0  0  0  0  0  0  0  0  0  0  0  0
    7.1752  -13.5680   25.3739 C   0  0  0  0  0  0  0  0  0  0  0  0
    8.3617  -14.4422   25.1496 C   0  0  2  0  0  0  0  0  0  0  0  0
    8.2391  -15.1711   23.8710 N   0  0  0  0  0  0  0  0  0  0  0  0
    8.6178  -15.4364   26.2081 C   0  0  0  0  0  0  0  0  0  0  0  0
    8.7339  -15.0670   27.3999 O   0  0  0  0  0  0  0  0  0  0  0  0
    8.7409  -16.7908   25.9660 O   0  0  0  0  0  0  0  0  0  0  0  0
  2  1  1  1
  3  2  1  0
  4  5  1  0
  4  3  1  0
  5  6  1  0
  7  6  1  0
  8  2  1  0
  8  9  2  0
 10  8  1  0
 11 10  1  0
 11 12  1  6
 13 12  1  0
 14 15  1  0
 14 13  1  0
 15 16  1  0
 17 11  1  0
 18 17  2  0
 20 19  1  6
 20 22  1  0
 20 21  1  0
 23 22  1  1
 23 24  1  0
 23 25  1  0
 24 17  1  0
 25 27  1  0
 26 25  2  0
M  END
$$$$
