KKL.pdb
     RDKit          3D

 27 26  0  0  1  0  0  0  0  0999 V2000
    7.5718  -19.8001   22.4523 N   0  0  0  0  0  0  0  0  0  0  0  0
    6.7572  -18.6625   22.7573 C   0  0  1  0  0  0  0  0  0  0  0  0
    6.2392  -18.7091   24.1869 C   0  0  0  0  0  0  0  0  0  0  0  0
    7.2243  -19.4090   25.0884 C   0  0  0  0  0  0  0  0  0  0  0  0
    6.6499  -20.6269   25.7304 C   0  0  0  0  0  0  0  0  0  0  0  0
    7.6191  -21.3498   26.6214 C   0  0  0  0  0  0  0  0  0  0  0  0
    7.3754  -21.1277   28.0200 N   0  0  0  0  0  0  0  0  0  0  0  0
    7.5540  -17.4329   22.5161 C   0  0  0  0  0  0  0  0  0  0  0  0
    8.8091  -17.4434   22.7577 O   0  0  0  0  0  0  0  0  0  0  0  0
    6.9478  -16.2453   22.0221 N   0  0  0  0  0  0  0  0  0  0  0  0
    7.7502  -15.0599   21.7970 C   0  0  1  0  0  0  0  0  0  0  0  0
    7.1775  -14.3593   20.6097 C   0  0  0  0  0  0  0  0  0  0  0  0
    8.1848  -13.8864   19.6101 C   0  0  0  0  0  0  0  0  0  0  0  0
    7.7613  -14.1976   18.1800 C   0  0  0  0  0  0  0  0  0  0  0  0
    8.7900  -13.6125   17.2345 C   0  0  0  0  0  0  0  0  0  0  0  0
    8.4211  -13.9995   15.8651 N   0  0  0  0  0  0  0  0  0  0  0  0
    7.8006  -14.2677   23.0223 C   0  0  0  0  0  0  0  0  0  0  0  0
    7.2634  -13.1390   23.1661 O   0  0  0  0  0  0  0  0  0  0  0  0
    8.2983  -11.1959   26.7367 C   0  0  0  0  0  0  0  0  0  0  0  0
    7.5398  -12.4766   27.0018 C   0  0  1  0  0  0  0  0  0  0  0  0
    6.1615  -12.0180   27.5178 C   0  0  0  0  0  0  0  0  0  0  0  0
    7.3860  -13.3231   25.7868 C   0  0  0  0  0  0  0  0  0  0  0  0
    8.6730  -13.9562   25.3803 C   0  0  2  0  0  0  0  0  0  0  0  0
    8.4937  -14.7657   24.1582 N   0  0  0  0  0  0  0  0  0  0  0  0
    9.2976  -14.8189   26.4003 C   0  0  0  0  0  0  0  0  0  0  0  0
    9.6240  -14.3400   27.5113 O   0  0  0  0  0  0  0  0  0  0  0  0
    9.5538  -16.1624   26.2068 O   0  0  0  0  0  0  0  0  0  0  0  0
  2  1  1  1
  3  2  1  0
  4  5  1  0
  4  3  1  0
  5  6  1  0
  7  6  1  0
  8  2  1  0
  8  9  2  0
 10  8  1  0
 11 10  1  0
 11 12  1  6
 13 12  1  0
 14 15  1  0
 14 13  1  0
 15 16  1  0
 17 11  1  0
 18 17  2  0
 20 19  1  6
 20 22  1  0
 20 21  1  0
 23 22  1  1
 23 24  1  0
 23 25  1  0
 24 17  1  0
 25 27  1  0
 26 25  2  0
M  END
$$$$
