KKL.pdb
     RDKit          3D

 27 26  0  0  1  0  0  0  0  0999 V2000
    7.2850  -19.9193   21.3437 N   0  0  0  0  0  0  0  0  0  0  0  0
    6.7921  -18.7290   21.9691 C   0  0  1  0  0  0  0  0  0  0  0  0
    6.4446  -18.9649   23.4311 C   0  0  0  0  0  0  0  0  0  0  0  0
    6.4832  -20.4362   23.7578 C   0  0  0  0  0  0  0  0  0  0  0  0
    6.8505  -20.6991   25.1796 C   0  0  0  0  0  0  0  0  0  0  0  0
    6.8705  -22.1583   25.5346 C   0  0  0  0  0  0  0  0  0  0  0  0
    5.6042  -22.6417   26.0115 N   0  0  0  0  0  0  0  0  0  0  0  0
    7.8155  -17.6625   21.8270 C   0  0  0  0  0  0  0  0  0  0  0  0
    9.0541  -17.9717   21.8898 O   0  0  0  0  0  0  0  0  0  0  0  0
    7.4439  -16.3052   21.6225 N   0  0  0  0  0  0  0  0  0  0  0  0
    8.4645  -15.2895   21.4606 C   0  0  1  0  0  0  0  0  0  0  0  0
    7.9868  -14.3496   20.4038 C   0  0  0  0  0  0  0  0  0  0  0  0
    8.4677  -14.6581   19.0214 C   0  0  0  0  0  0  0  0  0  0  0  0
    7.9119  -13.6827   17.9913 C   0  0  0  0  0  0  0  0  0  0  0  0
    8.3480  -14.1364   16.6135 C   0  0  0  0  0  0  0  0  0  0  0  0
    7.7676  -13.2146   15.6262 N   0  0  0  0  0  0  0  0  0  0  0  0
    8.7498  -14.6771   22.7549 C   0  0  0  0  0  0  0  0  0  0  0  0
    9.6678  -13.8422   22.9636 O   0  0  0  0  0  0  0  0  0  0  0  0
    7.8330  -11.5323   26.7828 C   0  0  0  0  0  0  0  0  0  0  0  0
    7.0256  -12.8105   26.7999 C   0  0  1  0  0  0  0  0  0  0  0  0
    5.6264  -12.3854   27.2875 C   0  0  0  0  0  0  0  0  0  0  0  0
    6.9366  -13.4596   25.4630 C   0  0  0  0  0  0  0  0  0  0  0  0
    8.1170  -14.3258   25.1828 C   0  0  2  0  0  0  0  0  0  0  0  0
    7.9616  -15.0172   23.8871 N   0  0  0  0  0  0  0  0  0  0  0  0
    8.4004  -15.3502   26.2049 C   0  0  0  0  0  0  0  0  0  0  0  0
    8.6712  -15.0058   27.3790 O   0  0  0  0  0  0  0  0  0  0  0  0
    8.3857  -16.7071   25.9466 O   0  0  0  0  0  0  0  0  0  0  0  0
  2  1  1  1
  3  2  1  0
  4  5  1  0
  4  3  1  0
  5  6  1  0
  7  6  1  0
  8  2  1  0
  8  9  2  0
 10  8  1  0
 11 10  1  0
 11 12  1  6
 13 12  1  0
 14 15  1  0
 14 13  1  0
 15 16  1  0
 17 11  1  0
 18 17  2  0
 20 19  1  6
 20 22  1  0
 20 21  1  0
 23 22  1  1
 23 24  1  0
 23 25  1  0
 24 17  1  0
 25 27  1  0
 26 25  2  0
M  END
$$$$
