PED.pdb
     RDKit          3D

 25 25  0  0  1  0  0  0  0  0999 V2000
   25.7077  -12.4160  -15.8542 N   0  0  0  0  0  0  0  0  0  0  0  0
   25.8405  -13.8399  -16.0954 C   0  0  0  0  0  0  0  0  0  0  0  0
   26.3666  -13.9513  -17.5306 C   0  0  0  0  0  0  0  0  0  0  0  0
   25.5332  -12.8396  -18.1829 C   0  0  0  0  0  0  0  0  0  0  0  0
   25.5958  -11.7725  -17.1296 C   0  0  1  0  0  0  0  0  0  0  0  0
   24.4061  -10.8989  -17.1222 C   0  0  0  0  0  0  0  0  0  0  0  0
   24.1222  -10.1632  -18.1270 O   0  0  0  0  0  0  0  0  0  0  0  0
   23.5007  -10.8041  -16.0282 N   0  0  0  0  0  0  0  0  0  0  0  0
   22.2681  -10.0080  -16.1180 C   0  0  1  0  0  0  0  0  0  0  0  0
   21.1340  -10.8667  -15.6112 C   0  0  0  0  0  0  0  0  0  0  0  0
   19.8441  -10.1159  -15.8450 C   0  0  0  0  0  0  0  0  0  0  0  0
   18.7203  -10.9924  -15.4541 C   0  0  0  0  0  0  0  0  0  0  0  0
   18.2517  -11.8002  -16.2881 O   0  0  0  0  0  0  0  0  0  0  0  0
   22.4084   -8.7379  -15.3733 C   0  0  0  0  0  0  0  0  0  0  0  0
   22.9157   -8.7752  -14.2126 O   0  0  0  0  0  0  0  0  0  0  0  0
   18.1754  -10.9412  -14.1911 O   0  0  0  0  0  0  0  0  0  0  0  0
   22.0065   -7.5074  -15.8957 N   0  0  0  0  0  0  0  0  0  0  0  0
   22.2944   -6.2150  -15.2327 C   0  0  1  0  0  0  0  0  0  0  0  0
   22.0373   -5.1893  -16.3102 C   0  0  0  0  0  0  0  0  0  0  0  0
   22.2041   -3.7906  -15.8972 C   0  0  0  0  0  0  0  0  0  0  0  0
   21.2437   -3.0122  -15.7509 O   0  0  0  0  0  0  0  0  0  0  0  0
   21.3847   -6.0665  -14.0716 C   0  0  0  0  0  0  0  0  0  0  0  0
   21.6454   -5.2386  -13.1613 O   0  0  0  0  0  0  0  0  0  0  0  0
   23.4696   -3.2547  -15.6436 O   0  0  0  0  0  0  0  0  0  0  0  0
   20.2430   -6.8140  -13.9502 O   0  0  0  0  0  0  0  0  0  0  0  0
  1  2  1  0
  3  2  1  0
  4  3  1  0
  4  5  1  0
  5  1  1  0
  6  8  1  0
  5  6  1  1
  7  6  2  0
  9  8  1  0
  9 14  1  0
  9 10  1  1
 11 10  1  0
 12 11  1  0
 13 12  2  0
 14 17  1  0
 15 14  2  0
 16 12  1  0
 17 18  1  0
 18 19  1  6
 18 22  1  0
 20 19  1  0
 21 20  2  0
 22 25  1  0
 23 22  2  0
 24 20  1  0
M  END
$$$$
