PED.pdb
     RDKit          3D

 25 25  0  0  1  0  0  0  0  0999 V2000
   19.9575  -12.9126  -16.6367 N   0  0  0  0  0  0  0  0  0  0  0  0
   19.2682  -14.1830  -16.7562 C   0  0  0  0  0  0  0  0  0  0  0  0
   18.6151  -14.1504  -18.1424 C   0  0  0  0  0  0  0  0  0  0  0  0
   18.1507  -12.6876  -18.1589 C   0  0  0  0  0  0  0  0  0  0  0  0
   19.3361  -11.9987  -17.5488 C   0  0  1  0  0  0  0  0  0  0  0  0
   18.9754  -10.7667  -16.8205 C   0  0  0  0  0  0  0  0  0  0  0  0
   18.5161   -9.7468  -17.4373 O   0  0  0  0  0  0  0  0  0  0  0  0
   19.1045  -10.6137  -15.4114 N   0  0  0  0  0  0  0  0  0  0  0  0
   18.7663   -9.3495  -14.7418 C   0  0  1  0  0  0  0  0  0  0  0  0
   18.1817   -9.6918  -13.3921 C   0  0  0  0  0  0  0  0  0  0  0  0
   17.8200   -8.3976  -12.7020 C   0  0  0  0  0  0  0  0  0  0  0  0
   17.2588   -8.7216  -11.3739 C   0  0  0  0  0  0  0  0  0  0  0  0
   17.1870   -9.9181  -11.0119 O   0  0  0  0  0  0  0  0  0  0  0  0
   19.9517   -8.4699  -14.6515 C   0  0  0  0  0  0  0  0  0  0  0  0
   21.0617   -8.9893  -14.3287 O   0  0  0  0  0  0  0  0  0  0  0  0
   16.8120   -7.7360  -10.5232 O   0  0  0  0  0  0  0  0  0  0  0  0
   19.8963   -7.0986  -14.9066 N   0  0  0  0  0  0  0  0  0  0  0  0
   21.0934   -6.2270  -14.9045 C   0  0  1  0  0  0  0  0  0  0  0  0
   20.7096   -5.0811  -15.8093 C   0  0  0  0  0  0  0  0  0  0  0  0
   21.7030   -4.0058  -15.9154 C   0  0  0  0  0  0  0  0  0  0  0  0
   22.7769   -4.0160  -15.2857 O   0  0  0  0  0  0  0  0  0  0  0  0
   21.3596   -5.7931  -13.5121 C   0  0  0  0  0  0  0  0  0  0  0  0
   22.3126   -5.0118  -13.2607 O   0  0  0  0  0  0  0  0  0  0  0  0
   21.4896   -2.8994  -16.7419 O   0  0  0  0  0  0  0  0  0  0  0  0
   20.5877   -6.2203  -12.4639 O   0  0  0  0  0  0  0  0  0  0  0  0
  1  2  1  0
  3  2  1  0
  4  3  1  0
  4  5  1  0
  5  1  1  0
  6  8  1  0
  5  6  1  1
  7  6  2  0
  9  8  1  0
  9 14  1  0
  9 10  1  1
 11 10  1  0
 12 11  1  0
 13 12  2  0
 14 17  1  0
 15 14  2  0
 16 12  1  0
 17 18  1  0
 18 19  1  6
 18 22  1  0
 20 19  1  0
 21 20  2  0
 22 25  1  0
 23 22  2  0
 24 20  1  0
M  END
$$$$
