PED.pdb
     RDKit          3D

 25 25  0  0  1  0  0  0  0  0999 V2000
   22.0214  -14.3453  -15.0928 N   0  0  0  0  0  0  0  0  0  0  0  0
   22.2177  -15.6661  -15.6588 C   0  0  0  0  0  0  0  0  0  0  0  0
   23.7046  -15.9711  -15.4463 C   0  0  0  0  0  0  0  0  0  0  0  0
   24.2854  -14.5860  -15.7628 C   0  0  0  0  0  0  0  0  0  0  0  0
   23.2962  -13.6913  -15.0749 C   0  0  1  0  0  0  0  0  0  0  0  0
   23.1658  -12.3710  -15.7215 C   0  0  0  0  0  0  0  0  0  0  0  0
   24.1746  -11.5985  -15.8522 O   0  0  0  0  0  0  0  0  0  0  0  0
   21.9423  -11.8606  -16.2392 N   0  0  0  0  0  0  0  0  0  0  0  0
   21.8611  -10.5205  -16.8380 C   0  0  1  0  0  0  0  0  0  0  0  0
   20.9596  -10.6157  -18.0457 C   0  0  0  0  0  0  0  0  0  0  0  0
   21.6974  -11.3864  -19.1152 C   0  0  0  0  0  0  0  0  0  0  0  0
   20.8378  -11.4520  -20.3155 C   0  0  0  0  0  0  0  0  0  0  0  0
   20.8135  -10.4831  -21.1082 O   0  0  0  0  0  0  0  0  0  0  0  0
   21.3936   -9.5294  -15.8449 C   0  0  0  0  0  0  0  0  0  0  0  0
   20.6276   -9.9254  -14.9161 O   0  0  0  0  0  0  0  0  0  0  0  0
   20.0613  -12.5567  -20.5830 O   0  0  0  0  0  0  0  0  0  0  0  0
   21.7607   -8.1833  -15.8901 N   0  0  0  0  0  0  0  0  0  0  0  0
   21.3347   -7.1948  -14.8732 C   0  0  1  0  0  0  0  0  0  0  0  0
   22.4713   -6.2021  -14.8337 C   0  0  0  0  0  0  0  0  0  0  0  0
   22.2472   -5.0254  -13.9854 C   0  0  0  0  0  0  0  0  0  0  0  0
   22.0294   -5.1081  -12.7625 O   0  0  0  0  0  0  0  0  0  0  0  0
   20.0568   -6.5853  -15.3129 C   0  0  0  0  0  0  0  0  0  0  0  0
   19.7667   -6.5285  -16.5354 O   0  0  0  0  0  0  0  0  0  0  0  0
   22.2677   -3.7330  -14.5167 O   0  0  0  0  0  0  0  0  0  0  0  0
   19.1578   -6.0703  -14.4164 O   0  0  0  0  0  0  0  0  0  0  0  0
  1  2  1  0
  3  2  1  0
  4  3  1  0
  4  5  1  0
  5  1  1  0
  6  8  1  0
  5  6  1  6
  7  6  2  0
  9  8  1  0
  9 14  1  0
  9 10  1  6
 11 10  1  0
 12 11  1  0
 13 12  2  0
 14 17  1  0
 15 14  2  0
 16 12  1  0
 17 18  1  0
 18 19  1  6
 18 22  1  0
 20 19  1  0
 21 20  2  0
 22 25  1  0
 23 22  2  0
 24 20  1  0
M  END
$$$$
