PED.pdb
     RDKit          3D

 25 25  0  0  1  0  0  0  0  0999 V2000
   18.7051   -9.8439  -16.2555 N   0  0  0  0  0  0  0  0  0  0  0  0
   19.7243  -10.3535  -17.1528 C   0  0  0  0  0  0  0  0  0  0  0  0
   19.9552  -11.8019  -16.7082 C   0  0  0  0  0  0  0  0  0  0  0  0
   19.8851  -11.6045  -15.1877 C   0  0  0  0  0  0  0  0  0  0  0  0
   18.7336  -10.6492  -15.0708 C   0  0  1  0  0  0  0  0  0  0  0  0
   18.8351   -9.7651  -13.8934 C   0  0  0  0  0  0  0  0  0  0  0  0
   18.9138  -10.2459  -12.7126 O   0  0  0  0  0  0  0  0  0  0  0  0
   18.8533   -8.3440  -13.9700 N   0  0  0  0  0  0  0  0  0  0  0  0
   18.9754   -7.5112  -12.7647 C   0  0  1  0  0  0  0  0  0  0  0  0
   19.7810   -6.2891  -13.1359 C   0  0  0  0  0  0  0  0  0  0  0  0
   21.2442   -6.6399  -13.0004 C   0  0  0  0  0  0  0  0  0  0  0  0
   22.0397   -5.4277  -13.2858 C   0  0  0  0  0  0  0  0  0  0  0  0
   22.4099   -4.6978  -12.3381 O   0  0  0  0  0  0  0  0  0  0  0  0
   17.6416   -7.1798  -12.2186 C   0  0  0  0  0  0  0  0  0  0  0  0
   16.7345   -6.8188  -13.0267 O   0  0  0  0  0  0  0  0  0  0  0  0
   22.3841   -5.0813  -14.5727 O   0  0  0  0  0  0  0  0  0  0  0  0
   17.3443   -7.2487  -10.8564 N   0  0  0  0  0  0  0  0  0  0  0  0
   16.0375   -6.8403  -10.2926 C   0  0  1  0  0  0  0  0  0  0  0  0
   15.5534   -8.0732   -9.5683 C   0  0  0  0  0  0  0  0  0  0  0  0
   14.2381   -7.9491   -8.9287 C   0  0  0  0  0  0  0  0  0  0  0  0
   13.5793   -6.8929   -8.9421 O   0  0  0  0  0  0  0  0  0  0  0  0
   16.2539   -5.6896   -9.3833 C   0  0  0  0  0  0  0  0  0  0  0  0
   17.3610   -5.5338   -8.8071 O   0  0  0  0  0  0  0  0  0  0  0  0
   13.6503   -9.0278   -8.2624 O   0  0  0  0  0  0  0  0  0  0  0  0
   15.2704   -4.7668   -9.1418 O   0  0  0  0  0  0  0  0  0  0  0  0
  1  2  1  0
  3  2  1  0
  4  3  1  0
  4  5  1  0
  5  1  1  0
  6  8  1  0
  5  6  1  1
  7  6  2  0
  9  8  1  0
  9 14  1  0
  9 10  1  6
 11 10  1  0
 12 11  1  0
 13 12  2  0
 14 17  1  0
 15 14  2  0
 16 12  1  0
 17 18  1  0
 18 19  1  1
 18 22  1  0
 20 19  1  0
 21 20  2  0
 22 25  1  0
 23 22  2  0
 24 20  1  0
M  END
$$$$
