PED.pdb
     RDKit          3D

 25 25  0  0  1  0  0  0  0  0999 V2000
   27.7394  -18.7669  -18.3847 N   0  0  0  0  0  0  0  0  0  0  0  0
   28.7179  -19.8288  -18.2496 C   0  0  0  0  0  0  0  0  0  0  0  0
   28.0574  -21.0589  -18.8817 C   0  0  0  0  0  0  0  0  0  0  0  0
   26.6274  -20.8634  -18.3593 C   0  0  0  0  0  0  0  0  0  0  0  0
   26.4541  -19.3828  -18.5322 C   0  0  1  0  0  0  0  0  0  0  0  0
   25.5248  -18.7922  -17.5493 C   0  0  0  0  0  0  0  0  0  0  0  0
   25.9472  -18.3392  -16.4322 O   0  0  0  0  0  0  0  0  0  0  0  0
   24.1211  -18.6802  -17.7554 N   0  0  0  0  0  0  0  0  0  0  0  0
   23.2378  -18.1046  -16.7309 C   0  0  1  0  0  0  0  0  0  0  0  0
   22.3876  -17.0524  -17.4023 C   0  0  0  0  0  0  0  0  0  0  0  0
   22.6427  -17.1300  -18.8893 C   0  0  0  0  0  0  0  0  0  0  0  0
   21.8785  -16.0500  -19.5476 C   0  0  0  0  0  0  0  0  0  0  0  0
   22.4823  -15.0358  -19.9653 O   0  0  0  0  0  0  0  0  0  0  0  0
   22.4377  -19.1609  -16.0742 C   0  0  0  0  0  0  0  0  0  0  0  0
   22.2055  -20.2268  -16.7192 O   0  0  0  0  0  0  0  0  0  0  0  0
   20.5144  -16.1334  -19.7126 O   0  0  0  0  0  0  0  0  0  0  0  0
   21.9317  -19.0308  -14.7797 N   0  0  0  0  0  0  0  0  0  0  0  0
   21.1676  -20.1011  -14.0992 C   0  0  1  0  0  0  0  0  0  0  0  0
   21.9126  -20.3106  -12.8029 C   0  0  0  0  0  0  0  0  0  0  0  0
   21.3245  -21.3027  -11.8949 C   0  0  0  0  0  0  0  0  0  0  0  0
   20.2968  -21.9469  -12.1750 O   0  0  0  0  0  0  0  0  0  0  0  0
   19.7773  -19.6304  -13.8913 C   0  0  0  0  0  0  0  0  0  0  0  0
   18.8922  -20.4235  -13.4796 O   0  0  0  0  0  0  0  0  0  0  0  0
   21.8983  -21.5779  -10.6507 O   0  0  0  0  0  0  0  0  0  0  0  0
   19.4116  -18.3328  -14.1354 O   0  0  0  0  0  0  0  0  0  0  0  0
  1  2  1  0
  3  2  1  0
  4  3  1  0
  4  5  1  0
  5  1  1  0
  6  8  1  0
  5  6  1  1
  7  6  2  0
  9  8  1  0
  9 14  1  0
  9 10  1  6
 11 10  1  0
 12 11  1  0
 13 12  2  0
 14 17  1  0
 15 14  2  0
 16 12  1  0
 17 18  1  0
 18 19  1  1
 18 22  1  0
 20 19  1  0
 21 20  2  0
 22 25  1  0
 23 22  2  0
 24 20  1  0
M  END
$$$$
