PED.pdb
     RDKit          3D

 25 25  0  0  1  0  0  0  0  0999 V2000
   26.4545  -21.8739  -16.1021 N   0  0  0  0  0  0  0  0  0  0  0  0
   27.5741  -21.8173  -17.0223 C   0  0  0  0  0  0  0  0  0  0  0  0
   28.7398  -21.2652  -16.1944 C   0  0  0  0  0  0  0  0  0  0  0  0
   27.9819  -20.2064  -15.3818 C   0  0  0  0  0  0  0  0  0  0  0  0
   26.7213  -20.9466  -15.0428 C   0  0  1  0  0  0  0  0  0  0  0  0
   25.5553  -20.0562  -14.8812 C   0  0  0  0  0  0  0  0  0  0  0  0
   25.5363  -19.1520  -13.9792 O   0  0  0  0  0  0  0  0  0  0  0  0
   24.3876  -20.1263  -15.6918 N   0  0  0  0  0  0  0  0  0  0  0  0
   23.2274  -19.2582  -15.4442 C   0  0  1  0  0  0  0  0  0  0  0  0
   22.9700  -18.4715  -16.7074 C   0  0  0  0  0  0  0  0  0  0  0  0
   21.8441  -17.5035  -16.4291 C   0  0  0  0  0  0  0  0  0  0  0  0
   21.5691  -16.7443  -17.6668 C   0  0  0  0  0  0  0  0  0  0  0  0
   22.4772  -16.6052  -18.5175 O   0  0  0  0  0  0  0  0  0  0  0  0
   22.0588  -20.0547  -15.0116 C   0  0  0  0  0  0  0  0  0  0  0  0
   21.8324  -21.1556  -15.5972 O   0  0  0  0  0  0  0  0  0  0  0  0
   20.3344  -16.1851  -17.9067 O   0  0  0  0  0  0  0  0  0  0  0  0
   21.2009  -19.6441  -13.9899 N   0  0  0  0  0  0  0  0  0  0  0  0
   20.0350  -20.4409  -13.5444 C   0  0  1  0  0  0  0  0  0  0  0  0
   20.3289  -20.7338  -12.0929 C   0  0  0  0  0  0  0  0  0  0  0  0
   19.4430  -21.7182  -11.4598 C   0  0  0  0  0  0  0  0  0  0  0  0
   18.5166  -22.2822  -12.0709 O   0  0  0  0  0  0  0  0  0  0  0  0
   18.8090  -19.6278  -13.7279 C   0  0  0  0  0  0  0  0  0  0  0  0
   18.8329  -18.3866  -13.5262 O   0  0  0  0  0  0  0  0  0  0  0  0
   19.5979  -22.0770  -10.1181 O   0  0  0  0  0  0  0  0  0  0  0  0
   17.6228  -20.1906  -14.1195 O   0  0  0  0  0  0  0  0  0  0  0  0
  1  2  1  0
  3  2  1  0
  4  3  1  0
  4  5  1  0
  5  1  1  0
  6  8  1  0
  5  6  1  6
  7  6  2  0
  9  8  1  0
  9 14  1  0
  9 10  1  6
 11 10  1  0
 12 11  1  0
 13 12  2  0
 14 17  1  0
 15 14  2  0
 16 12  1  0
 17 18  1  0
 18 19  1  1
 18 22  1  0
 20 19  1  0
 21 20  2  0
 22 25  1  0
 23 22  2  0
 24 20  1  0
M  END
$$$$
