PED.pdb
     RDKit          3D

 25 25  0  0  1  0  0  0  0  0999 V2000
   29.7398  -20.0173  -12.2700 N   0  0  0  0  0  0  0  0  0  0  0  0
   30.9150  -20.7071  -11.7734 C   0  0  0  0  0  0  0  0  0  0  0  0
   31.4205  -21.5338  -12.9608 C   0  0  0  0  0  0  0  0  0  0  0  0
   30.0718  -22.0070  -13.5204 C   0  0  0  0  0  0  0  0  0  0  0  0
   29.2498  -20.7578  -13.3946 C   0  0  1  0  0  0  0  0  0  0  0  0
   27.8126  -21.0304  -13.1987 C   0  0  0  0  0  0  0  0  0  0  0  0
   27.1344  -21.6578  -14.0807 O   0  0  0  0  0  0  0  0  0  0  0  0
   27.0811  -20.6299  -12.0455 N   0  0  0  0  0  0  0  0  0  0  0  0
   25.6460  -20.9177  -11.9077 C   0  0  1  0  0  0  0  0  0  0  0  0
   25.2704  -20.6781  -10.4648 C   0  0  0  0  0  0  0  0  0  0  0  0
   23.8294  -21.0947  -10.2857 C   0  0  0  0  0  0  0  0  0  0  0  0
   23.4704  -20.9218   -8.8627 C   0  0  0  0  0  0  0  0  0  0  0  0
   22.3474  -20.4556   -8.5641 O   0  0  0  0  0  0  0  0  0  0  0  0
   24.8541  -20.1024  -12.8538 C   0  0  0  0  0  0  0  0  0  0  0  0
   25.3130  -18.9743  -13.2044 O   0  0  0  0  0  0  0  0  0  0  0  0
   24.3444  -21.2621   -7.8552 O   0  0  0  0  0  0  0  0  0  0  0  0
   23.6286  -20.5240  -13.3726 N   0  0  0  0  0  0  0  0  0  0  0  0
   22.9043  -19.7885  -14.4341 C   0  0  1  0  0  0  0  0  0  0  0  0
   23.8246  -19.8741  -15.6277 C   0  0  0  0  0  0  0  0  0  0  0  0
   23.2853  -19.3227  -16.8765 C   0  0  0  0  0  0  0  0  0  0  0  0
   22.2889  -18.5771  -16.9089 O   0  0  0  0  0  0  0  0  0  0  0  0
   21.6010  -20.4559  -14.6666 C   0  0  0  0  0  0  0  0  0  0  0  0
   21.4588  -21.6794  -14.4120 O   0  0  0  0  0  0  0  0  0  0  0  0
   23.8728  -19.6119  -18.1111 O   0  0  0  0  0  0  0  0  0  0  0  0
   20.5196  -19.7738  -15.1588 O   0  0  0  0  0  0  0  0  0  0  0  0
  1  2  1  0
  3  2  1  0
  4  3  1  0
  4  5  1  0
  5  1  1  0
  6  8  1  0
  5  6  1  1
  7  6  2  0
  9  8  1  0
  9 14  1  0
  9 10  1  1
 11 10  1  0
 12 11  1  0
 13 12  2  0
 14 17  1  0
 15 14  2  0
 16 12  1  0
 17 18  1  0
 18 19  1  6
 18 22  1  0
 20 19  1  0
 21 20  2  0
 22 25  1  0
 23 22  2  0
 24 20  1  0
M  END
$$$$
