PED.pdb
     RDKit          3D

 25 25  0  0  1  0  0  0  0  0999 V2000
   17.3294  -12.6320  -14.6870 N   0  0  0  0  0  0  0  0  0  0  0  0
   16.4651  -13.6758  -15.2037 C   0  0  0  0  0  0  0  0  0  0  0  0
   17.3730  -14.5426  -16.0832 C   0  0  0  0  0  0  0  0  0  0  0  0
   18.2053  -13.4338  -16.7419 C   0  0  0  0  0  0  0  0  0  0  0  0
   18.4473  -12.5199  -15.5764 C   0  0  1  0  0  0  0  0  0  0  0  0
   18.6027  -11.1071  -15.9740 C   0  0  0  0  0  0  0  0  0  0  0  0
   19.5259  -10.7467  -16.7798 O   0  0  0  0  0  0  0  0  0  0  0  0
   17.7629  -10.0568  -15.5079 N   0  0  0  0  0  0  0  0  0  0  0  0
   17.9180   -8.6772  -15.9916 C   0  0  1  0  0  0  0  0  0  0  0  0
   16.5531   -8.1864  -16.4120 C   0  0  0  0  0  0  0  0  0  0  0  0
   16.2598   -8.7501  -17.7825 C   0  0  0  0  0  0  0  0  0  0  0  0
   14.8990   -8.3288  -18.1755 C   0  0  0  0  0  0  0  0  0  0  0  0
   14.3566   -8.8549  -19.1738 O   0  0  0  0  0  0  0  0  0  0  0  0
   18.5446   -7.8258  -14.9574 C   0  0  0  0  0  0  0  0  0  0  0  0
   18.1989   -7.9950  -13.7499 O   0  0  0  0  0  0  0  0  0  0  0  0
   14.2120   -7.3688  -17.4674 O   0  0  0  0  0  0  0  0  0  0  0  0
   19.4962   -6.8494  -15.2571 N   0  0  0  0  0  0  0  0  0  0  0  0
   20.0721   -5.9423  -14.2383 C   0  0  1  0  0  0  0  0  0  0  0  0
   21.5378   -5.8804  -14.5946 C   0  0  0  0  0  0  0  0  0  0  0  0
   22.3435   -4.9643  -13.7784 C   0  0  0  0  0  0  0  0  0  0  0  0
   22.9479   -3.9879  -14.2592 O   0  0  0  0  0  0  0  0  0  0  0  0
   19.4005   -4.6249  -14.3447 C   0  0  0  0  0  0  0  0  0  0  0  0
   18.9547   -4.2259  -15.4510 O   0  0  0  0  0  0  0  0  0  0  0  0
   22.4743   -5.1455  -12.3989 O   0  0  0  0  0  0  0  0  0  0  0  0
   19.2423   -3.8066  -13.2573 O   0  0  0  0  0  0  0  0  0  0  0  0
  1  2  1  0
  3  2  1  0
  4  3  1  0
  4  5  1  0
  5  1  1  0
  6  8  1  0
  5  6  1  6
  7  6  2  0
  9  8  1  0
  9 14  1  0
  9 10  1  1
 11 10  1  0
 12 11  1  0
 13 12  2  0
 14 17  1  0
 15 14  2  0
 16 12  1  0
 17 18  1  0
 18 19  1  6
 18 22  1  0
 20 19  1  0
 21 20  2  0
 22 25  1  0
 23 22  2  0
 24 20  1  0
M  END
$$$$
