PED.pdb
     RDKit          3D

 25 25  0  0  1  0  0  0  0  0999 V2000
   25.4501  -11.8979  -16.1261 N   0  0  0  0  0  0  0  0  0  0  0  0
   25.5737  -13.3402  -16.2143 C   0  0  0  0  0  0  0  0  0  0  0  0
   25.8897  -13.6214  -17.6874 C   0  0  0  0  0  0  0  0  0  0  0  0
   24.9501  -12.5970  -18.3383 C   0  0  0  0  0  0  0  0  0  0  0  0
   25.1435  -11.4116  -17.4386 C   0  0  1  0  0  0  0  0  0  0  0  0
   23.9510  -10.5453  -17.3617 C   0  0  0  0  0  0  0  0  0  0  0  0
   23.5754   -9.8501  -18.3652 O   0  0  0  0  0  0  0  0  0  0  0  0
   23.1419  -10.4142  -16.1982 N   0  0  0  0  0  0  0  0  0  0  0  0
   21.9931   -9.4976  -16.1608 C   0  0  1  0  0  0  0  0  0  0  0  0
   20.8403  -10.2388  -15.5266 C   0  0  0  0  0  0  0  0  0  0  0  0
   19.6567   -9.3012  -15.4788 C   0  0  0  0  0  0  0  0  0  0  0  0
   18.4979  -10.0446  -14.9420 C   0  0  0  0  0  0  0  0  0  0  0  0
   17.4291   -9.4345  -14.7113 O   0  0  0  0  0  0  0  0  0  0  0  0
   22.3403   -8.2500  -15.4468 C   0  0  0  0  0  0  0  0  0  0  0  0
   23.0442   -8.3352  -14.3963 O   0  0  0  0  0  0  0  0  0  0  0  0
   18.5663  -11.3960  -14.6891 O   0  0  0  0  0  0  0  0  0  0  0  0
   21.9259   -6.9900  -15.8818 N   0  0  0  0  0  0  0  0  0  0  0  0
   22.2756   -5.7359  -15.1765 C   0  0  1  0  0  0  0  0  0  0  0  0
   21.8217   -4.6494  -16.1213 C   0  0  0  0  0  0  0  0  0  0  0  0
   22.0510   -3.2766  -15.6550 C   0  0  0  0  0  0  0  0  0  0  0  0
   22.7017   -3.0141  -14.6267 O   0  0  0  0  0  0  0  0  0  0  0  0
   21.5558   -5.7059  -13.8808 C   0  0  0  0  0  0  0  0  0  0  0  0
   22.0308   -5.0716  -12.9040 O   0  0  0  0  0  0  0  0  0  0  0  0
   21.5421   -2.1784  -16.3535 O   0  0  0  0  0  0  0  0  0  0  0  0
   20.3638   -6.3574  -13.7031 O   0  0  0  0  0  0  0  0  0  0  0  0
  1  2  1  0
  3  2  1  0
  4  3  1  0
  4  5  1  0
  5  1  1  0
  6  8  1  0
  5  6  1  1
  7  6  2  0
  9  8  1  0
  9 14  1  0
  9 10  1  1
 11 10  1  0
 12 11  1  0
 13 12  2  0
 14 17  1  0
 15 14  2  0
 16 12  1  0
 17 18  1  0
 18 19  1  6
 18 22  1  0
 20 19  1  0
 21 20  2  0
 22 25  1  0
 23 22  2  0
 24 20  1  0
M  END
$$$$
