RAK.pdb
     RDKit          3D

 26 25  0  0  1  0  0  0  0  0999 V2000
   31.5475  -22.0819   -9.5756 N   0  0  0  0  0  0  0  0  0  0  0  0
   31.6361  -22.5938  -10.8902 C   0  0  0  0  0  0  0  0  0  0  0  0
   32.4280  -23.5960  -11.1871 N   0  0  0  0  0  0  0  0  0  0  0  0
   30.8381  -21.9911  -11.9001 N   0  0  0  0  0  0  0  0  0  0  0  0
   29.8388  -21.0249  -11.5897 C   0  0  0  0  0  0  0  0  0  0  0  0
   28.4618  -21.6276  -11.4112 C   0  0  0  0  0  0  0  0  0  0  0  0
   27.5830  -21.0564  -12.5124 C   0  0  0  0  0  0  0  0  0  0  0  0
   26.5835  -20.0624  -11.9483 C   0  0  2  0  0  0  0  0  0  0  0  0
   25.5644  -20.7024  -11.1788 N   0  0  0  0  0  0  0  0  0  0  0  0
   25.9625  -19.2560  -13.0205 C   0  0  0  0  0  0  0  0  0  0  0  0
   24.8519  -19.6473  -13.5156 O   0  0  0  0  0  0  0  0  0  0  0  0
   32.5062  -23.9488  -12.1584 C   0  0  0  0  0  0  0  0  0  0  0  0
   26.7800  -16.0121  -14.7898 C   0  0  1  0  0  0  0  0  0  0  0  0
   25.9969  -17.2919  -14.5583 N   0  0  0  0  0  0  0  0  0  0  0  0
   26.5828  -18.0801  -13.4862 C   0  0  0  0  0  0  0  0  0  0  0  0
   26.0151  -18.0711  -15.8160 O   0  0  0  0  0  0  0  0  0  0  0  0
   27.0242  -18.7621  -16.1039 N   0  0  0  0  0  0  0  0  0  0  0  0
   24.9102  -18.0386  -16.6847 C   0  0  1  0  0  0  0  0  0  0  0  0
   25.0097  -18.8371  -17.9763 C   0  0  0  0  0  0  0  0  0  0  0  0
   24.0288  -19.9193  -17.7887 C   0  0  0  0  0  0  0  0  0  0  0  0
   24.0902  -20.9504  -16.7770 C   0  0  0  0  0  0  0  0  0  0  0  0
   23.1252  -22.0691  -16.7105 C   0  0  0  0  0  0  0  0  0  0  0  0
   23.4569  -22.9522  -15.4574 N   0  0  0  0  0  0  0  0  0  0  0  0
   22.5206  -24.0594  -15.4280 C   0  0  0  0  0  0  0  0  0  0  0  0
   24.6851  -17.8472  -19.0417 O   0  0  0  0  0  0  0  0  0  0  0  0
   24.1269  -16.7652  -18.8451 O   0  0  0  0  0  0  0  0  0  0  0  0
  1  2  1  0
  2  4  1  0
  3  2  2  0
  5  4  1  0
  5  6  1  0
  6  7  1  0
  7  8  1  0
  8 10  1  0
  8  9  1  6
 10 11  2  0
 13 12  1  1
 13 15  1  0
 14 10  1  0
 14 13  1  0
 15 17  1  0
 15 16  2  0
 17 18  1  0
 18 24  1  0
 18 19  1  6
 20 19  1  0
 21 20  1  0
 22 23  1  0
 22 21  1  0
 24 25  2  0
 24 26  1  0
M  END
$$$$
