RAK.pdb
     RDKit          3D

 26 25  0  0  1  0  0  0  0  0999 V2000
   19.8861  -20.9382  -14.2124 N   0  0  0  0  0  0  0  0  0  0  0  0
   19.7909  -21.5721  -12.9527 C   0  0  0  0  0  0  0  0  0  0  0  0
   18.7047  -22.2056  -12.5807 N   0  0  0  0  0  0  0  0  0  0  0  0
   20.9131  -21.5080  -12.0829 N   0  0  0  0  0  0  0  0  0  0  0  0
   22.1711  -21.0008  -12.5172 C   0  0  0  0  0  0  0  0  0  0  0  0
   23.2182  -20.9878  -11.4244 C   0  0  0  0  0  0  0  0  0  0  0  0
   24.4926  -20.4325  -12.0396 C   0  0  0  0  0  0  0  0  0  0  0  0
   25.4605  -21.5503  -12.3846 C   0  0  2  0  0  0  0  0  0  0  0  0
   26.3160  -21.8783  -11.2888 N   0  0  0  0  0  0  0  0  0  0  0  0
   26.2789  -21.2079  -13.5673 C   0  0  0  0  0  0  0  0  0  0  0  0
   27.2823  -20.4326  -13.4137 O   0  0  0  0  0  0  0  0  0  0  0  0
   18.6352  -22.6494  -11.6468 C   0  0  0  0  0  0  0  0  0  0  0  0
   26.5243  -22.4825  -17.1008 C   0  0  1  0  0  0  0  0  0  0  0  0
   26.8202  -21.4959  -15.9855 N   0  0  0  0  0  0  0  0  0  0  0  0
   25.9586  -21.7265  -14.8373 C   0  0  0  0  0  0  0  0  0  0  0  0
   26.5936  -20.1318  -16.5117 O   0  0  0  0  0  0  0  0  0  0  0  0
   25.5270  -19.5283  -16.2344 N   0  0  0  0  0  0  0  0  0  0  0  0
   27.5653  -19.5137  -17.3181 C   0  0  1  0  0  0  0  0  0  0  0  0
   27.3135  -18.0738  -17.7409 C   0  0  0  0  0  0  0  0  0  0  0  0
   28.6421  -17.6023  -18.1664 C   0  0  0  0  0  0  0  0  0  0  0  0
   28.9307  -16.3225  -18.7742 C   0  0  0  0  0  0  0  0  0  0  0  0
   30.2747  -15.9525  -19.2681 C   0  0  0  0  0  0  0  0  0  0  0  0
   30.2117  -14.5094  -19.8793 N   0  0  0  0  0  0  0  0  0  0  0  0
   31.4484  -14.2723  -20.5989 C   0  0  0  0  0  0  0  0  0  0  0  0
   26.2907  -18.1848  -18.8188 O   0  0  0  0  0  0  0  0  0  0  0  0
   25.4974  -17.2917  -19.1255 O   0  0  0  0  0  0  0  0  0  0  0  0
  1  2  1  0
  2  4  1  0
  3  2  2  0
  5  4  1  0
  5  6  1  0
  6  7  1  0
  7  8  1  0
  8 10  1  0
  8  9  1  1
 10 11  2  0
 13 12  1  1
 13 15  1  0
 14 10  1  0
 14 13  1  0
 15 17  1  0
 15 16  2  0
 17 18  1  0
 18 24  1  0
 18 19  1  6
 20 19  1  0
 21 20  1  0
 22 23  1  0
 22 21  1  0
 24 25  2  0
 24 26  1  0
M  END
$$$$
