RAK.pdb
     RDKit          3D

 26 25  0  0  1  0  0  0  0  0999 V2000
   29.0599  -26.7541  -15.9368 N   0  0  0  0  0  0  0  0  0  0  0  0
   29.3859  -25.5403  -16.5837 C   0  0  0  0  0  0  0  0  0  0  0  0
   30.6193  -25.2491  -16.9207 N   0  0  0  0  0  0  0  0  0  0  0  0
   28.3342  -24.6269  -16.8657 N   0  0  0  0  0  0  0  0  0  0  0  0
   28.5930  -23.2990  -17.3110 C   0  0  0  0  0  0  0  0  0  0  0  0
   28.9242  -22.3458  -16.1830 C   0  0  0  0  0  0  0  0  0  0  0  0
   27.9190  -22.6077  -15.0730 C   0  0  0  0  0  0  0  0  0  0  0  0
   27.0548  -21.3844  -14.8238 C   0  0  2  0  0  0  0  0  0  0  0  0
   27.8351  -20.2286  -14.5150 N   0  0  0  0  0  0  0  0  0  0  0  0
   26.0778  -21.6270  -13.7411 C   0  0  0  0  0  0  0  0  0  0  0  0
   25.1779  -22.5164  -13.9165 O   0  0  0  0  0  0  0  0  0  0  0  0
   30.8496  -24.3576  -17.3964 C   0  0  0  0  0  0  0  0  0  0  0  0
   25.4954  -20.3087  -10.2470 C   0  0  2  0  0  0  0  0  0  0  0  0
   25.0911  -20.9980  -11.5378 N   0  0  0  0  0  0  0  0  0  0  0  0
   26.1387  -20.8926  -12.5406 C   0  0  0  0  0  0  0  0  0  0  0  0
   23.8588  -20.3476  -12.0352 O   0  0  0  0  0  0  0  0  0  0  0  0
   23.9415  -19.2762  -12.6864 N   0  0  0  0  0  0  0  0  0  0  0  0
   22.6020  -20.9240  -11.7807 C   0  0  1  0  0  0  0  0  0  0  0  0
   21.3853  -20.2585  -12.4071 C   0  0  0  0  0  0  0  0  0  0  0  0
   21.5924  -20.4520  -13.8521 C   0  0  0  0  0  0  0  0  0  0  0  0
   20.6560  -20.0986  -14.8956 C   0  0  0  0  0  0  0  0  0  0  0  0
   20.9252  -20.3352  -16.3304 C   0  0  0  0  0  0  0  0  0  0  0  0
   19.7120  -19.8020  -17.1694 N   0  0  0  0  0  0  0  0  0  0  0  0
   20.0269  -19.9756  -18.5744 C   0  0  0  0  0  0  0  0  0  0  0  0
   20.2277  -20.9873  -11.8161 O   0  0  0  0  0  0  0  0  0  0  0  0
   20.2527  -22.1670  -11.4575 O   0  0  0  0  0  0  0  0  0  0  0  0
  1  2  1  0
  2  4  1  0
  3  2  2  0
  5  4  1  0
  5  6  1  0
  6  7  1  0
  7  8  1  0
  8 10  1  0
  8  9  1  1
 10 11  2  0
 13 12  1  1
 13 15  1  0
 14 10  1  0
 14 13  1  0
 15 17  1  0
 15 16  2  0
 17 18  1  0
 18 24  1  0
 18 19  1  1
 20 19  1  0
 21 20  1  0
 22 23  1  0
 22 21  1  0
 24 25  2  0
 24 26  1  0
M  END
$$$$
