RAK.pdb
     RDKit          3D

 26 25  0  0  1  0  0  0  0  0999 V2000
   19.3055  -17.4320  -18.5727 N   0  0  0  0  0  0  0  0  0  0  0  0
   19.3990  -17.0529  -17.2142 C   0  0  0  0  0  0  0  0  0  0  0  0
   18.3939  -17.2053  -16.3858 N   0  0  0  0  0  0  0  0  0  0  0  0
   20.6228  -16.4937  -16.7565 N   0  0  0  0  0  0  0  0  0  0  0  0
   21.6661  -16.1334  -17.6565 C   0  0  0  0  0  0  0  0  0  0  0  0
   22.1212  -17.2812  -18.5320 C   0  0  0  0  0  0  0  0  0  0  0  0
   22.9420  -18.2102  -17.6521 C   0  0  0  0  0  0  0  0  0  0  0  0
   24.3911  -17.7608  -17.5918 C   0  0  2  0  0  0  0  0  0  0  0  0
   25.0158  -17.7863  -18.8760 N   0  0  0  0  0  0  0  0  0  0  0  0
   25.1713  -18.5849  -16.6443 C   0  0  0  0  0  0  0  0  0  0  0  0
   25.1537  -19.8549  -16.7793 O   0  0  0  0  0  0  0  0  0  0  0  0
   18.4338  -16.8335  -15.4193 C   0  0  0  0  0  0  0  0  0  0  0  0
   27.4523  -17.9022  -13.7015 C   0  0  1  0  0  0  0  0  0  0  0  0
   26.6565  -18.7813  -14.6495 N   0  0  0  0  0  0  0  0  0  0  0  0
   25.9191  -17.9816  -15.6142 C   0  0  0  0  0  0  0  0  0  0  0  0
   25.7112  -19.5835  -13.8419 O   0  0  0  0  0  0  0  0  0  0  0  0
   24.5825  -19.1113  -13.5562 N   0  0  0  0  0  0  0  0  0  0  0  0
   26.0733  -20.8666  -13.3958 C   0  0  1  0  0  0  0  0  0  0  0  0
   25.1009  -21.5896  -12.4753 C   0  0  0  0  0  0  0  0  0  0  0  0
   25.2202  -22.9986  -12.8865 C   0  0  0  0  0  0  0  0  0  0  0  0
   24.1269  -23.9345  -13.0252 C   0  0  0  0  0  0  0  0  0  0  0  0
   23.9397  -24.7791  -14.2248 C   0  0  0  0  0  0  0  0  0  0  0  0
   22.5569  -25.5118  -14.1194 N   0  0  0  0  0  0  0  0  0  0  0  0
   22.3084  -26.1850  -15.3796 C   0  0  0  0  0  0  0  0  0  0  0  0
   25.5926  -21.2716  -11.1050 O   0  0  0  0  0  0  0  0  0  0  0  0
   26.7478  -20.9329  -10.8372 O   0  0  0  0  0  0  0  0  0  0  0  0
  1  2  1  0
  2  4  1  0
  3  2  2  0
  5  4  1  0
  5  6  1  0
  6  7  1  0
  7  8  1  0
  8 10  1  0
  8  9  1  6
 10 11  2  0
 13 12  1  6
 13 15  1  0
 14 10  1  0
 14 13  1  0
 15 17  1  0
 15 16  2  0
 17 18  1  0
 18 24  1  0
 18 19  1  1
 20 19  1  0
 21 20  1  0
 22 23  1  0
 22 21  1  0
 24 25  2  0
 24 26  1  0
M  END
$$$$
