RAK.pdb
     RDKit          3D

 26 25  0  0  1  0  0  0  0  0999 V2000
   29.7701  -16.7773  -17.3322 N   0  0  0  0  0  0  0  0  0  0  0  0
   28.5239  -16.1443  -17.1223 C   0  0  0  0  0  0  0  0  0  0  0  0
   27.7940  -15.7117  -18.1222 N   0  0  0  0  0  0  0  0  0  0  0  0
   28.0702  -15.9827  -15.7851 N   0  0  0  0  0  0  0  0  0  0  0  0
   27.3954  -17.0269  -15.0904 C   0  0  0  0  0  0  0  0  0  0  0  0
   26.6414  -17.9641  -16.0091 C   0  0  0  0  0  0  0  0  0  0  0  0
   25.9491  -18.9886  -15.1246 C   0  0  0  0  0  0  0  0  0  0  0  0
   26.9527  -19.9649  -14.5372 C   0  0  2  0  0  0  0  0  0  0  0  0
   27.5967  -20.7456  -15.5451 N   0  0  0  0  0  0  0  0  0  0  0  0
   26.3168  -20.8602  -13.5473 C   0  0  0  0  0  0  0  0  0  0  0  0
   25.7473  -21.9255  -13.9624 O   0  0  0  0  0  0  0  0  0  0  0  0
   28.1492  -15.7348  -19.0955 C   0  0  0  0  0  0  0  0  0  0  0  0
   25.5174  -20.4966   -9.8643 C   0  0  1  0  0  0  0  0  0  0  0  0
   25.2677  -20.9657  -11.2864 N   0  0  0  0  0  0  0  0  0  0  0  0
   26.3392  -20.5448  -12.1746 C   0  0  0  0  0  0  0  0  0  0  0  0
   23.9864  -20.3816  -11.7406 O   0  0  0  0  0  0  0  0  0  0  0  0
   23.9943  -19.4190  -12.5481 N   0  0  0  0  0  0  0  0  0  0  0  0
   22.7666  -20.8997  -11.2714 C   0  0  1  0  0  0  0  0  0  0  0  0
   21.5333  -20.6824  -12.1359 C   0  0  0  0  0  0  0  0  0  0  0  0
   21.7782  -21.5407  -13.3073 C   0  0  0  0  0  0  0  0  0  0  0  0
   20.8473  -21.7844  -14.3865 C   0  0  0  0  0  0  0  0  0  0  0  0
   21.1798  -22.6195  -15.5609 C   0  0  0  0  0  0  0  0  0  0  0  0
   19.9334  -22.6788  -16.5112 N   0  0  0  0  0  0  0  0  0  0  0  0
   20.2686  -23.5271  -17.6388 C   0  0  0  0  0  0  0  0  0  0  0  0
   20.3989  -21.0910  -11.2604 O   0  0  0  0  0  0  0  0  0  0  0  0
   20.4757  -21.9334  -10.3630 O   0  0  0  0  0  0  0  0  0  0  0  0
  1  2  1  0
  2  4  1  0
  3  2  2  0
  5  4  1  0
  5  6  1  0
  6  7  1  0
  7  8  1  0
  8 10  1  0
  8  9  1  6
 10 11  2  0
 13 12  1  1
 13 15  1  0
 14 10  1  0
 14 13  1  0
 15 17  1  0
 15 16  2  0
 17 18  1  0
 18 24  1  0
 18 19  1  1
 20 19  1  0
 21 20  1  0
 22 23  1  0
 22 21  1  0
 24 25  2  0
 24 26  1  0
M  END
$$$$
