RAK.pdb
     RDKit          3D

 26 25  0  0  1  0  0  0  0  0999 V2000
   20.1876  -22.5548   -8.1360 N   0  0  0  0  0  0  0  0  0  0  0  0
   20.5384  -21.5150   -9.0269 C   0  0  0  0  0  0  0  0  0  0  0  0
   19.6334  -20.8686   -9.7216 N   0  0  0  0  0  0  0  0  0  0  0  0
   21.9131  -21.1789   -9.1577 N   0  0  0  0  0  0  0  0  0  0  0  0
   22.9433  -22.0240   -8.6547 C   0  0  0  0  0  0  0  0  0  0  0  0
   24.3274  -21.4294   -8.8021 C   0  0  0  0  0  0  0  0  0  0  0  0
   24.4305  -20.8954  -10.2217 C   0  0  0  0  0  0  0  0  0  0  0  0
   25.8358  -20.4008  -10.5147 C   0  0  2  0  0  0  0  0  0  0  0  0
   26.3123  -19.5071   -9.5075 N   0  0  0  0  0  0  0  0  0  0  0  0
   25.9104  -19.7432  -11.8367 C   0  0  0  0  0  0  0  0  0  0  0  0
   24.9984  -18.9082  -12.1574 O   0  0  0  0  0  0  0  0  0  0  0  0
   19.9032  -20.1487  -10.4166 C   0  0  0  0  0  0  0  0  0  0  0  0
   28.4118  -19.5939  -14.6562 C   0  0  1  0  0  0  0  0  0  0  0  0
   27.0373  -19.4121  -14.0376 N   0  0  0  0  0  0  0  0  0  0  0  0
   26.9658  -20.0313  -12.7241 C   0  0  0  0  0  0  0  0  0  0  0  0
   26.0455  -20.0398  -14.9384 O   0  0  0  0  0  0  0  0  0  0  0  0
   25.7550  -21.2536  -14.7928 N   0  0  0  0  0  0  0  0  0  0  0  0
   25.4316  -19.2836  -15.9522 C   0  0  1  0  0  0  0  0  0  0  0  0
   24.3388  -19.9594  -16.7674 C   0  0  0  0  0  0  0  0  0  0  0  0
   23.1579  -19.1123  -16.5297 C   0  0  0  0  0  0  0  0  0  0  0  0
   21.8179  -19.3771  -17.0039 C   0  0  0  0  0  0  0  0  0  0  0  0
   20.6780  -18.4734  -16.7370 C   0  0  0  0  0  0  0  0  0  0  0  0
   19.3664  -19.1338  -17.2880 N   0  0  0  0  0  0  0  0  0  0  0  0
   18.2664  -18.2214  -17.0410 C   0  0  0  0  0  0  0  0  0  0  0  0
   24.8686  -19.9548  -18.1601 O   0  0  0  0  0  0  0  0  0  0  0  0
   24.4526  -20.6767  -19.0694 O   0  0  0  0  0  0  0  0  0  0  0  0
  1  2  1  0
  2  4  1  0
  3  2  2  0
  5  4  1  0
  5  6  1  0
  6  7  1  0
  7  8  1  0
  8 10  1  0
  8  9  1  1
 10 11  2  0
 13 12  1  1
 13 15  1  0
 14 10  1  0
 14 13  1  0
 15 17  1  0
 15 16  2  0
 17 18  1  0
 18 24  1  0
 18 19  1  6
 20 19  1  0
 21 20  1  0
 22 23  1  0
 22 21  1  0
 24 25  2  0
 24 26  1  0
M  END
$$$$
