RAK.pdb
     RDKit          3D

 26 25  0  0  1  0  0  0  0  0999 V2000
   27.7391  -25.3129  -16.6242 N   0  0  0  0  0  0  0  0  0  0  0  0
   27.0042  -26.2411  -17.3964 C   0  0  0  0  0  0  0  0  0  0  0  0
   27.5888  -27.2404  -18.0124 N   0  0  0  0  0  0  0  0  0  0  0  0
   25.5970  -26.0672  -17.4944 N   0  0  0  0  0  0  0  0  0  0  0  0
   24.9062  -25.0902  -16.7219 C   0  0  0  0  0  0  0  0  0  0  0  0
   25.3463  -25.0545  -15.2741 C   0  0  0  0  0  0  0  0  0  0  0  0
   24.1079  -24.7612  -14.4425 C   0  0  0  0  0  0  0  0  0  0  0  0
   23.6008  -23.3538  -14.7022 C   0  0  2  0  0  0  0  0  0  0  0  0
   24.5768  -22.3623  -14.3789 N   0  0  0  0  0  0  0  0  0  0  0  0
   22.3539  -23.0844  -13.9548 C   0  0  0  0  0  0  0  0  0  0  0  0
   22.4110  -22.9914  -12.6822 O   0  0  0  0  0  0  0  0  0  0  0  0
   27.0456  -27.9039  -18.5944 C   0  0  0  0  0  0  0  0  0  0  0  0
   18.8201  -22.1436  -14.8851 C   0  0  1  0  0  0  0  0  0  0  0  0
   19.9128  -22.5711  -13.9218 N   0  0  0  0  0  0  0  0  0  0  0  0
   21.1284  -22.9332  -14.6326 C   0  0  0  0  0  0  0  0  0  0  0  0
   19.4166  -23.7374  -13.1583 O   0  0  0  0  0  0  0  0  0  0  0  0
   19.7100  -24.8986  -13.5381 N   0  0  0  0  0  0  0  0  0  0  0  0
   18.6209  -23.5483  -12.0149 C   0  0  1  0  0  0  0  0  0  0  0  0
   18.2017  -24.7885  -11.2391 C   0  0  0  0  0  0  0  0  0  0  0  0
   18.2823  -24.3588   -9.8328 C   0  0  0  0  0  0  0  0  0  0  0  0
   17.8923  -25.1458   -8.6844 C   0  0  0  0  0  0  0  0  0  0  0  0
   18.0264  -24.6595   -7.2942 C   0  0  0  0  0  0  0  0  0  0  0  0
   17.4347  -25.7368   -6.3198 N   0  0  0  0  0  0  0  0  0  0  0  0
   17.5434  -25.2263   -4.9667 C   0  0  0  0  0  0  0  0  0  0  0  0
   16.8332  -25.0894  -11.7462 O   0  0  0  0  0  0  0  0  0  0  0  0
   16.0813  -24.2608  -12.2650 O   0  0  0  0  0  0  0  0  0  0  0  0
  1  2  1  0
  2  4  1  0
  3  2  2  0
  5  4  1  0
  5  6  1  0
  6  7  1  0
  7  8  1  0
  8 10  1  0
  8  9  1  1
 10 11  2  0
 13 12  1  1
 13 15  1  0
 14 10  1  0
 14 13  1  0
 15 17  1  0
 15 16  2  0
 17 18  1  0
 18 24  1  0
 18 19  1  6
 20 19  1  0
 21 20  1  0
 22 23  1  0
 22 21  1  0
 24 25  2  0
 24 26  1  0
M  END
$$$$
