RAK.pdb
     RDKit          3D

 26 25  0  0  1  0  0  0  0  0999 V2000
   24.2444  -19.0844  -21.4990 N   0  0  0  0  0  0  0  0  0  0  0  0
   23.6088  -20.2256  -20.9588 C   0  0  0  0  0  0  0  0  0  0  0  0
   22.3596  -20.5136  -21.2348 N   0  0  0  0  0  0  0  0  0  0  0  0
   24.3618  -21.0677  -20.0964 N   0  0  0  0  0  0  0  0  0  0  0  0
   25.7108  -20.7716  -19.7486 C   0  0  0  0  0  0  0  0  0  0  0  0
   26.3612  -21.8513  -18.9107 C   0  0  0  0  0  0  0  0  0  0  0  0
   25.7658  -21.7474  -17.5157 C   0  0  0  0  0  0  0  0  0  0  0  0
   26.1896  -20.4557  -16.8396 C   0  0  2  0  0  0  0  0  0  0  0  0
   27.4079  -20.6056  -16.1092 N   0  0  0  0  0  0  0  0  0  0  0  0
   25.1321  -19.9464  -15.9408 C   0  0  0  0  0  0  0  0  0  0  0  0
   25.1323  -20.3230  -14.7203 O   0  0  0  0  0  0  0  0  0  0  0  0
   21.9160  -21.3784  -20.8751 C   0  0  0  0  0  0  0  0  0  0  0  0
   22.3625  -17.3908  -16.2198 C   0  0  1  0  0  0  0  0  0  0  0  0
   23.1444  -18.4953  -15.5317 N   0  0  0  0  0  0  0  0  0  0  0  0
   24.1448  -19.0636  -16.4207 C   0  0  0  0  0  0  0  0  0  0  0  0
   22.1861  -19.5464  -15.1244 O   0  0  0  0  0  0  0  0  0  0  0  0
   21.9202  -20.4851  -15.9162 N   0  0  0  0  0  0  0  0  0  0  0  0
   21.5753  -19.4956  -13.8591 C   0  0  1  0  0  0  0  0  0  0  0  0
   20.6141  -20.6188  -13.4986 C   0  0  0  0  0  0  0  0  0  0  0  0
   20.7234  -20.7086  -12.0328 C   0  0  0  0  0  0  0  0  0  0  0  0
   21.9411  -20.9398  -11.2881 C   0  0  0  0  0  0  0  0  0  0  0  0
   21.9589  -21.1603   -9.8258 C   0  0  0  0  0  0  0  0  0  0  0  0
   23.4410  -21.3840   -9.3640 N   0  0  0  0  0  0  0  0  0  0  0  0
   23.4196  -21.8141   -7.9791 C   0  0  0  0  0  0  0  0  0  0  0  0
   19.2987  -20.1537  -14.0219 O   0  0  0  0  0  0  0  0  0  0  0  0
   18.3662  -20.8986  -14.3325 O   0  0  0  0  0  0  0  0  0  0  0  0
  1  2  1  0
  2  4  1  0
  3  2  2  0
  5  4  1  0
  5  6  1  0
  6  7  1  0
  7  8  1  0
  8 10  1  0
  8  9  1  1
 10 11  2  0
 13 12  1  1
 13 15  1  0
 14 10  1  0
 14 13  1  0
 15 17  1  0
 15 16  2  0
 17 18  1  0
 18 24  1  0
 18 19  1  1
 20 19  1  0
 21 20  1  0
 22 23  1  0
 22 21  1  0
 24 25  2  0
 24 26  1  0
M  END
$$$$
