RAK.pdb
     RDKit          3D

 26 25  0  0  1  0  0  0  0  0999 V2000
   16.9118  -23.8568  -12.7696 N   0  0  0  0  0  0  0  0  0  0  0  0
   17.7340  -24.4074  -13.7789 C   0  0  0  0  0  0  0  0  0  0  0  0
   17.2270  -24.9690  -14.8501 N   0  0  0  0  0  0  0  0  0  0  0  0
   19.1432  -24.3401  -13.6073 N   0  0  0  0  0  0  0  0  0  0  0  0
   19.7839  -23.1669  -13.1158 C   0  0  0  0  0  0  0  0  0  0  0  0
   19.6654  -21.9852  -14.0542 C   0  0  0  0  0  0  0  0  0  0  0  0
   20.4500  -20.8432  -13.4286 C   0  0  0  0  0  0  0  0  0  0  0  0
   21.2626  -21.3293  -12.2417 C   0  0  2  0  0  0  0  0  0  0  0  0
   20.5783  -21.1301  -11.0038 N   0  0  0  0  0  0  0  0  0  0  0  0
   22.5851  -20.6707  -12.1887 C   0  0  0  0  0  0  0  0  0  0  0  0
   22.6357  -19.4175  -11.9468 O   0  0  0  0  0  0  0  0  0  0  0  0
   17.8367  -25.3815  -15.5796 C   0  0  0  0  0  0  0  0  0  0  0  0
   26.1505  -21.7624  -11.9515 C   0  0  1  0  0  0  0  0  0  0  0  0
   25.0720  -20.7744  -12.3581 N   0  0  0  0  0  0  0  0  0  0  0  0
   23.7651  -21.4104  -12.4004 C   0  0  0  0  0  0  0  0  0  0  0  0
   25.4147  -20.2519  -13.6992 O   0  0  0  0  0  0  0  0  0  0  0  0
   24.9523  -20.8159  -14.7223 N   0  0  0  0  0  0  0  0  0  0  0  0
   26.2535  -19.1311  -13.8291 C   0  0  1  0  0  0  0  0  0  0  0  0
   26.4741  -18.5785  -15.2296 C   0  0  0  0  0  0  0  0  0  0  0  0
   26.9751  -17.2151  -14.9871 C   0  0  0  0  0  0  0  0  0  0  0  0
   26.8909  -16.1064  -15.9113 C   0  0  0  0  0  0  0  0  0  0  0  0
   27.4122  -14.7582  -15.5982 C   0  0  0  0  0  0  0  0  0  0  0  0
   27.1502  -13.8151  -16.8237 N   0  0  0  0  0  0  0  0  0  0  0  0
   27.6255  -12.4889  -16.4792 C   0  0  0  0  0  0  0  0  0  0  0  0
   27.4465  -19.5251  -15.8451 O   0  0  0  0  0  0  0  0  0  0  0  0
   28.2662  -20.1956  -15.2130 O   0  0  0  0  0  0  0  0  0  0  0  0
  1  2  1  0
  2  4  1  0
  3  2  2  0
  5  4  1  0
  5  6  1  0
  6  7  1  0
  7  8  1  0
  8 10  1  0
  8  9  1  1
 10 11  2  0
 13 12  1  1
 13 15  1  0
 14 10  1  0
 14 13  1  0
 15 17  1  0
 15 16  2  0
 17 18  1  0
 18 24  1  0
 18 19  1  6
 20 19  1  0
 21 20  1  0
 22 23  1  0
 22 21  1  0
 24 25  2  0
 24 26  1  0
M  END
$$$$
