RAK.pdb
     RDKit          3D

 26 25  0  0  1  0  0  0  0  0999 V2000
   31.5303  -29.3447  -20.3545 N   0  0  0  0  0  0  0  0  0  0  0  0
   32.7213  -29.5340  -19.6173 C   0  0  0  0  0  0  0  0  0  0  0  0
   33.8248  -28.8909  -19.9144 N   0  0  0  0  0  0  0  0  0  0  0  0
   32.6994  -30.4500  -18.5308 N   0  0  0  0  0  0  0  0  0  0  0  0
   31.5041  -31.1152  -18.1343 C   0  0  0  0  0  0  0  0  0  0  0  0
   30.7327  -30.3694  -17.0667 C   0  0  0  0  0  0  0  0  0  0  0  0
   30.2512  -31.4053  -16.0638 C   0  0  0  0  0  0  0  0  0  0  0  0
   28.9348  -32.0187  -16.5068 C   0  0  2  0  0  0  0  0  0  0  0  0
   27.9079  -31.0373  -16.6572 N   0  0  0  0  0  0  0  0  0  0  0  0
   28.4854  -33.0665  -15.5656 C   0  0  0  0  0  0  0  0  0  0  0  0
   29.2382  -34.0803  -15.3732 O   0  0  0  0  0  0  0  0  0  0  0  0
   34.6887  -29.0212  -19.3570 C   0  0  0  0  0  0  0  0  0  0  0  0
   25.4700  -33.5926  -13.3378 C   0  0  2  0  0  0  0  0  0  0  0  0
   26.7884  -33.9814  -13.9823 N   0  0  0  0  0  0  0  0  0  0  0  0
   27.2523  -32.9488  -14.8948 C   0  0  0  0  0  0  0  0  0  0  0  0
   26.5779  -35.2437  -14.7248 O   0  0  0  0  0  0  0  0  0  0  0  0
   26.4160  -35.2120  -15.9704 N   0  0  0  0  0  0  0  0  0  0  0  0
   26.5584  -36.4721  -14.0413 C   0  0  1  0  0  0  0  0  0  0  0  0
   26.3966  -37.7356  -14.8738 C   0  0  0  0  0  0  0  0  0  0  0  0
   27.6067  -37.7526  -15.7128 C   0  0  0  0  0  0  0  0  0  0  0  0
   28.1011  -38.8868  -16.4611 C   0  0  0  0  0  0  0  0  0  0  0  0
   29.3171  -38.8269  -17.3007 C   0  0  0  0  0  0  0  0  0  0  0  0
   29.5670  -40.2398  -17.9342 N   0  0  0  0  0  0  0  0  0  0  0  0
   30.7168  -40.1409  -18.8125 C   0  0  0  0  0  0  0  0  0  0  0  0
   26.2945  -38.8262  -13.8635 O   0  0  0  0  0  0  0  0  0  0  0  0
   26.0352  -40.0026  -14.1275 O   0  0  0  0  0  0  0  0  0  0  0  0
  1  2  1  0
  2  4  1  0
  3  2  2  0
  5  4  1  0
  5  6  1  0
  6  7  1  0
  7  8  1  0
  8 10  1  0
  8  9  1  1
 10 11  2  0
 13 12  1  1
 13 15  1  0
 14 10  1  0
 14 13  1  0
 15 17  1  0
 15 16  2  0
 17 18  1  0
 18 24  1  0
 18 19  1  6
 20 19  1  0
 21 20  1  0
 22 23  1  0
 22 21  1  0
 24 25  2  0
 24 26  1  0
M  END
$$$$
