RAK.pdb
     RDKit          3D

 26 25  0  0  1  0  0  0  0  0999 V2000
   28.7620  -23.3539  -16.1565 N   0  0  0  0  0  0  0  0  0  0  0  0
   29.5366  -22.9731  -17.2758 C   0  0  0  0  0  0  0  0  0  0  0  0
   30.2993  -23.8310  -17.9096 N   0  0  0  0  0  0  0  0  0  0  0  0
   29.4723  -21.6204  -17.7073 N   0  0  0  0  0  0  0  0  0  0  0  0
   28.4669  -20.7292  -17.2348 C   0  0  0  0  0  0  0  0  0  0  0  0
   28.9635  -19.3105  -17.0569 C   0  0  0  0  0  0  0  0  0  0  0  0
   27.7732  -18.4783  -16.6076 C   0  0  0  0  0  0  0  0  0  0  0  0
   26.6297  -18.5864  -17.6006 C   0  0  2  0  0  0  0  0  0  0  0  0
   27.0289  -18.2204  -18.9223 N   0  0  0  0  0  0  0  0  0  0  0  0
   25.4757  -17.7611  -17.1847 C   0  0  0  0  0  0  0  0  0  0  0  0
   24.9626  -17.9628  -16.0325 O   0  0  0  0  0  0  0  0  0  0  0  0
   30.9154  -23.5298  -18.6867 C   0  0  0  0  0  0  0  0  0  0  0  0
   23.5292  -14.8818  -18.6833 C   0  0  1  0  0  0  0  0  0  0  0  0
   23.8335  -15.9383  -17.6364 N   0  0  0  0  0  0  0  0  0  0  0  0
   24.9534  -16.7725  -18.0415 C   0  0  0  0  0  0  0  0  0  0  0  0
   22.6249  -16.7749  -17.4684 O   0  0  0  0  0  0  0  0  0  0  0  0
   22.6442  -17.9755  -17.8385 N   0  0  0  0  0  0  0  0  0  0  0  0
   21.4607  -16.2304  -16.8987 C   0  0  1  0  0  0  0  0  0  0  0  0
   20.2518  -17.1448  -16.7638 C   0  0  0  0  0  0  0  0  0  0  0  0
   20.6879  -18.1492  -15.7791 C   0  0  0  0  0  0  0  0  0  0  0  0
   19.9959  -19.3785  -15.4618 C   0  0  0  0  0  0  0  0  0  0  0  0
   19.6348  -19.7635  -14.0803 C   0  0  0  0  0  0  0  0  0  0  0  0
   18.8258  -21.1066  -14.1224 N   0  0  0  0  0  0  0  0  0  0  0  0
   18.3687  -21.3977  -12.7771 C   0  0  0  0  0  0  0  0  0  0  0  0
   19.1567  -16.2368  -16.3202 O   0  0  0  0  0  0  0  0  0  0  0  0
   19.3311  -15.1438  -15.7763 O   0  0  0  0  0  0  0  0  0  0  0  0
  1  2  1  0
  2  4  1  0
  3  2  2  0
  5  4  1  0
  5  6  1  0
  6  7  1  0
  7  8  1  0
  8 10  1  0
  8  9  1  6
 10 11  2  0
 13 12  1  1
 13 15  1  0
 14 10  1  0
 14 13  1  0
 15 17  1  0
 15 16  2  0
 17 18  1  0
 18 24  1  0
 18 19  1  6
 20 19  1  0
 21 20  1  0
 22 23  1  0
 22 21  1  0
 24 25  2  0
 24 26  1  0
M  END
$$$$
