RAK.pdb
     RDKit          3D

 26 25  0  0  1  0  0  0  0  0999 V2000
   17.4929  -14.2203  -15.0450 N   0  0  0  0  0  0  0  0  0  0  0  0
   16.9768  -13.6501  -16.2309 C   0  0  0  0  0  0  0  0  0  0  0  0
   15.8961  -14.1190  -16.8070 N   0  0  0  0  0  0  0  0  0  0  0  0
   17.6632  -12.5414  -16.7962 N   0  0  0  0  0  0  0  0  0  0  0  0
   17.7708  -11.2972  -16.1115 C   0  0  0  0  0  0  0  0  0  0  0  0
   16.4291  -10.7007  -15.7442 C   0  0  0  0  0  0  0  0  0  0  0  0
   16.7016   -9.3213  -15.1661 C   0  0  0  0  0  0  0  0  0  0  0  0
   17.8109   -9.3762  -14.1308 C   0  0  2  0  0  0  0  0  0  0  0  0
   17.3659   -9.9380  -12.8953 N   0  0  0  0  0  0  0  0  0  0  0  0
   18.3870   -8.0366  -13.8876 C   0  0  0  0  0  0  0  0  0  0  0  0
   17.6078   -7.0919  -13.5244 O   0  0  0  0  0  0  0  0  0  0  0  0
   15.5123  -13.6821  -17.6648 C   0  0  0  0  0  0  0  0  0  0  0  0
   21.8568   -6.5278  -13.9475 C   0  0  1  0  0  0  0  0  0  0  0  0
   20.3427   -6.4884  -13.8442 N   0  0  0  0  0  0  0  0  0  0  0  0
   19.7670   -7.8072  -14.0525 C   0  0  0  0  0  0  0  0  0  0  0  0
   19.8395   -5.5568  -14.8776 O   0  0  0  0  0  0  0  0  0  0  0  0
   19.6035   -5.9828  -16.0358 N   0  0  0  0  0  0  0  0  0  0  0  0
   19.6268   -4.2024  -14.5664 C   0  0  1  0  0  0  0  0  0  0  0  0
   19.1306   -3.2956  -15.6831 C   0  0  0  0  0  0  0  0  0  0  0  0
   17.9918   -2.5891  -15.0728 C   0  0  0  0  0  0  0  0  0  0  0  0
   17.2503   -1.5027  -15.6733 C   0  0  0  0  0  0  0  0  0  0  0  0
   16.1058   -0.8457  -15.0058 C   0  0  0  0  0  0  0  0  0  0  0  0
   15.4316    0.1481  -16.0147 N   0  0  0  0  0  0  0  0  0  0  0  0
   14.2648    0.7194  -15.3701 C   0  0  0  0  0  0  0  0  0  0  0  0
   20.3118   -2.4510  -16.0177 O   0  0  0  0  0  0  0  0  0  0  0  0
   21.3087   -2.3271  -15.3022 O   0  0  0  0  0  0  0  0  0  0  0  0
  1  2  1  0
  2  4  1  0
  3  2  2  0
  5  4  1  0
  5  6  1  0
  6  7  1  0
  7  8  1  0
  8 10  1  0
  8  9  1  1
 10 11  2  0
 13 12  1  1
 13 15  1  0
 14 10  1  0
 14 13  1  0
 15 17  1  0
 15 16  2  0
 17 18  1  0
 18 24  1  0
 18 19  1  6
 20 19  1  0
 21 20  1  0
 22 23  1  0
 22 21  1  0
 24 25  2  0
 24 26  1  0
M  END
$$$$
