RAK.pdb
     RDKit          3D

 26 25  0  0  1  0  0  0  0  0999 V2000
   25.2824  -22.7819  -15.5006 N   0  0  0  0  0  0  0  0  0  0  0  0
   26.4489  -22.6891  -16.2934 C   0  0  0  0  0  0  0  0  0  0  0  0
   27.0408  -23.7554  -16.7754 N   0  0  0  0  0  0  0  0  0  0  0  0
   26.9766  -21.3970  -16.5618 N   0  0  0  0  0  0  0  0  0  0  0  0
   26.3712  -20.2167  -16.0432 C   0  0  0  0  0  0  0  0  0  0  0  0
   25.3601  -19.6014  -16.9866 C   0  0  0  0  0  0  0  0  0  0  0  0
   24.7946  -18.3744  -16.2897 C   0  0  0  0  0  0  0  0  0  0  0  0
   25.9074  -17.5113  -15.7224 C   0  0  2  0  0  0  0  0  0  0  0  0
   26.4353  -18.0447  -14.5071 N   0  0  0  0  0  0  0  0  0  0  0  0
   25.4508  -16.1232  -15.4976 C   0  0  0  0  0  0  0  0  0  0  0  0
   24.4328  -15.9270  -14.7516 O   0  0  0  0  0  0  0  0  0  0  0  0
   27.8994  -23.6790  -17.3507 C   0  0  0  0  0  0  0  0  0  0  0  0
   26.6379  -12.6786  -16.5158 C   0  0  1  0  0  0  0  0  0  0  0  0
   25.6554  -13.6740  -15.9252 N   0  0  0  0  0  0  0  0  0  0  0  0
   26.1251  -15.0396  -16.0937 C   0  0  0  0  0  0  0  0  0  0  0  0
   24.3606  -13.5036  -16.6206 O   0  0  0  0  0  0  0  0  0  0  0  0
   23.9964  -14.3530  -17.4719 N   0  0  0  0  0  0  0  0  0  0  0  0
   23.5420  -12.3977  -16.3317 C   0  0  1  0  0  0  0  0  0  0  0  0
   22.2477  -12.2581  -17.1197 C   0  0  0  0  0  0  0  0  0  0  0  0
   21.4527  -13.4189  -16.6848 C   0  0  0  0  0  0  0  0  0  0  0  0
   20.0746  -13.6796  -17.0361 C   0  0  0  0  0  0  0  0  0  0  0  0
   19.3382  -14.8736  -16.5678 C   0  0  0  0  0  0  0  0  0  0  0  0
   17.8882  -14.8426  -17.1649 N   0  0  0  0  0  0  0  0  0  0  0  0
   17.2399  -16.0973  -16.8349 C   0  0  0  0  0  0  0  0  0  0  0  0
   21.7190  -10.9244  -16.7171 O   0  0  0  0  0  0  0  0  0  0  0  0
   22.1629  -10.2474  -15.7868 O   0  0  0  0  0  0  0  0  0  0  0  0
  1  2  1  0
  2  4  1  0
  3  2  2  0
  5  4  1  0
  5  6  1  0
  6  7  1  0
  7  8  1  0
  8 10  1  0
  8  9  1  1
 10 11  2  0
 13 12  1  1
 13 15  1  0
 14 10  1  0
 14 13  1  0
 15 17  1  0
 15 16  2  0
 17 18  1  0
 18 24  1  0
 18 19  1  6
 20 19  1  0
 21 20  1  0
 22 23  1  0
 22 21  1  0
 24 25  2  0
 24 26  1  0
M  END
$$$$
