RAK.pdb
     RDKit          3D

 26 25  0  0  1  0  0  0  0  0999 V2000
   28.1330  -21.5767  -11.3737 N   0  0  0  0  0  0  0  0  0  0  0  0
   26.8544  -21.0043  -11.1858 C   0  0  0  0  0  0  0  0  0  0  0  0
   26.0993  -21.3259  -10.1630 N   0  0  0  0  0  0  0  0  0  0  0  0
   26.3955  -20.0587  -12.1425 N   0  0  0  0  0  0  0  0  0  0  0  0
   27.2847  -19.1528  -12.7884 C   0  0  0  0  0  0  0  0  0  0  0  0
   27.0145  -19.0069  -14.2705 C   0  0  0  0  0  0  0  0  0  0  0  0
   26.6900  -17.5426  -14.5188 C   0  0  0  0  0  0  0  0  0  0  0  0
   25.1892  -17.3125  -14.5227 C   0  0  2  0  0  0  0  0  0  0  0  0
   24.4601  -18.5231  -14.7301 N   0  0  0  0  0  0  0  0  0  0  0  0
   24.7997  -16.3178  -15.5447 C   0  0  0  0  0  0  0  0  0  0  0  0
   24.3304  -16.7347  -16.6571 O   0  0  0  0  0  0  0  0  0  0  0  0
   25.1351  -20.9575  -10.0708 C   0  0  0  0  0  0  0  0  0  0  0  0
   24.5894  -12.5447  -15.6956 C   0  0  2  0  0  0  0  0  0  0  0  0
   24.5113  -13.9481  -16.2693 N   0  0  0  0  0  0  0  0  0  0  0  0
   24.9430  -14.9386  -15.2964 C   0  0  0  0  0  0  0  0  0  0  0  0
   25.3892  -14.0036  -17.4590 O   0  0  0  0  0  0  0  0  0  0  0  0
   26.5724  -14.4092  -17.3393 N   0  0  0  0  0  0  0  0  0  0  0  0
   24.9034  -13.6043  -18.7164 C   0  0  1  0  0  0  0  0  0  0  0  0
   25.8394  -13.7471  -19.9077 C   0  0  0  0  0  0  0  0  0  0  0  0
   25.0043  -14.4080  -20.9246 C   0  0  0  0  0  0  0  0  0  0  0  0
   25.3996  -14.6993  -22.2846 C   0  0  0  0  0  0  0  0  0  0  0  0
   24.5130  -15.3847  -23.2496 C   0  0  0  0  0  0  0  0  0  0  0  0
   25.2856  -15.5775  -24.6009 N   0  0  0  0  0  0  0  0  0  0  0  0
   24.3637  -16.1402  -25.5688 C   0  0  0  0  0  0  0  0  0  0  0  0
   26.2501  -12.3485  -20.2171 O   0  0  0  0  0  0  0  0  0  0  0  0
   27.1856  -12.0420  -20.9600 O   0  0  0  0  0  0  0  0  0  0  0  0
  1  2  1  0
  2  4  1  0
  3  2  2  0
  5  4  1  0
  5  6  1  0
  6  7  1  0
  7  8  1  0
  8 10  1  0
  8  9  1  6
 10 11  2  0
 13 12  1  1
 13 15  1  0
 14 10  1  0
 14 13  1  0
 15 17  1  0
 15 16  2  0
 17 18  1  0
 18 24  1  0
 18 19  1  6
 20 19  1  0
 21 20  1  0
 22 23  1  0
 22 21  1  0
 24 25  2  0
 24 26  1  0
M  END
$$$$
