WWS.pdb
     RDKit          3D

 35 38  0  0  1  0  0  0  0  0999 V2000
    8.4383  -17.2188   21.6112 N   0  0  0  0  0  0  0  0  0  0  0  0
    8.5781  -15.9071   22.1500 C   0  0  1  0  0  0  0  0  0  0  0  0
    7.2943  -15.1305   21.9965 C   0  0  0  0  0  0  0  0  0  0  0  0
    7.2098  -14.6499   20.5893 C   0  0  0  0  0  0  0  0  0  0  0  0
    6.3291  -15.1519   19.6166 C   0  0  0  0  0  0  0  0  0  0  0  0
    6.4824  -14.4728   18.4819 N   0  0  0  0  0  0  0  0  0  0  0  0
    7.4346  -13.5382   18.6668 C   0  0  0  0  0  0  0  0  0  0  0  0
    7.9762  -12.5853   17.8182 C   0  0  0  0  0  0  0  0  0  0  0  0
    8.9557  -11.7702   18.3000 C   0  0  0  0  0  0  0  0  0  0  0  0
    9.4313  -11.8502   19.5893 C   0  0  0  0  0  0  0  0  0  0  0  0
    8.8942  -12.7928   20.4281 C   0  0  0  0  0  0  0  0  0  0  0  0
    7.8985  -13.6412   19.9866 C   0  0  0  0  0  0  0  0  0  0  0  0
    9.1371  -15.8805   23.5122 C   0  0  0  0  0  0  0  0  0  0  0  0
    9.7106  -14.8357   23.9271 O   0  0  0  0  0  0  0  0  0  0  0  0
    9.0165  -17.0299   24.3287 N   0  0  0  0  0  0  0  0  0  0  0  0
    9.5709  -17.0994   25.6518 C   0  0  1  0  0  0  0  0  0  0  0  0
    8.4707  -17.0015   26.6871 C   0  0  0  0  0  0  0  0  0  0  0  0
    7.6067  -15.8236   26.4675 C   0  0  0  0  0  0  0  0  0  0  0  0
    6.3047  -15.8841   25.9533 C   0  0  0  0  0  0  0  0  0  0  0  0
    5.7991  -14.6518   25.9119 N   0  0  0  0  0  0  0  0  0  0  0  0
    6.6792  -13.7693   26.3650 C   0  0  0  0  0  0  0  0  0  0  0  0
    6.6367  -12.3997   26.5137 C   0  0  0  0  0  0  0  0  0  0  0  0
    7.7185  -11.6942   27.0145 C   0  0  0  0  0  0  0  0  0  0  0  0
    8.8349  -12.4191   27.3552 C   0  0  0  0  0  0  0  0  0  0  0  0
    8.8752  -13.7981   27.2046 C   0  0  0  0  0  0  0  0  0  0  0  0
    7.8128  -14.4897   26.7146 C   0  0  0  0  0  0  0  0  0  0  0  0
   10.3686  -18.3338   25.8283 C   0  0  0  0  0  0  0  0  0  0  0  0
    9.8584  -19.4814   25.8368 O   0  0  0  0  0  0  0  0  0  0  0  0
   14.6451  -18.2801   26.1026 O   0  0  0  0  0  0  0  0  0  0  0  0
   13.9393  -19.3911   25.6425 C   0  0  0  0  0  0  0  0  0  0  0  0
   12.5600  -19.4652   26.2724 C   0  0  2  0  0  0  0  0  0  0  0  0
   11.7942  -18.2664   26.0010 N   0  0  0  0  0  0  0  0  0  0  0  0
   12.6453  -19.7026   27.7182 C   0  0  0  0  0  0  0  0  0  0  0  0
   13.3848  -20.7742   28.1945 O   0  0  0  0  0  0  0  0  0  0  0  0
   12.0764  -18.9780   28.5732 O   0  0  0  0  0  0  0  0  0  0  0  0
  2  1  1  1
  3  2  1  0
  4  3  1  0
  5  4  2  0
  6  5  1  0
  7  6  1  0
  7 12  2  0
  8  7  1  0
  9  8  2  0
  9 10  1  0
 10 11  2  0
 11 12  1  0
 12  4  1  0
 13  2  1  0
 14 13  2  0
 15 13  1  0
 16 15  1  0
 16 27  1  0
 16 17  1  1
 18 17  1  0
 19 18  2  0
 20 19  1  0
 21 20  1  0
 21 26  2  0
 22 23  2  0
 22 21  1  0
 23 24  1  0
 24 25  2  0
 26 25  1  0
 26 18  1  0
 27 28  2  0
 30 29  1  0
 31 30  1  1
 32 27  1  0
 32 31  1  0
 33 34  1  0
 33 31  1  0
 35 33  2  0
M  END
$$$$
