WWS.pdb
     RDKit          3D

 35 38  0  0  1  0  0  0  0  0999 V2000
    9.3501  -18.2395   22.3284 N   0  0  0  0  0  0  0  0  0  0  0  0
   10.3558  -17.2309   22.3661 C   0  0  1  0  0  0  0  0  0  0  0  0
   10.1763  -16.2593   21.2265 C   0  0  0  0  0  0  0  0  0  0  0  0
    8.7514  -15.8262   21.2077 C   0  0  0  0  0  0  0  0  0  0  0  0
    7.6465  -16.6792   21.3667 C   0  0  0  0  0  0  0  0  0  0  0  0
    6.5234  -15.9649   21.3431 N   0  0  0  0  0  0  0  0  0  0  0  0
    6.8438  -14.6676   21.1730 C   0  0  0  0  0  0  0  0  0  0  0  0
    6.0650  -13.5253   21.0726 C   0  0  0  0  0  0  0  0  0  0  0  0
    6.6901  -12.3289   20.8889 C   0  0  0  0  0  0  0  0  0  0  0  0
    8.0580  -12.2034   20.7981 C   0  0  0  0  0  0  0  0  0  0  0  0
    8.8273  -13.3341   20.8982 C   0  0  0  0  0  0  0  0  0  0  0  0
    8.2404  -14.5695   21.0861 C   0  0  0  0  0  0  0  0  0  0  0  0
   10.5062  -16.5903   23.6836 C   0  0  0  0  0  0  0  0  0  0  0  0
   11.3166  -15.6324   23.8188 O   0  0  0  0  0  0  0  0  0  0  0  0
    9.7347  -17.0634   24.7714 N   0  0  0  0  0  0  0  0  0  0  0  0
   10.0060  -16.6897   26.1314 C   0  0  1  0  0  0  0  0  0  0  0  0
    8.7103  -16.4776   26.8852 C   0  0  0  0  0  0  0  0  0  0  0  0
    7.8187  -15.5223   26.1965 C   0  0  0  0  0  0  0  0  0  0  0  0
    6.7322  -15.8941   25.3936 C   0  0  0  0  0  0  0  0  0  0  0  0
    6.1250  -14.7931   24.9520 N   0  0  0  0  0  0  0  0  0  0  0  0
    6.7353  -13.7073   25.4071 C   0  0  0  0  0  0  0  0  0  0  0  0
    6.4995  -12.3606   25.2322 C   0  0  0  0  0  0  0  0  0  0  0  0
    7.3081  -11.4036   25.8231 C   0  0  0  0  0  0  0  0  0  0  0  0
    8.3550  -11.8555   26.5898 C   0  0  0  0  0  0  0  0  0  0  0  0
    8.5903  -13.2120   26.7644 C   0  0  0  0  0  0  0  0  0  0  0  0
    7.7956  -14.1504   26.1856 C   0  0  0  0  0  0  0  0  0  0  0  0
   10.8587  -17.6991   26.7986 C   0  0  0  0  0  0  0  0  0  0  0  0
   11.2368  -17.5929   27.9915 O   0  0  0  0  0  0  0  0  0  0  0  0
   11.9991  -21.1785   24.7386 O   0  0  0  0  0  0  0  0  0  0  0  0
   11.9065  -21.2416   26.1285 C   0  0  0  0  0  0  0  0  0  0  0  0
   12.1044  -19.8730   26.7550 C   0  0  2  0  0  0  0  0  0  0  0  0
   11.2984  -18.8702   26.0902 N   0  0  0  0  0  0  0  0  0  0  0  0
   13.5188  -19.4815   26.7472 C   0  0  0  0  0  0  0  0  0  0  0  0
   14.4557  -20.2841   27.3799 O   0  0  0  0  0  0  0  0  0  0  0  0
   13.9454  -18.4391   26.1894 O   0  0  0  0  0  0  0  0  0  0  0  0
  2  1  1  1
  3  2  1  0
  4  3  1  0
  5  4  2  0
  6  5  1  0
  7  6  1  0
  7 12  2  0
  8  7  1  0
  9  8  2  0
  9 10  1  0
 10 11  2  0
 11 12  1  0
 12  4  1  0
 13  2  1  0
 14 13  2  0
 15 13  1  0
 16 15  1  0
 16 27  1  0
 16 17  1  1
 18 17  1  0
 19 18  2  0
 20 19  1  0
 21 20  1  0
 21 26  2  0
 22 23  2  0
 22 21  1  0
 23 24  1  0
 24 25  2  0
 26 25  1  0
 26 18  1  0
 27 28  2  0
 30 29  1  0
 31 30  1  6
 32 27  1  0
 32 31  1  0
 33 34  1  0
 33 31  1  0
 35 33  2  0
M  END
$$$$
