WWS.pdb
     RDKit          3D

 35 38  0  0  1  0  0  0  0  0999 V2000
   11.0878  -16.9427   20.9107 N   0  0  0  0  0  0  0  0  0  0  0  0
    9.9960  -16.6119   21.7644 C   0  0  1  0  0  0  0  0  0  0  0  0
    8.7150  -17.2170   21.2469 C   0  0  0  0  0  0  0  0  0  0  0  0
    7.8326  -16.1088   20.7868 C   0  0  0  0  0  0  0  0  0  0  0  0
    6.5003  -16.2591   20.3675 C   0  0  0  0  0  0  0  0  0  0  0  0
    5.9894  -15.0673   20.0662 N   0  0  0  0  0  0  0  0  0  0  0  0
    6.9362  -14.1310   20.2698 C   0  0  0  0  0  0  0  0  0  0  0  0
    6.9304  -12.7548   20.1046 C   0  0  0  0  0  0  0  0  0  0  0  0
    8.0692  -12.0632   20.3889 C   0  0  0  0  0  0  0  0  0  0  0  0
    9.2235  -12.6684   20.8319 C   0  0  0  0  0  0  0  0  0  0  0  0
    9.2277  -14.0298   20.9957 C   0  0  0  0  0  0  0  0  0  0  0  0
    8.0979  -14.7745   20.7219 C   0  0  0  0  0  0  0  0  0  0  0  0
   10.2536  -16.8789   23.1896 C   0  0  0  0  0  0  0  0  0  0  0  0
   11.4414  -17.0320   23.5873 O   0  0  0  0  0  0  0  0  0  0  0  0
    9.1601  -16.9561   24.0843 N   0  0  0  0  0  0  0  0  0  0  0  0
    9.3269  -16.9474   25.5108 C   0  0  1  0  0  0  0  0  0  0  0  0
    7.9870  -16.7756   26.1943 C   0  0  0  0  0  0  0  0  0  0  0  0
    7.3617  -15.4774   25.8691 C   0  0  0  0  0  0  0  0  0  0  0  0
    6.2138  -15.3297   25.0792 C   0  0  0  0  0  0  0  0  0  0  0  0
    5.9013  -14.0361   25.0096 N   0  0  0  0  0  0  0  0  0  0  0  0
    6.7665  -13.3075   25.7017 C   0  0  0  0  0  0  0  0  0  0  0  0
    6.8761  -11.9522   25.9277 C   0  0  0  0  0  0  0  0  0  0  0  0
    7.9014  -11.4298   26.6988 C   0  0  0  0  0  0  0  0  0  0  0  0
    8.8037  -12.3210   27.2273 C   0  0  0  0  0  0  0  0  0  0  0  0
    8.6912  -13.6852   26.9984 C   0  0  0  0  0  0  0  0  0  0  0  0
    7.6841  -14.1972   26.2429 C   0  0  0  0  0  0  0  0  0  0  0  0
   10.0135  -18.1752   25.9718 C   0  0  0  0  0  0  0  0  0  0  0  0
    9.5222  -19.3233   25.8391 O   0  0  0  0  0  0  0  0  0  0  0  0
   14.1393  -18.2993   27.0502 O   0  0  0  0  0  0  0  0  0  0  0  0
   13.3866  -19.3841   26.6023 C   0  0  0  0  0  0  0  0  0  0  0  0
   11.9526  -19.2981   27.0935 C   0  0  2  0  0  0  0  0  0  0  0  0
   11.3018  -18.1001   26.6054 N   0  0  0  0  0  0  0  0  0  0  0  0
   11.8856  -19.3572   28.5584 C   0  0  0  0  0  0  0  0  0  0  0  0
   12.4808  -20.4140   29.2298 O   0  0  0  0  0  0  0  0  0  0  0  0
   11.3085  -18.4889   29.2604 O   0  0  0  0  0  0  0  0  0  0  0  0
  2  1  1  6
  3  2  1  0
  4  3  1  0
  5  4  2  0
  6  5  1  0
  7  6  1  0
  7 12  2  0
  8  7  1  0
  9  8  2  0
  9 10  1  0
 10 11  2  0
 11 12  1  0
 12  4  1  0
 13  2  1  0
 14 13  2  0
 15 13  1  0
 16 15  1  0
 16 27  1  0
 16 17  1  1
 18 17  1  0
 19 18  2  0
 20 19  1  0
 21 20  1  0
 21 26  2  0
 22 23  2  0
 22 21  1  0
 23 24  1  0
 24 25  2  0
 26 25  1  0
 26 18  1  0
 27 28  2  0
 30 29  1  0
 31 30  1  1
 32 27  1  0
 32 31  1  0
 33 34  1  0
 33 31  1  0
 35 33  2  0
M  END
$$$$
