WWS.pdb
     RDKit          3D

 35 38  0  0  1  0  0  0  0  0999 V2000
    7.9120  -19.4273   27.1017 N   0  0  0  0  0  0  0  0  0  0  0  0
    8.3086  -18.2955   26.3322 C   0  0  1  0  0  0  0  0  0  0  0  0
    9.7933  -18.0619   26.4580 C   0  0  0  0  0  0  0  0  0  0  0  0
   10.0404  -17.3308   27.7319 C   0  0  0  0  0  0  0  0  0  0  0  0
   10.3525  -17.9345   28.9614 C   0  0  0  0  0  0  0  0  0  0  0  0
   10.5544  -16.9947   29.8823 N   0  0  0  0  0  0  0  0  0  0  0  0
   10.3864  -15.7880   29.3076 C   0  0  0  0  0  0  0  0  0  0  0  0
   10.4713  -14.5001   29.8129 C   0  0  0  0  0  0  0  0  0  0  0  0
   10.2327  -13.4564   28.9705 C   0  0  0  0  0  0  0  0  0  0  0  0
    9.9114  -13.6229   27.6423 C   0  0  0  0  0  0  0  0  0  0  0  0
    9.8284  -14.8975   27.1434 C   0  0  0  0  0  0  0  0  0  0  0  0
   10.0628  -15.9877   27.9573 C   0  0  0  0  0  0  0  0  0  0  0  0
    7.8198  -18.3201   24.9433 C   0  0  0  0  0  0  0  0  0  0  0  0
    7.4426  -19.4130   24.4376 O   0  0  0  0  0  0  0  0  0  0  0  0
    7.7822  -17.1134   24.2051 N   0  0  0  0  0  0  0  0  0  0  0  0
    7.5081  -17.0781   22.7957 C   0  0  1  0  0  0  0  0  0  0  0  0
    6.5394  -15.9590   22.4778 C   0  0  0  0  0  0  0  0  0  0  0  0
    7.0072  -14.6574   22.9966 C   0  0  0  0  0  0  0  0  0  0  0  0
    7.8608  -13.7908   22.3011 C   0  0  0  0  0  0  0  0  0  0  0  0
    8.0590  -12.6975   23.0369 N   0  0  0  0  0  0  0  0  0  0  0  0
    7.3933  -12.7762   24.1811 C   0  0  0  0  0  0  0  0  0  0  0  0
    7.2827  -11.9231   25.2580 C   0  0  0  0  0  0  0  0  0  0  0  0
    6.5127  -12.2505   26.3619 C   0  0  0  0  0  0  0  0  0  0  0  0
    5.8652  -13.4622   26.3364 C   0  0  0  0  0  0  0  0  0  0  0  0
    5.9782  -14.3194   25.2509 C   0  0  0  0  0  0  0  0  0  0  0  0
    6.7327  -13.9968   24.1675 C   0  0  0  0  0  0  0  0  0  0  0  0
    8.7591  -16.9459   22.0154 C   0  0  0  0  0  0  0  0  0  0  0  0
    8.7992  -17.0566   20.7650 O   0  0  0  0  0  0  0  0  0  0  0  0
   12.5577  -15.8848   23.8026 O   0  0  0  0  0  0  0  0  0  0  0  0
   12.1495  -15.4998   22.5262 C   0  0  0  0  0  0  0  0  0  0  0  0
   11.2290  -16.5367   21.9077 C   0  0  2  0  0  0  0  0  0  0  0  0
   10.0086  -16.6786   22.6743 N   0  0  0  0  0  0  0  0  0  0  0  0
   11.9017  -17.8338   21.7703 C   0  0  0  0  0  0  0  0  0  0  0  0
   13.0987  -17.9150   21.0756 O   0  0  0  0  0  0  0  0  0  0  0  0
   11.4504  -18.9023   22.2545 O   0  0  0  0  0  0  0  0  0  0  0  0
  2  1  1  6
  3  2  1  0
  4  3  1  0
  5  4  2  0
  6  5  1  0
  7  6  1  0
  7 12  2  0
  8  7  1  0
  9  8  2  0
  9 10  1  0
 10 11  2  0
 11 12  1  0
 12  4  1  0
 13  2  1  0
 14 13  2  0
 15 13  1  0
 16 15  1  0
 16 27  1  0
 16 17  1  1
 18 17  1  0
 19 18  2  0
 20 19  1  0
 21 20  1  0
 21 26  2  0
 22 23  2  0
 22 21  1  0
 23 24  1  0
 24 25  2  0
 26 25  1  0
 26 18  1  0
 27 28  2  0
 30 29  1  0
 31 30  1  1
 32 27  1  0
 32 31  1  0
 33 34  1  0
 33 31  1  0
 35 33  2  0
M  END
$$$$
