WWS.pdb
     RDKit          3D

 35 38  0  0  1  0  0  0  0  0999 V2000
    6.3617  -18.6623   25.7947 N   0  0  0  0  0  0  0  0  0  0  0  0
    6.9112  -19.3018   24.6461 C   0  0  1  0  0  0  0  0  0  0  0  0
    5.9375  -20.3051   24.0803 C   0  0  0  0  0  0  0  0  0  0  0  0
    5.4612  -21.1681   25.1969 C   0  0  0  0  0  0  0  0  0  0  0  0
    4.2892  -21.9424   25.1751 C   0  0  0  0  0  0  0  0  0  0  0  0
    4.1838  -22.6258   26.3126 N   0  0  0  0  0  0  0  0  0  0  0  0
    5.2444  -22.3317   27.0894 C   0  0  0  0  0  0  0  0  0  0  0  0
    5.6123  -22.7568   28.3564 C   0  0  0  0  0  0  0  0  0  0  0  0
    6.7616  -22.2639   28.8969 C   0  0  0  0  0  0  0  0  0  0  0  0
    7.5724  -21.3640   28.2429 C   0  0  0  0  0  0  0  0  0  0  0  0
    7.2076  -20.9449   26.9892 C   0  0  0  0  0  0  0  0  0  0  0  0
    6.0525  -21.4167   26.3985 C   0  0  0  0  0  0  0  0  0  0  0  0
    7.4570  -18.3660   23.6486 C   0  0  0  0  0  0  0  0  0  0  0  0
    7.6535  -18.7636   22.4671 O   0  0  0  0  0  0  0  0  0  0  0  0
    7.7479  -17.0370   24.0380 N   0  0  0  0  0  0  0  0  0  0  0  0
    8.4562  -16.1206   23.1887 C   0  0  1  0  0  0  0  0  0  0  0  0
    7.8905  -14.7242   23.3372 C   0  0  0  0  0  0  0  0  0  0  0  0
    7.9852  -14.2330   24.7271 C   0  0  0  0  0  0  0  0  0  0  0  0
    8.8916  -14.7218   25.6773 C   0  0  0  0  0  0  0  0  0  0  0  0
    8.7328  -14.0444   26.8138 N   0  0  0  0  0  0  0  0  0  0  0  0
    7.7777  -13.1333   26.6862 C   0  0  0  0  0  0  0  0  0  0  0  0
    7.2469  -12.2079   27.5590 C   0  0  0  0  0  0  0  0  0  0  0  0
    6.2241  -11.3567   27.1742 C   0  0  0  0  0  0  0  0  0  0  0  0
    5.7621  -11.4758   25.8857 C   0  0  0  0  0  0  0  0  0  0  0  0
    6.2982  -12.4083   25.0088 C   0  0  0  0  0  0  0  0  0  0  0  0
    7.3027  -13.2421   25.3866 C   0  0  0  0  0  0  0  0  0  0  0  0
    9.9084  -16.1469   23.4747 C   0  0  0  0  0  0  0  0  0  0  0  0
   10.3776  -16.4464   24.6005 O   0  0  0  0  0  0  0  0  0  0  0  0
   12.6580  -15.3351   20.3217 O   0  0  0  0  0  0  0  0  0  0  0  0
   12.3808  -16.6444   20.7131 C   0  0  0  0  0  0  0  0  0  0  0  0
   11.9765  -16.7068   22.1752 C   0  0  2  0  0  0  0  0  0  0  0  0
   10.8629  -15.8227   22.4497 N   0  0  0  0  0  0  0  0  0  0  0  0
   13.1082  -16.3944   23.0559 C   0  0  0  0  0  0  0  0  0  0  0  0
   12.9955  -15.3651   23.9779 O   0  0  0  0  0  0  0  0  0  0  0  0
   14.2001  -17.0162   23.0268 O   0  0  0  0  0  0  0  0  0  0  0  0
  2  1  1  1
  3  2  1  0
  4  3  1  0
  5  4  2  0
  6  5  1  0
  7  6  1  0
  7 12  2  0
  8  7  1  0
  9  8  2  0
  9 10  1  0
 10 11  2  0
 11 12  1  0
 12  4  1  0
 13  2  1  0
 14 13  2  0
 15 13  1  0
 16 15  1  0
 16 27  1  0
 16 17  1  1
 18 17  1  0
 19 18  2  0
 20 19  1  0
 21 20  1  0
 21 26  2  0
 22 23  2  0
 22 21  1  0
 23 24  1  0
 24 25  2  0
 26 25  1  0
 26 18  1  0
 27 28  2  0
 30 29  1  0
 31 30  1  6
 32 27  1  0
 32 31  1  0
 33 34  1  0
 33 31  1  0
 35 33  2  0
M  END
$$$$
