WWS.pdb
     RDKit          3D

 35 38  0  0  1  0  0  0  0  0999 V2000
    8.9171  -18.3446   21.7890 N   0  0  0  0  0  0  0  0  0  0  0  0
   10.0187  -17.4413   21.8137 C   0  0  1  0  0  0  0  0  0  0  0  0
    9.8716  -16.3949   20.7374 C   0  0  0  0  0  0  0  0  0  0  0  0
    8.5500  -15.7314   20.9147 C   0  0  0  0  0  0  0  0  0  0  0  0
    7.3211  -16.4008   21.0395 C   0  0  0  0  0  0  0  0  0  0  0  0
    6.3464  -15.5140   21.2282 N   0  0  0  0  0  0  0  0  0  0  0  0
    6.8848  -14.2792   21.2321 C   0  0  0  0  0  0  0  0  0  0  0  0
    6.3205  -13.0218   21.3802 C   0  0  0  0  0  0  0  0  0  0  0  0
    7.1389  -11.9340   21.3275 C   0  0  0  0  0  0  0  0  0  0  0  0
    8.4986  -12.0270   21.1338 C   0  0  0  0  0  0  0  0  0  0  0  0
    9.0557  -13.2715   20.9881 C   0  0  0  0  0  0  0  0  0  0  0  0
    8.2680  -14.4044   21.0354 C   0  0  0  0  0  0  0  0  0  0  0  0
   10.3079  -16.8926   23.1493 C   0  0  0  0  0  0  0  0  0  0  0  0
   11.2106  -16.0203   23.2796 O   0  0  0  0  0  0  0  0  0  0  0  0
    9.5634  -17.3558   24.2600 N   0  0  0  0  0  0  0  0  0  0  0  0
    9.8787  -16.9835   25.6109 C   0  0  1  0  0  0  0  0  0  0  0  0
    8.6118  -16.8660   26.4315 C   0  0  0  0  0  0  0  0  0  0  0  0
    7.6882  -15.8524   25.8824 C   0  0  0  0  0  0  0  0  0  0  0  0
    6.5179  -16.1525   25.1726 C   0  0  0  0  0  0  0  0  0  0  0  0
    5.9057  -15.0141   24.8484 N   0  0  0  0  0  0  0  0  0  0  0  0
    6.5911  -13.9703   25.2950 C   0  0  0  0  0  0  0  0  0  0  0  0
    6.3818  -12.6106   25.2116 C   0  0  0  0  0  0  0  0  0  0  0  0
    7.2735  -11.7078   25.7671 C   0  0  0  0  0  0  0  0  0  0  0  0
    8.3750  -12.2270   26.4037 C   0  0  0  0  0  0  0  0  0  0  0  0
    8.5834  -13.5966   26.4863 C   0  0  0  0  0  0  0  0  0  0  0  0
    7.7073  -14.4817   25.9423 C   0  0  0  0  0  0  0  0  0  0  0  0
   10.8269  -17.9444   26.2182 C   0  0  0  0  0  0  0  0  0  0  0  0
   10.5702  -18.5881   27.2656 O   0  0  0  0  0  0  0  0  0  0  0  0
   14.7473  -18.4263   24.6831 O   0  0  0  0  0  0  0  0  0  0  0  0
   14.1029  -19.5474   25.2046 C   0  0  0  0  0  0  0  0  0  0  0  0
   13.0238  -19.1495   26.1957 C   0  0  2  0  0  0  0  0  0  0  0  0
   12.1110  -18.1851   25.6181 N   0  0  0  0  0  0  0  0  0  0  0  0
   13.6058  -18.6250   27.4367 C   0  0  0  0  0  0  0  0  0  0  0  0
   14.4870  -19.4089   28.1655 O   0  0  0  0  0  0  0  0  0  0  0  0
   13.3498  -17.4818   27.8921 O   0  0  0  0  0  0  0  0  0  0  0  0
  2  1  1  1
  3  2  1  0
  4  3  1  0
  5  4  2  0
  6  5  1  0
  7  6  1  0
  7 12  2  0
  8  7  1  0
  9  8  2  0
  9 10  1  0
 10 11  2  0
 11 12  1  0
 12  4  1  0
 13  2  1  0
 14 13  2  0
 15 13  1  0
 16 15  1  0
 16 27  1  0
 16 17  1  1
 18 17  1  0
 19 18  2  0
 20 19  1  0
 21 20  1  0
 21 26  2  0
 22 23  2  0
 22 21  1  0
 23 24  1  0
 24 25  2  0
 26 25  1  0
 26 18  1  0
 27 28  2  0
 30 29  1  0
 31 30  1  6
 32 27  1  0
 32 31  1  0
 33 34  1  0
 33 31  1  0
 35 33  2  0
M  END
$$$$
