WWS.pdb
     RDKit          3D

 35 38  0  0  1  0  0  0  0  0999 V2000
    7.5353  -17.4506   20.2366 N   0  0  0  0  0  0  0  0  0  0  0  0
    8.1857  -17.9765   21.3901 C   0  0  1  0  0  0  0  0  0  0  0  0
    9.0823  -19.1298   21.0147 C   0  0  0  0  0  0  0  0  0  0  0  0
    8.2374  -20.1919   20.4010 C   0  0  0  0  0  0  0  0  0  0  0  0
    7.9105  -20.2757   19.0373 C   0  0  0  0  0  0  0  0  0  0  0  0
    7.1797  -21.3667   18.8191 N   0  0  0  0  0  0  0  0  0  0  0  0
    7.0090  -22.0098   19.9904 C   0  0  0  0  0  0  0  0  0  0  0  0
    6.3324  -23.1740   20.3193 C   0  0  0  0  0  0  0  0  0  0  0  0
    6.3290  -23.5758   21.6211 C   0  0  0  0  0  0  0  0  0  0  0  0
    6.9658  -22.8788   22.6229 C   0  0  0  0  0  0  0  0  0  0  0  0
    7.6354  -21.7276   22.2961 C   0  0  0  0  0  0  0  0  0  0  0  0
    7.6688  -21.2801   20.9904 C   0  0  0  0  0  0  0  0  0  0  0  0
    8.8404  -16.9528   22.2220 C   0  0  0  0  0  0  0  0  0  0  0  0
    9.3503  -15.9384   21.6708 O   0  0  0  0  0  0  0  0  0  0  0  0
    8.8815  -17.1289   23.6255 N   0  0  0  0  0  0  0  0  0  0  0  0
    9.7849  -16.3983   24.4698 C   0  0  1  0  0  0  0  0  0  0  0  0
    9.1741  -16.1960   25.8402 C   0  0  0  0  0  0  0  0  0  0  0  0
    7.9814  -15.3258   25.7921 C   0  0  0  0  0  0  0  0  0  0  0  0
    6.6736  -15.7886   25.5949 C   0  0  0  0  0  0  0  0  0  0  0  0
    5.8379  -14.7514   25.6356 N   0  0  0  0  0  0  0  0  0  0  0  0
    6.5020  -13.6232   25.8469 C   0  0  0  0  0  0  0  0  0  0  0  0
    6.0995  -12.3099   25.9614 C   0  0  0  0  0  0  0  0  0  0  0  0
    7.0131  -11.2914   26.1776 C   0  0  0  0  0  0  0  0  0  0  0  0
    8.3369  -11.6474   26.2719 C   0  0  0  0  0  0  0  0  0  0  0  0
    8.7395  -12.9705   26.1563 C   0  0  0  0  0  0  0  0  0  0  0  0
    7.8424  -13.9694   25.9458 C   0  0  0  0  0  0  0  0  0  0  0  0
   11.0957  -17.0803   24.5594 C   0  0  0  0  0  0  0  0  0  0  0  0
   11.2565  -18.2918   24.2702 O   0  0  0  0  0  0  0  0  0  0  0  0
   14.4264  -16.1097   22.0295 O   0  0  0  0  0  0  0  0  0  0  0  0
   13.2565  -16.0073   22.7813 C   0  0  0  0  0  0  0  0  0  0  0  0
   13.4908  -16.4254   24.2219 C   0  0  2  0  0  0  0  0  0  0  0  0
   12.2656  -16.3651   24.9915 N   0  0  0  0  0  0  0  0  0  0  0  0
   14.5330  -15.6069   24.8526 C   0  0  0  0  0  0  0  0  0  0  0  0
   15.8354  -15.6735   24.3820 O   0  0  0  0  0  0  0  0  0  0  0  0
   14.3144  -14.8301   25.8162 O   0  0  0  0  0  0  0  0  0  0  0  0
  2  1  1  6
  3  2  1  0
  4  3  1  0
  5  4  2  0
  6  5  1  0
  7  6  1  0
  7 12  2  0
  8  7  1  0
  9  8  2  0
  9 10  1  0
 10 11  2  0
 11 12  1  0
 12  4  1  0
 13  2  1  0
 14 13  2  0
 15 13  1  0
 16 15  1  0
 16 27  1  0
 16 17  1  1
 18 17  1  0
 19 18  2  0
 20 19  1  0
 21 20  1  0
 21 26  2  0
 22 23  2  0
 22 21  1  0
 23 24  1  0
 24 25  2  0
 26 25  1  0
 26 18  1  0
 27 28  2  0
 30 29  1  0
 31 30  1  6
 32 27  1  0
 32 31  1  0
 33 34  1  0
 33 31  1  0
 35 33  2  0
M  END
$$$$
