WWS.pdb
     RDKit          3D

 35 38  0  0  1  0  0  0  0  0999 V2000
    7.7507  -18.4284   22.1003 N   0  0  0  0  0  0  0  0  0  0  0  0
    8.1012  -17.0741   21.8294 C   0  0  1  0  0  0  0  0  0  0  0  0
    6.8775  -16.2722   21.4628 C   0  0  0  0  0  0  0  0  0  0  0  0
    7.2440  -15.3509   20.3513 C   0  0  0  0  0  0  0  0  0  0  0  0
    7.1585  -15.6617   18.9839 C   0  0  0  0  0  0  0  0  0  0  0  0
    7.5191  -14.6033   18.2616 N   0  0  0  0  0  0  0  0  0  0  0  0
    7.8420  -13.6008   19.1015 C   0  0  0  0  0  0  0  0  0  0  0  0
    8.2831  -12.3064   18.8746 C   0  0  0  0  0  0  0  0  0  0  0  0
    8.5433  -11.5125   19.9507 C   0  0  0  0  0  0  0  0  0  0  0  0
    8.3886  -11.9371   21.2510 C   0  0  0  0  0  0  0  0  0  0  0  0
    7.9515  -13.2176   21.4741 C   0  0  0  0  0  0  0  0  0  0  0  0
    7.6733  -14.0599   20.4162 C   0  0  0  0  0  0  0  0  0  0  0  0
    8.9343  -16.4551   22.8741 C   0  0  0  0  0  0  0  0  0  0  0  0
    9.6380  -15.4468   22.5901 O   0  0  0  0  0  0  0  0  0  0  0  0
    8.9254  -17.0053   24.1778 N   0  0  0  0  0  0  0  0  0  0  0  0
    9.8089  -16.5500   25.2146 C   0  0  1  0  0  0  0  0  0  0  0  0
    9.0482  -16.3738   26.5117 C   0  0  0  0  0  0  0  0  0  0  0  0
    7.8420  -15.5391   26.3375 C   0  0  0  0  0  0  0  0  0  0  0  0
    6.5582  -16.0469   26.0977 C   0  0  0  0  0  0  0  0  0  0  0  0
    5.6994  -15.0308   26.0210 N   0  0  0  0  0  0  0  0  0  0  0  0
    6.3256  -13.8746   26.1935 C   0  0  0  0  0  0  0  0  0  0  0  0
    5.8890  -12.5673   26.1966 C   0  0  0  0  0  0  0  0  0  0  0  0
    6.7663  -11.5139   26.3955 C   0  0  0  0  0  0  0  0  0  0  0  0
    8.0896  -11.8293   26.5888 C   0  0  0  0  0  0  0  0  0  0  0  0
    8.5267  -13.1465   26.5853 C   0  0  0  0  0  0  0  0  0  0  0  0
    7.6651  -14.1795   26.3916 C   0  0  0  0  0  0  0  0  0  0  0  0
   10.9519  -17.4756   25.3817 C   0  0  0  0  0  0  0  0  0  0  0  0
   11.2258  -18.0328   26.4734 O   0  0  0  0  0  0  0  0  0  0  0  0
   13.5880  -18.2062   22.1760 O   0  0  0  0  0  0  0  0  0  0  0  0
   13.4051  -19.2305   23.1043 C   0  0  0  0  0  0  0  0  0  0  0  0
   12.9354  -18.6835   24.4404 C   0  0  2  0  0  0  0  0  0  0  0  0
   11.8151  -17.7814   24.2734 N   0  0  0  0  0  0  0  0  0  0  0  0
   14.0281  -18.0165   25.1582 C   0  0  0  0  0  0  0  0  0  0  0  0
   13.8751  -16.7019   25.5710 O   0  0  0  0  0  0  0  0  0  0  0  0
   15.1208  -18.5753   25.4292 O   0  0  0  0  0  0  0  0  0  0  0  0
  2  1  1  1
  3  2  1  0
  4  3  1  0
  5  4  2  0
  6  5  1  0
  7  6  1  0
  7 12  2  0
  8  7  1  0
  9  8  2  0
  9 10  1  0
 10 11  2  0
 11 12  1  0
 12  4  1  0
 13  2  1  0
 14 13  2  0
 15 13  1  0
 16 15  1  0
 16 27  1  0
 16 17  1  1
 18 17  1  0
 19 18  2  0
 20 19  1  0
 21 20  1  0
 21 26  2  0
 22 23  2  0
 22 21  1  0
 23 24  1  0
 24 25  2  0
 26 25  1  0
 26 18  1  0
 27 28  2  0
 30 29  1  0
 31 30  1  6
 32 27  1  0
 32 31  1  0
 33 34  1  0
 33 31  1  0
 35 33  2  0
M  END
$$$$
