WWS.pdb
     RDKit          3D

 35 38  0  0  1  0  0  0  0  0999 V2000
    8.4920  -16.5084   21.6736 N   0  0  0  0  0  0  0  0  0  0  0  0
    9.1144  -15.3453   22.2121 C   0  0  1  0  0  0  0  0  0  0  0  0
    8.3530  -14.1046   21.8175 C   0  0  0  0  0  0  0  0  0  0  0  0
    8.4416  -13.9584   20.3379 C   0  0  0  0  0  0  0  0  0  0  0  0
    7.3445  -13.9522   19.4604 C   0  0  0  0  0  0  0  0  0  0  0  0
    7.7703  -13.7589   18.2140 N   0  0  0  0  0  0  0  0  0  0  0  0
    9.1118  -13.6374   18.2330 C   0  0  0  0  0  0  0  0  0  0  0  0
   10.0392  -13.4347   17.2230 C   0  0  0  0  0  0  0  0  0  0  0  0
   11.3576  -13.3637   17.5585 C   0  0  0  0  0  0  0  0  0  0  0  0
   11.8097  -13.4842   18.8532 C   0  0  0  0  0  0  0  0  0  0  0  0
   10.8912  -13.6839   19.8516 C   0  0  0  0  0  0  0  0  0  0  0  0
    9.5436  -13.7618   19.5619 C   0  0  0  0  0  0  0  0  0  0  0  0
    9.4046  -15.4392   23.6528 C   0  0  0  0  0  0  0  0  0  0  0  0
    9.9617  -14.4698   24.2380 O   0  0  0  0  0  0  0  0  0  0  0  0
    9.0492  -16.6174   24.3514 N   0  0  0  0  0  0  0  0  0  0  0  0
    9.4443  -16.8582   25.7111 C   0  0  1  0  0  0  0  0  0  0  0  0
    8.2382  -16.8057   26.6246 C   0  0  0  0  0  0  0  0  0  0  0  0
    7.3936  -15.6232   26.3596 C   0  0  0  0  0  0  0  0  0  0  0  0
    6.1209  -15.6766   25.7760 C   0  0  0  0  0  0  0  0  0  0  0  0
    5.6248  -14.4416   25.7081 N   0  0  0  0  0  0  0  0  0  0  0  0
    6.4839  -13.5639   26.2085 C   0  0  0  0  0  0  0  0  0  0  0  0
    6.4407  -12.1942   26.3556 C   0  0  0  0  0  0  0  0  0  0  0  0
    7.4977  -11.4947   26.9143 C   0  0  0  0  0  0  0  0  0  0  0  0
    8.5903  -12.2256   27.3143 C   0  0  0  0  0  0  0  0  0  0  0  0
    8.6313  -13.6047   27.1652 C   0  0  0  0  0  0  0  0  0  0  0  0
    7.5932  -14.2905   26.6183 C   0  0  0  0  0  0  0  0  0  0  0  0
   10.1584  -18.1490   25.8351 C   0  0  0  0  0  0  0  0  0  0  0  0
    9.5875  -19.2604   25.7083 O   0  0  0  0  0  0  0  0  0  0  0  0
   14.3909  -18.3610   26.0839 O   0  0  0  0  0  0  0  0  0  0  0  0
   13.6195  -19.4265   25.6216 C   0  0  0  0  0  0  0  0  0  0  0  0
   12.2547  -19.4457   26.2862 C   0  0  2  0  0  0  0  0  0  0  0  0
   11.5687  -18.1823   26.1122 N   0  0  0  0  0  0  0  0  0  0  0  0
   12.3594  -19.7800   27.7115 C   0  0  0  0  0  0  0  0  0  0  0  0
   13.0654  -20.9078   28.1009 O   0  0  0  0  0  0  0  0  0  0  0  0
   11.8368  -19.0917   28.6240 O   0  0  0  0  0  0  0  0  0  0  0  0
  2  1  1  1
  3  2  1  0
  4  3  1  0
  5  4  2  0
  6  5  1  0
  7  6  1  0
  7 12  2  0
  8  7  1  0
  9  8  2  0
  9 10  1  0
 10 11  2  0
 11 12  1  0
 12  4  1  0
 13  2  1  0
 14 13  2  0
 15 13  1  0
 16 15  1  0
 16 27  1  0
 16 17  1  1
 18 17  1  0
 19 18  2  0
 20 19  1  0
 21 20  1  0
 21 26  2  0
 22 23  2  0
 22 21  1  0
 23 24  1  0
 24 25  2  0
 26 25  1  0
 26 18  1  0
 27 28  2  0
 30 29  1  0
 31 30  1  1
 32 27  1  0
 32 31  1  0
 33 34  1  0
 33 31  1  0
 35 33  2  0
M  END
$$$$
