WWS.pdb
     RDKit          3D

 35 38  0  0  1  0  0  0  0  0999 V2000
    8.7875  -17.1917   21.9418 N   0  0  0  0  0  0  0  0  0  0  0  0
    8.8965  -15.8774   22.4813 C   0  0  1  0  0  0  0  0  0  0  0  0
    7.5893  -15.1374   22.3451 C   0  0  0  0  0  0  0  0  0  0  0  0
    7.3654  -14.8558   20.8998 C   0  0  0  0  0  0  0  0  0  0  0  0
    6.5058  -15.5828   20.0596 C   0  0  0  0  0  0  0  0  0  0  0  0
    6.5064  -15.0416   18.8434 N   0  0  0  0  0  0  0  0  0  0  0  0
    7.3371  -13.9811   18.8463 C   0  0  0  0  0  0  0  0  0  0  0  0
    7.7021  -13.0860   17.8529 C   0  0  0  0  0  0  0  0  0  0  0  0
    8.5916  -12.1018   18.1624 C   0  0  0  0  0  0  0  0  0  0  0  0
    9.1438  -11.9564   19.4150 C   0  0  0  0  0  0  0  0  0  0  0  0
    8.7813  -12.8421   20.3971 C   0  0  0  0  0  0  0  0  0  0  0  0
    7.8823  -13.8560   20.1328 C   0  0  0  0  0  0  0  0  0  0  0  0
    9.4715  -15.8368   23.8365 C   0  0  0  0  0  0  0  0  0  0  0  0
   10.1221  -14.8199   24.2041 O   0  0  0  0  0  0  0  0  0  0  0  0
    9.2790  -16.9415   24.6995 N   0  0  0  0  0  0  0  0  0  0  0  0
    9.8470  -17.0005   26.0174 C   0  0  1  0  0  0  0  0  0  0  0  0
    8.7546  -16.9255   27.0629 C   0  0  0  0  0  0  0  0  0  0  0  0
    7.8168  -15.8136   26.8053 C   0  0  0  0  0  0  0  0  0  0  0  0
    6.5220  -15.9749   26.2945 C   0  0  0  0  0  0  0  0  0  0  0  0
    5.9381  -14.7798   26.2129 N   0  0  0  0  0  0  0  0  0  0  0  0
    6.7589  -13.8279   26.6358 C   0  0  0  0  0  0  0  0  0  0  0  0
    6.6280  -12.4597   26.7394 C   0  0  0  0  0  0  0  0  0  0  0  0
    7.6615  -11.6699   27.2156 C   0  0  0  0  0  0  0  0  0  0  0  0
    8.8219  -12.3096   27.5792 C   0  0  0  0  0  0  0  0  0  0  0  0
    8.9512  -13.6874   27.4740 C   0  0  0  0  0  0  0  0  0  0  0  0
    7.9362  -14.4618   27.0081 C   0  0  0  0  0  0  0  0  0  0  0  0
   10.6711  -18.2186   26.1856 C   0  0  0  0  0  0  0  0  0  0  0  0
   10.2250  -19.3770   25.9942 O   0  0  0  0  0  0  0  0  0  0  0  0
   13.5219  -19.2552   24.3590 O   0  0  0  0  0  0  0  0  0  0  0  0
   12.9286  -20.0417   25.3457 C   0  0  0  0  0  0  0  0  0  0  0  0
   12.8742  -19.3083   26.6739 C   0  0  2  0  0  0  0  0  0  0  0  0
   12.0489  -18.1217   26.5845 N   0  0  0  0  0  0  0  0  0  0  0  0
   14.2193  -18.9625   27.1484 C   0  0  0  0  0  0  0  0  0  0  0  0
   15.1532  -19.9665   27.3528 O   0  0  0  0  0  0  0  0  0  0  0  0
   14.5874  -17.7847   27.3872 O   0  0  0  0  0  0  0  0  0  0  0  0
  2  1  1  1
  3  2  1  0
  4  3  1  0
  5  4  2  0
  6  5  1  0
  7  6  1  0
  7 12  2  0
  8  7  1  0
  9  8  2  0
  9 10  1  0
 10 11  2  0
 11 12  1  0
 12  4  1  0
 13  2  1  0
 14 13  2  0
 15 13  1  0
 16 15  1  0
 16 27  1  0
 16 17  1  1
 18 17  1  0
 19 18  2  0
 20 19  1  0
 21 20  1  0
 21 26  2  0
 22 23  2  0
 22 21  1  0
 23 24  1  0
 24 25  2  0
 26 25  1  0
 26 18  1  0
 27 28  2  0
 30 29  1  0
 31 30  1  6
 32 27  1  0
 32 31  1  0
 33 34  1  0
 33 31  1  0
 35 33  2  0
M  END
$$$$
