WWS.pdb
     RDKit          3D

 35 38  0  0  1  0  0  0  0  0999 V2000
    8.3446  -18.4181   21.9027 N   0  0  0  0  0  0  0  0  0  0  0  0
    9.5607  -17.6776   21.8494 C   0  0  1  0  0  0  0  0  0  0  0  0
    9.5154  -16.6618   20.7354 C   0  0  0  0  0  0  0  0  0  0  0  0
    8.3810  -15.7340   21.0010 C   0  0  0  0  0  0  0  0  0  0  0  0
    7.1167  -16.1203   21.4763 C   0  0  0  0  0  0  0  0  0  0  0  0
    6.3543  -15.0423   21.6455 N   0  0  0  0  0  0  0  0  0  0  0  0
    7.0677  -13.9537   21.2984 C   0  0  0  0  0  0  0  0  0  0  0  0
    6.7509  -12.6044   21.2794 C   0  0  0  0  0  0  0  0  0  0  0  0
    7.6997  -11.7218   20.8589 C   0  0  0  0  0  0  0  0  0  0  0  0
    8.9567  -12.1089   20.4524 C   0  0  0  0  0  0  0  0  0  0  0  0
    9.2691  -13.4440   20.4723 C   0  0  0  0  0  0  0  0  0  0  0  0
    8.3417  -14.3769   20.8915 C   0  0  0  0  0  0  0  0  0  0  0  0
    9.9780  -17.1253   23.1492 C   0  0  0  0  0  0  0  0  0  0  0  0
   10.9678  -16.3443   23.2025 O   0  0  0  0  0  0  0  0  0  0  0  0
    9.2562  -17.4823   24.3128 N   0  0  0  0  0  0  0  0  0  0  0  0
    9.7024  -17.1397   25.6343 C   0  0  1  0  0  0  0  0  0  0  0  0
    8.5167  -16.8408   26.5269 C   0  0  0  0  0  0  0  0  0  0  0  0
    7.6741  -15.7558   25.9840 C   0  0  0  0  0  0  0  0  0  0  0  0
    6.5028  -15.9611   25.2429 C   0  0  0  0  0  0  0  0  0  0  0  0
    5.9741  -14.7774   24.9342 N   0  0  0  0  0  0  0  0  0  0  0  0
    6.7165  -13.7920   25.4205 C   0  0  0  0  0  0  0  0  0  0  0  0
    6.5990  -12.4198   25.3664 C   0  0  0  0  0  0  0  0  0  0  0  0
    7.5355  -11.5912   25.9624 C   0  0  0  0  0  0  0  0  0  0  0  0
    8.5860  -12.1969   26.6087 C   0  0  0  0  0  0  0  0  0  0  0  0
    8.7020  -13.5788   26.6618 C   0  0  0  0  0  0  0  0  0  0  0  0
    7.7819  -14.3911   26.0781 C   0  0  0  0  0  0  0  0  0  0  0  0
   10.5481  -18.2131   26.2033 C   0  0  0  0  0  0  0  0  0  0  0  0
   10.0891  -19.3241   26.5670 O   0  0  0  0  0  0  0  0  0  0  0  0
   14.6284  -17.5287   26.7663 O   0  0  0  0  0  0  0  0  0  0  0  0
   14.2487  -18.8627   26.6234 C   0  0  0  0  0  0  0  0  0  0  0  0
   12.7820  -19.0560   26.9642 C   0  0  2  0  0  0  0  0  0  0  0  0
   11.9637  -18.0218   26.3660 N   0  0  0  0  0  0  0  0  0  0  0  0
   12.5724  -19.0996   28.4162 C   0  0  0  0  0  0  0  0  0  0  0  0
   13.2804  -20.0115   29.1839 O   0  0  0  0  0  0  0  0  0  0  0  0
   11.7721  -18.3439   29.0230 O   0  0  0  0  0  0  0  0  0  0  0  0
  2  1  1  1
  3  2  1  0
  4  3  1  0
  5  4  2  0
  6  5  1  0
  7  6  1  0
  7 12  2  0
  8  7  1  0
  9  8  2  0
  9 10  1  0
 10 11  2  0
 11 12  1  0
 12  4  1  0
 13  2  1  0
 14 13  2  0
 15 13  1  0
 16 15  1  0
 16 27  1  0
 16 17  1  1
 18 17  1  0
 19 18  2  0
 20 19  1  0
 21 20  1  0
 21 26  2  0
 22 23  2  0
 22 21  1  0
 23 24  1  0
 24 25  2  0
 26 25  1  0
 26 18  1  0
 27 28  2  0
 30 29  1  0
 31 30  1  1
 32 27  1  0
 32 31  1  0
 33 34  1  0
 33 31  1  0
 35 33  2  0
M  END
$$$$
