WWS.pdb
     RDKit          3D

 35 38  0  0  1  0  0  0  0  0999 V2000
    8.5754  -16.6224   21.7281 N   0  0  0  0  0  0  0  0  0  0  0  0
    9.0623  -15.3908   22.2538 C   0  0  1  0  0  0  0  0  0  0  0  0
    8.0669  -14.2825   22.0183 C   0  0  0  0  0  0  0  0  0  0  0  0
    7.8585  -14.1521   20.5493 C   0  0  0  0  0  0  0  0  0  0  0  0
    6.7090  -14.5681   19.8571 C   0  0  0  0  0  0  0  0  0  0  0  0
    6.8303  -14.2652   18.5665 N   0  0  0  0  0  0  0  0  0  0  0  0
    8.0206  -13.6635   18.3773 C   0  0  0  0  0  0  0  0  0  0  0  0
    8.6368  -13.1634   17.2408 C   0  0  0  0  0  0  0  0  0  0  0  0
    9.8748  -12.6088   17.3658 C   0  0  0  0  0  0  0  0  0  0  0  0
   10.5406  -12.5233   18.5676 C   0  0  0  0  0  0  0  0  0  0  0  0
    9.9296  -13.0178   19.6912 C   0  0  0  0  0  0  0  0  0  0  0  0
    8.6746  -13.5880   19.6160 C   0  0  0  0  0  0  0  0  0  0  0  0
    9.5390  -15.4847   23.6440 C   0  0  0  0  0  0  0  0  0  0  0  0
   10.1954  -14.5282   24.1408 O   0  0  0  0  0  0  0  0  0  0  0  0
    9.2475  -16.6483   24.3947 N   0  0  0  0  0  0  0  0  0  0  0  0
    9.6997  -16.8294   25.7459 C   0  0  1  0  0  0  0  0  0  0  0  0
    8.5224  -16.8242   26.6978 C   0  0  0  0  0  0  0  0  0  0  0  0
    7.6128  -15.6875   26.4477 C   0  0  0  0  0  0  0  0  0  0  0  0
    6.3406  -15.8060   25.8725 C   0  0  0  0  0  0  0  0  0  0  0  0
    5.7776  -14.5994   25.8176 N   0  0  0  0  0  0  0  0  0  0  0  0
    6.5913  -13.6799   26.3186 C   0  0  0  0  0  0  0  0  0  0  0  0
    6.4747  -12.3156   26.4764 C   0  0  0  0  0  0  0  0  0  0  0  0
    7.4962  -11.5636   27.0331 C   0  0  0  0  0  0  0  0  0  0  0  0
    8.6298  -12.2368   27.4198 C   0  0  0  0  0  0  0  0  0  0  0  0
    8.7448  -13.6105   27.2599 C   0  0  0  0  0  0  0  0  0  0  0  0
    7.7415  -14.3479   26.7151 C   0  0  0  0  0  0  0  0  0  0  0  0
   10.4935  -18.0719   25.8774 C   0  0  0  0  0  0  0  0  0  0  0  0
   10.0133  -19.2142   25.6730 O   0  0  0  0  0  0  0  0  0  0  0  0
   14.8596  -20.1671   26.2747 O   0  0  0  0  0  0  0  0  0  0  0  0
   14.0939  -19.0342   26.0017 C   0  0  0  0  0  0  0  0  0  0  0  0
   12.6464  -19.2374   26.4121 C   0  0  2  0  0  0  0  0  0  0  0  0
   11.8801  -18.0190   26.2534 N   0  0  0  0  0  0  0  0  0  0  0  0
   12.5464  -19.7298   27.7911 C   0  0  0  0  0  0  0  0  0  0  0  0
   13.1652  -20.9203   28.1404 O   0  0  0  0  0  0  0  0  0  0  0  0
   11.9200  -19.1258   28.6980 O   0  0  0  0  0  0  0  0  0  0  0  0
  2  1  1  1
  3  2  1  0
  4  3  1  0
  5  4  2  0
  6  5  1  0
  7  6  1  0
  7 12  2  0
  8  7  1  0
  9  8  2  0
  9 10  1  0
 10 11  2  0
 11 12  1  0
 12  4  1  0
 13  2  1  0
 14 13  2  0
 15 13  1  0
 16 15  1  0
 16 27  1  0
 16 17  1  1
 18 17  1  0
 19 18  2  0
 20 19  1  0
 21 20  1  0
 21 26  2  0
 22 23  2  0
 22 21  1  0
 23 24  1  0
 24 25  2  0
 26 25  1  0
 26 18  1  0
 27 28  2  0
 30 29  1  0
 31 30  1  1
 32 27  1  0
 32 31  1  0
 33 34  1  0
 33 31  1  0
 35 33  2  0
M  END
$$$$
