MDG.pdb
     RDKit          3D

 21 20  0  0  1  0  0  0  0  0999 V2000
    5.9889  -12.2496   27.2098 C   0  0  0  0  0  0  0  0  0  0  0  0
    6.9329  -11.4876   25.8528 S   0  0  0  0  0  0  0  0  0  0  0  0
    6.8615  -12.6409   24.4277 C   0  0  0  0  0  0  0  0  0  0  0  0
    7.8010  -13.7601   24.7325 C   0  0  0  0  0  0  0  0  0  0  0  0
    7.9026  -14.7988   23.6525 C   0  0  2  0  0  0  0  0  0  0  0  0
    6.6631  -15.4075   23.2911 N   0  0  0  0  0  0  0  0  0  0  0  0
    8.9493  -15.8102   23.9429 C   0  0  0  0  0  0  0  0  0  0  0  0
    8.6010  -16.9258   24.4082 O   0  0  0  0  0  0  0  0  0  0  0  0
   10.3388  -15.6018   23.7280 N   0  0  0  0  0  0  0  0  0  0  0  0
   11.3384  -16.6314   23.9907 C   0  0  1  0  0  0  0  0  0  0  0  0
   12.5219  -16.3246   23.1148 C   0  0  0  0  0  0  0  0  0  0  0  0
   12.2694  -16.2859   21.6816 C   0  0  0  0  0  0  0  0  0  0  0  0
   11.6295  -17.2195   21.1338 O   0  0  0  0  0  0  0  0  0  0  0  0
   11.6228  -16.7905   25.4104 C   0  0  0  0  0  0  0  0  0  0  0  0
   12.5244  -17.6097   25.7988 O   0  0  0  0  0  0  0  0  0  0  0  0
   12.7119  -15.2473   20.8867 O   0  0  0  0  0  0  0  0  0  0  0  0
   10.9525  -16.0768   26.4380 N   0  0  0  0  0  0  0  0  0  0  0  0
   11.4031  -16.1648   27.8147 C   0  0  0  0  0  0  0  0  0  0  0  0
   10.9039  -17.4009   28.4457 C   0  0  0  0  0  0  0  0  0  0  0  0
   11.0959  -17.7293   29.7760 O   0  0  0  0  0  0  0  0  0  0  0  0
   10.2563  -18.2264   27.7428 O   0  0  0  0  0  0  0  0  0  0  0  0
  2  1  1  0
  3  2  1  0
  4  3  1  0
  4  5  1  0
  5  6  1  1
  7  8  2  0
  7  5  1  0
  9  7  1  0
 10  9  1  0
 10 14  1  0
 10 11  1  6
 12 16  1  0
 12 11  1  0
 13 12  2  0
 14 15  2  0
 14 17  1  0
 17 18  1  0
 19 18  1  0
 19 20  1  0
 21 19  2  0
M  END
$$$$
