MDG.pdb
     RDKit          3D

 21 20  0  0  1  0  0  0  0  0999 V2000
    6.5840  -12.3327   27.6749 C   0  0  0  0  0  0  0  0  0  0  0  0
    7.1288  -12.2862   25.9388 S   0  0  0  0  0  0  0  0  0  0  0  0
    6.8416  -13.9560   25.2350 C   0  0  0  0  0  0  0  0  0  0  0  0
    7.3633  -13.9292   23.8367 C   0  0  0  0  0  0  0  0  0  0  0  0
    7.2026  -15.2209   23.0877 C   0  0  2  0  0  0  0  0  0  0  0  0
    6.0268  -15.9601   23.4176 N   0  0  0  0  0  0  0  0  0  0  0  0
    8.4214  -16.0652   23.1562 C   0  0  0  0  0  0  0  0  0  0  0  0
    8.3022  -17.2762   23.4747 O   0  0  0  0  0  0  0  0  0  0  0  0
    9.7335  -15.5921   22.8825 N   0  0  0  0  0  0  0  0  0  0  0  0
   10.8630  -16.4889   22.6625 C   0  0  1  0  0  0  0  0  0  0  0  0
   11.8406  -15.7535   21.7876 C   0  0  0  0  0  0  0  0  0  0  0  0
   13.0437  -16.4822   21.4126 C   0  0  0  0  0  0  0  0  0  0  0  0
   12.9481  -17.6301   20.9081 O   0  0  0  0  0  0  0  0  0  0  0  0
   11.4022  -17.0296   23.9029 C   0  0  0  0  0  0  0  0  0  0  0  0
   12.4143  -17.8106   23.8788 O   0  0  0  0  0  0  0  0  0  0  0  0
   14.3068  -15.9542   21.5917 O   0  0  0  0  0  0  0  0  0  0  0  0
   10.8727  -16.7441   25.1885 N   0  0  0  0  0  0  0  0  0  0  0  0
   11.4865  -17.2982   26.3810 C   0  0  0  0  0  0  0  0  0  0  0  0
   10.8548  -16.7460   27.5940 C   0  0  0  0  0  0  0  0  0  0  0  0
   11.2267  -17.0752   28.8853 O   0  0  0  0  0  0  0  0  0  0  0  0
    9.9108  -15.9167   27.4668 O   0  0  0  0  0  0  0  0  0  0  0  0
  2  1  1  0
  3  2  1  0
  4  3  1  0
  4  5  1  0
  5  6  1  1
  7  8  2  0
  7  5  1  0
  9  7  1  0
 10  9  1  0
 10 14  1  0
 10 11  1  1
 12 16  1  0
 12 11  1  0
 13 12  2  0
 14 15  2  0
 14 17  1  0
 17 18  1  0
 19 18  1  0
 19 20  1  0
 21 19  2  0
M  END
$$$$
