MDG.pdb
     RDKit          3D

 21 20  0  0  1  0  0  0  0  0999 V2000
    8.0603  -12.3655   26.9793 C   0  0  0  0  0  0  0  0  0  0  0  0
    6.2824  -12.7402   27.0877 S   0  0  0  0  0  0  0  0  0  0  0  0
    5.7416  -13.2906   25.4231 C   0  0  0  0  0  0  0  0  0  0  0  0
    6.4586  -14.5684   25.1384 C   0  0  0  0  0  0  0  0  0  0  0  0
    7.8443  -14.3946   24.5860 C   0  0  2  0  0  0  0  0  0  0  0  0
    7.9257  -13.5636   23.4282 N   0  0  0  0  0  0  0  0  0  0  0  0
    8.5345  -15.6927   24.3821 C   0  0  0  0  0  0  0  0  0  0  0  0
    7.9773  -16.7451   24.7873 O   0  0  0  0  0  0  0  0  0  0  0  0
    9.8006  -15.8303   23.7508 N   0  0  0  0  0  0  0  0  0  0  0  0
   10.5354  -17.0903   23.7284 C   0  0  1  0  0  0  0  0  0  0  0  0
   11.5320  -16.9947   22.6060 C   0  0  0  0  0  0  0  0  0  0  0  0
   10.9815  -16.8310   21.2684 C   0  0  0  0  0  0  0  0  0  0  0  0
   11.6027  -16.1468   20.4157 O   0  0  0  0  0  0  0  0  0  0  0  0
   11.0785  -17.4484   25.0317 C   0  0  0  0  0  0  0  0  0  0  0  0
   11.7550  -18.5240   25.1742 O   0  0  0  0  0  0  0  0  0  0  0  0
    9.7843  -17.4070   20.8924 O   0  0  0  0  0  0  0  0  0  0  0  0
   10.9115  -16.6640   26.2029 N   0  0  0  0  0  0  0  0  0  0  0  0
   11.6291  -16.9915   27.4209 C   0  0  0  0  0  0  0  0  0  0  0  0
   10.9602  -18.0941   28.1365 C   0  0  0  0  0  0  0  0  0  0  0  0
   11.3491  -18.5675   29.3770 O   0  0  0  0  0  0  0  0  0  0  0  0
    9.9652  -18.6559   27.5985 O   0  0  0  0  0  0  0  0  0  0  0  0
  2  1  1  0
  3  2  1  0
  4  3  1  0
  4  5  1  0
  5  6  1  6
  7  8  2  0
  7  5  1  0
  9  7  1  0
 10  9  1  0
 10 14  1  0
 10 11  1  6
 12 16  1  0
 12 11  1  0
 13 12  2  0
 14 15  2  0
 14 17  1  0
 17 18  1  0
 19 18  1  0
 19 20  1  0
 21 19  2  0
M  END
$$$$
