MDG.pdb
     RDKit          3D

 21 20  0  0  1  0  0  0  0  0999 V2000
    5.6618  -10.7402   26.8836 C   0  0  0  0  0  0  0  0  0  0  0  0
    7.0027  -11.9414   26.6154 S   0  0  0  0  0  0  0  0  0  0  0  0
    6.3241  -13.2879   25.5701 C   0  0  0  0  0  0  0  0  0  0  0  0
    7.3937  -14.3224   25.4530 C   0  0  0  0  0  0  0  0  0  0  0  0
    7.0380  -15.4886   24.5761 C   0  0  2  0  0  0  0  0  0  0  0  0
    5.8464  -16.1779   24.9535 N   0  0  0  0  0  0  0  0  0  0  0  0
    8.1784  -16.4204   24.3910 C   0  0  0  0  0  0  0  0  0  0  0  0
    8.1201  -17.5611   24.9181 O   0  0  0  0  0  0  0  0  0  0  0  0
    9.3490  -16.1077   23.6480 N   0  0  0  0  0  0  0  0  0  0  0  0
   10.5055  -16.9953   23.5920 C   0  0  1  0  0  0  0  0  0  0  0  0
   11.3877  -16.4935   22.4821 C   0  0  0  0  0  0  0  0  0  0  0  0
   12.6144  -17.2412   22.2467 C   0  0  0  0  0  0  0  0  0  0  0  0
   12.5979  -18.4980   22.2841 O   0  0  0  0  0  0  0  0  0  0  0  0
   11.1486  -17.1642   24.8880 C   0  0  0  0  0  0  0  0  0  0  0  0
   11.7623  -16.1849   25.4350 O   0  0  0  0  0  0  0  0  0  0  0  0
   13.8153  -16.6147   21.9792 O   0  0  0  0  0  0  0  0  0  0  0  0
   11.1452  -18.3789   25.6224 N   0  0  0  0  0  0  0  0  0  0  0  0
   11.7574  -18.4505   26.9362 C   0  0  0  0  0  0  0  0  0  0  0  0
   13.0180  -19.2140   26.8800 C   0  0  0  0  0  0  0  0  0  0  0  0
   14.1664  -18.7766   26.2443 O   0  0  0  0  0  0  0  0  0  0  0  0
   13.0732  -20.3432   27.4430 O   0  0  0  0  0  0  0  0  0  0  0  0
  2  1  1  0
  3  2  1  0
  4  3  1  0
  4  5  1  0
  5  6  1  1
  7  8  2  0
  7  5  1  0
  9  7  1  0
 10  9  1  0
 10 14  1  0
 10 11  1  6
 12 16  1  0
 12 11  1  0
 13 12  2  0
 14 15  2  0
 14 17  1  0
 17 18  1  0
 19 18  1  0
 19 20  1  0
 21 19  2  0
M  END
$$$$
