MDG.pdb
     RDKit          3D

 21 20  0  0  1  0  0  0  0  0999 V2000
   -1.6907  -30.4860   28.3635 C   0  0  0  0  0  0  0  0  0  0  0  0
   -3.2030  -29.5509   27.9741 S   0  0  0  0  0  0  0  0  0  0  0  0
   -3.4113  -28.2854   29.2861 C   0  0  0  0  0  0  0  0  0  0  0  0
   -4.7107  -27.6004   29.0207 C   0  0  0  0  0  0  0  0  0  0  0  0
   -4.7695  -26.1747   29.4891 C   0  0  2  0  0  0  0  0  0  0  0  0
   -4.2334  -25.9520   30.7932 N   0  0  0  0  0  0  0  0  0  0  0  0
   -6.1267  -25.5915   29.3443 C   0  0  0  0  0  0  0  0  0  0  0  0
   -6.6616  -25.5775   28.2059 O   0  0  0  0  0  0  0  0  0  0  0  0
   -6.8746  -25.0398   30.4198 N   0  0  0  0  0  0  0  0  0  0  0  0
   -8.2561  -24.5955   30.2705 C   0  0  1  0  0  0  0  0  0  0  0  0
   -8.9229  -24.7863   31.6051 C   0  0  0  0  0  0  0  0  0  0  0  0
   -9.1410  -26.1630   32.0248 C   0  0  0  0  0  0  0  0  0  0  0  0
   -9.8465  -26.9279   31.3187 O   0  0  0  0  0  0  0  0  0  0  0  0
   -8.3592  -23.2620   29.6935 C   0  0  0  0  0  0  0  0  0  0  0  0
   -7.9616  -22.2419   30.3541 O   0  0  0  0  0  0  0  0  0  0  0  0
   -8.5948  -26.6709   33.1867 O   0  0  0  0  0  0  0  0  0  0  0  0
   -8.8849  -22.9953   28.4023 N   0  0  0  0  0  0  0  0  0  0  0  0
   -8.8753  -21.6478   27.8637 C   0  0  0  0  0  0  0  0  0  0  0  0
   -9.2697  -21.6545   26.4426 C   0  0  0  0  0  0  0  0  0  0  0  0
   -9.4515  -20.5153   25.6788 O   0  0  0  0  0  0  0  0  0  0  0  0
   -9.4586  -22.7626   25.8668 O   0  0  0  0  0  0  0  0  0  0  0  0
  2  1  1  0
  3  2  1  0
  4  3  1  0
  4  5  1  0
  5  6  1  1
  7  8  2  0
  7  5  1  0
  9  7  1  0
 10  9  1  0
 10 14  1  0
 10 11  1  1
 12 16  1  0
 12 11  1  0
 13 12  2  0
 14 15  2  0
 14 17  1  0
 17 18  1  0
 19 18  1  0
 19 20  1  0
 21 19  2  0
M  END
$$$$
