MDG.pdb
     RDKit          3D

 21 20  0  0  1  0  0  0  0  0999 V2000
    7.1626  -11.9394   27.5576 C   0  0  0  0  0  0  0  0  0  0  0  0
    7.3161  -11.9528   25.7440 S   0  0  0  0  0  0  0  0  0  0  0  0
    6.2088  -13.2737   25.1155 C   0  0  0  0  0  0  0  0  0  0  0  0
    6.9729  -14.5530   25.2018 C   0  0  0  0  0  0  0  0  0  0  0  0
    8.2546  -14.5663   24.4191 C   0  0  2  0  0  0  0  0  0  0  0  0
    8.1190  -14.2036   23.0452 N   0  0  0  0  0  0  0  0  0  0  0  0
    8.9988  -15.8401   24.5818 C   0  0  0  0  0  0  0  0  0  0  0  0
    8.5627  -16.6970   25.3928 O   0  0  0  0  0  0  0  0  0  0  0  0
   10.1881  -16.1630   23.8734 N   0  0  0  0  0  0  0  0  0  0  0  0
   10.8719  -17.4425   24.0265 C   0  0  1  0  0  0  0  0  0  0  0  0
   11.8671  -17.5430   22.9033 C   0  0  0  0  0  0  0  0  0  0  0  0
   11.3357  -17.3899   21.5567 C   0  0  0  0  0  0  0  0  0  0  0  0
   10.2541  -17.9496   21.2436 O   0  0  0  0  0  0  0  0  0  0  0  0
   11.4054  -17.6386   25.3677 C   0  0  0  0  0  0  0  0  0  0  0  0
   12.1033  -18.6753   25.6380 O   0  0  0  0  0  0  0  0  0  0  0  0
   11.9829  -16.6416   20.5935 O   0  0  0  0  0  0  0  0  0  0  0  0
   11.2057  -16.7312   26.4408 N   0  0  0  0  0  0  0  0  0  0  0  0
   11.7903  -16.9870   27.7441 C   0  0  0  0  0  0  0  0  0  0  0  0
   11.0630  -18.0677   28.4357 C   0  0  0  0  0  0  0  0  0  0  0  0
   11.6528  -19.2277   28.9055 O   0  0  0  0  0  0  0  0  0  0  0  0
    9.8198  -17.9452   28.6212 O   0  0  0  0  0  0  0  0  0  0  0  0
  2  1  1  0
  3  2  1  0
  4  3  1  0
  4  5  1  0
  5  6  1  6
  7  8  2  0
  7  5  1  0
  9  7  1  0
 10  9  1  0
 10 14  1  0
 10 11  1  6
 12 16  1  0
 12 11  1  0
 13 12  2  0
 14 15  2  0
 14 17  1  0
 17 18  1  0
 19 18  1  0
 19 20  1  0
 21 19  2  0
M  END
$$$$
