MDG.pdb
     RDKit          3D

 21 20  0  0  1  0  0  0  0  0999 V2000
    7.5917  -12.7363   27.7349 C   0  0  0  0  0  0  0  0  0  0  0  0
    6.7230  -11.8074   26.4329 S   0  0  0  0  0  0  0  0  0  0  0  0
    6.3417  -12.9913   25.0841 C   0  0  0  0  0  0  0  0  0  0  0  0
    7.3171  -14.1143   25.2088 C   0  0  0  0  0  0  0  0  0  0  0  0
    7.2088  -15.1551   24.1315 C   0  0  2  0  0  0  0  0  0  0  0  0
    5.9138  -15.7396   23.9940 N   0  0  0  0  0  0  0  0  0  0  0  0
    8.2705  -16.1868   24.2386 C   0  0  0  0  0  0  0  0  0  0  0  0
    7.9825  -17.3018   24.7445 O   0  0  0  0  0  0  0  0  0  0  0  0
    9.6100  -15.9985   23.8022 N   0  0  0  0  0  0  0  0  0  0  0  0
   10.6658  -16.9712   24.0616 C   0  0  1  0  0  0  0  0  0  0  0  0
   11.8527  -16.5583   23.2353 C   0  0  0  0  0  0  0  0  0  0  0  0
   11.6237  -16.4181   21.8046 C   0  0  0  0  0  0  0  0  0  0  0  0
   12.0623  -15.4083   21.1969 O   0  0  0  0  0  0  0  0  0  0  0  0
   10.9172  -17.1632   25.4835 C   0  0  0  0  0  0  0  0  0  0  0  0
   11.2023  -16.1635   26.2279 O   0  0  0  0  0  0  0  0  0  0  0  0
   10.9328  -17.3658   21.0760 O   0  0  0  0  0  0  0  0  0  0  0  0
   10.8656  -18.4234   26.1346 N   0  0  0  0  0  0  0  0  0  0  0  0
   10.9682  -18.5142   27.5793 C   0  0  0  0  0  0  0  0  0  0  0  0
   12.2652  -19.0964   27.9717 C   0  0  0  0  0  0  0  0  0  0  0  0
   12.6143  -19.4172   29.2715 O   0  0  0  0  0  0  0  0  0  0  0  0
   13.1272  -19.3248   27.0773 O   0  0  0  0  0  0  0  0  0  0  0  0
  2  1  1  0
  3  2  1  0
  4  3  1  0
  4  5  1  0
  5  6  1  1
  7  8  2  0
  7  5  1  0
  9  7  1  0
 10  9  1  0
 10 14  1  0
 10 11  1  6
 12 16  1  0
 12 11  1  0
 13 12  2  0
 14 15  2  0
 14 17  1  0
 17 18  1  0
 19 18  1  0
 19 20  1  0
 21 19  2  0
M  END
$$$$
