MDG.pdb
     RDKit          3D

 21 20  0  0  1  0  0  0  0  0999 V2000
    5.6773  -11.0364   26.3649 C   0  0  0  0  0  0  0  0  0  0  0  0
    7.0384  -12.2440   26.3208 S   0  0  0  0  0  0  0  0  0  0  0  0
    6.5168  -13.6092   25.2115 C   0  0  0  0  0  0  0  0  0  0  0  0
    7.6505  -14.5787   25.1599 C   0  0  0  0  0  0  0  0  0  0  0  0
    7.4266  -15.7499   24.2468 C   0  0  2  0  0  0  0  0  0  0  0  0
    6.2693  -16.5292   24.5482 N   0  0  0  0  0  0  0  0  0  0  0  0
    8.6392  -16.5946   24.1094 C   0  0  0  0  0  0  0  0  0  0  0  0
    8.5872  -17.7943   24.4839 O   0  0  0  0  0  0  0  0  0  0  0  0
    9.8735  -16.1342   23.5756 N   0  0  0  0  0  0  0  0  0  0  0  0
   11.0180  -17.0148   23.3680 C   0  0  1  0  0  0  0  0  0  0  0  0
   11.9691  -16.2875   22.4578 C   0  0  0  0  0  0  0  0  0  0  0  0
   11.5201  -16.0829   21.0883 C   0  0  0  0  0  0  0  0  0  0  0  0
   10.7426  -16.9143   20.5540 O   0  0  0  0  0  0  0  0  0  0  0  0
   11.5839  -17.5060   24.6171 C   0  0  0  0  0  0  0  0  0  0  0  0
   12.6072  -18.2725   24.6031 O   0  0  0  0  0  0  0  0  0  0  0  0
   11.9205  -14.9936   20.3402 O   0  0  0  0  0  0  0  0  0  0  0  0
   11.0697  -17.1855   25.9007 N   0  0  0  0  0  0  0  0  0  0  0  0
   11.7053  -17.6967   27.1009 C   0  0  0  0  0  0  0  0  0  0  0  0
   11.0497  -17.1551   28.3059 C   0  0  0  0  0  0  0  0  0  0  0  0
   11.4989  -17.3633   29.5978 O   0  0  0  0  0  0  0  0  0  0  0  0
   10.0089  -16.4526   28.1709 O   0  0  0  0  0  0  0  0  0  0  0  0
  2  1  1  0
  3  2  1  0
  4  3  1  0
  4  5  1  0
  5  6  1  1
  7  8  2  0
  7  5  1  0
  9  7  1  0
 10  9  1  0
 10 14  1  0
 10 11  1  1
 12 16  1  0
 12 11  1  0
 13 12  2  0
 14 15  2  0
 14 17  1  0
 17 18  1  0
 19 18  1  0
 19 20  1  0
 21 19  2  0
M  END
$$$$
