MDG.pdb
     RDKit          3D

 21 20  0  0  1  0  0  0  0  0999 V2000
    7.2042  -12.9377   27.7104 C   0  0  0  0  0  0  0  0  0  0  0  0
    6.8871  -11.7399   26.3772 S   0  0  0  0  0  0  0  0  0  0  0  0
    6.1459  -12.6680   24.9788 C   0  0  0  0  0  0  0  0  0  0  0  0
    6.6980  -14.0534   25.0412 C   0  0  0  0  0  0  0  0  0  0  0  0
    8.0157  -14.2302   24.3428 C   0  0  2  0  0  0  0  0  0  0  0  0
    8.0670  -13.6953   23.0203 N   0  0  0  0  0  0  0  0  0  0  0  0
    8.4910  -15.6356   24.3876 C   0  0  0  0  0  0  0  0  0  0  0  0
    8.1936  -16.3440   25.3835 O   0  0  0  0  0  0  0  0  0  0  0  0
    9.2704  -16.2449   23.3670 N   0  0  0  0  0  0  0  0  0  0  0  0
    9.7726  -17.6107   23.4706 C   0  0  1  0  0  0  0  0  0  0  0  0
   10.1644  -18.0384   22.0830 C   0  0  0  0  0  0  0  0  0  0  0  0
    9.1261  -17.9543   21.0661 C   0  0  0  0  0  0  0  0  0  0  0  0
    8.1011  -18.6770   21.1574 O   0  0  0  0  0  0  0  0  0  0  0  0
   10.7986  -17.7569   24.4942 C   0  0  0  0  0  0  0  0  0  0  0  0
   11.7084  -16.8681   24.6257 O   0  0  0  0  0  0  0  0  0  0  0  0
    9.2236  -17.0981   19.9874 O   0  0  0  0  0  0  0  0  0  0  0  0
   10.8692  -18.8512   25.3954 N   0  0  0  0  0  0  0  0  0  0  0  0
   11.9357  -18.9342   26.3760 C   0  0  0  0  0  0  0  0  0  0  0  0
   11.3981  -18.7837   27.7411 C   0  0  0  0  0  0  0  0  0  0  0  0
   12.1061  -19.0732   28.8939 O   0  0  0  0  0  0  0  0  0  0  0  0
   10.2159  -18.3644   27.8886 O   0  0  0  0  0  0  0  0  0  0  0  0
  2  1  1  0
  3  2  1  0
  4  3  1  0
  4  5  1  0
  5  6  1  6
  7  8  2  0
  7  5  1  0
  9  7  1  0
 10  9  1  0
 10 14  1  0
 10 11  1  6
 12 16  1  0
 12 11  1  0
 13 12  2  0
 14 15  2  0
 14 17  1  0
 17 18  1  0
 19 18  1  0
 19 20  1  0
 21 19  2  0
M  END
$$$$
