MDG.pdb
     RDKit          3D

 21 20  0  0  1  0  0  0  0  0999 V2000
    7.8751  -12.6094   27.5796 C   0  0  0  0  0  0  0  0  0  0  0  0
    7.3145  -11.8847   26.0069 S   0  0  0  0  0  0  0  0  0  0  0  0
    6.1520  -13.0805   25.2421 C   0  0  0  0  0  0  0  0  0  0  0  0
    6.8008  -14.4224   25.3221 C   0  0  0  0  0  0  0  0  0  0  0  0
    7.6201  -14.7902   24.1183 C   0  0  2  0  0  0  0  0  0  0  0  0
    6.8916  -14.8364   22.8917 N   0  0  0  0  0  0  0  0  0  0  0  0
    8.4132  -16.0259   24.3350 C   0  0  0  0  0  0  0  0  0  0  0  0
    7.8987  -16.9687   24.9896 O   0  0  0  0  0  0  0  0  0  0  0  0
    9.7337  -16.2199   23.8461 N   0  0  0  0  0  0  0  0  0  0  0  0
   10.5482  -17.3721   24.2167 C   0  0  1  0  0  0  0  0  0  0  0  0
   11.6043  -17.5197   23.1561 C   0  0  0  0  0  0  0  0  0  0  0  0
   11.1299  -17.6015   21.7823 C   0  0  0  0  0  0  0  0  0  0  0  0
   10.2247  -18.4206   21.4807 O   0  0  0  0  0  0  0  0  0  0  0  0
   11.0313  -17.3017   25.5891 C   0  0  0  0  0  0  0  0  0  0  0  0
   11.5411  -16.2183   26.0377 O   0  0  0  0  0  0  0  0  0  0  0  0
   11.6429  -16.8018   20.7804 O   0  0  0  0  0  0  0  0  0  0  0  0
   10.9758  -18.3842   26.5056 N   0  0  0  0  0  0  0  0  0  0  0  0
   11.4098  -18.2129   27.8797 C   0  0  0  0  0  0  0  0  0  0  0  0
   11.0988  -19.4150   28.6756 C   0  0  0  0  0  0  0  0  0  0  0  0
   11.3649  -19.5453   30.0271 O   0  0  0  0  0  0  0  0  0  0  0  0
   10.5538  -20.4008   28.1045 O   0  0  0  0  0  0  0  0  0  0  0  0
  2  1  1  0
  3  2  1  0
  4  3  1  0
  4  5  1  0
  5  6  1  6
  7  8  2  0
  7  5  1  0
  9  7  1  0
 10  9  1  0
 10 14  1  0
 10 11  1  6
 12 16  1  0
 12 11  1  0
 13 12  2  0
 14 15  2  0
 14 17  1  0
 17 18  1  0
 19 18  1  0
 19 20  1  0
 21 19  2  0
M  END
$$$$
