MDG.pdb
     RDKit          3D

 21 20  0  0  1  0  0  0  0  0999 V2000
    7.0324  -11.3045   27.1235 C   0  0  0  0  0  0  0  0  0  0  0  0
    7.4905  -12.6043   25.9345 S   0  0  0  0  0  0  0  0  0  0  0  0
    5.9317  -13.3534   25.3221 C   0  0  0  0  0  0  0  0  0  0  0  0
    6.3141  -14.3503   24.2790 C   0  0  0  0  0  0  0  0  0  0  0  0
    6.9522  -15.5992   24.8161 C   0  0  2  0  0  0  0  0  0  0  0  0
    7.3067  -15.5420   26.1977 N   0  0  0  0  0  0  0  0  0  0  0  0
    8.0861  -16.0570   23.9749 C   0  0  0  0  0  0  0  0  0  0  0  0
    7.8705  -16.3353   22.7673 O   0  0  0  0  0  0  0  0  0  0  0  0
    9.4186  -16.2044   24.4471 N   0  0  0  0  0  0  0  0  0  0  0  0
   10.4241  -16.9842   23.7336 C   0  0  1  0  0  0  0  0  0  0  0  0
   11.5787  -16.0605   23.4583 C   0  0  0  0  0  0  0  0  0  0  0  0
   12.4934  -16.4701   22.4026 C   0  0  0  0  0  0  0  0  0  0  0  0
   12.0384  -16.9290   21.3239 O   0  0  0  0  0  0  0  0  0  0  0  0
   10.7550  -18.2305   24.4112 C   0  0  0  0  0  0  0  0  0  0  0  0
   11.5382  -19.0762   23.8578 O   0  0  0  0  0  0  0  0  0  0  0  0
   13.8638  -16.3730   22.5408 O   0  0  0  0  0  0  0  0  0  0  0  0
   10.2584  -18.5934   25.6904 N   0  0  0  0  0  0  0  0  0  0  0  0
   10.6256  -19.8610   26.2939 C   0  0  0  0  0  0  0  0  0  0  0  0
   11.7103  -19.6733   27.2755 C   0  0  0  0  0  0  0  0  0  0  0  0
   11.5892  -19.9301   28.6296 O   0  0  0  0  0  0  0  0  0  0  0  0
   12.8307  -19.2513   26.8735 O   0  0  0  0  0  0  0  0  0  0  0  0
  2  1  1  0
  3  2  1  0
  4  3  1  0
  4  5  1  0
  5  6  1  1
  7  8  2  0
  7  5  1  0
  9  7  1  0
 10  9  1  0
 10 14  1  0
 10 11  1  1
 12 16  1  0
 12 11  1  0
 13 12  2  0
 14 15  2  0
 14 17  1  0
 17 18  1  0
 19 18  1  0
 19 20  1  0
 21 19  2  0
M  END
$$$$
