MDG.pdb
     RDKit          3D

 21 20  0  0  1  0  0  0  0  0999 V2000
    7.0757  -11.2687   27.1240 C   0  0  0  0  0  0  0  0  0  0  0  0
    6.3001  -12.7864   26.4851 S   0  0  0  0  0  0  0  0  0  0  0  0
    6.8649  -12.9961   24.7521 C   0  0  0  0  0  0  0  0  0  0  0  0
    6.6921  -14.4399   24.4150 C   0  0  0  0  0  0  0  0  0  0  0  0
    7.5071  -15.3777   25.2586 C   0  0  2  0  0  0  0  0  0  0  0  0
    8.3371  -14.7397   26.2290 N   0  0  0  0  0  0  0  0  0  0  0  0
    8.2681  -16.3533   24.4388 C   0  0  0  0  0  0  0  0  0  0  0  0
    7.6328  -17.1548   23.7065 O   0  0  0  0  0  0  0  0  0  0  0  0
    9.6864  -16.4452   24.4240 N   0  0  0  0  0  0  0  0  0  0  0  0
   10.3965  -17.5469   23.7834 C   0  0  1  0  0  0  0  0  0  0  0  0
   11.4759  -16.9351   22.9333 C   0  0  0  0  0  0  0  0  0  0  0  0
   11.0522  -16.3794   21.6562 C   0  0  0  0  0  0  0  0  0  0  0  0
   10.0805  -16.8904   21.0431 O   0  0  0  0  0  0  0  0  0  0  0  0
   10.8336  -18.5621   24.7321 C   0  0  0  0  0  0  0  0  0  0  0  0
   11.6735  -19.4578   24.3755 O   0  0  0  0  0  0  0  0  0  0  0  0
   11.6854  -15.2951   21.0819 O   0  0  0  0  0  0  0  0  0  0  0  0
   10.3845  -18.6366   26.0765 N   0  0  0  0  0  0  0  0  0  0  0  0
   10.9242  -19.6335   26.9825 C   0  0  0  0  0  0  0  0  0  0  0  0
   10.3958  -19.4362   28.3452 C   0  0  0  0  0  0  0  0  0  0  0  0
   10.7300  -20.2240   29.4324 O   0  0  0  0  0  0  0  0  0  0  0  0
    9.5839  -18.4917   28.5541 O   0  0  0  0  0  0  0  0  0  0  0  0
  2  1  1  0
  3  2  1  0
  4  3  1  0
  4  5  1  0
  5  6  1  6
  7  8  2  0
  7  5  1  0
  9  7  1  0
 10  9  1  0
 10 14  1  0
 10 11  1  1
 12 16  1  0
 12 11  1  0
 13 12  2  0
 14 15  2  0
 14 17  1  0
 17 18  1  0
 19 18  1  0
 19 20  1  0
 21 19  2  0
M  END
$$$$
