MDG.pdb
     RDKit          3D

 21 20  0  0  1  0  0  0  0  0999 V2000
    8.3793  -12.0270   26.6286 C   0  0  0  0  0  0  0  0  0  0  0  0
    6.5623  -11.9872   26.7280 S   0  0  0  0  0  0  0  0  0  0  0  0
    5.9197  -12.9398   25.2976 C   0  0  0  0  0  0  0  0  0  0  0  0
    6.6087  -14.2638   25.3180 C   0  0  0  0  0  0  0  0  0  0  0  0
    7.9119  -14.2987   24.5725 C   0  0  2  0  0  0  0  0  0  0  0  0
    7.8339  -13.8701   23.2132 N   0  0  0  0  0  0  0  0  0  0  0  0
    8.5961  -15.6098   24.6984 C   0  0  0  0  0  0  0  0  0  0  0  0
    8.1007  -16.4808   25.4589 O   0  0  0  0  0  0  0  0  0  0  0  0
    9.7902  -15.9538   24.0084 N   0  0  0  0  0  0  0  0  0  0  0  0
   10.4864  -17.2177   24.2233 C   0  0  1  0  0  0  0  0  0  0  0  0
   11.6247  -17.2617   23.2413 C   0  0  0  0  0  0  0  0  0  0  0  0
   11.2709  -17.1038   21.8381 C   0  0  0  0  0  0  0  0  0  0  0  0
   11.8479  -16.2298   21.1420 O   0  0  0  0  0  0  0  0  0  0  0  0
   10.8425  -17.4338   25.6191 C   0  0  0  0  0  0  0  0  0  0  0  0
   11.6390  -16.6287   26.2127 O   0  0  0  0  0  0  0  0  0  0  0  0
   10.3111  -17.8890   21.2308 O   0  0  0  0  0  0  0  0  0  0  0  0
   10.3529  -18.5099   26.4047 N   0  0  0  0  0  0  0  0  0  0  0  0
   10.7206  -18.6317   27.8032 C   0  0  0  0  0  0  0  0  0  0  0  0
   11.9716  -19.3996   27.9457 C   0  0  0  0  0  0  0  0  0  0  0  0
   12.5793  -19.6821   29.1561 O   0  0  0  0  0  0  0  0  0  0  0  0
   12.5410  -19.8368   26.9066 O   0  0  0  0  0  0  0  0  0  0  0  0
  2  1  1  0
  3  2  1  0
  4  3  1  0
  4  5  1  0
  5  6  1  6
  7  8  2  0
  7  5  1  0
  9  7  1  0
 10  9  1  0
 10 14  1  0
 10 11  1  6
 12 16  1  0
 12 11  1  0
 13 12  2  0
 14 15  2  0
 14 17  1  0
 17 18  1  0
 19 18  1  0
 19 20  1  0
 21 19  2  0
M  END
$$$$
