NSD.pdb
     RDKit          3D

 23 22  0  0  1  0  0  0  0  0999 V2000
   15.6081  -12.5255  -14.7458 N   0  0  0  0  0  0  0  0  0  0  0  0
   16.9901  -12.2436  -14.6135 C   0  0  0  0  0  0  0  0  0  0  0  0
   17.6774  -12.9224  -13.7787 O   0  0  0  0  0  0  0  0  0  0  0  0
   17.6938  -11.2086  -15.3828 C   0  0  0  0  0  0  0  0  0  0  0  0
   16.7659  -10.4378  -16.2958 C   0  0  2  0  0  0  0  0  0  0  0  0
   16.2656  -11.3349  -17.2917 N   0  0  0  0  0  0  0  0  0  0  0  0
   17.5747   -9.3292  -16.8866 C   0  0  0  0  0  0  0  0  0  0  0  0
   18.3549   -9.5671  -17.8437 O   0  0  0  0  0  0  0  0  0  0  0  0
   16.2814   -5.7538  -17.2305 O   0  0  0  0  0  0  0  0  0  0  0  0
   17.3819   -6.1704  -17.9654 C   0  0  0  0  0  0  0  0  0  0  0  0
   18.3029   -6.9229  -17.0113 C   0  0  2  0  0  0  0  0  0  0  0  0
   17.5152   -7.9843  -16.4208 N   0  0  0  0  0  0  0  0  0  0  0  0
   18.8865   -6.0242  -15.9949 C   0  0  0  0  0  0  0  0  0  0  0  0
   18.1674   -5.6473  -15.0217 O   0  0  0  0  0  0  0  0  0  0  0  0
   20.2147   -5.5345  -16.0143 N   0  0  0  0  0  0  0  0  0  0  0  0
   20.7475   -4.7051  -14.9119 C   0  0  1  0  0  0  0  0  0  0  0  0
   22.1028   -5.2466  -14.6209 C   0  0  0  0  0  0  0  0  0  0  0  0
   22.1337   -6.5619  -13.9687 C   0  0  0  0  0  0  0  0  0  0  0  0
   21.3207   -6.8638  -13.0747 O   0  0  0  0  0  0  0  0  0  0  0  0
   20.7138   -3.2838  -15.3201 C   0  0  0  0  0  0  0  0  0  0  0  0
   20.9599   -2.2812  -14.3757 O   0  0  0  0  0  0  0  0  0  0  0  0
   23.0656   -7.5320  -14.3128 O   0  0  0  0  0  0  0  0  0  0  0  0
   20.4761   -2.8855  -16.4769 O   0  0  0  0  0  0  0  0  0  0  0  0
  2  1  1  0
  2  4  1  0
  3  2  2  0
  4  5  1  0
  5  6  1  6
  7 12  1  0
  7  5  1  0
  8  7  2  0
  9 10  1  0
 11 10  1  6
 11 13  1  0
 11 12  1  0
 13 15  1  0
 14 13  2  0
 15 16  1  0
 16 17  1  6
 17 18  1  0
 18 19  2  0
 20 16  1  0
 20 21  1  0
 22 18  1  0
 23 20  2  0
M  END
$$$$
