NSD.pdb
     RDKit          3D

 23 22  0  0  1  0  0  0  0  0999 V2000
   14.1614  -11.1540  -14.4575 N   0  0  0  0  0  0  0  0  0  0  0  0
   13.1929  -10.5622  -13.6097 C   0  0  0  0  0  0  0  0  0  0  0  0
   12.0491  -10.2698  -14.0957 O   0  0  0  0  0  0  0  0  0  0  0  0
   13.4203  -10.2587  -12.1905 C   0  0  0  0  0  0  0  0  0  0  0  0
   14.8169  -10.6251  -11.7389 C   0  0  2  0  0  0  0  0  0  0  0  0
   14.8092  -11.9909  -11.3130 N   0  0  0  0  0  0  0  0  0  0  0  0
   15.1650   -9.6873  -10.6292 C   0  0  0  0  0  0  0  0  0  0  0  0
   14.4990   -9.7075   -9.5628 O   0  0  0  0  0  0  0  0  0  0  0  0
   18.2172   -6.9601  -11.0140 O   0  0  0  0  0  0  0  0  0  0  0  0
   18.0417   -7.5161   -9.7550 C   0  0  0  0  0  0  0  0  0  0  0  0
   16.5620   -7.8559   -9.6143 C   0  0  2  0  0  0  0  0  0  0  0  0
   16.2324   -8.7470  -10.7064 N   0  0  0  0  0  0  0  0  0  0  0  0
   15.7221   -6.6410   -9.6074 C   0  0  0  0  0  0  0  0  0  0  0  0
   15.2252   -6.2308  -10.6989 O   0  0  0  0  0  0  0  0  0  0  0  0
   15.4160   -5.8749   -8.4569 N   0  0  0  0  0  0  0  0  0  0  0  0
   14.6235   -4.6296   -8.5474 C   0  0  1  0  0  0  0  0  0  0  0  0
   14.1971   -4.3230   -7.1550 C   0  0  0  0  0  0  0  0  0  0  0  0
   13.3823   -3.1120   -6.9933 C   0  0  0  0  0  0  0  0  0  0  0  0
   13.8413   -2.0863   -6.4561 O   0  0  0  0  0  0  0  0  0  0  0  0
   15.4437   -3.5842   -9.1972 C   0  0  0  0  0  0  0  0  0  0  0  0
   14.8266   -2.5927   -9.9678 O   0  0  0  0  0  0  0  0  0  0  0  0
   12.0654   -3.0478   -7.4285 O   0  0  0  0  0  0  0  0  0  0  0  0
   16.6849   -3.5061   -9.1153 O   0  0  0  0  0  0  0  0  0  0  0  0
  2  1  1  0
  2  4  1  0
  3  2  2  0
  4  5  1  0
  5  6  1  1
  7 12  1  0
  7  5  1  0
  8  7  2  0
  9 10  1  0
 11 10  1  6
 11 13  1  0
 11 12  1  0
 13 15  1  0
 14 13  2  0
 15 16  1  0
 16 17  1  1
 17 18  1  0
 18 19  2  0
 20 16  1  0
 20 21  1  0
 22 18  1  0
 23 20  2  0
M  END
$$$$
