NSD.pdb
     RDKit          3D

 23 22  0  0  1  0  0  0  0  0999 V2000
   11.0587  -13.1357  -11.9219 N   0  0  0  0  0  0  0  0  0  0  0  0
   11.4751  -13.1389  -10.5677 C   0  0  0  0  0  0  0  0  0  0  0  0
   11.0036  -14.0288   -9.7831 O   0  0  0  0  0  0  0  0  0  0  0  0
   12.4254  -12.1736   -9.9992 C   0  0  0  0  0  0  0  0  0  0  0  0
   12.9959  -11.2414  -11.0453 C   0  0  2  0  0  0  0  0  0  0  0  0
   13.7550  -12.0189  -11.9760 N   0  0  0  0  0  0  0  0  0  0  0  0
   13.8401  -10.2483  -10.3151 C   0  0  0  0  0  0  0  0  0  0  0  0
   13.3420   -9.5760   -9.3764 O   0  0  0  0  0  0  0  0  0  0  0  0
   17.7174   -9.4499  -11.4570 O   0  0  0  0  0  0  0  0  0  0  0  0
   17.4721   -9.4686  -10.0915 C   0  0  0  0  0  0  0  0  0  0  0  0
   16.0174   -9.0594   -9.8890 C   0  0  2  0  0  0  0  0  0  0  0  0
   15.2100  -10.0096  -10.6244 N   0  0  0  0  0  0  0  0  0  0  0  0
   15.7780   -7.6669  -10.3194 C   0  0  0  0  0  0  0  0  0  0  0  0
   15.2471   -7.4556  -11.4506 O   0  0  0  0  0  0  0  0  0  0  0  0
   16.0987   -6.5176   -9.5573 N   0  0  0  0  0  0  0  0  0  0  0  0
   15.7515   -5.1589  -10.0268 C   0  0  1  0  0  0  0  0  0  0  0  0
   15.7617   -4.2995   -8.8120 C   0  0  0  0  0  0  0  0  0  0  0  0
   14.6388   -4.4963   -7.8864 C   0  0  0  0  0  0  0  0  0  0  0  0
   13.7238   -5.3036   -8.1363 O   0  0  0  0  0  0  0  0  0  0  0  0
   16.7028   -4.7589  -11.0866 C   0  0  0  0  0  0  0  0  0  0  0  0
   16.3823   -3.7053  -11.9496 O   0  0  0  0  0  0  0  0  0  0  0  0
   14.5392   -3.7967   -6.6912 O   0  0  0  0  0  0  0  0  0  0  0  0
   17.8079   -5.2995  -11.2859 O   0  0  0  0  0  0  0  0  0  0  0  0
  2  1  1  0
  2  4  1  0
  3  2  2  0
  4  5  1  0
  5  6  1  6
  7 12  1  0
  7  5  1  0
  8  7  2  0
  9 10  1  0
 11 10  1  6
 11 13  1  0
 11 12  1  0
 13 15  1  0
 14 13  2  0
 15 16  1  0
 16 17  1  1
 17 18  1  0
 18 19  2  0
 20 16  1  0
 20 21  1  0
 22 18  1  0
 23 20  2  0
M  END
$$$$
