NSD.pdb
     RDKit          3D

 23 22  0  0  1  0  0  0  0  0999 V2000
   18.0420  -14.7414  -18.1312 N   0  0  0  0  0  0  0  0  0  0  0  0
   18.5834  -13.4434  -18.3016 C   0  0  0  0  0  0  0  0  0  0  0  0
   18.6733  -12.9666  -19.4825 O   0  0  0  0  0  0  0  0  0  0  0  0
   19.0543  -12.5990  -17.1956 C   0  0  0  0  0  0  0  0  0  0  0  0
   20.1858  -11.6842  -17.6096 C   0  0  2  0  0  0  0  0  0  0  0  0
   21.2779  -12.4923  -18.0579 N   0  0  0  0  0  0  0  0  0  0  0  0
   20.5383  -10.8720  -16.4061 C   0  0  0  0  0  0  0  0  0  0  0  0
   19.6330  -10.5019  -15.6158 O   0  0  0  0  0  0  0  0  0  0  0  0
   24.4078   -9.5594  -15.6991 O   0  0  0  0  0  0  0  0  0  0  0  0
   23.6404   -9.9054  -14.5962 C   0  0  0  0  0  0  0  0  0  0  0  0
   22.1840   -9.6354  -14.9575 C   0  0  2  0  0  0  0  0  0  0  0  0
   21.8712  -10.4807  -16.0903 N   0  0  0  0  0  0  0  0  0  0  0  0
   21.9491   -8.2052  -15.2419 C   0  0  0  0  0  0  0  0  0  0  0  0
   22.1428   -7.7721  -16.4172 O   0  0  0  0  0  0  0  0  0  0  0  0
   21.5147   -7.2513  -14.2902 N   0  0  0  0  0  0  0  0  0  0  0  0
   21.4210   -5.8141  -14.6257 C   0  0  1  0  0  0  0  0  0  0  0  0
   19.9721   -5.5436  -14.8318 C   0  0  0  0  0  0  0  0  0  0  0  0
   19.6186   -4.1411  -15.0858 C   0  0  0  0  0  0  0  0  0  0  0  0
   18.9352   -3.4859  -14.2764 O   0  0  0  0  0  0  0  0  0  0  0  0
   22.0595   -5.0265  -13.5487 C   0  0  0  0  0  0  0  0  0  0  0  0
   22.2589   -3.6516  -13.7150 O   0  0  0  0  0  0  0  0  0  0  0  0
   20.0256   -3.4762  -16.2347 O   0  0  0  0  0  0  0  0  0  0  0  0
   22.4508   -5.4987  -12.4638 O   0  0  0  0  0  0  0  0  0  0  0  0
  2  1  1  0
  2  4  1  0
  3  2  2  0
  4  5  1  0
  5  6  1  1
  7 12  1  0
  7  5  1  0
  8  7  2  0
  9 10  1  0
 11 10  1  6
 11 13  1  0
 11 12  1  0
 13 15  1  0
 14 13  2  0
 15 16  1  0
 16 17  1  1
 17 18  1  0
 18 19  2  0
 20 16  1  0
 20 21  1  0
 22 18  1  0
 23 20  2  0
M  END
$$$$
