NSD.pdb
     RDKit          3D

 23 22  0  0  1  0  0  0  0  0999 V2000
   15.1403  -10.5199  -13.6323 N   0  0  0  0  0  0  0  0  0  0  0  0
   15.0680   -9.1104  -13.5094 C   0  0  0  0  0  0  0  0  0  0  0  0
   14.0321   -8.5086  -13.9508 O   0  0  0  0  0  0  0  0  0  0  0  0
   16.1193   -8.2849  -12.9001 C   0  0  0  0  0  0  0  0  0  0  0  0
   17.2778   -9.1119  -12.3879 C   0  0  2  0  0  0  0  0  0  0  0  0
   16.9776   -9.5305  -11.0532 N   0  0  0  0  0  0  0  0  0  0  0  0
   18.4861   -8.2352  -12.4487 C   0  0  0  0  0  0  0  0  0  0  0  0
   18.6023   -7.2757  -11.6443 O   0  0  0  0  0  0  0  0  0  0  0  0
   22.4104   -9.1275  -13.0397 O   0  0  0  0  0  0  0  0  0  0  0  0
   21.8325   -8.3778  -14.0540 C   0  0  0  0  0  0  0  0  0  0  0  0
   20.7059   -7.5638  -13.4273 C   0  0  2  0  0  0  0  0  0  0  0  0
   19.5422   -8.4239  -13.3860 N   0  0  0  0  0  0  0  0  0  0  0  0
   20.4550   -6.3147  -14.1746 C   0  0  0  0  0  0  0  0  0  0  0  0
   19.7878   -6.3656  -15.2509 O   0  0  0  0  0  0  0  0  0  0  0  0
   20.9074   -5.0318  -13.7822 N   0  0  0  0  0  0  0  0  0  0  0  0
   20.5879   -3.8251  -14.5751 C   0  0  1  0  0  0  0  0  0  0  0  0
   20.2099   -2.7817  -13.5836 C   0  0  0  0  0  0  0  0  0  0  0  0
   19.7850   -1.4944  -14.1482 C   0  0  0  0  0  0  0  0  0  0  0  0
   20.5700   -0.7788  -14.7986 O   0  0  0  0  0  0  0  0  0  0  0  0
   21.7487   -3.4892  -15.4281 C   0  0  0  0  0  0  0  0  0  0  0  0
   23.0457   -3.7609  -14.9789 O   0  0  0  0  0  0  0  0  0  0  0  0
   18.4934   -1.0109  -13.9875 O   0  0  0  0  0  0  0  0  0  0  0  0
   21.6696   -2.9647  -16.5559 O   0  0  0  0  0  0  0  0  0  0  0  0
  2  1  1  0
  2  4  1  0
  3  2  2  0
  4  5  1  0
  5  6  1  1
  7 12  1  0
  7  5  1  0
  8  7  2  0
  9 10  1  0
 11 10  1  6
 11 13  1  0
 11 12  1  0
 13 15  1  0
 14 13  2  0
 15 16  1  0
 16 17  1  1
 17 18  1  0
 18 19  2  0
 20 16  1  0
 20 21  1  0
 22 18  1  0
 23 20  2  0
M  END
$$$$
