NSD.pdb
     RDKit          3D

 23 22  0  0  1  0  0  0  0  0999 V2000
   16.7120  -25.0268  -10.8111 N   0  0  0  0  0  0  0  0  0  0  0  0
   16.7289  -26.2234  -10.0528 C   0  0  0  0  0  0  0  0  0  0  0  0
   16.2122  -27.2763  -10.5571 O   0  0  0  0  0  0  0  0  0  0  0  0
   17.3089  -26.3343   -8.7077 C   0  0  0  0  0  0  0  0  0  0  0  0
   17.8865  -25.0244   -8.2188 C   0  0  2  0  0  0  0  0  0  0  0  0
   19.1646  -24.8378   -8.8338 N   0  0  0  0  0  0  0  0  0  0  0  0
   17.9831  -25.1307   -6.7317 C   0  0  0  0  0  0  0  0  0  0  0  0
   19.0681  -25.4790   -6.2000 O   0  0  0  0  0  0  0  0  0  0  0  0
   14.8080  -24.1677   -4.6497 O   0  0  0  0  0  0  0  0  0  0  0  0
   15.9307  -23.9763   -3.8574 C   0  0  0  0  0  0  0  0  0  0  0  0
   17.0339  -24.8689   -4.4151 C   0  0  2  0  0  0  0  0  0  0  0  0
   16.8939  -24.8549   -5.8559 N   0  0  0  0  0  0  0  0  0  0  0  0
   16.9642  -26.2346   -3.8571 C   0  0  0  0  0  0  0  0  0  0  0  0
   16.1840  -27.0783   -4.3918 O   0  0  0  0  0  0  0  0  0  0  0  0
   17.7134  -26.6949   -2.7475 N   0  0  0  0  0  0  0  0  0  0  0  0
   17.5176  -28.0521   -2.1939 C   0  0  1  0  0  0  0  0  0  0  0  0
   18.8718  -28.6678   -2.1520 C   0  0  0  0  0  0  0  0  0  0  0  0
   18.9383  -30.0152   -1.5718 C   0  0  0  0  0  0  0  0  0  0  0  0
   17.9084  -30.6313   -1.2386 O   0  0  0  0  0  0  0  0  0  0  0  0
   16.8367  -27.9438   -0.8852 C   0  0  0  0  0  0  0  0  0  0  0  0
   16.8170  -26.7191   -0.2089 O   0  0  0  0  0  0  0  0  0  0  0  0
   20.1459  -30.6688   -1.3658 O   0  0  0  0  0  0  0  0  0  0  0  0
   16.2564  -28.8847   -0.3098 O   0  0  0  0  0  0  0  0  0  0  0  0
  2  1  1  0
  2  4  1  0
  3  2  2  0
  4  5  1  0
  5  6  1  6
  7 12  1  0
  7  5  1  0
  8  7  2  0
  9 10  1  0
 11 10  1  1
 11 13  1  0
 11 12  1  0
 13 15  1  0
 14 13  2  0
 15 16  1  0
 16 17  1  1
 17 18  1  0
 18 19  2  0
 20 16  1  0
 20 21  1  0
 22 18  1  0
 23 20  2  0
M  END
$$$$
