NSD.pdb
     RDKit          3D

 23 22  0  0  1  0  0  0  0  0999 V2000
   18.4564  -10.9226  -20.6465 N   0  0  0  0  0  0  0  0  0  0  0  0
   17.9234  -11.0117  -19.3369 C   0  0  0  0  0  0  0  0  0  0  0  0
   16.7987  -11.5926  -19.1707 O   0  0  0  0  0  0  0  0  0  0  0  0
   18.5874  -10.4731  -18.1423 C   0  0  0  0  0  0  0  0  0  0  0  0
   19.7243  -11.3517  -17.6689 C   0  0  2  0  0  0  0  0  0  0  0  0
   19.1738  -12.5827  -17.1909 N   0  0  0  0  0  0  0  0  0  0  0  0
   20.4303  -10.5913  -16.5939 C   0  0  0  0  0  0  0  0  0  0  0  0
   19.8560  -10.3862  -15.4942 O   0  0  0  0  0  0  0  0  0  0  0  0
   24.2290  -10.6128  -15.2390 O   0  0  0  0  0  0  0  0  0  0  0  0
   23.8840   -9.4359  -15.8876 C   0  0  0  0  0  0  0  0  0  0  0  0
   22.3788   -9.2557  -15.7247 C   0  0  2  0  0  0  0  0  0  0  0  0
   21.7481  -10.0706  -16.7414 N   0  0  0  0  0  0  0  0  0  0  0  0
   21.9865   -7.8349  -15.8202 C   0  0  0  0  0  0  0  0  0  0  0  0
   21.9316   -7.2876  -16.9620 O   0  0  0  0  0  0  0  0  0  0  0  0
   21.6577   -7.0100  -14.7176 N   0  0  0  0  0  0  0  0  0  0  0  0
   21.2873   -5.5899  -14.8998 C   0  0  1  0  0  0  0  0  0  0  0  0
   19.8248   -5.5191  -14.6339 C   0  0  0  0  0  0  0  0  0  0  0  0
   19.2404   -4.1722  -14.6567 C   0  0  0  0  0  0  0  0  0  0  0  0
   19.6694   -3.2901  -15.4243 O   0  0  0  0  0  0  0  0  0  0  0  0
   22.1275   -4.7564  -14.0125 C   0  0  0  0  0  0  0  0  0  0  0  0
   22.2497   -3.3839  -14.2553 O   0  0  0  0  0  0  0  0  0  0  0  0
   18.1852   -3.8138  -13.8284 O   0  0  0  0  0  0  0  0  0  0  0  0
   22.7611   -5.1865  -13.0292 O   0  0  0  0  0  0  0  0  0  0  0  0
  2  1  1  0
  2  4  1  0
  3  2  2  0
  4  5  1  0
  5  6  1  1
  7 12  1  0
  7  5  1  0
  8  7  2  0
  9 10  1  0
 11 10  1  6
 11 13  1  0
 11 12  1  0
 13 15  1  0
 14 13  2  0
 15 16  1  0
 16 17  1  1
 17 18  1  0
 18 19  2  0
 20 16  1  0
 20 21  1  0
 22 18  1  0
 23 20  2  0
M  END
$$$$
