NSD.pdb
     RDKit          3D

 23 22  0  0  1  0  0  0  0  0999 V2000
   17.5426  -11.5619  -18.6427 N   0  0  0  0  0  0  0  0  0  0  0  0
   16.6391  -11.1042  -17.6521 C   0  0  0  0  0  0  0  0  0  0  0  0
   15.4434  -10.8193  -17.9972 O   0  0  0  0  0  0  0  0  0  0  0  0
   16.9914  -10.9332  -16.2362 C   0  0  0  0  0  0  0  0  0  0  0  0
   18.4669  -11.1464  -15.9792 C   0  0  2  0  0  0  0  0  0  0  0  0
   18.7012  -12.5504  -15.8356 N   0  0  0  0  0  0  0  0  0  0  0  0
   18.7962  -10.3867  -14.7355 C   0  0  0  0  0  0  0  0  0  0  0  0
   18.4861  -10.8617  -13.6133 O   0  0  0  0  0  0  0  0  0  0  0  0
   21.4072   -6.9181  -12.6908 O   0  0  0  0  0  0  0  0  0  0  0  0
   21.0023   -7.5306  -13.8681 C   0  0  0  0  0  0  0  0  0  0  0  0
   19.8229   -8.4336  -13.5242 C   0  0  2  0  0  0  0  0  0  0  0  0
   19.4568   -9.1246  -14.7425 N   0  0  0  0  0  0  0  0  0  0  0  0
   18.6972   -7.6662  -12.9537 C   0  0  0  0  0  0  0  0  0  0  0  0
   17.8708   -7.1115  -13.7383 O   0  0  0  0  0  0  0  0  0  0  0  0
   18.4551   -7.4923  -11.5696 N   0  0  0  0  0  0  0  0  0  0  0  0
   17.3602   -6.6268  -11.0806 C   0  0  1  0  0  0  0  0  0  0  0  0
   17.1710   -6.9888   -9.6495 C   0  0  0  0  0  0  0  0  0  0  0  0
   16.1018   -6.2664   -8.9486 C   0  0  0  0  0  0  0  0  0  0  0  0
   15.3199   -5.5114   -9.5570 O   0  0  0  0  0  0  0  0  0  0  0  0
   17.7178   -5.2131  -11.3284 C   0  0  0  0  0  0  0  0  0  0  0  0
   16.7150   -4.2800  -11.6136 O   0  0  0  0  0  0  0  0  0  0  0  0
   15.9077   -6.3869   -7.5791 O   0  0  0  0  0  0  0  0  0  0  0  0
   18.8797   -4.7627  -11.3047 O   0  0  0  0  0  0  0  0  0  0  0  0
  2  1  1  0
  2  4  1  0
  3  2  2  0
  4  5  1  0
  5  6  1  1
  7 12  1  0
  7  5  1  0
  8  7  2  0
  9 10  1  0
 11 10  1  6
 11 13  1  0
 11 12  1  0
 13 15  1  0
 14 13  2  0
 15 16  1  0
 16 17  1  1
 17 18  1  0
 18 19  2  0
 20 16  1  0
 20 21  1  0
 22 18  1  0
 23 20  2  0
M  END
$$$$
