NSD.pdb
     RDKit          3D

 23 22  0  0  1  0  0  0  0  0999 V2000
   15.6824  -15.0395  -13.2771 N   0  0  0  0  0  0  0  0  0  0  0  0
   14.8600  -14.0745  -13.9091 C   0  0  0  0  0  0  0  0  0  0  0  0
   14.0573  -14.4580  -14.8249 O   0  0  0  0  0  0  0  0  0  0  0  0
   14.8698  -12.6437  -13.5764 C   0  0  0  0  0  0  0  0  0  0  0  0
   15.8729  -12.3100  -12.4943 C   0  0  2  0  0  0  0  0  0  0  0  0
   15.5048  -13.0153  -11.3053 N   0  0  0  0  0  0  0  0  0  0  0  0
   15.8248  -10.8278  -12.3120 C   0  0  0  0  0  0  0  0  0  0  0  0
   16.0751  -10.0708  -13.2844 O   0  0  0  0  0  0  0  0  0  0  0  0
   15.3132   -9.1782   -8.6122 O   0  0  0  0  0  0  0  0  0  0  0  0
   14.6884   -8.4811   -9.6362 C   0  0  0  0  0  0  0  0  0  0  0  0
   15.4678   -8.7642  -10.9156 C   0  0  2  0  0  0  0  0  0  0  0  0
   15.5045  -10.2028  -11.0726 N   0  0  0  0  0  0  0  0  0  0  0  0
   16.8189   -8.1690  -10.8737 C   0  0  0  0  0  0  0  0  0  0  0  0
   17.7822   -8.8612  -10.4274 O   0  0  0  0  0  0  0  0  0  0  0  0
   17.1394   -6.8576  -11.3004 N   0  0  0  0  0  0  0  0  0  0  0  0
   18.5081   -6.3146  -11.1636 C   0  0  1  0  0  0  0  0  0  0  0  0
   19.2737   -6.8604  -12.3172 C   0  0  0  0  0  0  0  0  0  0  0  0
   20.5984   -6.2662  -12.5374 C   0  0  0  0  0  0  0  0  0  0  0  0
   20.7979   -5.4418  -13.4495 O   0  0  0  0  0  0  0  0  0  0  0  0
   18.4355   -4.8386  -11.1005 C   0  0  0  0  0  0  0  0  0  0  0  0
   19.3843   -4.1249  -10.3601 O   0  0  0  0  0  0  0  0  0  0  0  0
   21.6912   -6.5905  -11.7446 O   0  0  0  0  0  0  0  0  0  0  0  0
   17.5693   -4.1479  -11.6713 O   0  0  0  0  0  0  0  0  0  0  0  0
  2  1  1  0
  2  4  1  0
  3  2  2  0
  4  5  1  0
  5  6  1  1
  7 12  1  0
  7  5  1  0
  8  7  2  0
  9 10  1  0
 11 10  1  1
 11 13  1  0
 11 12  1  0
 13 15  1  0
 14 13  2  0
 15 16  1  0
 16 17  1  6
 17 18  1  0
 18 19  2  0
 20 16  1  0
 20 21  1  0
 22 18  1  0
 23 20  2  0
M  END
$$$$
