NSD.pdb
     RDKit          3D

 23 22  0  0  1  0  0  0  0  0999 V2000
   13.2640   -9.8415  -10.8116 N   0  0  0  0  0  0  0  0  0  0  0  0
   13.8887   -8.9067   -9.9496 C   0  0  0  0  0  0  0  0  0  0  0  0
   13.2137   -8.4178   -8.9826 O   0  0  0  0  0  0  0  0  0  0  0  0
   15.2794   -8.4568  -10.0968 C   0  0  0  0  0  0  0  0  0  0  0  0
   15.9958   -9.1586  -11.2294 C   0  0  2  0  0  0  0  0  0  0  0  0
   16.1208  -10.5439  -10.8941 N   0  0  0  0  0  0  0  0  0  0  0  0
   17.3233   -8.4884  -11.3733 C   0  0  0  0  0  0  0  0  0  0  0  0
   17.5244   -7.3766  -10.8212 O   0  0  0  0  0  0  0  0  0  0  0  0
   21.9347   -8.8333  -12.7164 O   0  0  0  0  0  0  0  0  0  0  0  0
   20.6846   -9.4348  -12.6987 C   0  0  0  0  0  0  0  0  0  0  0  0
   19.6827   -8.3795  -12.2435 C   0  0  2  0  0  0  0  0  0  0  0  0
   18.4036   -9.0452  -12.1166 N   0  0  0  0  0  0  0  0  0  0  0  0
   19.6314   -7.2374  -13.1787 C   0  0  0  0  0  0  0  0  0  0  0  0
   18.9768   -7.3551  -14.2576 O   0  0  0  0  0  0  0  0  0  0  0  0
   20.2668   -5.9898  -12.9685 N   0  0  0  0  0  0  0  0  0  0  0  0
   20.1928   -4.9073  -13.9733 C   0  0  1  0  0  0  0  0  0  0  0  0
   19.3092   -3.8677  -13.3791 C   0  0  0  0  0  0  0  0  0  0  0  0
   19.1317   -2.6514  -14.1825 C   0  0  0  0  0  0  0  0  0  0  0  0
   19.6860   -2.5167  -15.2897 O   0  0  0  0  0  0  0  0  0  0  0  0
   21.5641   -4.4560  -14.2955 C   0  0  0  0  0  0  0  0  0  0  0  0
   22.6114   -4.7179  -13.4054 O   0  0  0  0  0  0  0  0  0  0  0  0
   18.3410   -1.5943  -13.7522 O   0  0  0  0  0  0  0  0  0  0  0  0
   21.8807   -3.8387  -15.3309 O   0  0  0  0  0  0  0  0  0  0  0  0
  2  1  1  0
  2  4  1  0
  3  2  2  0
  4  5  1  0
  5  6  1  1
  7 12  1  0
  7  5  1  0
  8  7  2  0
  9 10  1  0
 11 10  1  6
 11 13  1  0
 11 12  1  0
 13 15  1  0
 14 13  2  0
 15 16  1  0
 16 17  1  1
 17 18  1  0
 18 19  2  0
 20 16  1  0
 20 21  1  0
 22 18  1  0
 23 20  2  0
M  END
$$$$
