NSD.pdb
     RDKit          3D

 23 22  0  0  1  0  0  0  0  0999 V2000
   17.7410  -12.5844  -19.5308 N   0  0  0  0  0  0  0  0  0  0  0  0
   18.8603  -11.8153  -19.1272 C   0  0  0  0  0  0  0  0  0  0  0  0
   19.9550  -11.9403  -19.7720 O   0  0  0  0  0  0  0  0  0  0  0  0
   18.8445  -10.8717  -18.0015 C   0  0  0  0  0  0  0  0  0  0  0  0
   20.0317  -11.0517  -17.0812 C   0  0  2  0  0  0  0  0  0  0  0  0
   19.8881  -12.3012  -16.3994 N   0  0  0  0  0  0  0  0  0  0  0  0
   20.0223   -9.8894  -16.1425 C   0  0  0  0  0  0  0  0  0  0  0  0
   19.0014   -9.6577  -15.4459 O   0  0  0  0  0  0  0  0  0  0  0  0
   22.3494   -7.0588  -13.2254 O   0  0  0  0  0  0  0  0  0  0  0  0
   22.3643   -8.0801  -14.1644 C   0  0  0  0  0  0  0  0  0  0  0  0
   21.1188   -7.9163  -15.0285 C   0  0  2  0  0  0  0  0  0  0  0  0
   21.1272   -9.0042  -15.9836 N   0  0  0  0  0  0  0  0  0  0  0  0
   21.0804   -6.5934  -15.6842 C   0  0  0  0  0  0  0  0  0  0  0  0
   21.7599   -6.4095  -16.7381 O   0  0  0  0  0  0  0  0  0  0  0  0
   20.3303   -5.4839  -15.2252 N   0  0  0  0  0  0  0  0  0  0  0  0
   20.3990   -4.1720  -15.9042 C   0  0  1  0  0  0  0  0  0  0  0  0
   18.9924   -3.6955  -16.0004 C   0  0  0  0  0  0  0  0  0  0  0  0
   18.8118   -2.3699  -16.6056 C   0  0  0  0  0  0  0  0  0  0  0  0
   19.7780   -1.7190  -17.0463 O   0  0  0  0  0  0  0  0  0  0  0  0
   21.3112   -3.2865  -15.1480 C   0  0  0  0  0  0  0  0  0  0  0  0
   21.8899   -3.7361  -13.9560 O   0  0  0  0  0  0  0  0  0  0  0  0
   17.5616   -1.7763  -16.7174 O   0  0  0  0  0  0  0  0  0  0  0  0
   21.6215   -2.1298  -15.4930 O   0  0  0  0  0  0  0  0  0  0  0  0
  2  1  1  0
  2  4  1  0
  3  2  2  0
  4  5  1  0
  5  6  1  1
  7 12  1  0
  7  5  1  0
  8  7  2  0
  9 10  1  0
 11 10  1  6
 11 13  1  0
 11 12  1  0
 13 15  1  0
 14 13  2  0
 15 16  1  0
 16 17  1  1
 17 18  1  0
 18 19  2  0
 20 16  1  0
 20 21  1  0
 22 18  1  0
 23 20  2  0
M  END
$$$$
