FPC.pdb
     RDKit          3D

 25 26  0  0  1  0  0  0  0  0999 V2000
    5.8035  -17.9322   25.1946 N   0  0  0  0  0  0  0  0  0  0  0  0
    6.3607  -16.6222   25.1639 C   0  0  1  0  0  0  0  0  0  0  0  0
    6.7003  -16.1496   26.5427 C   0  0  0  0  0  0  0  0  0  0  0  0
    6.8929  -14.6896   26.5339 C   0  0  0  0  0  0  0  0  0  0  0  0
    5.8498  -13.8060   26.4079 C   0  0  0  0  0  0  0  0  0  0  0  0
    6.0646  -12.4260   26.3884 C   0  0  0  0  0  0  0  0  0  0  0  0
    7.3442  -11.9253   26.4975 C   0  0  0  0  0  0  0  0  0  0  0  0
    8.4069  -12.8060   26.6258 C   0  0  0  0  0  0  0  0  0  0  0  0
    8.1675  -14.1712   26.6422 C   0  0  0  0  0  0  0  0  0  0  0  0
    7.5283  -16.5023   24.2601 C   0  0  0  0  0  0  0  0  0  0  0  0
    8.4842  -17.3082   24.5205 O   0  0  0  0  0  0  0  0  0  0  0  0
    7.6376  -15.5943   23.1862 N   0  0  0  0  0  0  0  0  0  0  0  0
    6.6086  -14.6880   22.7304 C   0  0  0  0  0  0  0  0  0  0  0  0
    7.1504  -14.2269   21.3702 C   0  0  0  0  0  0  0  0  0  0  0  0
    8.6229  -14.1094   21.6701 C   0  0  0  0  0  0  0  0  0  0  0  0
    8.8448  -15.4614   22.3639 C   0  0  1  0  0  0  0  0  0  0  0  0
   10.0725  -15.3157   23.1787 C   0  0  0  0  0  0  0  0  0  0  0  0
   10.3032  -14.4111   24.0011 O   0  0  0  0  0  0  0  0  0  0  0  0
   11.0802  -16.3005   23.0049 N   0  0  0  0  0  0  0  0  0  0  0  0
   12.4163  -16.1351   23.5920 C   0  0  1  0  0  0  0  0  0  0  0  0
   12.6080  -17.2255   24.6451 C   0  0  0  0  0  0  0  0  0  0  0  0
   11.1453  -17.1802   25.7428 S   0  0  0  0  0  0  0  0  0  0  0  0
   13.4603  -16.3632   22.5603 C   0  0  0  0  0  0  0  0  0  0  0  0
   13.1086  -16.7697   21.4274 O   0  0  0  0  0  0  0  0  0  0  0  0
   14.8027  -16.1470   22.7942 O   0  0  0  0  0  0  0  0  0  0  0  0
  2  1  1  1
  2 10  1  0
  3  2  1  0
  4  3  1  0
  5  4  2  0
  6  5  1  0
  7  8  1  0
  7  6  2  0
  8  9  2  0
  9  4  1  0
 10 12  1  0
 10 11  2  0
 12 16  1  0
 13 12  1  0
 14 13  1  0
 14 15  1  0
 15 16  1  0
 17 19  1  0
 16 17  1  1
 18 17  2  0
 20 19  1  0
 20 21  1  1
 21 22  1  0
 23 25  1  0
 23 20  1  0
 24 23  2  0
M  END
$$$$
