FPC.pdb
     RDKit          3D

 25 26  0  0  1  0  0  0  0  0999 V2000
    6.0870  -17.8600   25.3858 N   0  0  0  0  0  0  0  0  0  0  0  0
    6.5993  -16.5414   25.2232 C   0  0  1  0  0  0  0  0  0  0  0  0
    7.0552  -15.9763   26.5318 C   0  0  0  0  0  0  0  0  0  0  0  0
    6.9190  -14.5100   26.5139 C   0  0  0  0  0  0  0  0  0  0  0  0
    5.7007  -13.8803   26.4511 C   0  0  0  0  0  0  0  0  0  0  0  0
    5.6032  -12.4873   26.4212 C   0  0  0  0  0  0  0  0  0  0  0  0
    6.7443  -11.7149   26.4554 C   0  0  0  0  0  0  0  0  0  0  0  0
    7.9812  -12.3374   26.5195 C   0  0  0  0  0  0  0  0  0  0  0  0
    8.0513  -13.7215   26.5478 C   0  0  0  0  0  0  0  0  0  0  0  0
    7.6708  -16.4497   24.2043 C   0  0  0  0  0  0  0  0  0  0  0  0
    8.6391  -17.2636   24.3800 O   0  0  0  0  0  0  0  0  0  0  0  0
    7.6808  -15.5594   23.1103 N   0  0  0  0  0  0  0  0  0  0  0  0
    6.6231  -14.6436   22.7489 C   0  0  0  0  0  0  0  0  0  0  0  0
    7.0272  -14.2112   21.3326 C   0  0  0  0  0  0  0  0  0  0  0  0
    8.5245  -14.1127   21.4764 C   0  0  0  0  0  0  0  0  0  0  0  0
    8.7979  -15.4577   22.1653 C   0  0  1  0  0  0  0  0  0  0  0  0
   10.1055  -15.3196   22.8460 C   0  0  0  0  0  0  0  0  0  0  0  0
   10.4334  -14.4067   23.6251 O   0  0  0  0  0  0  0  0  0  0  0  0
   11.0754  -16.3230   22.5849 N   0  0  0  0  0  0  0  0  0  0  0  0
   12.4340  -16.2306   23.1353 C   0  0  1  0  0  0  0  0  0  0  0  0
   12.3511  -16.4721   24.6418 C   0  0  0  0  0  0  0  0  0  0  0  0
   11.4113  -18.0218   24.8900 S   0  0  0  0  0  0  0  0  0  0  0  0
   13.2840  -17.3173   22.5846 C   0  0  0  0  0  0  0  0  0  0  0  0
   12.7332  -18.2544   21.9596 O   0  0  0  0  0  0  0  0  0  0  0  0
   14.6557  -17.3407   22.7308 O   0  0  0  0  0  0  0  0  0  0  0  0
  2  1  1  1
  2 10  1  0
  3  2  1  0
  4  3  1  0
  5  4  2  0
  6  5  1  0
  7  8  1  0
  7  6  2  0
  8  9  2  0
  9  4  1  0
 10 12  1  0
 10 11  2  0
 12 16  1  0
 13 12  1  0
 14 13  1  0
 14 15  1  0
 15 16  1  0
 17 19  1  0
 16 17  1  1
 18 17  2  0
 20 19  1  0
 20 21  1  1
 21 22  1  0
 23 25  1  0
 23 20  1  0
 24 23  2  0
M  END
$$$$
