FPC.pdb
     RDKit          3D

 25 26  0  0  1  0  0  0  0  0999 V2000
    6.2033  -17.5910   25.6299 N   0  0  0  0  0  0  0  0  0  0  0  0
    6.7873  -16.3371   25.2917 C   0  0  1  0  0  0  0  0  0  0  0  0
    7.4066  -15.6912   26.4912 C   0  0  0  0  0  0  0  0  0  0  0  0
    6.9305  -14.3025   26.6087 C   0  0  0  0  0  0  0  0  0  0  0  0
    5.5998  -13.9691   26.5571 C   0  0  0  0  0  0  0  0  0  0  0  0
    5.1787  -12.6411   26.6571 C   0  0  0  0  0  0  0  0  0  0  0  0
    6.1061  -11.6331   26.8117 C   0  0  0  0  0  0  0  0  0  0  0  0
    7.4532  -11.9553   26.8659 C   0  0  0  0  0  0  0  0  0  0  0  0
    7.8455  -13.2808   26.7641 C   0  0  0  0  0  0  0  0  0  0  0  0
    7.7581  -16.4238   24.1761 C   0  0  0  0  0  0  0  0  0  0  0  0
    8.6046  -17.3741   24.2837 O   0  0  0  0  0  0  0  0  0  0  0  0
    7.7983  -15.5597   23.0619 N   0  0  0  0  0  0  0  0  0  0  0  0
    6.7731  -14.6158   22.6800 C   0  0  0  0  0  0  0  0  0  0  0  0
    7.1906  -14.2305   21.2539 C   0  0  0  0  0  0  0  0  0  0  0  0
    8.6905  -14.1815   21.3949 C   0  0  0  0  0  0  0  0  0  0  0  0
    8.9171  -15.5192   22.1144 C   0  0  1  0  0  0  0  0  0  0  0  0
   10.2296  -15.4117   22.7913 C   0  0  0  0  0  0  0  0  0  0  0  0
   10.4949  -14.6832   23.7642 O   0  0  0  0  0  0  0  0  0  0  0  0
   11.2834  -16.2154   22.2820 N   0  0  0  0  0  0  0  0  0  0  0  0
   12.6343  -16.1528   22.8552 C   0  0  1  0  0  0  0  0  0  0  0  0
   12.5842  -16.7708   24.2517 C   0  0  0  0  0  0  0  0  0  0  0  0
   11.5970  -18.3059   24.1285 S   0  0  0  0  0  0  0  0  0  0  0  0
   13.5666  -16.9927   22.0603 C   0  0  0  0  0  0  0  0  0  0  0  0
   14.7860  -16.9804   22.3522 O   0  0  0  0  0  0  0  0  0  0  0  0
   13.1490  -17.7874   21.0126 O   0  0  0  0  0  0  0  0  0  0  0  0
  2  1  1  1
  2 10  1  0
  3  2  1  0
  4  3  1  0
  5  4  2  0
  6  5  1  0
  7  8  1  0
  7  6  2  0
  8  9  2  0
  9  4  1  0
 10 12  1  0
 10 11  2  0
 12 16  1  0
 13 12  1  0
 14 13  1  0
 14 15  1  0
 15 16  1  0
 17 19  1  0
 16 17  1  1
 18 17  2  0
 20 19  1  0
 20 21  1  1
 21 22  1  0
 23 25  1  0
 23 20  1  0
 24 23  2  0
M  END
$$$$
