FPC.pdb
     RDKit          3D

 25 26  0  0  1  0  0  0  0  0999 V2000
    6.8275  -17.4447   26.1994 N   0  0  0  0  0  0  0  0  0  0  0  0
    6.4250  -16.8866   24.9527 C   0  0  1  0  0  0  0  0  0  0  0  0
    5.5538  -15.6870   25.1567 C   0  0  0  0  0  0  0  0  0  0  0  0
    6.2924  -14.6590   25.9094 C   0  0  0  0  0  0  0  0  0  0  0  0
    7.3178  -14.9648   26.7695 C   0  0  0  0  0  0  0  0  0  0  0  0
    7.9911  -13.9692   27.4810 C   0  0  0  0  0  0  0  0  0  0  0  0
    7.6308  -12.6476   27.3271 C   0  0  0  0  0  0  0  0  0  0  0  0
    6.5974  -12.3243   26.4616 C   0  0  0  0  0  0  0  0  0  0  0  0
    5.9448  -13.3308   25.7671 C   0  0  0  0  0  0  0  0  0  0  0  0
    7.5618  -16.5697   24.0573 C   0  0  0  0  0  0  0  0  0  0  0  0
    8.6292  -17.2259   24.3046 O   0  0  0  0  0  0  0  0  0  0  0  0
    7.5325  -15.6321   23.0040 N   0  0  0  0  0  0  0  0  0  0  0  0
    6.4082  -14.8034   22.6336 C   0  0  0  0  0  0  0  0  0  0  0  0
    6.8281  -14.2691   21.2572 C   0  0  0  0  0  0  0  0  0  0  0  0
    8.3017  -14.0377   21.4740 C   0  0  0  0  0  0  0  0  0  0  0  0
    8.6733  -15.3821   22.1167 C   0  0  1  0  0  0  0  0  0  0  0  0
    9.9321  -15.1543   22.8622 C   0  0  0  0  0  0  0  0  0  0  0  0
   10.1205  -14.2879   23.7350 O   0  0  0  0  0  0  0  0  0  0  0  0
   11.0261  -16.0044   22.5518 N   0  0  0  0  0  0  0  0  0  0  0  0
   12.3412  -15.8124   23.1770 C   0  0  1  0  0  0  0  0  0  0  0  0
   12.2656  -16.3409   24.6087 C   0  0  0  0  0  0  0  0  0  0  0  0
   11.3993  -17.9508   24.5457 S   0  0  0  0  0  0  0  0  0  0  0  0
   13.3633  -16.6359   22.4816 C   0  0  0  0  0  0  0  0  0  0  0  0
   14.5683  -16.4935   22.7978 O   0  0  0  0  0  0  0  0  0  0  0  0
   13.0444  -17.5525   21.5010 O   0  0  0  0  0  0  0  0  0  0  0  0
  2  1  1  1
  2 10  1  0
  3  2  1  0
  4  3  1  0
  5  4  2  0
  6  5  1  0
  7  8  1  0
  7  6  2  0
  8  9  2  0
  9  4  1  0
 10 12  1  0
 10 11  2  0
 12 16  1  0
 13 12  1  0
 14 13  1  0
 14 15  1  0
 15 16  1  0
 17 19  1  0
 16 17  1  1
 18 17  2  0
 20 19  1  0
 20 21  1  1
 21 22  1  0
 23 25  1  0
 23 20  1  0
 24 23  2  0
M  END
$$$$
