FPC.pdb
     RDKit          3D

 25 26  0  0  1  0  0  0  0  0999 V2000
    6.6208  -16.8774   26.0782 N   0  0  0  0  0  0  0  0  0  0  0  0
    6.2961  -16.4155   24.7709 C   0  0  1  0  0  0  0  0  0  0  0  0
    5.6791  -15.0529   24.8197 C   0  0  0  0  0  0  0  0  0  0  0  0
    6.4897  -14.1712   25.6765 C   0  0  0  0  0  0  0  0  0  0  0  0
    5.9369  -13.3543   26.6315 C   0  0  0  0  0  0  0  0  0  0  0  0
    6.7302  -12.5177   27.4200 C   0  0  0  0  0  0  0  0  0  0  0  0
    8.0978  -12.5008   27.2484 C   0  0  0  0  0  0  0  0  0  0  0  0
    8.6695  -13.3208   26.2882 C   0  0  0  0  0  0  0  0  0  0  0  0
    7.8606  -14.1418   25.5182 C   0  0  0  0  0  0  0  0  0  0  0  0
    7.4451  -16.4437   23.8364 C   0  0  0  0  0  0  0  0  0  0  0  0
    8.3931  -17.2245   24.1866 O   0  0  0  0  0  0  0  0  0  0  0  0
    7.5454  -15.6944   22.6455 N   0  0  0  0  0  0  0  0  0  0  0  0
    6.5139  -14.8566   22.0781 C   0  0  0  0  0  0  0  0  0  0  0  0
    7.0428  -14.5913   20.6617 C   0  0  0  0  0  0  0  0  0  0  0  0
    8.5186  -14.4386   20.9279 C   0  0  0  0  0  0  0  0  0  0  0  0
    8.7445  -15.6816   21.8009 C   0  0  1  0  0  0  0  0  0  0  0  0
    9.9807  -15.4284   22.5754 C   0  0  0  0  0  0  0  0  0  0  0  0
   10.1340  -14.5526   23.4456 O   0  0  0  0  0  0  0  0  0  0  0  0
   11.0951  -16.2635   22.2988 N   0  0  0  0  0  0  0  0  0  0  0  0
   12.2468  -16.3229   23.2084 C   0  0  1  0  0  0  0  0  0  0  0  0
   11.8621  -17.1965   24.4015 C   0  0  0  0  0  0  0  0  0  0  0  0
   11.8916  -16.1278   25.8859 S   0  0  0  0  0  0  0  0  0  0  0  0
   13.3885  -17.0026   22.5443 C   0  0  0  0  0  0  0  0  0  0  0  0
   13.1479  -17.8901   21.6919 O   0  0  0  0  0  0  0  0  0  0  0  0
   14.7050  -16.6996   22.8249 O   0  0  0  0  0  0  0  0  0  0  0  0
  2  1  1  1
  2 10  1  0
  3  2  1  0
  4  3  1  0
  5  4  2  0
  6  5  1  0
  7  8  1  0
  7  6  2  0
  8  9  2  0
  9  4  1  0
 10 12  1  0
 10 11  2  0
 12 16  1  0
 13 12  1  0
 14 13  1  0
 14 15  1  0
 15 16  1  0
 17 19  1  0
 16 17  1  1
 18 17  2  0
 20 19  1  0
 20 21  1  1
 21 22  1  0
 23 25  1  0
 23 20  1  0
 24 23  2  0
M  END
$$$$
