FPC.pdb
     RDKit          3D

 25 26  0  0  1  0  0  0  0  0999 V2000
    5.8201  -17.9710   24.9675 N   0  0  0  0  0  0  0  0  0  0  0  0
    6.2775  -16.6228   24.9932 C   0  0  1  0  0  0  0  0  0  0  0  0
    6.3876  -16.1188   26.3980 C   0  0  0  0  0  0  0  0  0  0  0  0
    6.5117  -14.6514   26.3909 C   0  0  0  0  0  0  0  0  0  0  0  0
    7.7071  -14.0084   26.5964 C   0  0  0  0  0  0  0  0  0  0  0  0
    7.7916  -12.6142   26.5982 C   0  0  0  0  0  0  0  0  0  0  0  0
    6.6606  -11.8541   26.3903 C   0  0  0  0  0  0  0  0  0  0  0  0
    5.4469  -12.4902   26.1810 C   0  0  0  0  0  0  0  0  0  0  0  0
    5.3892  -13.8751   26.1841 C   0  0  0  0  0  0  0  0  0  0  0  0
    7.5465  -16.4195   24.2564 C   0  0  0  0  0  0  0  0  0  0  0  0
    8.5107  -17.1594   24.6487 O   0  0  0  0  0  0  0  0  0  0  0  0
    7.7388  -15.5017   23.2027 N   0  0  0  0  0  0  0  0  0  0  0  0
    6.7912  -14.5053   22.7587 C   0  0  0  0  0  0  0  0  0  0  0  0
    7.3808  -14.0623   21.4125 C   0  0  0  0  0  0  0  0  0  0  0  0
    8.8553  -14.0714   21.7255 C   0  0  0  0  0  0  0  0  0  0  0  0
    8.9601  -15.4509   22.3921 C   0  0  1  0  0  0  0  0  0  0  0  0
   10.1883  -15.4226   23.2186 C   0  0  0  0  0  0  0  0  0  0  0  0
   10.4406  -14.6129   24.1288 O   0  0  0  0  0  0  0  0  0  0  0  0
   11.1693  -16.4122   22.9465 N   0  0  0  0  0  0  0  0  0  0  0  0
   12.4950  -16.3641   23.5770 C   0  0  1  0  0  0  0  0  0  0  0  0
   12.6151  -17.5629   24.5168 C   0  0  0  0  0  0  0  0  0  0  0  0
   11.2971  -17.3981   25.7746 S   0  0  0  0  0  0  0  0  0  0  0  0
   13.5559  -16.5303   22.5507 C   0  0  0  0  0  0  0  0  0  0  0  0
   13.2198  -16.8280   21.3800 O   0  0  0  0  0  0  0  0  0  0  0  0
   14.8977  -16.3712   22.8296 O   0  0  0  0  0  0  0  0  0  0  0  0
  2  1  1  1
  2 10  1  0
  3  2  1  0
  4  3  1  0
  5  4  2  0
  6  5  1  0
  7  8  1  0
  7  6  2  0
  8  9  2  0
  9  4  1  0
 10 12  1  0
 10 11  2  0
 12 16  1  0
 13 12  1  0
 14 13  1  0
 14 15  1  0
 15 16  1  0
 17 19  1  0
 16 17  1  1
 18 17  2  0
 20 19  1  0
 20 21  1  1
 21 22  1  0
 23 25  1  0
 23 20  1  0
 24 23  2  0
M  END
$$$$
