FPC.pdb
     RDKit          3D

 25 26  0  0  1  0  0  0  0  0999 V2000
   28.6569  -43.1772  -23.1339 N   0  0  0  0  0  0  0  0  0  0  0  0
   28.6533  -41.7697  -23.3499 C   0  0  1  0  0  0  0  0  0  0  0  0
   28.3446  -41.4454  -24.7779 C   0  0  0  0  0  0  0  0  0  0  0  0
   28.9784  -40.1679  -25.1452 C   0  0  0  0  0  0  0  0  0  0  0  0
   29.1471  -39.1407  -24.2500 C   0  0  0  0  0  0  0  0  0  0  0  0
   29.7392  -37.9344  -24.6310 C   0  0  0  0  0  0  0  0  0  0  0  0
   30.1688  -37.7562  -25.9286 C   0  0  0  0  0  0  0  0  0  0  0  0
   30.0052  -38.7851  -26.8430 C   0  0  0  0  0  0  0  0  0  0  0  0
   29.4144  -39.9726  -26.4401 C   0  0  0  0  0  0  0  0  0  0  0  0
   27.7490  -41.0377  -22.4329 C   0  0  0  0  0  0  0  0  0  0  0  0
   27.5292  -39.8238  -22.7635 O   0  0  0  0  0  0  0  0  0  0  0  0
   27.1505  -41.5780  -21.2754 N   0  0  0  0  0  0  0  0  0  0  0  0
   27.8224  -41.8805  -20.0325 C   0  0  0  0  0  0  0  0  0  0  0  0
   26.7853  -42.7382  -19.2942 C   0  0  0  0  0  0  0  0  0  0  0  0
   25.5063  -42.0377  -19.6756 C   0  0  0  0  0  0  0  0  0  0  0  0
   25.7274  -41.9226  -21.1910 C   0  0  1  0  0  0  0  0  0  0  0  0
   24.8498  -40.8255  -21.6584 C   0  0  0  0  0  0  0  0  0  0  0  0
   25.1115  -40.0125  -22.5630 O   0  0  0  0  0  0  0  0  0  0  0  0
   23.5922  -40.6890  -21.0137 N   0  0  0  0  0  0  0  0  0  0  0  0
   22.3350  -40.8894  -21.7463 C   0  0  1  0  0  0  0  0  0  0  0  0
   22.3848  -42.2686  -22.4020 C   0  0  0  0  0  0  0  0  0  0  0  0
   21.2523  -43.3552  -21.4624 S   0  0  0  0  0  0  0  0  0  0  0  0
   21.1906  -40.9183  -20.7998 C   0  0  0  0  0  0  0  0  0  0  0  0
   20.9115  -39.8764  -20.1604 O   0  0  0  0  0  0  0  0  0  0  0  0
   20.4195  -42.0435  -20.5928 O   0  0  0  0  0  0  0  0  0  0  0  0
  2  1  1  6
  2 10  1  0
  3  2  1  0
  4  3  1  0
  5  4  2  0
  6  5  1  0
  7  8  1  0
  7  6  2  0
  8  9  2  0
  9  4  1  0
 10 12  1  0
 10 11  2  0
 12 16  1  0
 13 12  1  0
 14 13  1  0
 14 15  1  0
 15 16  1  0
 17 19  1  0
 16 17  1  1
 18 17  2  0
 20 19  1  0
 20 21  1  1
 21 22  1  0
 23 25  1  0
 23 20  1  0
 24 23  2  0
M  END
$$$$
