FPC.pdb
     RDKit          3D

 25 26  0  0  1  0  0  0  0  0999 V2000
    5.8908  -17.3231   25.3384 N   0  0  0  0  0  0  0  0  0  0  0  0
    6.6875  -16.1936   24.9962 C   0  0  1  0  0  0  0  0  0  0  0  0
    7.3715  -15.6323   26.2032 C   0  0  0  0  0  0  0  0  0  0  0  0
    7.1908  -14.1713   26.2419 C   0  0  0  0  0  0  0  0  0  0  0  0
    7.6619  -13.3406   25.2556 C   0  0  0  0  0  0  0  0  0  0  0  0
    7.4879  -11.9566   25.3265 C   0  0  0  0  0  0  0  0  0  0  0  0
    6.8315  -11.3979   26.4022 C   0  0  0  0  0  0  0  0  0  0  0  0
    6.3502  -12.2248   27.4051 C   0  0  0  0  0  0  0  0  0  0  0  0
    6.5358  -13.5952   27.3116 C   0  0  0  0  0  0  0  0  0  0  0  0
    7.6620  -16.4688   23.9150 C   0  0  0  0  0  0  0  0  0  0  0  0
    8.4371  -17.4585   24.1403 O   0  0  0  0  0  0  0  0  0  0  0  0
    7.7761  -15.7361   22.7151 N   0  0  0  0  0  0  0  0  0  0  0  0
    6.8251  -14.7704   22.2142 C   0  0  0  0  0  0  0  0  0  0  0  0
    7.2850  -14.5727   20.7631 C   0  0  0  0  0  0  0  0  0  0  0  0
    8.7829  -14.6130   20.9264 C   0  0  0  0  0  0  0  0  0  0  0  0
    8.9056  -15.8769   21.7901 C   0  0  1  0  0  0  0  0  0  0  0  0
   10.2147  -15.7878   22.4762 C   0  0  0  0  0  0  0  0  0  0  0  0
   10.5935  -14.8610   23.2146 O   0  0  0  0  0  0  0  0  0  0  0  0
   11.1220  -16.8606   22.2719 N   0  0  0  0  0  0  0  0  0  0  0  0
   12.4638  -16.8474   22.8689 C   0  0  1  0  0  0  0  0  0  0  0  0
   12.5348  -17.9756   23.8970 C   0  0  0  0  0  0  0  0  0  0  0  0
   11.3338  -17.5789   25.2186 S   0  0  0  0  0  0  0  0  0  0  0  0
   13.4859  -17.1584   21.8369 C   0  0  0  0  0  0  0  0  0  0  0  0
   13.1083  -17.6313   20.7387 O   0  0  0  0  0  0  0  0  0  0  0  0
   14.8354  -16.9493   22.0339 O   0  0  0  0  0  0  0  0  0  0  0  0
  2  1  1  1
  2 10  1  0
  3  2  1  0
  4  3  1  0
  5  4  2  0
  6  5  1  0
  7  8  1  0
  7  6  2  0
  8  9  2  0
  9  4  1  0
 10 12  1  0
 10 11  2  0
 12 16  1  0
 13 12  1  0
 14 13  1  0
 14 15  1  0
 15 16  1  0
 17 19  1  0
 16 17  1  1
 18 17  2  0
 20 19  1  0
 20 21  1  1
 21 22  1  0
 23 25  1  0
 23 20  1  0
 24 23  2  0
M  END
$$$$
