FPC.pdb
     RDKit          3D

 25 26  0  0  1  0  0  0  0  0999 V2000
    6.6595  -16.2985   26.0068 N   0  0  0  0  0  0  0  0  0  0  0  0
    6.4369  -15.9189   24.6526 C   0  0  1  0  0  0  0  0  0  0  0  0
    6.0469  -14.4773   24.5552 C   0  0  0  0  0  0  0  0  0  0  0  0
    6.6559  -13.7222   25.6632 C   0  0  0  0  0  0  0  0  0  0  0  0
    5.9159  -13.1801   26.6847 C   0  0  0  0  0  0  0  0  0  0  0  0
    6.5200  -12.4563   27.7152 C   0  0  0  0  0  0  0  0  0  0  0  0
    7.8863  -12.2741   27.7213 C   0  0  0  0  0  0  0  0  0  0  0  0
    8.6460  -12.8163   26.6964 C   0  0  0  0  0  0  0  0  0  0  0  0
    8.0226  -13.5304   25.6851 C   0  0  0  0  0  0  0  0  0  0  0  0
    7.5829  -16.2189   23.7631 C   0  0  0  0  0  0  0  0  0  0  0  0
    8.4058  -17.0762   24.2311 O   0  0  0  0  0  0  0  0  0  0  0  0
    7.8046  -15.6396   22.4963 N   0  0  0  0  0  0  0  0  0  0  0  0
    6.9036  -14.7525   21.7970 C   0  0  0  0  0  0  0  0  0  0  0  0
    7.4911  -14.7319   20.3790 C   0  0  0  0  0  0  0  0  0  0  0  0
    8.9685  -14.7376   20.6780 C   0  0  0  0  0  0  0  0  0  0  0  0
    9.0117  -15.8834   21.6996 C   0  0  1  0  0  0  0  0  0  0  0  0
   10.2547  -15.6977   22.4825 C   0  0  0  0  0  0  0  0  0  0  0  0
   10.4686  -14.7991   23.3158 O   0  0  0  0  0  0  0  0  0  0  0  0
   11.2998  -16.6328   22.2610 N   0  0  0  0  0  0  0  0  0  0  0  0
   12.6101  -16.4775   22.9061 C   0  0  1  0  0  0  0  0  0  0  0  0
   12.5178  -17.0689   24.3120 C   0  0  0  0  0  0  0  0  0  0  0  0
   11.4642  -18.5603   24.2030 S   0  0  0  0  0  0  0  0  0  0  0  0
   13.6337  -17.2759   22.1839 C   0  0  0  0  0  0  0  0  0  0  0  0
   13.2743  -17.9701   21.2035 O   0  0  0  0  0  0  0  0  0  0  0  0
   14.9651  -17.2871   22.5452 O   0  0  0  0  0  0  0  0  0  0  0  0
  2  1  1  1
  2 10  1  0
  3  2  1  0
  4  3  1  0
  5  4  2  0
  6  5  1  0
  7  8  1  0
  7  6  2  0
  8  9  2  0
  9  4  1  0
 10 12  1  0
 10 11  2  0
 12 16  1  0
 13 12  1  0
 14 13  1  0
 14 15  1  0
 15 16  1  0
 17 19  1  0
 16 17  1  1
 18 17  2  0
 20 19  1  0
 20 21  1  1
 21 22  1  0
 23 25  1  0
 23 20  1  0
 24 23  2  0
M  END
$$$$
