FPC.pdb
     RDKit          3D

 25 26  0  0  1  0  0  0  0  0999 V2000
   -9.6735  -26.1107   33.0686 N   0  0  0  0  0  0  0  0  0  0  0  0
   -9.4385  -26.4157   31.6977 C   0  0  1  0  0  0  0  0  0  0  0  0
  -10.6181  -26.0456   30.8544 C   0  0  0  0  0  0  0  0  0  0  0  0
  -11.4818  -25.1085   31.5925 C   0  0  0  0  0  0  0  0  0  0  0  0
  -12.3152  -25.5116   32.6062 C   0  0  0  0  0  0  0  0  0  0  0  0
  -13.1339  -24.6019   33.2792 C   0  0  0  0  0  0  0  0  0  0  0  0
  -13.1159  -23.2684   32.9305 C   0  0  0  0  0  0  0  0  0  0  0  0
  -12.2788  -22.8473   31.9091 C   0  0  0  0  0  0  0  0  0  0  0  0
  -11.4761  -23.7698   31.2564 C   0  0  0  0  0  0  0  0  0  0  0  0
   -8.1959  -25.8089   31.1662 C   0  0  0  0  0  0  0  0  0  0  0  0
   -7.8903  -24.6846   31.6891 O   0  0  0  0  0  0  0  0  0  0  0  0
   -7.3764  -26.3735   30.1666 N   0  0  0  0  0  0  0  0  0  0  0  0
   -7.5844  -27.6459   29.5142 C   0  0  0  0  0  0  0  0  0  0  0  0
   -6.2415  -27.8814   28.8089 C   0  0  0  0  0  0  0  0  0  0  0  0
   -5.9079  -26.4853   28.3485 C   0  0  0  0  0  0  0  0  0  0  0  0
   -6.1645  -25.7233   29.6569 C   0  0  1  0  0  0  0  0  0  0  0  0
   -6.3955  -24.3106   29.2785 C   0  0  0  0  0  0  0  0  0  0  0  0
   -7.4902  -23.8023   28.9769 O   0  0  0  0  0  0  0  0  0  0  0  0
   -5.2614  -23.4568   29.2581 N   0  0  0  0  0  0  0  0  0  0  0  0
   -5.3609  -22.0693   28.7866 C   0  0  1  0  0  0  0  0  0  0  0  0
   -4.9530  -21.1491   29.9361 C   0  0  0  0  0  0  0  0  0  0  0  0
   -3.3228  -21.7229   30.5357 S   0  0  0  0  0  0  0  0  0  0  0  0
   -4.3845  -21.8293   27.6932 C   0  0  0  0  0  0  0  0  0  0  0  0
   -3.5195  -22.7053   27.4554 O   0  0  0  0  0  0  0  0  0  0  0  0
   -4.3875  -20.6824   26.9263 O   0  0  0  0  0  0  0  0  0  0  0  0
  2  1  1  1
  2 10  1  0
  3  2  1  0
  4  3  1  0
  5  4  2  0
  6  5  1  0
  7  8  1  0
  7  6  2  0
  8  9  2  0
  9  4  1  0
 10 12  1  0
 10 11  2  0
 12 16  1  0
 13 12  1  0
 14 13  1  0
 14 15  1  0
 15 16  1  0
 17 19  1  0
 16 17  1  6
 18 17  2  0
 20 19  1  0
 20 21  1  1
 21 22  1  0
 23 25  1  0
 23 20  1  0
 24 23  2  0
M  END
$$$$
