FPC.pdb
     RDKit          3D

 25 26  0  0  1  0  0  0  0  0999 V2000
    5.7896  -17.9515   25.1638 N   0  0  0  0  0  0  0  0  0  0  0  0
    6.3255  -16.6322   25.1624 C   0  0  1  0  0  0  0  0  0  0  0  0
    6.6197  -16.1697   26.5550 C   0  0  0  0  0  0  0  0  0  0  0  0
    6.8696  -14.7184   26.5538 C   0  0  0  0  0  0  0  0  0  0  0  0
    8.1338  -14.1846   26.5943 C   0  0  0  0  0  0  0  0  0  0  0  0
    8.3395  -12.8032   26.6066 C   0  0  0  0  0  0  0  0  0  0  0  0
    7.2614  -11.9448   26.5772 C   0  0  0  0  0  0  0  0  0  0  0  0
    5.9792  -12.4699   26.5357 C   0  0  0  0  0  0  0  0  0  0  0  0
    5.8015  -13.8445   26.5246 C   0  0  0  0  0  0  0  0  0  0  0  0
    7.5150  -16.4830   24.2921 C   0  0  0  0  0  0  0  0  0  0  0  0
    8.4831  -17.2645   24.5804 O   0  0  0  0  0  0  0  0  0  0  0  0
    7.6318  -15.5728   23.2209 N   0  0  0  0  0  0  0  0  0  0  0  0
    6.6194  -14.6391   22.7836 C   0  0  0  0  0  0  0  0  0  0  0  0
    7.1535  -14.1851   21.4180 C   0  0  0  0  0  0  0  0  0  0  0  0
    8.6325  -14.1054   21.6979 C   0  0  0  0  0  0  0  0  0  0  0  0
    8.8304  -15.4658   22.3824 C   0  0  1  0  0  0  0  0  0  0  0  0
   10.0725  -15.3544   23.1806 C   0  0  0  0  0  0  0  0  0  0  0  0
   10.3076  -14.5014   24.0552 O   0  0  0  0  0  0  0  0  0  0  0  0
   11.0900  -16.3106   22.9234 N   0  0  0  0  0  0  0  0  0  0  0  0
   12.3966  -16.2303   23.5894 C   0  0  1  0  0  0  0  0  0  0  0  0
   12.5492  -17.4621   24.4806 C   0  0  0  0  0  0  0  0  0  0  0  0
   11.2709  -17.3481   25.7841 S   0  0  0  0  0  0  0  0  0  0  0  0
   13.4882  -16.3042   22.5848 C   0  0  0  0  0  0  0  0  0  0  0  0
   13.1988  -16.6033   21.4020 O   0  0  0  0  0  0  0  0  0  0  0  0
   14.8094  -16.0576   22.8965 O   0  0  0  0  0  0  0  0  0  0  0  0
  2  1  1  1
  2 10  1  0
  3  2  1  0
  4  3  1  0
  5  4  2  0
  6  5  1  0
  7  8  1  0
  7  6  2  0
  8  9  2  0
  9  4  1  0
 10 12  1  0
 10 11  2  0
 12 16  1  0
 13 12  1  0
 14 13  1  0
 14 15  1  0
 15 16  1  0
 17 19  1  0
 16 17  1  1
 18 17  2  0
 20 19  1  0
 20 21  1  1
 21 22  1  0
 23 25  1  0
 23 20  1  0
 24 23  2  0
M  END
$$$$
