NKY.pdb
     RDKit          3D

 30 30  0  0  1  0  0  0  0  0999 V2000
    7.9890  -11.8091   17.5532 N   0  0  0  0  0  0  0  0  0  0  0  0
    8.7502  -12.9174   17.9742 C   0  0  0  0  0  0  0  0  0  0  0  0
    9.7930  -13.2245   17.3135 O   0  0  0  0  0  0  0  0  0  0  0  0
    8.3516  -13.7119   19.1652 C   0  0  0  0  0  0  0  0  0  0  0  0
    8.4974  -15.1847   18.8370 C   0  0  2  0  0  0  0  0  0  0  0  0
    7.6598  -15.5584   17.7398 N   0  0  0  0  0  0  0  0  0  0  0  0
    8.3581  -16.0534   20.0257 C   0  0  0  0  0  0  0  0  0  0  0  0
    7.4662  -15.7661   20.8634 O   0  0  0  0  0  0  0  0  0  0  0  0
    9.1974  -17.2075   20.2626 N   0  0  0  0  0  0  0  0  0  0  0  0
    9.0392  -17.9978   21.4525 C   0  0  1  0  0  0  0  0  0  0  0  0
    9.6729  -19.3466   21.3908 C   0  0  0  0  0  0  0  0  0  0  0  0
    8.9038  -20.4263   20.7515 C   0  0  0  0  0  0  0  0  0  0  0  0
    9.6629  -21.6775   20.4771 C   0  0  0  0  0  0  0  0  0  0  0  0
    8.6290  -22.6430   19.8422 C   0  0  0  0  0  0  0  0  0  0  0  0
    9.4216  -23.8030   19.4356 N   0  0  0  0  0  0  0  0  0  0  0  0
    9.7746  -17.2751   22.5678 C   0  0  0  0  0  0  0  0  0  0  0  0
   10.9855  -17.1618   22.4684 O   0  0  0  0  0  0  0  0  0  0  0  0
   10.9672  -13.7691   30.6375 O   0  0  0  0  0  0  0  0  0  0  0  0
   10.4447  -14.1353   29.3795 C   0  0  0  0  0  0  0  0  0  0  0  0
   11.1296  -14.9631   28.5272 C   0  0  0  0  0  0  0  0  0  0  0  0
   10.6240  -15.3161   27.3123 C   0  0  0  0  0  0  0  0  0  0  0  0
    9.3774  -14.8511   26.8719 C   0  0  0  0  0  0  0  0  0  0  0  0
    8.8471  -15.2253   25.5582 C   0  0  0  0  0  0  0  0  0  0  0  0
    9.6921  -16.2672   24.8768 C   0  0  2  0  0  0  0  0  0  0  0  0
    9.0733  -16.7583   23.6691 N   0  0  0  0  0  0  0  0  0  0  0  0
    9.9777  -17.4246   25.7508 C   0  0  0  0  0  0  0  0  0  0  0  0
   11.2099  -17.5091   26.3946 O   0  0  0  0  0  0  0  0  0  0  0  0
    8.6892  -14.0174   27.7336 C   0  0  0  0  0  0  0  0  0  0  0  0
    9.2093  -13.6611   28.9699 C   0  0  0  0  0  0  0  0  0  0  0  0
    9.1820  -18.3667   25.9703 O   0  0  0  0  0  0  0  0  0  0  0  0
  2  1  1  0
  2  3  2  0
  4  5  1  0
  4  2  1  0
  5  7  1  0
  5  6  1  6
  7  8  2  0
  9 10  1  0
  9  7  1  0
 11 12  1  0
 10 11  1  6
 12 13  1  0
 13 14  1  0
 14 15  1  0
 16 17  2  0
 16 10  1  0
 18 19  1  0
 19 20  2  0
 19 29  1  0
 20 21  1  0
 21 22  2  0
 22 23  1  0
 24 23  1  1
 24 26  1  0
 24 25  1  0
 25 16  1  0
 26 27  1  0
 28 22  1  0
 29 28  2  0
 30 26  2  0
M  END
$$$$
