NKY.pdb
     RDKit          3D

 30 30  0  0  1  0  0  0  0  0999 V2000
    8.7935  -16.5660   17.9044 N   0  0  0  0  0  0  0  0  0  0  0  0
    8.9166  -15.4391   18.7410 C   0  0  0  0  0  0  0  0  0  0  0  0
    9.6917  -14.4969   18.3809 O   0  0  0  0  0  0  0  0  0  0  0  0
    8.1575  -15.3451   20.0152 C   0  0  0  0  0  0  0  0  0  0  0  0
    7.3356  -16.6075   20.1845 C   0  0  2  0  0  0  0  0  0  0  0  0
    6.2739  -16.6690   19.2284 N   0  0  0  0  0  0  0  0  0  0  0  0
    6.9028  -16.8267   21.5816 C   0  0  0  0  0  0  0  0  0  0  0  0
    5.9513  -16.1317   22.0189 O   0  0  0  0  0  0  0  0  0  0  0  0
    7.5231  -17.7969   22.4570 N   0  0  0  0  0  0  0  0  0  0  0  0
    6.9746  -18.0679   23.7575 C   0  0  1  0  0  0  0  0  0  0  0  0
    6.6974  -19.5086   24.0264 C   0  0  0  0  0  0  0  0  0  0  0  0
    5.6082  -20.1411   23.2651 C   0  0  0  0  0  0  0  0  0  0  0  0
    5.4668  -21.6116   23.4511 C   0  0  0  0  0  0  0  0  0  0  0  0
    4.2742  -22.0175   22.5470 C   0  0  0  0  0  0  0  0  0  0  0  0
    4.1057  -23.4491   22.7940 N   0  0  0  0  0  0  0  0  0  0  0  0
    8.0324  -17.6804   24.7762 C   0  0  0  0  0  0  0  0  0  0  0  0
    9.1838  -18.0185   24.5550 O   0  0  0  0  0  0  0  0  0  0  0  0
    7.1132  -10.8652   24.4039 O   0  0  0  0  0  0  0  0  0  0  0  0
    7.3649  -11.9802   25.2304 C   0  0  0  0  0  0  0  0  0  0  0  0
    8.5463  -12.6736   25.1663 C   0  0  0  0  0  0  0  0  0  0  0  0
    8.7882  -13.7505   25.9650 C   0  0  0  0  0  0  0  0  0  0  0  0
    7.8416  -14.2043   26.8934 C   0  0  0  0  0  0  0  0  0  0  0  0
    8.1049  -15.3714   27.7393 C   0  0  0  0  0  0  0  0  0  0  0  0
    8.6173  -16.5452   26.9496 C   0  0  2  0  0  0  0  0  0  0  0  0
    7.6846  -16.9566   25.9281 N   0  0  0  0  0  0  0  0  0  0  0  0
    8.9118  -17.7161   27.8024 C   0  0  0  0  0  0  0  0  0  0  0  0
    9.9714  -17.6572   28.7044 O   0  0  0  0  0  0  0  0  0  0  0  0
    6.6519  -13.5028   26.9561 C   0  0  0  0  0  0  0  0  0  0  0  0
    6.4109  -12.4067   26.1398 C   0  0  0  0  0  0  0  0  0  0  0  0
    8.2703  -18.7917   27.7840 O   0  0  0  0  0  0  0  0  0  0  0  0
  2  1  1  0
  2  3  2  0
  4  5  1  0
  4  2  1  0
  5  7  1  0
  5  6  1  6
  7  8  2  0
  9 10  1  0
  9  7  1  0
 11 12  1  0
 10 11  1  6
 12 13  1  0
 13 14  1  0
 14 15  1  0
 16 17  2  0
 16 10  1  0
 18 19  1  0
 19 20  2  0
 19 29  1  0
 20 21  1  0
 21 22  2  0
 22 23  1  0
 24 23  1  1
 24 26  1  0
 24 25  1  0
 25 16  1  0
 26 27  1  0
 28 22  1  0
 29 28  2  0
 30 26  2  0
M  END
$$$$
