NKY.pdb
     RDKit          3D

 30 30  0  0  1  0  0  0  0  0999 V2000
    8.3916  -11.8907   18.0873 N   0  0  0  0  0  0  0  0  0  0  0  0
    8.0111  -13.2420   17.9675 C   0  0  0  0  0  0  0  0  0  0  0  0
    8.2700  -13.8521   16.8818 O   0  0  0  0  0  0  0  0  0  0  0  0
    7.3259  -13.9460   19.0827 C   0  0  0  0  0  0  0  0  0  0  0  0
    8.3733  -14.4396   20.0612 C   0  0  2  0  0  0  0  0  0  0  0  0
    9.5109  -14.9744   19.3793 N   0  0  0  0  0  0  0  0  0  0  0  0
    7.8137  -15.3358   21.0961 C   0  0  0  0  0  0  0  0  0  0  0  0
    6.8574  -14.9081   21.7904 O   0  0  0  0  0  0  0  0  0  0  0  0
    8.3167  -16.6698   21.3406 N   0  0  0  0  0  0  0  0  0  0  0  0
    7.7705  -17.4776   22.3964 C   0  0  1  0  0  0  0  0  0  0  0  0
    8.0250  -18.9403   22.2539 C   0  0  0  0  0  0  0  0  0  0  0  0
    7.4795  -19.8259   23.2952 C   0  0  0  0  0  0  0  0  0  0  0  0
    7.6908  -21.2828   23.0720 C   0  0  0  0  0  0  0  0  0  0  0  0
    6.9456  -21.9799   24.2395 C   0  0  0  0  0  0  0  0  0  0  0  0
    6.1303  -23.0035   23.5865 N   0  0  0  0  0  0  0  0  0  0  0  0
    8.4880  -17.0826   23.6755 C   0  0  0  0  0  0  0  0  0  0  0  0
    9.6894  -16.8788   23.6123 O   0  0  0  0  0  0  0  0  0  0  0  0
    6.5780  -10.3330   25.4550 O   0  0  0  0  0  0  0  0  0  0  0  0
    6.7603  -11.6816   25.8262 C   0  0  0  0  0  0  0  0  0  0  0  0
    5.7239  -12.5795   25.8142 C   0  0  0  0  0  0  0  0  0  0  0  0
    5.9010  -13.8818   26.1731 C   0  0  0  0  0  0  0  0  0  0  0  0
    7.1525  -14.3703   26.5724 C   0  0  0  0  0  0  0  0  0  0  0  0
    7.3313  -15.7694   26.9693 C   0  0  0  0  0  0  0  0  0  0  0  0
    8.3502  -16.4785   26.1190 C   0  0  2  0  0  0  0  0  0  0  0  0
    7.7812  -16.9581   24.8825 N   0  0  0  0  0  0  0  0  0  0  0  0
    8.9696  -17.6255   26.8159 C   0  0  0  0  0  0  0  0  0  0  0  0
    9.9682  -17.3958   27.7592 O   0  0  0  0  0  0  0  0  0  0  0  0
    8.1954  -13.4629   26.5828 C   0  0  0  0  0  0  0  0  0  0  0  0
    8.0089  -12.1374   26.2165 C   0  0  0  0  0  0  0  0  0  0  0  0
    8.6644  -18.8253   26.6259 O   0  0  0  0  0  0  0  0  0  0  0  0
  2  1  1  0
  2  3  2  0
  4  5  1  0
  4  2  1  0
  5  7  1  0
  5  6  1  6
  7  8  2  0
  9 10  1  0
  9  7  1  0
 11 12  1  0
 10 11  1  6
 12 13  1  0
 13 14  1  0
 14 15  1  0
 16 17  2  0
 16 10  1  0
 18 19  1  0
 19 20  2  0
 19 29  1  0
 20 21  1  0
 21 22  2  0
 22 23  1  0
 24 23  1  1
 24 26  1  0
 24 25  1  0
 25 16  1  0
 26 27  1  0
 28 22  1  0
 29 28  2  0
 30 26  2  0
M  END
$$$$
