NKY.pdb
     RDKit          3D

 30 30  0  0  1  0  0  0  0  0999 V2000
    9.6668  -14.0925   15.8825 N   0  0  0  0  0  0  0  0  0  0  0  0
    8.4707  -13.4846   16.3125 C   0  0  0  0  0  0  0  0  0  0  0  0
    7.8377  -12.7436   15.4950 O   0  0  0  0  0  0  0  0  0  0  0  0
    7.9523  -13.7033   17.6881 C   0  0  0  0  0  0  0  0  0  0  0  0
    8.8580  -14.6913   18.3964 C   0  0  2  0  0  0  0  0  0  0  0  0
    9.1330  -15.8276   17.5728 N   0  0  0  0  0  0  0  0  0  0  0  0
    8.3835  -15.0316   19.7552 C   0  0  0  0  0  0  0  0  0  0  0  0
    8.2334  -14.0937   20.5782 O   0  0  0  0  0  0  0  0  0  0  0  0
    8.0891  -16.3850   20.1724 N   0  0  0  0  0  0  0  0  0  0  0  0
    7.6668  -16.6623   21.5179 C   0  0  1  0  0  0  0  0  0  0  0  0
    7.2792  -18.0809   21.7670 C   0  0  0  0  0  0  0  0  0  0  0  0
    6.4166  -18.7315   20.7676 C   0  0  0  0  0  0  0  0  0  0  0  0
    6.1426  -20.1762   21.0015 C   0  0  0  0  0  0  0  0  0  0  0  0
    5.2337  -20.6083   19.8218 C   0  0  0  0  0  0  0  0  0  0  0  0
    5.0079  -22.0360   20.0452 N   0  0  0  0  0  0  0  0  0  0  0  0
    8.8664  -16.4249   22.4187 C   0  0  0  0  0  0  0  0  0  0  0  0
    9.9655  -16.7444   21.9958 O   0  0  0  0  0  0  0  0  0  0  0  0
    4.7315  -12.6965   27.3946 O   0  0  0  0  0  0  0  0  0  0  0  0
    5.9658  -13.0312   26.7993 C   0  0  0  0  0  0  0  0  0  0  0  0
    7.0816  -13.2949   27.5517 C   0  0  0  0  0  0  0  0  0  0  0  0
    8.2732  -13.6180   26.9758 C   0  0  0  0  0  0  0  0  0  0  0  0
    8.4191  -13.6977   25.5842 C   0  0  0  0  0  0  0  0  0  0  0  0
    9.7078  -14.0331   24.9727 C   0  0  0  0  0  0  0  0  0  0  0  0
    9.7878  -15.4796   24.5662 C   0  0  2  0  0  0  0  0  0  0  0  0
    8.7030  -15.8550   23.6917 N   0  0  0  0  0  0  0  0  0  0  0  0
    9.7809  -16.3950   25.7269 C   0  0  0  0  0  0  0  0  0  0  0  0
    8.7812  -17.3590   25.8329 O   0  0  0  0  0  0  0  0  0  0  0  0
    7.2924  -13.4320   24.8285 C   0  0  0  0  0  0  0  0  0  0  0  0
    6.0813  -13.1032   25.4207 C   0  0  0  0  0  0  0  0  0  0  0  0
   10.6234  -16.3789   26.6535 O   0  0  0  0  0  0  0  0  0  0  0  0
  2  1  1  0
  2  3  2  0
  4  5  1  0
  4  2  1  0
  5  7  1  0
  5  6  1  6
  7  8  2  0
  9 10  1  0
  9  7  1  0
 11 12  1  0
 10 11  1  6
 12 13  1  0
 13 14  1  0
 14 15  1  0
 16 17  2  0
 16 10  1  0
 18 19  1  0
 19 20  2  0
 19 29  1  0
 20 21  1  0
 21 22  2  0
 22 23  1  0
 24 23  1  1
 24 26  1  0
 24 25  1  0
 25 16  1  0
 26 27  1  0
 28 22  1  0
 29 28  2  0
 30 26  2  0
M  END
$$$$
