NKY.pdb
     RDKit          3D

 30 30  0  0  1  0  0  0  0  0999 V2000
    5.0575  -21.8318   25.5775 N   0  0  0  0  0  0  0  0  0  0  0  0
    4.7278  -20.8177   24.6567 C   0  0  0  0  0  0  0  0  0  0  0  0
    3.5558  -20.8033   24.1624 O   0  0  0  0  0  0  0  0  0  0  0  0
    5.7214  -19.7822   24.2702 C   0  0  0  0  0  0  0  0  0  0  0  0
    5.8157  -19.7409   22.7577 C   0  0  2  0  0  0  0  0  0  0  0  0
    6.0260  -21.0468   22.2140 N   0  0  0  0  0  0  0  0  0  0  0  0
    6.7719  -18.7233   22.2706 C   0  0  0  0  0  0  0  0  0  0  0  0
    7.9759  -19.0606   22.1425 O   0  0  0  0  0  0  0  0  0  0  0  0
    6.3835  -17.3697   21.9398 N   0  0  0  0  0  0  0  0  0  0  0  0
    7.3673  -16.4012   21.5402 C   0  0  1  0  0  0  0  0  0  0  0  0
    6.8343  -15.2796   20.7140 C   0  0  0  0  0  0  0  0  0  0  0  0
    7.8084  -14.3240   20.1625 C   0  0  0  0  0  0  0  0  0  0  0  0
    7.2347  -13.2403   19.3179 C   0  0  0  0  0  0  0  0  0  0  0  0
    8.4470  -12.6341   18.5648 C   0  0  0  0  0  0  0  0  0  0  0  0
    7.8616  -11.5980   17.7146 N   0  0  0  0  0  0  0  0  0  0  0  0
    7.8802  -15.7390   22.8072 C   0  0  0  0  0  0  0  0  0  0  0  0
    7.1395  -14.9545   23.3771 O   0  0  0  0  0  0  0  0  0  0  0  0
   10.6502  -14.6586   30.8659 O   0  0  0  0  0  0  0  0  0  0  0  0
   10.1680  -14.9908   29.5826 C   0  0  0  0  0  0  0  0  0  0  0  0
    9.6394  -14.0439   28.7432 C   0  0  0  0  0  0  0  0  0  0  0  0
    9.1738  -14.3659   27.5040 C   0  0  0  0  0  0  0  0  0  0  0  0
    9.2119  -15.6820   27.0237 C   0  0  0  0  0  0  0  0  0  0  0  0
    8.6970  -16.0217   25.6946 C   0  0  0  0  0  0  0  0  0  0  0  0
    9.6525  -15.6392   24.5970 C   0  0  2  0  0  0  0  0  0  0  0  0
    9.1641  -16.0294   23.2964 N   0  0  0  0  0  0  0  0  0  0  0  0
   10.9937  -16.2324   24.7819 C   0  0  0  0  0  0  0  0  0  0  0  0
   11.8995  -15.6218   25.6459 O   0  0  0  0  0  0  0  0  0  0  0  0
    9.7460  -16.6341   27.8720 C   0  0  0  0  0  0  0  0  0  0  0  0
   10.2185  -16.3003   29.1334 C   0  0  0  0  0  0  0  0  0  0  0  0
   11.3998  -17.2705   24.2106 O   0  0  0  0  0  0  0  0  0  0  0  0
  2  1  1  0
  2  3  2  0
  4  5  1  0
  4  2  1  0
  5  7  1  0
  5  6  1  1
  7  8  2  0
  9 10  1  0
  9  7  1  0
 11 12  1  0
 10 11  1  6
 12 13  1  0
 13 14  1  0
 14 15  1  0
 16 17  2  0
 16 10  1  0
 18 19  1  0
 19 20  2  0
 19 29  1  0
 20 21  1  0
 21 22  2  0
 22 23  1  0
 24 23  1  1
 24 26  1  0
 24 25  1  0
 25 16  1  0
 26 27  1  0
 28 22  1  0
 29 28  2  0
 30 26  2  0
M  END
$$$$
