NKY.pdb
     RDKit          3D

 30 30  0  0  1  0  0  0  0  0999 V2000
    8.3401  -12.3539   18.5697 N   0  0  0  0  0  0  0  0  0  0  0  0
    8.6538  -13.5853   19.1782 C   0  0  0  0  0  0  0  0  0  0  0  0
    9.4303  -14.3853   18.5657 O   0  0  0  0  0  0  0  0  0  0  0  0
    8.0965  -13.9461   20.5078 C   0  0  0  0  0  0  0  0  0  0  0  0
    7.3780  -15.2756   20.3882 C   0  0  2  0  0  0  0  0  0  0  0  0
    6.2732  -15.1902   19.4842 N   0  0  0  0  0  0  0  0  0  0  0  0
    7.0386  -15.8639   21.7019 C   0  0  0  0  0  0  0  0  0  0  0  0
    6.3186  -15.1894   22.4805 O   0  0  0  0  0  0  0  0  0  0  0  0
    7.4967  -17.1694   22.1241 N   0  0  0  0  0  0  0  0  0  0  0  0
    7.1035  -17.7086   23.3970 C   0  0  1  0  0  0  0  0  0  0  0  0
    7.1344  -19.1976   23.4768 C   0  0  0  0  0  0  0  0  0  0  0  0
    6.7304  -19.8150   24.7503 C   0  0  0  0  0  0  0  0  0  0  0  0
    6.8995  -21.2922   24.8279 C   0  0  0  0  0  0  0  0  0  0  0  0
    6.3707  -21.6833   26.2321 C   0  0  0  0  0  0  0  0  0  0  0  0
    6.4775  -23.1416   26.2640 N   0  0  0  0  0  0  0  0  0  0  0  0
    8.1322  -17.2449   24.4137 C   0  0  0  0  0  0  0  0  0  0  0  0
    9.3061  -17.2618   24.0811 O   0  0  0  0  0  0  0  0  0  0  0  0
    5.7375  -10.6298   25.2184 O   0  0  0  0  0  0  0  0  0  0  0  0
    6.2572  -11.7979   25.8144 C   0  0  0  0  0  0  0  0  0  0  0  0
    5.4548  -12.6815   26.4896 C   0  0  0  0  0  0  0  0  0  0  0  0
    5.9578  -13.8093   27.0650 C   0  0  0  0  0  0  0  0  0  0  0  0
    7.3218  -14.1240   26.9957 C   0  0  0  0  0  0  0  0  0  0  0  0
    7.8565  -15.3325   27.6288 C   0  0  0  0  0  0  0  0  0  0  0  0
    8.6099  -16.2003   26.6576 C   0  0  2  0  0  0  0  0  0  0  0  0
    7.7330  -16.8124   25.6886 N   0  0  0  0  0  0  0  0  0  0  0  0
    9.3723  -17.2731   27.3305 C   0  0  0  0  0  0  0  0  0  0  0  0
    9.0094  -18.6023   27.1270 O   0  0  0  0  0  0  0  0  0  0  0  0
    8.1280  -13.2316   26.3139 C   0  0  0  0  0  0  0  0  0  0  0  0
    7.6100  -12.0842   25.7299 C   0  0  0  0  0  0  0  0  0  0  0  0
   10.3484  -17.0847   28.0925 O   0  0  0  0  0  0  0  0  0  0  0  0
  2  1  1  0
  2  3  2  0
  4  5  1  0
  4  2  1  0
  5  7  1  0
  5  6  1  6
  7  8  2  0
  9 10  1  0
  9  7  1  0
 11 12  1  0
 10 11  1  6
 12 13  1  0
 13 14  1  0
 14 15  1  0
 16 17  2  0
 16 10  1  0
 18 19  1  0
 19 20  2  0
 19 29  1  0
 20 21  1  0
 21 22  2  0
 22 23  1  0
 24 23  1  1
 24 26  1  0
 24 25  1  0
 25 16  1  0
 26 27  1  0
 28 22  1  0
 29 28  2  0
 30 26  2  0
M  END
$$$$
