NKY.pdb
     RDKit          3D

 30 30  0  0  1  0  0  0  0  0999 V2000
   15.1877  -15.7206   18.3393 N   0  0  0  0  0  0  0  0  0  0  0  0
   14.9012  -14.4330   18.8347 C   0  0  0  0  0  0  0  0  0  0  0  0
   15.8133  -13.5476   18.7886 O   0  0  0  0  0  0  0  0  0  0  0  0
   13.5639  -14.1089   19.3961 C   0  0  0  0  0  0  0  0  0  0  0  0
   12.6425  -15.2909   19.1680 C   0  0  2  0  0  0  0  0  0  0  0  0
   12.2952  -15.4205   17.7867 N   0  0  0  0  0  0  0  0  0  0  0  0
   11.4824  -15.2987   20.0852 C   0  0  0  0  0  0  0  0  0  0  0  0
   11.2823  -14.2775   20.7899 O   0  0  0  0  0  0  0  0  0  0  0  0
   10.5782  -16.4215   20.2045 N   0  0  0  0  0  0  0  0  0  0  0  0
    9.4644  -16.3733   21.1115 C   0  0  1  0  0  0  0  0  0  0  0  0
    8.5301  -17.5314   21.0095 C   0  0  0  0  0  0  0  0  0  0  0  0
    8.0325  -17.8827   19.6697 C   0  0  0  0  0  0  0  0  0  0  0  0
    7.1861  -19.1057   19.6011 C   0  0  0  0  0  0  0  0  0  0  0  0
    6.6437  -19.1375   18.1488 C   0  0  0  0  0  0  0  0  0  0  0  0
    5.8594  -20.3702   18.0841 N   0  0  0  0  0  0  0  0  0  0  0  0
   10.0318  -16.4563   22.5179 C   0  0  0  0  0  0  0  0  0  0  0  0
   11.0247  -17.1446   22.6893 O   0  0  0  0  0  0  0  0  0  0  0  0
   10.7032  -15.0614   31.2795 O   0  0  0  0  0  0  0  0  0  0  0  0
   10.3102  -15.0064   29.9259 C   0  0  0  0  0  0  0  0  0  0  0  0
   10.5393  -13.8972   29.1527 C   0  0  0  0  0  0  0  0  0  0  0  0
   10.1591  -13.8452   27.8454 C   0  0  0  0  0  0  0  0  0  0  0  0
    9.5145  -14.9234   27.2241 C   0  0  0  0  0  0  0  0  0  0  0  0
    9.0972  -14.8539   25.8212 C   0  0  0  0  0  0  0  0  0  0  0  0
    9.8748  -15.7997   24.9466 C   0  0  2  0  0  0  0  0  0  0  0  0
    9.4262  -15.7589   23.5756 N   0  0  0  0  0  0  0  0  0  0  0  0
    9.7949  -17.1994   25.4153 C   0  0  0  0  0  0  0  0  0  0  0  0
   10.8373  -17.7286   26.1723 O   0  0  0  0  0  0  0  0  0  0  0  0
    9.2855  -16.0402   28.0060 C   0  0  0  0  0  0  0  0  0  0  0  0
    9.6748  -16.0875   29.3372 C   0  0  0  0  0  0  0  0  0  0  0  0
    8.8400  -17.9761   25.1837 O   0  0  0  0  0  0  0  0  0  0  0  0
  2  1  1  0
  2  3  2  0
  4  5  1  0
  4  2  1  0
  5  7  1  0
  5  6  1  6
  7  8  2  0
  9 10  1  0
  9  7  1  0
 11 12  1  0
 10 11  1  6
 12 13  1  0
 13 14  1  0
 14 15  1  0
 16 17  2  0
 16 10  1  0
 18 19  1  0
 19 20  2  0
 19 29  1  0
 20 21  1  0
 21 22  2  0
 22 23  1  0
 24 23  1  1
 24 26  1  0
 24 25  1  0
 25 16  1  0
 26 27  1  0
 28 22  1  0
 29 28  2  0
 30 26  2  0
M  END
$$$$
