NKY.pdb
     RDKit          3D

 30 30  0  0  1  0  0  0  0  0999 V2000
   15.6314  -13.2473   17.6124 N   0  0  0  0  0  0  0  0  0  0  0  0
   15.2422  -14.1538   18.6183 C   0  0  0  0  0  0  0  0  0  0  0  0
   16.0276  -15.1107   18.9109 O   0  0  0  0  0  0  0  0  0  0  0  0
   13.9459  -13.9989   19.3285 C   0  0  0  0  0  0  0  0  0  0  0  0
   13.0041  -15.0918   18.8632 C   0  0  2  0  0  0  0  0  0  0  0  0
   12.6029  -14.8894   17.5055 N   0  0  0  0  0  0  0  0  0  0  0  0
   11.8798  -15.3159   19.7975 C   0  0  0  0  0  0  0  0  0  0  0  0
   11.3390  -14.3088   20.3199 O   0  0  0  0  0  0  0  0  0  0  0  0
   11.3824  -16.6322   20.1326 N   0  0  0  0  0  0  0  0  0  0  0  0
   10.3117  -16.7932   21.0776 C   0  0  1  0  0  0  0  0  0  0  0  0
    9.7119  -18.1585   21.1097 C   0  0  0  0  0  0  0  0  0  0  0  0
    8.8811  -18.5590   19.9628 C   0  0  0  0  0  0  0  0  0  0  0  0
    8.3674  -19.9560   20.0010 C   0  0  0  0  0  0  0  0  0  0  0  0
    7.5737  -20.1280   18.6801 C   0  0  0  0  0  0  0  0  0  0  0  0
    7.1429  -21.5255   18.6979 N   0  0  0  0  0  0  0  0  0  0  0  0
   10.9067  -16.5991   22.4616 C   0  0  0  0  0  0  0  0  0  0  0  0
   12.0730  -16.9171   22.6273 O   0  0  0  0  0  0  0  0  0  0  0  0
   11.2279  -14.7501   31.1323 O   0  0  0  0  0  0  0  0  0  0  0  0
   10.8295  -14.8298   29.7815 C   0  0  0  0  0  0  0  0  0  0  0  0
   10.2484  -15.9600   29.2662 C   0  0  0  0  0  0  0  0  0  0  0  0
    9.8641  -16.0359   27.9613 C   0  0  0  0  0  0  0  0  0  0  0  0
   10.0429  -14.9618   27.0790 C   0  0  0  0  0  0  0  0  0  0  0  0
    9.6385  -15.0566   25.6738 C   0  0  0  0  0  0  0  0  0  0  0  0
   10.5980  -15.8798   24.8577 C   0  0  2  0  0  0  0  0  0  0  0  0
   10.1311  -16.0695   23.5055 N   0  0  0  0  0  0  0  0  0  0  0  0
   10.8470  -17.2112   25.4497 C   0  0  0  0  0  0  0  0  0  0  0  0
   12.0162  -17.4309   26.1740 O   0  0  0  0  0  0  0  0  0  0  0  0
   10.6283  -13.8236   27.6016 C   0  0  0  0  0  0  0  0  0  0  0  0
   11.0180  -13.7522   28.9315 C   0  0  0  0  0  0  0  0  0  0  0  0
   10.0726  -18.1909   25.3537 O   0  0  0  0  0  0  0  0  0  0  0  0
  2  1  1  0
  2  3  2  0
  4  5  1  0
  4  2  1  0
  5  7  1  0
  5  6  1  6
  7  8  2  0
  9 10  1  0
  9  7  1  0
 11 12  1  0
 10 11  1  1
 12 13  1  0
 13 14  1  0
 14 15  1  0
 16 17  2  0
 16 10  1  0
 18 19  1  0
 19 20  2  0
 19 29  1  0
 20 21  1  0
 21 22  2  0
 22 23  1  0
 24 23  1  1
 24 26  1  0
 24 25  1  0
 25 16  1  0
 26 27  1  0
 28 22  1  0
 29 28  2  0
 30 26  2  0
M  END
$$$$
