NKY.pdb
     RDKit          3D

 30 30  0  0  1  0  0  0  0  0999 V2000
   11.7743  -18.4874    7.8710 N   0  0  0  0  0  0  0  0  0  0  0  0
   12.2737  -17.9379    9.0684 C   0  0  0  0  0  0  0  0  0  0  0  0
   13.0335  -16.9200    8.9994 O   0  0  0  0  0  0  0  0  0  0  0  0
   11.9213  -18.5272   10.3865 C   0  0  0  0  0  0  0  0  0  0  0  0
   13.2006  -18.8118   11.1484 C   0  0  2  0  0  0  0  0  0  0  0  0
   14.0394  -19.7236   10.4341 N   0  0  0  0  0  0  0  0  0  0  0  0
   12.9566  -19.1928   12.5564 C   0  0  0  0  0  0  0  0  0  0  0  0
   12.9997  -18.2874   13.4270 O   0  0  0  0  0  0  0  0  0  0  0  0
   12.6744  -20.5501   12.9691 N   0  0  0  0  0  0  0  0  0  0  0  0
   12.3496  -20.8484   14.3370 C   0  0  1  0  0  0  0  0  0  0  0  0
   11.6645  -22.1574   14.5412 C   0  0  0  0  0  0  0  0  0  0  0  0
   10.8998  -22.7041   13.4087 C   0  0  0  0  0  0  0  0  0  0  0  0
   10.2210  -24.0048   13.6627 C   0  0  0  0  0  0  0  0  0  0  0  0
    9.4520  -24.3185   12.3533 C   0  0  0  0  0  0  0  0  0  0  0  0
    8.8445  -25.6264   12.5967 N   0  0  0  0  0  0  0  0  0  0  0  0
   13.6633  -20.9776   15.0883 C   0  0  0  0  0  0  0  0  0  0  0  0
   14.5840  -21.5486   14.5269 O   0  0  0  0  0  0  0  0  0  0  0  0
   20.1595  -19.7926   20.9176 O   0  0  0  0  0  0  0  0  0  0  0  0
   19.0311  -19.6684   20.0802 C   0  0  0  0  0  0  0  0  0  0  0  0
   19.1436  -19.6690   18.7135 C   0  0  0  0  0  0  0  0  0  0  0  0
   18.0531  -19.5488   17.9056 C   0  0  0  0  0  0  0  0  0  0  0  0
   16.7603  -19.4187   18.4308 C   0  0  0  0  0  0  0  0  0  0  0  0
   15.5944  -19.2767   17.5547 C   0  0  0  0  0  0  0  0  0  0  0  0
   14.9758  -20.6037   17.2077 C   0  0  2  0  0  0  0  0  0  0  0  0
   13.8011  -20.4523   16.3832 N   0  0  0  0  0  0  0  0  0  0  0  0
   14.5995  -21.3835   18.4059 C   0  0  0  0  0  0  0  0  0  0  0  0
   13.3177  -21.2509   18.9345 O   0  0  0  0  0  0  0  0  0  0  0  0
   16.6502  -19.4191   19.8089 C   0  0  0  0  0  0  0  0  0  0  0  0
   17.7645  -19.5416   20.6268 C   0  0  0  0  0  0  0  0  0  0  0  0
   15.3576  -22.1792   19.0066 O   0  0  0  0  0  0  0  0  0  0  0  0
  2  1  1  0
  2  3  2  0
  4  5  1  0
  4  2  1  0
  5  7  1  0
  5  6  1  6
  7  8  2  0
  9 10  1  0
  9  7  1  0
 11 12  1  0
 10 11  1  6
 12 13  1  0
 13 14  1  0
 14 15  1  0
 16 17  2  0
 16 10  1  0
 18 19  1  0
 19 20  2  0
 19 29  1  0
 20 21  1  0
 21 22  2  0
 22 23  1  0
 24 23  1  1
 24 26  1  0
 24 25  1  0
 25 16  1  0
 26 27  1  0
 28 22  1  0
 29 28  2  0
 30 26  2  0
M  END
$$$$
