NKY.pdb
     RDKit          3D

 30 30  0  0  1  0  0  0  0  0999 V2000
    9.5749  -15.5000   14.9646 N   0  0  0  0  0  0  0  0  0  0  0  0
    9.8601  -15.9594   16.2657 C   0  0  0  0  0  0  0  0  0  0  0  0
   11.0163  -16.4339   16.5026 O   0  0  0  0  0  0  0  0  0  0  0  0
    8.8387  -15.8901   17.3430 C   0  0  0  0  0  0  0  0  0  0  0  0
    8.5887  -17.2911   17.8653 C   0  0  2  0  0  0  0  0  0  0  0  0
    7.8731  -18.0814   16.9122 N   0  0  0  0  0  0  0  0  0  0  0  0
    7.9987  -17.3005   19.2214 C   0  0  0  0  0  0  0  0  0  0  0  0
    7.0131  -16.5517   19.4397 O   0  0  0  0  0  0  0  0  0  0  0  0
    8.5040  -18.1263   20.2962 N   0  0  0  0  0  0  0  0  0  0  0  0
    7.7839  -18.2396   21.5349 C   0  0  1  0  0  0  0  0  0  0  0  0
    7.5351  -19.6405   21.9824 C   0  0  0  0  0  0  0  0  0  0  0  0
    6.9292  -19.8284   23.3104 C   0  0  0  0  0  0  0  0  0  0  0  0
    6.8045  -21.2414   23.7633 C   0  0  0  0  0  0  0  0  0  0  0  0
    6.0331  -21.1656   25.1063 C   0  0  0  0  0  0  0  0  0  0  0  0
    5.9277  -22.5583   25.5403 N   0  0  0  0  0  0  0  0  0  0  0  0
    8.6630  -17.6377   22.6174 C   0  0  0  0  0  0  0  0  0  0  0  0
    9.8234  -18.0104   22.6782 O   0  0  0  0  0  0  0  0  0  0  0  0
   10.6230  -13.9466   30.3957 O   0  0  0  0  0  0  0  0  0  0  0  0
    9.9591  -14.3103   29.2054 C   0  0  0  0  0  0  0  0  0  0  0  0
    9.4831  -15.5806   29.0042 C   0  0  0  0  0  0  0  0  0  0  0  0
    8.8421  -15.9308   27.8542 C   0  0  0  0  0  0  0  0  0  0  0  0
    8.6361  -15.0099   26.8180 C   0  0  0  0  0  0  0  0  0  0  0  0
    7.9572  -15.3986   25.5790 C   0  0  0  0  0  0  0  0  0  0  0  0
    8.8640  -16.1501   24.6425 C   0  0  2  0  0  0  0  0  0  0  0  0
    8.1466  -16.6849   23.5103 N   0  0  0  0  0  0  0  0  0  0  0  0
    9.5680  -17.2656   25.3097 C   0  0  0  0  0  0  0  0  0  0  0  0
    8.8590  -18.4131   25.6565 O   0  0  0  0  0  0  0  0  0  0  0  0
    9.1165  -13.7301   27.0241 C   0  0  0  0  0  0  0  0  0  0  0  0
    9.7690  -13.3791   28.1976 C   0  0  0  0  0  0  0  0  0  0  0  0
   10.7865  -17.2688   25.5995 O   0  0  0  0  0  0  0  0  0  0  0  0
  2  1  1  0
  2  3  2  0
  4  5  1  0
  4  2  1  0
  5  7  1  0
  5  6  1  6
  7  8  2  0
  9 10  1  0
  9  7  1  0
 11 12  1  0
 10 11  1  1
 12 13  1  0
 13 14  1  0
 14 15  1  0
 16 17  2  0
 16 10  1  0
 18 19  1  0
 19 20  2  0
 19 29  1  0
 20 21  1  0
 21 22  2  0
 22 23  1  0
 24 23  1  1
 24 26  1  0
 24 25  1  0
 25 16  1  0
 26 27  1  0
 28 22  1  0
 29 28  2  0
 30 26  2  0
M  END
$$$$
