NKY.pdb
     RDKit          3D

 30 30  0  0  1  0  0  0  0  0999 V2000
    6.1542  -20.6202   19.1394 N   0  0  0  0  0  0  0  0  0  0  0  0
    7.1156  -19.6604   18.7656 C   0  0  0  0  0  0  0  0  0  0  0  0
    6.7146  -18.5621   18.2647 O   0  0  0  0  0  0  0  0  0  0  0  0
    8.5672  -19.9176   18.9535 C   0  0  0  0  0  0  0  0  0  0  0  0
    9.0193  -19.2363   20.2300 C   0  0  2  0  0  0  0  0  0  0  0  0
    8.0884  -19.4541   21.2936 N   0  0  0  0  0  0  0  0  0  0  0  0
    9.3802  -17.8168   20.0253 C   0  0  0  0  0  0  0  0  0  0  0  0
   10.2650  -17.5514   19.1730 O   0  0  0  0  0  0  0  0  0  0  0  0
    8.7645  -16.7323   20.7582 N   0  0  0  0  0  0  0  0  0  0  0  0
    9.3463  -15.4181   20.7503 C   0  0  1  0  0  0  0  0  0  0  0  0
    8.4365  -14.3394   20.2672 C   0  0  0  0  0  0  0  0  0  0  0  0
    7.9253  -14.4518   18.8917 C   0  0  0  0  0  0  0  0  0  0  0  0
    8.0987  -13.2407   18.0430 C   0  0  0  0  0  0  0  0  0  0  0  0
    7.4720  -13.6161   16.6753 C   0  0  0  0  0  0  0  0  0  0  0  0
    7.6263  -12.4085   15.8647 N   0  0  0  0  0  0  0  0  0  0  0  0
    9.6448  -15.0549   22.1945 C   0  0  0  0  0  0  0  0  0  0  0  0
    9.5398  -13.8830   22.5181 O   0  0  0  0  0  0  0  0  0  0  0  0
   10.4916  -14.5283   30.7940 O   0  0  0  0  0  0  0  0  0  0  0  0
   10.1661  -14.7789   29.4445 C   0  0  0  0  0  0  0  0  0  0  0  0
    9.7680  -13.7745   28.6001 C   0  0  0  0  0  0  0  0  0  0  0  0
    9.4538  -14.0176   27.2968 C   0  0  0  0  0  0  0  0  0  0  0  0
    9.5220  -15.3074   26.7528 C   0  0  0  0  0  0  0  0  0  0  0  0
    9.1696  -15.5620   25.3535 C   0  0  0  0  0  0  0  0  0  0  0  0
   10.3820  -15.7873   24.4912 C   0  0  2  0  0  0  0  0  0  0  0  0
   10.0260  -16.0433   23.1163 N   0  0  0  0  0  0  0  0  0  0  0  0
   11.2147  -16.9117   24.9679 C   0  0  0  0  0  0  0  0  0  0  0  0
   12.3888  -16.6456   25.6683 O   0  0  0  0  0  0  0  0  0  0  0  0
    9.9243  -16.3176   27.6064 C   0  0  0  0  0  0  0  0  0  0  0  0
   10.2429  -16.0641   28.9331 C   0  0  0  0  0  0  0  0  0  0  0  0
   10.9476  -18.1226   24.7912 O   0  0  0  0  0  0  0  0  0  0  0  0
  2  1  1  0
  2  3  2  0
  4  5  1  0
  4  2  1  0
  5  7  1  0
  5  6  1  1
  7  8  2  0
  9 10  1  0
  9  7  1  0
 11 12  1  0
 10 11  1  1
 12 13  1  0
 13 14  1  0
 14 15  1  0
 16 17  2  0
 16 10  1  0
 18 19  1  0
 19 20  2  0
 19 29  1  0
 20 21  1  0
 21 22  2  0
 22 23  1  0
 24 23  1  1
 24 26  1  0
 24 25  1  0
 25 16  1  0
 26 27  1  0
 28 22  1  0
 29 28  2  0
 30 26  2  0
M  END
$$$$
