NKY.pdb
     RDKit          3D

 30 30  0  0  1  0  0  0  0  0999 V2000
    8.5875  -12.7325   15.8649 N   0  0  0  0  0  0  0  0  0  0  0  0
    7.9372  -13.8830   16.3533 C   0  0  0  0  0  0  0  0  0  0  0  0
    7.8549  -14.9019   15.5963 O   0  0  0  0  0  0  0  0  0  0  0  0
    7.3615  -13.9135   17.7231 C   0  0  0  0  0  0  0  0  0  0  0  0
    8.1858  -14.8587   18.5748 C   0  0  2  0  0  0  0  0  0  0  0  0
    8.4447  -16.0860   17.8878 N   0  0  0  0  0  0  0  0  0  0  0  0
    7.6334  -15.0338   19.9355 C   0  0  0  0  0  0  0  0  0  0  0  0
    7.5210  -14.0135   20.6608 O   0  0  0  0  0  0  0  0  0  0  0  0
    7.2222  -16.3171   20.4612 N   0  0  0  0  0  0  0  0  0  0  0  0
    6.5544  -16.4100   21.7304 C   0  0  1  0  0  0  0  0  0  0  0  0
    5.8062  -17.6820   21.9466 C   0  0  0  0  0  0  0  0  0  0  0  0
    4.5553  -17.8669   21.1935 C   0  0  0  0  0  0  0  0  0  0  0  0
    3.8817  -19.1812   21.3834 C   0  0  0  0  0  0  0  0  0  0  0  0
    2.6081  -19.1104   20.5019 C   0  0  0  0  0  0  0  0  0  0  0  0
    1.9875  -20.4253   20.6592 N   0  0  0  0  0  0  0  0  0  0  0  0
    7.6316  -16.4076   22.8013 C   0  0  0  0  0  0  0  0  0  0  0  0
    8.6042  -17.1241   22.6291 O   0  0  0  0  0  0  0  0  0  0  0  0
   11.4927  -14.7421   30.6281 O   0  0  0  0  0  0  0  0  0  0  0  0
   10.6877  -14.6731   29.4717 C   0  0  0  0  0  0  0  0  0  0  0  0
   11.2337  -14.6189   28.2150 C   0  0  0  0  0  0  0  0  0  0  0  0
   10.4553  -14.5522   27.0988 C   0  0  0  0  0  0  0  0  0  0  0  0
    9.0562  -14.5360   27.1785 C   0  0  0  0  0  0  0  0  0  0  0  0
    8.2269  -14.4508   25.9735 C   0  0  0  0  0  0  0  0  0  0  0  0
    8.3776  -15.6594   25.0899 C   0  0  2  0  0  0  0  0  0  0  0  0
    7.5014  -15.6029   23.9446 N   0  0  0  0  0  0  0  0  0  0  0  0
    8.1133  -16.9232   25.8095 C   0  0  0  0  0  0  0  0  0  0  0  0
    9.1841  -17.6918   26.2596 O   0  0  0  0  0  0  0  0  0  0  0  0
    8.5088  -14.5913   28.4468 C   0  0  0  0  0  0  0  0  0  0  0  0
    9.3067  -14.6589   29.5802 C   0  0  0  0  0  0  0  0  0  0  0  0
    6.9731  -17.3779   26.0582 O   0  0  0  0  0  0  0  0  0  0  0  0
  2  1  1  0
  2  3  2  0
  4  5  1  0
  4  2  1  0
  5  7  1  0
  5  6  1  6
  7  8  2  0
  9 10  1  0
  9  7  1  0
 11 12  1  0
 10 11  1  6
 12 13  1  0
 13 14  1  0
 14 15  1  0
 16 17  2  0
 16 10  1  0
 18 19  1  0
 19 20  2  0
 19 29  1  0
 20 21  1  0
 21 22  2  0
 22 23  1  0
 24 23  1  1
 24 26  1  0
 24 25  1  0
 25 16  1  0
 26 27  1  0
 28 22  1  0
 29 28  2  0
 30 26  2  0
M  END
$$$$
