NKY.pdb
     RDKit          3D

 30 30  0  0  1  0  0  0  0  0999 V2000
    8.0752  -19.6514   18.5514 N   0  0  0  0  0  0  0  0  0  0  0  0
    7.2373  -20.2537   19.5107 C   0  0  0  0  0  0  0  0  0  0  0  0
    7.3607  -21.5010   19.7276 O   0  0  0  0  0  0  0  0  0  0  0  0
    6.2324  -19.4545   20.2591 C   0  0  0  0  0  0  0  0  0  0  0  0
    6.8102  -19.0942   21.6136 C   0  0  2  0  0  0  0  0  0  0  0  0
    5.7768  -18.8373   22.5681 N   0  0  0  0  0  0  0  0  0  0  0  0
    7.8366  -18.0323   21.5349 C   0  0  0  0  0  0  0  0  0  0  0  0
    9.0115  -18.3699   21.2429 O   0  0  0  0  0  0  0  0  0  0  0  0
    7.5478  -16.6360   21.7785 N   0  0  0  0  0  0  0  0  0  0  0  0
    8.6050  -15.6630   21.8103 C   0  0  1  0  0  0  0  0  0  0  0  0
    8.3150  -14.4065   21.0607 C   0  0  0  0  0  0  0  0  0  0  0  0
    8.4751  -14.4396   19.5981 C   0  0  0  0  0  0  0  0  0  0  0  0
    8.1920  -13.1587   18.8937 C   0  0  0  0  0  0  0  0  0  0  0  0
    8.3392  -13.4890   17.3858 C   0  0  0  0  0  0  0  0  0  0  0  0
    7.9833  -12.2430   16.7077 N   0  0  0  0  0  0  0  0  0  0  0  0
    8.7624  -15.2239   23.2557 C   0  0  0  0  0  0  0  0  0  0  0  0
    7.9507  -14.4276   23.6983 O   0  0  0  0  0  0  0  0  0  0  0  0
    5.5078  -11.1109   26.6813 O   0  0  0  0  0  0  0  0  0  0  0  0
    6.2539  -12.2998   26.5417 C   0  0  0  0  0  0  0  0  0  0  0  0
    7.6200  -12.3123   26.6614 C   0  0  0  0  0  0  0  0  0  0  0  0
    8.3397  -13.4612   26.5262 C   0  0  0  0  0  0  0  0  0  0  0  0
    7.7200  -14.6893   26.2581 C   0  0  0  0  0  0  0  0  0  0  0  0
    8.5029  -15.9179   26.1012 C   0  0  0  0  0  0  0  0  0  0  0  0
    9.8520  -15.6608   25.4865 C   0  0  2  0  0  0  0  0  0  0  0  0
    9.8095  -15.7258   24.0455 N   0  0  0  0  0  0  0  0  0  0  0  0
   10.8802  -16.6115   25.9598 C   0  0  0  0  0  0  0  0  0  0  0  0
   11.5498  -17.4115   25.0370 O   0  0  0  0  0  0  0  0  0  0  0  0
    6.3428  -14.6735   26.1386 C   0  0  0  0  0  0  0  0  0  0  0  0
    5.6149  -13.5001   26.2771 C   0  0  0  0  0  0  0  0  0  0  0  0
   11.2128  -16.7651   27.1575 O   0  0  0  0  0  0  0  0  0  0  0  0
  2  1  1  0
  2  3  2  0
  4  5  1  0
  4  2  1  0
  5  7  1  0
  5  6  1  1
  7  8  2  0
  9 10  1  0
  9  7  1  0
 11 12  1  0
 10 11  1  6
 12 13  1  0
 13 14  1  0
 14 15  1  0
 16 17  2  0
 16 10  1  0
 18 19  1  0
 19 20  2  0
 19 29  1  0
 20 21  1  0
 21 22  2  0
 22 23  1  0
 24 23  1  1
 24 26  1  0
 24 25  1  0
 25 16  1  0
 26 27  1  0
 28 22  1  0
 29 28  2  0
 30 26  2  0
M  END
$$$$
