NKY.pdb
     RDKit          3D

 30 30  0  0  1  0  0  0  0  0999 V2000
   12.8667  -18.0596   17.7781 N   0  0  0  0  0  0  0  0  0  0  0  0
   12.0530  -17.0637   17.2026 C   0  0  0  0  0  0  0  0  0  0  0  0
   12.1176  -16.8778   15.9458 O   0  0  0  0  0  0  0  0  0  0  0  0
   11.1346  -16.2478   18.0389 C   0  0  0  0  0  0  0  0  0  0  0  0
    9.7714  -16.9108   18.0508 C   0  0  2  0  0  0  0  0  0  0  0  0
    9.0711  -16.6820   16.8251 N   0  0  0  0  0  0  0  0  0  0  0  0
    8.9877  -16.5883   19.2628 C   0  0  0  0  0  0  0  0  0  0  0  0
    8.7325  -15.3796   19.4943 O   0  0  0  0  0  0  0  0  0  0  0  0
    8.5084  -17.5954   20.1839 N   0  0  0  0  0  0  0  0  0  0  0  0
    7.6498  -17.2381   21.2797 C   0  0  1  0  0  0  0  0  0  0  0  0
    6.6655  -18.2903   21.6657 C   0  0  0  0  0  0  0  0  0  0  0  0
    5.5985  -18.6041   20.7019 C   0  0  0  0  0  0  0  0  0  0  0  0
    4.4862  -19.4423   21.2284 C   0  0  0  0  0  0  0  0  0  0  0  0
    3.4640  -19.5290   20.0655 C   0  0  0  0  0  0  0  0  0  0  0  0
    2.3483  -20.2930   20.6228 N   0  0  0  0  0  0  0  0  0  0  0  0
    8.5353  -17.0691   22.5021 C   0  0  0  0  0  0  0  0  0  0  0  0
    9.3953  -17.9117   22.7004 O   0  0  0  0  0  0  0  0  0  0  0  0
   10.9653  -14.1122   30.5124 O   0  0  0  0  0  0  0  0  0  0  0  0
   10.3653  -14.2418   29.2424 C   0  0  0  0  0  0  0  0  0  0  0  0
   11.0997  -14.1674   28.0867 C   0  0  0  0  0  0  0  0  0  0  0  0
   10.5191  -14.2926   26.8605 C   0  0  0  0  0  0  0  0  0  0  0  0
    9.1411  -14.5043   26.7181 C   0  0  0  0  0  0  0  0  0  0  0  0
    8.5229  -14.6247   25.3951 C   0  0  0  0  0  0  0  0  0  0  0  0
    9.0331  -15.8175   24.6328 C   0  0  2  0  0  0  0  0  0  0  0  0
    8.3609  -15.9756   23.3656 N   0  0  0  0  0  0  0  0  0  0  0  0
    8.8881  -17.0781   25.3910 C   0  0  0  0  0  0  0  0  0  0  0  0
   10.0079  -17.6491   25.9909 O   0  0  0  0  0  0  0  0  0  0  0  0
    8.4036  -14.5794   27.8851 C   0  0  0  0  0  0  0  0  0  0  0  0
    9.0004  -14.4510   29.1313 C   0  0  0  0  0  0  0  0  0  0  0  0
    7.8106  -17.6976   25.5462 O   0  0  0  0  0  0  0  0  0  0  0  0
  2  1  1  0
  2  3  2  0
  4  5  1  0
  4  2  1  0
  5  7  1  0
  5  6  1  6
  7  8  2  0
  9 10  1  0
  9  7  1  0
 11 12  1  0
 10 11  1  1
 12 13  1  0
 13 14  1  0
 14 15  1  0
 16 17  2  0
 16 10  1  0
 18 19  1  0
 19 20  2  0
 19 29  1  0
 20 21  1  0
 21 22  2  0
 22 23  1  0
 24 23  1  1
 24 26  1  0
 24 25  1  0
 25 16  1  0
 26 27  1  0
 28 22  1  0
 29 28  2  0
 30 26  2  0
M  END
$$$$
