NKY.pdb
     RDKit          3D

 30 30  0  0  1  0  0  0  0  0999 V2000
    4.7115  -20.5415   23.8356 N   0  0  0  0  0  0  0  0  0  0  0  0
    6.0566  -20.8136   24.1543 C   0  0  0  0  0  0  0  0  0  0  0  0
    6.3575  -21.9743   24.5792 O   0  0  0  0  0  0  0  0  0  0  0  0
    7.1063  -19.7736   23.9960 C   0  0  0  0  0  0  0  0  0  0  0  0
    7.0241  -19.2112   22.5907 C   0  0  2  0  0  0  0  0  0  0  0  0
    7.0978  -20.2495   21.6099 N   0  0  0  0  0  0  0  0  0  0  0  0
    7.9700  -18.0975   22.3626 C   0  0  0  0  0  0  0  0  0  0  0  0
    9.1773  -18.3827   22.1609 O   0  0  0  0  0  0  0  0  0  0  0  0
    7.5680  -16.7080   22.3630 N   0  0  0  0  0  0  0  0  0  0  0  0
    8.5428  -15.6623   22.2153 C   0  0  1  0  0  0  0  0  0  0  0  0
    8.0168  -14.4040   21.6115 C   0  0  0  0  0  0  0  0  0  0  0  0
    7.6785  -14.4313   20.1794 C   0  0  0  0  0  0  0  0  0  0  0  0
    8.0707  -13.2212   19.4056 C   0  0  0  0  0  0  0  0  0  0  0  0
    7.5997  -13.5024   17.9552 C   0  0  0  0  0  0  0  0  0  0  0  0
    8.0543  -12.3376   17.1966 N   0  0  0  0  0  0  0  0  0  0  0  0
    8.9851  -15.2655   23.6131 C   0  0  0  0  0  0  0  0  0  0  0  0
    9.1485  -14.0779   23.8407 O   0  0  0  0  0  0  0  0  0  0  0  0
    6.1508  -10.6474   26.1882 O   0  0  0  0  0  0  0  0  0  0  0  0
    6.7596  -11.9064   26.3731 C   0  0  0  0  0  0  0  0  0  0  0  0
    8.0506  -12.0247   26.8201 C   0  0  0  0  0  0  0  0  0  0  0  0
    8.6376  -13.2412   26.9982 C   0  0  0  0  0  0  0  0  0  0  0  0
    7.9512  -14.4341   26.7338 C   0  0  0  0  0  0  0  0  0  0  0  0
    8.5945  -15.7380   26.9156 C   0  0  0  0  0  0  0  0  0  0  0  0
    9.7022  -15.9715   25.9244 C   0  0  2  0  0  0  0  0  0  0  0  0
    9.1939  -16.2414   24.6010 N   0  0  0  0  0  0  0  0  0  0  0  0
   10.5851  -17.0907   26.3153 C   0  0  0  0  0  0  0  0  0  0  0  0
   11.2568  -17.0396   27.5343 O   0  0  0  0  0  0  0  0  0  0  0  0
    6.6497  -14.3115   26.2839 C   0  0  0  0  0  0  0  0  0  0  0  0
    6.0570  -13.0697   26.1041 C   0  0  0  0  0  0  0  0  0  0  0  0
   10.7883  -18.1147   25.6232 O   0  0  0  0  0  0  0  0  0  0  0  0
  2  1  1  0
  2  3  2  0
  4  5  1  0
  4  2  1  0
  5  7  1  0
  5  6  1  6
  7  8  2  0
  9 10  1  0
  9  7  1  0
 11 12  1  0
 10 11  1  1
 12 13  1  0
 13 14  1  0
 14 15  1  0
 16 17  2  0
 16 10  1  0
 18 19  1  0
 19 20  2  0
 19 29  1  0
 20 21  1  0
 21 22  2  0
 22 23  1  0
 24 23  1  1
 24 26  1  0
 24 25  1  0
 25 16  1  0
 26 27  1  0
 28 22  1  0
 29 28  2  0
 30 26  2  0
M  END
$$$$
