TTP.pdb
     RDKit          3D

 22 22  0  0  1  0  0  0  0  0999 V2000
   12.4900  -17.7678   19.2810 C   0  0  0  0  0  0  0  0  0  0  0  0
   12.5877  -16.5711   20.2056 C   0  0  1  0  0  0  0  0  0  0  0  0
   13.8908  -16.4041   20.6382 O   0  0  0  0  0  0  0  0  0  0  0  0
   12.1156  -15.3550   19.3994 C   0  0  2  0  0  0  0  0  0  0  0  0
   13.3016  -14.6673   18.9474 N   0  0  0  0  0  0  0  0  0  0  0  0
   11.2760  -14.4766   20.2535 C   0  0  0  0  0  0  0  0  0  0  0  0
   11.7973  -13.5065   20.8430 O   0  0  0  0  0  0  0  0  0  0  0  0
    7.9177  -12.7524   19.4747 C   0  0  0  0  0  0  0  0  0  0  0  0
    7.7789  -13.7441   20.5740 C   0  0  1  0  0  0  0  0  0  0  0  0
    7.5402  -14.9959   19.9366 O   0  0  0  0  0  0  0  0  0  0  0  0
    9.0637  -13.9694   21.3868 C   0  0  2  0  0  0  0  0  0  0  0  0
    9.9059  -14.7102   20.4155 N   0  0  0  0  0  0  0  0  0  0  0  0
    8.8527  -14.7719   22.5864 C   0  0  0  0  0  0  0  0  0  0  0  0
    9.6446  -15.7853   22.7122 O   0  0  0  0  0  0  0  0  0  0  0  0
    7.9321  -14.6161   23.6264 N   0  0  0  0  0  0  0  0  0  0  0  0
    6.8907  -13.6193   23.7535 C   0  0  0  0  0  0  0  0  0  0  0  0
    6.6823  -13.4311   25.2522 C   0  0  0  0  0  0  0  0  0  0  0  0
    7.7665  -14.2602   25.8634 C   0  0  0  0  0  0  0  0  0  0  0  0
    7.8593  -15.4286   24.8697 C   0  0  1  0  0  0  0  0  0  0  0  0
    6.6016  -16.1776   24.9491 C   0  0  0  0  0  0  0  0  0  0  0  0
    6.3832  -16.8615   25.9603 O   0  0  0  0  0  0  0  0  0  0  0  0
    5.6294  -16.1712   23.9562 O   0  0  0  0  0  0  0  0  0  0  0  0
  2  1  1  6
  2  4  1  0
  3  2  1  0
  4  5  1  1
  6  7  2  0
  6  4  1  0
  9  8  1  6
  9 11  1  0
 10  9  1  0
 11 12  1  6
 11 13  1  0
 12  6  1  0
 13 15  1  0
 14 13  2  0
 15 19  1  0
 15 16  1  0
 16 17  1  0
 18 17  1  0
 19 18  1  0
 19 20  1  6
 20 22  1  0
 21 20  2  0
M  END
$$$$
