TTP.pdb
     RDKit          3D

 22 22  0  0  1  0  0  0  0  0999 V2000
    8.7835  -12.2721   19.7517 C   0  0  0  0  0  0  0  0  0  0  0  0
    8.4657  -13.3864   18.7750 C   0  0  1  0  0  0  0  0  0  0  0  0
    9.2661  -13.2827   17.6518 O   0  0  0  0  0  0  0  0  0  0  0  0
    8.7244  -14.7045   19.5150 C   0  0  2  0  0  0  0  0  0  0  0  0
    8.5069  -15.7677   18.5632 N   0  0  0  0  0  0  0  0  0  0  0  0
    7.8039  -14.8229   20.6747 C   0  0  0  0  0  0  0  0  0  0  0  0
    6.6151  -15.1579   20.4884 O   0  0  0  0  0  0  0  0  0  0  0  0
    6.1107  -16.4203   21.7993 C   0  0  0  0  0  0  0  0  0  0  0  0
    6.8630  -16.1314   23.0489 C   0  0  1  0  0  0  0  0  0  0  0  0
    8.0570  -16.9050   22.9681 O   0  0  0  0  0  0  0  0  0  0  0  0
    7.3564  -14.6807   23.1677 C   0  0  2  0  0  0  0  0  0  0  0  0
    8.2383  -14.5666   21.9799 N   0  0  0  0  0  0  0  0  0  0  0  0
    8.1171  -14.4293   24.3866 C   0  0  0  0  0  0  0  0  0  0  0  0
    9.3973  -14.5593   24.2685 O   0  0  0  0  0  0  0  0  0  0  0  0
    7.6814  -14.0642   25.6634 N   0  0  0  0  0  0  0  0  0  0  0  0
    6.3210  -13.9640   26.1467 C   0  0  0  0  0  0  0  0  0  0  0  0
    6.3533  -12.9131   27.2511 C   0  0  0  0  0  0  0  0  0  0  0  0
    7.7516  -12.3862   27.1924 C   0  0  0  0  0  0  0  0  0  0  0  0
    8.5405  -13.6460   26.8030 C   0  0  1  0  0  0  0  0  0  0  0  0
    8.4467  -14.5897   27.9209 C   0  0  0  0  0  0  0  0  0  0  0  0
    9.1105  -14.3631   28.9436 O   0  0  0  0  0  0  0  0  0  0  0  0
    7.6552  -15.7319   27.9093 O   0  0  0  0  0  0  0  0  0  0  0  0
  2  1  1  1
  2  4  1  0
  3  2  1  0
  4  5  1  6
  6  7  2  0
  6  4  1  0
  9  8  1  6
  9 11  1  0
 10  9  1  0
 11 12  1  6
 11 13  1  0
 12  6  1  0
 13 15  1  0
 14 13  2  0
 15 19  1  0
 15 16  1  0
 16 17  1  0
 18 17  1  0
 19 18  1  0
 19 20  1  1
 20 22  1  0
 21 20  2  0
M  END
$$$$
