TTP.pdb
     RDKit          3D

 22 22  0  0  1  0  0  0  0  0999 V2000
   10.9949  -19.6536   20.6090 C   0  0  0  0  0  0  0  0  0  0  0  0
   10.6227  -18.4703   21.4795 C   0  0  1  0  0  0  0  0  0  0  0  0
   11.5608  -18.2977   22.4812 O   0  0  0  0  0  0  0  0  0  0  0  0
   10.5720  -17.2465   20.5567 C   0  0  2  0  0  0  0  0  0  0  0  0
   11.8849  -17.1088   19.9727 N   0  0  0  0  0  0  0  0  0  0  0  0
   10.2003  -16.0390   21.3377 C   0  0  0  0  0  0  0  0  0  0  0  0
   11.0962  -15.2900   21.7813 O   0  0  0  0  0  0  0  0  0  0  0  0
    6.9924  -13.7209   20.5766 C   0  0  0  0  0  0  0  0  0  0  0  0
    7.0317  -14.3009   21.9453 C   0  0  1  0  0  0  0  0  0  0  0  0
    6.4225  -15.5846   21.8380 O   0  0  0  0  0  0  0  0  0  0  0  0
    8.4476  -14.5934   22.4665 C   0  0  2  0  0  0  0  0  0  0  0  0
    8.8623  -15.7171   21.5907 N   0  0  0  0  0  0  0  0  0  0  0  0
    8.4721  -15.0082   23.8647 C   0  0  0  0  0  0  0  0  0  0  0  0
    9.1350  -16.0917   24.1018 O   0  0  0  0  0  0  0  0  0  0  0  0
    7.8960  -14.4161   24.9921 N   0  0  0  0  0  0  0  0  0  0  0  0
    7.0350  -13.2543   25.0475 C   0  0  0  0  0  0  0  0  0  0  0  0
    7.2701  -12.6334   26.4202 C   0  0  0  0  0  0  0  0  0  0  0  0
    8.3932  -13.4442   26.9837 C   0  0  0  0  0  0  0  0  0  0  0  0
    8.0904  -14.8353   26.4056 C   0  0  1  0  0  0  0  0  0  0  0  0
    6.8361  -15.3000   27.0054 C   0  0  0  0  0  0  0  0  0  0  0  0
    6.8506  -15.6835   28.1847 O   0  0  0  0  0  0  0  0  0  0  0  0
    5.6208  -15.3392   26.3326 O   0  0  0  0  0  0  0  0  0  0  0  0
  2  1  1  6
  2  4  1  0
  3  2  1  0
  4  5  1  1
  6  7  2  0
  6  4  1  0
  9  8  1  6
  9 11  1  0
 10  9  1  0
 11 12  1  6
 11 13  1  0
 12  6  1  0
 13 15  1  0
 14 13  2  0
 15 19  1  0
 15 16  1  0
 16 17  1  0
 18 17  1  0
 19 18  1  0
 19 20  1  1
 20 22  1  0
 21 20  2  0
M  END
$$$$
