TTP.pdb
     RDKit          3D

 22 22  0  0  1  0  0  0  0  0999 V2000
   10.2158  -12.5494   20.6953 C   0  0  0  0  0  0  0  0  0  0  0  0
    9.5931  -12.8590   19.3488 C   0  0  1  0  0  0  0  0  0  0  0  0
   10.5453  -12.7748   18.3491 O   0  0  0  0  0  0  0  0  0  0  0  0
    9.0221  -14.2789   19.4464 C   0  0  2  0  0  0  0  0  0  0  0  0
    8.3937  -14.5647   18.1787 N   0  0  0  0  0  0  0  0  0  0  0  0
    8.0444  -14.3556   20.5619 C   0  0  0  0  0  0  0  0  0  0  0  0
    6.9183  -13.8302   20.4338 O   0  0  0  0  0  0  0  0  0  0  0  0
    6.0964  -16.8106   21.8217 C   0  0  0  0  0  0  0  0  0  0  0  0
    6.9611  -16.4437   22.9744 C   0  0  1  0  0  0  0  0  0  0  0  0
    8.1413  -17.2303   22.8372 O   0  0  0  0  0  0  0  0  0  0  0  0
    7.4655  -14.9921   22.9484 C   0  0  2  0  0  0  0  0  0  0  0  0
    8.3553  -15.0061   21.7610 N   0  0  0  0  0  0  0  0  0  0  0  0
    8.2210  -14.6238   24.1405 C   0  0  0  0  0  0  0  0  0  0  0  0
    9.5049  -14.7095   24.0220 O   0  0  0  0  0  0  0  0  0  0  0  0
    7.7767  -14.1868   25.3915 N   0  0  0  0  0  0  0  0  0  0  0  0
    6.4208  -13.8947   25.8042 C   0  0  0  0  0  0  0  0  0  0  0  0
    6.5426  -12.8450   26.9035 C   0  0  0  0  0  0  0  0  0  0  0  0
    8.0013  -12.5161   26.9135 C   0  0  0  0  0  0  0  0  0  0  0  0
    8.6274  -13.8770   26.5713 C   0  0  1  0  0  0  0  0  0  0  0  0
    8.3487  -14.7852   27.6878 C   0  0  0  0  0  0  0  0  0  0  0  0
    7.4092  -15.5872   27.5776 O   0  0  0  0  0  0  0  0  0  0  0  0
    9.0751  -14.8063   28.8722 O   0  0  0  0  0  0  0  0  0  0  0  0
  2  1  1  1
  2  4  1  0
  3  2  1  0
  4  5  1  6
  6  7  2  0
  6  4  1  0
  9  8  1  6
  9 11  1  0
 10  9  1  0
 11 12  1  6
 11 13  1  0
 12  6  1  0
 13 15  1  0
 14 13  2  0
 15 19  1  0
 15 16  1  0
 16 17  1  0
 18 17  1  0
 19 18  1  0
 19 20  1  1
 20 22  1  0
 21 20  2  0
M  END
$$$$
