TTP.pdb
     RDKit          3D

 22 22  0  0  1  0  0  0  0  0999 V2000
    6.5568  -20.3001   24.0011 C   0  0  0  0  0  0  0  0  0  0  0  0
    7.3188  -18.9907   24.0386 C   0  0  1  0  0  0  0  0  0  0  0  0
    8.4618  -19.1225   24.8061 O   0  0  0  0  0  0  0  0  0  0  0  0
    7.6686  -18.6457   22.5858 C   0  0  2  0  0  0  0  0  0  0  0  0
    8.4926  -19.7210   22.0877 N   0  0  0  0  0  0  0  0  0  0  0  0
    8.3876  -17.3471   22.5332 C   0  0  0  0  0  0  0  0  0  0  0  0
    9.6236  -17.3319   22.3533 O   0  0  0  0  0  0  0  0  0  0  0  0
    7.1150  -13.8268   20.7501 C   0  0  0  0  0  0  0  0  0  0  0  0
    7.2798  -13.8753   22.2272 C   0  0  1  0  0  0  0  0  0  0  0  0
    6.0826  -14.4621   22.7299 O   0  0  0  0  0  0  0  0  0  0  0  0
    8.3961  -14.8162   22.7073 C   0  0  2  0  0  0  0  0  0  0  0  0
    7.7102  -16.1317   22.6810 N   0  0  0  0  0  0  0  0  0  0  0  0
    8.8607  -14.5165   24.0571 C   0  0  0  0  0  0  0  0  0  0  0  0
   10.1297  -14.6717   24.2453 O   0  0  0  0  0  0  0  0  0  0  0  0
    8.1514  -14.0821   25.1803 N   0  0  0  0  0  0  0  0  0  0  0  0
    6.7376  -13.7916   25.2847 C   0  0  0  0  0  0  0  0  0  0  0  0
    6.6132  -12.7439   26.3855 C   0  0  0  0  0  0  0  0  0  0  0  0
    8.0336  -12.4140   26.7171 C   0  0  0  0  0  0  0  0  0  0  0  0
    8.7211  -13.7739   26.5189 C   0  0  1  0  0  0  0  0  0  0  0  0
    8.2043  -14.6844   27.5451 C   0  0  0  0  0  0  0  0  0  0  0  0
    8.6146  -14.5585   28.7086 O   0  0  0  0  0  0  0  0  0  0  0  0
    7.2762  -15.6885   27.2970 O   0  0  0  0  0  0  0  0  0  0  0  0
  2  1  1  6
  2  4  1  0
  3  2  1  0
  4  5  1  1
  6  7  2  0
  6  4  1  0
  9  8  1  6
  9 11  1  0
 10  9  1  0
 11 12  1  1
 11 13  1  0
 12  6  1  0
 13 15  1  0
 14 13  2  0
 15 19  1  0
 15 16  1  0
 16 17  1  0
 18 17  1  0
 19 18  1  0
 19 20  1  1
 20 22  1  0
 21 20  2  0
M  END
$$$$
