TTP.pdb
     RDKit          3D

 22 22  0  0  1  0  0  0  0  0999 V2000
   12.2441  -15.9645   21.4048 C   0  0  0  0  0  0  0  0  0  0  0  0
   12.4410  -15.1418   20.1474 C   0  0  1  0  0  0  0  0  0  0  0  0
   13.4310  -15.7000   19.3590 O   0  0  0  0  0  0  0  0  0  0  0  0
   11.0939  -15.1327   19.4144 C   0  0  2  0  0  0  0  0  0  0  0  0
   11.3215  -14.5159   18.1294 N   0  0  0  0  0  0  0  0  0  0  0  0
   10.0921  -14.3742   20.2064 C   0  0  0  0  0  0  0  0  0  0  0  0
    9.5602  -13.3555   19.7168 O   0  0  0  0  0  0  0  0  0  0  0  0
    7.7298  -13.5910   19.9609 C   0  0  0  0  0  0  0  0  0  0  0  0
    7.4631  -14.2153   21.2839 C   0  0  1  0  0  0  0  0  0  0  0  0
    7.3161  -15.6097   21.0300 O   0  0  0  0  0  0  0  0  0  0  0  0
    8.6382  -14.1295   22.2708 C   0  0  2  0  0  0  0  0  0  0  0  0
    9.7267  -14.7750   21.4962 N   0  0  0  0  0  0  0  0  0  0  0  0
    8.4018  -14.8582   23.5121 C   0  0  0  0  0  0  0  0  0  0  0  0
    9.0393  -15.9772   23.6187 O   0  0  0  0  0  0  0  0  0  0  0  0
    7.5981  -14.5358   24.6091 N   0  0  0  0  0  0  0  0  0  0  0  0
    6.4939  -13.6018   24.6617 C   0  0  0  0  0  0  0  0  0  0  0  0
    6.4453  -13.1033   26.1019 C   0  0  0  0  0  0  0  0  0  0  0  0
    7.6627  -13.7096   26.7237 C   0  0  0  0  0  0  0  0  0  0  0  0
    7.7431  -15.0592   25.9935 C   0  0  1  0  0  0  0  0  0  0  0  0
    6.5749  -15.8491   26.3941 C   0  0  0  0  0  0  0  0  0  0  0  0
    5.6040  -15.9016   25.6243 O   0  0  0  0  0  0  0  0  0  0  0  0
    6.4836  -16.5490   27.5911 O   0  0  0  0  0  0  0  0  0  0  0  0
  2  1  1  1
  2  4  1  0
  3  2  1  0
  4  5  1  6
  6  7  2  0
  6  4  1  0
  9  8  1  6
  9 11  1  0
 10  9  1  0
 11 12  1  6
 11 13  1  0
 12  6  1  0
 13 15  1  0
 14 13  2  0
 15 19  1  0
 15 16  1  0
 16 17  1  0
 18 17  1  0
 19 18  1  0
 19 20  1  1
 20 22  1  0
 21 20  2  0
M  END
$$$$
