TTP.pdb
     RDKit          3D

 22 22  0  0  1  0  0  0  0  0999 V2000
   11.4963  -14.2055   20.8795 C   0  0  0  0  0  0  0  0  0  0  0  0
   10.9870  -13.4226   19.6861 C   0  0  1  0  0  0  0  0  0  0  0  0
   11.8578  -13.5534   18.6194 O   0  0  0  0  0  0  0  0  0  0  0  0
    9.6067  -13.9960   19.3428 C   0  0  2  0  0  0  0  0  0  0  0  0
    9.1433  -13.2954   18.1689 N   0  0  0  0  0  0  0  0  0  0  0  0
    8.6796  -13.8025   20.4869 C   0  0  0  0  0  0  0  0  0  0  0  0
    8.0910  -12.7097   20.6273 O   0  0  0  0  0  0  0  0  0  0  0  0
    5.6688  -15.7190   21.4551 C   0  0  0  0  0  0  0  0  0  0  0  0
    6.6624  -15.8208   22.5567 C   0  0  1  0  0  0  0  0  0  0  0  0
    7.4925  -16.9308   22.2262 O   0  0  0  0  0  0  0  0  0  0  0  0
    7.6325  -14.6320   22.6436 C   0  0  2  0  0  0  0  0  0  0  0  0
    8.4473  -14.8208   21.4180 N   0  0  0  0  0  0  0  0  0  0  0  0
    8.4849  -14.6698   23.8267 C   0  0  0  0  0  0  0  0  0  0  0  0
    9.6833  -15.1080   23.6230 O   0  0  0  0  0  0  0  0  0  0  0  0
    8.2130  -14.3019   25.1473 N   0  0  0  0  0  0  0  0  0  0  0  0
    6.9795  -13.7745   25.6901 C   0  0  0  0  0  0  0  0  0  0  0  0
    7.3885  -12.9176   26.8833 C   0  0  0  0  0  0  0  0  0  0  0  0
    8.8825  -12.9170   26.8183 C   0  0  0  0  0  0  0  0  0  0  0  0
    9.1692  -14.3296   26.2859 C   0  0  1  0  0  0  0  0  0  0  0  0
    8.7499  -15.2842   27.3164 C   0  0  0  0  0  0  0  0  0  0  0  0
    7.6620  -15.8635   27.1786 O   0  0  0  0  0  0  0  0  0  0  0  0
    9.4985  -15.5849   28.4478 O   0  0  0  0  0  0  0  0  0  0  0  0
  2  1  1  1
  2  4  1  0
  3  2  1  0
  4  5  1  6
  6  7  2  0
  6  4  1  0
  9  8  1  6
  9 11  1  0
 10  9  1  0
 11 12  1  6
 11 13  1  0
 12  6  1  0
 13 15  1  0
 14 13  2  0
 15 19  1  0
 15 16  1  0
 16 17  1  0
 18 17  1  0
 19 18  1  0
 19 20  1  1
 20 22  1  0
 21 20  2  0
M  END
$$$$
