TTP.pdb
     RDKit          3D

 22 22  0  0  1  0  0  0  0  0999 V2000
   11.5332  -14.5429   18.4745 C   0  0  0  0  0  0  0  0  0  0  0  0
   10.8309  -14.3084   19.7968 C   0  0  1  0  0  0  0  0  0  0  0  0
   11.3454  -13.1864   20.4209 O   0  0  0  0  0  0  0  0  0  0  0  0
    9.3425  -14.1253   19.4758 C   0  0  2  0  0  0  0  0  0  0  0  0
    9.2386  -12.9661   18.6220 N   0  0  0  0  0  0  0  0  0  0  0  0
    8.5729  -13.9396   20.7325 C   0  0  0  0  0  0  0  0  0  0  0  0
    8.2213  -12.7918   21.0779 O   0  0  0  0  0  0  0  0  0  0  0  0
    5.5383  -16.0508   21.8182 C   0  0  0  0  0  0  0  0  0  0  0  0
    6.6090  -16.1011   22.8489 C   0  0  1  0  0  0  0  0  0  0  0  0
    7.4522  -17.1878   22.4766 O   0  0  0  0  0  0  0  0  0  0  0  0
    7.5410  -14.8791   22.8511 C   0  0  2  0  0  0  0  0  0  0  0  0
    8.2295  -15.0258   21.5450 N   0  0  0  0  0  0  0  0  0  0  0  0
    8.5129  -14.8983   23.9386 C   0  0  0  0  0  0  0  0  0  0  0  0
    9.6894  -15.3217   23.6126 O   0  0  0  0  0  0  0  0  0  0  0  0
    8.3756  -14.5259   25.2787 N   0  0  0  0  0  0  0  0  0  0  0  0
    7.1966  -14.0181   25.9467 C   0  0  0  0  0  0  0  0  0  0  0  0
    7.7130  -13.1449   27.0851 C   0  0  0  0  0  0  0  0  0  0  0  0
    9.1913  -13.1164   26.8618 C   0  0  0  0  0  0  0  0  0  0  0  0
    9.4476  -14.5272   26.3093 C   0  0  1  0  0  0  0  0  0  0  0  0
    9.1588  -15.4820   27.3835 C   0  0  0  0  0  0  0  0  0  0  0  0
    8.1171  -16.1514   27.3158 O   0  0  0  0  0  0  0  0  0  0  0  0
    9.9838  -15.6878   28.4827 O   0  0  0  0  0  0  0  0  0  0  0  0
  2  1  1  6
  2  4  1  0
  3  2  1  0
  4  5  1  6
  6  7  2  0
  6  4  1  0
  9  8  1  6
  9 11  1  0
 10  9  1  0
 11 12  1  6
 11 13  1  0
 12  6  1  0
 13 15  1  0
 14 13  2  0
 15 19  1  0
 15 16  1  0
 16 17  1  0
 18 17  1  0
 19 18  1  0
 19 20  1  1
 20 22  1  0
 21 20  2  0
M  END
$$$$
