TTP.pdb
     RDKit          3D

 22 22  0  0  1  0  0  0  0  0999 V2000
   11.8052  -14.8230   20.9215 C   0  0  0  0  0  0  0  0  0  0  0  0
   11.4743  -14.0209   19.6790 C   0  0  1  0  0  0  0  0  0  0  0  0
   12.3006  -14.3924   18.6339 O   0  0  0  0  0  0  0  0  0  0  0  0
   10.0052  -14.3112   19.3486 C   0  0  2  0  0  0  0  0  0  0  0  0
    9.7145  -13.6348   18.1070 N   0  0  0  0  0  0  0  0  0  0  0  0
    9.1332  -13.8207   20.4464 C   0  0  0  0  0  0  0  0  0  0  0  0
    8.9417  -12.5938   20.5822 O   0  0  0  0  0  0  0  0  0  0  0  0
    5.6930  -15.0406   20.9413 C   0  0  0  0  0  0  0  0  0  0  0  0
    6.4124  -15.2138   22.2311 C   0  0  1  0  0  0  0  0  0  0  0  0
    7.0011  -16.5102   22.1735 O   0  0  0  0  0  0  0  0  0  0  0  0
    7.6042  -14.2623   22.4220 C   0  0  2  0  0  0  0  0  0  0  0  0
    8.5164  -14.7047   21.3386 N   0  0  0  0  0  0  0  0  0  0  0  0
    8.2545  -14.4073   23.7196 C   0  0  0  0  0  0  0  0  0  0  0  0
    9.4449  -14.9084   23.6813 O   0  0  0  0  0  0  0  0  0  0  0  0
    7.7962  -14.0849   25.0000 N   0  0  0  0  0  0  0  0  0  0  0  0
    6.5000  -13.5646   25.3784 C   0  0  0  0  0  0  0  0  0  0  0  0
    6.7365  -12.7562   26.6495 C   0  0  0  0  0  0  0  0  0  0  0  0
    8.2241  -12.7693   26.8011 C   0  0  0  0  0  0  0  0  0  0  0  0
    8.5774  -14.1645   26.2628 C   0  0  1  0  0  0  0  0  0  0  0  0
    8.0082  -15.1515   27.1852 C   0  0  0  0  0  0  0  0  0  0  0  0
    6.9230  -15.6764   26.8941 O   0  0  0  0  0  0  0  0  0  0  0  0
    8.6107  -15.5408   28.3754 O   0  0  0  0  0  0  0  0  0  0  0  0
  2  1  1  1
  2  4  1  0
  3  2  1  0
  4  5  1  6
  6  7  2  0
  6  4  1  0
  9  8  1  6
  9 11  1  0
 10  9  1  0
 11 12  1  6
 11 13  1  0
 12  6  1  0
 13 15  1  0
 14 13  2  0
 15 19  1  0
 15 16  1  0
 16 17  1  0
 18 17  1  0
 19 18  1  0
 19 20  1  1
 20 22  1  0
 21 20  2  0
M  END
$$$$
