TTP.pdb
     RDKit          3D

 22 22  0  0  1  0  0  0  0  0999 V2000
    8.8378  -12.3616   19.7462 C   0  0  0  0  0  0  0  0  0  0  0  0
    8.5112  -13.4502   18.7438 C   0  0  1  0  0  0  0  0  0  0  0  0
    9.3407  -13.3519   17.6414 O   0  0  0  0  0  0  0  0  0  0  0  0
    8.7141  -14.7871   19.4674 C   0  0  2  0  0  0  0  0  0  0  0  0
    8.4219  -15.8283   18.5113 N   0  0  0  0  0  0  0  0  0  0  0  0
    7.8116  -14.8675   20.6443 C   0  0  0  0  0  0  0  0  0  0  0  0
    6.6276  -15.2349   20.4912 O   0  0  0  0  0  0  0  0  0  0  0  0
    6.1504  -16.4526   21.8619 C   0  0  0  0  0  0  0  0  0  0  0  0
    6.9566  -16.1199   23.0663 C   0  0  1  0  0  0  0  0  0  0  0  0
    8.1701  -16.8548   22.9334 O   0  0  0  0  0  0  0  0  0  0  0  0
    7.4061  -14.6520   23.1393 C   0  0  2  0  0  0  0  0  0  0  0  0
    8.2577  -14.5397   21.9294 N   0  0  0  0  0  0  0  0  0  0  0  0
    8.1850  -14.3473   24.3343 C   0  0  0  0  0  0  0  0  0  0  0  0
    9.4668  -14.3735   24.1726 O   0  0  0  0  0  0  0  0  0  0  0  0
    7.7648  -14.0255   25.6279 N   0  0  0  0  0  0  0  0  0  0  0  0
    6.4097  -13.9013   26.1203 C   0  0  0  0  0  0  0  0  0  0  0  0
    6.4801  -12.9029   27.2707 C   0  0  0  0  0  0  0  0  0  0  0  0
    7.8953  -12.4213   27.2304 C   0  0  0  0  0  0  0  0  0  0  0  0
    8.6402  -13.6882   26.7818 C   0  0  1  0  0  0  0  0  0  0  0  0
    8.5170  -14.6775   27.8566 C   0  0  0  0  0  0  0  0  0  0  0  0
    7.6576  -15.5650   27.7481 O   0  0  0  0  0  0  0  0  0  0  0  0
    9.3076  -14.6858   28.9994 O   0  0  0  0  0  0  0  0  0  0  0  0
  2  1  1  1
  2  4  1  0
  3  2  1  0
  4  5  1  6
  6  7  2  0
  6  4  1  0
  9  8  1  6
  9 11  1  0
 10  9  1  0
 11 12  1  6
 11 13  1  0
 12  6  1  0
 13 15  1  0
 14 13  2  0
 15 19  1  0
 15 16  1  0
 16 17  1  0
 18 17  1  0
 19 18  1  0
 19 20  1  1
 20 22  1  0
 21 20  2  0
M  END
$$$$
