TTP.pdb
     RDKit          3D

 22 22  0  0  1  0  0  0  0  0999 V2000
   12.3034  -17.4407   19.3900 C   0  0  0  0  0  0  0  0  0  0  0  0
   13.3720  -16.3971   19.1343 C   0  0  1  0  0  0  0  0  0  0  0  0
   14.3230  -16.8887   18.2585 O   0  0  0  0  0  0  0  0  0  0  0  0
   12.6584  -15.1754   18.5425 C   0  0  2  0  0  0  0  0  0  0  0  0
   13.6869  -14.2583   18.1128 N   0  0  0  0  0  0  0  0  0  0  0  0
   11.7792  -14.5572   19.5676 C   0  0  0  0  0  0  0  0  0  0  0  0
   12.2881  -13.9818   20.5525 O   0  0  0  0  0  0  0  0  0  0  0  0
    8.2894  -12.6833   18.7197 C   0  0  0  0  0  0  0  0  0  0  0  0
    8.1906  -13.8171   19.6767 C   0  0  1  0  0  0  0  0  0  0  0  0
    8.0485  -14.9870   18.8756 O   0  0  0  0  0  0  0  0  0  0  0  0
    9.4685  -14.0673   20.4930 C   0  0  2  0  0  0  0  0  0  0  0  0
   10.3851  -14.6035   19.4567 N   0  0  0  0  0  0  0  0  0  0  0  0
    9.2874  -15.0445   21.5607 C   0  0  0  0  0  0  0  0  0  0  0  0
   10.0156  -16.1071   21.4582 O   0  0  0  0  0  0  0  0  0  0  0  0
    8.4540  -15.0122   22.6822 N   0  0  0  0  0  0  0  0  0  0  0  0
    7.4632  -14.0159   23.0284 C   0  0  0  0  0  0  0  0  0  0  0  0
    7.3752  -14.0352   24.5506 C   0  0  0  0  0  0  0  0  0  0  0  0
    8.4703  -14.9706   24.9529 C   0  0  0  0  0  0  0  0  0  0  0  0
    8.4444  -15.9895   23.8030 C   0  0  1  0  0  0  0  0  0  0  0  0
    7.1691  -16.7085   23.8779 C   0  0  0  0  0  0  0  0  0  0  0  0
    7.0188  -17.5550   24.7717 O   0  0  0  0  0  0  0  0  0  0  0  0
    6.1080  -16.5015   23.0048 O   0  0  0  0  0  0  0  0  0  0  0  0
  2  1  1  6
  2  4  1  0
  3  2  1  0
  4  5  1  1
  6  7  2  0
  6  4  1  0
  9  8  1  6
  9 11  1  0
 10  9  1  0
 11 12  1  6
 11 13  1  0
 12  6  1  0
 13 15  1  0
 14 13  2  0
 15 19  1  0
 15 16  1  0
 16 17  1  0
 18 17  1  0
 19 18  1  0
 19 20  1  1
 20 22  1  0
 21 20  2  0
M  END
$$$$
