MFV.pdb
     RDKit          3D

 27 27  0  0  1  0  0  0  0  0999 V2000
   26.6331  -17.5090  -17.0366 C   0  0  0  0  0  0  0  0  0  0  0  0
   28.3926  -17.2972  -16.6634 S   0  0  0  0  0  0  0  0  0  0  0  0
   28.8497  -18.4810  -15.3801 C   0  0  0  0  0  0  0  0  0  0  0  0
   27.6161  -19.1441  -14.7838 C   0  0  0  0  0  0  0  0  0  0  0  0
   28.0620  -20.1166  -13.7172 C   0  0  2  0  0  0  0  0  0  0  0  0
   28.8859  -21.1711  -14.2408 N   0  0  0  0  0  0  0  0  0  0  0  0
   26.8897  -20.6923  -13.0176 C   0  0  0  0  0  0  0  0  0  0  0  0
   26.5628  -21.8831  -13.2953 O   0  0  0  0  0  0  0  0  0  0  0  0
   26.1484  -19.9386  -12.0613 N   0  0  0  0  0  0  0  0  0  0  0  0
   24.9838  -20.4966  -11.4259 C   0  0  1  0  0  0  0  0  0  0  0  0
   24.7131  -19.7864  -10.1385 C   0  0  0  0  0  0  0  0  0  0  0  0
   25.6686  -20.0481   -9.0633 C   0  0  0  0  0  0  0  0  0  0  0  0
   26.0359  -21.3437   -8.6995 C   0  0  0  0  0  0  0  0  0  0  0  0
   26.9254  -21.6078   -7.6870 C   0  0  0  0  0  0  0  0  0  0  0  0
   27.4728  -20.5608   -7.0087 C   0  0  0  0  0  0  0  0  0  0  0  0
   27.1272  -19.2838   -7.3482 C   0  0  0  0  0  0  0  0  0  0  0  0
   26.2281  -19.0020   -8.3707 C   0  0  0  0  0  0  0  0  0  0  0  0
   23.8430  -20.3659  -12.3861 C   0  0  0  0  0  0  0  0  0  0  0  0
   23.6869  -19.3609  -13.1243 O   0  0  0  0  0  0  0  0  0  0  0  0
   21.6202  -23.6900  -13.8784 C   0  0  0  0  0  0  0  0  0  0  0  0
   21.8099  -22.3210  -14.5362 C   0  0  2  0  0  0  0  0  0  0  0  0
   23.1595  -22.3686  -15.2227 C   0  0  0  0  0  0  0  0  0  0  0  0
   21.7952  -21.2791  -13.4496 C   0  0  2  0  0  0  0  0  0  0  0  0
   22.8576  -21.3945  -12.5140 N   0  0  0  0  0  0  0  0  0  0  0  0
   20.5039  -21.2315  -12.7328 C   0  0  0  0  0  0  0  0  0  0  0  0
   19.2996  -20.9168  -13.3395 O   0  0  0  0  0  0  0  0  0  0  0  0
   20.4900  -21.4888  -11.5090 O   0  0  0  0  0  0  0  0  0  0  0  0
  2  3  1  0
  2  1  1  0
  3  4  1  0
  4  5  1  0
  5  6  1  6
  7  5  1  0
  7  8  2  0
  9  7  1  0
 10  9  1  0
 10 11  1  1
 12 13  2  0
 12 11  1  0
 14 13  1  0
 15 14  2  0
 16 15  1  0
 16 17  2  0
 17 12  1  0
 18 10  1  0
 19 18  2  0
 21 20  1  1
 21 22  1  0
 23 21  1  0
 23 24  1  1
 24 18  1  0
 25 23  1  0
 26 25  1  0
 27 25  2  0
M  END
$$$$
