MFV.pdb
     RDKit          3D

 27 27  0  0  1  0  0  0  0  0999 V2000
   20.7432  -33.8759  -15.8543 C   0  0  0  0  0  0  0  0  0  0  0  0
   21.5332  -32.4772  -15.0178 S   0  0  0  0  0  0  0  0  0  0  0  0
   21.5589  -31.0745  -16.1532 C   0  0  0  0  0  0  0  0  0  0  0  0
   22.3438  -29.9102  -15.5658 C   0  0  0  0  0  0  0  0  0  0  0  0
   22.3838  -28.7954  -16.5845 C   0  0  2  0  0  0  0  0  0  0  0  0
   23.6893  -28.6186  -17.1588 N   0  0  0  0  0  0  0  0  0  0  0  0
   21.9220  -27.5239  -15.9802 C   0  0  0  0  0  0  0  0  0  0  0  0
   22.7864  -26.7884  -15.4201 O   0  0  0  0  0  0  0  0  0  0  0  0
   20.5520  -27.1325  -16.0238 N   0  0  0  0  0  0  0  0  0  0  0  0
   20.1212  -25.8914  -15.4361 C   0  0  1  0  0  0  0  0  0  0  0  0
   19.5447  -24.9993  -16.4883 C   0  0  0  0  0  0  0  0  0  0  0  0
   20.4006  -24.7629  -17.6498 C   0  0  0  0  0  0  0  0  0  0  0  0
   21.3762  -23.7659  -17.6588 C   0  0  0  0  0  0  0  0  0  0  0  0
   22.1831  -23.5248  -18.7436 C   0  0  0  0  0  0  0  0  0  0  0  0
   22.0247  -24.2913  -19.8587 C   0  0  0  0  0  0  0  0  0  0  0  0
   21.0754  -25.2732  -19.8719 C   0  0  0  0  0  0  0  0  0  0  0  0
   20.2518  -25.5280  -18.7810 C   0  0  0  0  0  0  0  0  0  0  0  0
   19.1192  -26.2219  -14.3743 C   0  0  0  0  0  0  0  0  0  0  0  0
   18.1481  -26.9944  -14.5721 O   0  0  0  0  0  0  0  0  0  0  0  0
   19.5087  -24.9790  -10.1993 C   0  0  0  0  0  0  0  0  0  0  0  0
   18.8328  -26.2560  -10.7045 C   0  0  2  0  0  0  0  0  0  0  0  0
   19.9251  -27.3018  -10.7940 C   0  0  0  0  0  0  0  0  0  0  0  0
   18.2523  -25.9664  -12.0631 C   0  0  2  0  0  0  0  0  0  0  0  0
   19.2183  -25.6662  -13.0602 N   0  0  0  0  0  0  0  0  0  0  0  0
   17.2307  -24.8993  -12.0229 C   0  0  0  0  0  0  0  0  0  0  0  0
   15.9685  -25.0644  -11.4779 O   0  0  0  0  0  0  0  0  0  0  0  0
   17.5149  -23.7815  -12.5065 O   0  0  0  0  0  0  0  0  0  0  0  0
  2  3  1  0
  2  1  1  0
  3  4  1  0
  4  5  1  0
  5  6  1  1
  7  5  1  0
  7  8  2  0
  9  7  1  0
 10  9  1  0
 10 11  1  6
 12 13  2  0
 12 11  1  0
 14 13  1  0
 15 14  2  0
 16 15  1  0
 16 17  2  0
 17 12  1  0
 18 10  1  0
 19 18  2  0
 21 20  1  6
 21 22  1  0
 23 21  1  0
 23 24  1  6
 24 18  1  0
 25 23  1  0
 26 25  1  0
 27 25  2  0
M  END
$$$$
