MFV.pdb
     RDKit          3D

 27 27  0  0  1  0  0  0  0  0999 V2000
   24.9511  -17.7267  -15.6698 C   0  0  0  0  0  0  0  0  0  0  0  0
   26.7290  -17.3854  -15.7210 S   0  0  0  0  0  0  0  0  0  0  0  0
   27.6007  -18.7940  -15.0047 C   0  0  0  0  0  0  0  0  0  0  0  0
   26.8941  -19.2950  -13.7530 C   0  0  0  0  0  0  0  0  0  0  0  0
   27.6900  -20.4439  -13.1797 C   0  0  2  0  0  0  0  0  0  0  0  0
   27.6613  -21.6093  -14.0201 N   0  0  0  0  0  0  0  0  0  0  0  0
   27.2014  -20.7875  -11.8238 C   0  0  0  0  0  0  0  0  0  0  0  0
   26.3917  -21.7543  -11.7156 O   0  0  0  0  0  0  0  0  0  0  0  0
   27.6241  -20.0602  -10.6730 N   0  0  0  0  0  0  0  0  0  0  0  0
   27.1244  -20.3948   -9.3654 C   0  0  1  0  0  0  0  0  0  0  0  0
   27.8926  -19.6536   -8.3186 C   0  0  0  0  0  0  0  0  0  0  0  0
   27.4870  -19.9147   -6.9385 C   0  0  0  0  0  0  0  0  0  0  0  0
   26.4722  -20.8188   -6.6243 C   0  0  0  0  0  0  0  0  0  0  0  0
   26.0731  -21.0701   -5.3345 C   0  0  0  0  0  0  0  0  0  0  0  0
   26.6940  -20.4088   -4.3181 C   0  0  0  0  0  0  0  0  0  0  0  0
   27.6902  -19.5189   -4.6027 C   0  0  0  0  0  0  0  0  0  0  0  0
   28.1041  -19.2549   -5.9036 C   0  0  0  0  0  0  0  0  0  0  0  0
   25.6685  -20.0484   -9.3394 C   0  0  0  0  0  0  0  0  0  0  0  0
   25.2496  -18.8650   -9.3969 O   0  0  0  0  0  0  0  0  0  0  0  0
   23.3634  -20.5615  -11.8688 C   0  0  0  0  0  0  0  0  0  0  0  0
   22.6921  -21.2832  -10.6977 C   0  0  2  0  0  0  0  0  0  0  0  0
   21.2179  -20.9461  -10.7863 C   0  0  0  0  0  0  0  0  0  0  0  0
   23.2900  -20.7518   -9.4222 C   0  0  2  0  0  0  0  0  0  0  0  0
   24.6647  -21.0630   -9.2464 N   0  0  0  0  0  0  0  0  0  0  0  0
   22.5285  -21.1696   -8.2267 C   0  0  0  0  0  0  0  0  0  0  0  0
   21.4075  -20.5048   -7.7589 O   0  0  0  0  0  0  0  0  0  0  0  0
   22.9120  -22.1797   -7.5968 O   0  0  0  0  0  0  0  0  0  0  0  0
  2  3  1  0
  2  1  1  0
  3  4  1  0
  4  5  1  0
  5  6  1  6
  7  5  1  0
  7  8  2  0
  9  7  1  0
 10  9  1  0
 10 11  1  1
 12 13  2  0
 12 11  1  0
 14 13  1  0
 15 14  2  0
 16 15  1  0
 16 17  2  0
 17 12  1  0
 18 10  1  0
 19 18  2  0
 21 20  1  6
 21 22  1  0
 23 21  1  0
 23 24  1  1
 24 18  1  0
 25 23  1  0
 26 25  1  0
 27 25  2  0
M  END
$$$$
