MFV.pdb
     RDKit          3D

 27 27  0  0  1  0  0  0  0  0999 V2000
   28.5916  -26.4258  -16.7132 C   0  0  0  0  0  0  0  0  0  0  0  0
   29.1421  -25.3169  -18.0351 S   0  0  0  0  0  0  0  0  0  0  0  0
   28.4569  -23.6763  -17.7253 C   0  0  0  0  0  0  0  0  0  0  0  0
   27.6817  -23.6462  -16.4156 C   0  0  0  0  0  0  0  0  0  0  0  0
   27.1345  -22.2527  -16.2135 C   0  0  2  0  0  0  0  0  0  0  0  0
   28.1568  -21.2443  -16.2695 N   0  0  0  0  0  0  0  0  0  0  0  0
   26.4073  -22.1630  -14.9257 C   0  0  0  0  0  0  0  0  0  0  0  0
   25.3601  -22.8607  -14.7894 O   0  0  0  0  0  0  0  0  0  0  0  0
   26.8642  -21.3224  -13.8690 N   0  0  0  0  0  0  0  0  0  0  0  0
   26.1450  -21.2464  -12.6246 C   0  0  1  0  0  0  0  0  0  0  0  0
   27.0044  -20.6198  -11.5739 C   0  0  0  0  0  0  0  0  0  0  0  0
   26.3786  -20.4615  -10.2621 C   0  0  0  0  0  0  0  0  0  0  0  0
   25.6333  -21.4814   -9.6703 C   0  0  0  0  0  0  0  0  0  0  0  0
   25.0320  -21.3469   -8.4430 C   0  0  0  0  0  0  0  0  0  0  0  0
   25.1686  -20.1678   -7.7743 C   0  0  0  0  0  0  0  0  0  0  0  0
   25.8939  -19.1555   -8.3352 C   0  0  0  0  0  0  0  0  0  0  0  0
   26.5078  -19.2779   -9.5767 C   0  0  0  0  0  0  0  0  0  0  0  0
   24.9002  -20.4533  -12.8736 C   0  0  0  0  0  0  0  0  0  0  0  0
   24.9190  -19.2300  -13.1603 O   0  0  0  0  0  0  0  0  0  0  0  0
   21.3100  -21.8802  -14.4083 C   0  0  0  0  0  0  0  0  0  0  0  0
   21.7262  -20.4163  -14.2459 C   0  0  2  0  0  0  0  0  0  0  0  0
   22.6730  -20.1195  -15.3906 C   0  0  0  0  0  0  0  0  0  0  0  0
   22.4252  -20.2780  -12.9197 C   0  0  2  0  0  0  0  0  0  0  0  0
   23.6062  -21.0575  -12.7967 N   0  0  0  0  0  0  0  0  0  0  0  0
   21.5271  -20.5522  -11.7787 C   0  0  0  0  0  0  0  0  0  0  0  0
   21.7050  -21.6047  -10.8966 O   0  0  0  0  0  0  0  0  0  0  0  0
   20.5490  -19.7952  -11.5928 O   0  0  0  0  0  0  0  0  0  0  0  0
  2  3  1  0
  2  1  1  0
  3  4  1  0
  4  5  1  0
  5  6  1  1
  7  5  1  0
  7  8  2  0
  9  7  1  0
 10  9  1  0
 10 11  1  1
 12 13  2  0
 12 11  1  0
 14 13  1  0
 15 14  2  0
 16 15  1  0
 16 17  2  0
 17 12  1  0
 18 10  1  0
 19 18  2  0
 21 20  1  6
 21 22  1  0
 23 21  1  0
 23 24  1  6
 24 18  1  0
 25 23  1  0
 26 25  1  0
 27 25  2  0
M  END
$$$$
