MFV.pdb
     RDKit          3D

 27 27  0  0  1  0  0  0  0  0999 V2000
   24.6616  -20.5500  -19.1472 C   0  0  0  0  0  0  0  0  0  0  0  0
   26.1410  -19.6274  -18.6572 S   0  0  0  0  0  0  0  0  0  0  0  0
   27.1250  -20.6690  -17.5599 C   0  0  0  0  0  0  0  0  0  0  0  0
   26.3284  -21.0683  -16.3258 C   0  0  0  0  0  0  0  0  0  0  0  0
   27.1705  -22.0067  -15.4937 C   0  0  2  0  0  0  0  0  0  0  0  0
   27.2619  -23.3216  -16.0663 N   0  0  0  0  0  0  0  0  0  0  0  0
   26.6398  -22.0935  -14.1131 C   0  0  0  0  0  0  0  0  0  0  0  0
   25.6873  -22.8984  -13.8963 O   0  0  0  0  0  0  0  0  0  0  0  0
   27.1777  -21.3016  -13.0569 N   0  0  0  0  0  0  0  0  0  0  0  0
   26.5240  -21.2394  -11.7761 C   0  0  1  0  0  0  0  0  0  0  0  0
   27.4258  -20.5970  -10.7715 C   0  0  0  0  0  0  0  0  0  0  0  0
   26.8118  -20.2916   -9.4803 C   0  0  0  0  0  0  0  0  0  0  0  0
   27.5440  -19.7531   -8.4221 C   0  0  0  0  0  0  0  0  0  0  0  0
   26.9853  -19.4678   -7.2004 C   0  0  0  0  0  0  0  0  0  0  0  0
   25.6599  -19.7213   -7.0131 C   0  0  0  0  0  0  0  0  0  0  0  0
   24.9239  -20.2487   -8.0356 C   0  0  0  0  0  0  0  0  0  0  0  0
   25.4765  -20.5423   -9.2772 C   0  0  0  0  0  0  0  0  0  0  0  0
   25.2532  -20.4697  -11.9582 C   0  0  0  0  0  0  0  0  0  0  0  0
   25.2312  -19.2271  -12.1444 O   0  0  0  0  0  0  0  0  0  0  0  0
   21.1804  -19.7856  -14.0526 C   0  0  0  0  0  0  0  0  0  0  0  0
   22.4605  -20.5812  -13.7856 C   0  0  2  0  0  0  0  0  0  0  0  0
   22.1385  -22.0215  -14.1274 C   0  0  0  0  0  0  0  0  0  0  0  0
   22.7991  -20.4372  -12.3257 C   0  0  2  0  0  0  0  0  0  0  0  0
   23.9797  -21.1200  -11.9289 N   0  0  0  0  0  0  0  0  0  0  0  0
   21.6781  -20.8296  -11.4465 C   0  0  0  0  0  0  0  0  0  0  0  0
   20.4333  -20.2235  -11.4720 O   0  0  0  0  0  0  0  0  0  0  0  0
   21.8561  -21.7607  -10.6308 O   0  0  0  0  0  0  0  0  0  0  0  0
  2  3  1  0
  2  1  1  0
  3  4  1  0
  4  5  1  0
  5  6  1  6
  7  5  1  0
  7  8  2  0
  9  7  1  0
 10  9  1  0
 10 11  1  1
 12 13  2  0
 12 11  1  0
 14 13  1  0
 15 14  2  0
 16 15  1  0
 16 17  2  0
 17 12  1  0
 18 10  1  0
 19 18  2  0
 21 20  1  1
 21 22  1  0
 23 21  1  0
 23 24  1  1
 24 18  1  0
 25 23  1  0
 26 25  1  0
 27 25  2  0
M  END
$$$$
