MFV.pdb
     RDKit          3D

 27 27  0  0  1  0  0  0  0  0999 V2000
   24.6027  -24.2137  -12.7726 C   0  0  0  0  0  0  0  0  0  0  0  0
   23.4917  -24.6156  -14.1452 S   0  0  0  0  0  0  0  0  0  0  0  0
   21.8820  -23.8705  -13.8127 C   0  0  0  0  0  0  0  0  0  0  0  0
   21.8059  -22.4590  -14.3775 C   0  0  0  0  0  0  0  0  0  0  0  0
   22.1592  -21.4830  -13.2800 C   0  0  2  0  0  0  0  0  0  0  0  0
   21.0362  -21.1635  -12.4423 N   0  0  0  0  0  0  0  0  0  0  0  0
   22.7298  -20.2418  -13.8538 C   0  0  0  0  0  0  0  0  0  0  0  0
   21.9284  -19.3136  -14.1670 O   0  0  0  0  0  0  0  0  0  0  0  0
   24.1334  -20.0881  -14.0497 N   0  0  0  0  0  0  0  0  0  0  0  0
   24.6642  -18.9100  -14.6834 C   0  0  1  0  0  0  0  0  0  0  0  0
   26.0748  -18.6830  -14.2430 C   0  0  0  0  0  0  0  0  0  0  0  0
   26.7810  -17.6019  -14.9285 C   0  0  0  0  0  0  0  0  0  0  0  0
   27.7263  -17.8504  -15.9238 C   0  0  0  0  0  0  0  0  0  0  0  0
   28.4047  -16.8476  -16.5721 C   0  0  0  0  0  0  0  0  0  0  0  0
   28.1441  -15.5551  -16.2293 C   0  0  0  0  0  0  0  0  0  0  0  0
   27.2224  -15.2888  -15.2572 C   0  0  0  0  0  0  0  0  0  0  0  0
   26.5285  -16.2940  -14.5929 C   0  0  0  0  0  0  0  0  0  0  0  0
   24.5676  -19.1143  -16.1631 C   0  0  0  0  0  0  0  0  0  0  0  0
   24.8919  -20.1912  -16.7237 O   0  0  0  0  0  0  0  0  0  0  0  0
   22.1142  -16.7161  -18.6339 C   0  0  0  0  0  0  0  0  0  0  0  0
   22.6030  -18.1242  -18.9820 C   0  0  2  0  0  0  0  0  0  0  0  0
   21.6413  -19.0810  -18.3077 C   0  0  0  0  0  0  0  0  0  0  0  0
   23.9946  -18.2812  -18.4294 C   0  0  2  0  0  0  0  0  0  0  0  0
   24.0936  -18.0779  -17.0271 N   0  0  0  0  0  0  0  0  0  0  0  0
   24.9770  -17.4255  -19.1268 C   0  0  0  0  0  0  0  0  0  0  0  0
   25.5030  -16.2634  -18.5878 O   0  0  0  0  0  0  0  0  0  0  0  0
   25.3598  -17.7635  -20.2684 O   0  0  0  0  0  0  0  0  0  0  0  0
  2  3  1  0
  2  1  1  0
  3  4  1  0
  4  5  1  0
  5  6  1  6
  7  5  1  0
  7  8  2  0
  9  7  1  0
 10  9  1  0
 10 11  1  6
 12 13  2  0
 12 11  1  0
 14 13  1  0
 15 14  2  0
 16 15  1  0
 16 17  2  0
 17 12  1  0
 18 10  1  0
 19 18  2  0
 21 20  1  1
 21 22  1  0
 23 21  1  0
 23 24  1  1
 24 18  1  0
 25 23  1  0
 26 25  1  0
 27 25  2  0
M  END
$$$$
