MFV.pdb
     RDKit          3D

 27 27  0  0  1  0  0  0  0  0999 V2000
   26.3098  -16.5802  -15.8859 C   0  0  0  0  0  0  0  0  0  0  0  0
   28.1192  -16.5019  -15.8787 S   0  0  0  0  0  0  0  0  0  0  0  0
   28.7480  -17.9324  -14.9756 C   0  0  0  0  0  0  0  0  0  0  0  0
   27.6078  -18.7543  -14.3913 C   0  0  0  0  0  0  0  0  0  0  0  0
   28.1956  -19.8400  -13.5208 C   0  0  2  0  0  0  0  0  0  0  0  0
   28.9954  -20.7729  -14.2659 N   0  0  0  0  0  0  0  0  0  0  0  0
   27.1231  -20.5611  -12.7961 C   0  0  0  0  0  0  0  0  0  0  0  0
   26.7324  -21.6681  -13.2691 O   0  0  0  0  0  0  0  0  0  0  0  0
   26.5447  -20.0343  -11.6045 N   0  0  0  0  0  0  0  0  0  0  0  0
   25.4846  -20.7344  -10.9282 C   0  0  1  0  0  0  0  0  0  0  0  0
   25.4056  -20.2905   -9.5027 C   0  0  0  0  0  0  0  0  0  0  0  0
   26.6349  -20.4462   -8.7269 C   0  0  0  0  0  0  0  0  0  0  0  0
   26.9510  -19.5997   -7.6642 C   0  0  0  0  0  0  0  0  0  0  0  0
   28.1048  -19.7265   -6.9302 C   0  0  0  0  0  0  0  0  0  0  0  0
   28.9783  -20.7209   -7.2530 C   0  0  0  0  0  0  0  0  0  0  0  0
   28.6890  -21.5613   -8.2899 C   0  0  0  0  0  0  0  0  0  0  0  0
   27.5249  -21.4443   -9.0413 C   0  0  0  0  0  0  0  0  0  0  0  0
   24.2160  -20.4536  -11.6713 C   0  0  0  0  0  0  0  0  0  0  0  0
   23.9258  -19.3146  -12.1157 O   0  0  0  0  0  0  0  0  0  0  0  0
   21.4818  -22.2317  -15.1452 C   0  0  0  0  0  0  0  0  0  0  0  0
   22.5684  -22.4214  -14.0840 C   0  0  2  0  0  0  0  0  0  0  0  0
   22.3851  -23.8241  -13.5417 C   0  0  0  0  0  0  0  0  0  0  0  0
   22.3470  -21.3943  -13.0057 C   0  0  2  0  0  0  0  0  0  0  0  0
   23.2550  -21.4839  -11.9171 N   0  0  0  0  0  0  0  0  0  0  0  0
   20.9593  -21.4014  -12.4980 C   0  0  0  0  0  0  0  0  0  0  0  0
   20.6197  -21.7236  -11.1948 O   0  0  0  0  0  0  0  0  0  0  0  0
   20.0340  -21.1003  -13.2837 O   0  0  0  0  0  0  0  0  0  0  0  0
  2  3  1  0
  2  1  1  0
  3  4  1  0
  4  5  1  0
  5  6  1  6
  7  5  1  0
  7  8  2  0
  9  7  1  0
 10  9  1  0
 10 11  1  1
 12 13  2  0
 12 11  1  0
 14 13  1  0
 15 14  2  0
 16 15  1  0
 16 17  2  0
 17 12  1  0
 18 10  1  0
 19 18  2  0
 21 20  1  6
 21 22  1  0
 23 21  1  0
 23 24  1  1
 24 18  1  0
 25 23  1  0
 26 25  1  0
 27 25  2  0
M  END
$$$$
