MFV.pdb
     RDKit          3D

 27 27  0  0  1  0  0  0  0  0999 V2000
   22.2523  -18.9861  -12.8903 C   0  0  0  0  0  0  0  0  0  0  0  0
   22.9880  -19.6573  -14.4031 S   0  0  0  0  0  0  0  0  0  0  0  0
   24.6815  -20.1629  -14.0377 C   0  0  0  0  0  0  0  0  0  0  0  0
   24.8093  -20.6463  -12.6000 C   0  0  0  0  0  0  0  0  0  0  0  0
   26.2732  -20.8585  -12.2932 C   0  0  2  0  0  0  0  0  0  0  0  0
   26.8511  -21.9227  -13.0669 N   0  0  0  0  0  0  0  0  0  0  0  0
   26.4672  -21.1224  -10.8482 C   0  0  0  0  0  0  0  0  0  0  0  0
   26.1016  -22.2480  -10.3995 O   0  0  0  0  0  0  0  0  0  0  0  0
   27.0462  -20.1480   -9.9839 N   0  0  0  0  0  0  0  0  0  0  0  0
   27.1598  -20.3917   -8.5700 C   0  0  1  0  0  0  0  0  0  0  0  0
   28.1282  -19.4293   -7.9606 C   0  0  0  0  0  0  0  0  0  0  0  0
   28.2922  -19.5355   -6.5117 C   0  0  0  0  0  0  0  0  0  0  0  0
   28.8855  -20.6476   -5.9142 C   0  0  0  0  0  0  0  0  0  0  0  0
   29.0402  -20.7675   -4.5548 C   0  0  0  0  0  0  0  0  0  0  0  0
   28.5957  -19.7579   -3.7553 C   0  0  0  0  0  0  0  0  0  0  0  0
   28.0115  -18.6597   -4.3191 C   0  0  0  0  0  0  0  0  0  0  0  0
   27.8485  -18.5253   -5.6933 C   0  0  0  0  0  0  0  0  0  0  0  0
   25.7910  -20.2551   -7.9799 C   0  0  0  0  0  0  0  0  0  0  0  0
   25.0032  -19.3287   -8.2962 O   0  0  0  0  0  0  0  0  0  0  0  0
   21.8657  -21.0982   -7.6571 C   0  0  0  0  0  0  0  0  0  0  0  0
   22.9716  -21.9670   -7.0527 C   0  0  2  0  0  0  0  0  0  0  0  0
   22.3068  -22.8085   -5.9828 C   0  0  0  0  0  0  0  0  0  0  0  0
   24.0043  -21.0506   -6.4524 C   0  0  2  0  0  0  0  0  0  0  0  0
   25.3031  -21.1871   -7.0109 N   0  0  0  0  0  0  0  0  0  0  0  0
   24.0797  -21.1742   -4.9817 C   0  0  0  0  0  0  0  0  0  0  0  0
   25.2204  -21.5652   -4.3012 O   0  0  0  0  0  0  0  0  0  0  0  0
   23.0596  -20.9125   -4.3071 O   0  0  0  0  0  0  0  0  0  0  0  0
  2  3  1  0
  2  1  1  0
  3  4  1  0
  4  5  1  0
  5  6  1  6
  7  5  1  0
  7  8  2  0
  9  7  1  0
 10  9  1  0
 10 11  1  1
 12 13  2  0
 12 11  1  0
 14 13  1  0
 15 14  2  0
 16 15  1  0
 16 17  2  0
 17 12  1  0
 18 10  1  0
 19 18  2  0
 21 20  1  1
 21 22  1  0
 23 21  1  0
 23 24  1  6
 24 18  1  0
 25 23  1  0
 26 25  1  0
 27 25  2  0
M  END
$$$$
