MFV.pdb
     RDKit          3D

 27 27  0  0  1  0  0  0  0  0999 V2000
   24.6146  -22.0656  -20.4627 C   0  0  0  0  0  0  0  0  0  0  0  0
   25.8203  -20.7151  -20.4128 S   0  0  0  0  0  0  0  0  0  0  0  0
   27.0404  -21.0870  -19.1360 C   0  0  0  0  0  0  0  0  0  0  0  0
   26.3720  -21.6435  -17.8868 C   0  0  0  0  0  0  0  0  0  0  0  0
   27.4319  -21.8651  -16.8334 C   0  0  2  0  0  0  0  0  0  0  0  0
   28.2497  -23.0149  -17.1060 N   0  0  0  0  0  0  0  0  0  0  0  0
   26.8125  -21.9928  -15.4935 C   0  0  0  0  0  0  0  0  0  0  0  0
   26.1716  -23.0540  -15.2382 O   0  0  0  0  0  0  0  0  0  0  0  0
   26.9294  -20.9608  -14.5171 N   0  0  0  0  0  0  0  0  0  0  0  0
   26.3144  -21.0976  -13.2231 C   0  0  1  0  0  0  0  0  0  0  0  0
   27.1638  -20.4439  -12.1807 C   0  0  0  0  0  0  0  0  0  0  0  0
   26.6081  -20.4409  -10.8284 C   0  0  0  0  0  0  0  0  0  0  0  0
   26.0773  -19.2881  -10.2496 C   0  0  0  0  0  0  0  0  0  0  0  0
   25.5589  -19.2655   -8.9780 C   0  0  0  0  0  0  0  0  0  0  0  0
   25.5628  -20.4172   -8.2504 C   0  0  0  0  0  0  0  0  0  0  0  0
   26.0778  -21.5578   -8.7974 C   0  0  0  0  0  0  0  0  0  0  0  0
   26.6058  -21.5949  -10.0832 C   0  0  0  0  0  0  0  0  0  0  0  0
   24.9547  -20.4772  -13.3048 C   0  0  0  0  0  0  0  0  0  0  0  0
   24.7659  -19.3033  -13.7116 O   0  0  0  0  0  0  0  0  0  0  0  0
   21.3186  -22.5823  -13.7434 C   0  0  0  0  0  0  0  0  0  0  0  0
   21.5875  -21.1011  -14.0201 C   0  0  2  0  0  0  0  0  0  0  0  0
   22.2624  -21.0430  -15.3751 C   0  0  0  0  0  0  0  0  0  0  0  0
   22.5024  -20.5870  -12.9406 C   0  0  2  0  0  0  0  0  0  0  0  0
   23.7832  -21.2006  -12.9179 N   0  0  0  0  0  0  0  0  0  0  0  0
   21.8892  -20.6657  -11.5984 C   0  0  0  0  0  0  0  0  0  0  0  0
   20.8054  -19.8999  -11.2028 O   0  0  0  0  0  0  0  0  0  0  0  0
   22.3708  -21.4668  -10.7675 O   0  0  0  0  0  0  0  0  0  0  0  0
  2  3  1  0
  2  1  1  0
  3  4  1  0
  4  5  1  0
  5  6  1  6
  7  5  1  0
  7  8  2  0
  9  7  1  0
 10  9  1  0
 10 11  1  1
 12 13  2  0
 12 11  1  0
 14 13  1  0
 15 14  2  0
 16 15  1  0
 16 17  2  0
 17 12  1  0
 18 10  1  0
 19 18  2  0
 21 20  1  1
 21 22  1  0
 23 21  1  0
 23 24  1  1
 24 18  1  0
 25 23  1  0
 26 25  1  0
 27 25  2  0
M  END
$$$$
