MFV.pdb
     RDKit          3D

 27 27  0  0  1  0  0  0  0  0999 V2000
   25.4078  -19.1508  -19.0290 C   0  0  0  0  0  0  0  0  0  0  0  0
   27.1252  -19.4055  -19.5447 S   0  0  0  0  0  0  0  0  0  0  0  0
   27.9243  -20.4942  -18.3476 C   0  0  0  0  0  0  0  0  0  0  0  0
   27.0225  -20.7416  -17.1466 C   0  0  0  0  0  0  0  0  0  0  0  0
   27.7547  -21.6339  -16.1720 C   0  0  2  0  0  0  0  0  0  0  0  0
   28.0457  -22.9297  -16.7210 N   0  0  0  0  0  0  0  0  0  0  0  0
   26.9784  -21.7798  -14.9185 C   0  0  0  0  0  0  0  0  0  0  0  0
   26.0014  -22.5845  -14.9196 O   0  0  0  0  0  0  0  0  0  0  0  0
   27.3131  -21.0435  -13.7447 N   0  0  0  0  0  0  0  0  0  0  0  0
   26.5315  -21.1764  -12.5436 C   0  0  1  0  0  0  0  0  0  0  0  0
   27.3041  -20.6644  -11.3705 C   0  0  0  0  0  0  0  0  0  0  0  0
   26.5683  -20.6108  -10.1083 C   0  0  0  0  0  0  0  0  0  0  0  0
   27.0409  -19.8978   -9.0064 C   0  0  0  0  0  0  0  0  0  0  0  0
   26.3669  -19.8435   -7.8111 C   0  0  0  0  0  0  0  0  0  0  0  0
   25.1867  -20.5140   -7.6956 C   0  0  0  0  0  0  0  0  0  0  0  0
   24.7052  -21.2187   -8.7619 C   0  0  0  0  0  0  0  0  0  0  0  0
   25.3770  -21.2823   -9.9775 C   0  0  0  0  0  0  0  0  0  0  0  0
   25.2595  -20.4148  -12.7496 C   0  0  0  0  0  0  0  0  0  0  0  0
   25.2362  -19.1813  -12.9884 O   0  0  0  0  0  0  0  0  0  0  0  0
   21.0183  -19.7531  -14.5822 C   0  0  0  0  0  0  0  0  0  0  0  0
   22.3177  -20.5444  -14.4142 C   0  0  2  0  0  0  0  0  0  0  0  0
   21.9654  -21.9925  -14.6859 C   0  0  0  0  0  0  0  0  0  0  0  0
   22.7907  -20.3625  -12.9965 C   0  0  2  0  0  0  0  0  0  0  0  0
   23.9862  -21.0629  -12.6841 N   0  0  0  0  0  0  0  0  0  0  0  0
   21.7453  -20.6967  -12.0070 C   0  0  0  0  0  0  0  0  0  0  0  0
   20.5998  -19.9427  -11.8153 O   0  0  0  0  0  0  0  0  0  0  0  0
   21.8967  -21.7166  -11.2992 O   0  0  0  0  0  0  0  0  0  0  0  0
  2  3  1  0
  2  1  1  0
  3  4  1  0
  4  5  1  0
  5  6  1  6
  7  5  1  0
  7  8  2  0
  9  7  1  0
 10  9  1  0
 10 11  1  1
 12 13  2  0
 12 11  1  0
 14 13  1  0
 15 14  2  0
 16 15  1  0
 16 17  2  0
 17 12  1  0
 18 10  1  0
 19 18  2  0
 21 20  1  1
 21 22  1  0
 23 21  1  0
 23 24  1  1
 24 18  1  0
 25 23  1  0
 26 25  1  0
 27 25  2  0
M  END
$$$$
