MFV.pdb
     RDKit          3D

 27 27  0  0  1  0  0  0  0  0999 V2000
   24.4890  -19.3383  -19.5340 C   0  0  0  0  0  0  0  0  0  0  0  0
   26.2427  -18.9127  -19.6877 S   0  0  0  0  0  0  0  0  0  0  0  0
   27.2004  -20.0732  -18.6910 C   0  0  0  0  0  0  0  0  0  0  0  0
   26.4228  -20.5033  -17.4551 C   0  0  0  0  0  0  0  0  0  0  0  0
   27.2725  -21.4716  -16.6661 C   0  0  2  0  0  0  0  0  0  0  0  0
   27.4872  -22.7111  -17.3610 N   0  0  0  0  0  0  0  0  0  0  0  0
   26.6642  -21.7348  -15.3411 C   0  0  0  0  0  0  0  0  0  0  0  0
   25.7883  -22.6453  -15.2641 O   0  0  0  0  0  0  0  0  0  0  0  0
   27.0464  -20.9935  -14.1851 N   0  0  0  0  0  0  0  0  0  0  0  0
   26.3322  -21.1428  -12.9445 C   0  0  1  0  0  0  0  0  0  0  0  0
   27.1449  -20.5933  -11.8163 C   0  0  0  0  0  0  0  0  0  0  0  0
   26.4766  -20.5638  -10.5164 C   0  0  0  0  0  0  0  0  0  0  0  0
   26.3564  -21.7032   -9.7206 C   0  0  0  0  0  0  0  0  0  0  0  0
   25.7249  -21.6952   -8.5011 C   0  0  0  0  0  0  0  0  0  0  0  0
   25.1929  -20.5255   -8.0485 C   0  0  0  0  0  0  0  0  0  0  0  0
   25.2989  -19.3976   -8.8115 C   0  0  0  0  0  0  0  0  0  0  0  0
   25.9353  -19.3914  -10.0477 C   0  0  0  0  0  0  0  0  0  0  0  0
   25.0251  -20.4283  -13.0906 C   0  0  0  0  0  0  0  0  0  0  0  0
   24.9458  -19.2028  -13.3571 O   0  0  0  0  0  0  0  0  0  0  0  0
   20.6428  -19.7843  -14.5159 C   0  0  0  0  0  0  0  0  0  0  0  0
   21.9734  -20.5406  -14.4969 C   0  0  2  0  0  0  0  0  0  0  0  0
   21.6443  -21.9780  -14.8444 C   0  0  0  0  0  0  0  0  0  0  0  0
   22.5435  -20.4399  -13.1071 C   0  0  2  0  0  0  0  0  0  0  0  0
   23.7807  -21.1152  -12.9319 N   0  0  0  0  0  0  0  0  0  0  0  0
   21.5852  -20.8807  -12.0723 C   0  0  0  0  0  0  0  0  0  0  0  0
   21.8254  -21.9281  -11.1990 O   0  0  0  0  0  0  0  0  0  0  0  0
   20.4935  -20.2785  -11.9735 O   0  0  0  0  0  0  0  0  0  0  0  0
  2  3  1  0
  2  1  1  0
  3  4  1  0
  4  5  1  0
  5  6  1  6
  7  5  1  0
  7  8  2  0
  9  7  1  0
 10  9  1  0
 10 11  1  1
 12 13  2  0
 12 11  1  0
 14 13  1  0
 15 14  2  0
 16 15  1  0
 16 17  2  0
 17 12  1  0
 18 10  1  0
 19 18  2  0
 21 20  1  1
 21 22  1  0
 23 21  1  0
 23 24  1  6
 24 18  1  0
 25 23  1  0
 26 25  1  0
 27 25  2  0
M  END
$$$$
