MFV.pdb
     RDKit          3D

 27 27  0  0  1  0  0  0  0  0999 V2000
   24.7466  -20.4607  -19.9309 C   0  0  0  0  0  0  0  0  0  0  0  0
   26.4666  -19.8991  -20.0089 S   0  0  0  0  0  0  0  0  0  0  0  0
   27.2996  -20.4008  -18.4885 C   0  0  0  0  0  0  0  0  0  0  0  0
   26.2984  -20.8966  -17.4548 C   0  0  0  0  0  0  0  0  0  0  0  0
   27.0417  -21.2076  -16.1770 C   0  0  2  0  0  0  0  0  0  0  0  0
   27.9507  -22.3112  -16.3213 N   0  0  0  0  0  0  0  0  0  0  0  0
   26.0885  -21.4796  -15.0758 C   0  0  0  0  0  0  0  0  0  0  0  0
   25.8018  -22.6873  -14.8282 O   0  0  0  0  0  0  0  0  0  0  0  0
   25.5090  -20.4234  -14.3139 N   0  0  0  0  0  0  0  0  0  0  0  0
   24.5756  -20.7049  -13.2551 C   0  0  1  0  0  0  0  0  0  0  0  0
   24.8889  -19.8641  -12.0592 C   0  0  0  0  0  0  0  0  0  0  0  0
   26.0199  -20.3172  -11.2512 C   0  0  0  0  0  0  0  0  0  0  0  0
   27.3355  -19.9725  -11.5613 C   0  0  0  0  0  0  0  0  0  0  0  0
   28.4101  -20.3959  -10.8182 C   0  0  0  0  0  0  0  0  0  0  0  0
   28.1825  -21.1860   -9.7320 C   0  0  0  0  0  0  0  0  0  0  0  0
   26.9021  -21.5358   -9.4100 C   0  0  0  0  0  0  0  0  0  0  0  0
   25.8052  -21.1145  -10.1533 C   0  0  0  0  0  0  0  0  0  0  0  0
   23.2020  -20.4333  -13.7840 C   0  0  0  0  0  0  0  0  0  0  0  0
   22.9223  -19.4096  -14.4572 O   0  0  0  0  0  0  0  0  0  0  0  0
   18.9702  -22.0325  -15.4702 C   0  0  0  0  0  0  0  0  0  0  0  0
   20.3872  -22.3354  -14.9769 C   0  0  2  0  0  0  0  0  0  0  0  0
   20.2743  -23.5725  -14.1098 C   0  0  0  0  0  0  0  0  0  0  0  0
   20.8592  -21.1546  -14.1710 C   0  0  2  0  0  0  0  0  0  0  0  0
   22.1214  -21.3395  -13.5463 N   0  0  0  0  0  0  0  0  0  0  0  0
   19.8647  -20.7253  -13.1658 C   0  0  0  0  0  0  0  0  0  0  0  0
   20.0147  -20.9231  -11.8035 O   0  0  0  0  0  0  0  0  0  0  0  0
   18.8264  -20.1503  -13.5602 O   0  0  0  0  0  0  0  0  0  0  0  0
  2  3  1  0
  2  1  1  0
  3  4  1  0
  4  5  1  0
  5  6  1  6
  7  5  1  0
  7  8  2  0
  9  7  1  0
 10  9  1  0
 10 11  1  1
 12 13  2  0
 12 11  1  0
 14 13  1  0
 15 14  2  0
 16 15  1  0
 16 17  2  0
 17 12  1  0
 18 10  1  0
 19 18  2  0
 21 20  1  1
 21 22  1  0
 23 21  1  0
 23 24  1  1
 24 18  1  0
 25 23  1  0
 26 25  1  0
 27 25  2  0
M  END
$$$$
