PGF.pdb
     RDKit          3D

 23 24  0  0  1  0  0  0  0  0999 V2000
   21.1108  -11.4827  -17.4378 N   0  0  0  0  0  0  0  0  0  0  0  0
   20.1910  -11.8122  -18.4894 C   0  0  0  0  0  0  0  0  0  0  0  0
   20.6937  -11.2095  -19.7602 C   0  0  0  0  0  0  0  0  0  0  0  0
   22.1386  -10.8583  -19.3968 C   0  0  0  0  0  0  0  0  0  0  0  0
   21.9425  -10.4067  -17.9436 C   0  0  1  0  0  0  0  0  0  0  0  0
   21.1446   -9.1635  -17.9268 C   0  0  0  0  0  0  0  0  0  0  0  0
   21.5041   -8.1361  -18.5578 O   0  0  0  0  0  0  0  0  0  0  0  0
   19.9184   -9.0644  -17.1895 N   0  0  0  0  0  0  0  0  0  0  0  0
   19.3041   -7.7746  -16.9718 C   0  0  0  0  0  0  0  0  0  0  0  0
   19.8526   -7.1028  -15.7651 C   0  0  0  0  0  0  0  0  0  0  0  0
   19.3828   -7.3960  -14.6376 O   0  0  0  0  0  0  0  0  0  0  0  0
   20.8826   -6.1461  -15.8355 N   0  0  0  0  0  0  0  0  0  0  0  0
   21.3773   -5.4675  -14.6372 C   0  0  1  0  0  0  0  0  0  0  0  0
   22.8358   -5.8244  -14.5223 C   0  0  0  0  0  0  0  0  0  0  0  0
   23.1192   -7.2579  -14.5604 C   0  0  0  0  0  0  0  0  0  0  0  0
   23.7738   -7.7718  -15.6611 C   0  0  0  0  0  0  0  0  0  0  0  0
   24.0633   -9.1332  -15.7352 C   0  0  0  0  0  0  0  0  0  0  0  0
   23.6961   -9.9792  -14.7049 C   0  0  0  0  0  0  0  0  0  0  0  0
   23.0400   -9.4316  -13.6135 C   0  0  0  0  0  0  0  0  0  0  0  0
   22.7478   -8.0890  -13.5275 C   0  0  0  0  0  0  0  0  0  0  0  0
   21.1266   -4.0301  -14.6739 C   0  0  0  0  0  0  0  0  0  0  0  0
   21.4607   -3.3091  -13.7065 O   0  0  0  0  0  0  0  0  0  0  0  0
   20.5229   -3.4246  -15.7575 O   0  0  0  0  0  0  0  0  0  0  0  0
  1  2  1  0
  2  3  1  0
  4  3  1  0
  5  4  1  0
  5  1  1  0
  5  6  1  6
  6  7  2  0
  8  6  1  0
  9  8  1  0
  9 10  1  0
 10 12  1  0
 11 10  2  0
 12 13  1  0
 13 14  1  6
 14 15  1  0
 15 20  1  0
 16 15  2  0
 16 17  1  0
 17 18  2  0
 18 19  1  0
 20 19  2  0
 21 13  1  0
 21 23  1  0
 22 21  2  0
M  END
$$$$
