PGF.pdb
     RDKit          3D

 23 24  0  0  1  0  0  0  0  0999 V2000
   21.9054  -20.7423  -13.3766 N   0  0  0  0  0  0  0  0  0  0  0  0
   21.5737  -19.3979  -13.7545 C   0  0  0  0  0  0  0  0  0  0  0  0
   22.4045  -19.0232  -14.9379 C   0  0  0  0  0  0  0  0  0  0  0  0
   22.9270  -20.3843  -15.4044 C   0  0  0  0  0  0  0  0  0  0  0  0
   23.1534  -21.0596  -14.0454 C   0  0  1  0  0  0  0  0  0  0  0  0
   24.2448  -20.3625  -13.3346 C   0  0  0  0  0  0  0  0  0  0  0  0
   25.4121  -20.3091  -13.8008 O   0  0  0  0  0  0  0  0  0  0  0  0
   24.0289  -19.7105  -12.0754 N   0  0  0  0  0  0  0  0  0  0  0  0
   25.1540  -19.2537  -11.2918 C   0  0  0  0  0  0  0  0  0  0  0  0
   25.5354  -20.2436  -10.2511 C   0  0  0  0  0  0  0  0  0  0  0  0
   24.9633  -21.3617  -10.2345 O   0  0  0  0  0  0  0  0  0  0  0  0
   26.5172  -19.9767   -9.2784 N   0  0  0  0  0  0  0  0  0  0  0  0
   26.8580  -20.9588   -8.2486 C   0  0  1  0  0  0  0  0  0  0  0  0
   28.2676  -20.6475   -7.8192 C   0  0  0  0  0  0  0  0  0  0  0  0
   28.3788  -19.9838   -6.5216 C   0  0  0  0  0  0  0  0  0  0  0  0
   28.7655  -20.7324   -5.4288 C   0  0  0  0  0  0  0  0  0  0  0  0
   28.8844  -20.1365   -4.1744 C   0  0  0  0  0  0  0  0  0  0  0  0
   28.6153  -18.7895   -4.0163 C   0  0  0  0  0  0  0  0  0  0  0  0
   28.2292  -18.0657   -5.1337 C   0  0  0  0  0  0  0  0  0  0  0  0
   28.1078  -18.6416   -6.3783 C   0  0  0  0  0  0  0  0  0  0  0  0
   25.8977  -20.9619   -7.1496 C   0  0  0  0  0  0  0  0  0  0  0  0
   25.8588  -21.9260   -6.3518 O   0  0  0  0  0  0  0  0  0  0  0  0
   25.0132  -19.9204   -6.9536 O   0  0  0  0  0  0  0  0  0  0  0  0
  1  2  1  0
  2  3  1  0
  4  3  1  0
  5  4  1  0
  5  1  1  0
  5  6  1  1
  6  7  2  0
  8  6  1  0
  9  8  1  0
  9 10  1  0
 10 12  1  0
 11 10  2  0
 12 13  1  0
 13 14  1  1
 14 15  1  0
 15 20  1  0
 16 15  2  0
 16 17  1  0
 17 18  2  0
 18 19  1  0
 20 19  2  0
 21 13  1  0
 21 23  1  0
 22 21  2  0
M  END
$$$$
