PGF.pdb
     RDKit          3D

 23 24  0  0  1  0  0  0  0  0999 V2000
   25.8189  -21.5556  -15.6962 N   0  0  0  0  0  0  0  0  0  0  0  0
   26.9961  -22.2967  -15.3423 C   0  0  0  0  0  0  0  0  0  0  0  0
   26.5710  -23.5815  -14.7101 C   0  0  0  0  0  0  0  0  0  0  0  0
   25.0907  -23.6509  -15.0935 C   0  0  0  0  0  0  0  0  0  0  0  0
   24.7180  -22.1673  -14.9756 C   0  0  1  0  0  0  0  0  0  0  0  0
   24.8116  -21.7559  -13.5598 C   0  0  0  0  0  0  0  0  0  0  0  0
   24.1142  -22.2981  -12.6640 O   0  0  0  0  0  0  0  0  0  0  0  0
   25.7034  -20.7164  -13.1340 N   0  0  0  0  0  0  0  0  0  0  0  0
   25.3740  -19.9018  -11.9867 C   0  0  0  0  0  0  0  0  0  0  0  0
   26.0799  -20.3656  -10.7640 C   0  0  0  0  0  0  0  0  0  0  0  0
   26.8250  -21.3744  -10.8360 O   0  0  0  0  0  0  0  0  0  0  0  0
   25.9462  -19.7163   -9.5223 N   0  0  0  0  0  0  0  0  0  0  0  0
   26.6187  -20.2169   -8.3230 C   0  0  1  0  0  0  0  0  0  0  0  0
   27.0346  -19.0028   -7.5350 C   0  0  0  0  0  0  0  0  0  0  0  0
   27.8426  -19.2897   -6.3512 C   0  0  0  0  0  0  0  0  0  0  0  0
   29.1746  -18.9291   -6.3586 C   0  0  0  0  0  0  0  0  0  0  0  0
   29.9786  -19.1843   -5.2490 C   0  0  0  0  0  0  0  0  0  0  0  0
   29.4464  -19.8014   -4.1319 C   0  0  0  0  0  0  0  0  0  0  0  0
   28.1052  -20.1510   -4.1564 C   0  0  0  0  0  0  0  0  0  0  0  0
   27.2998  -19.9048   -5.2455 C   0  0  0  0  0  0  0  0  0  0  0  0
   25.7834  -21.1469   -7.5696 C   0  0  0  0  0  0  0  0  0  0  0  0
   24.5453  -20.9714   -7.5083 O   0  0  0  0  0  0  0  0  0  0  0  0
   26.3189  -22.2343   -6.9092 O   0  0  0  0  0  0  0  0  0  0  0  0
  1  2  1  0
  2  3  1  0
  4  3  1  0
  5  4  1  0
  5  1  1  0
  5  6  1  1
  6  7  2  0
  8  6  1  0
  9  8  1  0
  9 10  1  0
 10 12  1  0
 11 10  2  0
 12 13  1  0
 13 14  1  1
 14 15  1  0
 15 20  1  0
 16 15  2  0
 16 17  1  0
 17 18  2  0
 18 19  1  0
 20 19  2  0
 21 13  1  0
 21 23  1  0
 22 21  2  0
M  END
$$$$
