PGF.pdb
     RDKit          3D

 23 24  0  0  1  0  0  0  0  0999 V2000
   23.0558  -19.9595  -15.1181 N   0  0  0  0  0  0  0  0  0  0  0  0
   22.9440  -21.3899  -15.1593 C   0  0  0  0  0  0  0  0  0  0  0  0
   22.3184  -21.8499  -13.8834 C   0  0  0  0  0  0  0  0  0  0  0  0
   21.7537  -20.5449  -13.3166 C   0  0  0  0  0  0  0  0  0  0  0  0
   22.8664  -19.5737  -13.7322 C   0  0  1  0  0  0  0  0  0  0  0  0
   24.1003  -19.9059  -12.9909 C   0  0  0  0  0  0  0  0  0  0  0  0
   24.8626  -20.8379  -13.3555 O   0  0  0  0  0  0  0  0  0  0  0  0
   24.4923  -19.1819  -11.8164 N   0  0  0  0  0  0  0  0  0  0  0  0
   25.7744  -19.4369  -11.2003 C   0  0  0  0  0  0  0  0  0  0  0  0
   25.6352  -20.2363   -9.9554 C   0  0  0  0  0  0  0  0  0  0  0  0
   24.5753  -20.8817   -9.7607 O   0  0  0  0  0  0  0  0  0  0  0  0
   26.6489  -20.2994   -8.9808 N   0  0  0  0  0  0  0  0  0  0  0  0
   26.6148  -21.2933   -7.9074 C   0  0  1  0  0  0  0  0  0  0  0  0
   28.0121  -21.3593   -7.3494 C   0  0  0  0  0  0  0  0  0  0  0  0
   28.3181  -20.3417   -6.3456 C   0  0  0  0  0  0  0  0  0  0  0  0
   28.3801  -20.7205   -5.0201 C   0  0  0  0  0  0  0  0  0  0  0  0
   28.6701  -19.7804   -4.0327 C   0  0  0  0  0  0  0  0  0  0  0  0
   28.8979  -18.4602   -4.3751 C   0  0  0  0  0  0  0  0  0  0  0  0
   28.8283  -18.1123   -5.7151 C   0  0  0  0  0  0  0  0  0  0  0  0
   28.5428  -19.0306   -6.7004 C   0  0  0  0  0  0  0  0  0  0  0  0
   25.5975  -20.9893   -6.9060 C   0  0  0  0  0  0  0  0  0  0  0  0
   25.2102  -21.8781   -6.1138 O   0  0  0  0  0  0  0  0  0  0  0  0
   25.0356  -19.7332   -6.7981 O   0  0  0  0  0  0  0  0  0  0  0  0
  1  2  1  0
  2  3  1  0
  4  3  1  0
  5  4  1  0
  5  1  1  0
  5  6  1  1
  6  7  2  0
  8  6  1  0
  9  8  1  0
  9 10  1  0
 10 12  1  0
 11 10  2  0
 12 13  1  0
 13 14  1  1
 14 15  1  0
 15 20  1  0
 16 15  2  0
 16 17  1  0
 17 18  2  0
 18 19  1  0
 20 19  2  0
 21 13  1  0
 21 23  1  0
 22 21  2  0
M  END
$$$$
