PGF.pdb
     RDKit          3D

 23 24  0  0  1  0  0  0  0  0999 V2000
   20.4644   -9.7989  -16.9899 N   0  0  0  0  0  0  0  0  0  0  0  0
   19.3236  -10.3156  -17.6912 C   0  0  0  0  0  0  0  0  0  0  0  0
   19.4136   -9.8844  -19.1184 C   0  0  0  0  0  0  0  0  0  0  0  0
   20.8701   -9.4249  -19.2213 C   0  0  0  0  0  0  0  0  0  0  0  0
   21.0395   -8.7749  -17.8419 C   0  0  1  0  0  0  0  0  0  0  0  0
   20.1795   -7.5763  -17.7630 C   0  0  0  0  0  0  0  0  0  0  0  0
   20.3293   -6.6000  -18.5421 O   0  0  0  0  0  0  0  0  0  0  0  0
   19.1288   -7.4647  -16.7930 N   0  0  0  0  0  0  0  0  0  0  0  0
   18.4490   -6.2041  -16.6007 C   0  0  0  0  0  0  0  0  0  0  0  0
   19.0295   -5.4349  -15.4695 C   0  0  0  0  0  0  0  0  0  0  0  0
   18.3340   -5.2450  -14.4409 O   0  0  0  0  0  0  0  0  0  0  0  0
   20.3343   -4.9079  -15.5050 N   0  0  0  0  0  0  0  0  0  0  0  0
   20.9077   -4.2113  -14.3530 C   0  0  1  0  0  0  0  0  0  0  0  0
   22.0839   -5.0373  -13.9035 C   0  0  0  0  0  0  0  0  0  0  0  0
   21.7536   -6.4033  -13.5015 C   0  0  0  0  0  0  0  0  0  0  0  0
   22.1908   -7.4472  -14.2910 C   0  0  0  0  0  0  0  0  0  0  0  0
   21.8975   -8.7642  -13.9416 C   0  0  0  0  0  0  0  0  0  0  0  0
   21.1655   -9.0341  -12.8000 C   0  0  0  0  0  0  0  0  0  0  0  0
   20.7412   -7.9634  -12.0287 C   0  0  0  0  0  0  0  0  0  0  0  0
   21.0238   -6.6579  -12.3621 C   0  0  0  0  0  0  0  0  0  0  0  0
   21.2474   -2.8254  -14.6594 C   0  0  0  0  0  0  0  0  0  0  0  0
   21.0701   -2.3754  -15.8141 O   0  0  0  0  0  0  0  0  0  0  0  0
   21.7673   -1.9757  -13.7038 O   0  0  0  0  0  0  0  0  0  0  0  0
  1  2  1  0
  2  3  1  0
  4  3  1  0
  5  4  1  0
  5  1  1  0
  5  6  1  6
  6  7  2  0
  8  6  1  0
  9  8  1  0
  9 10  1  0
 10 12  1  0
 11 10  2  0
 12 13  1  0
 13 14  1  6
 14 15  1  0
 15 20  1  0
 16 15  2  0
 16 17  1  0
 17 18  2  0
 18 19  1  0
 20 19  2  0
 21 13  1  0
 21 23  1  0
 22 21  2  0
M  END
$$$$
