PGF.pdb
     RDKit          3D

 23 24  0  0  1  0  0  0  0  0999 V2000
   24.4644  -20.5557  -13.9780 N   0  0  0  0  0  0  0  0  0  0  0  0
   24.5606  -19.1686  -14.3346 C   0  0  0  0  0  0  0  0  0  0  0  0
   25.2892  -19.0664  -15.6345 C   0  0  0  0  0  0  0  0  0  0  0  0
   25.2426  -20.5104  -16.1404 C   0  0  0  0  0  0  0  0  0  0  0  0
   25.4187  -21.2603  -14.8136 C   0  0  1  0  0  0  0  0  0  0  0  0
   26.7730  -20.9974  -14.2852 C   0  0  0  0  0  0  0  0  0  0  0  0
   27.8080  -21.3210  -14.9228 O   0  0  0  0  0  0  0  0  0  0  0  0
   26.9768  -20.3591  -13.0170 N   0  0  0  0  0  0  0  0  0  0  0  0
   27.9739  -20.8648  -12.1015 C   0  0  0  0  0  0  0  0  0  0  0  0
   27.3827  -21.2093  -10.7823 C   0  0  0  0  0  0  0  0  0  0  0  0
   27.0751  -22.4039  -10.5454 O   0  0  0  0  0  0  0  0  0  0  0  0
   27.1527  -20.2454   -9.7827 N   0  0  0  0  0  0  0  0  0  0  0  0
   26.4741  -20.5891   -8.5326 C   0  0  1  0  0  0  0  0  0  0  0  0
   26.6715  -19.4159   -7.6093 C   0  0  0  0  0  0  0  0  0  0  0  0
   27.7076  -19.6036   -6.5954 C   0  0  0  0  0  0  0  0  0  0  0  0
   28.3283  -20.8329   -6.5063 C   0  0  0  0  0  0  0  0  0  0  0  0
   29.3219  -21.0518   -5.5536 C   0  0  0  0  0  0  0  0  0  0  0  0
   29.6927  -20.0375   -4.6901 C   0  0  0  0  0  0  0  0  0  0  0  0
   29.0500  -18.8148   -4.8055 C   0  0  0  0  0  0  0  0  0  0  0  0
   28.0672  -18.5849   -5.7418 C   0  0  0  0  0  0  0  0  0  0  0  0
   25.0732  -20.9399   -8.7436 C   0  0  0  0  0  0  0  0  0  0  0  0
   24.4811  -20.5657   -9.7813 O   0  0  0  0  0  0  0  0  0  0  0  0
   24.3631  -21.6838   -7.8229 O   0  0  0  0  0  0  0  0  0  0  0  0
  1  2  1  0
  2  3  1  0
  4  3  1  0
  5  4  1  0
  5  1  1  0
  5  6  1  1
  6  7  2  0
  8  6  1  0
  9  8  1  0
  9 10  1  0
 10 12  1  0
 11 10  2  0
 12 13  1  0
 13 14  1  1
 14 15  1  0
 15 20  1  0
 16 15  2  0
 16 17  1  0
 17 18  2  0
 18 19  1  0
 20 19  2  0
 21 13  1  0
 21 23  1  0
 22 21  2  0
M  END
$$$$
