PGF.pdb
     RDKit          3D

 23 24  0  0  1  0  0  0  0  0999 V2000
   28.5746  -19.7140  -14.4938 N   0  0  0  0  0  0  0  0  0  0  0  0
   28.2714  -19.6602  -15.8958 C   0  0  0  0  0  0  0  0  0  0  0  0
   27.6453  -18.3368  -16.1914 C   0  0  0  0  0  0  0  0  0  0  0  0
   27.9803  -17.5368  -14.9301 C   0  0  0  0  0  0  0  0  0  0  0  0
   27.8273  -18.6370  -13.8717 C   0  0  1  0  0  0  0  0  0  0  0  0
   26.4092  -19.0448  -13.7993 C   0  0  0  0  0  0  0  0  0  0  0  0
   25.6388  -18.9443  -14.7888 O   0  0  0  0  0  0  0  0  0  0  0  0
   25.8381  -19.5766  -12.5959 N   0  0  0  0  0  0  0  0  0  0  0  0
   25.7831  -21.0056  -12.3880 C   0  0  0  0  0  0  0  0  0  0  0  0
   25.9875  -21.3602  -10.9595 C   0  0  0  0  0  0  0  0  0  0  0  0
   25.3828  -22.3541  -10.4856 O   0  0  0  0  0  0  0  0  0  0  0  0
   26.8358  -20.6232  -10.1120 N   0  0  0  0  0  0  0  0  0  0  0  0
   26.9407  -20.9276   -8.6846 C   0  0  1  0  0  0  0  0  0  0  0  0
   28.2312  -20.3093   -8.2153 C   0  0  0  0  0  0  0  0  0  0  0  0
   28.3395  -20.1459   -6.7667 C   0  0  0  0  0  0  0  0  0  0  0  0
   27.7526  -19.0425   -6.1817 C   0  0  0  0  0  0  0  0  0  0  0  0
   27.8325  -18.8511   -4.8034 C   0  0  0  0  0  0  0  0  0  0  0  0
   28.5012  -19.7666   -4.0119 C   0  0  0  0  0  0  0  0  0  0  0  0
   29.0797  -20.8641   -4.6303 C   0  0  0  0  0  0  0  0  0  0  0  0
   29.0084  -21.0654   -5.9904 C   0  0  0  0  0  0  0  0  0  0  0  0
   25.7700  -20.4792   -7.9372 C   0  0  0  0  0  0  0  0  0  0  0  0
   25.4765  -21.0186   -6.8462 O   0  0  0  0  0  0  0  0  0  0  0  0
   24.9587  -19.4621   -8.3981 O   0  0  0  0  0  0  0  0  0  0  0  0
  1  2  1  0
  2  3  1  0
  4  3  1  0
  5  4  1  0
  5  1  1  0
  5  6  1  6
  6  7  2  0
  8  6  1  0
  9  8  1  0
  9 10  1  0
 10 12  1  0
 11 10  2  0
 12 13  1  0
 13 14  1  1
 14 15  1  0
 15 20  1  0
 16 15  2  0
 16 17  1  0
 17 18  2  0
 18 19  1  0
 20 19  2  0
 21 13  1  0
 21 23  1  0
 22 21  2  0
M  END
$$$$
