PGF.pdb
     RDKit          3D

 23 24  0  0  1  0  0  0  0  0999 V2000
   26.3585  -18.9125  -15.6857 N   0  0  0  0  0  0  0  0  0  0  0  0
   25.0459  -18.3329  -15.6491 C   0  0  0  0  0  0  0  0  0  0  0  0
   25.0835  -17.1389  -14.7525 C   0  0  0  0  0  0  0  0  0  0  0  0
   26.5878  -16.8929  -14.6123 C   0  0  0  0  0  0  0  0  0  0  0  0
   27.0890  -18.3423  -14.5692 C   0  0  1  0  0  0  0  0  0  0  0  0
   26.6065  -18.9844  -13.3293 C   0  0  0  0  0  0  0  0  0  0  0  0
   26.3605  -18.3192  -12.2903 O   0  0  0  0  0  0  0  0  0  0  0  0
   26.3936  -20.4005  -13.2471 N   0  0  0  0  0  0  0  0  0  0  0  0
   27.2884  -21.2253  -12.4677 C   0  0  0  0  0  0  0  0  0  0  0  0
   26.8197  -21.3688  -11.0648 C   0  0  0  0  0  0  0  0  0  0  0  0
   26.3309  -22.4651  -10.6946 O   0  0  0  0  0  0  0  0  0  0  0  0
   26.9023  -20.3200  -10.1297 N   0  0  0  0  0  0  0  0  0  0  0  0
   26.9605  -20.5827   -8.6914 C   0  0  1  0  0  0  0  0  0  0  0  0
   28.0306  -19.6775   -8.1404 C   0  0  0  0  0  0  0  0  0  0  0  0
   28.1935  -19.7366   -6.6890 C   0  0  0  0  0  0  0  0  0  0  0  0
   28.9904  -20.7284   -6.1545 C   0  0  0  0  0  0  0  0  0  0  0  0
   29.1719  -20.8181   -4.7755 C   0  0  0  0  0  0  0  0  0  0  0  0
   28.5541  -19.9128   -3.9325 C   0  0  0  0  0  0  0  0  0  0  0  0
   27.7603  -18.9288   -4.5009 C   0  0  0  0  0  0  0  0  0  0  0  0
   27.5724  -18.8287   -5.8611 C   0  0  0  0  0  0  0  0  0  0  0  0
   25.6619  -20.4151   -8.0468 C   0  0  0  0  0  0  0  0  0  0  0  0
   24.7734  -19.7233   -8.5940 O   0  0  0  0  0  0  0  0  0  0  0  0
   25.3715  -21.0030   -6.8321 O   0  0  0  0  0  0  0  0  0  0  0  0
  1  2  1  0
  2  3  1  0
  4  3  1  0
  5  4  1  0
  5  1  1  0
  5  6  1  1
  6  7  2  0
  8  6  1  0
  9  8  1  0
  9 10  1  0
 10 12  1  0
 11 10  2  0
 12 13  1  0
 13 14  1  1
 14 15  1  0
 15 20  1  0
 16 15  2  0
 16 17  1  0
 17 18  2  0
 18 19  1  0
 20 19  2  0
 21 13  1  0
 21 23  1  0
 22 21  2  0
M  END
$$$$
