PGF.pdb
     RDKit          3D

 23 24  0  0  1  0  0  0  0  0999 V2000
   26.4285  -18.5061  -13.2000 N   0  0  0  0  0  0  0  0  0  0  0  0
   27.4053  -17.6189  -13.7648 C   0  0  0  0  0  0  0  0  0  0  0  0
   27.8061  -18.1501  -15.1020 C   0  0  0  0  0  0  0  0  0  0  0  0
   26.7018  -19.1723  -15.3829 C   0  0  0  0  0  0  0  0  0  0  0  0
   26.4970  -19.7340  -13.9699 C   0  0  1  0  0  0  0  0  0  0  0  0
   27.7129  -20.4658  -13.5592 C   0  0  0  0  0  0  0  0  0  0  0  0
   28.1968  -21.3931  -14.2582 O   0  0  0  0  0  0  0  0  0  0  0  0
   28.4042  -20.1558  -12.3413 N   0  0  0  0  0  0  0  0  0  0  0  0
   28.9166  -21.2183  -11.5065 C   0  0  0  0  0  0  0  0  0  0  0  0
   28.0900  -21.4035  -10.2856 C   0  0  0  0  0  0  0  0  0  0  0  0
   28.2761  -22.4204   -9.5720 O   0  0  0  0  0  0  0  0  0  0  0  0
   27.1019  -20.4803   -9.8950 N   0  0  0  0  0  0  0  0  0  0  0  0
   26.3224  -20.6688   -8.6710 C   0  0  1  0  0  0  0  0  0  0  0  0
   26.4900  -19.4072   -7.8659 C   0  0  0  0  0  0  0  0  0  0  0  0
   27.3995  -19.5248   -6.7277 C   0  0  0  0  0  0  0  0  0  0  0  0
   28.5328  -18.7377   -6.7049 C   0  0  0  0  0  0  0  0  0  0  0  0
   29.4246  -18.8195   -5.6368 C   0  0  0  0  0  0  0  0  0  0  0  0
   29.1796  -19.6909   -4.5916 C   0  0  0  0  0  0  0  0  0  0  0  0
   28.0326  -20.4674   -4.6447 C   0  0  0  0  0  0  0  0  0  0  0  0
   27.1434  -20.3967   -5.6934 C   0  0  0  0  0  0  0  0  0  0  0  0
   24.9299  -21.0055   -8.9500 C   0  0  0  0  0  0  0  0  0  0  0  0
   24.4776  -20.8957  -10.1122 O   0  0  0  0  0  0  0  0  0  0  0  0
   24.0766  -21.4494   -7.9600 O   0  0  0  0  0  0  0  0  0  0  0  0
  1  2  1  0
  2  3  1  0
  4  3  1  0
  5  4  1  0
  5  1  1  0
  5  6  1  1
  6  7  2  0
  8  6  1  0
  9  8  1  0
  9 10  1  0
 10 12  1  0
 11 10  2  0
 12 13  1  0
 13 14  1  1
 14 15  1  0
 15 20  1  0
 16 15  2  0
 16 17  1  0
 17 18  2  0
 18 19  1  0
 20 19  2  0
 21 13  1  0
 21 23  1  0
 22 21  2  0
M  END
$$$$
