KGY.pdb
     RDKit          3D

 26 26  0  0  1  0  0  0  0  0999 V2000
   23.5243  -22.4006  -14.9144 N   0  0  0  0  0  0  0  0  0  0  0  0
   23.6489  -21.0665  -14.4251 C   0  0  1  0  0  0  0  0  0  0  0  0
   23.9407  -20.0534  -15.4983 C   0  0  0  0  0  0  0  0  0  0  0  0
   25.3514  -20.0866  -15.9830 C   0  0  0  0  0  0  0  0  0  0  0  0
   25.9526  -21.4533  -16.0496 C   0  0  0  0  0  0  0  0  0  0  0  0
   27.3415  -21.4716  -16.6296 C   0  0  0  0  0  0  0  0  0  0  0  0
   27.8384  -22.8252  -16.7811 N   0  0  0  0  0  0  0  0  0  0  0  0
   22.4167  -20.6612  -13.7036 C   0  0  0  0  0  0  0  0  0  0  0  0
   22.2839  -19.5374  -13.1597 O   0  0  0  0  0  0  0  0  0  0  0  0
   21.3116  -21.5652  -13.6035 N   0  0  0  0  0  0  0  0  0  0  0  0
   20.1103  -21.2458  -12.8864 C   0  0  0  0  0  0  0  0  0  0  0  0
   19.7933  -22.3426  -11.9237 C   0  0  0  0  0  0  0  0  0  0  0  0
   20.1367  -23.5344  -12.1661 O   0  0  0  0  0  0  0  0  0  0  0  0
   16.4090  -26.3328   -4.8956 O   0  0  0  0  0  0  0  0  0  0  0  0
   16.8935  -25.3675   -5.7820 C   0  0  0  0  0  0  0  0  0  0  0  0
   16.0439  -24.4845   -6.4014 C   0  0  0  0  0  0  0  0  0  0  0  0
   16.5519  -23.5489   -7.2659 C   0  0  0  0  0  0  0  0  0  0  0  0
   17.9166  -23.4708   -7.5337 C   0  0  0  0  0  0  0  0  0  0  0  0
   18.4455  -22.4707   -8.4758 C   0  0  0  0  0  0  0  0  0  0  0  0
   18.5849  -23.1039   -9.8380 C   0  0  2  0  0  0  0  0  0  0  0  0
   19.0990  -22.0595  -10.7181 N   0  0  0  0  0  0  0  0  0  0  0  0
   17.3216  -23.6604  -10.3639 C   0  0  0  0  0  0  0  0  0  0  0  0
   16.9473  -24.9862  -10.2672 O   0  0  0  0  0  0  0  0  0  0  0  0
   18.7397  -24.3683   -6.8984 C   0  0  0  0  0  0  0  0  0  0  0  0
   18.2554  -25.3315   -6.0139 C   0  0  0  0  0  0  0  0  0  0  0  0
   16.5208  -22.8553  -10.9507 O   0  0  0  0  0  0  0  0  0  0  0  0
  2  3  1  0
  2  1  1  6
  4  5  1  0
  4  3  1  0
  6  7  1  0
  6  5  1  0
  8  2  1  0
  9  8  2  0
 10  8  1  0
 11 10  1  0
 12 11  1  0
 12 21  1  0
 13 12  2  0
 15 14  1  0
 16 15  2  0
 17 16  1  0
 18 17  2  0
 18 24  1  0
 19 18  1  0
 20 22  1  0
 20 21  1  0
 20 19  1  1
 22 23  1  0
 24 25  2  0
 25 15  1  0
 26 22  2  0
M  END
$$$$
