KGY.pdb
     RDKit          3D

 26 26  0  0  1  0  0  0  0  0999 V2000
   29.2856  -22.6790  -19.3816 N   0  0  0  0  0  0  0  0  0  0  0  0
   28.7869  -21.4415  -19.8860 C   0  0  1  0  0  0  0  0  0  0  0  0
   27.4975  -21.5751  -20.6495 C   0  0  0  0  0  0  0  0  0  0  0  0
   27.5801  -21.0751  -22.0528 C   0  0  0  0  0  0  0  0  0  0  0  0
   27.3137  -19.6126  -22.2070 C   0  0  0  0  0  0  0  0  0  0  0  0
   27.3329  -19.1455  -23.6379 C   0  0  0  0  0  0  0  0  0  0  0  0
   27.1799  -17.7068  -23.7313 N   0  0  0  0  0  0  0  0  0  0  0  0
   28.5923  -20.4710  -18.7799 C   0  0  0  0  0  0  0  0  0  0  0  0
   28.2911  -19.2677  -18.9741 O   0  0  0  0  0  0  0  0  0  0  0  0
   28.7465  -20.8900  -17.4200 N   0  0  0  0  0  0  0  0  0  0  0  0
   28.5207  -20.0123  -16.3073 C   0  0  0  0  0  0  0  0  0  0  0  0
   27.5593  -20.6450  -15.3556 C   0  0  0  0  0  0  0  0  0  0  0  0
   27.0429  -21.7698  -15.6111 O   0  0  0  0  0  0  0  0  0  0  0  0
   22.7241  -21.6083   -8.0935 O   0  0  0  0  0  0  0  0  0  0  0  0
   23.6270  -21.1390   -9.0509 C   0  0  0  0  0  0  0  0  0  0  0  0
   23.1878  -20.6038  -10.2366 C   0  0  0  0  0  0  0  0  0  0  0  0
   24.1005  -20.1521  -11.1551 C   0  0  0  0  0  0  0  0  0  0  0  0
   25.4707  -20.2226  -10.9147 C   0  0  0  0  0  0  0  0  0  0  0  0
   26.4389  -19.7473  -11.9168 C   0  0  0  0  0  0  0  0  0  0  0  0
   26.2730  -20.5528  -13.1815 C   0  0  2  0  0  0  0  0  0  0  0  0
   27.2114  -19.9882  -14.1460 N   0  0  0  0  0  0  0  0  0  0  0  0
   24.8960  -20.5379  -13.7162 C   0  0  0  0  0  0  0  0  0  0  0  0
   24.3463  -19.4987  -14.4407 O   0  0  0  0  0  0  0  0  0  0  0  0
   25.8776  -20.7633   -9.7194 C   0  0  0  0  0  0  0  0  0  0  0  0
   24.9758  -21.2316   -8.7644 C   0  0  0  0  0  0  0  0  0  0  0  0
   24.1635  -21.5605  -13.4894 O   0  0  0  0  0  0  0  0  0  0  0  0
  2  3  1  0
  2  1  1  1
  4  5  1  0
  4  3  1  0
  6  7  1  0
  6  5  1  0
  8  2  1  0
  9  8  2  0
 10  8  1  0
 11 10  1  0
 12 11  1  0
 12 21  1  0
 13 12  2  0
 15 14  1  0
 16 15  2  0
 17 16  1  0
 18 17  2  0
 18 24  1  0
 19 18  1  0
 20 22  1  0
 20 21  1  0
 20 19  1  1
 22 23  1  0
 24 25  2  0
 25 15  1  0
 26 22  2  0
M  END
$$$$
