KGY.pdb
     RDKit          3D

 26 26  0  0  1  0  0  0  0  0999 V2000
   26.7232  -22.3267  -16.2181 N   0  0  0  0  0  0  0  0  0  0  0  0
   27.5540  -21.1983  -16.4846 C   0  0  1  0  0  0  0  0  0  0  0  0
   27.0131  -20.2878  -17.5531 C   0  0  0  0  0  0  0  0  0  0  0  0
   27.5159  -20.6078  -18.9209 C   0  0  0  0  0  0  0  0  0  0  0  0
   26.4621  -21.0607  -19.8791 C   0  0  0  0  0  0  0  0  0  0  0  0
   26.9727  -21.2697  -21.2796 C   0  0  0  0  0  0  0  0  0  0  0  0
   25.9338  -21.7740  -22.1563 N   0  0  0  0  0  0  0  0  0  0  0  0
   27.7713  -20.4099  -15.2459 C   0  0  0  0  0  0  0  0  0  0  0  0
   28.4108  -19.3295  -15.2291 O   0  0  0  0  0  0  0  0  0  0  0  0
   27.2434  -20.8709  -13.9980 N   0  0  0  0  0  0  0  0  0  0  0  0
   27.3098  -20.0944  -12.7930 C   0  0  0  0  0  0  0  0  0  0  0  0
   26.6053  -20.8156  -11.6912 C   0  0  0  0  0  0  0  0  0  0  0  0
   26.4232  -22.0647  -11.7496 O   0  0  0  0  0  0  0  0  0  0  0  0
   29.9324  -20.0820   -5.4484 O   0  0  0  0  0  0  0  0  0  0  0  0
   28.7470  -20.0126   -6.1847 C   0  0  0  0  0  0  0  0  0  0  0  0
   28.1067  -21.1519   -6.6055 C   0  0  0  0  0  0  0  0  0  0  0  0
   26.9447  -21.0489   -7.3264 C   0  0  0  0  0  0  0  0  0  0  0  0
   26.3934  -19.8099   -7.6449 C   0  0  0  0  0  0  0  0  0  0  0  0
   25.1532  -19.7149   -8.4326 C   0  0  0  0  0  0  0  0  0  0  0  0
   25.2225  -20.6935   -9.5787 C   0  0  2  0  0  0  0  0  0  0  0  0
   26.1289  -20.1040  -10.5588 N   0  0  0  0  0  0  0  0  0  0  0  0
   23.9085  -20.9866  -10.1867 C   0  0  0  0  0  0  0  0  0  0  0  0
   22.9780  -21.8616   -9.6616 O   0  0  0  0  0  0  0  0  0  0  0  0
   27.0581  -18.6895   -7.2096 C   0  0  0  0  0  0  0  0  0  0  0  0
   28.2412  -18.7596   -6.4747 C   0  0  0  0  0  0  0  0  0  0  0  0
   23.6156  -20.3873  -11.2770 O   0  0  0  0  0  0  0  0  0  0  0  0
  2  3  1  0
  2  1  1  1
  4  5  1  0
  4  3  1  0
  6  7  1  0
  6  5  1  0
  8  2  1  0
  9  8  2  0
 10  8  1  0
 11 10  1  0
 12 11  1  0
 12 21  1  0
 13 12  2  0
 15 14  1  0
 16 15  2  0
 17 16  1  0
 18 17  2  0
 18 24  1  0
 19 18  1  0
 20 22  1  0
 20 21  1  0
 20 19  1  1
 22 23  1  0
 24 25  2  0
 25 15  1  0
 26 22  2  0
M  END
$$$$
