KGY.pdb
     RDKit          3D

 26 26  0  0  1  0  0  0  0  0999 V2000
   20.2210  -18.4327  -18.0465 N   0  0  0  0  0  0  0  0  0  0  0  0
   19.9024  -17.6777  -16.8790 C   0  0  1  0  0  0  0  0  0  0  0  0
   18.4255  -17.4830  -16.6690 C   0  0  0  0  0  0  0  0  0  0  0  0
   17.7103  -16.9873  -17.8810 C   0  0  0  0  0  0  0  0  0  0  0  0
   17.7907  -15.5093  -18.0877 C   0  0  0  0  0  0  0  0  0  0  0  0
   16.9719  -15.0197  -19.2520 C   0  0  0  0  0  0  0  0  0  0  0  0
   17.1403  -13.5948  -19.4606 N   0  0  0  0  0  0  0  0  0  0  0  0
   20.4791  -18.3206  -15.6719 C   0  0  0  0  0  0  0  0  0  0  0  0
   20.4109  -17.8075  -14.5280 O   0  0  0  0  0  0  0  0  0  0  0  0
   21.1492  -19.5808  -15.7789 N   0  0  0  0  0  0  0  0  0  0  0  0
   21.6901  -20.2710  -14.6429 C   0  0  0  0  0  0  0  0  0  0  0  0
   23.1510  -20.5049  -14.8461 C   0  0  0  0  0  0  0  0  0  0  0  0
   23.5701  -21.1309  -15.8608 O   0  0  0  0  0  0  0  0  0  0  0  0
   24.3914  -21.6911   -8.0266 O   0  0  0  0  0  0  0  0  0  0  0  0
   24.8507  -21.1514   -9.2308 C   0  0  0  0  0  0  0  0  0  0  0  0
   26.1619  -21.2889   -9.6143 C   0  0  0  0  0  0  0  0  0  0  0  0
   26.5803  -20.7472  -10.8026 C   0  0  0  0  0  0  0  0  0  0  0  0
   25.7037  -20.0565  -11.6362 C   0  0  0  0  0  0  0  0  0  0  0  0
   26.1711  -19.4675  -12.9019 C   0  0  0  0  0  0  0  0  0  0  0  0
   25.5322  -20.2045  -14.0527 C   0  0  2  0  0  0  0  0  0  0  0  0
   24.0923  -20.0250  -13.8978 N   0  0  0  0  0  0  0  0  0  0  0  0
   25.8812  -21.6391  -14.1033 C   0  0  0  0  0  0  0  0  0  0  0  0
   27.1123  -22.1347  -14.4851 O   0  0  0  0  0  0  0  0  0  0  0  0
   24.3990  -19.9363  -11.2239 C   0  0  0  0  0  0  0  0  0  0  0  0
   23.9414  -20.4753  -10.0219 C   0  0  0  0  0  0  0  0  0  0  0  0
   24.9766  -22.4788  -13.7709 O   0  0  0  0  0  0  0  0  0  0  0  0
  2  3  1  0
  2  1  1  6
  4  5  1  0
  4  3  1  0
  6  7  1  0
  6  5  1  0
  8  2  1  0
  9  8  2  0
 10  8  1  0
 11 10  1  0
 12 11  1  0
 12 21  1  0
 13 12  2  0
 15 14  1  0
 16 15  2  0
 17 16  1  0
 18 17  2  0
 18 24  1  0
 19 18  1  0
 20 22  1  0
 20 21  1  0
 20 19  1  1
 22 23  1  0
 24 25  2  0
 25 15  1  0
 26 22  2  0
M  END
$$$$
