KGY.pdb
     RDKit          3D

 26 26  0  0  1  0  0  0  0  0999 V2000
   22.9319  -25.7539  -17.6646 N   0  0  0  0  0  0  0  0  0  0  0  0
   24.1229  -25.0759  -18.0600 C   0  0  1  0  0  0  0  0  0  0  0  0
   24.4477  -25.2259  -19.5212 C   0  0  0  0  0  0  0  0  0  0  0  0
   23.4748  -26.0787  -20.2646 C   0  0  0  0  0  0  0  0  0  0  0  0
   23.7157  -26.1549  -21.7376 C   0  0  0  0  0  0  0  0  0  0  0  0
   22.7049  -26.9966  -22.4694 C   0  0  0  0  0  0  0  0  0  0  0  0
   22.8640  -26.8920  -23.9067 N   0  0  0  0  0  0  0  0  0  0  0  0
   24.0299  -23.6308  -17.7341 C   0  0  0  0  0  0  0  0  0  0  0  0
   25.0091  -22.8493  -17.8160 O   0  0  0  0  0  0  0  0  0  0  0  0
   22.7855  -23.0691  -17.3044 N   0  0  0  0  0  0  0  0  0  0  0  0
   22.6483  -21.6953  -16.9129 C   0  0  0  0  0  0  0  0  0  0  0  0
   22.0774  -21.6204  -15.5349 C   0  0  0  0  0  0  0  0  0  0  0  0
   21.7722  -22.6720  -14.9039 O   0  0  0  0  0  0  0  0  0  0  0  0
   26.5043  -22.0172  -10.5809 O   0  0  0  0  0  0  0  0  0  0  0  0
   25.4151  -21.3288  -11.1213 C   0  0  0  0  0  0  0  0  0  0  0  0
   24.2653  -21.1401  -10.3950 C   0  0  0  0  0  0  0  0  0  0  0  0
   23.2145  -20.4597  -10.9550 C   0  0  0  0  0  0  0  0  0  0  0  0
   23.2839  -19.9517  -12.2502 C   0  0  0  0  0  0  0  0  0  0  0  0
   22.1420  -19.2364  -12.8432 C   0  0  0  0  0  0  0  0  0  0  0  0
   21.2763  -20.2230  -13.5867 C   0  0  2  0  0  0  0  0  0  0  0  0
   21.8690  -20.3613  -14.9131 N   0  0  0  0  0  0  0  0  0  0  0  0
   19.8604  -19.8127  -13.6833 C   0  0  0  0  0  0  0  0  0  0  0  0
   18.9154  -20.0145  -12.6968 O   0  0  0  0  0  0  0  0  0  0  0  0
   24.4477  -20.1573  -12.9502 C   0  0  0  0  0  0  0  0  0  0  0  0
   25.5343  -20.8446  -12.4102 C   0  0  0  0  0  0  0  0  0  0  0  0
   19.4864  -19.2310  -14.7583 O   0  0  0  0  0  0  0  0  0  0  0  0
  2  3  1  0
  2  1  1  6
  4  5  1  0
  4  3  1  0
  6  7  1  0
  6  5  1  0
  8  2  1  0
  9  8  2  0
 10  8  1  0
 11 10  1  0
 12 11  1  0
 12 21  1  0
 13 12  2  0
 15 14  1  0
 16 15  2  0
 17 16  1  0
 18 17  2  0
 18 24  1  0
 19 18  1  0
 20 22  1  0
 20 21  1  0
 20 19  1  1
 22 23  1  0
 24 25  2  0
 25 15  1  0
 26 22  2  0
M  END
$$$$
