KGY.pdb
     RDKit          3D

 26 26  0  0  1  0  0  0  0  0999 V2000
   24.7519  -17.2094  -18.2760 N   0  0  0  0  0  0  0  0  0  0  0  0
   25.0486  -18.4712  -18.8715 C   0  0  1  0  0  0  0  0  0  0  0  0
   25.2950  -18.3974  -20.3538 C   0  0  0  0  0  0  0  0  0  0  0  0
   24.0996  -18.7461  -21.1758 C   0  0  0  0  0  0  0  0  0  0  0  0
   22.9442  -17.8114  -21.0181 C   0  0  0  0  0  0  0  0  0  0  0  0
   21.7433  -18.1957  -21.8402 C   0  0  0  0  0  0  0  0  0  0  0  0
   20.6280  -17.2991  -21.6069 N   0  0  0  0  0  0  0  0  0  0  0  0
   26.2297  -19.0885  -18.2180 C   0  0  0  0  0  0  0  0  0  0  0  0
   26.4107  -20.3300  -18.1700 O   0  0  0  0  0  0  0  0  0  0  0  0
   27.2260  -18.2633  -17.6055 N   0  0  0  0  0  0  0  0  0  0  0  0
   28.4732  -18.7825  -17.1216 C   0  0  0  0  0  0  0  0  0  0  0  0
   28.2633  -19.4414  -15.7979 C   0  0  0  0  0  0  0  0  0  0  0  0
   29.2173  -20.0224  -15.2069 O   0  0  0  0  0  0  0  0  0  0  0  0
   24.6600  -21.7066   -8.1826 O   0  0  0  0  0  0  0  0  0  0  0  0
   25.0275  -21.0725   -9.3722 C   0  0  0  0  0  0  0  0  0  0  0  0
   26.2834  -20.5416   -9.5333 C   0  0  0  0  0  0  0  0  0  0  0  0
   26.6121  -19.9258  -10.7137 C   0  0  0  0  0  0  0  0  0  0  0  0
   25.6987  -19.8243  -11.7605 C   0  0  0  0  0  0  0  0  0  0  0  0
   26.0613  -19.1469  -13.0163 C   0  0  0  0  0  0  0  0  0  0  0  0
   26.6872  -20.1502  -13.9531 C   0  0  2  0  0  0  0  0  0  0  0  0
   26.9836  -19.4236  -15.1836 N   0  0  0  0  0  0  0  0  0  0  0  0
   25.8280  -21.3203  -14.2269 C   0  0  0  0  0  0  0  0  0  0  0  0
   25.9124  -22.5287  -13.5638 O   0  0  0  0  0  0  0  0  0  0  0  0
   24.4510  -20.3652  -11.5678 C   0  0  0  0  0  0  0  0  0  0  0  0
   24.0850  -20.9979  -10.3801 C   0  0  0  0  0  0  0  0  0  0  0  0
   24.9457  -21.2031  -15.1443 O   0  0  0  0  0  0  0  0  0  0  0  0
  2  3  1  0
  2  1  1  1
  4  5  1  0
  4  3  1  0
  6  7  1  0
  6  5  1  0
  8  2  1  0
  9  8  2  0
 10  8  1  0
 11 10  1  0
 12 11  1  0
 12 21  1  0
 13 12  2  0
 15 14  1  0
 16 15  2  0
 17 16  1  0
 18 17  2  0
 18 24  1  0
 19 18  1  0
 20 22  1  0
 20 21  1  0
 20 19  1  1
 22 23  1  0
 24 25  2  0
 25 15  1  0
 26 22  2  0
M  END
$$$$
