KGY.pdb
     RDKit          3D

 26 26  0  0  1  0  0  0  0  0999 V2000
   25.0012  -20.6142  -18.3564 N   0  0  0  0  0  0  0  0  0  0  0  0
   24.4911  -19.4092  -18.9242 C   0  0  1  0  0  0  0  0  0  0  0  0
   23.9201  -19.5854  -20.3048 C   0  0  0  0  0  0  0  0  0  0  0  0
   24.9573  -19.7825  -21.3592 C   0  0  0  0  0  0  0  0  0  0  0  0
   25.8559  -18.6075  -21.5728 C   0  0  0  0  0  0  0  0  0  0  0  0
   26.8329  -18.7953  -22.7024 C   0  0  0  0  0  0  0  0  0  0  0  0
   27.7469  -17.6748  -22.8088 N   0  0  0  0  0  0  0  0  0  0  0  0
   23.4499  -18.8213  -18.0448 C   0  0  0  0  0  0  0  0  0  0  0  0
   22.7844  -17.8050  -18.3619 O   0  0  0  0  0  0  0  0  0  0  0  0
   23.1654  -19.4124  -16.7727 N   0  0  0  0  0  0  0  0  0  0  0  0
   22.2451  -18.8331  -15.8363 C   0  0  0  0  0  0  0  0  0  0  0  0
   21.6234  -19.9111  -15.0106 C   0  0  0  0  0  0  0  0  0  0  0  0
   21.8055  -21.1289  -15.2949 O   0  0  0  0  0  0  0  0  0  0  0  0
   25.2220  -21.1827   -9.0069 O   0  0  0  0  0  0  0  0  0  0  0  0
   24.0303  -20.8601   -9.6611 C   0  0  0  0  0  0  0  0  0  0  0  0
   24.0144  -19.9693  -10.7058 C   0  0  0  0  0  0  0  0  0  0  0  0
   22.8276  -19.6745  -11.3265 C   0  0  0  0  0  0  0  0  0  0  0  0
   21.6298  -20.2592  -10.9218 C   0  0  0  0  0  0  0  0  0  0  0  0
   20.3612  -19.9213  -11.5882 C   0  0  0  0  0  0  0  0  0  0  0  0
   20.3282  -20.5794  -12.9452 C   0  0  2  0  0  0  0  0  0  0  0  0
   20.8161  -19.5804  -13.8906 N   0  0  0  0  0  0  0  0  0  0  0  0
   18.9881  -21.0631  -13.3359 C   0  0  0  0  0  0  0  0  0  0  0  0
   18.4886  -22.3161  -13.0401 O   0  0  0  0  0  0  0  0  0  0  0  0
   21.6794  -21.1457   -9.8738 C   0  0  0  0  0  0  0  0  0  0  0  0
   22.8693  -21.4672   -9.2214 C   0  0  0  0  0  0  0  0  0  0  0  0
   18.2408  -20.2630  -13.9956 O   0  0  0  0  0  0  0  0  0  0  0  0
  2  3  1  0
  2  1  1  1
  4  5  1  0
  4  3  1  0
  6  7  1  0
  6  5  1  0
  8  2  1  0
  9  8  2  0
 10  8  1  0
 11 10  1  0
 12 11  1  0
 12 21  1  0
 13 12  2  0
 15 14  1  0
 16 15  2  0
 17 16  1  0
 18 17  2  0
 18 24  1  0
 19 18  1  0
 20 22  1  0
 20 21  1  0
 20 19  1  1
 22 23  1  0
 24 25  2  0
 25 15  1  0
 26 22  2  0
M  END
$$$$
