KGY.pdb
     RDKit          3D

 26 26  0  0  1  0  0  0  0  0999 V2000
   33.2531  -30.9843  -18.0084 N   0  0  0  0  0  0  0  0  0  0  0  0
   33.1006  -32.3941  -18.1630 C   0  0  1  0  0  0  0  0  0  0  0  0
   34.3281  -33.1797  -17.7899 C   0  0  0  0  0  0  0  0  0  0  0  0
   35.6054  -32.5043  -18.1624 C   0  0  0  0  0  0  0  0  0  0  0  0
   36.2730  -33.0656  -19.3760 C   0  0  0  0  0  0  0  0  0  0  0  0
   37.5475  -32.3543  -19.7442 C   0  0  0  0  0  0  0  0  0  0  0  0
   38.1567  -32.9298  -20.9274 N   0  0  0  0  0  0  0  0  0  0  0  0
   31.9536  -32.8833  -17.3580 C   0  0  0  0  0  0  0  0  0  0  0  0
   31.5838  -34.0832  -17.3575 O   0  0  0  0  0  0  0  0  0  0  0  0
   31.2136  -31.9760  -16.5348 N   0  0  0  0  0  0  0  0  0  0  0  0
   30.0411  -32.3688  -15.8066 C   0  0  0  0  0  0  0  0  0  0  0  0
   28.8228  -31.8568  -16.5023 C   0  0  0  0  0  0  0  0  0  0  0  0
   28.8862  -30.8431  -17.2543 O   0  0  0  0  0  0  0  0  0  0  0  0
   21.0645  -31.2583  -20.2610 O   0  0  0  0  0  0  0  0  0  0  0  0
   22.2120  -31.7289  -19.6176 C   0  0  0  0  0  0  0  0  0  0  0  0
   22.1307  -32.3859  -18.4147 C   0  0  0  0  0  0  0  0  0  0  0  0
   23.2764  -32.8353  -17.8096 C   0  0  0  0  0  0  0  0  0  0  0  0
   24.5288  -32.6411  -18.3875 C   0  0  0  0  0  0  0  0  0  0  0  0
   25.7513  -33.1160  -17.7186 C   0  0  0  0  0  0  0  0  0  0  0  0
   26.3293  -31.9920  -16.8949 C   0  0  2  0  0  0  0  0  0  0  0  0
   27.5720  -32.5051  -16.3271 N   0  0  0  0  0  0  0  0  0  0  0  0
   25.4237  -31.5116  -15.8312 C   0  0  0  0  0  0  0  0  0  0  0  0
   24.5688  -30.4341  -15.9553 O   0  0  0  0  0  0  0  0  0  0  0  0
   24.5762  -31.9803  -19.5908 C   0  0  0  0  0  0  0  0  0  0  0  0
   23.4304  -31.5109  -20.2323 C   0  0  0  0  0  0  0  0  0  0  0  0
   25.4357  -32.1390  -14.7177 O   0  0  0  0  0  0  0  0  0  0  0  0
  2  3  1  0
  2  1  1  1
  4  5  1  0
  4  3  1  0
  6  7  1  0
  6  5  1  0
  8  2  1  0
  9  8  2  0
 10  8  1  0
 11 10  1  0
 12 11  1  0
 12 21  1  0
 13 12  2  0
 15 14  1  0
 16 15  2  0
 17 16  1  0
 18 17  2  0
 18 24  1  0
 19 18  1  0
 20 22  1  0
 20 21  1  0
 20 19  1  1
 22 23  1  0
 24 25  2  0
 25 15  1  0
 26 22  2  0
M  END
$$$$
