KGY.pdb
     RDKit          3D

 26 26  0  0  1  0  0  0  0  0999 V2000
   25.7485  -22.9253  -15.5424 N   0  0  0  0  0  0  0  0  0  0  0  0
   24.3684  -22.8495  -15.8947 C   0  0  1  0  0  0  0  0  0  0  0  0
   23.7625  -24.1783  -16.2559 C   0  0  0  0  0  0  0  0  0  0  0  0
   24.6392  -25.0183  -17.1232 C   0  0  0  0  0  0  0  0  0  0  0  0
   25.4953  -25.9930  -16.3810 C   0  0  0  0  0  0  0  0  0  0  0  0
   26.3395  -26.8572  -17.2790 C   0  0  0  0  0  0  0  0  0  0  0  0
   27.3606  -27.5650  -16.5318 N   0  0  0  0  0  0  0  0  0  0  0  0
   23.5828  -22.2477  -14.7886 C   0  0  0  0  0  0  0  0  0  0  0  0
   22.3494  -22.0274  -14.8699 O   0  0  0  0  0  0  0  0  0  0  0  0
   24.2261  -21.8902  -13.5610 N   0  0  0  0  0  0  0  0  0  0  0  0
   23.5657  -21.1464  -12.5267 C   0  0  0  0  0  0  0  0  0  0  0  0
   24.5791  -20.4172  -11.7071 C   0  0  0  0  0  0  0  0  0  0  0  0
   25.1896  -19.4151  -12.1763 O   0  0  0  0  0  0  0  0  0  0  0  0
   29.8945  -18.6891   -5.0263 O   0  0  0  0  0  0  0  0  0  0  0  0
   28.9512  -19.3114   -5.8480 C   0  0  0  0  0  0  0  0  0  0  0  0
   29.2714  -20.4350   -6.5692 C   0  0  0  0  0  0  0  0  0  0  0  0
   28.3221  -21.0216   -7.3663 C   0  0  0  0  0  0  0  0  0  0  0  0
   27.0327  -20.5035   -7.4638 C   0  0  0  0  0  0  0  0  0  0  0  0
   26.0286  -21.1355   -8.3354 C   0  0  0  0  0  0  0  0  0  0  0  0
   26.1341  -20.5415   -9.7182 C   0  0  2  0  0  0  0  0  0  0  0  0
   24.8710  -20.8421  -10.3844 N   0  0  0  0  0  0  0  0  0  0  0  0
   27.2768  -21.0586  -10.4987 C   0  0  0  0  0  0  0  0  0  0  0  0
   28.4101  -20.3322  -10.8070 O   0  0  0  0  0  0  0  0  0  0  0  0
   26.7443  -19.3788   -6.7300 C   0  0  0  0  0  0  0  0  0  0  0  0
   27.6863  -18.7583   -5.9101 C   0  0  0  0  0  0  0  0  0  0  0  0
   27.2079  -22.2640  -10.9182 O   0  0  0  0  0  0  0  0  0  0  0  0
  2  3  1  0
  2  1  1  1
  4  5  1  0
  4  3  1  0
  6  7  1  0
  6  5  1  0
  8  2  1  0
  9  8  2  0
 10  8  1  0
 11 10  1  0
 12 11  1  0
 12 21  1  0
 13 12  2  0
 15 14  1  0
 16 15  2  0
 17 16  1  0
 18 17  2  0
 18 24  1  0
 19 18  1  0
 20 22  1  0
 20 21  1  0
 20 19  1  1
 22 23  1  0
 24 25  2  0
 25 15  1  0
 26 22  2  0
M  END
$$$$
