KGY.pdb
     RDKit          3D

 26 26  0  0  1  0  0  0  0  0999 V2000
   19.9546  -32.2447   -8.6173 N   0  0  0  0  0  0  0  0  0  0  0  0
   20.5686  -32.9237   -7.5235 C   0  0  1  0  0  0  0  0  0  0  0  0
   22.0369  -32.6304   -7.3769 C   0  0  0  0  0  0  0  0  0  0  0  0
   22.8830  -33.2826   -8.4184 C   0  0  0  0  0  0  0  0  0  0  0  0
   24.3427  -32.9806   -8.3105 C   0  0  0  0  0  0  0  0  0  0  0  0
   25.1908  -33.7577   -9.2814 C   0  0  0  0  0  0  0  0  0  0  0  0
   26.5907  -33.3953   -9.1754 N   0  0  0  0  0  0  0  0  0  0  0  0
   19.8816  -32.5863   -6.2518 C   0  0  0  0  0  0  0  0  0  0  0  0
   20.1344  -33.1646   -5.1663 O   0  0  0  0  0  0  0  0  0  0  0  0
   18.8820  -31.5623   -6.2240 N   0  0  0  0  0  0  0  0  0  0  0  0
   18.1912  -31.1845   -5.0242 C   0  0  0  0  0  0  0  0  0  0  0  0
   18.7086  -29.8701   -4.5395 C   0  0  0  0  0  0  0  0  0  0  0  0
   19.9065  -29.5287   -4.7531 O   0  0  0  0  0  0  0  0  0  0  0  0
   18.8278  -25.9698   -9.3197 O   0  0  0  0  0  0  0  0  0  0  0  0
   18.4740  -26.1544   -7.9807 C   0  0  0  0  0  0  0  0  0  0  0  0
   17.4711  -27.0225   -7.6262 C   0  0  0  0  0  0  0  0  0  0  0  0
   17.1486  -27.1807   -6.3027 C   0  0  0  0  0  0  0  0  0  0  0  0
   17.8166  -26.4786   -5.3020 C   0  0  0  0  0  0  0  0  0  0  0  0
   17.4489  -26.6476   -3.8865 C   0  0  0  0  0  0  0  0  0  0  0  0
   18.3225  -27.7152   -3.2757 C   0  0  2  0  0  0  0  0  0  0  0  0
   17.8577  -28.9830   -3.8292 N   0  0  0  0  0  0  0  0  0  0  0  0
   18.2824  -27.7394   -1.7992 C   0  0  0  0  0  0  0  0  0  0  0  0
   18.7903  -26.7475   -0.9835 O   0  0  0  0  0  0  0  0  0  0  0  0
   18.8145  -25.6180   -5.6895 C   0  0  0  0  0  0  0  0  0  0  0  0
   19.1670  -25.4343   -7.0262 C   0  0  0  0  0  0  0  0  0  0  0  0
   17.7397  -28.7525   -1.2399 O   0  0  0  0  0  0  0  0  0  0  0  0
  2  3  1  0
  2  1  1  6
  4  5  1  0
  4  3  1  0
  6  7  1  0
  6  5  1  0
  8  2  1  0
  9  8  2  0
 10  8  1  0
 11 10  1  0
 12 11  1  0
 12 21  1  0
 13 12  2  0
 15 14  1  0
 16 15  2  0
 17 16  1  0
 18 17  2  0
 18 24  1  0
 19 18  1  0
 20 22  1  0
 20 21  1  0
 20 19  1  6
 22 23  1  0
 24 25  2  0
 25 15  1  0
 26 22  2  0
M  END
$$$$
