KGY.pdb
     RDKit          3D

 26 26  0  0  1  0  0  0  0  0999 V2000
   22.1996  -22.0610  -13.6224 N   0  0  0  0  0  0  0  0  0  0  0  0
   22.9211  -21.4739  -14.7037 C   0  0  1  0  0  0  0  0  0  0  0  0
   22.3162  -20.1928  -15.2097 C   0  0  0  0  0  0  0  0  0  0  0  0
   21.7578  -19.3286  -14.1291 C   0  0  0  0  0  0  0  0  0  0  0  0
   20.2831  -19.1016  -14.2162 C   0  0  0  0  0  0  0  0  0  0  0  0
   19.8093  -17.9157  -13.4194 C   0  0  0  0  0  0  0  0  0  0  0  0
   19.7359  -16.7196  -14.2356 N   0  0  0  0  0  0  0  0  0  0  0  0
   24.3291  -21.2181  -14.3098 C   0  0  0  0  0  0  0  0  0  0  0  0
   25.0688  -20.4036  -14.9148 O   0  0  0  0  0  0  0  0  0  0  0  0
   24.9020  -21.9120  -13.1968 N   0  0  0  0  0  0  0  0  0  0  0  0
   26.1618  -21.5427  -12.6171 C   0  0  0  0  0  0  0  0  0  0  0  0
   26.0016  -21.3567  -11.1440 C   0  0  0  0  0  0  0  0  0  0  0  0
   24.8527  -21.2677  -10.6252 O   0  0  0  0  0  0  0  0  0  0  0  0
   28.4322  -18.9952   -3.0426 O   0  0  0  0  0  0  0  0  0  0  0  0
   28.4243  -19.3936   -4.3818 C   0  0  0  0  0  0  0  0  0  0  0  0
   27.7919  -20.5475   -4.7739 C   0  0  0  0  0  0  0  0  0  0  0  0
   27.8029  -20.9100   -6.0965 C   0  0  0  0  0  0  0  0  0  0  0  0
   28.4432  -20.1326   -7.0588 C   0  0  0  0  0  0  0  0  0  0  0  0
   28.4593  -20.5426   -8.4727 C   0  0  0  0  0  0  0  0  0  0  0  0
   27.0607  -20.9242   -8.8899 C   0  0  2  0  0  0  0  0  0  0  0  0
   27.1430  -21.2771  -10.3035 N   0  0  0  0  0  0  0  0  0  0  0  0
   26.0654  -19.8545   -8.6716 C   0  0  0  0  0  0  0  0  0  0  0  0
   25.0583  -19.8998   -7.7278 O   0  0  0  0  0  0  0  0  0  0  0  0
   29.0665  -18.9846   -6.6342 C   0  0  0  0  0  0  0  0  0  0  0  0
   29.0739  -18.5877   -5.2974 C   0  0  0  0  0  0  0  0  0  0  0  0
   26.1440  -18.8152   -9.4115 O   0  0  0  0  0  0  0  0  0  0  0  0
  2  3  1  0
  2  1  1  1
  4  5  1  0
  4  3  1  0
  6  7  1  0
  6  5  1  0
  8  2  1  0
  9  8  2  0
 10  8  1  0
 11 10  1  0
 12 11  1  0
 12 21  1  0
 13 12  2  0
 15 14  1  0
 16 15  2  0
 17 16  1  0
 18 17  2  0
 18 24  1  0
 19 18  1  0
 20 22  1  0
 20 21  1  0
 20 19  1  6
 22 23  1  0
 24 25  2  0
 25 15  1  0
 26 22  2  0
M  END
$$$$
