KGY.pdb
     RDKit          3D

 26 26  0  0  1  0  0  0  0  0999 V2000
   27.2709  -21.4906  -18.1483 N   0  0  0  0  0  0  0  0  0  0  0  0
   27.6503  -20.2386  -17.5798 C   0  0  1  0  0  0  0  0  0  0  0  0
   28.2014  -19.2614  -18.5822 C   0  0  0  0  0  0  0  0  0  0  0  0
   27.7635  -19.5318  -19.9827 C   0  0  0  0  0  0  0  0  0  0  0  0
   26.3823  -19.0592  -20.3031 C   0  0  0  0  0  0  0  0  0  0  0  0
   25.9882  -19.2829  -21.7385 C   0  0  0  0  0  0  0  0  0  0  0  0
   24.6009  -18.9318  -21.9715 N   0  0  0  0  0  0  0  0  0  0  0  0
   26.4978  -19.6144  -16.8833 C   0  0  0  0  0  0  0  0  0  0  0  0
   26.5885  -18.5352  -16.2480 O   0  0  0  0  0  0  0  0  0  0  0  0
   25.2118  -20.2420  -16.9161 N   0  0  0  0  0  0  0  0  0  0  0  0
   24.0577  -19.6803  -16.2744 C   0  0  0  0  0  0  0  0  0  0  0  0
   23.7297  -20.4698  -15.0498 C   0  0  0  0  0  0  0  0  0  0  0  0
   24.0137  -21.6991  -14.9783 O   0  0  0  0  0  0  0  0  0  0  0  0
   29.0409  -20.9291  -12.0348 O   0  0  0  0  0  0  0  0  0  0  0  0
   27.6742  -20.6650  -11.9146 C   0  0  0  0  0  0  0  0  0  0  0  0
   26.8663  -21.4538  -11.1334 C   0  0  0  0  0  0  0  0  0  0  0  0
   25.5287  -21.1671  -11.0367 C   0  0  0  0  0  0  0  0  0  0  0  0
   24.9647  -20.0892  -11.7153 C   0  0  0  0  0  0  0  0  0  0  0  0
   23.5242  -19.8029  -11.6138 C   0  0  0  0  0  0  0  0  0  0  0  0
   22.7961  -20.5520  -12.7022 C   0  0  2  0  0  0  0  0  0  0  0  0
   23.0917  -19.8467  -13.9451 N   0  0  0  0  0  0  0  0  0  0  0  0
   21.3380  -20.6442  -12.4836 C   0  0  0  0  0  0  0  0  0  0  0  0
   20.7244  -21.5670  -11.6595 O   0  0  0  0  0  0  0  0  0  0  0  0
   25.7995  -19.3199  -12.4885 C   0  0  0  0  0  0  0  0  0  0  0  0
   27.1636  -19.5841  -12.6080 C   0  0  0  0  0  0  0  0  0  0  0  0
   20.5941  -19.8100  -13.1037 O   0  0  0  0  0  0  0  0  0  0  0  0
  2  3  1  0
  2  1  1  6
  4  5  1  0
  4  3  1  0
  6  7  1  0
  6  5  1  0
  8  2  1  0
  9  8  2  0
 10  8  1  0
 11 10  1  0
 12 11  1  0
 12 21  1  0
 13 12  2  0
 15 14  1  0
 16 15  2  0
 17 16  1  0
 18 17  2  0
 18 24  1  0
 19 18  1  0
 20 22  1  0
 20 21  1  0
 20 19  1  1
 22 23  1  0
 24 25  2  0
 25 15  1  0
 26 22  2  0
M  END
$$$$
