KGY.pdb
     RDKit          3D

 26 26  0  0  1  0  0  0  0  0999 V2000
   22.7361  -20.4483  -17.8243 N   0  0  0  0  0  0  0  0  0  0  0  0
   24.0625  -20.6613  -18.3039 C   0  0  1  0  0  0  0  0  0  0  0  0
   24.4591  -19.7321  -19.4186 C   0  0  0  0  0  0  0  0  0  0  0  0
   23.9071  -20.1247  -20.7481 C   0  0  0  0  0  0  0  0  0  0  0  0
   24.2044  -21.5326  -21.1520 C   0  0  0  0  0  0  0  0  0  0  0  0
   23.6606  -21.8968  -22.5075 C   0  0  0  0  0  0  0  0  0  0  0  0
   24.0158  -23.2529  -22.8779 N   0  0  0  0  0  0  0  0  0  0  0  0
   25.0420  -20.5294  -17.1966 C   0  0  0  0  0  0  0  0  0  0  0  0
   25.0996  -19.5183  -16.4544 O   0  0  0  0  0  0  0  0  0  0  0  0
   25.9770  -21.5808  -16.9344 N   0  0  0  0  0  0  0  0  0  0  0  0
   26.9585  -21.5040  -15.8903 C   0  0  0  0  0  0  0  0  0  0  0  0
   26.2897  -21.6351  -14.5615 C   0  0  0  0  0  0  0  0  0  0  0  0
   25.2728  -22.3719  -14.4199 O   0  0  0  0  0  0  0  0  0  0  0  0
   25.0446  -20.5648   -5.9241 O   0  0  0  0  0  0  0  0  0  0  0  0
   25.5624  -20.5483   -7.2217 C   0  0  0  0  0  0  0  0  0  0  0  0
   25.4900  -21.6575   -8.0275 C   0  0  0  0  0  0  0  0  0  0  0  0
   26.0080  -21.6080   -9.2964 C   0  0  0  0  0  0  0  0  0  0  0  0
   26.6098  -20.4536   -9.7921 C   0  0  0  0  0  0  0  0  0  0  0  0
   27.1748  -20.4203  -11.1511 C   0  0  0  0  0  0  0  0  0  0  0  0
   26.1772  -21.0162  -12.1132 C   0  0  2  0  0  0  0  0  0  0  0  0
   26.7899  -20.9306  -13.4349 N   0  0  0  0  0  0  0  0  0  0  0  0
   24.8636  -20.3405  -12.0974 C   0  0  0  0  0  0  0  0  0  0  0  0
   23.7356  -20.8314  -11.4699 O   0  0  0  0  0  0  0  0  0  0  0  0
   26.6665  -19.3614   -8.9612 C   0  0  0  0  0  0  0  0  0  0  0  0
   26.1494  -19.3787   -7.6661 C   0  0  0  0  0  0  0  0  0  0  0  0
   24.7672  -19.2230  -12.7102 O   0  0  0  0  0  0  0  0  0  0  0  0
  2  3  1  0
  2  1  1  1
  4  5  1  0
  4  3  1  0
  6  7  1  0
  6  5  1  0
  8  2  1  0
  9  8  2  0
 10  8  1  0
 11 10  1  0
 12 11  1  0
 12 21  1  0
 13 12  2  0
 15 14  1  0
 16 15  2  0
 17 16  1  0
 18 17  2  0
 18 24  1  0
 19 18  1  0
 20 22  1  0
 20 21  1  0
 20 19  1  1
 22 23  1  0
 24 25  2  0
 25 15  1  0
 26 22  2  0
M  END
$$$$
