KGY.pdb
     RDKit          3D

 26 26  0  0  1  0  0  0  0  0999 V2000
   25.8883  -21.2870  -16.1255 N   0  0  0  0  0  0  0  0  0  0  0  0
   25.8994  -19.8619  -16.0661 C   0  0  1  0  0  0  0  0  0  0  0  0
   25.0966  -19.2049  -17.1556 C   0  0  0  0  0  0  0  0  0  0  0  0
   23.8269  -19.9201  -17.4757 C   0  0  0  0  0  0  0  0  0  0  0  0
   23.9686  -21.0154  -18.4826 C   0  0  0  0  0  0  0  0  0  0  0  0
   22.6560  -21.6243  -18.8974 C   0  0  0  0  0  0  0  0  0  0  0  0
   22.8506  -22.8333  -19.6737 N   0  0  0  0  0  0  0  0  0  0  0  0
   25.3978  -19.3934  -14.7501 C   0  0  0  0  0  0  0  0  0  0  0  0
   25.3198  -18.1783  -14.4438 O   0  0  0  0  0  0  0  0  0  0  0  0
   24.9759  -20.3398  -13.7628 N   0  0  0  0  0  0  0  0  0  0  0  0
   24.4727  -19.9479  -12.4773 C   0  0  0  0  0  0  0  0  0  0  0  0
   25.4307  -20.3709  -11.4125 C   0  0  0  0  0  0  0  0  0  0  0  0
   26.1971  -21.3602  -11.5888 O   0  0  0  0  0  0  0  0  0  0  0  0
   29.9087  -20.0811   -3.8651 O   0  0  0  0  0  0  0  0  0  0  0  0
   29.0469  -19.7791   -4.9226 C   0  0  0  0  0  0  0  0  0  0  0  0
   29.2766  -18.6978   -5.7370 C   0  0  0  0  0  0  0  0  0  0  0  0
   28.4112  -18.4291   -6.7663 C   0  0  0  0  0  0  0  0  0  0  0  0
   27.2977  -19.2302   -7.0086 C   0  0  0  0  0  0  0  0  0  0  0  0
   26.3692  -18.9204   -8.1083 C   0  0  0  0  0  0  0  0  0  0  0  0
   26.3496  -20.0775   -9.0760 C   0  0  2  0  0  0  0  0  0  0  0  0
   25.4933  -19.6639  -10.1830 N   0  0  0  0  0  0  0  0  0  0  0  0
   25.8658  -21.3395   -8.4796 C   0  0  0  0  0  0  0  0  0  0  0  0
   24.5618  -21.5749   -8.0906 O   0  0  0  0  0  0  0  0  0  0  0  0
   27.0958  -20.3038   -6.1760 C   0  0  0  0  0  0  0  0  0  0  0  0
   27.9565  -20.6046   -5.1208 C   0  0  0  0  0  0  0  0  0  0  0  0
   26.7174  -22.2778   -8.3119 O   0  0  0  0  0  0  0  0  0  0  0  0
  2  3  1  0
  2  1  1  1
  4  5  1  0
  4  3  1  0
  6  7  1  0
  6  5  1  0
  8  2  1  0
  9  8  2  0
 10  8  1  0
 11 10  1  0
 12 11  1  0
 12 21  1  0
 13 12  2  0
 15 14  1  0
 16 15  2  0
 17 16  1  0
 18 17  2  0
 18 24  1  0
 19 18  1  0
 20 22  1  0
 20 21  1  0
 20 19  1  1
 22 23  1  0
 24 25  2  0
 25 15  1  0
 26 22  2  0
M  END
$$$$
