TNL.pdb
     RDKit          3D

 24 23  0  0  1  0  0  0  0  0999 V2000
   19.2759  -12.0719  -15.3454 C   0  0  0  0  0  0  0  0  0  0  0  0
   17.9579  -12.1077  -16.0480 C   0  0  1  0  0  0  0  0  0  0  0  0
   17.4069  -13.3862  -15.7792 O   0  0  0  0  0  0  0  0  0  0  0  0
   16.9539  -11.0872  -15.5524 C   0  0  2  0  0  0  0  0  0  0  0  0
   15.6959  -11.3565  -16.2583 N   0  0  0  0  0  0  0  0  0  0  0  0
   17.3359   -9.6916  -15.8487 C   0  0  0  0  0  0  0  0  0  0  0  0
   17.7232   -9.3552  -17.0187 O   0  0  0  0  0  0  0  0  0  0  0  0
   18.0591   -4.6518  -15.8581 N   0  0  0  0  0  0  0  0  0  0  0  0
   16.8299   -5.0114  -15.2473 C   0  0  0  0  0  0  0  0  0  0  0  0
   15.9536   -4.1373  -15.0630 O   0  0  0  0  0  0  0  0  0  0  0  0
   16.5919   -6.3904  -14.8380 C   0  0  0  0  0  0  0  0  0  0  0  0
   17.7482   -7.3257  -15.1095 C   0  0  2  0  0  0  0  0  0  0  0  0
   17.2850   -8.6865  -14.8590 N   0  0  0  0  0  0  0  0  0  0  0  0
   18.8734   -7.0537  -14.1442 C   0  0  0  0  0  0  0  0  0  0  0  0
   18.7300   -7.1098  -12.8992 O   0  0  0  0  0  0  0  0  0  0  0  0
   23.1841   -9.8123  -13.9036 C   0  0  0  0  0  0  0  0  0  0  0  0
   21.9460   -8.8995  -13.5593 C   0  0  1  0  0  0  0  0  0  0  0  0
   21.7202   -9.0845  -12.0649 C   0  0  0  0  0  0  0  0  0  0  0  0
   22.3173   -7.4944  -13.8587 C   0  0  0  0  0  0  0  0  0  0  0  0
   21.2901   -6.4724  -13.6608 C   0  0  2  0  0  0  0  0  0  0  0  0
   20.1684   -6.7159  -14.6140 N   0  0  0  0  0  0  0  0  0  0  0  0
   21.5911   -5.0653  -13.7416 C   0  0  0  0  0  0  0  0  0  0  0  0
   22.3955   -4.4476  -12.7582 O   0  0  0  0  0  0  0  0  0  0  0  0
   21.1907   -4.3031  -14.6385 O   0  0  0  0  0  0  0  0  0  0  0  0
  2  1  1  1
  2  3  1  0
  4  2  1  0
  4  5  1  6
  6  4  1  0
  6  7  2  0
  9 11  1  0
  9  8  1  0
 10  9  2  0
 12 11  1  1
 12 13  1  0
 12 14  1  0
 13  6  1  0
 14 15  2  0
 14 21  1  0
 17 16  1  1
 18 17  1  0
 19 17  1  0
 20 19  1  6
 21 20  1  0
 22 23  1  0
 22 20  1  0
 24 22  2  0
M  END
$$$$
