TNL.pdb
     RDKit          3D

 24 23  0  0  1  0  0  0  0  0999 V2000
   23.0677  -14.9842  -16.5850 C   0  0  0  0  0  0  0  0  0  0  0  0
   22.0940  -15.6539  -17.4991 C   0  0  1  0  0  0  0  0  0  0  0  0
   22.0390  -17.0090  -17.0857 O   0  0  0  0  0  0  0  0  0  0  0  0
   20.6807  -15.1147  -17.4152 C   0  0  2  0  0  0  0  0  0  0  0  0
   19.8675  -15.9195  -18.3340 N   0  0  0  0  0  0  0  0  0  0  0  0
   20.5608  -13.7050  -17.8393 C   0  0  0  0  0  0  0  0  0  0  0  0
   20.8927  -13.3482  -19.0202 O   0  0  0  0  0  0  0  0  0  0  0  0
   19.6765   -8.6247  -18.0246 N   0  0  0  0  0  0  0  0  0  0  0  0
   18.5267   -9.4088  -17.7478 C   0  0  0  0  0  0  0  0  0  0  0  0
   17.3917   -8.8869  -17.8213 O   0  0  0  0  0  0  0  0  0  0  0  0
   18.6693  -10.8126  -17.3807 C   0  0  0  0  0  0  0  0  0  0  0  0
   20.1012  -11.2921  -17.3096 C   0  0  2  0  0  0  0  0  0  0  0  0
   20.0767  -12.7095  -16.9636 N   0  0  0  0  0  0  0  0  0  0  0  0
   20.8338  -10.5766  -16.2037 C   0  0  0  0  0  0  0  0  0  0  0  0
   20.5521  -10.7299  -14.9909 O   0  0  0  0  0  0  0  0  0  0  0  0
   26.2085  -10.1806  -15.9741 C   0  0  0  0  0  0  0  0  0  0  0  0
   24.6757  -10.3642  -15.6555 C   0  0  1  0  0  0  0  0  0  0  0  0
   24.6311  -10.9849  -14.2658 C   0  0  0  0  0  0  0  0  0  0  0  0
   24.0474   -9.0201  -15.6447 C   0  0  0  0  0  0  0  0  0  0  0  0
   22.6064   -8.9550  -15.4032 C   0  0  2  0  0  0  0  0  0  0  0  0
   21.8947   -9.6813  -16.4951 N   0  0  0  0  0  0  0  0  0  0  0  0
   21.9185   -7.6996  -15.2374 C   0  0  0  0  0  0  0  0  0  0  0  0
   21.8319   -7.0933  -13.9644 O   0  0  0  0  0  0  0  0  0  0  0  0
   21.3651   -7.0659  -16.1528 O   0  0  0  0  0  0  0  0  0  0  0  0
  2  1  1  1
  2  3  1  0
  4  2  1  0
  4  5  1  6
  6  4  1  0
  6  7  2  0
  9 11  1  0
  9  8  1  0
 10  9  2  0
 12 11  1  1
 12 13  1  0
 12 14  1  0
 13  6  1  0
 14 15  2  0
 14 21  1  0
 17 16  1  1
 18 17  1  0
 19 17  1  0
 20 19  1  6
 21 20  1  0
 22 23  1  0
 22 20  1  0
 24 22  2  0
M  END
$$$$
