TNL.pdb
     RDKit          3D

 24 23  0  0  1  0  0  0  0  0999 V2000
   13.8316  -13.0411  -17.7612 C   0  0  0  0  0  0  0  0  0  0  0  0
   14.8226  -12.1012  -18.3668 C   0  0  1  0  0  0  0  0  0  0  0  0
   14.2876  -10.8005  -18.1868 O   0  0  0  0  0  0  0  0  0  0  0  0
   16.1835  -12.1088  -17.7013 C   0  0  2  0  0  0  0  0  0  0  0  0
   15.9619  -11.7943  -16.2853 N   0  0  0  0  0  0  0  0  0  0  0  0
   17.1092  -11.0915  -18.2395 C   0  0  0  0  0  0  0  0  0  0  0  0
   17.3630  -11.0365  -19.4904 O   0  0  0  0  0  0  0  0  0  0  0  0
   20.2162   -7.1175  -19.0281 N   0  0  0  0  0  0  0  0  0  0  0  0
   18.9206   -7.3474  -19.5593 C   0  0  0  0  0  0  0  0  0  0  0  0
   18.5212   -6.6643  -20.5289 O   0  0  0  0  0  0  0  0  0  0  0  0
   18.0626   -8.3728  -18.9779 C   0  0  0  0  0  0  0  0  0  0  0  0
   18.7272   -9.1992  -17.9006 C   0  0  2  0  0  0  0  0  0  0  0  0
   17.7398  -10.1491  -17.3989 N   0  0  0  0  0  0  0  0  0  0  0  0
   19.1263   -8.3194  -16.7437 C   0  0  0  0  0  0  0  0  0  0  0  0
   18.2899   -7.7591  -15.9951 O   0  0  0  0  0  0  0  0  0  0  0  0
   21.0279   -9.1688  -12.1877 C   0  0  0  0  0  0  0  0  0  0  0  0
   22.2077   -9.1256  -13.2321 C   0  0  1  0  0  0  0  0  0  0  0  0
   22.9978  -10.4046  -12.9910 C   0  0  0  0  0  0  0  0  0  0  0  0
   21.6141   -9.1300  -14.5920 C   0  0  0  0  0  0  0  0  0  0  0  0
   20.9526   -7.9048  -15.0392 C   0  0  2  0  0  0  0  0  0  0  0  0
   20.4933   -8.0836  -16.4475 N   0  0  0  0  0  0  0  0  0  0  0  0
   21.6093   -6.6230  -14.9878 C   0  0  0  0  0  0  0  0  0  0  0  0
   21.7211   -5.9243  -13.7651 O   0  0  0  0  0  0  0  0  0  0  0  0
   22.1125   -6.0424  -15.9653 O   0  0  0  0  0  0  0  0  0  0  0  0
  2  1  1  1
  2  3  1  0
  4  2  1  0
  4  5  1  1
  6  4  1  0
  6  7  2  0
  9 11  1  0
  9  8  1  0
 10  9  2  0
 12 11  1  6
 12 13  1  0
 12 14  1  0
 13  6  1  0
 14 15  2  0
 14 21  1  0
 17 16  1  1
 18 17  1  0
 19 17  1  0
 20 19  1  6
 21 20  1  0
 22 23  1  0
 22 20  1  0
 24 22  2  0
M  END
$$$$
