TNL.pdb
     RDKit          3D

 24 23  0  0  1  0  0  0  0  0999 V2000
   26.4125  -15.7109  -13.9227 C   0  0  0  0  0  0  0  0  0  0  0  0
   25.7659  -15.6006  -15.2651 C   0  0  1  0  0  0  0  0  0  0  0  0
   26.0751  -14.3014  -15.7417 O   0  0  0  0  0  0  0  0  0  0  0  0
   26.2889  -16.5793  -16.2965 C   0  0  2  0  0  0  0  0  0  0  0  0
   25.6487  -16.2313  -17.5702 N   0  0  0  0  0  0  0  0  0  0  0  0
   25.9481  -17.9858  -16.0012 C   0  0  0  0  0  0  0  0  0  0  0  0
   25.0103  -18.5772  -16.6359 O   0  0  0  0  0  0  0  0  0  0  0  0
   26.0951  -22.8986  -14.5413 N   0  0  0  0  0  0  0  0  0  0  0  0
   27.2504  -22.3978  -15.1953 C   0  0  0  0  0  0  0  0  0  0  0  0
   28.1045  -23.1981  -15.6382 O   0  0  0  0  0  0  0  0  0  0  0  0
   27.4389  -20.9602  -15.3491 C   0  0  0  0  0  0  0  0  0  0  0  0
   26.3394  -20.1221  -14.7376 C   0  0  2  0  0  0  0  0  0  0  0  0
   26.6421  -18.7224  -15.0174 N   0  0  0  0  0  0  0  0  0  0  0  0
   26.3344  -20.2856  -13.2393 C   0  0  0  0  0  0  0  0  0  0  0  0
   27.3026  -19.9506  -12.5154 O   0  0  0  0  0  0  0  0  0  0  0  0
   27.2273  -21.0577   -8.4877 C   0  0  0  0  0  0  0  0  0  0  0  0
   26.1641  -20.0134   -9.0010 C   0  0  1  0  0  0  0  0  0  0  0  0
   26.6828  -18.6589   -8.5378 C   0  0  0  0  0  0  0  0  0  0  0  0
   26.1368  -20.0803  -10.4830 C   0  0  0  0  0  0  0  0  0  0  0  0
   25.2221  -21.0437  -11.0944 C   0  0  2  0  0  0  0  0  0  0  0  0
   25.2106  -20.8369  -12.5720 N   0  0  0  0  0  0  0  0  0  0  0  0
   23.8427  -21.1461  -10.6898 C   0  0  0  0  0  0  0  0  0  0  0  0
   23.4890  -21.8674   -9.5278 O   0  0  0  0  0  0  0  0  0  0  0  0
   22.8845  -20.6353  -11.2954 O   0  0  0  0  0  0  0  0  0  0  0  0
  2  1  1  1
  2  3  1  0
  4  2  1  0
  4  5  1  6
  6  4  1  0
  6  7  2  0
  9 11  1  0
  9  8  1  0
 10  9  2  0
 12 11  1  6
 12 13  1  0
 12 14  1  0
 13  6  1  0
 14 15  2  0
 14 21  1  0
 17 16  1  6
 18 17  1  0
 19 17  1  0
 20 19  1  1
 21 20  1  0
 22 23  1  0
 22 20  1  0
 24 22  2  0
M  END
$$$$
