TNL.pdb
     RDKit          3D

 24 23  0  0  1  0  0  0  0  0999 V2000
   15.2599  -11.0233  -13.3768 C   0  0  0  0  0  0  0  0  0  0  0  0
   14.9706  -12.3456  -14.0093 C   0  0  1  0  0  0  0  0  0  0  0  0
   13.6504  -12.6846  -13.6185 O   0  0  0  0  0  0  0  0  0  0  0  0
   14.9878  -12.3345  -15.5240 C   0  0  2  0  0  0  0  0  0  0  0  0
   14.8576  -13.7305  -15.9571 N   0  0  0  0  0  0  0  0  0  0  0  0
   16.2447  -11.8106  -16.0960 C   0  0  0  0  0  0  0  0  0  0  0  0
   17.1906  -12.6024  -16.4282 O   0  0  0  0  0  0  0  0  0  0  0  0
   18.7414   -8.3303  -19.8824 N   0  0  0  0  0  0  0  0  0  0  0  0
   18.4422   -8.1826  -18.5032 C   0  0  0  0  0  0  0  0  0  0  0  0
   19.1595   -7.4439  -17.7919 O   0  0  0  0  0  0  0  0  0  0  0  0
   17.3065   -8.8877  -17.9212 C   0  0  0  0  0  0  0  0  0  0  0  0
   17.6811   -9.8949  -16.8580 C   0  0  2  0  0  0  0  0  0  0  0  0
   16.4438  -10.4278  -16.2975 N   0  0  0  0  0  0  0  0  0  0  0  0
   18.4212   -9.2138  -15.7355 C   0  0  0  0  0  0  0  0  0  0  0  0
   17.8402   -8.5620  -14.8347 O   0  0  0  0  0  0  0  0  0  0  0  0
   23.4454   -9.1890  -15.5363 C   0  0  0  0  0  0  0  0  0  0  0  0
   22.4384  -10.2740  -14.9948 C   0  0  1  0  0  0  0  0  0  0  0  0
   23.3114  -11.3255  -14.3237 C   0  0  0  0  0  0  0  0  0  0  0  0
   21.5544   -9.6198  -13.9987 C   0  0  0  0  0  0  0  0  0  0  0  0
   20.5647   -8.6682  -14.5026 C   0  0  2  0  0  0  0  0  0  0  0  0
   19.8353   -9.2833  -15.6497 N   0  0  0  0  0  0  0  0  0  0  0  0
   20.9315   -7.3393  -14.9224 C   0  0  0  0  0  0  0  0  0  0  0  0
   21.4014   -6.3955  -13.9821 O   0  0  0  0  0  0  0  0  0  0  0  0
   20.8711   -6.9212  -16.0917 O   0  0  0  0  0  0  0  0  0  0  0  0
  2  1  1  1
  2  3  1  0
  4  2  1  0
  4  5  1  6
  6  4  1  0
  6  7  2  0
  9 11  1  0
  9  8  1  0
 10  9  2  0
 12 11  1  6
 12 13  1  0
 12 14  1  0
 13  6  1  0
 14 15  2  0
 14 21  1  0
 17 16  1  1
 18 17  1  0
 19 17  1  0
 20 19  1  6
 21 20  1  0
 22 23  1  0
 22 20  1  0
 24 22  2  0
M  END
$$$$
