TNL.pdb
     RDKit          3D

 24 23  0  0  1  0  0  0  0  0999 V2000
   22.1300  -20.6750  -12.0380 C   0  0  0  0  0  0  0  0  0  0  0  0
   22.3394  -21.3658  -13.3461 C   0  0  1  0  0  0  0  0  0  0  0  0
   21.2685  -20.9556  -14.1799 O   0  0  0  0  0  0  0  0  0  0  0  0
   23.6194  -20.9835  -14.0605 C   0  0  2  0  0  0  0  0  0  0  0  0
   23.6065  -21.6819  -15.3509 N   0  0  0  0  0  0  0  0  0  0  0  0
   24.8420  -21.4015  -13.3449 C   0  0  0  0  0  0  0  0  0  0  0  0
   25.2838  -22.5956  -13.4500 O   0  0  0  0  0  0  0  0  0  0  0  0
   27.8788  -18.9223  -14.5103 N   0  0  0  0  0  0  0  0  0  0  0  0
   28.1585  -20.0494  -13.6949 C   0  0  0  0  0  0  0  0  0  0  0  0
   28.6345  -21.0838  -14.2142 O   0  0  0  0  0  0  0  0  0  0  0  0
   27.8923  -20.0003  -12.2623 C   0  0  0  0  0  0  0  0  0  0  0  0
   26.7679  -20.9037  -11.8096 C   0  0  2  0  0  0  0  0  0  0  0  0
   25.5623  -20.5038  -12.5278 N   0  0  0  0  0  0  0  0  0  0  0  0
   26.4986  -20.7009  -10.3405 C   0  0  0  0  0  0  0  0  0  0  0  0
   25.5838  -19.9565   -9.9131 O   0  0  0  0  0  0  0  0  0  0  0  0
   28.3116  -21.1131   -5.0205 C   0  0  0  0  0  0  0  0  0  0  0  0
   28.0872  -19.8739   -5.9684 C   0  0  1  0  0  0  0  0  0  0  0  0
   29.2252  -18.9156   -5.6447 C   0  0  0  0  0  0  0  0  0  0  0  0
   28.1896  -20.3473   -7.3709 C   0  0  0  0  0  0  0  0  0  0  0  0
   27.0619  -21.1096   -7.9058 C   0  0  2  0  0  0  0  0  0  0  0  0
   27.2855  -21.3576   -9.3600 N   0  0  0  0  0  0  0  0  0  0  0  0
   25.7026  -20.6481   -7.7786 C   0  0  0  0  0  0  0  0  0  0  0  0
   25.3634  -19.3186   -8.1149 O   0  0  0  0  0  0  0  0  0  0  0  0
   24.7506  -21.3419   -7.3810 O   0  0  0  0  0  0  0  0  0  0  0  0
  2  1  1  1
  2  3  1  0
  4  2  1  0
  4  5  1  6
  6  4  1  0
  6  7  2  0
  9 11  1  0
  9  8  1  0
 10  9  2  0
 12 11  1  6
 12 13  1  0
 12 14  1  0
 13  6  1  0
 14 15  2  0
 14 21  1  0
 17 16  1  1
 18 17  1  0
 19 17  1  0
 20 19  1  6
 21 20  1  0
 22 23  1  0
 22 20  1  0
 24 22  2  0
M  END
$$$$
