TNL.pdb
     RDKit          3D

 24 23  0  0  1  0  0  0  0  0999 V2000
   17.1040  -16.7483  -17.2676 C   0  0  0  0  0  0  0  0  0  0  0  0
   17.5795  -15.4032  -17.7113 C   0  0  1  0  0  0  0  0  0  0  0  0
   16.4267  -14.5794  -17.7634 O   0  0  0  0  0  0  0  0  0  0  0  0
   18.5505  -14.7348  -16.7598 C   0  0  2  0  0  0  0  0  0  0  0  0
   17.8480  -14.5798  -15.4809 N   0  0  0  0  0  0  0  0  0  0  0  0
   18.9730  -13.3888  -17.1971 C   0  0  0  0  0  0  0  0  0  0  0  0
   19.6503  -13.2333  -18.2691 O   0  0  0  0  0  0  0  0  0  0  0  0
   17.3334  -10.7142  -19.1356 N   0  0  0  0  0  0  0  0  0  0  0  0
   16.9319  -10.0107  -17.9706 C   0  0  0  0  0  0  0  0  0  0  0  0
   15.8505   -9.3809  -17.9722 O   0  0  0  0  0  0  0  0  0  0  0  0
   17.7750  -10.0231  -16.7812 C   0  0  0  0  0  0  0  0  0  0  0  0
   19.0049  -10.8936  -16.9025 C   0  0  2  0  0  0  0  0  0  0  0  0
   18.6442  -12.2345  -16.4543 N   0  0  0  0  0  0  0  0  0  0  0  0
   20.0881  -10.3928  -15.9818 C   0  0  0  0  0  0  0  0  0  0  0  0
   19.9670  -10.3796  -14.7332 O   0  0  0  0  0  0  0  0  0  0  0  0
   24.9247  -10.4220  -13.9529 C   0  0  0  0  0  0  0  0  0  0  0  0
   24.9002   -9.6140  -15.3060 C   0  0  1  0  0  0  0  0  0  0  0  0
   26.1472  -10.0604  -16.0572 C   0  0  0  0  0  0  0  0  0  0  0  0
   23.6775  -10.0056  -16.0497 C   0  0  0  0  0  0  0  0  0  0  0  0
   22.4054   -9.4502  -15.5892 C   0  0  2  0  0  0  0  0  0  0  0  0
   21.3151   -9.9055  -16.5003 N   0  0  0  0  0  0  0  0  0  0  0  0
   22.2149   -8.0334  -15.4071 C   0  0  0  0  0  0  0  0  0  0  0  0
   22.3645   -7.4492  -14.1295 O   0  0  0  0  0  0  0  0  0  0  0  0
   21.9161   -7.2343  -16.3114 O   0  0  0  0  0  0  0  0  0  0  0  0
  2  1  1  1
  2  3  1  0
  4  2  1  0
  4  5  1  1
  6  4  1  0
  6  7  2  0
  9 11  1  0
  9  8  1  0
 10  9  2  0
 12 11  1  1
 12 13  1  0
 12 14  1  0
 13  6  1  0
 14 15  2  0
 14 21  1  0
 17 16  1  1
 18 17  1  0
 19 17  1  0
 20 19  1  6
 21 20  1  0
 22 23  1  0
 22 20  1  0
 24 22  2  0
M  END
$$$$
