TNL.pdb
     RDKit          3D

 24 23  0  0  1  0  0  0  0  0999 V2000
   14.4026  -13.4356  -17.8572 C   0  0  0  0  0  0  0  0  0  0  0  0
   13.9310  -12.0525  -17.5463 C   0  0  1  0  0  0  0  0  0  0  0  0
   12.6670  -12.2023  -16.9217 O   0  0  0  0  0  0  0  0  0  0  0  0
   14.8104  -11.2927  -16.5744 C   0  0  2  0  0  0  0  0  0  0  0  0
   14.0642  -10.0919  -16.1812 N   0  0  0  0  0  0  0  0  0  0  0  0
   16.0892  -10.8446  -17.1621 C   0  0  0  0  0  0  0  0  0  0  0  0
   16.9112  -11.6881  -17.6571 O   0  0  0  0  0  0  0  0  0  0  0  0
   17.8112   -8.5940  -20.8817 N   0  0  0  0  0  0  0  0  0  0  0  0
   16.9480   -7.9992  -19.9254 C   0  0  0  0  0  0  0  0  0  0  0  0
   15.7845   -7.6806  -20.2584 O   0  0  0  0  0  0  0  0  0  0  0  0
   17.4156   -7.7618  -18.5650 C   0  0  0  0  0  0  0  0  0  0  0  0
   17.7039   -9.0212  -17.7802 C   0  0  2  0  0  0  0  0  0  0  0  0
   16.4456   -9.4794  -17.2006 N   0  0  0  0  0  0  0  0  0  0  0  0
   18.6366   -8.7176  -16.6359 C   0  0  0  0  0  0  0  0  0  0  0  0
   18.2680   -8.1142  -15.5997 O   0  0  0  0  0  0  0  0  0  0  0  0
   22.4620   -9.8340  -13.0374 C   0  0  0  0  0  0  0  0  0  0  0  0
   23.0391   -9.6540  -14.4931 C   0  0  1  0  0  0  0  0  0  0  0  0
   24.0835  -10.7516  -14.6442 C   0  0  0  0  0  0  0  0  0  0  0  0
   21.9270   -9.8591  -15.4537 C   0  0  0  0  0  0  0  0  0  0  0  0
   20.9275   -8.7968  -15.5597 C   0  0  2  0  0  0  0  0  0  0  0  0
   19.9988   -9.1101  -16.6846 N   0  0  0  0  0  0  0  0  0  0  0  0
   21.3006   -7.4136  -15.7167 C   0  0  0  0  0  0  0  0  0  0  0  0
   21.5388   -6.6033  -14.5844 O   0  0  0  0  0  0  0  0  0  0  0  0
   21.4399   -6.8345  -16.8080 O   0  0  0  0  0  0  0  0  0  0  0  0
  2  1  1  1
  2  3  1  0
  4  2  1  0
  4  5  1  6
  6  4  1  0
  6  7  2  0
  9 11  1  0
  9  8  1  0
 10  9  2  0
 12 11  1  1
 12 13  1  0
 12 14  1  0
 13  6  1  0
 14 15  2  0
 14 21  1  0
 17 16  1  1
 18 17  1  0
 19 17  1  0
 20 19  1  6
 21 20  1  0
 22 23  1  0
 22 20  1  0
 24 22  2  0
M  END
$$$$
