TNL.pdb
     RDKit          3D

 24 23  0  0  1  0  0  0  0  0999 V2000
   18.8723  -10.4230  -14.7170 C   0  0  0  0  0  0  0  0  0  0  0  0
   17.5560  -10.6438  -15.3884 C   0  0  1  0  0  0  0  0  0  0  0  0
   17.5521  -11.9996  -15.8034 O   0  0  0  0  0  0  0  0  0  0  0  0
   16.3524  -10.4601  -14.4869 C   0  0  2  0  0  0  0  0  0  0  0  0
   15.1656  -10.7153  -15.3113 N   0  0  0  0  0  0  0  0  0  0  0  0
   16.2260   -9.0929  -13.9428 C   0  0  0  0  0  0  0  0  0  0  0  0
   15.9431   -8.1095  -14.7077 O   0  0  0  0  0  0  0  0  0  0  0  0
   15.8633   -6.2504   -8.4720 N   0  0  0  0  0  0  0  0  0  0  0  0
   15.9568   -6.2752   -9.8876 C   0  0  0  0  0  0  0  0  0  0  0  0
   16.0759   -5.2001  -10.5170 O   0  0  0  0  0  0  0  0  0  0  0  0
   15.9142   -7.5456  -10.6017 C   0  0  0  0  0  0  0  0  0  0  0  0
   16.3936   -7.4683  -12.0332 C   0  0  2  0  0  0  0  0  0  0  0  0
   16.4087   -8.8254  -12.5690 N   0  0  0  0  0  0  0  0  0  0  0  0
   17.8103   -6.9559  -12.0792 C   0  0  0  0  0  0  0  0  0  0  0  0
   18.7982   -7.6574  -11.7540 O   0  0  0  0  0  0  0  0  0  0  0  0
   22.4735   -6.0025  -13.0981 C   0  0  0  0  0  0  0  0  0  0  0  0
   21.4274   -5.9056  -14.2731 C   0  0  1  0  0  0  0  0  0  0  0  0
   21.8481   -6.9786  -15.2681 C   0  0  0  0  0  0  0  0  0  0  0  0
   20.0861   -6.2100  -13.7167 C   0  0  0  0  0  0  0  0  0  0  0  0
   19.4832   -5.2114  -12.8345 C   0  0  2  0  0  0  0  0  0  0  0  0
   18.0908   -5.6310  -12.5010 N   0  0  0  0  0  0  0  0  0  0  0  0
   19.4096   -3.8191  -13.1991 C   0  0  0  0  0  0  0  0  0  0  0  0
   20.4551   -2.9330  -12.8565 O   0  0  0  0  0  0  0  0  0  0  0  0
   18.4668   -3.2951  -13.8174 O   0  0  0  0  0  0  0  0  0  0  0  0
  2  1  1  1
  2  3  1  0
  4  2  1  0
  4  5  1  6
  6  4  1  0
  6  7  2  0
  9 11  1  0
  9  8  1  0
 10  9  2  0
 12 11  1  1
 12 13  1  0
 12 14  1  0
 13  6  1  0
 14 15  2  0
 14 21  1  0
 17 16  1  1
 18 17  1  0
 19 17  1  0
 20 19  1  6
 21 20  1  0
 22 23  1  0
 22 20  1  0
 24 22  2  0
M  END
$$$$
