TNL.pdb
     RDKit          3D

 24 23  0  0  1  0  0  0  0  0999 V2000
   27.7420  -18.2126  -16.3475 C   0  0  0  0  0  0  0  0  0  0  0  0
   27.1610  -19.5868  -16.2672 C   0  0  1  0  0  0  0  0  0  0  0  0
   27.8560  -20.3613  -17.2303 O   0  0  0  0  0  0  0  0  0  0  0  0
   27.3563  -20.2743  -14.9314 C   0  0  2  0  0  0  0  0  0  0  0  0
   27.0706  -21.6977  -15.1444 N   0  0  0  0  0  0  0  0  0  0  0  0
   26.4376  -19.7924  -13.8800 C   0  0  0  0  0  0  0  0  0  0  0  0
   26.4039  -18.5564  -13.5590 O   0  0  0  0  0  0  0  0  0  0  0  0
   23.4329  -18.6867  -14.3168 N   0  0  0  0  0  0  0  0  0  0  0  0
   22.6749  -19.7825  -13.8289 C   0  0  0  0  0  0  0  0  0  0  0  0
   21.5460  -20.0171  -14.3152 O   0  0  0  0  0  0  0  0  0  0  0  0
   23.2098  -20.6278  -12.7682 C   0  0  0  0  0  0  0  0  0  0  0  0
   24.5642  -20.1951  -12.2546 C   0  0  2  0  0  0  0  0  0  0  0  0
   25.5689  -20.6722  -13.1991 N   0  0  0  0  0  0  0  0  0  0  0  0
   24.8512  -20.8532  -10.9293 C   0  0  0  0  0  0  0  0  0  0  0  0
   25.1446  -22.0682  -10.8226 O   0  0  0  0  0  0  0  0  0  0  0  0
   27.8868  -18.5624   -7.1208 C   0  0  0  0  0  0  0  0  0  0  0  0
   27.2002  -19.5594   -8.1304 C   0  0  1  0  0  0  0  0  0  0  0  0
   28.1179  -20.7735   -8.1748 C   0  0  0  0  0  0  0  0  0  0  0  0
   25.8747  -19.9299   -7.5760 C   0  0  0  0  0  0  0  0  0  0  0  0
   25.0134  -20.7738   -8.4035 C   0  0  2  0  0  0  0  0  0  0  0  0
   24.8002  -20.1097   -9.7225 N   0  0  0  0  0  0  0  0  0  0  0  0
   23.7144  -21.2074   -7.9545 C   0  0  0  0  0  0  0  0  0  0  0  0
   23.5909  -22.0486   -6.8263 O   0  0  0  0  0  0  0  0  0  0  0  0
   22.6368  -20.8974   -8.4913 O   0  0  0  0  0  0  0  0  0  0  0  0
  2  1  1  1
  2  3  1  0
  4  2  1  0
  4  5  1  6
  6  4  1  0
  6  7  2  0
  9 11  1  0
  9  8  1  0
 10  9  2  0
 12 11  1  6
 12 13  1  0
 12 14  1  0
 13  6  1  0
 14 15  2  0
 14 21  1  0
 17 16  1  1
 18 17  1  0
 19 17  1  0
 20 19  1  1
 21 20  1  0
 22 23  1  0
 22 20  1  0
 24 22  2  0
M  END
$$$$
