TNL.pdb
     RDKit          3D

 24 23  0  0  1  0  0  0  0  0999 V2000
   17.3771   -7.2244  -18.8072 C   0  0  0  0  0  0  0  0  0  0  0  0
   16.3386   -7.9611  -18.0255 C   0  0  1  0  0  0  0  0  0  0  0  0
   15.3217   -8.3028  -18.9526 O   0  0  0  0  0  0  0  0  0  0  0  0
   16.8198   -9.2582  -17.4082 C   0  0  2  0  0  0  0  0  0  0  0  0
   15.6716   -9.8414  -16.7048 N   0  0  0  0  0  0  0  0  0  0  0  0
   17.8984   -9.0750  -16.4160 C   0  0  0  0  0  0  0  0  0  0  0  0
   17.6531   -8.5602  -15.2728 O   0  0  0  0  0  0  0  0  0  0  0  0
   22.6939   -8.9183  -14.3130 N   0  0  0  0  0  0  0  0  0  0  0  0
   22.6670   -9.9153  -15.3223 C   0  0  0  0  0  0  0  0  0  0  0  0
   23.6802  -10.6235  -15.5171 O   0  0  0  0  0  0  0  0  0  0  0  0
   21.4661  -10.1114  -16.1255 C   0  0  0  0  0  0  0  0  0  0  0  0
   20.3228   -9.1902  -15.7657 C   0  0  2  0  0  0  0  0  0  0  0  0
   19.2278   -9.4614  -16.6912 N   0  0  0  0  0  0  0  0  0  0  0  0
   20.7307   -7.7533  -15.9676 C   0  0  0  0  0  0  0  0  0  0  0  0
   20.9396   -7.2585  -17.1013 O   0  0  0  0  0  0  0  0  0  0  0  0
   20.6974   -2.9600  -16.9404 C   0  0  0  0  0  0  0  0  0  0  0  0
   20.1837   -3.2111  -15.4716 C   0  0  1  0  0  0  0  0  0  0  0  0
   18.8255   -2.5262  -15.4039 C   0  0  0  0  0  0  0  0  0  0  0  0
   20.0372   -4.6755  -15.2831 C   0  0  0  0  0  0  0  0  0  0  0  0
   21.2583   -5.4488  -15.0603 C   0  0  2  0  0  0  0  0  0  0  0  0
   20.8988   -6.8830  -14.8603 N   0  0  0  0  0  0  0  0  0  0  0  0
   22.1897   -5.1155  -14.0123 C   0  0  0  0  0  0  0  0  0  0  0  0
   23.1071   -4.0545  -14.1805 O   0  0  0  0  0  0  0  0  0  0  0  0
   22.2685   -5.7012  -12.9186 O   0  0  0  0  0  0  0  0  0  0  0  0
  2  1  1  6
  2  3  1  0
  4  2  1  0
  4  5  1  1
  6  4  1  0
  6  7  2  0
  9 11  1  0
  9  8  1  0
 10  9  2  0
 12 11  1  6
 12 13  1  0
 12 14  1  0
 13  6  1  0
 14 15  2  0
 14 21  1  0
 17 16  1  6
 18 17  1  0
 19 17  1  0
 20 19  1  1
 21 20  1  0
 22 23  1  0
 22 20  1  0
 24 22  2  0
M  END
$$$$
