TNL.pdb
     RDKit          3D

 24 23  0  0  1  0  0  0  0  0999 V2000
   26.3240  -16.1179  -16.4178 C   0  0  0  0  0  0  0  0  0  0  0  0
   26.6778  -17.5652  -16.5283 C   0  0  1  0  0  0  0  0  0  0  0  0
   27.7170  -17.6406  -17.4900 O   0  0  0  0  0  0  0  0  0  0  0  0
   27.2183  -18.1789  -15.2531 C   0  0  2  0  0  0  0  0  0  0  0  0
   27.9434  -19.3932  -15.6442 N   0  0  0  0  0  0  0  0  0  0  0  0
   26.1647  -18.5821  -14.2997 C   0  0  0  0  0  0  0  0  0  0  0  0
   25.3325  -17.7256  -13.8459 O   0  0  0  0  0  0  0  0  0  0  0  0
   23.0100  -19.8724  -14.9460 N   0  0  0  0  0  0  0  0  0  0  0  0
   23.3481  -21.2257  -14.6860 C   0  0  0  0  0  0  0  0  0  0  0  0
   22.8249  -22.1345  -15.3690 O   0  0  0  0  0  0  0  0  0  0  0  0
   24.2985  -21.5526  -13.6298 C   0  0  0  0  0  0  0  0  0  0  0  0
   24.9508  -20.3490  -12.9888 C   0  0  2  0  0  0  0  0  0  0  0  0
   26.0381  -19.9177  -13.8610 N   0  0  0  0  0  0  0  0  0  0  0  0
   25.5659  -20.7340  -11.6677 C   0  0  0  0  0  0  0  0  0  0  0  0
   26.7907  -20.9675  -11.5301 O   0  0  0  0  0  0  0  0  0  0  0  0
   28.5446  -21.0431   -7.8416 C   0  0  0  0  0  0  0  0  0  0  0  0
   27.1740  -20.2950   -7.6264 C   0  0  1  0  0  0  0  0  0  0  0  0
   27.5539  -18.9034   -7.1393 C   0  0  0  0  0  0  0  0  0  0  0  0
   26.4858  -20.2164   -8.9386 C   0  0  0  0  0  0  0  0  0  0  0  0
   25.3860  -21.1506   -9.1765 C   0  0  2  0  0  0  0  0  0  0  0  0
   24.7679  -20.8507  -10.5009 N   0  0  0  0  0  0  0  0  0  0  0  0
   24.2959  -21.2960   -8.2451 C   0  0  0  0  0  0  0  0  0  0  0  0
   24.5057  -21.9018   -6.9862 O   0  0  0  0  0  0  0  0  0  0  0  0
   23.1289  -20.9210   -8.4527 O   0  0  0  0  0  0  0  0  0  0  0  0
  2  1  1  1
  2  3  1  0
  4  2  1  0
  4  5  1  6
  6  4  1  0
  6  7  2  0
  9 11  1  0
  9  8  1  0
 10  9  2  0
 12 11  1  6
 12 13  1  0
 12 14  1  0
 13  6  1  0
 14 15  2  0
 14 21  1  0
 17 16  1  6
 18 17  1  0
 19 17  1  0
 20 19  1  1
 21 20  1  0
 22 23  1  0
 22 20  1  0
 24 22  2  0
M  END
$$$$
