TVI.pdb
     RDKit          3D

 23 22  0  0  1  0  0  0  0  0999 V2000
   29.2295  -22.9905  -17.0030 C   0  0  0  0  0  0  0  0  0  0  0  0
   28.5788  -21.9195  -16.1685 C   0  0  1  0  0  0  0  0  0  0  0  0
   29.0787  -20.6513  -16.4475 O   0  0  0  0  0  0  0  0  0  0  0  0
   27.0705  -21.9541  -16.3649 C   0  0  2  0  0  0  0  0  0  0  0  0
   26.8400  -21.3961  -17.6902 N   0  0  0  0  0  0  0  0  0  0  0  0
   26.3769  -21.1796  -15.3173 C   0  0  0  0  0  0  0  0  0  0  0  0
   26.4667  -19.9159  -15.2345 O   0  0  0  0  0  0  0  0  0  0  0  0
   22.7284  -20.2743  -12.4048 C   0  0  0  0  0  0  0  0  0  0  0  0
   23.3643  -21.0303  -13.5477 C   0  0  1  0  0  0  0  0  0  0  0  0
   22.9912  -20.3253  -14.8281 C   0  0  0  0  0  0  0  0  0  0  0  0
   24.8597  -21.0482  -13.3273 C   0  0  2  0  0  0  0  0  0  0  0  0
   25.5605  -21.8112  -14.3326 N   0  0  0  0  0  0  0  0  0  0  0  0
   25.2282  -21.4812  -11.9519 C   0  0  0  0  0  0  0  0  0  0  0  0
   25.0611  -22.6810  -11.6122 O   0  0  0  0  0  0  0  0  0  0  0  0
   29.7028  -20.2711   -9.2072 C   0  0  0  0  0  0  0  0  0  0  0  0
   28.4958  -21.0294   -9.7410 C   0  0  0  0  0  0  0  0  0  0  0  0
   27.2797  -20.4727   -9.0719 C   0  0  2  0  0  0  0  0  0  0  0  0
   27.3547  -20.7326   -7.5776 C   0  0  0  0  0  0  0  0  0  0  0  0
   25.9812  -21.0123   -9.6330 C   0  0  2  0  0  0  0  0  0  0  0  0
   25.7638  -20.6027  -10.9894 N   0  0  0  0  0  0  0  0  0  0  0  0
   24.8416  -20.6059   -8.7881 C   0  0  0  0  0  0  0  0  0  0  0  0
   24.3879  -21.4386   -7.7778 O   0  0  0  0  0  0  0  0  0  0  0  0
   24.2487  -19.5119   -8.9474 O   0  0  0  0  0  0  0  0  0  0  0  0
  2  1  1  6
  3  2  1  0
  4  2  1  0
  4  5  1  6
  6  7  2  0
  6  4  1  0
  9  8  1  1
  9 10  1  0
  9 11  1  0
 11 12  1  6
 12  6  1  0
 13 11  1  0
 13 20  1  0
 14 13  2  0
 15 16  1  0
 17 19  1  0
 17 16  1  0
 17 18  1  1
 19 21  1  0
 19 20  1  6
 21 23  2  0
 21 22  1  0
M  END
$$$$
