TVI.pdb
     RDKit          3D

 23 22  0  0  1  0  0  0  0  0999 V2000
   29.4070  -21.1532  -16.3611 C   0  0  0  0  0  0  0  0  0  0  0  0
   28.6391  -20.5261  -15.2280 C   0  0  1  0  0  0  0  0  0  0  0  0
   29.0406  -19.2185  -14.9733 O   0  0  0  0  0  0  0  0  0  0  0  0
   27.1470  -20.5794  -15.5208 C   0  0  2  0  0  0  0  0  0  0  0  0
   26.9507  -19.7268  -16.6852 N   0  0  0  0  0  0  0  0  0  0  0  0
   26.3579  -20.1144  -14.3635 C   0  0  0  0  0  0  0  0  0  0  0  0
   26.1905  -18.8826  -14.1057 O   0  0  0  0  0  0  0  0  0  0  0  0
   22.7439  -20.3670  -11.2901 C   0  0  0  0  0  0  0  0  0  0  0  0
   23.4676  -20.8490  -12.5255 C   0  0  1  0  0  0  0  0  0  0  0  0
   22.8942  -20.1117  -13.7101 C   0  0  0  0  0  0  0  0  0  0  0  0
   24.9427  -20.5708  -12.3465 C   0  0  2  0  0  0  0  0  0  0  0  0
   25.7341  -21.0288  -13.4637 N   0  0  0  0  0  0  0  0  0  0  0  0
   25.4673  -21.0864  -11.0527 C   0  0  0  0  0  0  0  0  0  0  0  0
   25.6629  -22.3209  -10.9089 O   0  0  0  0  0  0  0  0  0  0  0  0
   28.6073  -19.2694   -6.1154 C   0  0  0  0  0  0  0  0  0  0  0  0
   27.7865  -20.3737   -6.7664 C   0  0  0  0  0  0  0  0  0  0  0  0
   27.1390  -19.7976   -7.9851 C   0  0  2  0  0  0  0  0  0  0  0  0
   26.3548  -18.5534   -7.6071 C   0  0  0  0  0  0  0  0  0  0  0  0
   26.2460  -20.7781   -8.7154 C   0  0  2  0  0  0  0  0  0  0  0  0
   25.7619  -20.2507   -9.9573 N   0  0  0  0  0  0  0  0  0  0  0  0
   25.1160  -21.1883   -7.8597 C   0  0  0  0  0  0  0  0  0  0  0  0
   23.8524  -20.6597   -8.0688 O   0  0  0  0  0  0  0  0  0  0  0  0
   25.2509  -22.0154   -6.9262 O   0  0  0  0  0  0  0  0  0  0  0  0
  2  1  1  6
  3  2  1  0
  4  2  1  0
  4  5  1  6
  6  7  2  0
  6  4  1  0
  9  8  1  1
  9 10  1  0
  9 11  1  0
 11 12  1  6
 12  6  1  0
 13 11  1  0
 13 20  1  0
 14 13  2  0
 15 16  1  0
 17 19  1  0
 17 16  1  0
 17 18  1  1
 19 21  1  0
 19 20  1  6
 21 23  2  0
 21 22  1  0
M  END
$$$$
