TVI.pdb
     RDKit          3D

 23 22  0  0  1  0  0  0  0  0999 V2000
   22.4284  -12.8135  -16.3710 C   0  0  0  0  0  0  0  0  0  0  0  0
   21.4558  -13.5575  -17.2469 C   0  0  1  0  0  0  0  0  0  0  0  0
   21.6345  -14.9361  -17.1880 O   0  0  0  0  0  0  0  0  0  0  0  0
   20.0294  -13.1873  -16.8686 C   0  0  2  0  0  0  0  0  0  0  0  0
   19.1783  -13.9921  -17.7341 N   0  0  0  0  0  0  0  0  0  0  0  0
   19.7853  -11.7432  -17.0514 C   0  0  0  0  0  0  0  0  0  0  0  0
   19.8154  -11.1878  -18.1927 O   0  0  0  0  0  0  0  0  0  0  0  0
   17.4499   -9.6061  -14.4484 C   0  0  0  0  0  0  0  0  0  0  0  0
   17.7776   -9.1308  -15.8445 C   0  0  1  0  0  0  0  0  0  0  0  0
   17.5379   -7.6421  -15.8904 C   0  0  0  0  0  0  0  0  0  0  0  0
   19.2192   -9.4804  -16.1355 C   0  0  2  0  0  0  0  0  0  0  0  0
   19.4991  -10.8843  -15.9490 N   0  0  0  0  0  0  0  0  0  0  0  0
   20.1766   -8.6241  -15.3838 C   0  0  0  0  0  0  0  0  0  0  0  0
   20.4965   -8.9341  -14.2072 O   0  0  0  0  0  0  0  0  0  0  0  0
   25.3140   -5.9676  -16.8317 C   0  0  0  0  0  0  0  0  0  0  0  0
   24.2705   -6.0733  -15.7287 C   0  0  0  0  0  0  0  0  0  0  0  0
   23.0518   -6.7086  -16.3184 C   0  0  2  0  0  0  0  0  0  0  0  0
   22.6076   -5.9245  -17.5406 C   0  0  0  0  0  0  0  0  0  0  0  0
   21.9063   -6.8435  -15.3377 C   0  0  2  0  0  0  0  0  0  0  0  0
   20.7553   -7.4606  -15.9286 N   0  0  0  0  0  0  0  0  0  0  0  0
   21.5474   -5.5278  -14.7741 C   0  0  0  0  0  0  0  0  0  0  0  0
   20.3328   -4.9399  -15.0885 O   0  0  0  0  0  0  0  0  0  0  0  0
   22.3126   -4.9003  -14.0030 O   0  0  0  0  0  0  0  0  0  0  0  0
  2  1  1  1
  3  2  1  0
  4  2  1  0
  4  5  1  6
  6  7  2  0
  6  4  1  0
  9  8  1  1
  9 10  1  0
  9 11  1  0
 11 12  1  1
 12  6  1  0
 13 11  1  0
 13 20  1  0
 14 13  2  0
 15 16  1  0
 17 19  1  0
 17 16  1  0
 17 18  1  6
 19 21  1  0
 19 20  1  6
 21 23  2  0
 21 22  1  0
M  END
$$$$
