TVI.pdb
     RDKit          3D

 23 22  0  0  1  0  0  0  0  0999 V2000
   18.4048  -11.5214  -15.6794 C   0  0  0  0  0  0  0  0  0  0  0  0
   18.2029  -11.5899  -17.1698 C   0  0  1  0  0  0  0  0  0  0  0  0
   17.7258  -12.8292  -17.5852 O   0  0  0  0  0  0  0  0  0  0  0  0
   17.2647  -10.4790  -17.6175 C   0  0  2  0  0  0  0  0  0  0  0  0
   17.0850  -10.6777  -19.0490 N   0  0  0  0  0  0  0  0  0  0  0  0
   17.8289   -9.1488  -17.3167 C   0  0  0  0  0  0  0  0  0  0  0  0
   18.8540   -8.6947  -17.9125 O   0  0  0  0  0  0  0  0  0  0  0  0
   17.4453   -4.6975  -15.2822 C   0  0  0  0  0  0  0  0  0  0  0  0
   16.7595   -5.9443  -15.7899 C   0  0  1  0  0  0  0  0  0  0  0  0
   16.0279   -5.5813  -17.0582 C   0  0  0  0  0  0  0  0  0  0  0  0
   17.8155   -6.9993  -16.0287 C   0  0  2  0  0  0  0  0  0  0  0  0
   17.2502   -8.2922  -16.3337 N   0  0  0  0  0  0  0  0  0  0  0  0
   18.8033   -7.0789  -14.9183 C   0  0  0  0  0  0  0  0  0  0  0  0
   18.4257   -7.4451  -13.7754 O   0  0  0  0  0  0  0  0  0  0  0  0
   23.7636   -9.6353  -13.4644 C   0  0  0  0  0  0  0  0  0  0  0  0
   22.9917   -8.3639  -13.1413 C   0  0  0  0  0  0  0  0  0  0  0  0
   21.9667   -8.1722  -14.2133 C   0  0  2  0  0  0  0  0  0  0  0  0
   22.6479   -8.1323  -15.5700 C   0  0  0  0  0  0  0  0  0  0  0  0
   21.1132   -6.9370  -14.0191 C   0  0  2  0  0  0  0  0  0  0  0  0
   20.1659   -6.7591  -15.0802 N   0  0  0  0  0  0  0  0  0  0  0  0
   21.9602   -5.7362  -13.8842 C   0  0  0  0  0  0  0  0  0  0  0  0
   21.9857   -4.7818  -14.8883 O   0  0  0  0  0  0  0  0  0  0  0  0
   22.6780   -5.5351  -12.8751 O   0  0  0  0  0  0  0  0  0  0  0  0
  2  1  1  1
  3  2  1  0
  4  2  1  0
  4  5  1  6
  6  7  2  0
  6  4  1  0
  9  8  1  6
  9 10  1  0
  9 11  1  0
 11 12  1  1
 12  6  1  0
 13 11  1  0
 13 20  1  0
 14 13  2  0
 15 16  1  0
 17 19  1  0
 17 16  1  0
 17 18  1  6
 19 21  1  0
 19 20  1  6
 21 23  2  0
 21 22  1  0
M  END
$$$$
