TVI.pdb
     RDKit          3D

 23 22  0  0  1  0  0  0  0  0999 V2000
   19.8253  -10.7950  -20.1438 C   0  0  0  0  0  0  0  0  0  0  0  0
   19.3491  -12.1778  -19.7862 C   0  0  1  0  0  0  0  0  0  0  0  0
   19.1361  -12.9733  -20.9077 O   0  0  0  0  0  0  0  0  0  0  0  0
   20.3417  -12.8400  -18.8423 C   0  0  2  0  0  0  0  0  0  0  0  0
   19.8151  -14.1765  -18.6025 N   0  0  0  0  0  0  0  0  0  0  0  0
   20.4803  -12.0739  -17.5884 C   0  0  0  0  0  0  0  0  0  0  0  0
   19.5910  -12.0864  -16.6824 O   0  0  0  0  0  0  0  0  0  0  0  0
   22.9844   -9.5708  -14.2610 C   0  0  0  0  0  0  0  0  0  0  0  0
   22.9736  -10.5866  -15.3792 C   0  0  1  0  0  0  0  0  0  0  0  0
   23.0617  -11.9570  -14.7549 C   0  0  0  0  0  0  0  0  0  0  0  0
   21.6968  -10.4059  -16.1682 C   0  0  2  0  0  0  0  0  0  0  0  0
   21.6291  -11.2714  -17.3216 N   0  0  0  0  0  0  0  0  0  0  0  0
   21.4477   -8.9844  -16.5319 C   0  0  0  0  0  0  0  0  0  0  0  0
   22.2581   -8.3838  -17.2839 O   0  0  0  0  0  0  0  0  0  0  0  0
   17.3031   -5.2631  -18.4471 C   0  0  0  0  0  0  0  0  0  0  0  0
   18.5333   -5.2771  -17.5509 C   0  0  0  0  0  0  0  0  0  0  0  0
   18.8030   -6.6992  -17.1749 C   0  0  2  0  0  0  0  0  0  0  0  0
   17.6516   -7.2344  -16.3418 C   0  0  0  0  0  0  0  0  0  0  0  0
   20.1138   -6.8922  -16.4423 C   0  0  2  0  0  0  0  0  0  0  0  0
   20.3315   -8.2592  -16.0697 N   0  0  0  0  0  0  0  0  0  0  0  0
   20.1765   -6.0224  -15.2519 C   0  0  0  0  0  0  0  0  0  0  0  0
   20.0124   -6.5581  -13.9847 O   0  0  0  0  0  0  0  0  0  0  0  0
   20.3764   -4.7868  -15.3373 O   0  0  0  0  0  0  0  0  0  0  0  0
  2  1  1  6
  3  2  1  0
  4  2  1  0
  4  5  1  1
  6  7  2  0
  6  4  1  0
  9  8  1  1
  9 10  1  0
  9 11  1  0
 11 12  1  6
 12  6  1  0
 13 11  1  0
 13 20  1  0
 14 13  2  0
 15 16  1  0
 17 19  1  0
 17 16  1  0
 17 18  1  1
 19 21  1  0
 19 20  1  1
 21 23  2  0
 21 22  1  0
M  END
$$$$
