TVI.pdb
     RDKit          3D

 23 22  0  0  1  0  0  0  0  0999 V2000
   16.6108  -10.2958  -15.3991 C   0  0  0  0  0  0  0  0  0  0  0  0
   17.1689  -11.3380  -16.3313 C   0  0  1  0  0  0  0  0  0  0  0  0
   16.3010  -12.4108  -16.5101 O   0  0  0  0  0  0  0  0  0  0  0  0
   17.5167  -10.7036  -17.6697 C   0  0  2  0  0  0  0  0  0  0  0  0
   17.9401  -11.8060  -18.5220 N   0  0  0  0  0  0  0  0  0  0  0  0
   18.5780   -9.6888  -17.5209 C   0  0  0  0  0  0  0  0  0  0  0  0
   19.8118   -9.9878  -17.5395 O   0  0  0  0  0  0  0  0  0  0  0  0
   20.0376   -5.0035  -17.6068 C   0  0  0  0  0  0  0  0  0  0  0  0
   18.9737   -6.0230  -17.9403 C   0  0  1  0  0  0  0  0  0  0  0  0
   18.9556   -6.1936  -19.4390 C   0  0  0  0  0  0  0  0  0  0  0  0
   19.3162   -7.3120  -17.2288 C   0  0  2  0  0  0  0  0  0  0  0  0
   18.2756   -8.3056  -17.3472 N   0  0  0  0  0  0  0  0  0  0  0  0
   19.7090   -7.0932  -15.8100 C   0  0  0  0  0  0  0  0  0  0  0  0
   18.8509   -6.6911  -14.9824 O   0  0  0  0  0  0  0  0  0  0  0  0
   21.1780   -8.9435  -11.2096 C   0  0  0  0  0  0  0  0  0  0  0  0
   22.3811   -8.4204  -11.9814 C   0  0  0  0  0  0  0  0  0  0  0  0
   22.0427   -8.4735  -13.4371 C   0  0  2  0  0  0  0  0  0  0  0  0
   23.3038   -8.7212  -14.2460 C   0  0  0  0  0  0  0  0  0  0  0  0
   21.3341   -7.2329  -13.9381 C   0  0  2  0  0  0  0  0  0  0  0  0
   21.0162   -7.3153  -15.3335 N   0  0  0  0  0  0  0  0  0  0  0  0
   22.1428   -6.0283  -13.6690 C   0  0  0  0  0  0  0  0  0  0  0  0
   22.7639   -5.3560  -14.7091 O   0  0  0  0  0  0  0  0  0  0  0  0
   22.2981   -5.5734  -12.5102 O   0  0  0  0  0  0  0  0  0  0  0  0
  2  1  1  1
  3  2  1  0
  4  2  1  0
  4  5  1  6
  6  7  2  0
  6  4  1  0
  9  8  1  6
  9 10  1  0
  9 11  1  0
 11 12  1  1
 12  6  1  0
 13 11  1  0
 13 20  1  0
 14 13  2  0
 15 16  1  0
 17 19  1  0
 17 16  1  0
 17 18  1  6
 19 21  1  0
 19 20  1  6
 21 23  2  0
 21 22  1  0
M  END
$$$$
