TVI.pdb
     RDKit          3D

 23 22  0  0  1  0  0  0  0  0999 V2000
   28.4404  -18.1896  -16.1244 C   0  0  0  0  0  0  0  0  0  0  0  0
   27.3423  -18.9453  -15.4244 C   0  0  1  0  0  0  0  0  0  0  0  0
   26.3171  -19.3158  -16.2891 O   0  0  0  0  0  0  0  0  0  0  0  0
   27.9186  -20.1672  -14.7246 C   0  0  2  0  0  0  0  0  0  0  0  0
   28.3024  -21.0797  -15.7929 N   0  0  0  0  0  0  0  0  0  0  0  0
   26.9308  -20.7771  -13.8133 C   0  0  0  0  0  0  0  0  0  0  0  0
   26.3262  -21.8584  -14.0913 O   0  0  0  0  0  0  0  0  0  0  0  0
   24.5502  -20.9796   -9.5142 C   0  0  0  0  0  0  0  0  0  0  0  0
   25.7387  -20.4318  -10.2689 C   0  0  1  0  0  0  0  0  0  0  0  0
   26.9725  -21.1264   -9.7483 C   0  0  0  0  0  0  0  0  0  0  0  0
   25.5227  -20.6920  -11.7422 C   0  0  2  0  0  0  0  0  0  0  0  0
   26.5977  -20.1827  -12.5600 N   0  0  0  0  0  0  0  0  0  0  0  0
   24.1959  -20.2134  -12.2172 C   0  0  0  0  0  0  0  0  0  0  0  0
   23.8866  -19.0016  -12.0799 O   0  0  0  0  0  0  0  0  0  0  0  0
   22.5547  -20.1726  -17.0021 C   0  0  0  0  0  0  0  0  0  0  0  0
   22.8773  -20.0103  -15.5235 C   0  0  0  0  0  0  0  0  0  0  0  0
   21.7838  -20.6716  -14.7467 C   0  0  2  0  0  0  0  0  0  0  0  0
   20.4429  -20.0849  -15.1512 C   0  0  0  0  0  0  0  0  0  0  0  0
   21.9660  -20.5770  -13.2467 C   0  0  2  0  0  0  0  0  0  0  0  0
   23.2475  -21.0606  -12.8237 N   0  0  0  0  0  0  0  0  0  0  0  0
   20.8894  -21.3032  -12.5458 C   0  0  0  0  0  0  0  0  0  0  0  0
   19.7018  -20.6618  -12.2330 O   0  0  0  0  0  0  0  0  0  0  0  0
   21.0039  -22.5067  -12.2108 O   0  0  0  0  0  0  0  0  0  0  0  0
  2  1  1  6
  3  2  1  0
  4  2  1  0
  4  5  1  6
  6  7  2  0
  6  4  1  0
  9  8  1  1
  9 10  1  0
  9 11  1  0
 11 12  1  6
 12  6  1  0
 13 11  1  0
 13 20  1  0
 14 13  2  0
 15 16  1  0
 17 19  1  0
 17 16  1  0
 17 18  1  1
 19 21  1  0
 19 20  1  6
 21 23  2  0
 21 22  1  0
M  END
$$$$
