TVI.pdb
     RDKit          3D

 23 22  0  0  1  0  0  0  0  0999 V2000
   27.6929  -23.6168  -16.3650 C   0  0  0  0  0  0  0  0  0  0  0  0
   28.7570  -22.7345  -16.9617 C   0  0  1  0  0  0  0  0  0  0  0  0
   29.6989  -23.4555  -17.6892 O   0  0  0  0  0  0  0  0  0  0  0  0
   28.1152  -21.6642  -17.8318 C   0  0  2  0  0  0  0  0  0  0  0  0
   29.2240  -20.8984  -18.3841 N   0  0  0  0  0  0  0  0  0  0  0  0
   27.2009  -20.8131  -17.0457 C   0  0  0  0  0  0  0  0  0  0  0  0
   27.6119  -19.8288  -16.3572 O   0  0  0  0  0  0  0  0  0  0  0  0
   22.8465  -18.8496  -16.2611 C   0  0  0  0  0  0  0  0  0  0  0  0
   23.7615  -19.6707  -17.1391 C   0  0  1  0  0  0  0  0  0  0  0  0
   24.2528  -18.7779  -18.2514 C   0  0  0  0  0  0  0  0  0  0  0  0
   24.8971  -20.1864  -16.2848 C   0  0  2  0  0  0  0  0  0  0  0  0
   25.7944  -21.0496  -17.0153 N   0  0  0  0  0  0  0  0  0  0  0  0
   24.4204  -20.8255  -15.0281 C   0  0  0  0  0  0  0  0  0  0  0  0
   23.6652  -21.8299  -15.0891 O   0  0  0  0  0  0  0  0  0  0  0  0
   27.2445  -20.2980  -10.2163 C   0  0  0  0  0  0  0  0  0  0  0  0
   26.5572  -20.9008  -11.4333 C   0  0  0  0  0  0  0  0  0  0  0  0
   25.0990  -20.5851  -11.3320 C   0  0  2  0  0  0  0  0  0  0  0  0
   24.5211  -21.2343  -10.0867 C   0  0  0  0  0  0  0  0  0  0  0  0
   24.3055  -20.9969  -12.5538 C   0  0  2  0  0  0  0  0  0  0  0  0
   24.7750  -20.3570  -13.7475 N   0  0  0  0  0  0  0  0  0  0  0  0
   22.8692  -20.7209  -12.3577 C   0  0  0  0  0  0  0  0  0  0  0  0
   21.9929  -21.7522  -12.0605 O   0  0  0  0  0  0  0  0  0  0  0  0
   22.3926  -19.5641  -12.4509 O   0  0  0  0  0  0  0  0  0  0  0  0
  2  1  1  6
  3  2  1  0
  4  2  1  0
  4  5  1  1
  6  7  2  0
  6  4  1  0
  9  8  1  1
  9 10  1  0
  9 11  1  0
 11 12  1  6
 12  6  1  0
 13 11  1  0
 13 20  1  0
 14 13  2  0
 15 16  1  0
 17 19  1  0
 17 16  1  0
 17 18  1  1
 19 21  1  0
 19 20  1  6
 21 23  2  0
 21 22  1  0
M  END
$$$$
