TVI.pdb
     RDKit          3D

 23 22  0  0  1  0  0  0  0  0999 V2000
   15.0131  -13.7884  -15.6920 C   0  0  0  0  0  0  0  0  0  0  0  0
   15.9976  -12.7372  -16.1307 C   0  0  1  0  0  0  0  0  0  0  0  0
   16.9525  -13.2372  -17.0105 O   0  0  0  0  0  0  0  0  0  0  0  0
   15.2584  -11.5632  -16.7554 C   0  0  2  0  0  0  0  0  0  0  0  0
   14.6661  -12.0860  -17.9789 N   0  0  0  0  0  0  0  0  0  0  0  0
   16.1745  -10.4387  -17.0286 C   0  0  0  0  0  0  0  0  0  0  0  0
   16.8651  -10.3674  -18.0916 O   0  0  0  0  0  0  0  0  0  0  0  0
   17.5885   -5.8431  -16.3490 C   0  0  0  0  0  0  0  0  0  0  0  0
   16.5367   -6.9265  -16.3954 C   0  0  1  0  0  0  0  0  0  0  0  0
   15.7312   -6.7302  -17.6557 C   0  0  0  0  0  0  0  0  0  0  0  0
   17.2378   -8.2657  -16.3755 C   0  0  2  0  0  0  0  0  0  0  0  0
   16.3362   -9.3610  -16.1081 N   0  0  0  0  0  0  0  0  0  0  0  0
   18.4101   -8.2819  -15.4588 C   0  0  0  0  0  0  0  0  0  0  0  0
   18.2290   -8.2003  -14.2165 O   0  0  0  0  0  0  0  0  0  0  0  0
   22.9736  -10.9047  -13.7827 C   0  0  0  0  0  0  0  0  0  0  0  0
   23.0371   -9.5482  -14.4702 C   0  0  0  0  0  0  0  0  0  0  0  0
   21.8777   -9.4630  -15.4108 C   0  0  2  0  0  0  0  0  0  0  0  0
   22.3797   -9.1833  -16.8165 C   0  0  0  0  0  0  0  0  0  0  0  0
   20.8470   -8.4300  -15.0073 C   0  0  2  0  0  0  0  0  0  0  0  0
   19.7390   -8.3847  -15.9156 N   0  0  0  0  0  0  0  0  0  0  0  0
   21.4668   -7.0959  -14.8909 C   0  0  0  0  0  0  0  0  0  0  0  0
   22.1038   -6.7203  -13.7193 O   0  0  0  0  0  0  0  0  0  0  0  0
   21.4419   -6.2638  -15.8295 O   0  0  0  0  0  0  0  0  0  0  0  0
  2  1  1  6
  3  2  1  0
  4  2  1  0
  4  5  1  6
  6  7  2  0
  6  4  1  0
  9  8  1  6
  9 10  1  0
  9 11  1  0
 11 12  1  1
 12  6  1  0
 13 11  1  0
 13 20  1  0
 14 13  2  0
 15 16  1  0
 17 19  1  0
 17 16  1  0
 17 18  1  6
 19 21  1  0
 19 20  1  6
 21 23  2  0
 21 22  1  0
M  END
$$$$
