CWR.pdb
     RDKit          3D

 32 33  0  0  1  0  0  0  0  0999 V2000
   26.9983  -22.7646  -14.9278 N   0  0  0  0  0  0  0  0  0  0  0  0
   26.3083  -21.6063  -14.4602 C   0  0  1  0  0  0  0  0  0  0  0  0
   25.1807  -21.1822  -15.3746 C   0  0  0  0  0  0  0  0  0  0  0  0
   25.3456  -21.8435  -17.0371 S   0  0  0  0  0  0  0  0  0  0  0  0
   25.8376  -21.8308  -13.0747 C   0  0  0  0  0  0  0  0  0  0  0  0
   25.7780  -22.9730  -12.5692 O   0  0  0  0  0  0  0  0  0  0  0  0
   25.4384  -20.7242  -12.2843 N   0  0  0  0  0  0  0  0  0  0  0  0
   25.0025  -20.7634  -10.9430 C   0  0  1  0  0  0  0  0  0  0  0  0
   25.6448  -19.7876   -9.9769 C   0  0  0  0  0  0  0  0  0  0  0  0
   26.9952  -20.2431   -9.5714 C   0  0  0  0  0  0  0  0  0  0  0  0
   27.9064  -20.9935  -10.2484 C   0  0  0  0  0  0  0  0  0  0  0  0
   29.0127  -21.1609   -9.4884 N   0  0  0  0  0  0  0  0  0  0  0  0
   28.8688  -20.5394   -8.3138 C   0  0  0  0  0  0  0  0  0  0  0  0
   29.6680  -20.3907   -7.2047 C   0  0  0  0  0  0  0  0  0  0  0  0
   29.1910  -19.6570   -6.1416 C   0  0  0  0  0  0  0  0  0  0  0  0
   27.9446  -19.0796   -6.1738 C   0  0  0  0  0  0  0  0  0  0  0  0
   27.1199  -19.2218   -7.2941 C   0  0  0  0  0  0  0  0  0  0  0  0
   27.6203  -19.9616   -8.3453 C   0  0  0  0  0  0  0  0  0  0  0  0
   23.5784  -20.8388  -10.6800 C   0  0  0  0  0  0  0  0  0  0  0  0
   22.8301  -20.0841  -11.3912 O   0  0  0  0  0  0  0  0  0  0  0  0
   16.9169  -24.2934   -7.7179 N   0  0  0  0  0  0  0  0  0  0  0  0
   18.0490  -25.0371   -7.3089 C   0  0  0  0  0  0  0  0  0  0  0  0
   18.0452  -26.3386   -7.4240 N   0  0  0  0  0  0  0  0  0  0  0  0
   19.2201  -24.4418   -6.7666 N   0  0  0  0  0  0  0  0  0  0  0  0
   19.3684  -23.0023   -6.6380 C   0  0  0  0  0  0  0  0  0  0  0  0
   19.6793  -22.4319   -8.0256 C   0  0  0  0  0  0  0  0  0  0  0  0
   21.1484  -22.1967   -8.1900 C   0  0  0  0  0  0  0  0  0  0  0  0
   21.4825  -21.6945   -9.5485 C   0  0  2  0  0  0  0  0  0  0  0  0
   22.9418  -21.6467   -9.7347 N   0  0  0  0  0  0  0  0  0  0  0  0
   20.8906  -20.3845   -9.7997 C   0  0  0  0  0  0  0  0  0  0  0  0
   19.9503  -20.1104  -10.7589 O   0  0  0  0  0  0  0  0  0  0  0  0
   21.2639  -19.3954   -9.0834 O   0  0  0  0  0  0  0  0  0  0  0  0
  2  3  1  0
  2  1  1  6
  3  4  1  0
  5  2  1  0
  6  5  2  0
  7  5  1  0
  8  7  1  0
  9 10  1  0
  8  9  1  1
 10 11  2  0
 11 12  1  0
 13 14  2  0
 13 12  1  0
 15 14  1  0
 16 15  2  0
 17 16  1  0
 17 18  2  0
 18 10  1  0
 18 13  1  0
 19  8  1  0
 19 29  1  0
 20 19  2  0
 22 21  1  0
 23 22  2  0
 24 22  1  0
 25 26  1  0
 25 24  1  0
 26 27  1  0
 28 27  1  1
 28 29  1  0
 28 30  1  0
 30 32  2  0
 30 31  1  0
M  END
$$$$
