CWR.pdb
     RDKit          3D

 32 33  0  0  1  0  0  0  0  0999 V2000
   28.2729  -20.5157  -16.3350 N   0  0  0  0  0  0  0  0  0  0  0  0
   28.1079  -21.9122  -16.0925 C   0  0  1  0  0  0  0  0  0  0  0  0
   29.4229  -22.6517  -15.9852 C   0  0  0  0  0  0  0  0  0  0  0  0
   30.5310  -22.3053  -17.3566 S   0  0  0  0  0  0  0  0  0  0  0  0
   27.2640  -22.1147  -14.8932 C   0  0  0  0  0  0  0  0  0  0  0  0
   26.9905  -23.2542  -14.4569 O   0  0  0  0  0  0  0  0  0  0  0  0
   26.7426  -20.9892  -14.2074 N   0  0  0  0  0  0  0  0  0  0  0  0
   25.9083  -21.0108  -13.0699 C   0  0  1  0  0  0  0  0  0  0  0  0
   26.2752  -20.0888  -11.9239 C   0  0  0  0  0  0  0  0  0  0  0  0
   27.4004  -20.6380  -11.1315 C   0  0  0  0  0  0  0  0  0  0  0  0
   28.5494  -21.2402  -11.5425 C   0  0  0  0  0  0  0  0  0  0  0  0
   29.2952  -21.5796  -10.4663 N   0  0  0  0  0  0  0  0  0  0  0  0
   28.6757  -21.2191   -9.3382 C   0  0  0  0  0  0  0  0  0  0  0  0
   28.9842  -21.3193   -8.0019 C   0  0  0  0  0  0  0  0  0  0  0  0
   28.0914  -20.8211   -7.0797 C   0  0  0  0  0  0  0  0  0  0  0  0
   26.9128  -20.2331   -7.4712 C   0  0  0  0  0  0  0  0  0  0  0  0
   26.5845  -20.1238   -8.8261 C   0  0  0  0  0  0  0  0  0  0  0  0
   27.4948  -20.6309   -9.7299 C   0  0  0  0  0  0  0  0  0  0  0  0
   24.4715  -20.9929  -13.2649 C   0  0  0  0  0  0  0  0  0  0  0  0
   24.0049  -20.0202  -13.9514 O   0  0  0  0  0  0  0  0  0  0  0  0
   17.5256  -24.6724  -11.5502 N   0  0  0  0  0  0  0  0  0  0  0  0
   17.0223  -23.7917  -12.5367 C   0  0  0  0  0  0  0  0  0  0  0  0
   15.7714  -23.4167  -12.4928 N   0  0  0  0  0  0  0  0  0  0  0  0
   17.8123  -23.2765  -13.5999 N   0  0  0  0  0  0  0  0  0  0  0  0
   19.2326  -23.5593  -13.7165 C   0  0  0  0  0  0  0  0  0  0  0  0
   19.9409  -22.9340  -12.5103 C   0  0  0  0  0  0  0  0  0  0  0  0
   21.4251  -23.0949  -12.6196 C   0  0  0  0  0  0  0  0  0  0  0  0
   22.0957  -21.8241  -13.0000 C   0  0  2  0  0  0  0  0  0  0  0  0
   23.5481  -21.9238  -12.7829 N   0  0  0  0  0  0  0  0  0  0  0  0
   21.5456  -20.6853  -12.2718 C   0  0  0  0  0  0  0  0  0  0  0  0
   21.9368  -20.2798  -11.0221 O   0  0  0  0  0  0  0  0  0  0  0  0
   20.6212  -19.9956  -12.8200 O   0  0  0  0  0  0  0  0  0  0  0  0
  2  3  1  0
  2  1  1  1
  3  4  1  0
  5  2  1  0
  6  5  2  0
  7  5  1  0
  8  7  1  0
  9 10  1  0
  8  9  1  1
 10 11  2  0
 11 12  1  0
 13 14  2  0
 13 12  1  0
 15 14  1  0
 16 15  2  0
 17 16  1  0
 17 18  2  0
 18 10  1  0
 18 13  1  0
 19  8  1  0
 19 29  1  0
 20 19  2  0
 22 21  1  0
 23 22  2  0
 24 22  1  0
 25 26  1  0
 25 24  1  0
 26 27  1  0
 28 27  1  1
 28 29  1  0
 28 30  1  0
 30 32  2  0
 30 31  1  0
M  END
$$$$
