CWR.pdb
     RDKit          3D

 32 33  0  0  1  0  0  0  0  0999 V2000
   21.3218  -20.2603   -9.5715 N   0  0  0  0  0  0  0  0  0  0  0  0
   22.3671  -21.2101   -9.3676 C   0  0  1  0  0  0  0  0  0  0  0  0
   22.0933  -22.5405  -10.0330 C   0  0  0  0  0  0  0  0  0  0  0  0
   20.6542  -23.3757   -9.3548 S   0  0  0  0  0  0  0  0  0  0  0  0
   23.6586  -20.6329   -9.8037 C   0  0  0  0  0  0  0  0  0  0  0  0
   23.7327  -19.7850  -10.7198 O   0  0  0  0  0  0  0  0  0  0  0  0
   24.8578  -21.0456   -9.1711 N   0  0  0  0  0  0  0  0  0  0  0  0
   26.1711  -20.6961   -9.5502 C   0  0  1  0  0  0  0  0  0  0  0  0
   27.2598  -20.8599   -8.5082 C   0  0  0  0  0  0  0  0  0  0  0  0
   26.8038  -20.3956   -7.1770 C   0  0  0  0  0  0  0  0  0  0  0  0
   25.5482  -20.3235   -6.6573 C   0  0  0  0  0  0  0  0  0  0  0  0
   25.6052  -19.8396   -5.3955 N   0  0  0  0  0  0  0  0  0  0  0  0
   26.8714  -19.5844   -5.0516 C   0  0  0  0  0  0  0  0  0  0  0  0
   27.4763  -19.0996   -3.9158 C   0  0  0  0  0  0  0  0  0  0  0  0
   28.8466  -18.9658   -3.9042 C   0  0  0  0  0  0  0  0  0  0  0  0
   29.6072  -19.3057   -4.9970 C   0  0  0  0  0  0  0  0  0  0  0  0
   29.0071  -19.7999   -6.1594 C   0  0  0  0  0  0  0  0  0  0  0  0
   27.6333  -19.9240   -6.1461 C   0  0  0  0  0  0  0  0  0  0  0  0
   26.6623  -21.1452  -10.8385 C   0  0  0  0  0  0  0  0  0  0  0  0
   27.0459  -22.3632  -10.9056 O   0  0  0  0  0  0  0  0  0  0  0  0
   24.4237  -22.5681  -17.9958 N   0  0  0  0  0  0  0  0  0  0  0  0
   23.3866  -22.3995  -17.0480 C   0  0  0  0  0  0  0  0  0  0  0  0
   22.2752  -21.8107  -17.4018 N   0  0  0  0  0  0  0  0  0  0  0  0
   23.4808  -22.8417  -15.7006 N   0  0  0  0  0  0  0  0  0  0  0  0
   24.6626  -23.5125  -15.1867 C   0  0  0  0  0  0  0  0  0  0  0  0
   25.7596  -22.4601  -14.9957 C   0  0  0  0  0  0  0  0  0  0  0  0
   25.7288  -21.9017  -13.6072 C   0  0  0  0  0  0  0  0  0  0  0  0
   26.8625  -20.9740  -13.3557 C   0  0  2  0  0  0  0  0  0  0  0  0
   26.7594  -20.3888  -12.0091 N   0  0  0  0  0  0  0  0  0  0  0  0
   26.9344  -19.9240  -14.3667 C   0  0  0  0  0  0  0  0  0  0  0  0
   26.5749  -18.6149  -14.1766 O   0  0  0  0  0  0  0  0  0  0  0  0
   27.3606  -20.2236  -15.5326 O   0  0  0  0  0  0  0  0  0  0  0  0
  2  3  1  0
  2  1  1  6
  3  4  1  0
  5  2  1  0
  6  5  2  0
  7  5  1  0
  8  7  1  0
  9 10  1  0
  8  9  1  1
 10 11  2  0
 11 12  1  0
 13 14  2  0
 13 12  1  0
 15 14  1  0
 16 15  2  0
 17 16  1  0
 17 18  2  0
 18 10  1  0
 18 13  1  0
 19  8  1  0
 19 29  1  0
 20 19  2  0
 22 21  1  0
 23 22  2  0
 24 22  1  0
 25 26  1  0
 25 24  1  0
 26 27  1  0
 28 27  1  6
 28 29  1  0
 28 30  1  0
 30 32  2  0
 30 31  1  0
M  END
$$$$
