CWR.pdb
     RDKit          3D

 32 33  0  0  1  0  0  0  0  0999 V2000
   28.8942  -19.9484  -13.8557 N   0  0  0  0  0  0  0  0  0  0  0  0
   28.1174  -20.9896  -14.4463 C   0  0  1  0  0  0  0  0  0  0  0  0
   28.9364  -22.2134  -14.7912 C   0  0  0  0  0  0  0  0  0  0  0  0
   30.1018  -21.9183  -16.1266 S   0  0  0  0  0  0  0  0  0  0  0  0
   26.9760  -21.3227  -13.5645 C   0  0  0  0  0  0  0  0  0  0  0  0
   26.1710  -22.2403  -13.8363 O   0  0  0  0  0  0  0  0  0  0  0  0
   26.7772  -20.5859  -12.3702 N   0  0  0  0  0  0  0  0  0  0  0  0
   25.7074  -20.7308  -11.4618 C   0  0  1  0  0  0  0  0  0  0  0  0
   25.9389  -20.2635  -10.0384 C   0  0  0  0  0  0  0  0  0  0  0  0
   27.2720  -20.6823   -9.5455 C   0  0  0  0  0  0  0  0  0  0  0  0
   28.1987  -21.5007  -10.1141 C   0  0  0  0  0  0  0  0  0  0  0  0
   29.2786  -21.5962   -9.3052 N   0  0  0  0  0  0  0  0  0  0  0  0
   29.1019  -20.8598   -8.2039 C   0  0  0  0  0  0  0  0  0  0  0  0
   29.8661  -20.6045   -7.0896 C   0  0  0  0  0  0  0  0  0  0  0  0
   29.3608  -19.7662   -6.1212 C   0  0  0  0  0  0  0  0  0  0  0  0
   28.1206  -19.1892   -6.2517 C   0  0  0  0  0  0  0  0  0  0  0  0
   27.3313  -19.4390   -7.3786 C   0  0  0  0  0  0  0  0  0  0  0  0
   27.8595  -20.2824   -8.3338 C   0  0  0  0  0  0  0  0  0  0  0  0
   24.3782  -20.3396  -11.8898 C   0  0  0  0  0  0  0  0  0  0  0  0
   24.2501  -19.1410  -12.3165 O   0  0  0  0  0  0  0  0  0  0  0  0
   16.8351  -23.3028  -15.1997 N   0  0  0  0  0  0  0  0  0  0  0  0
   17.1625  -23.2271  -13.8252 C   0  0  0  0  0  0  0  0  0  0  0  0
   16.2306  -23.4037  -12.9267 N   0  0  0  0  0  0  0  0  0  0  0  0
   18.4754  -22.9639  -13.3486 N   0  0  0  0  0  0  0  0  0  0  0  0
   19.6044  -22.7893  -14.2462 C   0  0  0  0  0  0  0  0  0  0  0  0
   20.8735  -22.6771  -13.3951 C   0  0  0  0  0  0  0  0  0  0  0  0
   21.5720  -21.3771  -13.6459 C   0  0  0  0  0  0  0  0  0  0  0  0
   21.9186  -20.6790  -12.3803 C   0  0  2  0  0  0  0  0  0  0  0  0
   23.2281  -21.1326  -11.8845 N   0  0  0  0  0  0  0  0  0  0  0  0
   20.8912  -20.8684  -11.3613 C   0  0  0  0  0  0  0  0  0  0  0  0
   20.9822  -21.7229  -10.2932 O   0  0  0  0  0  0  0  0  0  0  0  0
   19.8082  -20.1976  -11.4505 O   0  0  0  0  0  0  0  0  0  0  0  0
  2  3  1  0
  2  1  1  1
  3  4  1  0
  5  2  1  0
  6  5  2  0
  7  5  1  0
  8  7  1  0
  9 10  1  0
  8  9  1  1
 10 11  2  0
 11 12  1  0
 13 14  2  0
 13 12  1  0
 15 14  1  0
 16 15  2  0
 17 16  1  0
 17 18  2  0
 18 10  1  0
 18 13  1  0
 19  8  1  0
 19 29  1  0
 20 19  2  0
 22 21  1  0
 23 22  2  0
 24 22  1  0
 25 26  1  0
 25 24  1  0
 26 27  1  0
 28 27  1  6
 28 29  1  0
 28 30  1  0
 30 32  2  0
 30 31  1  0
M  END
$$$$
