CWR.pdb
     RDKit          3D

 32 33  0  0  1  0  0  0  0  0999 V2000
   28.2495  -22.0558  -15.3217 N   0  0  0  0  0  0  0  0  0  0  0  0
   28.2528  -20.9210  -14.4566 C   0  0  1  0  0  0  0  0  0  0  0  0
   27.7743  -19.6583  -15.1381 C   0  0  0  0  0  0  0  0  0  0  0  0
   27.9219  -18.2039  -14.0935 S   0  0  0  0  0  0  0  0  0  0  0  0
   27.4669  -21.2195  -13.2382 C   0  0  0  0  0  0  0  0  0  0  0  0
   26.3097  -21.6904  -13.2917 O   0  0  0  0  0  0  0  0  0  0  0  0
   28.0321  -20.9683  -11.9629 N   0  0  0  0  0  0  0  0  0  0  0  0
   27.3454  -20.9377  -10.7308 C   0  0  1  0  0  0  0  0  0  0  0  0
   28.1052  -20.4167   -9.5269 C   0  0  0  0  0  0  0  0  0  0  0  0
   27.2781  -20.4838   -8.2993 C   0  0  0  0  0  0  0  0  0  0  0  0
   26.0467  -21.0280   -8.1015 C   0  0  0  0  0  0  0  0  0  0  0  0
   25.6777  -20.8615   -6.8109 N   0  0  0  0  0  0  0  0  0  0  0  0
   26.6330  -20.2178   -6.1331 C   0  0  0  0  0  0  0  0  0  0  0  0
   26.7705  -19.8077   -4.8277 C   0  0  0  0  0  0  0  0  0  0  0  0
   27.9261  -19.1559   -4.4594 C   0  0  0  0  0  0  0  0  0  0  0  0
   28.9298  -18.9133   -5.3660 C   0  0  0  0  0  0  0  0  0  0  0  0
   28.8050  -19.3237   -6.6969 C   0  0  0  0  0  0  0  0  0  0  0  0
   27.6381  -19.9739   -7.0409 C   0  0  0  0  0  0  0  0  0  0  0  0
   25.9893  -20.4245  -10.7068 C   0  0  0  0  0  0  0  0  0  0  0  0
   25.8633  -19.1533  -10.7636 O   0  0  0  0  0  0  0  0  0  0  0  0
   20.5927  -20.1157  -16.9488 N   0  0  0  0  0  0  0  0  0  0  0  0
   21.7047  -19.5846  -16.2534 C   0  0  0  0  0  0  0  0  0  0  0  0
   22.3240  -18.5360  -16.7267 N   0  0  0  0  0  0  0  0  0  0  0  0
   22.2030  -20.1346  -15.0413 N   0  0  0  0  0  0  0  0  0  0  0  0
   21.3625  -20.8960  -14.1333 C   0  0  0  0  0  0  0  0  0  0  0  0
   21.7334  -20.5007  -12.7002 C   0  0  0  0  0  0  0  0  0  0  0  0
   23.0866  -21.0256  -12.3342 C   0  0  0  0  0  0  0  0  0  0  0  0
   23.4795  -20.6362  -10.9546 C   0  0  2  0  0  0  0  0  0  0  0  0
   24.8113  -21.1714  -10.6286 N   0  0  0  0  0  0  0  0  0  0  0  0
   22.4958  -21.0748   -9.9698 C   0  0  0  0  0  0  0  0  0  0  0  0
   21.2919  -20.4658   -9.7266 O   0  0  0  0  0  0  0  0  0  0  0  0
   22.7546  -22.1055   -9.2618 O   0  0  0  0  0  0  0  0  0  0  0  0
  2  3  1  0
  2  1  1  6
  3  4  1  0
  5  2  1  0
  6  5  2  0
  7  5  1  0
  8  7  1  0
  9 10  1  0
  8  9  1  1
 10 11  2  0
 11 12  1  0
 13 14  2  0
 13 12  1  0
 15 14  1  0
 16 15  2  0
 17 16  1  0
 17 18  2  0
 18 10  1  0
 18 13  1  0
 19  8  1  0
 19 29  1  0
 20 19  2  0
 22 21  1  0
 23 22  2  0
 24 22  1  0
 25 26  1  0
 25 24  1  0
 26 27  1  0
 28 27  1  6
 28 29  1  0
 28 30  1  0
 30 32  2  0
 30 31  1  0
M  END
$$$$
