CWR.pdb
     RDKit          3D

 32 33  0  0  1  0  0  0  0  0999 V2000
   28.5552  -20.7976   -7.2442 N   0  0  0  0  0  0  0  0  0  0  0  0
   27.1564  -20.5414   -7.1247 C   0  0  1  0  0  0  0  0  0  0  0  0
   26.8312  -19.5356   -6.0429 C   0  0  0  0  0  0  0  0  0  0  0  0
   27.5589  -19.9597   -4.4557 S   0  0  0  0  0  0  0  0  0  0  0  0
   26.6096  -20.1322   -8.4380 C   0  0  0  0  0  0  0  0  0  0  0  0
   27.0090  -19.1087   -9.0352 O   0  0  0  0  0  0  0  0  0  0  0  0
   25.6002  -20.9167   -9.0499 N   0  0  0  0  0  0  0  0  0  0  0  0
   25.0727  -20.7441  -10.3471 C   0  0  1  0  0  0  0  0  0  0  0  0
   25.5978  -21.6588  -11.4360 C   0  0  0  0  0  0  0  0  0  0  0  0
   26.9850  -21.3018  -11.8150 C   0  0  0  0  0  0  0  0  0  0  0  0
   28.1699  -21.8156  -11.3863 C   0  0  0  0  0  0  0  0  0  0  0  0
   29.1913  -21.1854  -12.0101 N   0  0  0  0  0  0  0  0  0  0  0  0
   28.7222  -20.2584  -12.8509 C   0  0  0  0  0  0  0  0  0  0  0  0
   29.3095  -19.3613  -13.7119 C   0  0  0  0  0  0  0  0  0  0  0  0
   28.4987  -18.5330  -14.4553 C   0  0  0  0  0  0  0  0  0  0  0  0
   27.1298  -18.5902  -14.3498 C   0  0  0  0  0  0  0  0  0  0  0  0
   26.5176  -19.4967  -13.4787 C   0  0  0  0  0  0  0  0  0  0  0  0
   27.3513  -20.3148  -12.7450 C   0  0  0  0  0  0  0  0  0  0  0  0
   23.6388  -20.5874  -10.4959 C   0  0  0  0  0  0  0  0  0  0  0  0
   22.9076  -21.3469   -9.7724 O   0  0  0  0  0  0  0  0  0  0  0  0
   23.6882  -18.2472  -16.3724 N   0  0  0  0  0  0  0  0  0  0  0  0
   22.6121  -19.0069  -16.8891 C   0  0  0  0  0  0  0  0  0  0  0  0
   22.7916  -19.7441  -17.9528 N   0  0  0  0  0  0  0  0  0  0  0  0
   21.3148  -19.0184  -16.3087 N   0  0  0  0  0  0  0  0  0  0  0  0
   21.0259  -18.3616  -15.0454 C   0  0  0  0  0  0  0  0  0  0  0  0
   21.3955  -19.3266  -13.9141 C   0  0  0  0  0  0  0  0  0  0  0  0
   21.1294  -18.7093  -12.5767 C   0  0  0  0  0  0  0  0  0  0  0  0
   21.5111  -19.6140  -11.4609 C   0  0  2  0  0  0  0  0  0  0  0  0
   22.9761  -19.6967  -11.3439 N   0  0  0  0  0  0  0  0  0  0  0  0
   20.9341  -20.9444  -11.6240 C   0  0  0  0  0  0  0  0  0  0  0  0
   21.5267  -21.9899  -12.2836 O   0  0  0  0  0  0  0  0  0  0  0  0
   19.7829  -21.1791  -11.1235 O   0  0  0  0  0  0  0  0  0  0  0  0
  2  3  1  0
  2  1  1  6
  3  4  1  0
  5  2  1  0
  6  5  2  0
  7  5  1  0
  8  7  1  0
  9 10  1  0
  8  9  1  6
 10 11  2  0
 11 12  1  0
 13 14  2  0
 13 12  1  0
 15 14  1  0
 16 15  2  0
 17 16  1  0
 17 18  2  0
 18 10  1  0
 18 13  1  0
 19  8  1  0
 19 29  1  0
 20 19  2  0
 22 21  1  0
 23 22  2  0
 24 22  1  0
 25 26  1  0
 25 24  1  0
 26 27  1  0
 28 27  1  6
 28 29  1  0
 28 30  1  0
 30 32  2  0
 30 31  1  0
M  END
$$$$
