CWR.pdb
     RDKit          3D

 32 33  0  0  1  0  0  0  0  0999 V2000
   17.1970  -11.6505  -13.3431 N   0  0  0  0  0  0  0  0  0  0  0  0
   16.7492  -11.4535  -12.0026 C   0  0  1  0  0  0  0  0  0  0  0  0
   17.1415  -12.5839  -11.0775 C   0  0  0  0  0  0  0  0  0  0  0  0
   16.7768  -14.2041  -11.7635 S   0  0  0  0  0  0  0  0  0  0  0  0
   17.2270  -10.1441  -11.5038 C   0  0  0  0  0  0  0  0  0  0  0  0
   17.0595   -9.7824  -10.3185 O   0  0  0  0  0  0  0  0  0  0  0  0
   17.8976   -9.2620  -12.3874 N   0  0  0  0  0  0  0  0  0  0  0  0
   18.4455   -8.0031  -12.0625 C   0  0  1  0  0  0  0  0  0  0  0  0
   19.6494   -7.5444  -12.8613 C   0  0  0  0  0  0  0  0  0  0  0  0
   20.7793   -8.4929  -12.7228 C   0  0  0  0  0  0  0  0  0  0  0  0
   21.2962   -9.0832  -11.6110 C   0  0  0  0  0  0  0  0  0  0  0  0
   22.3279   -9.8854  -11.9597 N   0  0  0  0  0  0  0  0  0  0  0  0
   22.5183   -9.8505  -13.2822 C   0  0  0  0  0  0  0  0  0  0  0  0
   23.4023  -10.4630  -14.1391 C   0  0  0  0  0  0  0  0  0  0  0  0
   23.3074  -10.1957  -15.4865 C   0  0  0  0  0  0  0  0  0  0  0  0
   22.3545   -9.3371  -15.9794 C   0  0  0  0  0  0  0  0  0  0  0  0
   21.4486   -8.7062  -15.1210 C   0  0  0  0  0  0  0  0  0  0  0  0
   21.5646   -8.9900  -13.7761 C   0  0  0  0  0  0  0  0  0  0  0  0
   17.5426   -6.8861  -11.8627 C   0  0  0  0  0  0  0  0  0  0  0  0
   16.7758   -6.5947  -12.8436 O   0  0  0  0  0  0  0  0  0  0  0  0
   12.5022   -3.7028   -5.1556 N   0  0  0  0  0  0  0  0  0  0  0  0
   12.1390   -3.1611   -6.4114 C   0  0  0  0  0  0  0  0  0  0  0  0
   11.0390   -2.4649   -6.5228 N   0  0  0  0  0  0  0  0  0  0  0  0
   12.9158   -3.3314   -7.5893 N   0  0  0  0  0  0  0  0  0  0  0  0
   13.9957   -4.2998   -7.6713 C   0  0  0  0  0  0  0  0  0  0  0  0
   14.6573   -4.1567   -9.0459 C   0  0  0  0  0  0  0  0  0  0  0  0
   15.7401   -5.1743   -9.2265 C   0  0  0  0  0  0  0  0  0  0  0  0
   16.4108   -5.0443  -10.5465 C   0  0  2  0  0  0  0  0  0  0  0  0
   17.4239   -6.0986  -10.7149 N   0  0  0  0  0  0  0  0  0  0  0  0
   17.0104   -3.7250  -10.7190 C   0  0  0  0  0  0  0  0  0  0  0  0
   18.3558   -3.4649  -10.7578 O   0  0  0  0  0  0  0  0  0  0  0  0
   16.2412   -2.7133  -10.8430 O   0  0  0  0  0  0  0  0  0  0  0  0
  2  3  1  0
  2  1  1  6
  3  4  1  0
  5  2  1  0
  6  5  2  0
  7  5  1  0
  8  7  1  0
  9 10  1  0
  8  9  1  6
 10 11  2  0
 11 12  1  0
 13 14  2  0
 13 12  1  0
 15 14  1  0
 16 15  2  0
 17 16  1  0
 17 18  2  0
 18 10  1  0
 18 13  1  0
 19  8  1  0
 19 29  1  0
 20 19  2  0
 22 21  1  0
 23 22  2  0
 24 22  1  0
 25 26  1  0
 25 24  1  0
 26 27  1  0
 28 27  1  1
 28 29  1  0
 28 30  1  0
 30 32  2  0
 30 31  1  0
M  END
$$$$
