CWR.pdb
     RDKit          3D

 32 33  0  0  1  0  0  0  0  0999 V2000
   26.8336  -22.9792  -21.7254 N   0  0  0  0  0  0  0  0  0  0  0  0
   25.8467  -21.9928  -21.4263 C   0  0  1  0  0  0  0  0  0  0  0  0
   24.4355  -22.4746  -21.6796 C   0  0  0  0  0  0  0  0  0  0  0  0
   23.9900  -23.8899  -20.6662 S   0  0  0  0  0  0  0  0  0  0  0  0
   26.0232  -21.5150  -20.0364 C   0  0  0  0  0  0  0  0  0  0  0  0
   26.7270  -22.1301  -19.2058 O   0  0  0  0  0  0  0  0  0  0  0  0
   25.3794  -20.3229  -19.6201 N   0  0  0  0  0  0  0  0  0  0  0  0
   25.4834  -19.7102  -18.3535 C   0  0  1  0  0  0  0  0  0  0  0  0
   25.3144  -18.2048  -18.2960 C   0  0  0  0  0  0  0  0  0  0  0  0
   25.5058  -17.6948  -16.9180 C   0  0  0  0  0  0  0  0  0  0  0  0
   24.6996  -16.9071  -16.1558 C   0  0  0  0  0  0  0  0  0  0  0  0
   25.2774  -16.6954  -14.9512 N   0  0  0  0  0  0  0  0  0  0  0  0
   26.4552  -17.3234  -14.8832 C   0  0  0  0  0  0  0  0  0  0  0  0
   27.4237  -17.4405  -13.9140 C   0  0  0  0  0  0  0  0  0  0  0  0
   28.5431  -18.1942  -14.1878 C   0  0  0  0  0  0  0  0  0  0  0  0
   28.7030  -18.8221  -15.3995 C   0  0  0  0  0  0  0  0  0  0  0  0
   27.7275  -18.7126  -16.3953 C   0  0  0  0  0  0  0  0  0  0  0  0
   26.6162  -17.9519  -16.0969 C   0  0  0  0  0  0  0  0  0  0  0  0
   24.7938  -20.3180  -17.2319 C   0  0  0  0  0  0  0  0  0  0  0  0
   23.5585  -20.5966  -17.4095 O   0  0  0  0  0  0  0  0  0  0  0  0
   23.5844  -19.8877   -9.5984 N   0  0  0  0  0  0  0  0  0  0  0  0
   24.5187  -20.9497   -9.5616 C   0  0  0  0  0  0  0  0  0  0  0  0
   24.4074  -21.8790   -8.6499 N   0  0  0  0  0  0  0  0  0  0  0  0
   25.5986  -21.0718  -10.4776 N   0  0  0  0  0  0  0  0  0  0  0  0
   25.8992  -20.0458  -11.4612 C   0  0  0  0  0  0  0  0  0  0  0  0
   24.8956  -20.1827  -12.6108 C   0  0  0  0  0  0  0  0  0  0  0  0
   25.3690  -21.1845  -13.6172 C   0  0  0  0  0  0  0  0  0  0  0  0
   24.5492  -21.1575  -14.8568 C   0  0  2  0  0  0  0  0  0  0  0  0
   25.3365  -20.6297  -15.9829 N   0  0  0  0  0  0  0  0  0  0  0  0
   23.3266  -20.3809  -14.6777 C   0  0  0  0  0  0  0  0  0  0  0  0
   23.1729  -19.0584  -15.0040 O   0  0  0  0  0  0  0  0  0  0  0  0
   22.3031  -20.9559  -14.1752 O   0  0  0  0  0  0  0  0  0  0  0  0
  2  3  1  0
  2  1  1  1
  3  4  1  0
  5  2  1  0
  6  5  2  0
  7  5  1  0
  8  7  1  0
  9 10  1  0
  8  9  1  6
 10 11  2  0
 11 12  1  0
 13 14  2  0
 13 12  1  0
 15 14  1  0
 16 15  2  0
 17 16  1  0
 17 18  2  0
 18 10  1  0
 18 13  1  0
 19  8  1  0
 19 29  1  0
 20 19  2  0
 22 21  1  0
 23 22  2  0
 24 22  1  0
 25 26  1  0
 25 24  1  0
 26 27  1  0
 28 27  1  1
 28 29  1  0
 28 30  1  0
 30 32  2  0
 30 31  1  0
M  END
$$$$
