CWR.pdb
     RDKit          3D

 32 33  0  0  1  0  0  0  0  0999 V2000
   28.1767  -23.5529  -15.8092 N   0  0  0  0  0  0  0  0  0  0  0  0
   27.8203  -22.2262  -15.4229 C   0  0  1  0  0  0  0  0  0  0  0  0
   27.3365  -21.3841  -16.5824 C   0  0  0  0  0  0  0  0  0  0  0  0
   28.4719  -21.3978  -17.9750 S   0  0  0  0  0  0  0  0  0  0  0  0
   26.8264  -22.2751  -14.3269 C   0  0  0  0  0  0  0  0  0  0  0  0
   26.0270  -23.2276  -14.1958 O   0  0  0  0  0  0  0  0  0  0  0  0
   26.7682  -21.2146  -13.3884 N   0  0  0  0  0  0  0  0  0  0  0  0
   25.7209  -20.9532  -12.4800 C   0  0  1  0  0  0  0  0  0  0  0  0
   26.0314  -20.0437  -11.3076 C   0  0  0  0  0  0  0  0  0  0  0  0
   27.1997  -20.5357  -10.5405 C   0  0  0  0  0  0  0  0  0  0  0  0
   28.3548  -21.1087  -10.9754 C   0  0  0  0  0  0  0  0  0  0  0  0
   29.1462  -21.3971   -9.9170 N   0  0  0  0  0  0  0  0  0  0  0  0
   28.5513  -21.0307   -8.7776 C   0  0  0  0  0  0  0  0  0  0  0  0
   28.9061  -21.0887   -7.4503 C   0  0  0  0  0  0  0  0  0  0  0  0
   28.0269  -20.5987   -6.5106 C   0  0  0  0  0  0  0  0  0  0  0  0
   26.8169  -20.0602   -6.8763 C   0  0  0  0  0  0  0  0  0  0  0  0
   26.4414  -19.9943   -8.2217 C   0  0  0  0  0  0  0  0  0  0  0  0
   27.3390  -20.4920   -9.1434 C   0  0  0  0  0  0  0  0  0  0  0  0
   24.4099  -20.6305  -13.0093 C   0  0  0  0  0  0  0  0  0  0  0  0
   24.3405  -19.5980  -13.7605 O   0  0  0  0  0  0  0  0  0  0  0  0
   21.1887  -27.3788  -12.8812 N   0  0  0  0  0  0  0  0  0  0  0  0
   20.1174  -26.6538  -12.3078 C   0  0  0  0  0  0  0  0  0  0  0  0
   19.1839  -27.2891  -11.6504 N   0  0  0  0  0  0  0  0  0  0  0  0
   19.9898  -25.2416  -12.4048 N   0  0  0  0  0  0  0  0  0  0  0  0
   21.0274  -24.4087  -12.9881 C   0  0  0  0  0  0  0  0  0  0  0  0
   20.5477  -22.9542  -12.9451 C   0  0  0  0  0  0  0  0  0  0  0  0
   21.2563  -22.1271  -13.9719 C   0  0  0  0  0  0  0  0  0  0  0  0
   21.9243  -20.9442  -13.3686 C   0  0  2  0  0  0  0  0  0  0  0  0
   23.2201  -21.3273  -12.7848 N   0  0  0  0  0  0  0  0  0  0  0  0
   21.0806  -20.3015  -12.3662 C   0  0  0  0  0  0  0  0  0  0  0  0
   21.3748  -20.1976  -11.0313 O   0  0  0  0  0  0  0  0  0  0  0  0
   19.9711  -19.7889  -12.7362 O   0  0  0  0  0  0  0  0  0  0  0  0
  2  3  1  0
  2  1  1  6
  3  4  1  0
  5  2  1  0
  6  5  2  0
  7  5  1  0
  8  7  1  0
  9 10  1  0
  8  9  1  6
 10 11  2  0
 11 12  1  0
 13 14  2  0
 13 12  1  0
 15 14  1  0
 16 15  2  0
 17 16  1  0
 17 18  2  0
 18 10  1  0
 18 13  1  0
 19  8  1  0
 19 29  1  0
 20 19  2  0
 22 21  1  0
 23 22  2  0
 24 22  1  0
 25 26  1  0
 25 24  1  0
 26 27  1  0
 28 27  1  1
 28 29  1  0
 28 30  1  0
 30 32  2  0
 30 31  1  0
M  END
$$$$
