WSE.pdb
     RDKit          3D

 30 31  0  0  1  0  0  0  0  0999 V2000
    6.6864  -17.7042   24.4624 N   0  0  0  0  0  0  0  0  0  0  0  0
    7.4900  -16.6680   23.8552 C   0  0  1  0  0  0  0  0  0  0  0  0
    8.2371  -15.8116   24.8215 C   0  0  0  0  0  0  0  0  0  0  0  0
    7.3061  -14.9806   25.6121 C   0  0  0  0  0  0  0  0  0  0  0  0
    6.3198  -15.4239   26.4611 C   0  0  0  0  0  0  0  0  0  0  0  0
    5.7085  -14.3344   26.9467 N   0  0  0  0  0  0  0  0  0  0  0  0
    6.2650  -13.2237   26.4423 C   0  0  0  0  0  0  0  0  0  0  0  0
    5.9858  -11.8991   26.6531 C   0  0  0  0  0  0  0  0  0  0  0  0
    6.7255  -10.9300   26.0125 C   0  0  0  0  0  0  0  0  0  0  0  0
    7.7419  -11.3018   25.1638 C   0  0  0  0  0  0  0  0  0  0  0  0
    8.0227  -12.6408   24.9512 C   0  0  0  0  0  0  0  0  0  0  0  0
    7.2921  -13.6007   25.5836 C   0  0  0  0  0  0  0  0  0  0  0  0
    8.4396  -17.3029   22.9144 C   0  0  0  0  0  0  0  0  0  0  0  0
    8.9988  -18.3944   23.2512 O   0  0  0  0  0  0  0  0  0  0  0  0
    9.7214  -15.2051   19.5323 O   0  0  0  0  0  0  0  0  0  0  0  0
    9.8155  -16.5690   19.5229 C   0  0  0  0  0  0  0  0  0  0  0  0
    9.8661  -17.1529   20.9294 C   0  0  2  0  0  0  0  0  0  0  0  0
    8.7147  -16.6988   21.6520 N   0  0  0  0  0  0  0  0  0  0  0  0
   11.1404  -16.8308   21.5871 C   0  0  0  0  0  0  0  0  0  0  0  0
   11.3106  -15.6683   22.0576 O   0  0  0  0  0  0  0  0  0  0  0  0
   12.2189  -17.7334   21.7429 N   0  0  0  0  0  0  0  0  0  0  0  0
   13.4539  -17.4127   22.4643 C   0  0  1  0  0  0  0  0  0  0  0  0
   13.7142  -18.5848   23.3749 C   0  0  0  0  0  0  0  0  0  0  0  0
   12.6989  -18.7325   24.4817 C   0  0  0  0  0  0  0  0  0  0  0  0
   12.9885  -19.9456   25.3038 C   0  0  0  0  0  0  0  0  0  0  0  0
   12.2911  -20.2494   26.3029 O   0  0  0  0  0  0  0  0  0  0  0  0
   14.5467  -17.1319   21.5150 C   0  0  0  0  0  0  0  0  0  0  0  0
   14.3983  -17.4386   20.2814 O   0  0  0  0  0  0  0  0  0  0  0  0
   14.0549  -20.7602   24.9563 O   0  0  0  0  0  0  0  0  0  0  0  0
   15.7454  -16.5510   21.8511 O   0  0  0  0  0  0  0  0  0  0  0  0
  2  1  1  1
  2 13  1  0
  3  2  1  0
  3  4  1  0
  4 12  1  0
  4  5  2  0
  5  6  1  0
  7  6  1  0
  7  8  2  0
  9  8  1  0
 10  9  2  0
 11 12  2  0
 11 10  1  0
 12  7  1  0
 13 14  2  0
 16 15  1  0
 17 16  1  6
 18 13  1  0
 18 17  1  0
 19 17  1  0
 19 20  2  0
 21 19  1  0
 22 21  1  0
 22 27  1  0
 22 23  1  1
 24 23  1  0
 24 25  1  0
 25 26  2  0
 25 29  1  0
 27 28  2  0
 27 30  1  0
M  END
$$$$
