WSE.pdb
     RDKit          3D

 30 31  0  0  1  0  0  0  0  0999 V2000
    6.1134  -17.6407   24.5832 N   0  0  0  0  0  0  0  0  0  0  0  0
    6.8864  -16.5802   23.9782 C   0  0  1  0  0  0  0  0  0  0  0  0
    7.7983  -15.8612   24.9144 C   0  0  0  0  0  0  0  0  0  0  0  0
    7.0458  -14.8904   25.7352 C   0  0  0  0  0  0  0  0  0  0  0  0
    5.9946  -15.1610   26.5790 C   0  0  0  0  0  0  0  0  0  0  0  0
    5.6046  -13.9890   27.0996 N   0  0  0  0  0  0  0  0  0  0  0  0
    6.3627  -12.9914   26.6224 C   0  0  0  0  0  0  0  0  0  0  0  0
    6.3432  -11.6445   26.8723 C   0  0  0  0  0  0  0  0  0  0  0  0
    7.2537  -10.8170   26.2535 C   0  0  0  0  0  0  0  0  0  0  0  0
    8.1781  -11.3519   25.3870 C   0  0  0  0  0  0  0  0  0  0  0  0
    8.1965  -12.7132   25.1347 C   0  0  0  0  0  0  0  0  0  0  0  0
    7.2966  -13.5332   25.7455 C   0  0  0  0  0  0  0  0  0  0  0  0
    7.6695  -17.1513   22.8599 C   0  0  0  0  0  0  0  0  0  0  0  0
    8.2754  -18.2554   23.0368 O   0  0  0  0  0  0  0  0  0  0  0  0
    8.8054  -14.8143   19.4868 O   0  0  0  0  0  0  0  0  0  0  0  0
    8.5125  -16.1437   19.3599 C   0  0  0  0  0  0  0  0  0  0  0  0
    8.7218  -16.9067   20.6621 C   0  0  2  0  0  0  0  0  0  0  0  0
    7.7355  -16.4728   21.6070 N   0  0  0  0  0  0  0  0  0  0  0  0
   10.1034  -16.7599   21.1415 C   0  0  0  0  0  0  0  0  0  0  0  0
   10.4273  -15.7067   21.7640 O   0  0  0  0  0  0  0  0  0  0  0  0
   11.1263  -17.7208   20.9619 N   0  0  0  0  0  0  0  0  0  0  0  0
   12.5310  -17.4930   21.3135 C   0  0  1  0  0  0  0  0  0  0  0  0
   12.8772  -18.5505   22.3296 C   0  0  0  0  0  0  0  0  0  0  0  0
   12.2304  -18.3353   23.6761 C   0  0  0  0  0  0  0  0  0  0  0  0
   12.5732  -19.4502   24.6093 C   0  0  0  0  0  0  0  0  0  0  0  0
   12.0889  -20.6006   24.4714 O   0  0  0  0  0  0  0  0  0  0  0  0
   13.3750  -17.5185   20.1047 C   0  0  0  0  0  0  0  0  0  0  0  0
   14.6284  -17.2827   20.2115 O   0  0  0  0  0  0  0  0  0  0  0  0
   13.4497  -19.2114   25.6563 O   0  0  0  0  0  0  0  0  0  0  0  0
   12.9180  -17.7827   18.8364 O   0  0  0  0  0  0  0  0  0  0  0  0
  2  1  1  1
  2 13  1  0
  3  2  1  0
  3  4  1  0
  4 12  1  0
  4  5  2  0
  5  6  1  0
  7  6  1  0
  7  8  2  0
  9  8  1  0
 10  9  2  0
 11 12  2  0
 11 10  1  0
 12  7  1  0
 13 14  2  0
 16 15  1  0
 17 16  1  6
 18 13  1  0
 18 17  1  0
 19 17  1  0
 19 20  2  0
 21 19  1  0
 22 21  1  0
 22 27  1  0
 22 23  1  1
 24 23  1  0
 24 25  1  0
 25 26  2  0
 25 29  1  0
 27 28  2  0
 27 30  1  0
M  END
$$$$
