WSE.pdb
     RDKit          3D

 30 31  0  0  1  0  0  0  0  0999 V2000
    6.4566  -17.8233   24.8008 N   0  0  0  0  0  0  0  0  0  0  0  0
    6.9786  -16.6341   24.1672 C   0  0  1  0  0  0  0  0  0  0  0  0
    7.7815  -15.7517   25.0627 C   0  0  0  0  0  0  0  0  0  0  0  0
    6.9068  -14.8068   25.7870 C   0  0  0  0  0  0  0  0  0  0  0  0
    5.8194  -15.1197   26.5679 C   0  0  0  0  0  0  0  0  0  0  0  0
    5.3130  -13.9597   27.0090 N   0  0  0  0  0  0  0  0  0  0  0  0
    6.0322  -12.9292   26.5416 C   0  0  0  0  0  0  0  0  0  0  0  0
    5.9016  -11.5786   26.7305 C   0  0  0  0  0  0  0  0  0  0  0  0
    6.7943  -10.7119   26.1399 C   0  0  0  0  0  0  0  0  0  0  0  0
    7.8130  -11.2119   25.3627 C   0  0  0  0  0  0  0  0  0  0  0  0
    7.9436  -12.5771   25.1721 C   0  0  0  0  0  0  0  0  0  0  0  0
    7.0616  -13.4356   25.7551 C   0  0  0  0  0  0  0  0  0  0  0  0
    7.7989  -17.0442   23.0058 C   0  0  0  0  0  0  0  0  0  0  0  0
    8.5221  -18.0859   23.1032 O   0  0  0  0  0  0  0  0  0  0  0  0
    8.5758  -14.3081   19.8588 O   0  0  0  0  0  0  0  0  0  0  0  0
    8.5390  -15.6528   19.6148 C   0  0  0  0  0  0  0  0  0  0  0  0
    8.8387  -16.4734   20.8632 C   0  0  2  0  0  0  0  0  0  0  0  0
    7.7708  -16.2830   21.7999 N   0  0  0  0  0  0  0  0  0  0  0  0
   10.1645  -16.1424   21.4044 C   0  0  0  0  0  0  0  0  0  0  0  0
   10.2394  -15.4683   22.4729 O   0  0  0  0  0  0  0  0  0  0  0  0
   11.3941  -16.5240   20.8174 N   0  0  0  0  0  0  0  0  0  0  0  0
   12.6829  -16.4685   21.5134 C   0  0  1  0  0  0  0  0  0  0  0  0
   12.5269  -17.3341   22.7370 C   0  0  0  0  0  0  0  0  0  0  0  0
   13.8123  -17.5486   23.4983 C   0  0  0  0  0  0  0  0  0  0  0  0
   13.5899  -18.4594   24.6613 C   0  0  0  0  0  0  0  0  0  0  0  0
   12.5317  -19.1235   24.7882 O   0  0  0  0  0  0  0  0  0  0  0  0
   13.7729  -16.8874   20.6130 C   0  0  0  0  0  0  0  0  0  0  0  0
   13.5296  -17.7409   19.6908 O   0  0  0  0  0  0  0  0  0  0  0  0
   14.5767  -18.5769   25.6276 O   0  0  0  0  0  0  0  0  0  0  0  0
   15.0649  -16.4256   20.6805 O   0  0  0  0  0  0  0  0  0  0  0  0
  2  1  1  1
  2 13  1  0
  3  2  1  0
  3  4  1  0
  4 12  1  0
  4  5  2  0
  5  6  1  0
  7  6  1  0
  7  8  2  0
  9  8  1  0
 10  9  2  0
 11 12  2  0
 11 10  1  0
 12  7  1  0
 13 14  2  0
 16 15  1  0
 17 16  1  6
 18 13  1  0
 18 17  1  0
 19 17  1  0
 19 20  2  0
 21 19  1  0
 22 21  1  0
 22 27  1  0
 22 23  1  1
 24 23  1  0
 24 25  1  0
 25 26  2  0
 25 29  1  0
 27 28  2  0
 27 30  1  0
M  END
$$$$
