WSE.pdb
     RDKit          3D

 30 31  0  0  1  0  0  0  0  0999 V2000
    6.7501  -17.8625   25.5352 N   0  0  0  0  0  0  0  0  0  0  0  0
    6.6062  -17.1101   24.3099 C   0  0  1  0  0  0  0  0  0  0  0  0
    6.2127  -15.6834   24.4968 C   0  0  0  0  0  0  0  0  0  0  0  0
    7.0279  -15.0501   25.5535 C   0  0  0  0  0  0  0  0  0  0  0  0
    8.0278  -15.6392   26.2906 C   0  0  0  0  0  0  0  0  0  0  0  0
    8.4786  -14.7093   27.1442 N   0  0  0  0  0  0  0  0  0  0  0  0
    7.8082  -13.5600   26.9785 C   0  0  0  0  0  0  0  0  0  0  0  0
    7.9251  -12.3486   27.6076 C   0  0  0  0  0  0  0  0  0  0  0  0
    7.1114  -11.3006   27.2385 C   0  0  0  0  0  0  0  0  0  0  0  0
    6.1851  -11.4800   26.2378 C   0  0  0  0  0  0  0  0  0  0  0  0
    6.0675  -12.7049   25.6031 C   0  0  0  0  0  0  0  0  0  0  0  0
    6.8712  -13.7426   25.9669 C   0  0  0  0  0  0  0  0  0  0  0  0
    7.8824  -17.1815   23.5642 C   0  0  0  0  0  0  0  0  0  0  0  0
    8.8159  -17.9180   24.0156 O   0  0  0  0  0  0  0  0  0  0  0  0
    8.5392  -14.6884   20.3685 O   0  0  0  0  0  0  0  0  0  0  0  0
    9.1796  -15.8948   20.3094 C   0  0  0  0  0  0  0  0  0  0  0  0
    9.3129  -16.5443   21.6813 C   0  0  2  0  0  0  0  0  0  0  0  0
    8.0544  -16.4386   22.3588 N   0  0  0  0  0  0  0  0  0  0  0  0
   10.4369  -15.9649   22.4304 C   0  0  0  0  0  0  0  0  0  0  0  0
   10.1928  -15.2465   23.4433 O   0  0  0  0  0  0  0  0  0  0  0  0
   11.8022  -16.1480   22.1069 N   0  0  0  0  0  0  0  0  0  0  0  0
   12.8987  -15.9681   23.0628 C   0  0  1  0  0  0  0  0  0  0  0  0
   12.6165  -16.9202   24.1962 C   0  0  0  0  0  0  0  0  0  0  0  0
   13.6982  -16.9514   25.2482 C   0  0  0  0  0  0  0  0  0  0  0  0
   13.3710  -17.9490   26.3108 C   0  0  0  0  0  0  0  0  0  0  0  0
   13.2249  -19.1687   26.0502 O   0  0  0  0  0  0  0  0  0  0  0  0
   14.1988  -16.1853   22.4020 C   0  0  0  0  0  0  0  0  0  0  0  0
   14.2640  -16.9675   21.3911 O   0  0  0  0  0  0  0  0  0  0  0  0
   13.2247  -17.5197   27.6206 O   0  0  0  0  0  0  0  0  0  0  0  0
   15.3807  -15.6017   22.7890 O   0  0  0  0  0  0  0  0  0  0  0  0
  2  1  1  1
  2 13  1  0
  3  2  1  0
  3  4  1  0
  4 12  1  0
  4  5  2  0
  5  6  1  0
  7  6  1  0
  7  8  2  0
  9  8  1  0
 10  9  2  0
 11 12  2  0
 11 10  1  0
 12  7  1  0
 13 14  2  0
 16 15  1  0
 17 16  1  6
 18 13  1  0
 18 17  1  0
 19 17  1  0
 19 20  2  0
 21 19  1  0
 22 21  1  0
 22 27  1  0
 22 23  1  1
 24 23  1  0
 24 25  1  0
 25 26  2  0
 25 29  1  0
 27 28  2  0
 27 30  1  0
M  END
$$$$
