WSE.pdb
     RDKit          3D

 30 31  0  0  1  0  0  0  0  0999 V2000
   10.2398  -17.5543   20.1421 N   0  0  0  0  0  0  0  0  0  0  0  0
   10.9124  -16.2758   20.1102 C   0  0  1  0  0  0  0  0  0  0  0  0
   10.7832  -15.4719   21.3601 C   0  0  0  0  0  0  0  0  0  0  0  0
    9.4159  -14.9287   21.4936 C   0  0  0  0  0  0  0  0  0  0  0  0
    8.4929  -15.2426   22.4629 C   0  0  0  0  0  0  0  0  0  0  0  0
    7.3873  -14.5365   22.1878 N   0  0  0  0  0  0  0  0  0  0  0  0
    7.5716  -13.7911   21.0886 C   0  0  0  0  0  0  0  0  0  0  0  0
    6.7394  -12.9152   20.4426 C   0  0  0  0  0  0  0  0  0  0  0  0
    7.1785  -12.2512   19.3187 C   0  0  0  0  0  0  0  0  0  0  0  0
    8.4533  -12.4740   18.8531 C   0  0  0  0  0  0  0  0  0  0  0  0
    9.2932  -13.3599   19.5065 C   0  0  0  0  0  0  0  0  0  0  0  0
    8.8607  -14.0177   20.6179 C   0  0  0  0  0  0  0  0  0  0  0  0
   12.3434  -16.5070   19.8121 C   0  0  0  0  0  0  0  0  0  0  0  0
   12.8818  -17.5934   20.1961 O   0  0  0  0  0  0  0  0  0  0  0  0
   15.4687  -13.5943   18.4831 O   0  0  0  0  0  0  0  0  0  0  0  0
   15.0433  -14.7650   17.9196 C   0  0  0  0  0  0  0  0  0  0  0  0
   14.5078  -15.7432   18.9580 C   0  0  2  0  0  0  0  0  0  0  0  0
   13.0984  -15.5270   19.1023 N   0  0  0  0  0  0  0  0  0  0  0  0
   15.2541  -15.6321   20.2193 C   0  0  0  0  0  0  0  0  0  0  0  0
   14.6300  -15.3205   21.2752 O   0  0  0  0  0  0  0  0  0  0  0  0
   16.6455  -15.8504   20.3556 N   0  0  0  0  0  0  0  0  0  0  0  0
   17.3439  -15.8847   21.6439 C   0  0  1  0  0  0  0  0  0  0  0  0
   16.6238  -16.9152   22.4746 C   0  0  0  0  0  0  0  0  0  0  0  0
   17.2330  -17.1311   23.8384 C   0  0  0  0  0  0  0  0  0  0  0  0
   16.3995  -18.0730   24.6445 C   0  0  0  0  0  0  0  0  0  0  0  0
   15.4452  -18.7119   24.1366 O   0  0  0  0  0  0  0  0  0  0  0  0
   18.7778  -16.1648   21.4450 C   0  0  0  0  0  0  0  0  0  0  0  0
   19.1587  -16.7462   20.3702 O   0  0  0  0  0  0  0  0  0  0  0  0
   16.6855  -18.2489   25.9893 O   0  0  0  0  0  0  0  0  0  0  0  0
   19.7694  -15.8448   22.3403 O   0  0  0  0  0  0  0  0  0  0  0  0
  2  1  1  1
  2 13  1  0
  3  2  1  0
  3  4  1  0
  4 12  1  0
  4  5  2  0
  5  6  1  0
  7  6  1  0
  7  8  2  0
  9  8  1  0
 10  9  2  0
 11 12  2  0
 11 10  1  0
 12  7  1  0
 13 14  2  0
 16 15  1  0
 17 16  1  6
 18 13  1  0
 18 17  1  0
 19 17  1  0
 19 20  2  0
 21 19  1  0
 22 21  1  0
 22 27  1  0
 22 23  1  1
 24 23  1  0
 24 25  1  0
 25 26  2  0
 25 29  1  0
 27 28  2  0
 27 30  1  0
M  END
$$$$
