WSE.pdb
     RDKit          3D

 30 31  0  0  1  0  0  0  0  0999 V2000
    6.6458  -17.8482   24.8318 N   0  0  0  0  0  0  0  0  0  0  0  0
    7.1133  -16.7305   24.0442 C   0  0  1  0  0  0  0  0  0  0  0  0
    7.9519  -15.7487   24.7912 C   0  0  0  0  0  0  0  0  0  0  0  0
    7.1103  -14.8824   25.6418 C   0  0  0  0  0  0  0  0  0  0  0  0
    6.0967  -15.2813   26.4807 C   0  0  0  0  0  0  0  0  0  0  0  0
    5.5937  -14.1699   27.0359 N   0  0  0  0  0  0  0  0  0  0  0  0
    6.2447  -13.0878   26.5852 C   0  0  0  0  0  0  0  0  0  0  0  0
    6.0911  -11.7574   26.8738 C   0  0  0  0  0  0  0  0  0  0  0  0
    6.9099  -10.8250   26.2762 C   0  0  0  0  0  0  0  0  0  0  0  0
    7.8783  -11.2393   25.3919 C   0  0  0  0  0  0  0  0  0  0  0  0
    8.0322  -12.5841   25.1006 C   0  0  0  0  0  0  0  0  0  0  0  0
    7.2232  -13.5076   25.6903 C   0  0  0  0  0  0  0  0  0  0  0  0
    7.8729  -17.2574   22.8887 C   0  0  0  0  0  0  0  0  0  0  0  0
    8.5053  -18.3531   23.0189 O   0  0  0  0  0  0  0  0  0  0  0  0
    8.2634  -14.9740   19.4368 O   0  0  0  0  0  0  0  0  0  0  0  0
    8.4201  -16.3273   19.3220 C   0  0  0  0  0  0  0  0  0  0  0  0
    8.8109  -16.9764   20.6439 C   0  0  2  0  0  0  0  0  0  0  0  0
    7.8876  -16.5464   21.6522 N   0  0  0  0  0  0  0  0  0  0  0  0
   10.2159  -16.6964   20.9722 C   0  0  0  0  0  0  0  0  0  0  0  0
   10.5392  -15.5281   21.3359 O   0  0  0  0  0  0  0  0  0  0  0  0
   11.2628  -17.6465   20.9151 N   0  0  0  0  0  0  0  0  0  0  0  0
   12.6694  -17.3280   21.1773 C   0  0  1  0  0  0  0  0  0  0  0  0
   13.1215  -18.3024   22.2341 C   0  0  0  0  0  0  0  0  0  0  0  0
   12.4099  -18.1405   23.5551 C   0  0  0  0  0  0  0  0  0  0  0  0
   12.8749  -19.1693   24.5333 C   0  0  0  0  0  0  0  0  0  0  0  0
   12.8712  -18.9547   25.7706 O   0  0  0  0  0  0  0  0  0  0  0  0
   13.4519  -17.3860   19.9288 C   0  0  0  0  0  0  0  0  0  0  0  0
   12.9624  -17.9878   18.9108 O   0  0  0  0  0  0  0  0  0  0  0  0
   13.3223  -20.3950   24.0655 O   0  0  0  0  0  0  0  0  0  0  0  0
   14.6975  -16.8319   19.7594 O   0  0  0  0  0  0  0  0  0  0  0  0
  2  1  1  1
  2 13  1  0
  3  2  1  0
  3  4  1  0
  4 12  1  0
  4  5  2  0
  5  6  1  0
  7  6  1  0
  7  8  2  0
  9  8  1  0
 10  9  2  0
 11 12  2  0
 11 10  1  0
 12  7  1  0
 13 14  2  0
 16 15  1  0
 17 16  1  6
 18 13  1  0
 18 17  1  0
 19 17  1  0
 19 20  2  0
 21 19  1  0
 22 21  1  0
 22 27  1  0
 22 23  1  1
 24 23  1  0
 24 25  1  0
 25 26  2  0
 25 29  1  0
 27 28  2  0
 27 30  1  0
M  END
$$$$
