WSE.pdb
     RDKit          3D

 30 31  0  0  1  0  0  0  0  0999 V2000
    6.2688  -17.3518   23.7747 N   0  0  0  0  0  0  0  0  0  0  0  0
    7.3134  -16.3943   23.4916 C   0  0  1  0  0  0  0  0  0  0  0  0
    7.9985  -15.8442   24.6971 C   0  0  0  0  0  0  0  0  0  0  0  0
    7.0588  -15.0522   25.5169 C   0  0  0  0  0  0  0  0  0  0  0  0
    5.9958  -15.5281   26.2474 C   0  0  0  0  0  0  0  0  0  0  0  0
    5.4083  -14.4648   26.8138 N   0  0  0  0  0  0  0  0  0  0  0  0
    6.0532  -13.3395   26.4735 C   0  0  0  0  0  0  0  0  0  0  0  0
    5.8273  -12.0320   26.8145 C   0  0  0  0  0  0  0  0  0  0  0  0
    6.6569  -11.0429   26.3346 C   0  0  0  0  0  0  0  0  0  0  0  0
    7.7088  -11.3777   25.5144 C   0  0  0  0  0  0  0  0  0  0  0  0
    7.9358  -12.6995   25.1700 C   0  0  0  0  0  0  0  0  0  0  0  0
    7.1163  -13.6790   25.6433 C   0  0  0  0  0  0  0  0  0  0  0  0
    8.3076  -17.0353   22.6025 C   0  0  0  0  0  0  0  0  0  0  0  0
    7.9799  -18.0947   21.9796 O   0  0  0  0  0  0  0  0  0  0  0  0
    9.5007  -15.5384   19.6339 O   0  0  0  0  0  0  0  0  0  0  0  0
    9.6053  -16.8283   20.0746 C   0  0  0  0  0  0  0  0  0  0  0  0
   10.4159  -16.9341   21.3605 C   0  0  2  0  0  0  0  0  0  0  0  0
    9.6069  -16.4676   22.4477 N   0  0  0  0  0  0  0  0  0  0  0  0
   11.6982  -16.2272   21.2334 C   0  0  0  0  0  0  0  0  0  0  0  0
   11.6919  -14.9786   21.0272 O   0  0  0  0  0  0  0  0  0  0  0  0
   12.9702  -16.8403   21.3253 N   0  0  0  0  0  0  0  0  0  0  0  0
   13.9668  -16.5034   22.3461 C   0  0  1  0  0  0  0  0  0  0  0  0
   13.3343  -16.8517   23.6688 C   0  0  0  0  0  0  0  0  0  0  0  0
   13.1000  -18.3302   23.8605 C   0  0  0  0  0  0  0  0  0  0  0  0
   12.6431  -18.6147   25.2540 C   0  0  0  0  0  0  0  0  0  0  0  0
   12.5119  -17.7017   26.1062 O   0  0  0  0  0  0  0  0  0  0  0  0
   15.2348  -17.2072   22.0797 C   0  0  0  0  0  0  0  0  0  0  0  0
   15.2479  -18.1801   21.2482 O   0  0  0  0  0  0  0  0  0  0  0  0
   12.3547  -19.9205   25.6186 O   0  0  0  0  0  0  0  0  0  0  0  0
   16.4391  -16.8982   22.6640 O   0  0  0  0  0  0  0  0  0  0  0  0
  2  1  1  1
  2 13  1  0
  3  2  1  0
  3  4  1  0
  4 12  1  0
  4  5  2  0
  5  6  1  0
  7  6  1  0
  7  8  2  0
  9  8  1  0
 10  9  2  0
 11 12  2  0
 11 10  1  0
 12  7  1  0
 13 14  2  0
 16 15  1  0
 17 16  1  6
 18 13  1  0
 18 17  1  0
 19 17  1  0
 19 20  2  0
 21 19  1  0
 22 21  1  0
 22 27  1  0
 22 23  1  1
 24 23  1  0
 24 25  1  0
 25 26  2  0
 25 29  1  0
 27 28  2  0
 27 30  1  0
M  END
$$$$
