WSE.pdb
     RDKit          3D

 30 31  0  0  1  0  0  0  0  0999 V2000
    8.9258  -18.2081   20.9629 N   0  0  0  0  0  0  0  0  0  0  0  0
    9.7195  -17.0529   20.6110 C   0  0  1  0  0  0  0  0  0  0  0  0
    9.4966  -15.8569   21.4741 C   0  0  0  0  0  0  0  0  0  0  0  0
    8.2997  -15.1106   21.0349 C   0  0  0  0  0  0  0  0  0  0  0  0
    7.0007  -15.3252   21.4307 C   0  0  0  0  0  0  0  0  0  0  0  0
    6.2433  -14.4382   20.7704 N   0  0  0  0  0  0  0  0  0  0  0  0
    7.0062  -13.6735   19.9760 C   0  0  0  0  0  0  0  0  0  0  0  0
    6.6818  -12.6426   19.1340 C   0  0  0  0  0  0  0  0  0  0  0  0
    7.6700  -11.9974   18.4241 C   0  0  0  0  0  0  0  0  0  0  0  0
    8.9788  -12.3951   18.5673 C   0  0  0  0  0  0  0  0  0  0  0  0
    9.3053  -13.4374   19.4182 C   0  0  0  0  0  0  0  0  0  0  0  0
    8.3295  -14.0769   20.1208 C   0  0  0  0  0  0  0  0  0  0  0  0
   11.1481  -17.4369   20.6506 C   0  0  0  0  0  0  0  0  0  0  0  0
   11.4967  -18.4287   21.3663 O   0  0  0  0  0  0  0  0  0  0  0  0
   13.9759  -15.1913   18.6308 O   0  0  0  0  0  0  0  0  0  0  0  0
   14.2435  -16.5204   18.8071 C   0  0  0  0  0  0  0  0  0  0  0  0
   13.4831  -17.1096   19.9888 C   0  0  2  0  0  0  0  0  0  0  0  0
   12.1112  -16.7064   19.8934 N   0  0  0  0  0  0  0  0  0  0  0  0
   14.1198  -16.7399   21.2609 C   0  0  0  0  0  0  0  0  0  0  0  0
   14.4225  -15.5282   21.4654 O   0  0  0  0  0  0  0  0  0  0  0  0
   14.4296  -17.6469   22.3019 N   0  0  0  0  0  0  0  0  0  0  0  0
   15.0966  -17.2613   23.5488 C   0  0  1  0  0  0  0  0  0  0  0  0
   15.2359  -18.5301   24.3499 C   0  0  0  0  0  0  0  0  0  0  0  0
   16.0230  -18.3602   25.6263 C   0  0  0  0  0  0  0  0  0  0  0  0
   16.1242  -19.6579   26.3593 C   0  0  0  0  0  0  0  0  0  0  0  0
   15.9831  -19.7263   27.6053 O   0  0  0  0  0  0  0  0  0  0  0  0
   16.3755  -16.5860   23.2612 C   0  0  0  0  0  0  0  0  0  0  0  0
   16.6994  -15.5465   23.9340 O   0  0  0  0  0  0  0  0  0  0  0  0
   16.3799  -20.8195   25.6475 O   0  0  0  0  0  0  0  0  0  0  0  0
   17.2761  -16.9895   22.3056 O   0  0  0  0  0  0  0  0  0  0  0  0
  2  1  1  1
  2 13  1  0
  3  2  1  0
  3  4  1  0
  4 12  1  0
  4  5  2  0
  5  6  1  0
  7  6  1  0
  7  8  2  0
  9  8  1  0
 10  9  2  0
 11 12  2  0
 11 10  1  0
 12  7  1  0
 13 14  2  0
 16 15  1  0
 17 16  1  6
 18 13  1  0
 18 17  1  0
 19 17  1  0
 19 20  2  0
 21 19  1  0
 22 21  1  0
 22 27  1  0
 22 23  1  1
 24 23  1  0
 24 25  1  0
 25 26  2  0
 25 29  1  0
 27 28  2  0
 27 30  1  0
M  END
$$$$
