WSE.pdb
     RDKit          3D

 30 31  0  0  1  0  0  0  0  0999 V2000
    6.3508  -17.8794   24.2766 N   0  0  0  0  0  0  0  0  0  0  0  0
    7.0995  -16.7649   23.7424 C   0  0  1  0  0  0  0  0  0  0  0  0
    7.8771  -15.9934   24.7550 C   0  0  0  0  0  0  0  0  0  0  0  0
    7.0058  -15.0335   25.4633 C   0  0  0  0  0  0  0  0  0  0  0  0
    5.7858  -15.2949   26.0408 C   0  0  0  0  0  0  0  0  0  0  0  0
    5.3418  -14.1367   26.5487 N   0  0  0  0  0  0  0  0  0  0  0  0
    6.2271  -13.1565   26.3179 C   0  0  0  0  0  0  0  0  0  0  0  0
    6.2106  -11.8285   26.6540 C   0  0  0  0  0  0  0  0  0  0  0  0
    7.2680  -11.0176   26.3057 C   0  0  0  0  0  0  0  0  0  0  0  0
    8.3352  -11.5503   25.6209 C   0  0  0  0  0  0  0  0  0  0  0  0
    8.3504  -12.8925   25.2813 C   0  0  0  0  0  0  0  0  0  0  0  0
    7.3055  -13.6959   25.6246 C   0  0  0  0  0  0  0  0  0  0  0  0
    8.0124  -17.2734   22.6946 C   0  0  0  0  0  0  0  0  0  0  0  0
    8.6134  -18.3774   22.8882 O   0  0  0  0  0  0  0  0  0  0  0  0
    7.9742  -16.3450   18.6515 O   0  0  0  0  0  0  0  0  0  0  0  0
    9.1521  -16.1489   19.3172 C   0  0  0  0  0  0  0  0  0  0  0  0
    9.2366  -16.9751   20.5946 C   0  0  2  0  0  0  0  0  0  0  0  0
    8.2067  -16.5359   21.4893 N   0  0  0  0  0  0  0  0  0  0  0  0
   10.5865  -16.9131   21.1727 C   0  0  0  0  0  0  0  0  0  0  0  0
   10.9057  -15.9119   21.8779 O   0  0  0  0  0  0  0  0  0  0  0  0
   11.5830  -17.9033   21.0036 N   0  0  0  0  0  0  0  0  0  0  0  0
   12.9603  -17.7659   21.4862 C   0  0  1  0  0  0  0  0  0  0  0  0
   13.3520  -19.1257   22.0041 C   0  0  0  0  0  0  0  0  0  0  0  0
   12.5658  -19.5652   23.2150 C   0  0  0  0  0  0  0  0  0  0  0  0
   13.0778  -20.8705   23.7301 C   0  0  0  0  0  0  0  0  0  0  0  0
   12.4582  -21.9459   23.5385 O   0  0  0  0  0  0  0  0  0  0  0  0
   13.8332  -17.2544   20.4135 C   0  0  0  0  0  0  0  0  0  0  0  0
   13.4345  -17.3171   19.1990 O   0  0  0  0  0  0  0  0  0  0  0  0
   14.2690  -20.8986   24.4385 O   0  0  0  0  0  0  0  0  0  0  0  0
   15.0738  -16.6988   20.6122 O   0  0  0  0  0  0  0  0  0  0  0  0
  2  1  1  1
  2 13  1  0
  3  2  1  0
  3  4  1  0
  4 12  1  0
  4  5  2  0
  5  6  1  0
  7  6  1  0
  7  8  2  0
  9  8  1  0
 10  9  2  0
 11 12  2  0
 11 10  1  0
 12  7  1  0
 13 14  2  0
 16 15  1  0
 17 16  1  6
 18 13  1  0
 18 17  1  0
 19 17  1  0
 19 20  2  0
 21 19  1  0
 22 21  1  0
 22 27  1  0
 22 23  1  6
 24 23  1  0
 24 25  1  0
 25 26  2  0
 25 29  1  0
 27 28  2  0
 27 30  1  0
M  END
$$$$
