WSE.pdb
     RDKit          3D

 30 31  0  0  1  0  0  0  0  0999 V2000
    7.0254  -16.0552   22.5221 N   0  0  0  0  0  0  0  0  0  0  0  0
    7.9983  -16.0597   23.5905 C   0  0  1  0  0  0  0  0  0  0  0  0
    7.4934  -16.5867   24.8914 C   0  0  0  0  0  0  0  0  0  0  0  0
    7.5395  -15.5402   25.9331 C   0  0  0  0  0  0  0  0  0  0  0  0
    7.8518  -15.7093   27.2613 C   0  0  0  0  0  0  0  0  0  0  0  0
    7.7494  -14.5043   27.8394 N   0  0  0  0  0  0  0  0  0  0  0  0
    7.3869  -13.5828   26.9355 C   0  0  0  0  0  0  0  0  0  0  0  0
    7.1722  -12.2351   27.0574 C   0  0  0  0  0  0  0  0  0  0  0  0
    6.8128  -11.4934   25.9540 C   0  0  0  0  0  0  0  0  0  0  0  0
    6.6720  -12.1144   24.7350 C   0  0  0  0  0  0  0  0  0  0  0  0
    6.8887  -13.4765   24.6132 C   0  0  0  0  0  0  0  0  0  0  0  0
    7.2439  -14.2117   25.7032 C   0  0  0  0  0  0  0  0  0  0  0  0
    9.1700  -16.8507   23.1533 C   0  0  0  0  0  0  0  0  0  0  0  0
    8.9751  -17.9354   22.5184 O   0  0  0  0  0  0  0  0  0  0  0  0
   12.0979  -16.3999   20.1921 O   0  0  0  0  0  0  0  0  0  0  0  0
   11.1439  -16.1564   21.1406 C   0  0  0  0  0  0  0  0  0  0  0  0
   11.5274  -16.7225   22.5023 C   0  0  2  0  0  0  0  0  0  0  0  0
   10.4919  -16.3970   23.4381 N   0  0  0  0  0  0  0  0  0  0  0  0
   12.8597  -16.2547   22.9100 C   0  0  0  0  0  0  0  0  0  0  0  0
   13.0504  -15.0143   23.0731 O   0  0  0  0  0  0  0  0  0  0  0  0
   13.9741  -17.0952   23.1419 N   0  0  0  0  0  0  0  0  0  0  0  0
   15.2717  -16.6153   23.6262 C   0  0  1  0  0  0  0  0  0  0  0  0
   15.7228  -17.6185   24.6561 C   0  0  0  0  0  0  0  0  0  0  0  0
   15.7492  -19.0400   24.1500 C   0  0  0  0  0  0  0  0  0  0  0  0
   16.1844  -19.9757   25.2300 C   0  0  0  0  0  0  0  0  0  0  0  0
   15.5069  -20.1409   26.2744 O   0  0  0  0  0  0  0  0  0  0  0  0
   16.2093  -16.4424   22.5013 C   0  0  0  0  0  0  0  0  0  0  0  0
   15.8772  -16.8640   21.3394 O   0  0  0  0  0  0  0  0  0  0  0  0
   17.3671  -20.6824   25.0778 O   0  0  0  0  0  0  0  0  0  0  0  0
   17.4446  -15.8489   22.5962 O   0  0  0  0  0  0  0  0  0  0  0  0
  2  1  1  6
  2 13  1  0
  3  2  1  0
  3  4  1  0
  4 12  1  0
  4  5  2  0
  5  6  1  0
  7  6  1  0
  7  8  2  0
  9  8  1  0
 10  9  2  0
 11 12  2  0
 11 10  1  0
 12  7  1  0
 13 14  2  0
 16 15  1  0
 17 16  1  6
 18 13  1  0
 18 17  1  0
 19 17  1  0
 19 20  2  0
 21 19  1  0
 22 21  1  0
 22 27  1  0
 22 23  1  1
 24 23  1  0
 24 25  1  0
 25 26  2  0
 25 29  1  0
 27 28  2  0
 27 30  1  0
M  END
$$$$
