WSE.pdb
     RDKit          3D

 30 31  0  0  1  0  0  0  0  0999 V2000
    6.8637  -17.8327   24.0635 N   0  0  0  0  0  0  0  0  0  0  0  0
    7.7367  -16.7612   23.6415 C   0  0  1  0  0  0  0  0  0  0  0  0
    8.3521  -15.9830   24.7554 C   0  0  0  0  0  0  0  0  0  0  0  0
    7.3349  -15.1633   25.4451 C   0  0  0  0  0  0  0  0  0  0  0  0
    6.1308  -15.5932   25.9505 C   0  0  0  0  0  0  0  0  0  0  0  0
    5.5220  -14.5172   26.4683 N   0  0  0  0  0  0  0  0  0  0  0  0
    6.2880  -13.4279   26.3125 C   0  0  0  0  0  0  0  0  0  0  0  0
    6.0899  -12.1248   26.6860 C   0  0  0  0  0  0  0  0  0  0  0  0
    7.0534  -11.1782   26.4170 C   0  0  0  0  0  0  0  0  0  0  0  0
    8.2104  -11.5508   25.7734 C   0  0  0  0  0  0  0  0  0  0  0  0
    8.4092  -12.8680   25.3959 C   0  0  0  0  0  0  0  0  0  0  0  0
    7.4574  -13.8055   25.6608 C   0  0  0  0  0  0  0  0  0  0  0  0
    8.8002  -17.3334   22.7862 C   0  0  0  0  0  0  0  0  0  0  0  0
    9.2786  -18.4738   23.0833 O   0  0  0  0  0  0  0  0  0  0  0  0
   10.5927  -14.9008   19.9079 O   0  0  0  0  0  0  0  0  0  0  0  0
   10.7410  -16.2541   19.7838 C   0  0  0  0  0  0  0  0  0  0  0  0
   10.5506  -16.9788   21.1106 C   0  0  2  0  0  0  0  0  0  0  0  0
    9.2725  -16.6156   21.6478 N   0  0  0  0  0  0  0  0  0  0  0  0
   11.6718  -16.7104   22.0221 C   0  0  0  0  0  0  0  0  0  0  0  0
   11.6077  -15.7098   22.7943 O   0  0  0  0  0  0  0  0  0  0  0  0
   12.8451  -17.4962   22.1116 N   0  0  0  0  0  0  0  0  0  0  0  0
   13.7391  -17.4988   23.2732 C   0  0  1  0  0  0  0  0  0  0  0  0
   12.8805  -17.8784   24.4519 C   0  0  0  0  0  0  0  0  0  0  0  0
   13.6675  -18.2088   25.6965 C   0  0  0  0  0  0  0  0  0  0  0  0
   12.7498  -18.5419   26.8271 C   0  0  0  0  0  0  0  0  0  0  0  0
   11.5073  -18.6287   26.6667 O   0  0  0  0  0  0  0  0  0  0  0  0
   14.8807  -18.4030   23.0423 C   0  0  0  0  0  0  0  0  0  0  0  0
   14.7504  -19.3795   22.2253 O   0  0  0  0  0  0  0  0  0  0  0  0
   13.2813  -18.7623   28.0882 O   0  0  0  0  0  0  0  0  0  0  0  0
   16.1089  -18.2828   23.6459 O   0  0  0  0  0  0  0  0  0  0  0  0
  2  1  1  1
  2 13  1  0
  3  2  1  0
  3  4  1  0
  4 12  1  0
  4  5  2  0
  5  6  1  0
  7  6  1  0
  7  8  2  0
  9  8  1  0
 10  9  2  0
 11 12  2  0
 11 10  1  0
 12  7  1  0
 13 14  2  0
 16 15  1  0
 17 16  1  6
 18 13  1  0
 18 17  1  0
 19 17  1  0
 19 20  2  0
 21 19  1  0
 22 21  1  0
 22 27  1  0
 22 23  1  1
 24 23  1  0
 24 25  1  0
 25 26  2  0
 25 29  1  0
 27 28  2  0
 27 30  1  0
M  END
$$$$
