WSE.pdb
     RDKit          3D

 30 31  0  0  1  0  0  0  0  0999 V2000
    6.5862  -17.4947   25.1779 N   0  0  0  0  0  0  0  0  0  0  0  0
    7.1349  -16.3928   24.4210 C   0  0  1  0  0  0  0  0  0  0  0  0
    8.2142  -15.6342   25.1173 C   0  0  0  0  0  0  0  0  0  0  0  0
    7.6463  -14.7532   26.1583 C   0  0  0  0  0  0  0  0  0  0  0  0
    7.2422  -15.1191   27.4204 C   0  0  0  0  0  0  0  0  0  0  0  0
    6.7747  -14.0118   28.0134 N   0  0  0  0  0  0  0  0  0  0  0  0
    6.8659  -12.9637   27.1822 C   0  0  0  0  0  0  0  0  0  0  0  0
    6.5271  -11.6469   27.3501 C   0  0  0  0  0  0  0  0  0  0  0  0
    6.7359  -10.7473   26.3284 C   0  0  0  0  0  0  0  0  0  0  0  0
    7.2848  -11.1804   25.1440 C   0  0  0  0  0  0  0  0  0  0  0  0
    7.6263  -12.5116   24.9753 C   0  0  0  0  0  0  0  0  0  0  0  0
    7.4203  -13.4027   25.9845 C   0  0  0  0  0  0  0  0  0  0  0  0
    7.6444  -16.9166   23.1342 C   0  0  0  0  0  0  0  0  0  0  0  0
    8.1987  -18.0612   23.1146 O   0  0  0  0  0  0  0  0  0  0  0  0
    8.2580  -14.5242   19.5736 O   0  0  0  0  0  0  0  0  0  0  0  0
    7.7224  -15.7820   19.5774 C   0  0  0  0  0  0  0  0  0  0  0  0
    8.1956  -16.6064   20.7683 C   0  0  2  0  0  0  0  0  0  0  0  0
    7.5089  -16.1486   21.9400 N   0  0  0  0  0  0  0  0  0  0  0  0
    9.6599  -16.5646   20.8883 C   0  0  0  0  0  0  0  0  0  0  0  0
   10.1984  -15.5853   21.4822 O   0  0  0  0  0  0  0  0  0  0  0  0
   10.5394  -17.5516   20.3839 N   0  0  0  0  0  0  0  0  0  0  0  0
   11.9995  -17.4736   20.4877 C   0  0  1  0  0  0  0  0  0  0  0  0
   12.3989  -18.5392   21.4755 C   0  0  0  0  0  0  0  0  0  0  0  0
   13.8903  -18.7464   21.5769 C   0  0  0  0  0  0  0  0  0  0  0  0
   14.2109  -19.7631   22.6233 C   0  0  0  0  0  0  0  0  0  0  0  0
   14.9322  -19.4878   23.6137 O   0  0  0  0  0  0  0  0  0  0  0  0
   12.6188  -17.6212   19.1577 C   0  0  0  0  0  0  0  0  0  0  0  0
   11.9691  -18.2123   18.2269 O   0  0  0  0  0  0  0  0  0  0  0  0
   13.6992  -21.0455   22.5007 O   0  0  0  0  0  0  0  0  0  0  0  0
   13.8700  -17.1640   18.8219 O   0  0  0  0  0  0  0  0  0  0  0  0
  2  1  1  1
  2 13  1  0
  3  2  1  0
  3  4  1  0
  4 12  1  0
  4  5  2  0
  5  6  1  0
  7  6  1  0
  7  8  2  0
  9  8  1  0
 10  9  2  0
 11 12  2  0
 11 10  1  0
 12  7  1  0
 13 14  2  0
 16 15  1  0
 17 16  1  6
 18 13  1  0
 18 17  1  0
 19 17  1  0
 19 20  2  0
 21 19  1  0
 22 21  1  0
 22 27  1  0
 22 23  1  1
 24 23  1  0
 24 25  1  0
 25 26  2  0
 25 29  1  0
 27 28  2  0
 27 30  1  0
M  END
$$$$
