EFI.pdb
     RDKit          3D

 29 29  0  0  1  0  0  0  0  0999 V2000
   28.5348  -21.7866  -14.0881 N   0  0  0  0  0  0  0  0  0  0  0  0
   28.5895  -20.6405  -13.2053 C   0  0  1  0  0  0  0  0  0  0  0  0
   27.7680  -19.4955  -13.6700 C   0  0  0  0  0  0  0  0  0  0  0  0
   28.2485  -18.7819  -14.8837 C   0  0  0  0  0  0  0  0  0  0  0  0
   27.9271  -19.4941  -16.1345 C   0  0  0  0  0  0  0  0  0  0  0  0
   28.7567  -20.0683  -16.8601 O   0  0  0  0  0  0  0  0  0  0  0  0
   28.1389  -21.0084  -11.8231 C   0  0  0  0  0  0  0  0  0  0  0  0
   27.2044  -21.8350  -11.6367 O   0  0  0  0  0  0  0  0  0  0  0  0
   26.5705  -19.5112  -16.5154 O   0  0  0  0  0  0  0  0  0  0  0  0
   28.7660  -20.4236  -10.6973 N   0  0  0  0  0  0  0  0  0  0  0  0
   28.2384  -20.6285   -9.3198 C   0  0  1  0  0  0  0  0  0  0  0  0
   29.1987  -20.1349   -8.3258 C   0  0  0  0  0  0  0  0  0  0  0  0
   28.7013  -20.0823   -6.9608 C   0  0  0  0  0  0  0  0  0  0  0  0
   27.7848  -19.1541   -6.5484 C   0  0  0  0  0  0  0  0  0  0  0  0
   27.3149  -19.1939   -5.2600 C   0  0  0  0  0  0  0  0  0  0  0  0
   27.7332  -20.1468   -4.3430 C   0  0  0  0  0  0  0  0  0  0  0  0
   28.6594  -21.0702   -4.7915 C   0  0  0  0  0  0  0  0  0  0  0  0
   29.1284  -21.0360   -6.0660 C   0  0  0  0  0  0  0  0  0  0  0  0
   26.8351  -20.2062   -9.2736 C   0  0  0  0  0  0  0  0  0  0  0  0
   26.5039  -19.0792   -9.8125 O   0  0  0  0  0  0  0  0  0  0  0  0
   22.0923  -19.5392  -11.8147 C   0  0  0  0  0  0  0  0  0  0  0  0
   22.4960  -19.7957  -10.3772 C   0  0  0  0  0  0  0  0  0  0  0  0
   23.8971  -20.3544  -10.2908 C   0  0  2  0  0  0  0  0  0  0  0  0
   23.8534  -21.7584  -10.9154 C   0  0  0  0  0  0  0  0  0  0  0  0
   24.3608  -20.5056   -8.9035 C   0  0  2  0  0  0  0  0  0  0  0  0
   25.7404  -20.9018   -8.7010 N   0  0  0  0  0  0  0  0  0  0  0  0
   23.4703  -21.4155   -8.0784 C   0  0  0  0  0  0  0  0  0  0  0  0
   22.2219  -21.2913   -8.0961 O   0  0  0  0  0  0  0  0  0  0  0  0
   23.9867  -22.4081   -7.2816 O   0  0  0  0  0  0  0  0  0  0  0  0
  2  3  1  0
  2  1  1  6
  4  5  1  0
  4  3  1  0
  5  6  2  0
  7  2  1  0
  8  7  2  0
  9  5  1  0
 10  7  1  0
 11 10  1  0
 11 12  1  1
 12 13  1  0
 13 14  2  0
 14 15  1  0
 16 15  2  0
 17 16  1  0
 18 13  1  0
 18 17  2  0
 19 20  2  0
 19 11  1  0
 21 22  1  0
 22 23  1  0
 23 25  1  0
 23 24  1  1
 25 26  1  6
 26 19  1  0
 27 29  1  0
 27 25  1  0
 28 27  2  0
M  END
$$$$
