EFI.pdb
     RDKit          3D

 29 29  0  0  1  0  0  0  0  0999 V2000
   25.8768  -16.1337  -17.5175 N   0  0  0  0  0  0  0  0  0  0  0  0
   26.2692  -17.3006  -16.7557 C   0  0  1  0  0  0  0  0  0  0  0  0
   27.4820  -17.0868  -15.9279 C   0  0  0  0  0  0  0  0  0  0  0  0
   28.7302  -16.7339  -16.6563 C   0  0  0  0  0  0  0  0  0  0  0  0
   29.1687  -17.7879  -17.5900 C   0  0  0  0  0  0  0  0  0  0  0  0
   28.6994  -18.9376  -17.6371 O   0  0  0  0  0  0  0  0  0  0  0  0
   25.1590  -17.7467  -15.8516 C   0  0  0  0  0  0  0  0  0  0  0  0
   24.5588  -16.9314  -15.0991 O   0  0  0  0  0  0  0  0  0  0  0  0
   30.1989  -17.4417  -18.4871 O   0  0  0  0  0  0  0  0  0  0  0  0
   24.7677  -19.1065  -15.8326 N   0  0  0  0  0  0  0  0  0  0  0  0
   23.6114  -19.5714  -15.0173 C   0  0  1  0  0  0  0  0  0  0  0  0
   22.5686  -20.1343  -15.8832 C   0  0  0  0  0  0  0  0  0  0  0  0
   21.4388  -20.7243  -15.1842 C   0  0  0  0  0  0  0  0  0  0  0  0
   20.2971  -20.0223  -14.9096 C   0  0  0  0  0  0  0  0  0  0  0  0
   19.2457  -20.6546  -14.2956 C   0  0  0  0  0  0  0  0  0  0  0  0
   19.2885  -21.9933  -13.9352 C   0  0  0  0  0  0  0  0  0  0  0  0
   20.4560  -22.6740  -14.2268 C   0  0  0  0  0  0  0  0  0  0  0  0
   21.5005  -22.0535  -14.8347 C   0  0  0  0  0  0  0  0  0  0  0  0
   24.1085  -20.3261  -13.8627 C   0  0  0  0  0  0  0  0  0  0  0  0
   24.9597  -21.2786  -14.0586 O   0  0  0  0  0  0  0  0  0  0  0  0
   26.9542  -20.7238   -8.6927 C   0  0  0  0  0  0  0  0  0  0  0  0
   25.8162  -21.3208   -9.4951 C   0  0  0  0  0  0  0  0  0  0  0  0
   25.3599  -20.3804  -10.5859 C   0  0  2  0  0  0  0  0  0  0  0  0
   24.7541  -19.1523   -9.8872 C   0  0  0  0  0  0  0  0  0  0  0  0
   24.3102  -20.9651  -11.4337 C   0  0  2  0  0  0  0  0  0  0  0  0
   23.7749  -20.1386  -12.4975 N   0  0  0  0  0  0  0  0  0  0  0  0
   23.1529  -21.5335  -10.6342 C   0  0  0  0  0  0  0  0  0  0  0  0
   22.0088  -21.0224  -10.6961 O   0  0  0  0  0  0  0  0  0  0  0  0
   23.3047  -22.6244   -9.8134 O   0  0  0  0  0  0  0  0  0  0  0  0
  2  3  1  0
  2  1  1  1
  4  5  1  0
  4  3  1  0
  5  6  2  0
  7  2  1  0
  8  7  2  0
  9  5  1  0
 10  7  1  0
 11 10  1  0
 11 12  1  6
 12 13  1  0
 13 14  2  0
 14 15  1  0
 16 15  2  0
 17 16  1  0
 18 13  1  0
 18 17  2  0
 19 20  2  0
 19 11  1  0
 21 22  1  0
 22 23  1  0
 23 25  1  0
 23 24  1  1
 25 26  1  6
 26 19  1  0
 27 29  1  0
 27 25  1  0
 28 27  2  0
M  END
$$$$
