EFI.pdb
     RDKit          3D

 29 29  0  0  1  0  0  0  0  0999 V2000
   28.5441  -19.8712  -13.0813 N   0  0  0  0  0  0  0  0  0  0  0  0
   27.6925  -21.0302  -12.9156 C   0  0  1  0  0  0  0  0  0  0  0  0
   28.1414  -22.2109  -13.6943 C   0  0  0  0  0  0  0  0  0  0  0  0
   28.6869  -21.9433  -15.0521 C   0  0  0  0  0  0  0  0  0  0  0  0
   27.6443  -21.5766  -16.0287 C   0  0  0  0  0  0  0  0  0  0  0  0
   26.8612  -22.3767  -16.5682 O   0  0  0  0  0  0  0  0  0  0  0  0
   27.6059  -21.4278  -11.4722 C   0  0  0  0  0  0  0  0  0  0  0  0
   27.0523  -22.5056  -11.1213 O   0  0  0  0  0  0  0  0  0  0  0  0
   27.5478  -20.2102  -16.3594 O   0  0  0  0  0  0  0  0  0  0  0  0
   28.1516  -20.5858  -10.4743 N   0  0  0  0  0  0  0  0  0  0  0  0
   27.7498  -20.7118   -9.0458 C   0  0  1  0  0  0  0  0  0  0  0  0
   28.8593  -20.3247   -8.1666 C   0  0  0  0  0  0  0  0  0  0  0  0
   28.5044  -20.1454   -6.7683 C   0  0  0  0  0  0  0  0  0  0  0  0
   28.3287  -21.1997   -5.9142 C   0  0  0  0  0  0  0  0  0  0  0  0
   28.0486  -20.9599   -4.5927 C   0  0  0  0  0  0  0  0  0  0  0  0
   27.9337  -19.6779   -4.0757 C   0  0  0  0  0  0  0  0  0  0  0  0
   28.1172  -18.6351   -4.9648 C   0  0  0  0  0  0  0  0  0  0  0  0
   28.3948  -18.8661   -6.2744 C   0  0  0  0  0  0  0  0  0  0  0  0
   26.4178  -20.1257   -8.8665 C   0  0  0  0  0  0  0  0  0  0  0  0
   26.2624  -18.8573   -9.0594 O   0  0  0  0  0  0  0  0  0  0  0  0
   22.2247  -19.7813  -12.3653 C   0  0  0  0  0  0  0  0  0  0  0  0
   22.3781  -19.8240  -10.8588 C   0  0  0  0  0  0  0  0  0  0  0  0
   23.7334  -20.3586  -10.4588 C   0  0  2  0  0  0  0  0  0  0  0  0
   23.8077  -21.8058  -10.9721 C   0  0  0  0  0  0  0  0  0  0  0  0
   23.9168  -20.4003   -9.0004 C   0  0  2  0  0  0  0  0  0  0  0  0
   25.2207  -20.7927   -8.5032 N   0  0  0  0  0  0  0  0  0  0  0  0
   22.8605  -21.2303   -8.2953 C   0  0  0  0  0  0  0  0  0  0  0  0
   23.1717  -22.2499   -7.6337 O   0  0  0  0  0  0  0  0  0  0  0  0
   21.5270  -20.9052   -8.3491 O   0  0  0  0  0  0  0  0  0  0  0  0
  2  3  1  0
  2  1  1  1
  4  5  1  0
  4  3  1  0
  5  6  2  0
  7  2  1  0
  8  7  2  0
  9  5  1  0
 10  7  1  0
 11 10  1  0
 11 12  1  1
 12 13  1  0
 13 14  2  0
 14 15  1  0
 16 15  2  0
 17 16  1  0
 18 13  1  0
 18 17  2  0
 19 20  2  0
 19 11  1  0
 21 22  1  0
 22 23  1  0
 23 25  1  0
 23 24  1  1
 25 26  1  6
 26 19  1  0
 27 29  1  0
 27 25  1  0
 28 27  2  0
M  END
$$$$
