EFI.pdb
     RDKit          3D

 29 29  0  0  1  0  0  0  0  0999 V2000
   22.1910  -15.5033  -18.1456 N   0  0  0  0  0  0  0  0  0  0  0  0
   22.4231  -14.1201  -18.5043 C   0  0  1  0  0  0  0  0  0  0  0  0
   21.2718  -13.4859  -19.1929 C   0  0  0  0  0  0  0  0  0  0  0  0
   20.8833  -14.0633  -20.5076 C   0  0  0  0  0  0  0  0  0  0  0  0
   21.9250  -13.8983  -21.5386 C   0  0  0  0  0  0  0  0  0  0  0  0
   22.4113  -14.8216  -22.2134 O   0  0  0  0  0  0  0  0  0  0  0  0
   22.7511  -13.3012  -17.2915 C   0  0  0  0  0  0  0  0  0  0  0  0
   22.1614  -13.4919  -16.1928 O   0  0  0  0  0  0  0  0  0  0  0  0
   22.3881  -12.5855  -21.7574 O   0  0  0  0  0  0  0  0  0  0  0  0
   23.7395  -12.2914  -17.3681 N   0  0  0  0  0  0  0  0  0  0  0  0
   24.1103  -11.4749  -16.1791 C   0  0  1  0  0  0  0  0  0  0  0  0
   25.5099  -11.7166  -15.8092 C   0  0  0  0  0  0  0  0  0  0  0  0
   25.8421  -13.1030  -15.5250 C   0  0  0  0  0  0  0  0  0  0  0  0
   25.4213  -13.7412  -14.3903 C   0  0  0  0  0  0  0  0  0  0  0  0
   25.7231  -15.0672  -14.2090 C   0  0  0  0  0  0  0  0  0  0  0  0
   26.4463  -15.8010  -15.1376 C   0  0  0  0  0  0  0  0  0  0  0  0
   26.8562  -15.1267  -16.2730 C   0  0  0  0  0  0  0  0  0  0  0  0
   26.5605  -13.8139  -16.4583 C   0  0  0  0  0  0  0  0  0  0  0  0
   23.6130  -10.1074  -16.3595 C   0  0  0  0  0  0  0  0  0  0  0  0
   23.7307   -9.5479  -17.5185 O   0  0  0  0  0  0  0  0  0  0  0  0
   19.5070   -6.9356  -18.1021 C   0  0  0  0  0  0  0  0  0  0  0  0
   20.4857   -6.8480  -16.9490 C   0  0  0  0  0  0  0  0  0  0  0  0
   21.1978   -8.1625  -16.7309 C   0  0  2  0  0  0  0  0  0  0  0  0
   20.1541   -9.1444  -16.1740 C   0  0  0  0  0  0  0  0  0  0  0  0
   22.2789   -8.0620  -15.7391 C   0  0  2  0  0  0  0  0  0  0  0  0
   22.9832   -9.2812  -15.3947 N   0  0  0  0  0  0  0  0  0  0  0  0
   21.8435   -7.3766  -14.4575 C   0  0  0  0  0  0  0  0  0  0  0  0
   21.4754   -6.1772  -14.4562 O   0  0  0  0  0  0  0  0  0  0  0  0
   21.8330   -8.0332  -13.2511 O   0  0  0  0  0  0  0  0  0  0  0  0
  2  3  1  0
  2  1  1  1
  4  5  1  0
  4  3  1  0
  5  6  2  0
  7  2  1  0
  8  7  2  0
  9  5  1  0
 10  7  1  0
 11 10  1  0
 11 12  1  6
 12 13  1  0
 13 14  2  0
 14 15  1  0
 16 15  2  0
 17 16  1  0
 18 13  1  0
 18 17  2  0
 19 20  2  0
 19 11  1  0
 21 22  1  0
 22 23  1  0
 23 25  1  0
 23 24  1  1
 25 26  1  1
 26 19  1  0
 27 29  1  0
 27 25  1  0
 28 27  2  0
M  END
$$$$
