EFI.pdb
     RDKit          3D

 29 29  0  0  1  0  0  0  0  0999 V2000
   24.0914  -33.5214  -11.0337 N   0  0  0  0  0  0  0  0  0  0  0  0
   23.1259  -33.1711  -12.0540 C   0  0  1  0  0  0  0  0  0  0  0  0
   22.2794  -34.3112  -12.4844 C   0  0  0  0  0  0  0  0  0  0  0  0
   22.9812  -35.4552  -13.1259 C   0  0  0  0  0  0  0  0  0  0  0  0
   23.1067  -36.6249  -12.2363 C   0  0  0  0  0  0  0  0  0  0  0  0
   22.6359  -36.7001  -11.0887 O   0  0  0  0  0  0  0  0  0  0  0  0
   22.2230  -32.0713  -11.5804 C   0  0  0  0  0  0  0  0  0  0  0  0
   21.7579  -32.0643  -10.4079 O   0  0  0  0  0  0  0  0  0  0  0  0
   23.8182  -37.7284  -12.7481 O   0  0  0  0  0  0  0  0  0  0  0  0
   21.8781  -31.0149  -12.4566 N   0  0  0  0  0  0  0  0  0  0  0  0
   21.0100  -29.8891  -12.0129 C   0  0  1  0  0  0  0  0  0  0  0  0
   21.6895  -28.6055  -12.2246 C   0  0  0  0  0  0  0  0  0  0  0  0
   20.8902  -27.4282  -11.9269 C   0  0  0  0  0  0  0  0  0  0  0  0
   20.6361  -27.0176  -10.6468 C   0  0  0  0  0  0  0  0  0  0  0  0
   19.9207  -25.8662  -10.4356 C   0  0  0  0  0  0  0  0  0  0  0  0
   19.4361  -25.0880  -11.4765 C   0  0  0  0  0  0  0  0  0  0  0  0
   19.7103  -25.5305  -12.7574 C   0  0  0  0  0  0  0  0  0  0  0  0
   20.4183  -26.6697  -12.9730 C   0  0  0  0  0  0  0  0  0  0  0  0
   19.6492  -30.1032  -12.5149 C   0  0  0  0  0  0  0  0  0  0  0  0
   19.4906  -30.5923  -13.7006 O   0  0  0  0  0  0  0  0  0  0  0  0
   15.9443  -33.5678  -11.6279 C   0  0  0  0  0  0  0  0  0  0  0  0
   16.8605  -32.4842  -12.1587 C   0  0  0  0  0  0  0  0  0  0  0  0
   16.2792  -31.1094  -11.9248 C   0  0  2  0  0  0  0  0  0  0  0  0
   14.9441  -31.0578  -12.6851 C   0  0  0  0  0  0  0  0  0  0  0  0
   17.1310  -30.0370  -12.4605 C   0  0  2  0  0  0  0  0  0  0  0  0
   18.4281  -29.8443  -11.8427 N   0  0  0  0  0  0  0  0  0  0  0  0
   16.4229  -28.6968  -12.5264 C   0  0  0  0  0  0  0  0  0  0  0  0
   16.2023  -28.0281  -11.4880 O   0  0  0  0  0  0  0  0  0  0  0  0
   15.9951  -28.1600  -13.7162 O   0  0  0  0  0  0  0  0  0  0  0  0
  2  3  1  0
  2  1  1  1
  4  5  1  0
  4  3  1  0
  5  6  2  0
  7  2  1  0
  8  7  2  0
  9  5  1  0
 10  7  1  0
 11 10  1  0
 11 12  1  6
 12 13  1  0
 13 14  2  0
 14 15  1  0
 16 15  2  0
 17 16  1  0
 18 13  1  0
 18 17  2  0
 19 20  2  0
 19 11  1  0
 21 22  1  0
 22 23  1  0
 23 25  1  0
 23 24  1  6
 25 26  1  1
 26 19  1  0
 27 29  1  0
 27 25  1  0
 28 27  2  0
M  END
$$$$
