EFI.pdb
     RDKit          3D

 29 29  0  0  1  0  0  0  0  0999 V2000
   24.0099  -19.7285  -13.4012 N   0  0  0  0  0  0  0  0  0  0  0  0
   23.4269  -20.3953  -12.2560 C   0  0  1  0  0  0  0  0  0  0  0  0
   22.5880  -21.5652  -12.6159 C   0  0  0  0  0  0  0  0  0  0  0  0
   22.2234  -21.7053  -14.0513 C   0  0  0  0  0  0  0  0  0  0  0  0
   21.3340  -20.6291  -14.5265 C   0  0  0  0  0  0  0  0  0  0  0  0
   20.1647  -20.4514  -14.1450 O   0  0  0  0  0  0  0  0  0  0  0  0
   24.4923  -20.8583  -11.3076 C   0  0  0  0  0  0  0  0  0  0  0  0
   24.2266  -21.6415  -10.3551 O   0  0  0  0  0  0  0  0  0  0  0  0
   21.8728  -19.7481  -15.4853 O   0  0  0  0  0  0  0  0  0  0  0  0
   25.8258  -20.4147  -11.4733 N   0  0  0  0  0  0  0  0  0  0  0  0
   26.9106  -20.8517  -10.5512 C   0  0  1  0  0  0  0  0  0  0  0  0
   28.2250  -20.6166  -11.1603 C   0  0  0  0  0  0  0  0  0  0  0  0
   29.3626  -20.9859  -10.3340 C   0  0  0  0  0  0  0  0  0  0  0  0
   30.0957  -22.1192  -10.5579 C   0  0  0  0  0  0  0  0  0  0  0  0
   31.1915  -22.3811   -9.7750 C   0  0  0  0  0  0  0  0  0  0  0  0
   31.5958  -21.5366   -8.7517 C   0  0  0  0  0  0  0  0  0  0  0  0
   30.8338  -20.4003   -8.5519 C   0  0  0  0  0  0  0  0  0  0  0  0
   29.7478  -20.1353   -9.3237 C   0  0  0  0  0  0  0  0  0  0  0  0
   26.6185  -20.3657   -9.1991 C   0  0  0  0  0  0  0  0  0  0  0  0
   25.9185  -19.2883   -9.0603 O   0  0  0  0  0  0  0  0  0  0  0  0
   24.4196  -20.9633   -3.6984 C   0  0  0  0  0  0  0  0  0  0  0  0
   25.4436  -20.2485   -4.5561 C   0  0  0  0  0  0  0  0  0  0  0  0
   25.7253  -21.0130   -5.8285 C   0  0  2  0  0  0  0  0  0  0  0  0
   26.3182  -22.3679   -5.4091 C   0  0  0  0  0  0  0  0  0  0  0  0
   26.7190  -20.3442   -6.6815 C   0  0  2  0  0  0  0  0  0  0  0  0
   27.0088  -20.9484   -7.9669 N   0  0  0  0  0  0  0  0  0  0  0  0
   28.0299  -20.0788   -5.9654 C   0  0  0  0  0  0  0  0  0  0  0  0
   29.0609  -20.7417   -6.2329 O   0  0  0  0  0  0  0  0  0  0  0  0
   28.1457  -19.1086   -4.9999 O   0  0  0  0  0  0  0  0  0  0  0  0
  2  3  1  0
  2  1  1  6
  4  5  1  0
  4  3  1  0
  5  6  2  0
  7  2  1  0
  8  7  2  0
  9  5  1  0
 10  7  1  0
 11 10  1  0
 11 12  1  6
 12 13  1  0
 13 14  2  0
 14 15  1  0
 16 15  2  0
 17 16  1  0
 18 13  1  0
 18 17  2  0
 19 20  2  0
 19 11  1  0
 21 22  1  0
 22 23  1  0
 23 25  1  0
 23 24  1  1
 25 26  1  6
 26 19  1  0
 27 29  1  0
 27 25  1  0
 28 27  2  0
M  END
$$$$
