EFI.pdb
     RDKit          3D

 29 29  0  0  1  0  0  0  0  0999 V2000
   25.9296  -21.6524  -12.7168 N   0  0  0  0  0  0  0  0  0  0  0  0
   25.6339  -20.5716  -11.8000 C   0  0  1  0  0  0  0  0  0  0  0  0
   24.1888  -20.2455  -11.7156 C   0  0  0  0  0  0  0  0  0  0  0  0
   23.5761  -19.6240  -12.9203 C   0  0  0  0  0  0  0  0  0  0  0  0
   23.5769  -20.5189  -14.0926 C   0  0  0  0  0  0  0  0  0  0  0  0
   22.8338  -21.5046  -14.2361 O   0  0  0  0  0  0  0  0  0  0  0  0
   26.1218  -20.8937  -10.4190 C   0  0  0  0  0  0  0  0  0  0  0  0
   25.9212  -22.0259   -9.9005 O   0  0  0  0  0  0  0  0  0  0  0  0
   24.4982  -20.2133  -15.1140 O   0  0  0  0  0  0  0  0  0  0  0  0
   26.8220  -19.9166   -9.6722 N   0  0  0  0  0  0  0  0  0  0  0  0
   27.3592  -20.2129   -8.3152 C   0  0  1  0  0  0  0  0  0  0  0  0
   28.5875  -19.4468   -8.0731 C   0  0  0  0  0  0  0  0  0  0  0  0
   29.0353  -19.4204   -6.6903 C   0  0  0  0  0  0  0  0  0  0  0  0
   28.7243  -18.3972   -5.8370 C   0  0  0  0  0  0  0  0  0  0  0  0
   29.1319  -18.4604   -4.5286 C   0  0  0  0  0  0  0  0  0  0  0  0
   29.8559  -19.5306   -4.0241 C   0  0  0  0  0  0  0  0  0  0  0  0
   30.1534  -20.5478   -4.9120 C   0  0  0  0  0  0  0  0  0  0  0  0
   29.7525  -20.4911   -6.2087 C   0  0  0  0  0  0  0  0  0  0  0  0
   26.2602  -20.1846   -7.3452 C   0  0  0  0  0  0  0  0  0  0  0  0
   25.2702  -19.3786   -7.5464 O   0  0  0  0  0  0  0  0  0  0  0  0
   21.6308  -22.8279   -5.0546 C   0  0  0  0  0  0  0  0  0  0  0  0
   22.6976  -21.8080   -4.7124 C   0  0  0  0  0  0  0  0  0  0  0  0
   23.9143  -21.9680   -5.5936 C   0  0  2  0  0  0  0  0  0  0  0  0
   24.5374  -23.3296   -5.2455 C   0  0  0  0  0  0  0  0  0  0  0  0
   24.9352  -20.9404   -5.3397 C   0  0  2  0  0  0  0  0  0  0  0  0
   26.1246  -20.9631   -6.1681 N   0  0  0  0  0  0  0  0  0  0  0  0
   25.3604  -20.8764   -3.8848 C   0  0  0  0  0  0  0  0  0  0  0  0
   26.5458  -21.1074   -3.5447 O   0  0  0  0  0  0  0  0  0  0  0  0
   24.4739  -20.5650   -2.8828 O   0  0  0  0  0  0  0  0  0  0  0  0
  2  3  1  0
  2  1  1  6
  4  5  1  0
  4  3  1  0
  5  6  2  0
  7  2  1  0
  8  7  2  0
  9  5  1  0
 10  7  1  0
 11 10  1  0
 11 12  1  1
 12 13  1  0
 13 14  2  0
 14 15  1  0
 16 15  2  0
 17 16  1  0
 18 13  1  0
 18 17  2  0
 19 20  2  0
 19 11  1  0
 21 22  1  0
 22 23  1  0
 23 25  1  0
 23 24  1  1
 25 26  1  6
 26 19  1  0
 27 29  1  0
 27 25  1  0
 28 27  2  0
M  END
$$$$
