EFI.pdb
     RDKit          3D

 29 29  0  0  1  0  0  0  0  0999 V2000
   25.8327  -21.6980  -13.1217 N   0  0  0  0  0  0  0  0  0  0  0  0
   25.3463  -20.6836  -12.2105 C   0  0  1  0  0  0  0  0  0  0  0  0
   23.8739  -20.5046  -12.2550 C   0  0  0  0  0  0  0  0  0  0  0  0
   23.3156  -19.8945  -13.4916 C   0  0  0  0  0  0  0  0  0  0  0  0
   23.6559  -20.6516  -14.7106 C   0  0  0  0  0  0  0  0  0  0  0  0
   23.0463  -21.6544  -15.1192 O   0  0  0  0  0  0  0  0  0  0  0  0
   25.7357  -21.0030  -10.7979 C   0  0  0  0  0  0  0  0  0  0  0  0
   25.3957  -22.0891  -10.2539 O   0  0  0  0  0  0  0  0  0  0  0  0
   24.7594  -20.1836  -15.4517 O   0  0  0  0  0  0  0  0  0  0  0  0
   26.4992  -20.0758  -10.0496 N   0  0  0  0  0  0  0  0  0  0  0  0
   26.8855  -20.3474   -8.6372 C   0  0  1  0  0  0  0  0  0  0  0  0
   28.0808  -19.5758   -8.2766 C   0  0  0  0  0  0  0  0  0  0  0  0
   28.4029  -19.5643   -6.8591 C   0  0  0  0  0  0  0  0  0  0  0  0
   27.9701  -18.5779   -6.0156 C   0  0  0  0  0  0  0  0  0  0  0  0
   28.2630  -18.6558   -4.6775 C   0  0  0  0  0  0  0  0  0  0  0  0
   28.9889  -19.7048   -4.1331 C   0  0  0  0  0  0  0  0  0  0  0  0
   29.4111  -20.6850   -5.0121 C   0  0  0  0  0  0  0  0  0  0  0  0
   29.1242  -20.6135   -6.3380 C   0  0  0  0  0  0  0  0  0  0  0  0
   25.6876  -20.3031   -7.7930 C   0  0  0  0  0  0  0  0  0  0  0  0
   24.7468  -19.4672   -8.0871 O   0  0  0  0  0  0  0  0  0  0  0  0
   20.6435  -22.5148   -6.1882 C   0  0  0  0  0  0  0  0  0  0  0  0
   21.7858  -21.7133   -5.5982 C   0  0  0  0  0  0  0  0  0  0  0  0
   23.0596  -21.9085   -6.3869 C   0  0  2  0  0  0  0  0  0  0  0  0
   23.5153  -23.3560   -6.1411 C   0  0  0  0  0  0  0  0  0  0  0  0
   24.1446  -21.0242   -5.9361 C   0  0  2  0  0  0  0  0  0  0  0  0
   25.4032  -21.0949   -6.6518 N   0  0  0  0  0  0  0  0  0  0  0  0
   24.4261  -21.1440   -4.4501 C   0  0  0  0  0  0  0  0  0  0  0  0
   25.5496  -21.5121   -4.0304 O   0  0  0  0  0  0  0  0  0  0  0  0
   23.4710  -20.8572   -3.5054 O   0  0  0  0  0  0  0  0  0  0  0  0
  2  3  1  0
  2  1  1  6
  4  5  1  0
  4  3  1  0
  5  6  2  0
  7  2  1  0
  8  7  2  0
  9  5  1  0
 10  7  1  0
 11 10  1  0
 11 12  1  1
 12 13  1  0
 13 14  2  0
 14 15  1  0
 16 15  2  0
 17 16  1  0
 18 13  1  0
 18 17  2  0
 19 20  2  0
 19 11  1  0
 21 22  1  0
 22 23  1  0
 23 25  1  0
 23 24  1  1
 25 26  1  6
 26 19  1  0
 27 29  1  0
 27 25  1  0
 28 27  2  0
M  END
$$$$
