EFI.pdb
     RDKit          3D

 29 29  0  0  1  0  0  0  0  0999 V2000
   27.7199  -20.2414  -18.7787 N   0  0  0  0  0  0  0  0  0  0  0  0
   27.4099  -19.2810  -17.7406 C   0  0  1  0  0  0  0  0  0  0  0  0
   26.4980  -18.1993  -18.1880 C   0  0  0  0  0  0  0  0  0  0  0  0
   27.0324  -17.2596  -19.2099 C   0  0  0  0  0  0  0  0  0  0  0  0
   28.4505  -16.9181  -18.9913 C   0  0  0  0  0  0  0  0  0  0  0  0
   29.4104  -17.4673  -19.5580 O   0  0  0  0  0  0  0  0  0  0  0  0
   26.7871  -19.9571  -16.5557 C   0  0  0  0  0  0  0  0  0  0  0  0
   25.8919  -20.8345  -16.6973 O   0  0  0  0  0  0  0  0  0  0  0  0
   28.7118  -15.8882  -18.0656 O   0  0  0  0  0  0  0  0  0  0  0  0
   27.2027  -19.6126  -15.2476 N   0  0  0  0  0  0  0  0  0  0  0  0
   26.5299  -20.1763  -14.0445 C   0  0  1  0  0  0  0  0  0  0  0  0
   27.3184  -19.8951  -12.8389 C   0  0  0  0  0  0  0  0  0  0  0  0
   26.6912  -20.2857  -11.5869 C   0  0  0  0  0  0  0  0  0  0  0  0
   26.5527  -21.5941  -11.2118 C   0  0  0  0  0  0  0  0  0  0  0  0
   26.0013  -21.8928   -9.9916 C   0  0  0  0  0  0  0  0  0  0  0  0
   25.5713  -20.9139   -9.1079 C   0  0  0  0  0  0  0  0  0  0  0  0
   25.7257  -19.6023   -9.5171 C   0  0  0  0  0  0  0  0  0  0  0  0
   26.2711  -19.3000  -10.7240 C   0  0  0  0  0  0  0  0  0  0  0  0
   25.1015  -19.8490  -14.0935 C   0  0  0  0  0  0  0  0  0  0  0  0
   24.7470  -18.6432  -14.3944 O   0  0  0  0  0  0  0  0  0  0  0  0
   20.1280  -18.6402  -15.5247 C   0  0  0  0  0  0  0  0  0  0  0  0
   20.4010  -19.9785  -14.8691 C   0  0  0  0  0  0  0  0  0  0  0  0
   21.8411  -20.3971  -15.0524 C   0  0  2  0  0  0  0  0  0  0  0  0
   21.8248  -21.8888  -15.4236 C   0  0  0  0  0  0  0  0  0  0  0  0
   22.6308  -20.2602  -13.8195 C   0  0  2  0  0  0  0  0  0  0  0  0
   24.0062  -20.7168  -13.8546 N   0  0  0  0  0  0  0  0  0  0  0  0
   21.9490  -20.8715  -12.6099 C   0  0  0  0  0  0  0  0  0  0  0  0
   21.0298  -20.2656  -12.0083 O   0  0  0  0  0  0  0  0  0  0  0  0
   22.3048  -22.1057  -12.1231 O   0  0  0  0  0  0  0  0  0  0  0  0
  2  3  1  0
  2  1  1  6
  4  5  1  0
  4  3  1  0
  5  6  2  0
  7  2  1  0
  8  7  2  0
  9  5  1  0
 10  7  1  0
 11 10  1  0
 11 12  1  1
 12 13  1  0
 13 14  2  0
 14 15  1  0
 16 15  2  0
 17 16  1  0
 18 13  1  0
 18 17  2  0
 19 20  2  0
 19 11  1  0
 21 22  1  0
 22 23  1  0
 23 25  1  0
 23 24  1  1
 25 26  1  6
 26 19  1  0
 27 29  1  0
 27 25  1  0
 28 27  2  0
M  END
$$$$
