EFI.pdb
     RDKit          3D

 29 29  0  0  1  0  0  0  0  0999 V2000
   26.6129  -22.1844  -13.5515 N   0  0  0  0  0  0  0  0  0  0  0  0
   26.3744  -20.9537  -12.8272 C   0  0  1  0  0  0  0  0  0  0  0  0
   25.1236  -20.2636  -13.2285 C   0  0  0  0  0  0  0  0  0  0  0  0
   25.0425  -19.8022  -14.6404 C   0  0  0  0  0  0  0  0  0  0  0  0
   25.9707  -18.6954  -14.9379 C   0  0  0  0  0  0  0  0  0  0  0  0
   27.1773  -18.8300  -15.2030 O   0  0  0  0  0  0  0  0  0  0  0  0
   26.3161  -21.2056  -11.3500 C   0  0  0  0  0  0  0  0  0  0  0  0
   25.6868  -22.1916  -10.8777 O   0  0  0  0  0  0  0  0  0  0  0  0
   25.4253  -17.3962  -14.9141 O   0  0  0  0  0  0  0  0  0  0  0  0
   26.9753  -20.3270  -10.4578 N   0  0  0  0  0  0  0  0  0  0  0  0
   26.9234  -20.5330   -8.9838 C   0  0  1  0  0  0  0  0  0  0  0  0
   28.0172  -19.8072   -8.3273 C   0  0  0  0  0  0  0  0  0  0  0  0
   27.9777  -19.8151   -6.8741 C   0  0  0  0  0  0  0  0  0  0  0  0
   28.2257  -20.9418   -6.1388 C   0  0  0  0  0  0  0  0  0  0  0  0
   28.2268  -20.8684   -4.7688 C   0  0  0  0  0  0  0  0  0  0  0  0
   27.9842  -19.6861   -4.0853 C   0  0  0  0  0  0  0  0  0  0  0  0
   27.7375  -18.5662   -4.8576 C   0  0  0  0  0  0  0  0  0  0  0  0
   27.7351  -18.6324   -6.2145 C   0  0  0  0  0  0  0  0  0  0  0  0
   25.5407  -20.3723   -8.5232 C   0  0  0  0  0  0  0  0  0  0  0  0
   24.9173  -19.2723   -8.7904 O   0  0  0  0  0  0  0  0  0  0  0  0
   21.5863  -20.6022  -10.7774 C   0  0  0  0  0  0  0  0  0  0  0  0
   22.5353  -20.2817   -9.6408 C   0  0  0  0  0  0  0  0  0  0  0  0
   22.3582  -21.2432   -8.4888 C   0  0  2  0  0  0  0  0  0  0  0  0
   20.9891  -20.9351   -7.8612 C   0  0  0  0  0  0  0  0  0  0  0  0
   23.3727  -21.0614   -7.4399 C   0  0  2  0  0  0  0  0  0  0  0  0
   24.7554  -21.3055   -7.8002 N   0  0  0  0  0  0  0  0  0  0  0  0
   23.0591  -21.8360   -6.1736 C   0  0  0  0  0  0  0  0  0  0  0  0
   23.6514  -22.9092   -5.9062 O   0  0  0  0  0  0  0  0  0  0  0  0
   22.1202  -21.4004   -5.2705 O   0  0  0  0  0  0  0  0  0  0  0  0
  2  3  1  0
  2  1  1  6
  4  5  1  0
  4  3  1  0
  5  6  2  0
  7  2  1  0
  8  7  2  0
  9  5  1  0
 10  7  1  0
 11 10  1  0
 11 12  1  1
 12 13  1  0
 13 14  2  0
 14 15  1  0
 16 15  2  0
 17 16  1  0
 18 13  1  0
 18 17  2  0
 19 20  2  0
 19 11  1  0
 21 22  1  0
 22 23  1  0
 23 25  1  0
 23 24  1  1
 25 26  1  6
 26 19  1  0
 27 29  1  0
 27 25  1  0
 28 27  2  0
M  END
$$$$
