TSD.pdb
     RDKit          3D

 22 21  0  0  1  0  0  0  0  0999 V2000
    7.0205  -15.0779   17.0777 C   0  0  0  0  0  0  0  0  0  0  0  0
    7.7009  -15.1387   18.4140 C   0  0  1  0  0  0  0  0  0  0  0  0
    9.0794  -15.3685   18.2159 O   0  0  0  0  0  0  0  0  0  0  0  0
    7.6250  -13.8464   19.1967 C   0  0  2  0  0  0  0  0  0  0  0  0
    8.3133  -12.8563   18.3404 N   0  0  0  0  0  0  0  0  0  0  0  0
    8.3941  -13.8910   20.4601 C   0  0  0  0  0  0  0  0  0  0  0  0
    9.6689  -13.7136   20.4776 O   0  0  0  0  0  0  0  0  0  0  0  0
    6.6587  -14.8540   24.1233 O   0  0  0  0  0  0  0  0  0  0  0  0
    7.7464  -14.0122   24.1255 C   0  0  0  0  0  0  0  0  0  0  0  0
    8.6583  -14.2585   22.9422 C   0  0  2  0  0  0  0  0  0  0  0  0
    7.8457  -14.1216   21.7484 N   0  0  0  0  0  0  0  0  0  0  0  0
    9.3041  -15.5975   23.0183 C   0  0  0  0  0  0  0  0  0  0  0  0
    8.8207  -16.5938   22.4113 O   0  0  0  0  0  0  0  0  0  0  0  0
   10.4830  -15.7837   23.7774 N   0  0  0  0  0  0  0  0  0  0  0  0
   11.1011  -17.0567   24.0738 C   0  0  1  0  0  0  0  0  0  0  0  0
   12.5912  -17.0078   23.9485 C   0  0  0  0  0  0  0  0  0  0  0  0
   13.0052  -16.4356   22.6579 C   0  0  0  0  0  0  0  0  0  0  0  0
   12.5395  -16.9127   21.5883 O   0  0  0  0  0  0  0  0  0  0  0  0
   10.6750  -17.5605   25.4226 C   0  0  0  0  0  0  0  0  0  0  0  0
    9.9727  -16.8077   26.1425 O   0  0  0  0  0  0  0  0  0  0  0  0
   13.8991  -15.3735   22.5476 O   0  0  0  0  0  0  0  0  0  0  0  0
   11.0248  -18.8130   25.9006 O   0  0  0  0  0  0  0  0  0  0  0  0
  2  1  1  6
  2  4  1  0
  3  2  1  0
  4  5  1  6
  6 11  1  0
  6  4  1  0
  7  6  2  0
  9  8  1  0
 10  9  1  1
 10 11  1  0
 10 12  1  0
 12 13  2  0
 14 12  1  0
 14 15  1  0
 15 16  1  1
 17 16  1  0
 18 17  2  0
 19 15  1  0
 19 22  1  0
 20 19  2  0
 21 17  1  0
M  END
$$$$
