TSD.pdb
     RDKit          3D

 22 21  0  0  1  0  0  0  0  0999 V2000
    7.8569  -20.4034   18.6421 C   0  0  0  0  0  0  0  0  0  0  0  0
    8.2737  -19.1941   19.4271 C   0  0  1  0  0  0  0  0  0  0  0  0
    9.6831  -19.1187   19.4378 O   0  0  0  0  0  0  0  0  0  0  0  0
    7.8133  -17.8859   18.8228 C   0  0  2  0  0  0  0  0  0  0  0  0
    8.4487  -17.8533   17.4877 N   0  0  0  0  0  0  0  0  0  0  0  0
    8.3312  -16.7028   19.5451 C   0  0  0  0  0  0  0  0  0  0  0  0
    9.5335  -16.2792   19.3661 O   0  0  0  0  0  0  0  0  0  0  0  0
    6.3029  -14.8076   22.6696 O   0  0  0  0  0  0  0  0  0  0  0  0
    6.9881  -14.0210   21.7733 C   0  0  0  0  0  0  0  0  0  0  0  0
    8.1504  -14.7582   21.1424 C   0  0  2  0  0  0  0  0  0  0  0  0
    7.5991  -15.9244   20.4787 N   0  0  0  0  0  0  0  0  0  0  0  0
    9.1748  -15.1337   22.1550 C   0  0  0  0  0  0  0  0  0  0  0  0
    9.7766  -14.2561   22.8350 O   0  0  0  0  0  0  0  0  0  0  0  0
    9.4978  -16.4923   22.3797 N   0  0  0  0  0  0  0  0  0  0  0  0
   10.4296  -16.9834   23.3701 C   0  0  1  0  0  0  0  0  0  0  0  0
   10.1837  -18.4171   23.7200 C   0  0  0  0  0  0  0  0  0  0  0  0
   11.0625  -18.8639   24.8120 C   0  0  0  0  0  0  0  0  0  0  0  0
   11.7157  -19.9344   24.6857 O   0  0  0  0  0  0  0  0  0  0  0  0
   11.8482  -16.7552   22.9339 C   0  0  0  0  0  0  0  0  0  0  0  0
   12.6871  -16.4073   23.8018 O   0  0  0  0  0  0  0  0  0  0  0  0
   11.2193  -18.1564   26.0012 O   0  0  0  0  0  0  0  0  0  0  0  0
   12.2639  -16.9111   21.6215 O   0  0  0  0  0  0  0  0  0  0  0  0
  2  1  1  6
  2  4  1  0
  3  2  1  0
  4  5  1  6
  6 11  1  0
  6  4  1  0
  7  6  2  0
  9  8  1  0
 10  9  1  1
 10 11  1  0
 10 12  1  0
 12 13  2  0
 14 12  1  0
 14 15  1  0
 15 16  1  6
 17 16  1  0
 18 17  2  0
 19 15  1  0
 19 22  1  0
 20 19  2  0
 21 17  1  0
M  END
$$$$
