TSD.pdb
     RDKit          3D

 22 21  0  0  1  0  0  0  0  0999 V2000
    8.4267  -16.6400   17.7164 C   0  0  0  0  0  0  0  0  0  0  0  0
    8.5885  -15.2160   17.2710 C   0  0  1  0  0  0  0  0  0  0  0  0
    7.9535  -15.0523   16.0211 O   0  0  0  0  0  0  0  0  0  0  0  0
    7.9235  -14.2112   18.1857 C   0  0  2  0  0  0  0  0  0  0  0  0
    8.1789  -12.9035   17.5439 N   0  0  0  0  0  0  0  0  0  0  0  0
    8.5589  -14.1367   19.5200 C   0  0  0  0  0  0  0  0  0  0  0  0
    9.8086  -13.8592   19.6548 O   0  0  0  0  0  0  0  0  0  0  0  0
    6.5605  -15.1812   23.0266 O   0  0  0  0  0  0  0  0  0  0  0  0
    7.5493  -14.2289   23.1107 C   0  0  0  0  0  0  0  0  0  0  0  0
    8.5953  -14.3984   22.0292 C   0  0  2  0  0  0  0  0  0  0  0  0
    7.8985  -14.3497   20.7578 N   0  0  0  0  0  0  0  0  0  0  0  0
    9.3520  -15.6697   22.1942 C   0  0  0  0  0  0  0  0  0  0  0  0
    8.9783  -16.7334   21.6256 O   0  0  0  0  0  0  0  0  0  0  0  0
   10.5157  -15.7132   22.9970 N   0  0  0  0  0  0  0  0  0  0  0  0
   11.2165  -16.9121   23.3992 C   0  0  1  0  0  0  0  0  0  0  0  0
   12.7025  -16.7496   23.3371 C   0  0  0  0  0  0  0  0  0  0  0  0
   13.1448  -16.3425   21.9944 C   0  0  0  0  0  0  0  0  0  0  0  0
   12.8136  -17.0346   20.9944 O   0  0  0  0  0  0  0  0  0  0  0  0
   10.7656  -17.3690   24.7566 C   0  0  0  0  0  0  0  0  0  0  0  0
   11.2271  -18.4488   25.2028 O   0  0  0  0  0  0  0  0  0  0  0  0
   13.9228  -15.2117   21.7592 O   0  0  0  0  0  0  0  0  0  0  0  0
    9.8664  -16.6520   25.5292 O   0  0  0  0  0  0  0  0  0  0  0  0
  2  1  1  1
  2  4  1  0
  3  2  1  0
  4  5  1  6
  6 11  1  0
  6  4  1  0
  7  6  2  0
  9  8  1  0
 10  9  1  1
 10 11  1  0
 10 12  1  0
 12 13  2  0
 14 12  1  0
 14 15  1  0
 15 16  1  1
 17 16  1  0
 18 17  2  0
 19 15  1  0
 19 22  1  0
 20 19  2  0
 21 17  1  0
M  END
$$$$
