TSD.pdb
     RDKit          3D

 22 21  0  0  1  0  0  0  0  0999 V2000
    8.1822  -16.5790   18.1481 C   0  0  0  0  0  0  0  0  0  0  0  0
    8.3940  -15.1822   17.6418 C   0  0  1  0  0  0  0  0  0  0  0  0
    7.7834  -15.0566   16.3755 O   0  0  0  0  0  0  0  0  0  0  0  0
    7.7462  -14.1176   18.4994 C   0  0  2  0  0  0  0  0  0  0  0  0
    8.0440  -12.8493   17.7993 N   0  0  0  0  0  0  0  0  0  0  0  0
    8.3682  -13.9961   19.8365 C   0  0  0  0  0  0  0  0  0  0  0  0
    9.5896  -13.6149   19.9775 O   0  0  0  0  0  0  0  0  0  0  0  0
    6.6026  -15.5148   23.3178 O   0  0  0  0  0  0  0  0  0  0  0  0
    7.3695  -14.3780   23.4234 C   0  0  0  0  0  0  0  0  0  0  0  0
    8.4247  -14.3015   22.3403 C   0  0  2  0  0  0  0  0  0  0  0  0
    7.7238  -14.2698   21.0707 N   0  0  0  0  0  0  0  0  0  0  0  0
    9.3726  -15.4467   22.4178 C   0  0  0  0  0  0  0  0  0  0  0  0
    9.1975  -16.4902   21.7286 O   0  0  0  0  0  0  0  0  0  0  0  0
   10.4991  -15.3895   23.2712 N   0  0  0  0  0  0  0  0  0  0  0  0
   11.5160  -16.4100   23.3923 C   0  0  1  0  0  0  0  0  0  0  0  0
   12.8908  -15.8746   23.1435 C   0  0  0  0  0  0  0  0  0  0  0  0
   13.9056  -16.9368   23.2234 C   0  0  0  0  0  0  0  0  0  0  0  0
   13.8429  -17.9170   22.4336 O   0  0  0  0  0  0  0  0  0  0  0  0
   11.4245  -17.1058   24.7198 C   0  0  0  0  0  0  0  0  0  0  0  0
   12.1340  -18.1257   24.9053 O   0  0  0  0  0  0  0  0  0  0  0  0
   14.9548  -16.9201   24.1390 O   0  0  0  0  0  0  0  0  0  0  0  0
   10.5933  -16.6706   25.7393 O   0  0  0  0  0  0  0  0  0  0  0  0
  2  1  1  1
  2  4  1  0
  3  2  1  0
  4  5  1  6
  6 11  1  0
  6  4  1  0
  7  6  2  0
  9  8  1  0
 10  9  1  1
 10 11  1  0
 10 12  1  0
 12 13  2  0
 14 12  1  0
 14 15  1  0
 15 16  1  1
 17 16  1  0
 18 17  2  0
 19 15  1  0
 19 22  1  0
 20 19  2  0
 21 17  1  0
M  END
$$$$
