TSD.pdb
     RDKit          3D

 22 21  0  0  1  0  0  0  0  0999 V2000
    8.2926  -16.1954   18.1179 C   0  0  0  0  0  0  0  0  0  0  0  0
    8.5555  -14.7444   17.8386 C   0  0  1  0  0  0  0  0  0  0  0  0
    7.9871  -14.4080   16.5912 O   0  0  0  0  0  0  0  0  0  0  0  0
    7.9094  -13.8048   18.8326 C   0  0  2  0  0  0  0  0  0  0  0  0
    8.2075  -12.4539   18.3098 N   0  0  0  0  0  0  0  0  0  0  0  0
    8.5330  -13.8652   20.1732 C   0  0  0  0  0  0  0  0  0  0  0  0
    9.7389  -13.4613   20.3724 O   0  0  0  0  0  0  0  0  0  0  0  0
    6.7296  -15.7758   23.4899 O   0  0  0  0  0  0  0  0  0  0  0  0
    7.6079  -14.7348   23.6815 C   0  0  0  0  0  0  0  0  0  0  0  0
    8.6329  -14.6441   22.5709 C   0  0  2  0  0  0  0  0  0  0  0  0
    7.9064  -14.3512   21.3500 N   0  0  0  0  0  0  0  0  0  0  0  0
    9.4247  -15.8992   22.4531 C   0  0  0  0  0  0  0  0  0  0  0  0
    9.4690  -16.5469   21.3700 O   0  0  0  0  0  0  0  0  0  0  0  0
   10.1510  -16.3962   23.5604 N   0  0  0  0  0  0  0  0  0  0  0  0
   11.4612  -17.0048   23.5031 C   0  0  1  0  0  0  0  0  0  0  0  0
   12.4336  -16.1868   22.7134 C   0  0  0  0  0  0  0  0  0  0  0  0
   13.7637  -16.8146   22.6795 C   0  0  0  0  0  0  0  0  0  0  0  0
   13.8585  -18.0622   22.5280 O   0  0  0  0  0  0  0  0  0  0  0  0
   11.9776  -17.3007   24.8817 C   0  0  0  0  0  0  0  0  0  0  0  0
   11.7242  -16.4806   25.7989 O   0  0  0  0  0  0  0  0  0  0  0  0
   14.9490  -16.0945   22.8057 O   0  0  0  0  0  0  0  0  0  0  0  0
   12.7178  -18.4337   25.1784 O   0  0  0  0  0  0  0  0  0  0  0  0
  2  1  1  1
  2  4  1  0
  3  2  1  0
  4  5  1  6
  6 11  1  0
  6  4  1  0
  7  6  2  0
  9  8  1  0
 10  9  1  1
 10 11  1  0
 10 12  1  0
 12 13  2  0
 14 12  1  0
 14 15  1  0
 15 16  1  1
 17 16  1  0
 18 17  2  0
 19 15  1  0
 19 22  1  0
 20 19  2  0
 21 17  1  0
M  END
$$$$
