TSD.pdb
     RDKit          3D

 22 21  0  0  1  0  0  0  0  0999 V2000
    8.7468  -17.5403   15.9022 C   0  0  0  0  0  0  0  0  0  0  0  0
    8.7110  -16.6237   14.7143 C   0  0  1  0  0  0  0  0  0  0  0  0
    7.9032  -17.2037   13.7127 O   0  0  0  0  0  0  0  0  0  0  0  0
    8.0800  -15.2789   15.0002 C   0  0  2  0  0  0  0  0  0  0  0  0
    8.2185  -14.5302   13.7323 N   0  0  0  0  0  0  0  0  0  0  0  0
    8.8224  -14.4969   16.0136 C   0  0  0  0  0  0  0  0  0  0  0  0
   10.0500  -14.1550   15.8319 O   0  0  0  0  0  0  0  0  0  0  0  0
    7.4777  -13.9541   19.9741 O   0  0  0  0  0  0  0  0  0  0  0  0
    8.1705  -12.9390   19.3567 C   0  0  0  0  0  0  0  0  0  0  0  0
    9.1158  -13.4597   18.2948 C   0  0  2  0  0  0  0  0  0  0  0  0
    8.2958  -14.0465   17.2520 N   0  0  0  0  0  0  0  0  0  0  0  0
   10.0808  -14.4443   18.8563 C   0  0  0  0  0  0  0  0  0  0  0  0
    9.8847  -15.6874   18.7511 O   0  0  0  0  0  0  0  0  0  0  0  0
   11.2476  -14.0051   19.5242 N   0  0  0  0  0  0  0  0  0  0  0  0
   12.1948  -14.8546   20.2108 C   0  0  1  0  0  0  0  0  0  0  0  0
   13.5550  -14.2371   20.2949 C   0  0  0  0  0  0  0  0  0  0  0  0
   14.5164  -15.1378   20.9497 C   0  0  0  0  0  0  0  0  0  0  0  0
   14.5059  -16.3670   20.6710 O   0  0  0  0  0  0  0  0  0  0  0  0
   11.6806  -15.2485   21.5655 C   0  0  0  0  0  0  0  0  0  0  0  0
   10.8070  -14.5229   22.1026 O   0  0  0  0  0  0  0  0  0  0  0  0
   15.4586  -14.7012   21.8776 O   0  0  0  0  0  0  0  0  0  0  0  0
   12.1299  -16.3716   22.2411 O   0  0  0  0  0  0  0  0  0  0  0  0
  2  1  1  1
  2  4  1  0
  3  2  1  0
  4  5  1  6
  6 11  1  0
  6  4  1  0
  7  6  2  0
  9  8  1  0
 10  9  1  1
 10 11  1  0
 10 12  1  0
 12 13  2  0
 14 12  1  0
 14 15  1  0
 15 16  1  1
 17 16  1  0
 18 17  2  0
 19 15  1  0
 19 22  1  0
 20 19  2  0
 21 17  1  0
M  END
$$$$
