TSD.pdb
     RDKit          3D

 22 21  0  0  1  0  0  0  0  0999 V2000
    9.8301  -15.5770   16.9107 C   0  0  0  0  0  0  0  0  0  0  0  0
    8.3373  -15.4228   16.9219 C   0  0  1  0  0  0  0  0  0  0  0  0
    7.7655  -16.5485   17.5527 O   0  0  0  0  0  0  0  0  0  0  0  0
    7.8527  -14.2339   17.7219 C   0  0  2  0  0  0  0  0  0  0  0  0
    8.4104  -13.0614   17.0136 N   0  0  0  0  0  0  0  0  0  0  0  0
    8.4202  -14.1875   19.0878 C   0  0  0  0  0  0  0  0  0  0  0  0
    9.6561  -13.8917   19.2924 O   0  0  0  0  0  0  0  0  0  0  0  0
    6.4283  -15.4988   22.6632 O   0  0  0  0  0  0  0  0  0  0  0  0
    7.2435  -14.3918   22.6206 C   0  0  0  0  0  0  0  0  0  0  0  0
    8.3398  -14.5325   21.5858 C   0  0  2  0  0  0  0  0  0  0  0  0
    7.7040  -14.4488   20.2846 N   0  0  0  0  0  0  0  0  0  0  0  0
    9.0887  -15.8082   21.7518 C   0  0  0  0  0  0  0  0  0  0  0  0
    9.1339  -16.6669   20.8270 O   0  0  0  0  0  0  0  0  0  0  0  0
    9.7719  -16.0876   22.9584 N   0  0  0  0  0  0  0  0  0  0  0  0
   11.0806  -16.6928   23.0639 C   0  0  1  0  0  0  0  0  0  0  0  0
   12.0885  -16.0244   22.1832 C   0  0  0  0  0  0  0  0  0  0  0  0
   13.3995  -16.6871   22.2645 C   0  0  0  0  0  0  0  0  0  0  0  0
   13.5543  -17.8247   21.7444 O   0  0  0  0  0  0  0  0  0  0  0  0
   11.5382  -16.7390   24.4934 C   0  0  0  0  0  0  0  0  0  0  0  0
   12.5012  -17.4915   24.7840 O   0  0  0  0  0  0  0  0  0  0  0  0
   14.5030  -16.1172   22.8944 O   0  0  0  0  0  0  0  0  0  0  0  0
   10.9433  -15.9907   25.4962 O   0  0  0  0  0  0  0  0  0  0  0  0
  2  1  1  1
  2  4  1  0
  3  2  1  0
  4  5  1  6
  6 11  1  0
  6  4  1  0
  7  6  2  0
  9  8  1  0
 10  9  1  1
 10 11  1  0
 10 12  1  0
 12 13  2  0
 14 12  1  0
 14 15  1  0
 15 16  1  6
 17 16  1  0
 18 17  2  0
 19 15  1  0
 19 22  1  0
 20 19  2  0
 21 17  1  0
M  END
$$$$
