TSD.pdb
     RDKit          3D

 22 21  0  0  1  0  0  0  0  0999 V2000
    7.0954  -16.4122   13.9414 C   0  0  0  0  0  0  0  0  0  0  0  0
    7.6623  -16.1604   15.3081 C   0  0  1  0  0  0  0  0  0  0  0  0
    8.7960  -16.9809   15.4917 O   0  0  0  0  0  0  0  0  0  0  0  0
    8.1615  -14.7469   15.5106 C   0  0  2  0  0  0  0  0  0  0  0  0
    9.2749  -14.6080   14.5469 N   0  0  0  0  0  0  0  0  0  0  0  0
    8.7564  -14.5311   16.8482 C   0  0  0  0  0  0  0  0  0  0  0  0
   10.0067  -14.7425   17.0698 O   0  0  0  0  0  0  0  0  0  0  0  0
    6.5053  -14.0656   20.3909 O   0  0  0  0  0  0  0  0  0  0  0  0
    7.6565  -13.3322   20.2222 C   0  0  0  0  0  0  0  0  0  0  0  0
    8.6497  -14.0328   19.3192 C   0  0  2  0  0  0  0  0  0  0  0  0
    8.0546  -14.0829   17.9972 N   0  0  0  0  0  0  0  0  0  0  0  0
    8.9844  -15.3924   19.8245 C   0  0  0  0  0  0  0  0  0  0  0  0
    8.3937  -16.4185   19.3855 O   0  0  0  0  0  0  0  0  0  0  0  0
    9.9798  -15.5653   20.8144 N   0  0  0  0  0  0  0  0  0  0  0  0
   10.2968  -16.8083   21.4812 C   0  0  1  0  0  0  0  0  0  0  0  0
   11.7194  -17.2203   21.2689 C   0  0  0  0  0  0  0  0  0  0  0  0
   12.6559  -16.1962   21.7572 C   0  0  0  0  0  0  0  0  0  0  0  0
   12.2096  -15.1789   22.3525 O   0  0  0  0  0  0  0  0  0  0  0  0
    9.9524  -16.7386   22.9411 C   0  0  0  0  0  0  0  0  0  0  0  0
   10.0339  -17.7919   23.6209 O   0  0  0  0  0  0  0  0  0  0  0  0
   14.0363  -16.2890   21.5981 O   0  0  0  0  0  0  0  0  0  0  0  0
    9.5501  -15.5672   23.5620 O   0  0  0  0  0  0  0  0  0  0  0  0
  2  1  1  6
  2  4  1  0
  3  2  1  0
  4  5  1  6
  6 11  1  0
  6  4  1  0
  7  6  2  0
  9  8  1  0
 10  9  1  1
 10 11  1  0
 10 12  1  0
 12 13  2  0
 14 12  1  0
 14 15  1  0
 15 16  1  1
 17 16  1  0
 18 17  2  0
 19 15  1  0
 19 22  1  0
 20 19  2  0
 21 17  1  0
M  END
$$$$
