TSD.pdb
     RDKit          3D

 22 21  0  0  1  0  0  0  0  0999 V2000
   10.8723  -20.3743   19.4076 C   0  0  0  0  0  0  0  0  0  0  0  0
   10.8044  -19.4932   18.1946 C   0  0  1  0  0  0  0  0  0  0  0  0
   10.1532  -20.1930   17.1562 O   0  0  0  0  0  0  0  0  0  0  0  0
    9.9856  -18.2374   18.3977 C   0  0  2  0  0  0  0  0  0  0  0  0
   10.0556  -17.5377   17.0966 N   0  0  0  0  0  0  0  0  0  0  0  0
   10.5834  -17.3124   19.3860 C   0  0  0  0  0  0  0  0  0  0  0  0
   11.8262  -16.9817   19.3311 O   0  0  0  0  0  0  0  0  0  0  0  0
    8.5763  -15.9760   22.8365 O   0  0  0  0  0  0  0  0  0  0  0  0
    9.4713  -15.1394   22.2115 C   0  0  0  0  0  0  0  0  0  0  0  0
   10.5528  -15.9072   21.4812 C   0  0  2  0  0  0  0  0  0  0  0  0
    9.8913  -16.7024   20.4642 N   0  0  0  0  0  0  0  0  0  0  0  0
   11.3466  -16.7544   22.4129 C   0  0  0  0  0  0  0  0  0  0  0  0
   11.0938  -17.9830   22.5583 O   0  0  0  0  0  0  0  0  0  0  0  0
   12.4101  -16.1969   23.1605 N   0  0  0  0  0  0  0  0  0  0  0  0
   13.2035  -16.8964   24.1461 C   0  0  1  0  0  0  0  0  0  0  0  0
   14.5267  -16.2390   24.3811 C   0  0  0  0  0  0  0  0  0  0  0  0
   15.3647  -16.2663   23.1722 C   0  0  0  0  0  0  0  0  0  0  0  0
   15.9898  -15.2282   22.8256 O   0  0  0  0  0  0  0  0  0  0  0  0
   12.4380  -17.0735   25.4257 C   0  0  0  0  0  0  0  0  0  0  0  0
   11.3748  -16.4214   25.5762 O   0  0  0  0  0  0  0  0  0  0  0  0
   15.5118  -17.3973   22.3731 O   0  0  0  0  0  0  0  0  0  0  0  0
   12.8563  -17.9205   26.4392 O   0  0  0  0  0  0  0  0  0  0  0  0
  2  1  1  1
  2  4  1  0
  3  2  1  0
  4  5  1  6
  6 11  1  0
  6  4  1  0
  7  6  2  0
  9  8  1  0
 10  9  1  1
 10 11  1  0
 10 12  1  0
 12 13  2  0
 14 12  1  0
 14 15  1  0
 15 16  1  1
 17 16  1  0
 18 17  2  0
 19 15  1  0
 19 22  1  0
 20 19  2  0
 21 17  1  0
M  END
$$$$
