TSD.pdb
     RDKit          3D

 22 21  0  0  1  0  0  0  0  0999 V2000
    7.5992  -14.8024   16.6208 C   0  0  0  0  0  0  0  0  0  0  0  0
    8.0708  -14.9384   18.0391 C   0  0  1  0  0  0  0  0  0  0  0  0
    9.4800  -15.0170   18.0475 O   0  0  0  0  0  0  0  0  0  0  0  0
    7.7371  -13.7473   18.9099 C   0  0  2  0  0  0  0  0  0  0  0  0
    8.5080  -12.6319   18.3192 N   0  0  0  0  0  0  0  0  0  0  0  0
    8.2322  -13.8898   20.2971 C   0  0  0  0  0  0  0  0  0  0  0  0
    9.4528  -13.6224   20.6058 O   0  0  0  0  0  0  0  0  0  0  0  0
    7.2608  -15.0185   24.9520 O   0  0  0  0  0  0  0  0  0  0  0  0
    6.8522  -14.8278   23.6526 C   0  0  0  0  0  0  0  0  0  0  0  0
    8.0120  -14.5091   22.7329 C   0  0  2  0  0  0  0  0  0  0  0  0
    7.4572  -14.3167   21.4065 N   0  0  0  0  0  0  0  0  0  0  0  0
    9.0368  -15.5886   22.7502 C   0  0  0  0  0  0  0  0  0  0  0  0
    8.8761  -16.6554   22.0937 O   0  0  0  0  0  0  0  0  0  0  0  0
   10.2223  -15.4409   23.5074 N   0  0  0  0  0  0  0  0  0  0  0  0
   11.2690  -16.4301   23.6339 C   0  0  1  0  0  0  0  0  0  0  0  0
   12.6349  -15.8216   23.5841 C   0  0  0  0  0  0  0  0  0  0  0  0
   13.5104  -16.5380   22.6436 C   0  0  0  0  0  0  0  0  0  0  0  0
   13.0319  -16.9859   21.5671 O   0  0  0  0  0  0  0  0  0  0  0  0
   11.0775  -17.2610   24.8699 C   0  0  0  0  0  0  0  0  0  0  0  0
   10.7664  -16.6747   25.9365 O   0  0  0  0  0  0  0  0  0  0  0  0
   14.8663  -16.7525   22.8781 O   0  0  0  0  0  0  0  0  0  0  0  0
   11.2307  -18.6379   24.8796 O   0  0  0  0  0  0  0  0  0  0  0  0
  2  1  1  6
  2  4  1  0
  3  2  1  0
  4  5  1  6
  6 11  1  0
  6  4  1  0
  7  6  2  0
  9  8  1  0
 10  9  1  1
 10 11  1  0
 10 12  1  0
 12 13  2  0
 14 12  1  0
 14 15  1  0
 15 16  1  1
 17 16  1  0
 18 17  2  0
 19 15  1  0
 19 22  1  0
 20 19  2  0
 21 17  1  0
M  END
$$$$
