TSD.pdb
     RDKit          3D

 22 21  0  0  1  0  0  0  0  0999 V2000
    6.9535  -14.6611   17.5629 C   0  0  0  0  0  0  0  0  0  0  0  0
    7.6073  -14.8237   18.9040 C   0  0  1  0  0  0  0  0  0  0  0  0
    8.9935  -15.0131   18.7176 O   0  0  0  0  0  0  0  0  0  0  0  0
    7.4918  -13.6037   19.7910 C   0  0  2  0  0  0  0  0  0  0  0  0
    8.1030  -12.5139   18.9997 N   0  0  0  0  0  0  0  0  0  0  0  0
    8.3011  -13.7089   21.0253 C   0  0  0  0  0  0  0  0  0  0  0  0
    9.5238  -13.3081   21.0635 O   0  0  0  0  0  0  0  0  0  0  0  0
    6.7599  -14.6024   24.7640 O   0  0  0  0  0  0  0  0  0  0  0  0
    7.9780  -13.9788   24.6260 C   0  0  0  0  0  0  0  0  0  0  0  0
    8.7246  -14.4551   23.3979 C   0  0  2  0  0  0  0  0  0  0  0  0
    7.8491  -14.2379   22.2620 N   0  0  0  0  0  0  0  0  0  0  0  0
    9.1242  -15.8838   23.5202 C   0  0  0  0  0  0  0  0  0  0  0  0
    8.3932  -16.8096   23.0696 O   0  0  0  0  0  0  0  0  0  0  0  0
   10.3413  -16.2375   24.1479 N   0  0  0  0  0  0  0  0  0  0  0  0
   10.7658  -17.5831   24.4634 C   0  0  1  0  0  0  0  0  0  0  0  0
   12.0700  -17.9333   23.8192 C   0  0  0  0  0  0  0  0  0  0  0  0
   12.8941  -16.7373   23.5853 C   0  0  0  0  0  0  0  0  0  0  0  0
   12.5425  -15.6333   24.0815 O   0  0  0  0  0  0  0  0  0  0  0  0
   10.8058  -17.8003   25.9486 C   0  0  0  0  0  0  0  0  0  0  0  0
   10.8907  -16.7923   26.6936 O   0  0  0  0  0  0  0  0  0  0  0  0
   14.0661  -16.7554   22.8334 O   0  0  0  0  0  0  0  0  0  0  0  0
   10.7543  -19.0594   26.5244 O   0  0  0  0  0  0  0  0  0  0  0  0
  2  1  1  6
  2  4  1  0
  3  2  1  0
  4  5  1  6
  6 11  1  0
  6  4  1  0
  7  6  2  0
  9  8  1  0
 10  9  1  1
 10 11  1  0
 10 12  1  0
 12 13  2  0
 14 12  1  0
 14 15  1  0
 15 16  1  1
 17 16  1  0
 18 17  2  0
 19 15  1  0
 19 22  1  0
 20 19  2  0
 21 17  1  0
M  END
$$$$
