TSD.pdb
     RDKit          3D

 22 21  0  0  1  0  0  0  0  0999 V2000
    8.9629  -17.7444   15.8247 C   0  0  0  0  0  0  0  0  0  0  0  0
    9.0139  -16.8012   14.6584 C   0  0  1  0  0  0  0  0  0  0  0  0
    8.2725  -17.3522   13.5912 O   0  0  0  0  0  0  0  0  0  0  0  0
    8.3735  -15.4581   14.9314 C   0  0  2  0  0  0  0  0  0  0  0  0
    8.5595  -14.6995   13.6756 N   0  0  0  0  0  0  0  0  0  0  0  0
    9.0780  -14.6849   15.9780 C   0  0  0  0  0  0  0  0  0  0  0  0
   10.3218  -14.3745   15.8616 O   0  0  0  0  0  0  0  0  0  0  0  0
    7.4739  -13.9900   19.7882 O   0  0  0  0  0  0  0  0  0  0  0  0
    8.2713  -13.0177   19.2310 C   0  0  0  0  0  0  0  0  0  0  0  0
    9.2656  -13.5939   18.2452 C   0  0  2  0  0  0  0  0  0  0  0  0
    8.4954  -14.2105   17.1818 N   0  0  0  0  0  0  0  0  0  0  0  0
   10.1816  -14.5687   18.8983 C   0  0  0  0  0  0  0  0  0  0  0  0
    9.9812  -15.8128   18.8164 O   0  0  0  0  0  0  0  0  0  0  0  0
   11.3056  -14.1187   19.6296 N   0  0  0  0  0  0  0  0  0  0  0  0
   12.1824  -14.9511   20.4224 C   0  0  1  0  0  0  0  0  0  0  0  0
   13.5152  -14.3124   20.6551 C   0  0  0  0  0  0  0  0  0  0  0  0
   14.3779  -14.4171   19.4680 C   0  0  0  0  0  0  0  0  0  0  0  0
   13.8769  -14.2712   18.3207 O   0  0  0  0  0  0  0  0  0  0  0  0
   11.5255  -15.3481   21.7130 C   0  0  0  0  0  0  0  0  0  0  0  0
   12.1416  -16.1341   22.4751 O   0  0  0  0  0  0  0  0  0  0  0  0
   15.7452  -14.6712   19.5404 O   0  0  0  0  0  0  0  0  0  0  0  0
   10.2757  -14.8857   22.0921 O   0  0  0  0  0  0  0  0  0  0  0  0
  2  1  1  1
  2  4  1  0
  3  2  1  0
  4  5  1  6
  6 11  1  0
  6  4  1  0
  7  6  2  0
  9  8  1  0
 10  9  1  1
 10 11  1  0
 10 12  1  0
 12 13  2  0
 14 12  1  0
 14 15  1  0
 15 16  1  1
 17 16  1  0
 18 17  2  0
 19 15  1  0
 19 22  1  0
 20 19  2  0
 21 17  1  0
M  END
$$$$
