TSD.pdb
     RDKit          3D

 22 21  0  0  1  0  0  0  0  0999 V2000
    7.7495  -19.4118   17.3699 C   0  0  0  0  0  0  0  0  0  0  0  0
    8.3601  -18.6474   18.5080 C   0  0  1  0  0  0  0  0  0  0  0  0
    9.7013  -19.0574   18.6676 O   0  0  0  0  0  0  0  0  0  0  0  0
    8.4294  -17.1546   18.2728 C   0  0  2  0  0  0  0  0  0  0  0  0
    9.3479  -17.0053   17.1233 N   0  0  0  0  0  0  0  0  0  0  0  0
    9.0622  -16.4228   19.3925 C   0  0  0  0  0  0  0  0  0  0  0  0
   10.3389  -16.4185   19.5565 O   0  0  0  0  0  0  0  0  0  0  0  0
    6.9461  -14.9697   22.6933 O   0  0  0  0  0  0  0  0  0  0  0  0
    7.9942  -14.2132   22.2233 C   0  0  0  0  0  0  0  0  0  0  0  0
    9.0317  -15.0576   21.5140 C   0  0  2  0  0  0  0  0  0  0  0  0
    8.3713  -15.6686   20.3762 N   0  0  0  0  0  0  0  0  0  0  0  0
    9.6205  -16.0789   22.4230 C   0  0  0  0  0  0  0  0  0  0  0  0
    9.1315  -17.2400   22.5085 O   0  0  0  0  0  0  0  0  0  0  0  0
   10.7499  -15.7683   23.2158 N   0  0  0  0  0  0  0  0  0  0  0  0
   11.3636  -16.6459   24.1871 C   0  0  1  0  0  0  0  0  0  0  0  0
   12.8191  -16.3555   24.3757 C   0  0  0  0  0  0  0  0  0  0  0  0
   13.5379  -16.3465   23.0921 C   0  0  0  0  0  0  0  0  0  0  0  0
   13.4686  -17.3510   22.3338 O   0  0  0  0  0  0  0  0  0  0  0  0
   10.6185  -16.6108   25.4903 C   0  0  0  0  0  0  0  0  0  0  0  0
   10.9412  -17.4360   26.3807 O   0  0  0  0  0  0  0  0  0  0  0  0
   14.3047  -15.2689   22.6563 O   0  0  0  0  0  0  0  0  0  0  0  0
    9.5960  -15.7114   25.7460 O   0  0  0  0  0  0  0  0  0  0  0  0
  2  1  1  6
  2  4  1  0
  3  2  1  0
  4  5  1  6
  6 11  1  0
  6  4  1  0
  7  6  2  0
  9  8  1  0
 10  9  1  1
 10 11  1  0
 10 12  1  0
 12 13  2  0
 14 12  1  0
 14 15  1  0
 15 16  1  1
 17 16  1  0
 18 17  2  0
 19 15  1  0
 19 22  1  0
 20 19  2  0
 21 17  1  0
M  END
$$$$
