DWF.pdb
     RDKit          3D

 34 36  0  0  1  0  0  0  0  0999 V2000
   15.3192  -19.2602    3.1479 N   0  0  0  0  0  0  0  0  0  0  0  0
   15.4520  -19.1647    4.6052 C   0  0  1  0  0  0  0  0  0  0  0  0
   15.3387  -20.5186    5.1827 C   0  0  0  0  0  0  0  0  0  0  0  0
   14.1513  -20.7285    6.0268 C   0  0  0  0  0  0  0  0  0  0  0  0
   13.2970  -19.8625    6.2467 O   0  0  0  0  0  0  0  0  0  0  0  0
   16.5745  -18.3259    4.9810 C   0  0  0  0  0  0  0  0  0  0  0  0
   17.7162  -18.6562    4.4760 O   0  0  0  0  0  0  0  0  0  0  0  0
   13.9856  -21.9716    6.6063 O   0  0  0  0  0  0  0  0  0  0  0  0
   16.6088  -17.2075    5.8187 N   0  0  0  0  0  0  0  0  0  0  0  0
   17.8378  -16.4952    6.2001 C   0  0  1  0  0  0  0  0  0  0  0  0
   17.5405  -15.1288    6.6997 C   0  0  0  0  0  0  0  0  0  0  0  0
   18.1723  -14.0405    5.9415 C   0  0  0  0  0  0  0  0  0  0  0  0
   17.8439  -13.4496    4.7491 C   0  0  0  0  0  0  0  0  0  0  0  0
   18.7623  -12.4767    4.4729 N   0  0  0  0  0  0  0  0  0  0  0  0
   19.6758  -12.4189    5.4488 C   0  0  0  0  0  0  0  0  0  0  0  0
   20.7856  -11.6281    5.6429 C   0  0  0  0  0  0  0  0  0  0  0  0
   21.5555  -11.7988    6.7692 C   0  0  0  0  0  0  0  0  0  0  0  0
   21.2440  -12.7590    7.7306 C   0  0  0  0  0  0  0  0  0  0  0  0
   20.1240  -13.5334    7.5015 C   0  0  0  0  0  0  0  0  0  0  0  0
   19.3164  -13.3950    6.3769 C   0  0  0  0  0  0  0  0  0  0  0  0
   18.4243  -17.2710    7.3225 C   0  0  0  0  0  0  0  0  0  0  0  0
   17.6687  -17.9204    8.1040 O   0  0  0  0  0  0  0  0  0  0  0  0
   19.8111  -17.3302    7.5758 N   0  0  0  0  0  0  0  0  0  0  0  0
   20.3293  -18.1000    8.7227 C   0  0  1  0  0  0  0  0  0  0  0  0
   21.4275  -18.9806    8.1846 C   0  0  0  0  0  0  0  0  0  0  0  0
   22.1049  -19.7569    9.2290 C   0  0  0  0  0  0  0  0  0  0  0  0
   21.6092  -21.0435    9.4606 C   0  0  0  0  0  0  0  0  0  0  0  0
   22.1345  -21.8878   10.4071 C   0  0  0  0  0  0  0  0  0  0  0  0
   23.1949  -21.4755   11.1750 C   0  0  0  0  0  0  0  0  0  0  0  0
   23.6972  -20.2110   10.9610 C   0  0  0  0  0  0  0  0  0  0  0  0
   23.1583  -19.3591    9.9975 C   0  0  0  0  0  0  0  0  0  0  0  0
   20.8112  -17.1258    9.7192 C   0  0  0  0  0  0  0  0  0  0  0  0
   20.7680  -17.4059   11.0636 O   0  0  0  0  0  0  0  0  0  0  0  0
   21.2673  -16.0249    9.3432 O   0  0  0  0  0  0  0  0  0  0  0  0
  2  1  1  6
  2  3  1  0
  3  4  1  0
  4  8  1  0
  5  4  2  0
  6  2  1  0
  6  7  2  0
  9  6  1  0
 10  9  1  0
 10 11  1  1
 11 12  1  0
 12 13  2  0
 12 20  1  0
 13 14  1  0
 14 15  1  0
 15 16  2  0
 16 17  1  0
 18 17  2  0
 19 18  1  0
 20 19  2  0
 20 15  1  0
 21 10  1  0
 22 21  2  0
 23 21  1  0
 24 25  1  6
 24 23  1  0
 25 26  1  0
 26 31  1  0
 27 26  2  0
 27 28  1  0
 28 29  2  0
 29 30  1  0
 31 30  2  0
 32 24  1  0
 33 32  1  0
 34 32  2  0
M  END
$$$$
