DWF.pdb
     RDKit          3D

 34 36  0  0  1  0  0  0  0  0999 V2000
   25.5746  -17.6967  -18.9673 N   0  0  0  0  0  0  0  0  0  0  0  0
   25.3370  -18.8963  -18.1579 C   0  0  1  0  0  0  0  0  0  0  0  0
   26.6116  -19.3140  -17.5412 C   0  0  0  0  0  0  0  0  0  0  0  0
   27.5894  -19.8868  -18.4805 C   0  0  0  0  0  0  0  0  0  0  0  0
   27.4654  -19.8596  -19.7101 O   0  0  0  0  0  0  0  0  0  0  0  0
   24.1610  -18.7467  -17.3217 C   0  0  0  0  0  0  0  0  0  0  0  0
   24.3179  -18.0381  -16.2536 O   0  0  0  0  0  0  0  0  0  0  0  0
   28.7133  -20.4904  -17.9504 O   0  0  0  0  0  0  0  0  0  0  0  0
   22.8735  -19.2625  -17.4958 N   0  0  0  0  0  0  0  0  0  0  0  0
   21.7677  -19.0687  -16.5454 C   0  0  1  0  0  0  0  0  0  0  0  0
   20.5337  -18.6126  -17.2341 C   0  0  0  0  0  0  0  0  0  0  0  0
   20.4541  -17.1644  -17.4687 C   0  0  0  0  0  0  0  0  0  0  0  0
   19.8237  -16.1621  -16.7783 C   0  0  0  0  0  0  0  0  0  0  0  0
   20.0539  -14.9765  -17.4167 N   0  0  0  0  0  0  0  0  0  0  0  0
   20.8132  -15.1792  -18.4995 C   0  0  0  0  0  0  0  0  0  0  0  0
   21.3147  -14.3304  -19.4602 C   0  0  0  0  0  0  0  0  0  0  0  0
   22.0843  -14.8357  -20.4813 C   0  0  0  0  0  0  0  0  0  0  0  0
   22.3751  -16.1959  -20.5752 C   0  0  0  0  0  0  0  0  0  0  0  0
   21.8545  -17.0161  -19.5940 C   0  0  0  0  0  0  0  0  0  0  0  0
   21.0717  -16.5483  -18.5431 C   0  0  0  0  0  0  0  0  0  0  0  0
   21.4940  -20.4073  -15.9634 C   0  0  0  0  0  0  0  0  0  0  0  0
   21.5683  -21.4400  -16.6924 O   0  0  0  0  0  0  0  0  0  0  0  0
   21.1482  -20.6023  -14.6095 N   0  0  0  0  0  0  0  0  0  0  0  0
   20.9221  -21.9622  -14.0841 C   0  0  1  0  0  0  0  0  0  0  0  0
   21.6636  -22.0426  -12.7745 C   0  0  0  0  0  0  0  0  0  0  0  0
   21.1596  -21.0994  -11.7703 C   0  0  0  0  0  0  0  0  0  0  0  0
   21.8128  -19.8652  -11.7004 C   0  0  0  0  0  0  0  0  0  0  0  0
   21.4595  -18.8818  -10.8100 C   0  0  0  0  0  0  0  0  0  0  0  0
   20.4215  -19.0934   -9.9372 C   0  0  0  0  0  0  0  0  0  0  0  0
   19.7656  -20.3034   -9.9913 C   0  0  0  0  0  0  0  0  0  0  0  0
   20.1301  -21.2975  -10.8988 C   0  0  0  0  0  0  0  0  0  0  0  0
   19.4655  -22.1331  -13.9303 C   0  0  0  0  0  0  0  0  0  0  0  0
   18.9077  -23.3820  -13.7998 O   0  0  0  0  0  0  0  0  0  0  0  0
   18.7192  -21.1310  -13.9179 O   0  0  0  0  0  0  0  0  0  0  0  0
  2  1  1  1
  2  3  1  0
  3  4  1  0
  4  8  1  0
  5  4  2  0
  6  2  1  0
  6  7  2  0
  9  6  1  0
 10  9  1  0
 10 11  1  6
 11 12  1  0
 12 13  2  0
 12 20  1  0
 13 14  1  0
 14 15  1  0
 15 16  2  0
 16 17  1  0
 18 17  2  0
 19 18  1  0
 20 19  2  0
 20 15  1  0
 21 10  1  0
 22 21  2  0
 23 21  1  0
 24 25  1  1
 24 23  1  0
 25 26  1  0
 26 31  1  0
 27 26  2  0
 27 28  1  0
 28 29  2  0
 29 30  1  0
 31 30  2  0
 32 24  1  0
 33 32  1  0
 34 32  2  0
M  END
$$$$
