DWF.pdb
     RDKit          3D

 34 36  0  0  1  0  0  0  0  0999 V2000
   24.2035  -23.0757  -15.1941 N   0  0  0  0  0  0  0  0  0  0  0  0
   23.6872  -22.2134  -14.1262 C   0  0  1  0  0  0  0  0  0  0  0  0
   22.2973  -22.6095  -13.8254 C   0  0  0  0  0  0  0  0  0  0  0  0
   21.2775  -21.9510  -14.6577 C   0  0  0  0  0  0  0  0  0  0  0  0
   21.3972  -21.7547  -15.8723 O   0  0  0  0  0  0  0  0  0  0  0  0
   24.6395  -22.0891  -13.0389 C   0  0  0  0  0  0  0  0  0  0  0  0
   25.3141  -23.1540  -12.7587 O   0  0  0  0  0  0  0  0  0  0  0  0
   20.1166  -21.5287  -14.0391 O   0  0  0  0  0  0  0  0  0  0  0  0
   24.9365  -20.9827  -12.2377 N   0  0  0  0  0  0  0  0  0  0  0  0
   25.9889  -20.9621  -11.2105 C   0  0  1  0  0  0  0  0  0  0  0  0
   26.8102  -19.7282  -11.2993 C   0  0  0  0  0  0  0  0  0  0  0  0
   28.0166  -19.8450  -12.1296 C   0  0  0  0  0  0  0  0  0  0  0  0
   28.3586  -19.2720  -13.3269 C   0  0  0  0  0  0  0  0  0  0  0  0
   29.6014  -19.7114  -13.6854 N   0  0  0  0  0  0  0  0  0  0  0  0
   30.0753  -20.5515  -12.7582 C   0  0  0  0  0  0  0  0  0  0  0  0
   31.2547  -21.2530  -12.6496 C   0  0  0  0  0  0  0  0  0  0  0  0
   31.4703  -22.0585  -11.5564 C   0  0  0  0  0  0  0  0  0  0  0  0
   30.5209  -22.1886  -10.5439 C   0  0  0  0  0  0  0  0  0  0  0  0
   29.3505  -21.4702  -10.6877 C   0  0  0  0  0  0  0  0  0  0  0  0
   29.0903  -20.6434  -11.7761 C   0  0  0  0  0  0  0  0  0  0  0  0
   25.2810  -20.9428   -9.9050 C   0  0  0  0  0  0  0  0  0  0  0  0
   24.0340  -20.7263   -9.8661 O   0  0  0  0  0  0  0  0  0  0  0  0
   25.9326  -21.1588   -8.6724 N   0  0  0  0  0  0  0  0  0  0  0  0
   25.1506  -21.3265   -7.4327 C   0  0  1  0  0  0  0  0  0  0  0  0
   26.0929  -21.9042   -6.4084 C   0  0  0  0  0  0  0  0  0  0  0  0
   27.0341  -20.9151   -5.8715 C   0  0  0  0  0  0  0  0  0  0  0  0
   26.6877  -20.3348   -4.6475 C   0  0  0  0  0  0  0  0  0  0  0  0
   27.4638  -19.3913   -4.0213 C   0  0  0  0  0  0  0  0  0  0  0  0
   28.6382  -18.9807   -4.6011 C   0  0  0  0  0  0  0  0  0  0  0  0
   28.9964  -19.5414   -5.8072 C   0  0  0  0  0  0  0  0  0  0  0  0
   28.2028  -20.4996   -6.4371 C   0  0  0  0  0  0  0  0  0  0  0  0
   24.6398  -19.9953   -7.0565 C   0  0  0  0  0  0  0  0  0  0  0  0
   23.6682  -19.8540   -6.0953 O   0  0  0  0  0  0  0  0  0  0  0  0
   25.0923  -18.9740   -7.6164 O   0  0  0  0  0  0  0  0  0  0  0  0
  2  1  1  6
  2  3  1  0
  3  4  1  0
  4  8  1  0
  5  4  2  0
  6  2  1  0
  6  7  2  0
  9  6  1  0
 10  9  1  0
 10 11  1  6
 11 12  1  0
 12 13  2  0
 12 20  1  0
 13 14  1  0
 14 15  1  0
 15 16  2  0
 16 17  1  0
 18 17  2  0
 19 18  1  0
 20 19  2  0
 20 15  1  0
 21 10  1  0
 22 21  2  0
 23 21  1  0
 24 25  1  1
 24 23  1  0
 25 26  1  0
 26 31  1  0
 27 26  2  0
 27 28  1  0
 28 29  2  0
 29 30  1  0
 31 30  2  0
 32 24  1  0
 33 32  1  0
 34 32  2  0
M  END
$$$$
