DWF.pdb
     RDKit          3D

 34 36  0  0  1  0  0  0  0  0999 V2000
   15.7881  -19.4910    2.4160 N   0  0  0  0  0  0  0  0  0  0  0  0
   15.6383  -19.3213    3.8649 C   0  0  1  0  0  0  0  0  0  0  0  0
   15.2587  -20.6184    4.4588 C   0  0  0  0  0  0  0  0  0  0  0  0
   14.0923  -21.2623    3.8332 C   0  0  0  0  0  0  0  0  0  0  0  0
   13.9981  -22.4785    3.6330 O   0  0  0  0  0  0  0  0  0  0  0  0
   16.7515  -18.5823    4.4297 C   0  0  0  0  0  0  0  0  0  0  0  0
   17.9079  -18.8228    3.9075 O   0  0  0  0  0  0  0  0  0  0  0  0
   13.0405  -20.4535    3.4482 O   0  0  0  0  0  0  0  0  0  0  0  0
   16.7633  -17.6447    5.4664 N   0  0  0  0  0  0  0  0  0  0  0  0
   17.9692  -16.9491    5.9410 C   0  0  1  0  0  0  0  0  0  0  0  0
   17.6278  -15.6755    6.6241 C   0  0  0  0  0  0  0  0  0  0  0  0
   18.0134  -14.4590    5.8961 C   0  0  0  0  0  0  0  0  0  0  0  0
   17.3703  -13.7339    4.9269 C   0  0  0  0  0  0  0  0  0  0  0  0
   18.1615  -12.6791    4.5694 N   0  0  0  0  0  0  0  0  0  0  0  0
   19.2973  -12.6983    5.2763 C   0  0  0  0  0  0  0  0  0  0  0  0
   20.4007  -11.8755    5.2926 C   0  0  0  0  0  0  0  0  0  0  0  0
   21.4427  -12.1496    6.1466 C   0  0  0  0  0  0  0  0  0  0  0  0
   21.4164  -13.2474    7.0054 C   0  0  0  0  0  0  0  0  0  0  0  0
   20.2937  -14.0500    6.9606 C   0  0  0  0  0  0  0  0  0  0  0  0
   19.2164  -13.8103    6.1131 C   0  0  0  0  0  0  0  0  0  0  0  0
   18.5885  -17.8508    6.9455 C   0  0  0  0  0  0  0  0  0  0  0  0
   17.8554  -18.5792    7.6772 O   0  0  0  0  0  0  0  0  0  0  0  0
   19.9829  -17.9479    7.1371 N   0  0  0  0  0  0  0  0  0  0  0  0
   20.5380  -18.8968    8.1209 C   0  0  1  0  0  0  0  0  0  0  0  0
   21.4620  -19.8109    7.3581 C   0  0  0  0  0  0  0  0  0  0  0  0
   20.7605  -20.9206    6.7034 C   0  0  0  0  0  0  0  0  0  0  0  0
   20.9104  -21.0127    5.3164 C   0  0  0  0  0  0  0  0  0  0  0  0
   20.3127  -21.9927    4.5634 C   0  0  0  0  0  0  0  0  0  0  0  0
   19.5269  -22.9378    5.1744 C   0  0  0  0  0  0  0  0  0  0  0  0
   19.3676  -22.8635    6.5405 C   0  0  0  0  0  0  0  0  0  0  0  0
   19.9781  -21.8651    7.2988 C   0  0  0  0  0  0  0  0  0  0  0  0
   21.2365  -18.1012    9.1474 C   0  0  0  0  0  0  0  0  0  0  0  0
   21.6938  -18.6820   10.3055 O   0  0  0  0  0  0  0  0  0  0  0  0
   21.4192  -16.8780    8.9690 O   0  0  0  0  0  0  0  0  0  0  0  0
  2  1  1  6
  2  3  1  0
  3  4  1  0
  4  8  1  0
  5  4  2  0
  6  2  1  0
  6  7  2  0
  9  6  1  0
 10  9  1  0
 10 11  1  1
 11 12  1  0
 12 13  2  0
 12 20  1  0
 13 14  1  0
 14 15  1  0
 15 16  2  0
 16 17  1  0
 18 17  2  0
 19 18  1  0
 20 19  2  0
 20 15  1  0
 21 10  1  0
 22 21  2  0
 23 21  1  0
 24 25  1  6
 24 23  1  0
 25 26  1  0
 26 31  1  0
 27 26  2  0
 27 28  1  0
 28 29  2  0
 29 30  1  0
 31 30  2  0
 32 24  1  0
 33 32  1  0
 34 32  2  0
M  END
$$$$
