DWF.pdb
     RDKit          3D

 34 36  0  0  1  0  0  0  0  0999 V2000
   30.5346  -27.8914  -16.7311 N   0  0  0  0  0  0  0  0  0  0  0  0
   29.2717  -28.2022  -17.4086 C   0  0  1  0  0  0  0  0  0  0  0  0
   29.0573  -29.6622  -17.3685 C   0  0  0  0  0  0  0  0  0  0  0  0
   30.1289  -30.4574  -17.9895 C   0  0  0  0  0  0  0  0  0  0  0  0
   30.6916  -31.4101  -17.4383 O   0  0  0  0  0  0  0  0  0  0  0  0
   28.2066  -27.3176  -16.9754 C   0  0  0  0  0  0  0  0  0  0  0  0
   27.9554  -27.3195  -15.7087 O   0  0  0  0  0  0  0  0  0  0  0  0
   30.5265  -30.1144  -19.2674 O   0  0  0  0  0  0  0  0  0  0  0  0
   27.4001  -26.4598  -17.7288 N   0  0  0  0  0  0  0  0  0  0  0  0
   26.4124  -25.5336  -17.1543 C   0  0  1  0  0  0  0  0  0  0  0  0
   26.5884  -24.1567  -17.6818 C   0  0  0  0  0  0  0  0  0  0  0  0
   25.5517  -23.1992  -17.2732 C   0  0  0  0  0  0  0  0  0  0  0  0
   25.1810  -22.7272  -16.0409 C   0  0  0  0  0  0  0  0  0  0  0  0
   24.1483  -21.8471  -16.1997 N   0  0  0  0  0  0  0  0  0  0  0  0
   23.8379  -21.7343  -17.4963 C   0  0  0  0  0  0  0  0  0  0  0  0
   22.8926  -20.9935  -18.1687 C   0  0  0  0  0  0  0  0  0  0  0  0
   22.8048  -21.0822  -19.5380 C   0  0  0  0  0  0  0  0  0  0  0  0
   23.6523  -21.9086  -20.2741 C   0  0  0  0  0  0  0  0  0  0  0  0
   24.5873  -22.6366  -19.5653 C   0  0  0  0  0  0  0  0  0  0  0  0
   24.7119  -22.5776  -18.1806 C   0  0  0  0  0  0  0  0  0  0  0  0
   25.0854  -26.0257  -17.6044 C   0  0  0  0  0  0  0  0  0  0  0  0
   24.9390  -26.4557  -18.7864 O   0  0  0  0  0  0  0  0  0  0  0  0
   23.9476  -26.0444  -16.7703 N   0  0  0  0  0  0  0  0  0  0  0  0
   22.6704  -26.5966  -17.2604 C   0  0  1  0  0  0  0  0  0  0  0  0
   21.9627  -27.1673  -16.0586 C   0  0  0  0  0  0  0  0  0  0  0  0
   21.4776  -26.1362  -15.1345 C   0  0  0  0  0  0  0  0  0  0  0  0
   20.1337  -25.7736  -15.2651 C   0  0  0  0  0  0  0  0  0  0  0  0
   19.5362  -24.8217  -14.4767 C   0  0  0  0  0  0  0  0  0  0  0  0
   20.2684  -24.1811  -13.5084 C   0  0  0  0  0  0  0  0  0  0  0  0
   21.5943  -24.5253  -13.3645 C   0  0  0  0  0  0  0  0  0  0  0  0
   22.1942  -25.4935  -14.1691 C   0  0  0  0  0  0  0  0  0  0  0  0
   21.9294  -25.4878  -17.8898 C   0  0  0  0  0  0  0  0  0  0  0  0
   22.3020  -24.1808  -17.6882 O   0  0  0  0  0  0  0  0  0  0  0  0
   20.9449  -25.7323  -18.6196 O   0  0  0  0  0  0  0  0  0  0  0  0
  2  1  1  1
  2  3  1  0
  3  4  1  0
  4  8  1  0
  5  4  2  0
  6  2  1  0
  6  7  2  0
  9  6  1  0
 10  9  1  0
 10 11  1  6
 11 12  1  0
 12 13  2  0
 12 20  1  0
 13 14  1  0
 14 15  1  0
 15 16  2  0
 16 17  1  0
 18 17  2  0
 19 18  1  0
 20 19  2  0
 20 15  1  0
 21 10  1  0
 22 21  2  0
 23 21  1  0
 24 25  1  1
 24 23  1  0
 25 26  1  0
 26 31  1  0
 27 26  2  0
 27 28  1  0
 28 29  2  0
 29 30  1  0
 31 30  2  0
 32 24  1  0
 33 32  1  0
 34 32  2  0
M  END
$$$$
