DWF.pdb
     RDKit          3D

 34 36  0  0  1  0  0  0  0  0999 V2000
   28.8401  -22.9125  -18.4116 N   0  0  0  0  0  0  0  0  0  0  0  0
   27.5060  -23.2307  -17.8925 C   0  0  1  0  0  0  0  0  0  0  0  0
   27.2697  -24.6799  -18.0446 C   0  0  0  0  0  0  0  0  0  0  0  0
   27.0249  -25.1202  -19.4275 C   0  0  0  0  0  0  0  0  0  0  0  0
   27.6013  -26.0743  -19.9621 O   0  0  0  0  0  0  0  0  0  0  0  0
   27.2768  -22.6071  -16.6028 C   0  0  0  0  0  0  0  0  0  0  0  0
   28.0002  -23.0494  -15.6287 O   0  0  0  0  0  0  0  0  0  0  0  0
   26.0925  -24.4214  -20.1697 O   0  0  0  0  0  0  0  0  0  0  0  0
   26.3799  -21.5946  -16.2503 N   0  0  0  0  0  0  0  0  0  0  0  0
   26.3425  -20.9424  -14.9325 C   0  0  1  0  0  0  0  0  0  0  0  0
   26.4873  -19.4694  -15.0515 C   0  0  0  0  0  0  0  0  0  0  0  0
   27.8732  -18.9861  -15.1179 C   0  0  0  0  0  0  0  0  0  0  0  0
   28.4970  -18.1209  -15.9787 C   0  0  0  0  0  0  0  0  0  0  0  0
   29.8078  -18.0047  -15.6119 N   0  0  0  0  0  0  0  0  0  0  0  0
   30.0531  -18.7679  -14.5407 C   0  0  0  0  0  0  0  0  0  0  0  0
   31.1899  -18.9990  -13.7998 C   0  0  0  0  0  0  0  0  0  0  0  0
   31.1404  -19.8547  -12.7248 C   0  0  0  0  0  0  0  0  0  0  0  0
   29.9619  -20.5030  -12.3584 C   0  0  0  0  0  0  0  0  0  0  0  0
   28.8425  -20.2469  -13.1252 C   0  0  0  0  0  0  0  0  0  0  0  0
   28.8467  -19.3887  -14.2205 C   0  0  0  0  0  0  0  0  0  0  0  0
   24.9928  -21.2223  -14.3797 C   0  0  0  0  0  0  0  0  0  0  0  0
   24.0341  -21.4933  -15.1613 O   0  0  0  0  0  0  0  0  0  0  0  0
   24.7078  -21.2054  -12.9980 N   0  0  0  0  0  0  0  0  0  0  0  0
   23.3787  -21.6122  -12.5037 C   0  0  1  0  0  0  0  0  0  0  0  0
   23.6130  -22.3676  -11.2210 C   0  0  0  0  0  0  0  0  0  0  0  0
   24.4407  -21.6278  -10.2618 C   0  0  0  0  0  0  0  0  0  0  0  0
   25.7964  -21.9677  -10.2258 C   0  0  0  0  0  0  0  0  0  0  0  0
   26.6952  -21.3678   -9.3791 C   0  0  0  0  0  0  0  0  0  0  0  0
   26.2706  -20.3867   -8.5183 C   0  0  0  0  0  0  0  0  0  0  0  0
   24.9383  -20.0379   -8.5395 C   0  0  0  0  0  0  0  0  0  0  0  0
   24.0312  -20.6517   -9.4026 C   0  0  0  0  0  0  0  0  0  0  0  0
   22.5908  -20.3810  -12.3091 C   0  0  0  0  0  0  0  0  0  0  0  0
   23.1538  -19.1416  -12.4949 O   0  0  0  0  0  0  0  0  0  0  0  0
   21.3908  -20.4574  -11.9691 O   0  0  0  0  0  0  0  0  0  0  0  0
  2  1  1  1
  2  3  1  0
  3  4  1  0
  4  8  1  0
  5  4  2  0
  6  2  1  0
  6  7  2  0
  9  6  1  0
 10  9  1  0
 10 11  1  6
 11 12  1  0
 12 13  2  0
 12 20  1  0
 13 14  1  0
 14 15  1  0
 15 16  2  0
 16 17  1  0
 18 17  2  0
 19 18  1  0
 20 19  2  0
 20 15  1  0
 21 10  1  0
 22 21  2  0
 23 21  1  0
 24 25  1  1
 24 23  1  0
 25 26  1  0
 26 31  1  0
 27 26  2  0
 27 28  1  0
 28 29  2  0
 29 30  1  0
 31 30  2  0
 32 24  1  0
 33 32  1  0
 34 32  2  0
M  END
$$$$
