DWF.pdb
     RDKit          3D

 34 36  0  0  1  0  0  0  0  0999 V2000
   36.0993  -33.3296  -19.4109 N   0  0  0  0  0  0  0  0  0  0  0  0
   35.6386  -32.0152  -19.8696 C   0  0  1  0  0  0  0  0  0  0  0  0
   36.5980  -31.4954  -20.8639 C   0  0  0  0  0  0  0  0  0  0  0  0
   37.9530  -31.2545  -20.3421 C   0  0  0  0  0  0  0  0  0  0  0  0
   38.2650  -31.3632  -19.1509 O   0  0  0  0  0  0  0  0  0  0  0  0
   34.2241  -32.0322  -20.1916 C   0  0  0  0  0  0  0  0  0  0  0  0
   33.6839  -30.8797  -20.4092 O   0  0  0  0  0  0  0  0  0  0  0  0
   38.9331  -30.8850  -21.2429 O   0  0  0  0  0  0  0  0  0  0  0  0
   33.3483  -33.1165  -20.2978 N   0  0  0  0  0  0  0  0  0  0  0  0
   31.9251  -33.0006  -20.6506 C   0  0  1  0  0  0  0  0  0  0  0  0
   31.5458  -33.9760  -21.7040 C   0  0  0  0  0  0  0  0  0  0  0  0
   31.9753  -33.6190  -23.0629 C   0  0  0  0  0  0  0  0  0  0  0  0
   33.1769  -33.1780  -23.5532 C   0  0  0  0  0  0  0  0  0  0  0  0
   33.0570  -32.9820  -24.8999 N   0  0  0  0  0  0  0  0  0  0  0  0
   31.8151  -33.2817  -25.2975 C   0  0  0  0  0  0  0  0  0  0  0  0
   31.1961  -33.2531  -26.5266 C   0  0  0  0  0  0  0  0  0  0  0  0
   29.8772  -33.6265  -26.6342 C   0  0  0  0  0  0  0  0  0  0  0  0
   29.1394  -34.0369  -25.5249 C   0  0  0  0  0  0  0  0  0  0  0  0
   29.7937  -34.0522  -24.3091 C   0  0  0  0  0  0  0  0  0  0  0  0
   31.1264  -33.6833  -24.1540 C   0  0  0  0  0  0  0  0  0  0  0  0
   31.1724  -33.3482  -19.4183 C   0  0  0  0  0  0  0  0  0  0  0  0
   31.2560  -34.5158  -18.9355 O   0  0  0  0  0  0  0  0  0  0  0  0
   30.3486  -32.4295  -18.7343 N   0  0  0  0  0  0  0  0  0  0  0  0
   29.5663  -32.8578  -17.5592 C   0  0  1  0  0  0  0  0  0  0  0  0
   29.1517  -31.5998  -16.8406 C   0  0  0  0  0  0  0  0  0  0  0  0
   28.2386  -31.8525  -15.7205 C   0  0  0  0  0  0  0  0  0  0  0  0
   26.8889  -31.5683  -15.9486 C   0  0  0  0  0  0  0  0  0  0  0  0
   25.9158  -31.7484  -14.9971 C   0  0  0  0  0  0  0  0  0  0  0  0
   26.2558  -32.2279  -13.7567 C   0  0  0  0  0  0  0  0  0  0  0  0
   27.5810  -32.5139  -13.5133 C   0  0  0  0  0  0  0  0  0  0  0  0
   28.5638  -32.3285  -14.4851 C   0  0  0  0  0  0  0  0  0  0  0  0
   28.4190  -33.6371  -18.0603 C   0  0  0  0  0  0  0  0  0  0  0  0
   27.7731  -33.2829  -19.2201 O   0  0  0  0  0  0  0  0  0  0  0  0
   28.0211  -34.6371  -17.4255 O   0  0  0  0  0  0  0  0  0  0  0  0
  2  1  1  6
  2  3  1  0
  3  4  1  0
  4  8  1  0
  5  4  2  0
  6  2  1  0
  6  7  2  0
  9  6  1  0
 10  9  1  0
 10 11  1  6
 11 12  1  0
 12 13  2  0
 12 20  1  0
 13 14  1  0
 14 15  1  0
 15 16  2  0
 16 17  1  0
 18 17  2  0
 19 18  1  0
 20 19  2  0
 20 15  1  0
 21 10  1  0
 22 21  2  0
 23 21  1  0
 24 25  1  6
 24 23  1  0
 25 26  1  0
 26 31  1  0
 27 26  2  0
 27 28  1  0
 28 29  2  0
 29 30  1  0
 31 30  2  0
 32 24  1  0
 33 32  1  0
 34 32  2  0
M  END
$$$$
