DWF.pdb
     RDKit          3D

 34 36  0  0  1  0  0  0  0  0999 V2000
   28.5318  -20.4780  -14.4194 N   0  0  0  0  0  0  0  0  0  0  0  0
   27.1554  -20.6475  -14.8961 C   0  0  1  0  0  0  0  0  0  0  0  0
   27.1814  -21.3974  -16.1674 C   0  0  0  0  0  0  0  0  0  0  0  0
   28.0154  -20.7938  -17.2193 C   0  0  0  0  0  0  0  0  0  0  0  0
   28.1814  -19.5766  -17.3571 O   0  0  0  0  0  0  0  0  0  0  0  0
   26.2764  -21.0903  -13.8303 C   0  0  0  0  0  0  0  0  0  0  0  0
   25.5694  -22.1403  -14.0854 O   0  0  0  0  0  0  0  0  0  0  0  0
   28.6501  -21.6439  -18.1042 O   0  0  0  0  0  0  0  0  0  0  0  0
   26.0731  -20.5447  -12.5595 N   0  0  0  0  0  0  0  0  0  0  0  0
   25.1081  -21.0650  -11.5790 C   0  0  1  0  0  0  0  0  0  0  0  0
   25.5071  -20.7227  -10.1903 C   0  0  0  0  0  0  0  0  0  0  0  0
   26.9090  -21.0115   -9.8592 C   0  0  0  0  0  0  0  0  0  0  0  0
   27.8942  -21.6644  -10.5535 C   0  0  0  0  0  0  0  0  0  0  0  0
   29.0336  -21.6693   -9.7999 N   0  0  0  0  0  0  0  0  0  0  0  0
   28.8176  -21.0404   -8.6388 C   0  0  0  0  0  0  0  0  0  0  0  0
   29.6244  -20.7792   -7.5545 C   0  0  0  0  0  0  0  0  0  0  0  0
   29.1159  -20.0946   -6.4760 C   0  0  0  0  0  0  0  0  0  0  0  0
   27.7941  -19.6525   -6.4462 C   0  0  0  0  0  0  0  0  0  0  0  0
   27.0154  -19.9332   -7.5513 C   0  0  0  0  0  0  0  0  0  0  0  0
   27.4880  -20.6223   -8.6640 C   0  0  0  0  0  0  0  0  0  0  0  0
   23.8255  -20.3734  -11.8660 C   0  0  0  0  0  0  0  0  0  0  0  0
   23.8139  -19.1237  -12.0704 O   0  0  0  0  0  0  0  0  0  0  0  0
   22.5858  -21.0442  -11.9278 N   0  0  0  0  0  0  0  0  0  0  0  0
   21.5766  -20.6589  -12.9324 C   0  0  1  0  0  0  0  0  0  0  0  0
   22.2192  -20.8572  -14.2810 C   0  0  0  0  0  0  0  0  0  0  0  0
   22.1458  -19.6652  -15.1330 C   0  0  0  0  0  0  0  0  0  0  0  0
   23.1481  -19.5346  -16.0990 C   0  0  0  0  0  0  0  0  0  0  0  0
   23.2164  -18.4729  -16.9666 C   0  0  0  0  0  0  0  0  0  0  0  0
   22.2705  -17.4801  -16.9047 C   0  0  0  0  0  0  0  0  0  0  0  0
   21.2748  -17.5915  -15.9595 C   0  0  0  0  0  0  0  0  0  0  0  0
   21.2120  -18.6733  -15.0817 C   0  0  0  0  0  0  0  0  0  0  0  0
   20.4015  -21.5251  -12.7237 C   0  0  0  0  0  0  0  0  0  0  0  0
   20.5248  -22.8932  -12.6947 O   0  0  0  0  0  0  0  0  0  0  0  0
   19.2714  -21.0145  -12.5703 O   0  0  0  0  0  0  0  0  0  0  0  0
  2  1  1  1
  2  3  1  0
  3  4  1  0
  4  8  1  0
  5  4  2  0
  6  2  1  0
  6  7  2  0
  9  6  1  0
 10  9  1  0
 10 11  1  1
 11 12  1  0
 12 13  2  0
 12 20  1  0
 13 14  1  0
 14 15  1  0
 15 16  2  0
 16 17  1  0
 18 17  2  0
 19 18  1  0
 20 19  2  0
 20 15  1  0
 21 10  1  0
 22 21  2  0
 23 21  1  0
 24 25  1  6
 24 23  1  0
 25 26  1  0
 26 31  1  0
 27 26  2  0
 27 28  1  0
 28 29  2  0
 29 30  1  0
 31 30  2  0
 32 24  1  0
 33 32  1  0
 34 32  2  0
M  END
$$$$
