DWF.pdb
     RDKit          3D

 34 36  0  0  1  0  0  0  0  0999 V2000
   27.8928  -24.0763  -15.8532 N   0  0  0  0  0  0  0  0  0  0  0  0
   27.3843  -22.7044  -15.7550 C   0  0  1  0  0  0  0  0  0  0  0  0
   26.6472  -22.3807  -16.9925 C   0  0  0  0  0  0  0  0  0  0  0  0
   27.4996  -22.1009  -18.1593 C   0  0  0  0  0  0  0  0  0  0  0  0
   27.2556  -22.4962  -19.3049 O   0  0  0  0  0  0  0  0  0  0  0  0
   26.7531  -22.4639  -14.4711 C   0  0  0  0  0  0  0  0  0  0  0  0
   26.0200  -23.4252  -14.0170 O   0  0  0  0  0  0  0  0  0  0  0  0
   28.6410  -21.3494  -17.9568 O   0  0  0  0  0  0  0  0  0  0  0  0
   26.8146  -21.3373  -13.6460 N   0  0  0  0  0  0  0  0  0  0  0  0
   26.0168  -21.1615  -12.4229 C   0  0  1  0  0  0  0  0  0  0  0  0
   26.6193  -20.1454  -11.5231 C   0  0  0  0  0  0  0  0  0  0  0  0
   27.7754  -20.6130  -10.7463 C   0  0  0  0  0  0  0  0  0  0  0  0
   28.9639  -21.1775  -11.1303 C   0  0  0  0  0  0  0  0  0  0  0  0
   29.7070  -21.4395  -10.0143 N   0  0  0  0  0  0  0  0  0  0  0  0
   29.0370  -21.0628   -8.9191 C   0  0  0  0  0  0  0  0  0  0  0  0
   29.3395  -21.1107   -7.5771 C   0  0  0  0  0  0  0  0  0  0  0  0
   28.4338  -20.6380   -6.6570 C   0  0  0  0  0  0  0  0  0  0  0  0
   27.2050  -20.1064   -7.0454 C   0  0  0  0  0  0  0  0  0  0  0  0
   26.9367  -20.0752   -8.3996 C   0  0  0  0  0  0  0  0  0  0  0  0
   27.8233  -20.5420   -9.3651 C   0  0  0  0  0  0  0  0  0  0  0  0
   24.6975  -20.6462  -12.8699 C   0  0  0  0  0  0  0  0  0  0  0  0
   24.6390  -19.7531  -13.7656 O   0  0  0  0  0  0  0  0  0  0  0  0
   23.4723  -21.1061  -12.3426 N   0  0  0  0  0  0  0  0  0  0  0  0
   22.1972  -20.5119  -12.7868 C   0  0  1  0  0  0  0  0  0  0  0  0
   21.9870  -20.9655  -14.2084 C   0  0  0  0  0  0  0  0  0  0  0  0
   21.7263  -22.4049  -14.3194 C   0  0  0  0  0  0  0  0  0  0  0  0
   22.7804  -23.1876  -14.8001 C   0  0  0  0  0  0  0  0  0  0  0  0
   22.6875  -24.5475  -14.9636 C   0  0  0  0  0  0  0  0  0  0  0  0
   21.5182  -25.1936  -14.6487 C   0  0  0  0  0  0  0  0  0  0  0  0
   20.4685  -24.4392  -14.1733 C   0  0  0  0  0  0  0  0  0  0  0  0
   20.5704  -23.0581  -14.0097 C   0  0  0  0  0  0  0  0  0  0  0  0
   21.1486  -20.9948  -11.8693 C   0  0  0  0  0  0  0  0  0  0  0  0
   19.8421  -20.5937  -12.0111 O   0  0  0  0  0  0  0  0  0  0  0  0
   21.4446  -21.7816  -10.9448 O   0  0  0  0  0  0  0  0  0  0  0  0
  2  1  1  6
  2  3  1  0
  3  4  1  0
  4  8  1  0
  5  4  2  0
  6  2  1  0
  6  7  2  0
  9  6  1  0
 10  9  1  0
 10 11  1  1
 11 12  1  0
 12 13  2  0
 12 20  1  0
 13 14  1  0
 14 15  1  0
 15 16  2  0
 16 17  1  0
 18 17  2  0
 19 18  1  0
 20 19  2  0
 20 15  1  0
 21 10  1  0
 22 21  2  0
 23 21  1  0
 24 25  1  6
 24 23  1  0
 25 26  1  0
 26 31  1  0
 27 26  2  0
 27 28  1  0
 28 29  2  0
 29 30  1  0
 31 30  2  0
 32 24  1  0
 33 32  1  0
 34 32  2  0
M  END
$$$$
