DWF.pdb
     RDKit          3D

 34 36  0  0  1  0  0  0  0  0999 V2000
   27.7558  -22.0981  -15.1863 N   0  0  0  0  0  0  0  0  0  0  0  0
   26.9450  -20.9881  -14.6755 C   0  0  1  0  0  0  0  0  0  0  0  0
   26.1293  -20.4471  -15.7806 C   0  0  0  0  0  0  0  0  0  0  0  0
   26.8787  -19.6451  -16.7611 C   0  0  0  0  0  0  0  0  0  0  0  0
   26.5653  -19.5390  -17.9522 O   0  0  0  0  0  0  0  0  0  0  0  0
   26.3000  -21.3357  -13.4233 C   0  0  0  0  0  0  0  0  0  0  0  0
   25.7403  -22.4988  -13.3839 O   0  0  0  0  0  0  0  0  0  0  0  0
   28.0003  -18.9710  -16.3183 O   0  0  0  0  0  0  0  0  0  0  0  0
   26.1871  -20.5936  -12.2441 N   0  0  0  0  0  0  0  0  0  0  0  0
   25.4379  -21.0331  -11.0571 C   0  0  1  0  0  0  0  0  0  0  0  0
   25.9516  -20.3888   -9.8217 C   0  0  0  0  0  0  0  0  0  0  0  0
   27.3167  -20.7771   -9.4418 C   0  0  0  0  0  0  0  0  0  0  0  0
   28.2856  -21.4772  -10.1124 C   0  0  0  0  0  0  0  0  0  0  0  0
   29.3896  -21.5748   -9.3138 N   0  0  0  0  0  0  0  0  0  0  0  0
   29.1663  -20.9603   -8.1465 C   0  0  0  0  0  0  0  0  0  0  0  0
   29.9420  -20.7783   -7.0240 C   0  0  0  0  0  0  0  0  0  0  0  0
   29.4342  -20.0870   -5.9495 C   0  0  0  0  0  0  0  0  0  0  0  0
   28.1439  -19.5595   -5.9616 C   0  0  0  0  0  0  0  0  0  0  0  0
   27.3957  -19.7623   -7.1043 C   0  0  0  0  0  0  0  0  0  0  0  0
   27.8689  -20.4550   -8.2145 C   0  0  0  0  0  0  0  0  0  0  0  0
   24.0422  -20.5693  -11.2639 C   0  0  0  0  0  0  0  0  0  0  0  0
   23.7426  -19.3565  -11.0567 O   0  0  0  0  0  0  0  0  0  0  0  0
   23.0025  -21.4223  -11.6903 N   0  0  0  0  0  0  0  0  0  0  0  0
   21.9061  -20.9028  -12.5296 C   0  0  1  0  0  0  0  0  0  0  0  0
   22.5493  -20.3316  -13.7669 C   0  0  0  0  0  0  0  0  0  0  0  0
   21.5802  -19.7476  -14.7007 C   0  0  0  0  0  0  0  0  0  0  0  0
   20.2444  -19.7546  -14.2879 C   0  0  0  0  0  0  0  0  0  0  0  0
   19.2230  -19.2486  -15.0530 C   0  0  0  0  0  0  0  0  0  0  0  0
   19.4974  -18.7053  -16.2832 C   0  0  0  0  0  0  0  0  0  0  0  0
   20.8079  -18.6892  -16.7069 C   0  0  0  0  0  0  0  0  0  0  0  0
   21.8402  -19.2049  -15.9240 C   0  0  0  0  0  0  0  0  0  0  0  0
   21.0066  -22.0346  -12.8207 C   0  0  0  0  0  0  0  0  0  0  0  0
   19.6425  -21.8712  -12.8347 O   0  0  0  0  0  0  0  0  0  0  0  0
   21.4848  -23.1641  -13.0593 O   0  0  0  0  0  0  0  0  0  0  0  0
  2  1  1  6
  2  3  1  0
  3  4  1  0
  4  8  1  0
  5  4  2  0
  6  2  1  0
  6  7  2  0
  9  6  1  0
 10  9  1  0
 10 11  1  1
 11 12  1  0
 12 13  2  0
 12 20  1  0
 13 14  1  0
 14 15  1  0
 15 16  2  0
 16 17  1  0
 18 17  2  0
 19 18  1  0
 20 19  2  0
 20 15  1  0
 21 10  1  0
 22 21  2  0
 23 21  1  0
 24 25  1  6
 24 23  1  0
 25 26  1  0
 26 31  1  0
 27 26  2  0
 27 28  1  0
 28 29  2  0
 29 30  1  0
 31 30  2  0
 32 24  1  0
 33 32  1  0
 34 32  2  0
M  END
$$$$
