YHM.pdb
     RDKit          3D

 31 32  0  0  1  0  0  0  0  0999 V2000
   19.7532  -19.7193  -12.8933 O   0  0  0  0  0  0  0  0  0  0  0  0
   20.7162  -20.3734  -13.6444 C   0  0  0  0  0  0  0  0  0  0  0  0
   20.9292  -21.7309  -13.5954 C   0  0  0  0  0  0  0  0  0  0  0  0
   21.8907  -22.3312  -14.3549 C   0  0  0  0  0  0  0  0  0  0  0  0
   22.6609  -21.5359  -15.1895 C   0  0  0  0  0  0  0  0  0  0  0  0
   23.6997  -22.2024  -15.9890 C   0  0  0  0  0  0  0  0  0  0  0  0
   23.1959  -22.7930  -17.2806 C   0  0  2  0  0  0  0  0  0  0  0  0
   22.4222  -24.0028  -16.9457 N   0  0  0  0  0  0  0  0  0  0  0  0
   24.3499  -23.1379  -18.1398 C   0  0  0  0  0  0  0  0  0  0  0  0
   24.8336  -24.2944  -18.1045 O   0  0  0  0  0  0  0  0  0  0  0  0
   22.4808  -20.1870  -15.2664 C   0  0  0  0  0  0  0  0  0  0  0  0
   21.5045  -19.6046  -14.4904 C   0  0  0  0  0  0  0  0  0  0  0  0
   24.9126  -22.1601  -19.0069 N   0  0  0  0  0  0  0  0  0  0  0  0
   25.9327  -22.4860  -19.9649 C   0  0  1  0  0  0  0  0  0  0  0  0
   25.6792  -21.9135  -21.3257 C   0  0  0  0  0  0  0  0  0  0  0  0
   24.5649  -22.5246  -22.0391 C   0  0  0  0  0  0  0  0  0  0  0  0
   24.3583  -23.8683  -22.2071 C   0  0  0  0  0  0  0  0  0  0  0  0
   23.2126  -24.0011  -22.9250 N   0  0  0  0  0  0  0  0  0  0  0  0
   22.7295  -22.7898  -23.1909 C   0  0  0  0  0  0  0  0  0  0  0  0
   23.5600  -21.8898  -22.6470 N   0  0  0  0  0  0  0  0  0  0  0  0
   27.2733  -22.1451  -19.4292 C   0  0  0  0  0  0  0  0  0  0  0  0
   27.4005  -21.0024  -18.8726 O   0  0  0  0  0  0  0  0  0  0  0  0
   31.1565  -26.1015  -16.2490 C   0  0  0  0  0  0  0  0  0  0  0  0
   32.3883  -24.8892  -16.8003 S   0  0  0  0  0  0  0  0  0  0  0  0
   31.6117  -23.4721  -17.5872 C   0  0  0  0  0  0  0  0  0  0  0  0
   30.3449  -23.7326  -18.3023 C   0  0  0  0  0  0  0  0  0  0  0  0
   29.6554  -22.5622  -18.8588 C   0  0  2  0  0  0  0  0  0  0  0  0
   28.3869  -22.9679  -19.4878 N   0  0  0  0  0  0  0  0  0  0  0  0
   30.4378  -21.7412  -19.7653 C   0  0  0  0  0  0  0  0  0  0  0  0
   30.5369  -21.8528  -20.9954 O   0  0  0  0  0  0  0  0  0  0  0  0
   31.1794  -20.6872  -19.1989 O   0  0  0  0  0  0  0  0  0  0  0  0
  2  1  1  0
  3  2  2  0
  4  3  1  0
  5  4  2  0
  5 11  1  0
  6  5  1  0
  7  6  1  0
  7  8  1  1
  9 10  2  0
  9  7  1  0
 11 12  2  0
 12  2  1  0
 13  9  1  0
 14 15  1  6
 14 13  1  0
 15 16  1  0
 16 20  1  0
 16 17  2  0
 17 18  1  0
 19 18  1  0
 20 19  2  0
 21 14  1  0
 22 21  2  0
 24 23  1  0
 24 25  1  0
 26 25  1  0
 27 26  1  6
 27 28  1  0
 28 21  1  0
 29 31  1  0
 29 27  1  0
 30 29  2  0
M  END
$$$$
