YHM.pdb
     RDKit          3D

 31 32  0  0  1  0  0  0  0  0999 V2000
   35.9362  -12.9226   -6.4564 O   0  0  0  0  0  0  0  0  0  0  0  0
   35.1294  -14.0442   -6.3535 C   0  0  0  0  0  0  0  0  0  0  0  0
   35.4081  -15.1110   -5.5321 C   0  0  0  0  0  0  0  0  0  0  0  0
   34.5825  -16.1953   -5.4640 C   0  0  0  0  0  0  0  0  0  0  0  0
   33.4403  -16.2021   -6.2499 C   0  0  0  0  0  0  0  0  0  0  0  0
   32.5720  -17.3862   -6.1703 C   0  0  0  0  0  0  0  0  0  0  0  0
   31.4070  -17.2311   -5.2271 C   0  0  2  0  0  0  0  0  0  0  0  0
   31.9518  -17.1035   -3.8628 N   0  0  0  0  0  0  0  0  0  0  0  0
   30.5379  -18.4241   -5.3280 C   0  0  0  0  0  0  0  0  0  0  0  0
   30.9697  -19.5457   -4.9696 O   0  0  0  0  0  0  0  0  0  0  0  0
   33.1291  -15.1643   -7.0770 C   0  0  0  0  0  0  0  0  0  0  0  0
   33.9776  -14.0818   -7.1281 C   0  0  0  0  0  0  0  0  0  0  0  0
   29.2124  -18.3021   -5.8307 N   0  0  0  0  0  0  0  0  0  0  0  0
   28.3536  -19.4412   -6.0031 C   0  0  1  0  0  0  0  0  0  0  0  0
   27.4444  -19.6858   -4.8381 C   0  0  0  0  0  0  0  0  0  0  0  0
   28.0793  -19.5330   -3.5352 C   0  0  0  0  0  0  0  0  0  0  0  0
   29.3989  -19.2393   -3.3136 C   0  0  0  0  0  0  0  0  0  0  0  0
   29.5673  -19.1881   -1.9665 N   0  0  0  0  0  0  0  0  0  0  0  0
   28.4004  -19.4397   -1.3778 C   0  0  0  0  0  0  0  0  0  0  0  0
   27.4932  -19.6500   -2.3414 N   0  0  0  0  0  0  0  0  0  0  0  0
   27.6333  -19.3547   -7.2970 C   0  0  0  0  0  0  0  0  0  0  0  0
   27.2894  -18.1893   -7.6910 O   0  0  0  0  0  0  0  0  0  0  0  0
   27.2524  -20.7675  -14.8182 C   0  0  0  0  0  0  0  0  0  0  0  0
   27.9900  -21.1321  -13.2014 S   0  0  0  0  0  0  0  0  0  0  0  0
   26.9244  -20.5987  -11.8558 C   0  0  0  0  0  0  0  0  0  0  0  0
   27.4855  -20.7086  -10.4930 C   0  0  0  0  0  0  0  0  0  0  0  0
   26.6343  -20.2343   -9.3951 C   0  0  2  0  0  0  0  0  0  0  0  0
   27.3094  -20.4355   -8.1017 N   0  0  0  0  0  0  0  0  0  0  0  0
   25.2881  -20.7772   -9.3609 C   0  0  0  0  0  0  0  0  0  0  0  0
   24.8415  -21.6498   -8.6029 O   0  0  0  0  0  0  0  0  0  0  0  0
   24.3651  -20.2641  -10.2917 O   0  0  0  0  0  0  0  0  0  0  0  0
  2  1  1  0
  3  2  2  0
  4  3  1  0
  5  4  2  0
  5 11  1  0
  6  5  1  0
  7  6  1  0
  7  8  1  1
  9 10  2  0
  9  7  1  0
 11 12  2  0
 12  2  1  0
 13  9  1  0
 14 15  1  1
 14 13  1  0
 15 16  1  0
 16 20  1  0
 16 17  2  0
 17 18  1  0
 19 18  1  0
 20 19  2  0
 21 14  1  0
 22 21  2  0
 24 23  1  0
 24 25  1  0
 26 25  1  0
 27 26  1  6
 27 28  1  0
 28 21  1  0
 29 31  1  0
 29 27  1  0
 30 29  2  0
M  END
$$$$
