YHM.pdb
     RDKit          3D

 31 32  0  0  1  0  0  0  0  0999 V2000
   32.8105  -25.0539  -17.8524 O   0  0  0  0  0  0  0  0  0  0  0  0
   31.8647  -24.2158  -17.2846 C   0  0  0  0  0  0  0  0  0  0  0  0
   31.2698  -24.4516  -16.0676 C   0  0  0  0  0  0  0  0  0  0  0  0
   30.3422  -23.5963  -15.5480 C   0  0  0  0  0  0  0  0  0  0  0  0
   30.0053  -22.4682  -16.2803 C   0  0  0  0  0  0  0  0  0  0  0  0
   28.9941  -21.5674  -15.7071 C   0  0  0  0  0  0  0  0  0  0  0  0
   27.5727  -21.9838  -15.9846 C   0  0  2  0  0  0  0  0  0  0  0  0
   27.3360  -21.8251  -17.4314 N   0  0  0  0  0  0  0  0  0  0  0  0
   26.6536  -21.1197  -15.2118 C   0  0  0  0  0  0  0  0  0  0  0  0
   25.9785  -20.2406  -15.7984 O   0  0  0  0  0  0  0  0  0  0  0  0
   30.5722  -22.1993  -17.4903 C   0  0  0  0  0  0  0  0  0  0  0  0
   31.5053  -23.0771  -17.9933 C   0  0  0  0  0  0  0  0  0  0  0  0
   26.5332  -21.2838  -13.8035 N   0  0  0  0  0  0  0  0  0  0  0  0
   25.4673  -20.6796  -13.0529 C   0  0  1  0  0  0  0  0  0  0  0  0
   24.1125  -20.9067  -13.6503 C   0  0  0  0  0  0  0  0  0  0  0  0
   23.0141  -20.3168  -12.8957 C   0  0  0  0  0  0  0  0  0  0  0  0
   22.6568  -20.6378  -11.6128 C   0  0  0  0  0  0  0  0  0  0  0  0
   21.5904  -19.8576  -11.2970 N   0  0  0  0  0  0  0  0  0  0  0  0
   21.2990  -19.0853  -12.3411 C   0  0  0  0  0  0  0  0  0  0  0  0
   22.1726  -19.3697  -13.3165 N   0  0  0  0  0  0  0  0  0  0  0  0
   25.5496  -21.0768  -11.6260 C   0  0  0  0  0  0  0  0  0  0  0  0
   25.4544  -22.3238  -11.3662 O   0  0  0  0  0  0  0  0  0  0  0  0
   27.9598  -19.5922   -4.2517 C   0  0  0  0  0  0  0  0  0  0  0  0
   27.8210  -19.0268   -5.9698 S   0  0  0  0  0  0  0  0  0  0  0  0
   26.8070  -20.1410   -6.9502 C   0  0  0  0  0  0  0  0  0  0  0  0
   26.7092  -19.8387   -8.3934 C   0  0  0  0  0  0  0  0  0  0  0  0
   25.8283  -20.7060   -9.1850 C   0  0  2  0  0  0  0  0  0  0  0  0
   25.7207  -20.2021  -10.5647 N   0  0  0  0  0  0  0  0  0  0  0  0
   24.5115  -20.9486   -8.6235 C   0  0  0  0  0  0  0  0  0  0  0  0
   23.4498  -20.3749   -8.9047 O   0  0  0  0  0  0  0  0  0  0  0  0
   24.4073  -21.9514   -7.6410 O   0  0  0  0  0  0  0  0  0  0  0  0
  2  1  1  0
  3  2  2  0
  4  3  1  0
  5  4  2  0
  5 11  1  0
  6  5  1  0
  7  6  1  0
  7  8  1  6
  9 10  2  0
  9  7  1  0
 11 12  2  0
 12  2  1  0
 13  9  1  0
 14 15  1  6
 14 13  1  0
 15 16  1  0
 16 20  1  0
 16 17  2  0
 17 18  1  0
 19 18  1  0
 20 19  2  0
 21 14  1  0
 22 21  2  0
 24 23  1  0
 24 25  1  0
 26 25  1  0
 27 26  1  1
 27 28  1  0
 28 21  1  0
 29 31  1  0
 29 27  1  0
 30 29  2  0
M  END
$$$$
