YHM.pdb
     RDKit          3D

 31 32  0  0  1  0  0  0  0  0999 V2000
   18.9074  -18.2446  -16.1785 O   0  0  0  0  0  0  0  0  0  0  0  0
   19.0264  -16.8903  -16.4453 C   0  0  0  0  0  0  0  0  0  0  0  0
   19.6664  -16.3847  -17.5522 C   0  0  0  0  0  0  0  0  0  0  0  0
   19.7585  -15.0414  -17.7730 C   0  0  0  0  0  0  0  0  0  0  0  0
   19.1865  -14.1824  -16.8472 C   0  0  0  0  0  0  0  0  0  0  0  0
   19.3090  -12.7387  -17.0987 C   0  0  0  0  0  0  0  0  0  0  0  0
   18.0245  -12.0793  -17.5301 C   0  0  2  0  0  0  0  0  0  0  0  0
   17.6164  -12.6915  -18.8081 N   0  0  0  0  0  0  0  0  0  0  0  0
   18.2571  -10.6284  -17.7022 C   0  0  0  0  0  0  0  0  0  0  0  0
   17.9930  -10.0772  -18.7972 O   0  0  0  0  0  0  0  0  0  0  0  0
   18.5437  -14.6441  -15.7375 C   0  0  0  0  0  0  0  0  0  0  0  0
   18.4640  -16.0034  -15.5368 C   0  0  0  0  0  0  0  0  0  0  0  0
   18.7797   -9.8562  -16.6274 N   0  0  0  0  0  0  0  0  0  0  0  0
   18.9564   -8.4336  -16.7250 C   0  0  1  0  0  0  0  0  0  0  0  0
   17.6939   -7.6955  -17.0493 C   0  0  0  0  0  0  0  0  0  0  0  0
   17.8595   -6.2558  -17.2031 C   0  0  0  0  0  0  0  0  0  0  0  0
   17.9421   -5.3430  -16.1849 C   0  0  0  0  0  0  0  0  0  0  0  0
   18.0925   -4.1235  -16.7643 N   0  0  0  0  0  0  0  0  0  0  0  0
   18.1025   -4.2743  -18.0866 C   0  0  0  0  0  0  0  0  0  0  0  0
   17.9598   -5.5804  -18.3502 N   0  0  0  0  0  0  0  0  0  0  0  0
   19.6422   -7.9134  -15.5168 C   0  0  0  0  0  0  0  0  0  0  0  0
   19.5529   -8.6156  -14.4535 O   0  0  0  0  0  0  0  0  0  0  0  0
   24.8096  -10.6293  -13.7137 C   0  0  0  0  0  0  0  0  0  0  0  0
   24.7880   -9.4151  -15.0614 S   0  0  0  0  0  0  0  0  0  0  0  0
   23.8386   -7.9549  -14.6174 C   0  0  0  0  0  0  0  0  0  0  0  0
   22.5099   -7.8201  -15.2503 C   0  0  0  0  0  0  0  0  0  0  0  0
   21.6847   -6.6910  -14.8044 C   0  0  2  0  0  0  0  0  0  0  0  0
   20.3656   -6.7328  -15.4581 N   0  0  0  0  0  0  0  0  0  0  0  0
   22.2852   -5.3765  -14.9449 C   0  0  0  0  0  0  0  0  0  0  0  0
   22.0576   -4.5284  -15.8191 O   0  0  0  0  0  0  0  0  0  0  0  0
   23.2424   -5.0020  -13.9831 O   0  0  0  0  0  0  0  0  0  0  0  0
  2  1  1  0
  3  2  2  0
  4  3  1  0
  5  4  2  0
  5 11  1  0
  6  5  1  0
  7  6  1  0
  7  8  1  6
  9 10  2  0
  9  7  1  0
 11 12  2  0
 12  2  1  0
 13  9  1  0
 14 15  1  1
 14 13  1  0
 15 16  1  0
 16 20  1  0
 16 17  2  0
 17 18  1  0
 19 18  1  0
 20 19  2  0
 21 14  1  0
 22 21  2  0
 24 23  1  0
 24 25  1  0
 26 25  1  0
 27 26  1  6
 27 28  1  0
 28 21  1  0
 29 31  1  0
 29 27  1  0
 30 29  2  0
M  END
$$$$
