YHM.pdb
     RDKit          3D

 31 32  0  0  1  0  0  0  0  0999 V2000
   13.8176   -8.9498  -21.5510 O   0  0  0  0  0  0  0  0  0  0  0  0
   14.1269  -10.2345  -21.1347 C   0  0  0  0  0  0  0  0  0  0  0  0
   15.2869  -10.5633  -20.4739 C   0  0  0  0  0  0  0  0  0  0  0  0
   15.5481  -11.8441  -20.0828 C   0  0  0  0  0  0  0  0  0  0  0  0
   14.6085  -12.8230  -20.3680 C   0  0  0  0  0  0  0  0  0  0  0  0
   14.9167  -14.1984  -19.9488 C   0  0  0  0  0  0  0  0  0  0  0  0
   16.2870  -14.3636  -19.3441 C   0  0  2  0  0  0  0  0  0  0  0  0
   17.2002  -14.7921  -20.4197 N   0  0  0  0  0  0  0  0  0  0  0  0
   16.2272  -15.3871  -18.2774 C   0  0  0  0  0  0  0  0  0  0  0  0
   16.2852  -16.6044  -18.5734 O   0  0  0  0  0  0  0  0  0  0  0  0
   13.4467  -12.5375  -21.0212 C   0  0  0  0  0  0  0  0  0  0  0  0
   13.2061  -11.2379  -21.4055 C   0  0  0  0  0  0  0  0  0  0  0  0
   16.1042  -14.9935  -16.9156 N   0  0  0  0  0  0  0  0  0  0  0  0
   16.1758  -15.9410  -15.8378 C   0  0  1  0  0  0  0  0  0  0  0  0
   17.1690  -15.5687  -14.7800 C   0  0  0  0  0  0  0  0  0  0  0  0
   18.5572  -15.8334  -15.1363 C   0  0  0  0  0  0  0  0  0  0  0  0
   18.9917  -16.4195  -16.2957 C   0  0  0  0  0  0  0  0  0  0  0  0
   20.3471  -16.4743  -16.2222 N   0  0  0  0  0  0  0  0  0  0  0  0
   20.7363  -15.9441  -15.0651 C   0  0  0  0  0  0  0  0  0  0  0  0
   19.6379  -15.5534  -14.4043 N   0  0  0  0  0  0  0  0  0  0  0  0
   14.8215  -16.2123  -15.2966 C   0  0  0  0  0  0  0  0  0  0  0  0
   14.2061  -15.2306  -14.7589 O   0  0  0  0  0  0  0  0  0  0  0  0
   12.0918  -22.9244  -13.8709 C   0  0  0  0  0  0  0  0  0  0  0  0
   11.6433  -21.5519  -14.9690 S   0  0  0  0  0  0  0  0  0  0  0  0
   12.4022  -20.0105  -14.4408 C   0  0  0  0  0  0  0  0  0  0  0  0
   12.2229  -18.8507  -15.3389 C   0  0  0  0  0  0  0  0  0  0  0  0
   12.7861  -17.5751  -14.8801 C   0  0  2  0  0  0  0  0  0  0  0  0
   14.1816  -17.4411  -15.3316 N   0  0  0  0  0  0  0  0  0  0  0  0
   12.6809  -17.3151  -13.4555 C   0  0  0  0  0  0  0  0  0  0  0  0
   11.6701  -16.9897  -12.8168 O   0  0  0  0  0  0  0  0  0  0  0  0
   13.8560  -17.4427  -12.6911 O   0  0  0  0  0  0  0  0  0  0  0  0
  2  1  1  0
  3  2  2  0
  4  3  1  0
  5  4  2  0
  5 11  1  0
  6  5  1  0
  7  6  1  0
  7  8  1  6
  9 10  2  0
  9  7  1  0
 11 12  2  0
 12  2  1  0
 13  9  1  0
 14 15  1  1
 14 13  1  0
 15 16  1  0
 16 20  1  0
 16 17  2  0
 17 18  1  0
 19 18  1  0
 20 19  2  0
 21 14  1  0
 22 21  2  0
 24 23  1  0
 24 25  1  0
 26 25  1  0
 27 26  1  1
 27 28  1  0
 28 21  1  0
 29 31  1  0
 29 27  1  0
 30 29  2  0
M  END
$$$$
