YHM.pdb
     RDKit          3D

 31 32  0  0  1  0  0  0  0  0999 V2000
   21.0037  -20.0891  -19.3157 O   0  0  0  0  0  0  0  0  0  0  0  0
   20.7942  -21.4235  -19.0076 C   0  0  0  0  0  0  0  0  0  0  0  0
   20.2970  -21.8586  -17.8017 C   0  0  0  0  0  0  0  0  0  0  0  0
   20.1073  -23.1849  -17.5437 C   0  0  0  0  0  0  0  0  0  0  0  0
   20.4297  -24.0999  -18.5341 C   0  0  0  0  0  0  0  0  0  0  0  0
   20.2294  -25.5245  -18.2295 C   0  0  0  0  0  0  0  0  0  0  0  0
   21.3257  -26.1340  -17.3942 C   0  0  2  0  0  0  0  0  0  0  0  0
   22.5130  -26.2817  -18.2561 N   0  0  0  0  0  0  0  0  0  0  0  0
   20.8801  -27.4538  -16.8960 C   0  0  0  0  0  0  0  0  0  0  0  0
   21.1421  -28.4913  -17.5500 O   0  0  0  0  0  0  0  0  0  0  0  0
   20.9250  -23.7088  -19.7423 C   0  0  0  0  0  0  0  0  0  0  0  0
   21.1075  -22.3652  -19.9788 C   0  0  0  0  0  0  0  0  0  0  0  0
   20.1549  -27.5493  -15.6755 N   0  0  0  0  0  0  0  0  0  0  0  0
   19.6619  -28.8033  -15.1766 C   0  0  1  0  0  0  0  0  0  0  0  0
   20.4197  -29.3136  -13.9895 C   0  0  0  0  0  0  0  0  0  0  0  0
   21.2212  -30.5023  -14.2511 C   0  0  0  0  0  0  0  0  0  0  0  0
   21.1816  -31.2639  -15.3892 C   0  0  0  0  0  0  0  0  0  0  0  0
   22.0819  -32.2671  -15.2199 N   0  0  0  0  0  0  0  0  0  0  0  0
   22.6554  -32.1328  -14.0264 C   0  0  0  0  0  0  0  0  0  0  0  0
   22.1258  -31.0518  -13.4375 N   0  0  0  0  0  0  0  0  0  0  0  0
   18.1983  -28.7290  -14.9464 C   0  0  0  0  0  0  0  0  0  0  0  0
   17.7678  -27.7291  -14.2782 O   0  0  0  0  0  0  0  0  0  0  0  0
   13.4944  -30.5344  -11.2629 C   0  0  0  0  0  0  0  0  0  0  0  0
   14.9709  -31.4732  -11.7416 S   0  0  0  0  0  0  0  0  0  0  0  0
   15.4500  -31.1272  -13.4391 C   0  0  0  0  0  0  0  0  0  0  0  0
   15.4222  -29.7083  -13.8513 C   0  0  0  0  0  0  0  0  0  0  0  0
   15.8289  -29.4203  -15.2320 C   0  0  2  0  0  0  0  0  0  0  0  0
   17.2731  -29.6562  -15.3990 N   0  0  0  0  0  0  0  0  0  0  0  0
   15.4616  -28.1096  -15.7374 C   0  0  0  0  0  0  0  0  0  0  0  0
   14.5446  -27.8292  -16.5223 O   0  0  0  0  0  0  0  0  0  0  0  0
   16.2260  -27.0135  -15.2947 O   0  0  0  0  0  0  0  0  0  0  0  0
  2  1  1  0
  3  2  2  0
  4  3  1  0
  5  4  2  0
  5 11  1  0
  6  5  1  0
  7  6  1  0
  7  8  1  6
  9 10  2  0
  9  7  1  0
 11 12  2  0
 12  2  1  0
 13  9  1  0
 14 15  1  1
 14 13  1  0
 15 16  1  0
 16 20  1  0
 16 17  2  0
 17 18  1  0
 19 18  1  0
 20 19  2  0
 21 14  1  0
 22 21  2  0
 24 23  1  0
 24 25  1  0
 26 25  1  0
 27 26  1  1
 27 28  1  0
 28 21  1  0
 29 31  1  0
 29 27  1  0
 30 29  2  0
M  END
$$$$
