YHM.pdb
     RDKit          3D

 31 32  0  0  1  0  0  0  0  0999 V2000
   30.3256  -13.2652  -16.8955 O   0  0  0  0  0  0  0  0  0  0  0  0
   29.1978  -12.4755  -16.7416 C   0  0  0  0  0  0  0  0  0  0  0  0
   29.0181  -11.2705  -17.3789 C   0  0  0  0  0  0  0  0  0  0  0  0
   27.8888  -10.5269  -17.1961 C   0  0  0  0  0  0  0  0  0  0  0  0
   26.9109  -11.0155  -16.3433 C   0  0  0  0  0  0  0  0  0  0  0  0
   25.7081  -10.1915  -16.1512 C   0  0  0  0  0  0  0  0  0  0  0  0
   24.4229  -10.8848  -16.5232 C   0  0  2  0  0  0  0  0  0  0  0  0
   24.5624  -11.3687  -17.9092 N   0  0  0  0  0  0  0  0  0  0  0  0
   23.3043   -9.9219  -16.4212 C   0  0  0  0  0  0  0  0  0  0  0  0
   22.9433   -9.2719  -17.4311 O   0  0  0  0  0  0  0  0  0  0  0  0
   27.0514  -12.2052  -15.6931 C   0  0  0  0  0  0  0  0  0  0  0  0
   28.1997  -12.9371  -15.8938 C   0  0  0  0  0  0  0  0  0  0  0  0
   22.6363   -9.7317  -15.1794 N   0  0  0  0  0  0  0  0  0  0  0  0
   21.5050   -8.8556  -15.0475 C   0  0  1  0  0  0  0  0  0  0  0  0
   20.4575   -9.3697  -14.1082 C   0  0  0  0  0  0  0  0  0  0  0  0
   19.6486  -10.4572  -14.6436 C   0  0  0  0  0  0  0  0  0  0  0  0
   19.7194  -10.9605  -15.9158 C   0  0  0  0  0  0  0  0  0  0  0  0
   18.7998  -11.9575  -15.9937 N   0  0  0  0  0  0  0  0  0  0  0  0
   18.1847  -12.0673  -14.8185 C   0  0  0  0  0  0  0  0  0  0  0  0
   18.7073  -11.1475  -13.9959 N   0  0  0  0  0  0  0  0  0  0  0  0
   21.9522   -7.4784  -14.7254 C   0  0  0  0  0  0  0  0  0  0  0  0
   22.8460   -7.3569  -13.8210 O   0  0  0  0  0  0  0  0  0  0  0  0
   23.4020   -0.1023  -17.0121 C   0  0  0  0  0  0  0  0  0  0  0  0
   22.6462   -1.7072  -17.3916 S   0  0  0  0  0  0  0  0  0  0  0  0
   22.5940   -2.7700  -15.9430 C   0  0  0  0  0  0  0  0  0  0  0  0
   22.0833   -4.1405  -16.1542 C   0  0  0  0  0  0  0  0  0  0  0  0
   22.0266   -5.0069  -14.9706 C   0  0  2  0  0  0  0  0  0  0  0  0
   21.4756   -6.3251  -15.3283 N   0  0  0  0  0  0  0  0  0  0  0  0
   21.3340   -4.4570  -13.8190 C   0  0  0  0  0  0  0  0  0  0  0  0
   21.7140   -3.5465  -13.0692 O   0  0  0  0  0  0  0  0  0  0  0  0
   20.0797   -5.0104  -13.4996 O   0  0  0  0  0  0  0  0  0  0  0  0
  2  1  1  0
  3  2  2  0
  4  3  1  0
  5  4  2  0
  5 11  1  0
  6  5  1  0
  7  6  1  0
  7  8  1  6
  9 10  2  0
  9  7  1  0
 11 12  2  0
 12  2  1  0
 13  9  1  0
 14 15  1  1
 14 13  1  0
 15 16  1  0
 16 20  1  0
 16 17  2  0
 17 18  1  0
 19 18  1  0
 20 19  2  0
 21 14  1  0
 22 21  2  0
 24 23  1  0
 24 25  1  0
 26 25  1  0
 27 26  1  6
 27 28  1  0
 28 21  1  0
 29 31  1  0
 29 27  1  0
 30 29  2  0
M  END
$$$$
