YHM.pdb
     RDKit          3D

 31 32  0  0  1  0  0  0  0  0999 V2000
   18.5432  -22.7935  -23.2602 O   0  0  0  0  0  0  0  0  0  0  0  0
   18.6146  -22.8918  -21.8800 C   0  0  0  0  0  0  0  0  0  0  0  0
   18.7532  -24.0825  -21.2067 C   0  0  0  0  0  0  0  0  0  0  0  0
   18.8193  -24.1297  -19.8447 C   0  0  0  0  0  0  0  0  0  0  0  0
   18.7432  -22.9375  -19.1411 C   0  0  0  0  0  0  0  0  0  0  0  0
   18.8035  -23.0133  -17.6738 C   0  0  0  0  0  0  0  0  0  0  0  0
   20.1062  -22.5338  -17.0872 C   0  0  2  0  0  0  0  0  0  0  0  0
   21.1534  -23.4936  -17.4831 N   0  0  0  0  0  0  0  0  0  0  0  0
   19.9845  -22.4789  -15.6138 C   0  0  0  0  0  0  0  0  0  0  0  0
   20.6286  -23.2855  -14.9016 O   0  0  0  0  0  0  0  0  0  0  0  0
   18.6055  -21.7368  -19.7717 C   0  0  0  0  0  0  0  0  0  0  0  0
   18.5411  -21.7152  -21.1463 C   0  0  0  0  0  0  0  0  0  0  0  0
   19.1382  -21.5123  -15.0023 N   0  0  0  0  0  0  0  0  0  0  0  0
   19.0063  -21.4069  -13.5753 C   0  0  1  0  0  0  0  0  0  0  0  0
   19.6606  -20.1868  -13.0034 C   0  0  0  0  0  0  0  0  0  0  0  0
   21.0591  -20.0205  -13.3784 C   0  0  0  0  0  0  0  0  0  0  0  0
   21.5464  -19.1141  -14.2826 C   0  0  0  0  0  0  0  0  0  0  0  0
   22.8919  -19.2950  -14.3312 N   0  0  0  0  0  0  0  0  0  0  0  0
   23.2245  -20.2730  -13.4920 C   0  0  0  0  0  0  0  0  0  0  0  0
   22.1001  -20.7136  -12.9114 N   0  0  0  0  0  0  0  0  0  0  0  0
   17.5849  -21.5482  -13.1754 C   0  0  0  0  0  0  0  0  0  0  0  0
   16.7049  -21.2105  -14.0376 O   0  0  0  0  0  0  0  0  0  0  0  0
   11.1476  -21.3823  -12.6952 C   0  0  0  0  0  0  0  0  0  0  0  0
   12.4721  -22.2048  -13.6226 S   0  0  0  0  0  0  0  0  0  0  0  0
   13.5783  -23.1076  -12.5308 C   0  0  0  0  0  0  0  0  0  0  0  0
   15.0242  -22.8668  -12.7184 C   0  0  0  0  0  0  0  0  0  0  0  0
   15.7069  -22.1225  -11.6532 C   0  0  2  0  0  0  0  0  0  0  0  0
   17.1462  -22.0153  -11.9465 N   0  0  0  0  0  0  0  0  0  0  0  0
   15.4938  -22.6143  -10.3038 C   0  0  0  0  0  0  0  0  0  0  0  0
   14.4144  -22.8693   -9.7513 O   0  0  0  0  0  0  0  0  0  0  0  0
   16.6372  -22.8344   -9.5127 O   0  0  0  0  0  0  0  0  0  0  0  0
  2  1  1  0
  3  2  2  0
  4  3  1  0
  5  4  2  0
  5 11  1  0
  6  5  1  0
  7  6  1  0
  7  8  1  1
  9 10  2  0
  9  7  1  0
 11 12  2  0
 12  2  1  0
 13  9  1  0
 14 15  1  6
 14 13  1  0
 15 16  1  0
 16 20  1  0
 16 17  2  0
 17 18  1  0
 19 18  1  0
 20 19  2  0
 21 14  1  0
 22 21  2  0
 24 23  1  0
 24 25  1  0
 26 25  1  0
 27 26  1  6
 27 28  1  0
 28 21  1  0
 29 31  1  0
 29 27  1  0
 30 29  2  0
M  END
$$$$
