YHM.pdb
     RDKit          3D

 31 32  0  0  1  0  0  0  0  0999 V2000
   17.1821  -19.3341  -16.1444 O   0  0  0  0  0  0  0  0  0  0  0  0
   18.3959  -19.8818  -15.7619 C   0  0  0  0  0  0  0  0  0  0  0  0
   18.7262  -21.2043  -15.9421 C   0  0  0  0  0  0  0  0  0  0  0  0
   19.9355  -21.6988  -15.5488 C   0  0  0  0  0  0  0  0  0  0  0  0
   20.8391  -20.8307  -14.9553 C   0  0  0  0  0  0  0  0  0  0  0  0
   22.1310  -21.3880  -14.5276 C   0  0  0  0  0  0  0  0  0  0  0  0
   23.2865  -21.0142  -15.4197 C   0  0  2  0  0  0  0  0  0  0  0  0
   23.2043  -21.8520  -16.6304 N   0  0  0  0  0  0  0  0  0  0  0  0
   24.5555  -21.2651  -14.7017 C   0  0  0  0  0  0  0  0  0  0  0  0
   25.1534  -22.3575  -14.8494 O   0  0  0  0  0  0  0  0  0  0  0  0
   20.5494  -19.5133  -14.7590 C   0  0  0  0  0  0  0  0  0  0  0  0
   19.3229  -19.0382  -15.1642 C   0  0  0  0  0  0  0  0  0  0  0  0
   25.1000  -20.2691  -13.8437 N   0  0  0  0  0  0  0  0  0  0  0  0
   26.3063  -20.4845  -13.0934 C   0  0  1  0  0  0  0  0  0  0  0  0
   27.2418  -19.3147  -13.1174 C   0  0  0  0  0  0  0  0  0  0  0  0
   27.9126  -19.1051  -14.3940 C   0  0  0  0  0  0  0  0  0  0  0  0
   27.8451  -19.9335  -15.4830 C   0  0  0  0  0  0  0  0  0  0  0  0
   28.6110  -19.3683  -16.4524 N   0  0  0  0  0  0  0  0  0  0  0  0
   29.1315  -18.2367  -15.9834 C   0  0  0  0  0  0  0  0  0  0  0  0
   28.7014  -18.0798  -14.7240 N   0  0  0  0  0  0  0  0  0  0  0  0
   25.9862  -20.9473  -11.7208 C   0  0  0  0  0  0  0  0  0  0  0  0
   24.7496  -21.0249  -11.4102 O   0  0  0  0  0  0  0  0  0  0  0  0
   28.3143  -19.8176   -4.3526 C   0  0  0  0  0  0  0  0  0  0  0  0
   28.7393  -19.9000   -6.1143 S   0  0  0  0  0  0  0  0  0  0  0  0
   27.4211  -20.6545   -7.0754 C   0  0  0  0  0  0  0  0  0  0  0  0
   27.6855  -20.8399   -8.5175 C   0  0  0  0  0  0  0  0  0  0  0  0
   26.5619  -21.3177   -9.3323 C   0  0  2  0  0  0  0  0  0  0  0  0
   26.9216  -21.2980  -10.7604 N   0  0  0  0  0  0  0  0  0  0  0  0
   25.2935  -20.6456   -9.1137 C   0  0  0  0  0  0  0  0  0  0  0  0
   24.2787  -21.1005   -8.5671 O   0  0  0  0  0  0  0  0  0  0  0  0
   25.1834  -19.3184   -9.5696 O   0  0  0  0  0  0  0  0  0  0  0  0
  2  1  1  0
  3  2  2  0
  4  3  1  0
  5  4  2  0
  5 11  1  0
  6  5  1  0
  7  6  1  0
  7  8  1  6
  9 10  2  0
  9  7  1  0
 11 12  2  0
 12  2  1  0
 13  9  1  0
 14 15  1  1
 14 13  1  0
 15 16  1  0
 16 20  1  0
 16 17  2  0
 17 18  1  0
 19 18  1  0
 20 19  2  0
 21 14  1  0
 22 21  2  0
 24 23  1  0
 24 25  1  0
 26 25  1  0
 27 26  1  1
 27 28  1  0
 28 21  1  0
 29 31  1  0
 29 27  1  0
 30 29  2  0
M  END
$$$$
