YQH.pdb
     RDKit          3D

 32 33  0  0  1  0  0  0  0  0999 V2000
   21.8807  -19.0511  -14.7531 O   0  0  0  0  0  0  0  0  0  0  0  0
   21.6806  -17.7388  -15.2185 C   0  0  0  0  0  0  0  0  0  0  0  0
   22.0775  -17.3563  -16.4783 C   0  0  0  0  0  0  0  0  0  0  0  0
   21.8802  -16.0717  -16.9303 C   0  0  0  0  0  0  0  0  0  0  0  0
   21.2704  -15.1004  -16.1343 C   0  0  0  0  0  0  0  0  0  0  0  0
   21.0572  -13.7117  -16.6227 C   0  0  0  0  0  0  0  0  0  0  0  0
   19.6480  -13.6042  -17.1043 C   0  0  2  0  0  0  0  0  0  0  0  0
   19.5719  -14.3595  -18.3655 N   0  0  0  0  0  0  0  0  0  0  0  0
   19.2061  -12.2358  -17.3996 C   0  0  0  0  0  0  0  0  0  0  0  0
   19.3722  -11.8328  -18.6021 O   0  0  0  0  0  0  0  0  0  0  0  0
   20.8785  -15.5003  -14.8740 C   0  0  0  0  0  0  0  0  0  0  0  0
   21.0765  -16.7875  -14.4217 C   0  0  0  0  0  0  0  0  0  0  0  0
   14.2100   -9.4529  -15.4670 N   0  0  0  0  0  0  0  0  0  0  0  0
   14.7563   -8.3490  -16.1647 C   0  0  0  0  0  0  0  0  0  0  0  0
   14.1238   -7.3016  -16.3420 O   0  0  0  0  0  0  0  0  0  0  0  0
   16.1405   -8.4705  -16.6966 C   0  0  0  0  0  0  0  0  0  0  0  0
   16.7806   -9.7746  -16.4724 C   0  0  0  0  0  0  0  0  0  0  0  0
   18.1763   -9.9906  -16.9358 C   0  0  2  0  0  0  0  0  0  0  0  0
   18.6262  -11.3422  -16.4948 N   0  0  0  0  0  0  0  0  0  0  0  0
   19.1661   -8.9983  -16.4612 C   0  0  0  0  0  0  0  0  0  0  0  0
   19.7269   -9.1374  -15.3087 O   0  0  0  0  0  0  0  0  0  0  0  0
   19.6009   -7.8497  -17.1593 N   0  0  0  0  0  0  0  0  0  0  0  0
   20.5628   -6.9098  -16.5888 C   0  0  1  0  0  0  0  0  0  0  0  0
   20.9299   -5.8313  -17.5835 C   0  0  0  0  0  0  0  0  0  0  0  0
   21.8673   -4.8375  -17.0475 C   0  0  0  0  0  0  0  0  0  0  0  0
   23.0017   -5.0649  -16.2793 C   0  0  0  0  0  0  0  0  0  0  0  0
   23.5873   -3.8755  -15.9914 N   0  0  0  0  0  0  0  0  0  0  0  0
   22.8316   -2.9107  -16.5708 C   0  0  0  0  0  0  0  0  0  0  0  0
   21.8006   -3.5075  -17.2021 N   0  0  0  0  0  0  0  0  0  0  0  0
   19.9823   -6.3588  -15.3588 C   0  0  0  0  0  0  0  0  0  0  0  0
   18.8248   -5.8930  -15.3746 O   0  0  0  0  0  0  0  0  0  0  0  0
   20.6960   -6.3475  -14.1852 O   0  0  0  0  0  0  0  0  0  0  0  0
  2  1  1  0
  3  2  2  0
  4  3  1  0
  5  4  2  0
  5 11  1  0
  6  5  1  0
  7  9  1  0
  7  6  1  0
  7  8  1  6
  9 10  2  0
 11 12  2  0
 12  2  1  0
 14 13  1  0
 15 14  2  0
 16 14  1  0
 17 16  1  0
 18 17  1  1
 19 18  1  0
 19  9  1  0
 20 18  1  0
 21 20  2  0
 22 20  1  0
 23 30  1  0
 23 22  1  0
 24 25  1  0
 23 24  1  6
 25 29  1  0
 26 27  1  0
 26 25  2  0
 27 28  1  0
 28 29  2  0
 30 32  1  0
 31 30  2  0
M  END
$$$$
