YQH.pdb
     RDKit          3D

 32 33  0  0  1  0  0  0  0  0999 V2000
   27.8424  -18.3030  -14.5007 O   0  0  0  0  0  0  0  0  0  0  0  0
   27.0739  -17.3036  -15.1247 C   0  0  0  0  0  0  0  0  0  0  0  0
   26.5233  -17.4953  -16.3701 C   0  0  0  0  0  0  0  0  0  0  0  0
   25.7719  -16.5155  -16.9776 C   0  0  0  0  0  0  0  0  0  0  0  0
   25.5345  -15.2859  -16.3606 C   0  0  0  0  0  0  0  0  0  0  0  0
   24.7226  -14.2266  -17.0173 C   0  0  0  0  0  0  0  0  0  0  0  0
   23.3769  -14.2106  -16.3705 C   0  0  2  0  0  0  0  0  0  0  0  0
   22.7519  -15.5116  -16.6592 N   0  0  0  0  0  0  0  0  0  0  0  0
   22.4666  -13.1778  -16.8803 C   0  0  0  0  0  0  0  0  0  0  0  0
   21.7943  -13.4797  -17.9257 O   0  0  0  0  0  0  0  0  0  0  0  0
   26.0938  -15.1099  -15.1124 C   0  0  0  0  0  0  0  0  0  0  0  0
   26.8464  -16.0920  -14.5042 C   0  0  0  0  0  0  0  0  0  0  0  0
   17.2316  -12.2853  -16.6312 N   0  0  0  0  0  0  0  0  0  0  0  0
   18.0549  -12.6251  -15.5309 C   0  0  0  0  0  0  0  0  0  0  0  0
   17.6078  -13.1700  -14.5153 O   0  0  0  0  0  0  0  0  0  0  0  0
   19.5062  -12.3080  -15.6164 C   0  0  0  0  0  0  0  0  0  0  0  0
   19.9211  -11.6214  -16.8480 C   0  0  0  0  0  0  0  0  0  0  0  0
   21.2581  -10.9744  -16.9066 C   0  0  2  0  0  0  0  0  0  0  0  0
   22.2699  -11.9072  -16.3322 N   0  0  0  0  0  0  0  0  0  0  0  0
   21.3712   -9.6799  -16.1985 C   0  0  0  0  0  0  0  0  0  0  0  0
   21.6421   -9.6481  -14.9384 O   0  0  0  0  0  0  0  0  0  0  0  0
   21.2124   -8.3972  -16.7686 N   0  0  0  0  0  0  0  0  0  0  0  0
   21.3254   -7.1744  -15.9773 C   0  0  1  0  0  0  0  0  0  0  0  0
   21.1959   -5.9449  -16.8486 C   0  0  0  0  0  0  0  0  0  0  0  0
   21.3304   -4.6864  -16.1059 C   0  0  0  0  0  0  0  0  0  0  0  0
   22.1333   -4.4313  -15.0019 C   0  0  0  0  0  0  0  0  0  0  0  0
   21.9628   -3.1410  -14.6190 N   0  0  0  0  0  0  0  0  0  0  0  0
   21.0638   -2.5899  -15.4709 C   0  0  0  0  0  0  0  0  0  0  0  0
   20.6938   -3.5341  -16.3593 N   0  0  0  0  0  0  0  0  0  0  0  0
   20.3046   -7.2207  -14.9241 C   0  0  0  0  0  0  0  0  0  0  0  0
   19.1479   -7.6000  -15.1988 O   0  0  0  0  0  0  0  0  0  0  0  0
   20.6032   -6.8516  -13.6352 O   0  0  0  0  0  0  0  0  0  0  0  0
  2  1  1  0
  3  2  2  0
  4  3  1  0
  5  4  2  0
  5 11  1  0
  6  5  1  0
  7  9  1  0
  7  6  1  0
  7  8  1  6
  9 10  2  0
 11 12  2  0
 12  2  1  0
 14 13  1  0
 15 14  2  0
 16 14  1  0
 17 16  1  0
 18 17  1  1
 19 18  1  0
 19  9  1  0
 20 18  1  0
 21 20  2  0
 22 20  1  0
 23 30  1  0
 23 22  1  0
 24 25  1  0
 23 24  1  6
 25 29  1  0
 26 27  1  0
 26 25  2  0
 27 28  1  0
 28 29  2  0
 30 32  1  0
 31 30  2  0
M  END
$$$$
