YQH.pdb
     RDKit          3D

 32 33  0  0  1  0  0  0  0  0999 V2000
   28.2615  -16.7643  -16.5495 O   0  0  0  0  0  0  0  0  0  0  0  0
   27.3637  -15.6869  -16.6595 C   0  0  0  0  0  0  0  0  0  0  0  0
   27.2820  -14.9360  -17.8085 C   0  0  0  0  0  0  0  0  0  0  0  0
   26.4026  -13.8827  -17.9128 C   0  0  0  0  0  0  0  0  0  0  0  0
   25.5556  -13.5286  -16.8611 C   0  0  0  0  0  0  0  0  0  0  0  0
   24.6051  -12.3900  -16.9735 C   0  0  0  0  0  0  0  0  0  0  0  0
   23.2429  -12.9499  -17.2196 C   0  0  2  0  0  0  0  0  0  0  0  0
   23.2754  -13.5749  -18.5519 N   0  0  0  0  0  0  0  0  0  0  0  0
   22.1673  -11.9512  -17.2433 C   0  0  0  0  0  0  0  0  0  0  0  0
   22.0358  -11.2842  -18.3267 O   0  0  0  0  0  0  0  0  0  0  0  0
   25.6501  -14.2916  -15.7162 C   0  0  0  0  0  0  0  0  0  0  0  0
   26.5314  -15.3468  -15.6124 C   0  0  0  0  0  0  0  0  0  0  0  0
   16.6013  -12.2657  -14.7009 N   0  0  0  0  0  0  0  0  0  0  0  0
   17.0412  -12.8824  -15.8966 C   0  0  0  0  0  0  0  0  0  0  0  0
   16.4373  -13.8305  -16.4113 O   0  0  0  0  0  0  0  0  0  0  0  0
   18.2750  -12.3593  -16.5430 C   0  0  0  0  0  0  0  0  0  0  0  0
   18.9254  -11.2482  -15.8338 C   0  0  0  0  0  0  0  0  0  0  0  0
   20.1838  -10.6735  -16.3775 C   0  0  2  0  0  0  0  0  0  0  0  0
   21.2825  -11.6659  -16.1996 N   0  0  0  0  0  0  0  0  0  0  0  0
   20.6152   -9.3951  -15.7698 C   0  0  0  0  0  0  0  0  0  0  0  0
   21.2556   -9.3890  -14.6509 O   0  0  0  0  0  0  0  0  0  0  0  0
   20.4017   -8.1027  -16.2986 N   0  0  0  0  0  0  0  0  0  0  0  0
   20.8351   -6.8947  -15.6006 C   0  0  1  0  0  0  0  0  0  0  0  0
   21.2692   -5.8244  -16.5771 C   0  0  0  0  0  0  0  0  0  0  0  0
   21.6441   -4.5616  -15.9303 C   0  0  0  0  0  0  0  0  0  0  0  0
   22.1540   -4.3787  -14.6516 C   0  0  0  0  0  0  0  0  0  0  0  0
   22.3655   -3.0548  -14.4443 N   0  0  0  0  0  0  0  0  0  0  0  0
   21.9937   -2.4114  -15.5781 C   0  0  0  0  0  0  0  0  0  0  0  0
   21.5620   -3.3336  -16.4618 N   0  0  0  0  0  0  0  0  0  0  0  0
   19.7334   -6.4494  -14.7396 C   0  0  0  0  0  0  0  0  0  0  0  0
   18.5528   -6.6432  -15.0942 O   0  0  0  0  0  0  0  0  0  0  0  0
   19.9820   -5.8199  -13.5444 O   0  0  0  0  0  0  0  0  0  0  0  0
  2  1  1  0
  3  2  2  0
  4  3  1  0
  5  4  2  0
  5 11  1  0
  6  5  1  0
  7  9  1  0
  7  6  1  0
  7  8  1  6
  9 10  2  0
 11 12  2  0
 12  2  1  0
 14 13  1  0
 15 14  2  0
 16 14  1  0
 17 16  1  0
 18 17  1  1
 19 18  1  0
 19  9  1  0
 20 18  1  0
 21 20  2  0
 22 20  1  0
 23 30  1  0
 23 22  1  0
 24 25  1  0
 23 24  1  6
 25 29  1  0
 26 27  1  0
 26 25  2  0
 27 28  1  0
 28 29  2  0
 30 32  1  0
 31 30  2  0
M  END
$$$$
