YQH.pdb
     RDKit          3D

 32 33  0  0  1  0  0  0  0  0999 V2000
   14.3511  -24.2087  -17.7383 O   0  0  0  0  0  0  0  0  0  0  0  0
   15.2845  -23.1567  -17.7072 C   0  0  0  0  0  0  0  0  0  0  0  0
   16.1717  -22.9544  -18.7381 C   0  0  0  0  0  0  0  0  0  0  0  0
   17.0834  -21.9243  -18.7043 C   0  0  0  0  0  0  0  0  0  0  0  0
   17.1501  -21.0398  -17.6262 C   0  0  0  0  0  0  0  0  0  0  0  0
   18.1356  -19.9264  -17.5895 C   0  0  0  0  0  0  0  0  0  0  0  0
   19.4615  -20.4973  -17.2082 C   0  0  2  0  0  0  0  0  0  0  0  0
   19.3901  -20.8136  -15.7724 N   0  0  0  0  0  0  0  0  0  0  0  0
   20.5950  -19.5818  -17.3873 C   0  0  0  0  0  0  0  0  0  0  0  0
   20.8341  -18.7788  -16.4209 O   0  0  0  0  0  0  0  0  0  0  0  0
   16.2535  -21.2566  -16.6010 C   0  0  0  0  0  0  0  0  0  0  0  0
   15.3403  -22.2889  -16.6354 C   0  0  0  0  0  0  0  0  0  0  0  0
   26.2131  -20.1728  -19.0127 N   0  0  0  0  0  0  0  0  0  0  0  0
   26.1678  -18.8085  -19.3875 C   0  0  0  0  0  0  0  0  0  0  0  0
   27.1913  -18.1447  -19.5882 O   0  0  0  0  0  0  0  0  0  0  0  0
   24.8341  -18.1668  -19.5404 C   0  0  0  0  0  0  0  0  0  0  0  0
   23.6877  -19.0361  -19.2393 C   0  0  0  0  0  0  0  0  0  0  0  0
   22.4723  -18.4496  -18.6161 C   0  0  2  0  0  0  0  0  0  0  0  0
   21.4284  -19.5088  -18.5070 N   0  0  0  0  0  0  0  0  0  0  0  0
   21.8838  -17.2951  -19.3307 C   0  0  0  0  0  0  0  0  0  0  0  0
   21.3003  -17.4616  -20.4682 O   0  0  0  0  0  0  0  0  0  0  0  0
   21.8795  -15.9525  -18.8915 N   0  0  0  0  0  0  0  0  0  0  0  0
   21.2898  -14.8762  -19.6841 C   0  0  1  0  0  0  0  0  0  0  0  0
   20.8384  -13.7323  -18.8036 C   0  0  0  0  0  0  0  0  0  0  0  0
   19.5642  -13.9881  -18.1221 C   0  0  0  0  0  0  0  0  0  0  0  0
   18.7390  -15.0979  -18.2485 C   0  0  0  0  0  0  0  0  0  0  0  0
   17.6574  -14.9395  -17.4449 N   0  0  0  0  0  0  0  0  0  0  0  0
   17.7993  -13.7450  -16.8199 C   0  0  0  0  0  0  0  0  0  0  0  0
   18.9522  -13.1860  -17.2392 N   0  0  0  0  0  0  0  0  0  0  0  0
   22.2797  -14.4541  -20.6817 C   0  0  0  0  0  0  0  0  0  0  0  0
   21.8997  -14.0573  -21.8021 O   0  0  0  0  0  0  0  0  0  0  0  0
   23.6238  -14.4889  -20.4007 O   0  0  0  0  0  0  0  0  0  0  0  0
  2  1  1  0
  3  2  2  0
  4  3  1  0
  5  4  2  0
  5 11  1  0
  6  5  1  0
  7  9  1  0
  7  6  1  0
  7  8  1  1
  9 10  2  0
 11 12  2  0
 12  2  1  0
 14 13  1  0
 15 14  2  0
 16 14  1  0
 17 16  1  0
 18 17  1  6
 19 18  1  0
 19  9  1  0
 20 18  1  0
 21 20  2  0
 22 20  1  0
 23 30  1  0
 23 22  1  0
 24 25  1  0
 23 24  1  1
 25 29  1  0
 26 27  1  0
 26 25  2  0
 27 28  1  0
 28 29  2  0
 30 32  1  0
 31 30  2  0
M  END
$$$$
