YQH.pdb
     RDKit          3D

 32 33  0  0  1  0  0  0  0  0999 V2000
   19.7978  -18.7559  -19.0494 O   0  0  0  0  0  0  0  0  0  0  0  0
   20.1100  -17.5483  -18.3988 C   0  0  0  0  0  0  0  0  0  0  0  0
   20.5709  -17.5299  -17.1035 C   0  0  0  0  0  0  0  0  0  0  0  0
   20.8754  -16.3467  -16.4701 C   0  0  0  0  0  0  0  0  0  0  0  0
   20.7310  -15.1146  -17.1105 C   0  0  0  0  0  0  0  0  0  0  0  0
   21.0599  -13.8357  -16.4260 C   0  0  0  0  0  0  0  0  0  0  0  0
   22.2547  -13.2465  -17.1003 C   0  0  2  0  0  0  0  0  0  0  0  0
   23.3722  -14.1772  -16.8729 N   0  0  0  0  0  0  0  0  0  0  0  0
   22.6723  -11.9418  -16.5727 C   0  0  0  0  0  0  0  0  0  0  0  0
   23.4763  -11.9628  -15.5782 O   0  0  0  0  0  0  0  0  0  0  0  0
   20.2678  -15.1508  -18.4089 C   0  0  0  0  0  0  0  0  0  0  0  0
   19.9629  -16.3365  -19.0429 C   0  0  0  0  0  0  0  0  0  0  0  0
   27.0364   -9.1588  -16.7873 N   0  0  0  0  0  0  0  0  0  0  0  0
   26.3515   -9.5851  -17.9505 C   0  0  0  0  0  0  0  0  0  0  0  0
   26.9319   -9.7782  -19.0248 O   0  0  0  0  0  0  0  0  0  0  0  0
   24.8825   -9.8031  -17.8594 C   0  0  0  0  0  0  0  0  0  0  0  0
   24.2732   -9.4074  -16.5816 C   0  0  0  0  0  0  0  0  0  0  0  0
   22.7938   -9.4350  -16.4401 C   0  0  2  0  0  0  0  0  0  0  0  0
   22.2749  -10.6911  -17.0538 N   0  0  0  0  0  0  0  0  0  0  0  0
   22.0741   -8.2941  -17.0484 C   0  0  0  0  0  0  0  0  0  0  0  0
   21.8135   -8.2866  -18.3110 O   0  0  0  0  0  0  0  0  0  0  0  0
   21.6063   -7.1441  -16.3745 N   0  0  0  0  0  0  0  0  0  0  0  0
   20.9314   -6.0530  -17.0732 C   0  0  1  0  0  0  0  0  0  0  0  0
   19.4444   -6.0631  -16.7970 C   0  0  0  0  0  0  0  0  0  0  0  0
   18.7403   -4.9000  -17.3491 C   0  0  0  0  0  0  0  0  0  0  0  0
   18.9835   -4.2498  -18.5519 C   0  0  0  0  0  0  0  0  0  0  0  0
   18.1084   -3.2216  -18.6844 N   0  0  0  0  0  0  0  0  0  0  0  0
   17.3236   -3.2238  -17.5791 C   0  0  0  0  0  0  0  0  0  0  0  0
   17.7178   -4.2405  -16.7863 N   0  0  0  0  0  0  0  0  0  0  0  0
   21.5651   -4.7938  -16.6654 C   0  0  0  0  0  0  0  0  0  0  0  0
   22.1712   -4.7295  -15.5765 O   0  0  0  0  0  0  0  0  0  0  0  0
   21.5014   -3.6799  -17.4666 O   0  0  0  0  0  0  0  0  0  0  0  0
  2  1  1  0
  3  2  2  0
  4  3  1  0
  5  4  2  0
  5 11  1  0
  6  5  1  0
  7  9  1  0
  7  6  1  0
  7  8  1  1
  9 10  2  0
 11 12  2  0
 12  2  1  0
 14 13  1  0
 15 14  2  0
 16 14  1  0
 17 16  1  0
 18 17  1  6
 19 18  1  0
 19  9  1  0
 20 18  1  0
 21 20  2  0
 22 20  1  0
 23 30  1  0
 23 22  1  0
 24 25  1  0
 23 24  1  1
 25 29  1  0
 26 27  1  0
 26 25  2  0
 27 28  1  0
 28 29  2  0
 30 32  1  0
 31 30  2  0
M  END
$$$$
