YQH.pdb
     RDKit          3D

 32 33  0  0  1  0  0  0  0  0999 V2000
   26.5369  -31.2136   -7.3369 O   0  0  0  0  0  0  0  0  0  0  0  0
   26.2258  -32.5026   -7.8065 C   0  0  0  0  0  0  0  0  0  0  0  0
   25.3002  -33.2943   -7.1684 C   0  0  0  0  0  0  0  0  0  0  0  0
   24.9983  -34.5549   -7.6305 C   0  0  0  0  0  0  0  0  0  0  0  0
   25.6152  -35.0868   -8.7642 C   0  0  0  0  0  0  0  0  0  0  0  0
   25.2891  -36.4494   -9.2638 C   0  0  0  0  0  0  0  0  0  0  0  0
   26.3434  -37.3849   -8.7712 C   0  0  2  0  0  0  0  0  0  0  0  0
   25.9406  -38.7370   -9.1911 N   0  0  0  0  0  0  0  0  0  0  0  0
   26.4957  -37.4195   -7.3115 C   0  0  0  0  0  0  0  0  0  0  0  0
   25.6701  -38.1580   -6.6721 O   0  0  0  0  0  0  0  0  0  0  0  0
   26.5407  -34.2801   -9.3922 C   0  0  0  0  0  0  0  0  0  0  0  0
   26.8428  -33.0172   -8.9287 C   0  0  0  0  0  0  0  0  0  0  0  0
   31.4294  -35.9249   -3.7860 N   0  0  0  0  0  0  0  0  0  0  0  0
   30.4849  -36.1392   -2.7536 C   0  0  0  0  0  0  0  0  0  0  0  0
   30.8002  -36.1311   -1.5583 O   0  0  0  0  0  0  0  0  0  0  0  0
   29.0681  -36.3814   -3.1382 C   0  0  0  0  0  0  0  0  0  0  0  0
   28.8202  -36.4538   -4.5852 C   0  0  0  0  0  0  0  0  0  0  0  0
   27.4599  -36.7986   -5.0752 C   0  0  2  0  0  0  0  0  0  0  0  0
   27.4518  -36.7255   -6.5646 N   0  0  0  0  0  0  0  0  0  0  0  0
   26.3639  -35.9443   -4.5664 C   0  0  0  0  0  0  0  0  0  0  0  0
   25.6522  -35.2434   -5.3816 O   0  0  0  0  0  0  0  0  0  0  0  0
   25.9760  -35.7959   -3.2163 N   0  0  0  0  0  0  0  0  0  0  0  0
   24.8774  -34.9211   -2.8136 C   0  0  1  0  0  0  0  0  0  0  0  0
   23.6004  -35.2755   -3.5424 C   0  0  0  0  0  0  0  0  0  0  0  0
   22.4559  -34.4436   -3.1528 C   0  0  0  0  0  0  0  0  0  0  0  0
   22.4629  -33.3047   -2.3582 C   0  0  0  0  0  0  0  0  0  0  0  0
   21.1944  -32.8375   -2.2428 N   0  0  0  0  0  0  0  0  0  0  0  0
   20.3982  -33.6713   -2.9557 C   0  0  0  0  0  0  0  0  0  0  0  0
   21.1740  -34.6322   -3.4966 N   0  0  0  0  0  0  0  0  0  0  0  0
   24.7324  -35.0178   -1.3566 C   0  0  0  0  0  0  0  0  0  0  0  0
   25.1260  -36.0416   -0.7615 O   0  0  0  0  0  0  0  0  0  0  0  0
   24.1679  -33.9950   -0.6342 O   0  0  0  0  0  0  0  0  0  0  0  0
  2  1  1  0
  3  2  2  0
  4  3  1  0
  5  4  2  0
  5 11  1  0
  6  5  1  0
  7  9  1  0
  7  6  1  0
  7  8  1  1
  9 10  2  0
 11 12  2  0
 12  2  1  0
 14 13  1  0
 15 14  2  0
 16 14  1  0
 17 16  1  0
 18 17  1  1
 19 18  1  0
 19  9  1  0
 20 18  1  0
 21 20  2  0
 22 20  1  0
 23 30  1  0
 23 22  1  0
 24 25  1  0
 23 24  1  6
 25 29  1  0
 26 27  1  0
 26 25  2  0
 27 28  1  0
 28 29  2  0
 30 32  1  0
 31 30  2  0
M  END
$$$$
