YQH.pdb
     RDKit          3D

 32 33  0  0  1  0  0  0  0  0999 V2000
   30.4364  -12.6643  -15.6847 O   0  0  0  0  0  0  0  0  0  0  0  0
   29.4127  -11.7589  -16.0183 C   0  0  0  0  0  0  0  0  0  0  0  0
   28.1626  -11.8498  -15.4528 C   0  0  0  0  0  0  0  0  0  0  0  0
   27.1635  -10.9624  -15.7813 C   0  0  0  0  0  0  0  0  0  0  0  0
   27.3715   -9.9324  -16.7005 C   0  0  0  0  0  0  0  0  0  0  0  0
   26.2917   -8.9732  -17.0558 C   0  0  0  0  0  0  0  0  0  0  0  0
   25.2609   -9.7116  -17.8443 C   0  0  2  0  0  0  0  0  0  0  0  0
   25.9043  -10.1242  -19.1024 N   0  0  0  0  0  0  0  0  0  0  0  0
   24.0838   -8.9139  -18.2091 C   0  0  0  0  0  0  0  0  0  0  0  0
   24.1577   -8.2626  -19.3074 O   0  0  0  0  0  0  0  0  0  0  0  0
   28.6304   -9.8553  -17.2582 C   0  0  0  0  0  0  0  0  0  0  0  0
   29.6310  -10.7447  -16.9285 C   0  0  0  0  0  0  0  0  0  0  0  0
   19.9451   -9.0186  -20.5936 N   0  0  0  0  0  0  0  0  0  0  0  0
   18.9454   -8.4623  -19.7600 C   0  0  0  0  0  0  0  0  0  0  0  0
   17.8739   -8.0378  -20.2073 O   0  0  0  0  0  0  0  0  0  0  0  0
   19.2099   -8.3935  -18.2974 C   0  0  0  0  0  0  0  0  0  0  0  0
   20.5164   -8.9192  -17.8764 C   0  0  0  0  0  0  0  0  0  0  0  0
   21.7254   -8.0663  -18.0189 C   0  0  2  0  0  0  0  0  0  0  0  0
   22.9012   -8.8028  -17.4723 N   0  0  0  0  0  0  0  0  0  0  0  0
   21.6572   -6.7475  -17.3512 C   0  0  0  0  0  0  0  0  0  0  0  0
   21.2973   -6.6604  -16.1163 O   0  0  0  0  0  0  0  0  0  0  0  0
   21.9593   -5.4971  -17.9349 N   0  0  0  0  0  0  0  0  0  0  0  0
   21.0441   -4.3610  -17.8585 C   0  0  1  0  0  0  0  0  0  0  0  0
   19.6109   -4.7980  -18.0646 C   0  0  0  0  0  0  0  0  0  0  0  0
   18.6480   -3.6928  -17.9947 C   0  0  0  0  0  0  0  0  0  0  0  0
   18.9149   -2.3408  -17.8230 C   0  0  0  0  0  0  0  0  0  0  0  0
   17.7438   -1.6559  -17.8136 N   0  0  0  0  0  0  0  0  0  0  0  0
   16.7515   -2.5647  -17.9773 C   0  0  0  0  0  0  0  0  0  0  0  0
   17.3136   -3.7854  -18.0846 N   0  0  0  0  0  0  0  0  0  0  0  0
   21.2452   -3.7040  -16.5618 C   0  0  0  0  0  0  0  0  0  0  0  0
   21.5382   -2.4918  -16.5203 O   0  0  0  0  0  0  0  0  0  0  0  0
   21.1154   -4.4053  -15.3879 O   0  0  0  0  0  0  0  0  0  0  0  0
  2  1  1  0
  3  2  2  0
  4  3  1  0
  5  4  2  0
  5 11  1  0
  6  5  1  0
  7  9  1  0
  7  6  1  0
  7  8  1  6
  9 10  2  0
 11 12  2  0
 12  2  1  0
 14 13  1  0
 15 14  2  0
 16 14  1  0
 17 16  1  0
 18 17  1  1
 19 18  1  0
 19  9  1  0
 20 18  1  0
 21 20  2  0
 22 20  1  0
 23 30  1  0
 23 22  1  0
 24 25  1  0
 23 24  1  1
 25 29  1  0
 26 27  1  0
 26 25  2  0
 27 28  1  0
 28 29  2  0
 30 32  1  0
 31 30  2  0
M  END
$$$$
