YQH.pdb
     RDKit          3D

 32 33  0  0  1  0  0  0  0  0999 V2000
   28.5189  -28.2114  -17.0090 O   0  0  0  0  0  0  0  0  0  0  0  0
   27.7472  -27.0374  -16.9375 C   0  0  0  0  0  0  0  0  0  0  0  0
   28.3276  -25.7926  -17.0034 C   0  0  0  0  0  0  0  0  0  0  0  0
   27.5697  -24.6462  -16.9332 C   0  0  0  0  0  0  0  0  0  0  0  0
   26.1816  -24.6931  -16.7922 C   0  0  0  0  0  0  0  0  0  0  0  0
   25.3622  -23.4540  -16.7161 C   0  0  0  0  0  0  0  0  0  0  0  0
   25.5481  -22.8617  -15.3581 C   0  0  2  0  0  0  0  0  0  0  0  0
   24.8361  -23.7367  -14.4125 N   0  0  0  0  0  0  0  0  0  0  0  0
   24.9873  -21.5146  -15.1974 C   0  0  0  0  0  0  0  0  0  0  0  0
   23.8202  -21.4438  -14.6791 O   0  0  0  0  0  0  0  0  0  0  0  0
   25.6155  -25.9489  -16.7277 C   0  0  0  0  0  0  0  0  0  0  0  0
   26.3754  -27.0971  -16.7981 C   0  0  0  0  0  0  0  0  0  0  0  0
   27.8513  -15.9425  -15.5070 N   0  0  0  0  0  0  0  0  0  0  0  0
   26.5085  -15.4951  -15.4830 C   0  0  0  0  0  0  0  0  0  0  0  0
   26.2128  -14.2948  -15.4674 O   0  0  0  0  0  0  0  0  0  0  0  0
   25.4281  -16.5181  -15.4762 C   0  0  0  0  0  0  0  0  0  0  0  0
   25.8922  -17.9123  -15.4379 C   0  0  0  0  0  0  0  0  0  0  0  0
   24.8931  -19.0126  -15.4155 C   0  0  2  0  0  0  0  0  0  0  0  0
   25.6071  -20.3142  -15.5560 N   0  0  0  0  0  0  0  0  0  0  0  0
   23.8480  -18.9456  -16.4610 C   0  0  0  0  0  0  0  0  0  0  0  0
   24.0594  -19.4535  -17.6270 O   0  0  0  0  0  0  0  0  0  0  0  0
   22.5686  -18.3613  -16.3296 N   0  0  0  0  0  0  0  0  0  0  0  0
   21.3900  -18.9103  -16.9959 C   0  0  1  0  0  0  0  0  0  0  0  0
   21.2328  -20.3855  -16.7021 C   0  0  0  0  0  0  0  0  0  0  0  0
   20.0520  -20.9841  -17.3354 C   0  0  0  0  0  0  0  0  0  0  0  0
   18.7585  -20.4799  -17.3727 C   0  0  0  0  0  0  0  0  0  0  0  0
   17.9666  -21.3425  -18.0578 N   0  0  0  0  0  0  0  0  0  0  0  0
   18.7510  -22.3771  -18.4474 C   0  0  0  0  0  0  0  0  0  0  0  0
   20.0029  -22.1450  -18.0041 N   0  0  0  0  0  0  0  0  0  0  0  0
   20.2234  -18.1297  -16.5679 C   0  0  0  0  0  0  0  0  0  0  0  0
   20.1587  -17.7040  -15.3967 O   0  0  0  0  0  0  0  0  0  0  0  0
   19.1971  -17.8589  -17.4397 O   0  0  0  0  0  0  0  0  0  0  0  0
  2  1  1  0
  3  2  2  0
  4  3  1  0
  5  4  2  0
  5 11  1  0
  6  5  1  0
  7  9  1  0
  7  6  1  0
  7  8  1  1
  9 10  2  0
 11 12  2  0
 12  2  1  0
 14 13  1  0
 15 14  2  0
 16 14  1  0
 17 16  1  0
 18 17  1  6
 19 18  1  0
 19  9  1  0
 20 18  1  0
 21 20  2  0
 22 20  1  0
 23 30  1  0
 23 22  1  0
 24 25  1  0
 23 24  1  1
 25 29  1  0
 26 27  1  0
 26 25  2  0
 27 28  1  0
 28 29  2  0
 30 32  1  0
 31 30  2  0
M  END
$$$$
