YQH.pdb
     RDKit          3D

 32 33  0  0  1  0  0  0  0  0999 V2000
   24.8230  -17.5849  -21.1497 O   0  0  0  0  0  0  0  0  0  0  0  0
   24.1556  -16.3858  -20.8405 C   0  0  0  0  0  0  0  0  0  0  0  0
   23.7195  -15.5329  -21.8269 C   0  0  0  0  0  0  0  0  0  0  0  0
   23.0669  -14.3606  -21.5208 C   0  0  0  0  0  0  0  0  0  0  0  0
   22.8181  -13.9840  -20.1998 C   0  0  0  0  0  0  0  0  0  0  0  0
   22.1129  -12.7169  -19.8687 C   0  0  0  0  0  0  0  0  0  0  0  0
   20.7383  -13.0639  -19.4001 C   0  0  2  0  0  0  0  0  0  0  0  0
   20.0197  -13.6121  -20.5620 N   0  0  0  0  0  0  0  0  0  0  0  0
   19.9532  -11.9232  -18.9126 C   0  0  0  0  0  0  0  0  0  0  0  0
   19.4531  -11.1555  -19.8051 O   0  0  0  0  0  0  0  0  0  0  0  0
   23.2619  -14.8503  -19.2229 C   0  0  0  0  0  0  0  0  0  0  0  0
   23.9157  -16.0246  -19.5302 C   0  0  0  0  0  0  0  0  0  0  0  0
   17.0427  -12.2771  -13.9148 N   0  0  0  0  0  0  0  0  0  0  0  0
   16.6141  -12.7788  -15.1672 C   0  0  0  0  0  0  0  0  0  0  0  0
   15.9133  -13.7922  -15.2675 O   0  0  0  0  0  0  0  0  0  0  0  0
   17.0309  -12.0491  -16.3951 C   0  0  0  0  0  0  0  0  0  0  0  0
   17.8799  -10.8722  -16.1610 C   0  0  0  0  0  0  0  0  0  0  0  0
   18.8389  -10.4446  -17.2132 C   0  0  2  0  0  0  0  0  0  0  0  0
   19.7050  -11.6033  -17.5748 N   0  0  0  0  0  0  0  0  0  0  0  0
   19.7163   -9.3090  -16.8521 C   0  0  0  0  0  0  0  0  0  0  0  0
   20.8472   -9.5190  -16.2698 O   0  0  0  0  0  0  0  0  0  0  0  0
   19.4527   -7.9407  -17.0840 N   0  0  0  0  0  0  0  0  0  0  0  0
   20.3527   -6.8858  -16.6242 C   0  0  1  0  0  0  0  0  0  0  0  0
   20.0215   -5.5615  -17.2754 C   0  0  0  0  0  0  0  0  0  0  0  0
   20.9064   -4.4680  -16.8574 C   0  0  0  0  0  0  0  0  0  0  0  0
   22.0915   -4.0569  -17.4534 C   0  0  0  0  0  0  0  0  0  0  0  0
   22.5994   -3.0112  -16.7540 N   0  0  0  0  0  0  0  0  0  0  0  0
   21.7453   -2.7665  -15.7302 C   0  0  0  0  0  0  0  0  0  0  0  0
   20.7321   -3.6525  -15.8077 N   0  0  0  0  0  0  0  0  0  0  0  0
   20.2668   -6.8236  -15.1605 C   0  0  0  0  0  0  0  0  0  0  0  0
   19.1616   -6.9631  -14.5983 O   0  0  0  0  0  0  0  0  0  0  0  0
   21.3885   -6.6133  -14.3962 O   0  0  0  0  0  0  0  0  0  0  0  0
  2  1  1  0
  3  2  2  0
  4  3  1  0
  5  4  2  0
  5 11  1  0
  6  5  1  0
  7  9  1  0
  7  6  1  0
  7  8  1  6
  9 10  2  0
 11 12  2  0
 12  2  1  0
 14 13  1  0
 15 14  2  0
 16 14  1  0
 17 16  1  0
 18 17  1  1
 19 18  1  0
 19  9  1  0
 20 18  1  0
 21 20  2  0
 22 20  1  0
 23 30  1  0
 23 22  1  0
 24 25  1  0
 23 24  1  6
 25 29  1  0
 26 27  1  0
 26 25  2  0
 27 28  1  0
 28 29  2  0
 30 32  1  0
 31 30  2  0
M  END
$$$$
