YQH.pdb
     RDKit          3D

 32 33  0  0  1  0  0  0  0  0999 V2000
   31.6010  -36.0872  -20.6485 O   0  0  0  0  0  0  0  0  0  0  0  0
   30.8014  -35.2488  -19.8505 C   0  0  0  0  0  0  0  0  0  0  0  0
   30.7392  -35.4039  -18.4857 C   0  0  0  0  0  0  0  0  0  0  0  0
   29.9560  -34.5820  -17.7081 C   0  0  0  0  0  0  0  0  0  0  0  0
   29.1909  -33.5563  -18.2663 C   0  0  0  0  0  0  0  0  0  0  0  0
   28.3441  -32.6679  -17.4260 C   0  0  0  0  0  0  0  0  0  0  0  0
   29.0493  -31.3595  -17.2835 C   0  0  2  0  0  0  0  0  0  0  0  0
   30.1646  -31.5783  -16.3481 N   0  0  0  0  0  0  0  0  0  0  0  0
   28.2273  -30.2807  -16.7220 C   0  0  0  0  0  0  0  0  0  0  0  0
   28.3268  -30.0887  -15.4614 O   0  0  0  0  0  0  0  0  0  0  0  0
   29.2645  -33.4144  -19.6361 C   0  0  0  0  0  0  0  0  0  0  0  0
   30.0494  -34.2382  -20.4146 C   0  0  0  0  0  0  0  0  0  0  0  0
   28.2329  -24.5461  -17.7854 N   0  0  0  0  0  0  0  0  0  0  0  0
   29.0824  -25.3900  -17.0304 C   0  0  0  0  0  0  0  0  0  0  0  0
   30.2431  -25.0737  -16.7452 O   0  0  0  0  0  0  0  0  0  0  0  0
   28.5440  -26.6994  -16.5727 C   0  0  0  0  0  0  0  0  0  0  0  0
   27.2261  -27.0547  -17.1181 C   0  0  0  0  0  0  0  0  0  0  0  0
   26.6110  -28.3562  -16.7478 C   0  0  2  0  0  0  0  0  0  0  0  0
   27.3544  -29.4523  -17.4331 N   0  0  0  0  0  0  0  0  0  0  0  0
   25.1751  -28.4987  -17.0759 C   0  0  0  0  0  0  0  0  0  0  0  0
   24.8100  -28.8671  -18.2562 O   0  0  0  0  0  0  0  0  0  0  0  0
   24.0898  -28.2701  -16.2011 N   0  0  0  0  0  0  0  0  0  0  0  0
   22.7005  -28.3992  -16.6340 C   0  0  1  0  0  0  0  0  0  0  0  0
   22.4817  -27.7370  -17.9760 C   0  0  0  0  0  0  0  0  0  0  0  0
   22.8261  -26.3105  -17.9860 C   0  0  0  0  0  0  0  0  0  0  0  0
   22.0942  -25.2544  -17.4591 C   0  0  0  0  0  0  0  0  0  0  0  0
   22.7658  -24.0965  -17.6799 N   0  0  0  0  0  0  0  0  0  0  0  0
   23.9064  -24.4187  -18.3376 C   0  0  0  0  0  0  0  0  0  0  0  0
   23.9264  -25.7552  -18.5135 N   0  0  0  0  0  0  0  0  0  0  0  0
   22.3642  -29.8275  -16.6562 C   0  0  0  0  0  0  0  0  0  0  0  0
   23.2311  -30.6630  -16.9840 O   0  0  0  0  0  0  0  0  0  0  0  0
   21.1049  -30.2612  -16.3205 O   0  0  0  0  0  0  0  0  0  0  0  0
  2  1  1  0
  3  2  2  0
  4  3  1  0
  5  4  2  0
  5 11  1  0
  6  5  1  0
  7  9  1  0
  7  6  1  0
  7  8  1  1
  9 10  2  0
 11 12  2  0
 12  2  1  0
 14 13  1  0
 15 14  2  0
 16 14  1  0
 17 16  1  0
 18 17  1  6
 19 18  1  0
 19  9  1  0
 20 18  1  0
 21 20  2  0
 22 20  1  0
 23 30  1  0
 23 22  1  0
 24 25  1  0
 23 24  1  6
 25 29  1  0
 26 27  1  0
 26 25  2  0
 27 28  1  0
 28 29  2  0
 30 32  1  0
 31 30  2  0
M  END
$$$$
