YQH.pdb
     RDKit          3D

 32 33  0  0  1  0  0  0  0  0999 V2000
   24.6673  -21.7071   -8.9393 O   0  0  0  0  0  0  0  0  0  0  0  0
   24.8731  -20.9955  -10.1351 C   0  0  0  0  0  0  0  0  0  0  0  0
   23.8260  -20.4236  -10.8186 C   0  0  0  0  0  0  0  0  0  0  0  0
   24.0309  -19.7280  -11.9882 C   0  0  0  0  0  0  0  0  0  0  0  0
   25.3065  -19.5711  -12.5334 C   0  0  0  0  0  0  0  0  0  0  0  0
   25.5282  -18.8195  -13.7976 C   0  0  0  0  0  0  0  0  0  0  0  0
   24.8116  -19.5385  -14.8925 C   0  0  2  0  0  0  0  0  0  0  0  0
   25.6436  -20.6976  -15.2545 N   0  0  0  0  0  0  0  0  0  0  0  0
   24.6207  -18.7517  -16.1171 C   0  0  0  0  0  0  0  0  0  0  0  0
   25.6834  -18.3651  -16.7147 O   0  0  0  0  0  0  0  0  0  0  0  0
   26.3454  -20.1506  -11.8356 C   0  0  0  0  0  0  0  0  0  0  0  0
   26.1393  -20.8474  -10.6639 C   0  0  0  0  0  0  0  0  0  0  0  0
   22.1668  -20.1053  -21.0364 N   0  0  0  0  0  0  0  0  0  0  0  0
   23.4979  -20.2651  -20.5819 C   0  0  0  0  0  0  0  0  0  0  0  0
   24.2463  -21.1430  -21.0263 O   0  0  0  0  0  0  0  0  0  0  0  0
   23.9972  -19.3360  -19.5325 C   0  0  0  0  0  0  0  0  0  0  0  0
   23.0243  -18.3331  -19.0759 C   0  0  0  0  0  0  0  0  0  0  0  0
   23.3374  -17.5049  -17.8820 C   0  0  2  0  0  0  0  0  0  0  0  0
   23.3951  -18.3903  -16.6835 N   0  0  0  0  0  0  0  0  0  0  0  0
   22.3843  -16.4088  -17.5991 C   0  0  0  0  0  0  0  0  0  0  0  0
   21.5393  -16.5139  -16.6311 O   0  0  0  0  0  0  0  0  0  0  0  0
   22.2825  -15.1863  -18.2996 N   0  0  0  0  0  0  0  0  0  0  0  0
   21.2553  -14.1948  -17.9896 C   0  0  1  0  0  0  0  0  0  0  0  0
   21.2889  -13.8109  -16.5271 C   0  0  0  0  0  0  0  0  0  0  0  0
   20.0200  -14.0532  -15.8308 C   0  0  0  0  0  0  0  0  0  0  0  0
   18.8484  -14.5825  -16.3560 C   0  0  0  0  0  0  0  0  0  0  0  0
   17.9107  -14.6399  -15.3773 N   0  0  0  0  0  0  0  0  0  0  0  0
   18.4840  -14.1529  -14.2496 C   0  0  0  0  0  0  0  0  0  0  0  0
   19.7535  -13.8046  -14.5407 N   0  0  0  0  0  0  0  0  0  0  0  0
   21.4586  -13.0410  -18.8733 C   0  0  0  0  0  0  0  0  0  0  0  0
   22.4289  -13.0249  -19.6577 O   0  0  0  0  0  0  0  0  0  0  0  0
   20.5941  -11.9738  -18.8506 O   0  0  0  0  0  0  0  0  0  0  0  0
  2  1  1  0
  3  2  2  0
  4  3  1  0
  5  4  2  0
  5 11  1  0
  6  5  1  0
  7  9  1  0
  7  6  1  0
  7  8  1  6
  9 10  2  0
 11 12  2  0
 12  2  1  0
 14 13  1  0
 15 14  2  0
 16 14  1  0
 17 16  1  0
 18 17  1  6
 19 18  1  0
 19  9  1  0
 20 18  1  0
 21 20  2  0
 22 20  1  0
 23 30  1  0
 23 22  1  0
 24 25  1  0
 23 24  1  1
 25 29  1  0
 26 27  1  0
 26 25  2  0
 27 28  1  0
 28 29  2  0
 30 32  1  0
 31 30  2  0
M  END
$$$$
