YQH.pdb
     RDKit          3D

 32 33  0  0  1  0  0  0  0  0999 V2000
   22.1945   -1.7927  -14.2935 O   0  0  0  0  0  0  0  0  0  0  0  0
   21.7033   -3.0366  -14.7297 C   0  0  0  0  0  0  0  0  0  0  0  0
   20.8228   -3.1310  -15.7816 C   0  0  0  0  0  0  0  0  0  0  0  0
   20.3443   -4.3496  -16.2058 C   0  0  0  0  0  0  0  0  0  0  0  0
   20.7289   -5.5422  -15.5905 C   0  0  0  0  0  0  0  0  0  0  0  0
   20.2118   -6.8594  -16.0487 C   0  0  0  0  0  0  0  0  0  0  0  0
   21.3288   -7.5822  -16.7264 C   0  0  2  0  0  0  0  0  0  0  0  0
   21.6197   -6.8457  -17.9672 N   0  0  0  0  0  0  0  0  0  0  0  0
   21.0165   -8.9633  -17.1137 C   0  0  0  0  0  0  0  0  0  0  0  0
   20.4078   -9.1164  -18.2281 O   0  0  0  0  0  0  0  0  0  0  0  0
   21.6123   -5.4299  -14.5374 C   0  0  0  0  0  0  0  0  0  0  0  0
   22.0913   -4.2088  -14.1129 C   0  0  0  0  0  0  0  0  0  0  0  0
   24.2275  -14.0479  -15.8908 N   0  0  0  0  0  0  0  0  0  0  0  0
   23.1306  -14.6719  -16.5321 C   0  0  0  0  0  0  0  0  0  0  0  0
   23.1130  -15.8827  -16.7810 O   0  0  0  0  0  0  0  0  0  0  0  0
   21.9672  -13.8263  -16.9134 C   0  0  0  0  0  0  0  0  0  0  0  0
   22.0793  -12.4093  -16.5393 C   0  0  0  0  0  0  0  0  0  0  0  0
   20.9911  -11.4684  -16.9137 C   0  0  2  0  0  0  0  0  0  0  0  0
   21.3210  -10.1148  -16.3823 N   0  0  0  0  0  0  0  0  0  0  0  0
   19.6396  -11.8343  -16.4346 C   0  0  0  0  0  0  0  0  0  0  0  0
   19.2738  -11.5442  -15.2328 O   0  0  0  0  0  0  0  0  0  0  0  0
   18.6395  -12.4994  -17.1780 N   0  0  0  0  0  0  0  0  0  0  0  0
   17.3733  -12.9164  -16.5805 C   0  0  1  0  0  0  0  0  0  0  0  0
   16.1995  -12.4967  -17.4369 C   0  0  0  0  0  0  0  0  0  0  0  0
   15.9455  -11.0516  -17.4112 C   0  0  0  0  0  0  0  0  0  0  0  0
   15.6005  -10.2673  -16.3183 C   0  0  0  0  0  0  0  0  0  0  0  0
   15.4563   -8.9808  -16.7242 N   0  0  0  0  0  0  0  0  0  0  0  0
   15.7071   -8.9547  -18.0561 C   0  0  0  0  0  0  0  0  0  0  0  0
   15.9998  -10.2095  -18.4529 N   0  0  0  0  0  0  0  0  0  0  0  0
   17.4245  -14.3691  -16.3790 C   0  0  0  0  0  0  0  0  0  0  0  0
   18.4387  -15.0074  -16.7269 O   0  0  0  0  0  0  0  0  0  0  0  0
   16.3692  -15.0404  -15.8111 O   0  0  0  0  0  0  0  0  0  0  0  0
  2  1  1  0
  3  2  2  0
  4  3  1  0
  5  4  2  0
  5 11  1  0
  6  5  1  0
  7  9  1  0
  7  6  1  0
  7  8  1  6
  9 10  2  0
 11 12  2  0
 12  2  1  0
 14 13  1  0
 15 14  2  0
 16 14  1  0
 17 16  1  0
 18 17  1  1
 19 18  1  0
 19  9  1  0
 20 18  1  0
 21 20  2  0
 22 20  1  0
 23 30  1  0
 23 22  1  0
 24 25  1  0
 23 24  1  6
 25 29  1  0
 26 27  1  0
 26 25  2  0
 27 28  1  0
 28 29  2  0
 30 32  1  0
 31 30  2  0
M  END
$$$$
