TVR.pdb
     RDKit          3D

 26 25  0  0  1  0  0  0  0  0999 V2000
   20.3766  -23.0916  -12.8993 C   0  0  0  0  0  0  0  0  0  0  0  0
   21.4679  -22.0686  -13.1305 C   0  0  1  0  0  0  0  0  0  0  0  0
   20.9662  -21.0417  -13.9203 O   0  0  0  0  0  0  0  0  0  0  0  0
   22.0364  -21.5637  -11.8174 C   0  0  2  0  0  0  0  0  0  0  0  0
   21.0438  -20.8817  -11.0435 N   0  0  0  0  0  0  0  0  0  0  0  0
   23.2573  -20.7437  -12.0355 C   0  0  0  0  0  0  0  0  0  0  0  0
   23.2624  -19.5079  -11.7971 O   0  0  0  0  0  0  0  0  0  0  0  0
   28.1844  -20.6983  -12.5733 C   0  0  0  0  0  0  0  0  0  0  0  0
   26.8820  -21.3561  -12.2386 C   0  0  1  0  0  0  0  0  0  0  0  0
   26.8778  -21.7134  -10.7671 C   0  0  0  0  0  0  0  0  0  0  0  0
   25.7154  -20.5066  -12.6253 C   0  0  2  0  0  0  0  0  0  0  0  0
   24.4741  -21.2957  -12.5187 N   0  0  0  0  0  0  0  0  0  0  0  0
   25.8592  -20.1558  -14.0795 C   0  0  0  0  0  0  0  0  0  0  0  0
   25.6235  -21.0849  -14.8927 O   0  0  0  0  0  0  0  0  0  0  0  0
   21.6443  -13.9829  -17.5200 N   0  0  0  0  0  0  0  0  0  0  0  0
   22.1123  -14.5815  -18.7237 C   0  0  0  0  0  0  0  0  0  0  0  0
   21.5461  -14.1713  -19.8199 N   0  0  0  0  0  0  0  0  0  0  0  0
   23.1369  -15.5674  -18.7192 N   0  0  0  0  0  0  0  0  0  0  0  0
   23.5784  -15.9995  -17.3615 C   0  0  0  0  0  0  0  0  0  0  0  0
   24.5750  -17.0753  -17.4532 C   0  0  0  0  0  0  0  0  0  0  0  0
   25.0629  -17.6112  -16.1781 C   0  0  0  0  0  0  0  0  0  0  0  0
   26.1013  -18.6216  -16.0213 C   0  0  2  0  0  0  0  0  0  0  0  0
   26.2238  -18.8986  -14.5544 N   0  0  0  0  0  0  0  0  0  0  0  0
   27.4525  -18.5105  -16.5047 C   0  0  0  0  0  0  0  0  0  0  0  0
   27.9957  -18.9619  -17.7009 O   0  0  0  0  0  0  0  0  0  0  0  0
   28.3391  -17.9281  -15.7684 O   0  0  0  0  0  0  0  0  0  0  0  0
  2  1  1  1
  2  4  1  0
  3  2  1  0
  4  6  1  0
  4  5  1  6
  6  7  2  0
  9  8  1  1
 10  9  1  0
 11  9  1  0
 11 12  1  6
 12  6  1  0
 13 14  2  0
 13 11  1  0
 15 16  1  0
 16 17  2  0
 18 16  1  0
 19 18  1  0
 20 19  1  0
 20 21  1  0
 22 21  1  1
 22 23  1  0
 23 13  1  0
 24 22  1  0
 24 25  1  0
 26 24  2  0
M  END
$$$$
