TVR.pdb
     RDKit          3D

 26 25  0  0  1  0  0  0  0  0999 V2000
   20.3953  -23.9094   -6.9768 C   0  0  0  0  0  0  0  0  0  0  0  0
   21.2399  -22.9063   -7.7328 C   0  0  1  0  0  0  0  0  0  0  0  0
   20.5053  -22.4103   -8.8025 O   0  0  0  0  0  0  0  0  0  0  0  0
   21.7411  -21.8063   -6.8157 C   0  0  2  0  0  0  0  0  0  0  0  0
   20.6578  -21.0639   -6.2460 N   0  0  0  0  0  0  0  0  0  0  0  0
   22.7330  -20.9380   -7.5031 C   0  0  0  0  0  0  0  0  0  0  0  0
   22.3826  -19.8660   -8.0619 O   0  0  0  0  0  0  0  0  0  0  0  0
   27.5142  -19.8806   -8.4136 C   0  0  0  0  0  0  0  0  0  0  0  0
   26.4467  -20.5969   -7.6466 C   0  0  1  0  0  0  0  0  0  0  0  0
   26.5022  -20.1535   -6.1998 C   0  0  0  0  0  0  0  0  0  0  0  0
   25.0970  -20.3981   -8.2556 C   0  0  2  0  0  0  0  0  0  0  0  0
   24.1153  -21.2594   -7.5707 N   0  0  0  0  0  0  0  0  0  0  0  0
   25.1535  -20.8838   -9.6766 C   0  0  0  0  0  0  0  0  0  0  0  0
   24.8821  -22.0987   -9.8511 O   0  0  0  0  0  0  0  0  0  0  0  0
   20.3062  -22.1245  -14.8790 N   0  0  0  0  0  0  0  0  0  0  0  0
   21.1036  -21.5848  -15.9273 C   0  0  0  0  0  0  0  0  0  0  0  0
   20.4564  -21.1529  -16.9690 N   0  0  0  0  0  0  0  0  0  0  0  0
   22.5211  -21.5250  -15.8335 N   0  0  0  0  0  0  0  0  0  0  0  0
   23.0605  -21.6892  -14.4524 C   0  0  0  0  0  0  0  0  0  0  0  0
   23.2638  -20.3827  -13.8115 C   0  0  0  0  0  0  0  0  0  0  0  0
   23.8439  -20.4099  -12.4647 C   0  0  0  0  0  0  0  0  0  0  0  0
   25.2498  -20.6267  -12.1479 C   0  0  2  0  0  0  0  0  0  0  0  0
   25.4762  -20.0845  -10.7702 N   0  0  0  0  0  0  0  0  0  0  0  0
   26.3627  -20.1591  -12.9318 C   0  0  0  0  0  0  0  0  0  0  0  0
   26.9605  -20.7431  -14.0415 O   0  0  0  0  0  0  0  0  0  0  0  0
   26.9404  -19.0508  -12.6072 O   0  0  0  0  0  0  0  0  0  0  0  0
  2  1  1  1
  2  4  1  0
  3  2  1  0
  4  6  1  0
  4  5  1  6
  6  7  2  0
  9  8  1  6
 10  9  1  0
 11  9  1  0
 11 12  1  1
 12  6  1  0
 13 14  2  0
 13 11  1  0
 15 16  1  0
 16 17  2  0
 18 16  1  0
 19 18  1  0
 20 19  1  0
 20 21  1  0
 22 21  1  6
 22 23  1  0
 23 13  1  0
 24 22  1  0
 24 25  1  0
 26 24  2  0
M  END
$$$$
