TVR.pdb
     RDKit          3D

 26 25  0  0  1  0  0  0  0  0999 V2000
   20.7519  -22.8896  -10.1182 C   0  0  0  0  0  0  0  0  0  0  0  0
   21.2283  -21.4796  -10.3939 C   0  0  1  0  0  0  0  0  0  0  0  0
   20.1926  -20.5919  -10.1305 O   0  0  0  0  0  0  0  0  0  0  0  0
   22.4820  -21.1573   -9.6023 C   0  0  2  0  0  0  0  0  0  0  0  0
   22.1783  -20.4084   -8.4206 N   0  0  0  0  0  0  0  0  0  0  0  0
   23.5051  -20.4955  -10.4540 C   0  0  0  0  0  0  0  0  0  0  0  0
   23.7345  -19.2619  -10.3558 O   0  0  0  0  0  0  0  0  0  0  0  0
   27.4974  -20.8916  -13.3293 C   0  0  0  0  0  0  0  0  0  0  0  0
   26.5195  -21.3940  -12.3133 C   0  0  1  0  0  0  0  0  0  0  0  0
   27.2156  -21.4962  -10.9724 C   0  0  0  0  0  0  0  0  0  0  0  0
   25.2911  -20.5454  -12.2580 C   0  0  2  0  0  0  0  0  0  0  0  0
   24.2748  -21.2034  -11.4159 N   0  0  0  0  0  0  0  0  0  0  0  0
   24.7066  -20.4853  -13.6412 C   0  0  0  0  0  0  0  0  0  0  0  0
   24.0777  -21.5076  -14.0147 O   0  0  0  0  0  0  0  0  0  0  0  0
   19.1928  -21.9013  -13.8534 N   0  0  0  0  0  0  0  0  0  0  0  0
   18.6390  -21.2498  -14.9913 C   0  0  0  0  0  0  0  0  0  0  0  0
   17.3575  -21.3914  -15.1597 N   0  0  0  0  0  0  0  0  0  0  0  0
   19.4447  -20.4920  -15.8849 N   0  0  0  0  0  0  0  0  0  0  0  0
   20.8649  -20.3315  -15.4579 C   0  0  0  0  0  0  0  0  0  0  0  0
   21.2966  -18.9334  -15.5919 C   0  0  0  0  0  0  0  0  0  0  0  0
   22.6664  -18.6384  -15.1584 C   0  0  0  0  0  0  0  0  0  0  0  0
   23.8740  -19.2864  -15.6542 C   0  0  2  0  0  0  0  0  0  0  0  0
   24.8194  -19.3929  -14.4974 N   0  0  0  0  0  0  0  0  0  0  0  0
   24.6721  -18.8276  -16.7607 C   0  0  0  0  0  0  0  0  0  0  0  0
   24.3921  -18.8696  -18.1207 O   0  0  0  0  0  0  0  0  0  0  0  0
   25.8274  -18.2999  -16.5281 O   0  0  0  0  0  0  0  0  0  0  0  0
  2  1  1  1
  2  4  1  0
  3  2  1  0
  4  6  1  0
  4  5  1  1
  6  7  2  0
  9  8  1  6
 10  9  1  0
 11  9  1  0
 11 12  1  1
 12  6  1  0
 13 14  2  0
 13 11  1  0
 15 16  1  0
 16 17  2  0
 18 16  1  0
 19 18  1  0
 20 19  1  0
 20 21  1  0
 22 21  1  1
 22 23  1  0
 23 13  1  0
 24 22  1  0
 24 25  1  0
 26 24  2  0
M  END
$$$$
