TVR.pdb
     RDKit          3D

 26 25  0  0  1  0  0  0  0  0999 V2000
   25.0673  -24.8781  -18.3077 C   0  0  0  0  0  0  0  0  0  0  0  0
   26.0754  -25.8541  -17.7400 C   0  0  1  0  0  0  0  0  0  0  0  0
   26.4539  -26.7452  -18.7363 O   0  0  0  0  0  0  0  0  0  0  0  0
   27.2612  -25.1291  -17.1313 C   0  0  2  0  0  0  0  0  0  0  0  0
   28.2053  -26.0468  -16.5692 N   0  0  0  0  0  0  0  0  0  0  0  0
   26.8219  -24.0916  -16.1611 C   0  0  0  0  0  0  0  0  0  0  0  0
   26.6392  -24.3713  -14.9477 O   0  0  0  0  0  0  0  0  0  0  0  0
   26.2271  -19.2326  -15.2389 C   0  0  0  0  0  0  0  0  0  0  0  0
   26.7358  -20.3673  -16.0724 C   0  0  1  0  0  0  0  0  0  0  0  0
   28.2450  -20.2764  -16.1546 C   0  0  0  0  0  0  0  0  0  0  0  0
   26.2685  -21.6889  -15.5556 C   0  0  2  0  0  0  0  0  0  0  0  0
   26.5851  -22.7423  -16.5378 N   0  0  0  0  0  0  0  0  0  0  0  0
   24.7692  -21.6466  -15.4629 C   0  0  0  0  0  0  0  0  0  0  0  0
   24.1548  -21.5757  -16.5572 O   0  0  0  0  0  0  0  0  0  0  0  0
   18.6903  -23.8343  -10.5404 N   0  0  0  0  0  0  0  0  0  0  0  0
   19.2142  -24.9809  -11.2013 C   0  0  0  0  0  0  0  0  0  0  0  0
   19.0099  -26.1208  -10.6101 N   0  0  0  0  0  0  0  0  0  0  0  0
   19.9171  -24.8779  -12.4330 N   0  0  0  0  0  0  0  0  0  0  0  0
   20.0874  -23.4843  -12.9373 C   0  0  0  0  0  0  0  0  0  0  0  0
   20.7055  -23.4823  -14.2704 C   0  0  0  0  0  0  0  0  0  0  0  0
   22.1021  -23.0387  -14.3315 C   0  0  0  0  0  0  0  0  0  0  0  0
   22.5558  -21.6538  -14.3297 C   0  0  2  0  0  0  0  0  0  0  0  0
   24.0522  -21.6841  -14.2698 N   0  0  0  0  0  0  0  0  0  0  0  0
   22.1545  -20.6462  -13.3835 C   0  0  0  0  0  0  0  0  0  0  0  0
   20.9220  -20.0222  -13.2369 O   0  0  0  0  0  0  0  0  0  0  0  0
   23.0153  -20.2082  -12.5264 O   0  0  0  0  0  0  0  0  0  0  0  0
  2  1  1  6
  2  4  1  0
  3  2  1  0
  4  6  1  0
  4  5  1  1
  6  7  2  0
  9  8  1  1
 10  9  1  0
 11  9  1  0
 11 12  1  6
 12  6  1  0
 13 14  2  0
 13 11  1  0
 15 16  1  0
 16 17  2  0
 18 16  1  0
 19 18  1  0
 20 19  1  0
 20 21  1  0
 22 21  1  1
 22 23  1  0
 23 13  1  0
 24 22  1  0
 24 25  1  0
 26 24  2  0
M  END
$$$$
