TVR.pdb
     RDKit          3D

 26 25  0  0  1  0  0  0  0  0999 V2000
   15.9885   -9.8096  -17.3246 C   0  0  0  0  0  0  0  0  0  0  0  0
   16.5334   -9.5454  -15.9373 C   0  0  1  0  0  0  0  0  0  0  0  0
   15.6287  -10.0221  -14.9970 O   0  0  0  0  0  0  0  0  0  0  0  0
   17.9164  -10.1454  -15.7656 C   0  0  2  0  0  0  0  0  0  0  0  0
   17.9173  -11.5498  -16.0430 N   0  0  0  0  0  0  0  0  0  0  0  0
   18.4840   -9.8240  -14.4295 C   0  0  0  0  0  0  0  0  0  0  0  0
   18.5409  -10.6928  -13.5207 O   0  0  0  0  0  0  0  0  0  0  0  0
   21.2040   -6.7959  -11.6167 C   0  0  0  0  0  0  0  0  0  0  0  0
   20.7695   -7.3908  -12.9198 C   0  0  1  0  0  0  0  0  0  0  0  0
   21.9224   -8.1768  -13.5079 C   0  0  0  0  0  0  0  0  0  0  0  0
   19.5322   -8.2146  -12.7690 C   0  0  2  0  0  0  0  0  0  0  0  0
   18.9892   -8.5371  -14.1016 N   0  0  0  0  0  0  0  0  0  0  0  0
   18.4914   -7.3681  -12.0918 C   0  0  0  0  0  0  0  0  0  0  0  0
   18.0326   -6.4160  -12.7723 O   0  0  0  0  0  0  0  0  0  0  0  0
   11.6689  -10.1729   -8.2003 N   0  0  0  0  0  0  0  0  0  0  0  0
   11.4571   -8.7956   -7.9104 C   0  0  0  0  0  0  0  0  0  0  0  0
   10.3385   -8.5057   -7.3143 N   0  0  0  0  0  0  0  0  0  0  0  0
   12.4153   -7.8030   -8.2547 N   0  0  0  0  0  0  0  0  0  0  0  0
   13.6814   -8.3360   -8.8361 C   0  0  0  0  0  0  0  0  0  0  0  0
   14.5663   -7.2404   -9.2553 C   0  0  0  0  0  0  0  0  0  0  0  0
   15.8545   -7.6386   -9.8327 C   0  0  0  0  0  0  0  0  0  0  0  0
   16.8978   -6.7310  -10.2925 C   0  0  2  0  0  0  0  0  0  0  0  0
   18.0242   -7.5795  -10.7972 N   0  0  0  0  0  0  0  0  0  0  0  0
   17.5180   -5.7030   -9.4986 C   0  0  0  0  0  0  0  0  0  0  0  0
   17.0845   -4.4071   -9.2481 O   0  0  0  0  0  0  0  0  0  0  0  0
   18.6434   -5.9500   -8.9156 O   0  0  0  0  0  0  0  0  0  0  0  0
  2  1  1  6
  2  4  1  0
  3  2  1  0
  4  6  1  0
  4  5  1  1
  6  7  2  0
  9  8  1  1
 10  9  1  0
 11  9  1  0
 11 12  1  6
 12  6  1  0
 13 14  2  0
 13 11  1  0
 15 16  1  0
 16 17  2  0
 18 16  1  0
 19 18  1  0
 20 19  1  0
 20 21  1  0
 22 21  1  1
 22 23  1  0
 23 13  1  0
 24 22  1  0
 24 25  1  0
 26 24  2  0
M  END
$$$$
