TVR.pdb
     RDKit          3D

 26 25  0  0  1  0  0  0  0  0999 V2000
   26.9727  -22.6032  -17.2475 C   0  0  0  0  0  0  0  0  0  0  0  0
   25.9686  -21.8034  -16.4454 C   0  0  1  0  0  0  0  0  0  0  0  0
   25.5473  -22.5627  -15.3610 O   0  0  0  0  0  0  0  0  0  0  0  0
   26.5419  -20.4629  -16.0253 C   0  0  2  0  0  0  0  0  0  0  0  0
   27.8151  -20.6131  -15.3882 N   0  0  0  0  0  0  0  0  0  0  0  0
   25.5737  -19.6948  -15.1988 C   0  0  0  0  0  0  0  0  0  0  0  0
   25.7611  -19.5258  -13.9658 O   0  0  0  0  0  0  0  0  0  0  0  0
   24.0550  -16.1232  -15.6384 C   0  0  0  0  0  0  0  0  0  0  0  0
   22.9714  -17.1557  -15.6106 C   0  0  1  0  0  0  0  0  0  0  0  0
   22.5095  -17.4190  -17.0284 C   0  0  0  0  0  0  0  0  0  0  0  0
   23.4086  -18.4006  -14.9097 C   0  0  2  0  0  0  0  0  0  0  0  0
   24.3961  -19.1136  -15.7412 N   0  0  0  0  0  0  0  0  0  0  0  0
   22.2203  -19.3144  -14.8035 C   0  0  0  0  0  0  0  0  0  0  0  0
   22.1913  -20.2717  -15.6176 O   0  0  0  0  0  0  0  0  0  0  0  0
   19.9552  -23.9042   -8.6707 N   0  0  0  0  0  0  0  0  0  0  0  0
   18.6873  -24.0803   -9.2931 C   0  0  0  0  0  0  0  0  0  0  0  0
   18.0000  -25.1121   -8.9011 N   0  0  0  0  0  0  0  0  0  0  0  0
   18.2083  -23.1784  -10.2825 N   0  0  0  0  0  0  0  0  0  0  0  0
   19.1452  -22.0666  -10.6164 C   0  0  0  0  0  0  0  0  0  0  0  0
   19.0903  -21.7491  -12.0500 C   0  0  0  0  0  0  0  0  0  0  0  0
   20.0305  -20.7257  -12.5190 C   0  0  0  0  0  0  0  0  0  0  0  0
   20.0827  -20.1713  -13.8657 C   0  0  2  0  0  0  0  0  0  0  0  0
   21.1890  -19.1617  -13.8803 N   0  0  0  0  0  0  0  0  0  0  0  0
   18.9836  -19.5458  -14.5531 C   0  0  0  0  0  0  0  0  0  0  0  0
   18.7398  -18.1956  -14.7708 O   0  0  0  0  0  0  0  0  0  0  0  0
   18.0516  -20.2853  -15.0551 O   0  0  0  0  0  0  0  0  0  0  0  0
  2  1  1  1
  2  4  1  0
  3  2  1  0
  4  6  1  0
  4  5  1  1
  6  7  2  0
  9  8  1  6
 10  9  1  0
 11  9  1  0
 11 12  1  6
 12  6  1  0
 13 14  2  0
 13 11  1  0
 15 16  1  0
 16 17  2  0
 18 16  1  0
 19 18  1  0
 20 19  1  0
 20 21  1  0
 22 21  1  1
 22 23  1  0
 23 13  1  0
 24 22  1  0
 24 25  1  0
 26 24  2  0
M  END
$$$$
