TVR.pdb
     RDKit          3D

 26 25  0  0  1  0  0  0  0  0999 V2000
   16.6773   -9.2248  -10.0830 C   0  0  0  0  0  0  0  0  0  0  0  0
   17.3638   -8.7317  -11.3387 C   0  0  1  0  0  0  0  0  0  0  0  0
   16.8084   -9.3716  -12.4396 O   0  0  0  0  0  0  0  0  0  0  0  0
   17.2892   -7.2202  -11.4495 C   0  0  2  0  0  0  0  0  0  0  0  0
   15.9337   -6.7599  -11.4437 N   0  0  0  0  0  0  0  0  0  0  0  0
   18.0585   -6.7245  -12.6212 C   0  0  0  0  0  0  0  0  0  0  0  0
   17.4788   -6.1836  -13.5986 O   0  0  0  0  0  0  0  0  0  0  0  0
   22.3913   -5.1515  -14.3439 C   0  0  0  0  0  0  0  0  0  0  0  0
   21.3325   -5.3957  -13.3142 C   0  0  1  0  0  0  0  0  0  0  0  0
   20.8181   -4.0619  -12.8149 C   0  0  0  0  0  0  0  0  0  0  0  0
   20.2409   -6.2715  -13.8372 C   0  0  2  0  0  0  0  0  0  0  0  0
   19.4728   -6.8292  -12.7085 N   0  0  0  0  0  0  0  0  0  0  0  0
   20.8782   -7.4461  -14.5245 C   0  0  0  0  0  0  0  0  0  0  0  0
   21.5971   -8.1802  -13.8005 O   0  0  0  0  0  0  0  0  0  0  0  0
   17.2874  -13.8993  -17.9036 N   0  0  0  0  0  0  0  0  0  0  0  0
   18.6107  -14.2893  -18.2542 C   0  0  0  0  0  0  0  0  0  0  0  0
   18.7286  -15.4529  -18.8223 N   0  0  0  0  0  0  0  0  0  0  0  0
   19.7303  -13.4518  -17.9955 N   0  0  0  0  0  0  0  0  0  0  0  0
   19.4013  -12.1662  -17.3142 C   0  0  0  0  0  0  0  0  0  0  0  0
   20.5863  -11.3018  -17.2277 C   0  0  0  0  0  0  0  0  0  0  0  0
   20.3730   -9.9740  -16.6424 C   0  0  0  0  0  0  0  0  0  0  0  0
   21.4022   -8.9662  -16.4213 C   0  0  2  0  0  0  0  0  0  0  0  0
   20.7157   -7.7531  -15.8730 N   0  0  0  0  0  0  0  0  0  0  0  0
   22.3138   -8.4725  -17.4198 C   0  0  0  0  0  0  0  0  0  0  0  0
   23.4498   -9.0755  -17.9448 O   0  0  0  0  0  0  0  0  0  0  0  0
   22.1112   -7.3065  -17.9364 O   0  0  0  0  0  0  0  0  0  0  0  0
  2  1  1  1
  2  4  1  0
  3  2  1  0
  4  6  1  0
  4  5  1  6
  6  7  2  0
  9  8  1  6
 10  9  1  0
 11  9  1  0
 11 12  1  1
 12  6  1  0
 13 14  2  0
 13 11  1  0
 15 16  1  0
 16 17  2  0
 18 16  1  0
 19 18  1  0
 20 19  1  0
 20 21  1  0
 22 21  1  6
 22 23  1  0
 23 13  1  0
 24 22  1  0
 24 25  1  0
 26 24  2  0
M  END
$$$$
