TVR.pdb
     RDKit          3D

 26 25  0  0  1  0  0  0  0  0999 V2000
   28.6684  -24.5177  -19.2469 C   0  0  0  0  0  0  0  0  0  0  0  0
   28.0760  -23.4097  -18.4028 C   0  0  1  0  0  0  0  0  0  0  0  0
   27.1672  -23.9590  -17.5072 O   0  0  0  0  0  0  0  0  0  0  0  0
   29.1602  -22.6073  -17.7079 C   0  0  2  0  0  0  0  0  0  0  0  0
   30.0275  -23.4503  -16.9419 N   0  0  0  0  0  0  0  0  0  0  0  0
   28.5822  -21.4977  -16.9047 C   0  0  0  0  0  0  0  0  0  0  0  0
   28.6074  -21.5233  -15.6466 O   0  0  0  0  0  0  0  0  0  0  0  0
   26.8171  -16.8401  -16.8563 C   0  0  0  0  0  0  0  0  0  0  0  0
   27.5449  -17.9719  -17.5123 C   0  0  1  0  0  0  0  0  0  0  0  0
   28.9712  -17.5434  -17.7864 C   0  0  0  0  0  0  0  0  0  0  0  0
   27.4686  -19.2249  -16.7022 C   0  0  2  0  0  0  0  0  0  0  0  0
   27.9754  -20.3583  -17.4982 N   0  0  0  0  0  0  0  0  0  0  0  0
   26.0186  -19.5194  -16.4393 C   0  0  0  0  0  0  0  0  0  0  0  0
   25.3390  -19.8602  -17.4402 O   0  0  0  0  0  0  0  0  0  0  0  0
   25.3457  -22.4471  -11.2841 N   0  0  0  0  0  0  0  0  0  0  0  0
   24.9203  -21.2998  -10.5570 C   0  0  0  0  0  0  0  0  0  0  0  0
   25.7796  -20.8116   -9.7121 N   0  0  0  0  0  0  0  0  0  0  0  0
   23.6325  -20.7282  -10.7486 N   0  0  0  0  0  0  0  0  0  0  0  0
   22.7641  -21.4614  -11.7148 C   0  0  0  0  0  0  0  0  0  0  0  0
   22.6434  -20.7192  -12.9772 C   0  0  0  0  0  0  0  0  0  0  0  0
   23.8845  -20.5357  -13.7370 C   0  0  0  0  0  0  0  0  0  0  0  0
   23.9957  -19.9034  -15.0453 C   0  0  2  0  0  0  0  0  0  0  0  0
   25.4129  -19.4400  -15.1879 N   0  0  0  0  0  0  0  0  0  0  0  0
   23.1857  -18.8100  -15.5143 C   0  0  0  0  0  0  0  0  0  0  0  0
   21.9705  -18.8443  -16.1866 O   0  0  0  0  0  0  0  0  0  0  0  0
   23.5912  -17.5988  -15.3246 O   0  0  0  0  0  0  0  0  0  0  0  0
  2  1  1  1
  2  4  1  0
  3  2  1  0
  4  6  1  0
  4  5  1  1
  6  7  2  0
  9  8  1  1
 10  9  1  0
 11  9  1  0
 11 12  1  6
 12  6  1  0
 13 14  2  0
 13 11  1  0
 15 16  1  0
 16 17  2  0
 18 16  1  0
 19 18  1  0
 20 19  1  0
 20 21  1  0
 22 21  1  1
 22 23  1  0
 23 13  1  0
 24 22  1  0
 24 25  1  0
 26 24  2  0
M  END
$$$$
