TVR.pdb
     RDKit          3D

 26 25  0  0  1  0  0  0  0  0999 V2000
   25.5297  -20.4049  -22.0684 C   0  0  0  0  0  0  0  0  0  0  0  0
   25.7365  -19.0016  -21.5402 C   0  0  1  0  0  0  0  0  0  0  0  0
   24.8704  -18.7862  -20.4755 O   0  0  0  0  0  0  0  0  0  0  0  0
   27.1869  -18.7632  -21.1635 C   0  0  2  0  0  0  0  0  0  0  0  0
   27.6264  -19.6842  -20.1595 N   0  0  0  0  0  0  0  0  0  0  0  0
   27.4218  -17.3451  -20.7838 C   0  0  0  0  0  0  0  0  0  0  0  0
   27.6941  -17.0257  -19.5973 O   0  0  0  0  0  0  0  0  0  0  0  0
   28.7234  -12.8047  -22.0857 C   0  0  0  0  0  0  0  0  0  0  0  0
   28.6699  -14.2972  -22.1886 C   0  0  1  0  0  0  0  0  0  0  0  0
   30.0329  -14.8608  -21.8460 C   0  0  0  0  0  0  0  0  0  0  0  0
   27.5821  -14.8734  -21.3419 C   0  0  2  0  0  0  0  0  0  0  0  0
   27.3544  -16.2801  -21.7218 N   0  0  0  0  0  0  0  0  0  0  0  0
   26.3078  -14.1458  -21.6657 C   0  0  0  0  0  0  0  0  0  0  0  0
   25.6353  -14.6165  -22.6177 O   0  0  0  0  0  0  0  0  0  0  0  0
   19.5833  -14.3807  -18.0564 N   0  0  0  0  0  0  0  0  0  0  0  0
   19.0321  -14.0689  -19.3312 C   0  0  0  0  0  0  0  0  0  0  0  0
   17.7372  -14.1420  -19.4237 N   0  0  0  0  0  0  0  0  0  0  0  0
   19.8540  -13.7007  -20.4315 N   0  0  0  0  0  0  0  0  0  0  0  0
   21.3181  -13.7139  -20.1460 C   0  0  0  0  0  0  0  0  0  0  0  0
   22.0900  -13.4060  -21.3577 C   0  0  0  0  0  0  0  0  0  0  0  0
   23.5462  -13.5401  -21.2445 C   0  0  0  0  0  0  0  0  0  0  0  0
   24.5119  -12.4543  -21.3549 C   0  0  2  0  0  0  0  0  0  0  0  0
   25.8493  -13.0195  -20.9871 N   0  0  0  0  0  0  0  0  0  0  0  0
   24.4280  -11.1911  -20.6700 C   0  0  0  0  0  0  0  0  0  0  0  0
   23.5296  -10.1487  -20.8599 O   0  0  0  0  0  0  0  0  0  0  0  0
   25.2841  -10.9193  -19.7423 O   0  0  0  0  0  0  0  0  0  0  0  0
  2  1  1  1
  2  4  1  0
  3  2  1  0
  4  6  1  0
  4  5  1  1
  6  7  2  0
  9  8  1  1
 10  9  1  0
 11  9  1  0
 11 12  1  6
 12  6  1  0
 13 14  2  0
 13 11  1  0
 15 16  1  0
 16 17  2  0
 18 16  1  0
 19 18  1  0
 20 19  1  0
 20 21  1  0
 22 21  1  1
 22 23  1  0
 23 13  1  0
 24 22  1  0
 24 25  1  0
 26 24  2  0
M  END
$$$$
