QTK.pdb
     RDKit          3D

 26 25  0  0  1  0  0  0  0  0999 V2000
    7.4531  -15.3105   15.1256 N   0  0  0  0  0  0  0  0  0  0  0  0
    7.8535  -13.9568   15.4212 C   0  0  0  0  0  0  0  0  0  0  0  0
    7.4303  -13.0192   14.7087 O   0  0  0  0  0  0  0  0  0  0  0  0
    8.7510  -13.7747   16.5664 C   0  0  0  0  0  0  0  0  0  0  0  0
    8.0657  -13.6727   17.8878 C   0  0  0  0  0  0  0  0  0  0  0  0
    9.0106  -13.4993   19.0615 C   0  0  2  0  0  0  0  0  0  0  0  0
   10.3490  -13.9074   18.7475 N   0  0  0  0  0  0  0  0  0  0  0  0
    8.4255  -14.3029   20.1806 C   0  0  0  0  0  0  0  0  0  0  0  0
    7.2430  -14.0347   20.5097 O   0  0  0  0  0  0  0  0  0  0  0  0
   10.3343  -17.7464   21.3587 C   0  0  0  0  0  0  0  0  0  0  0  0
    8.8481  -17.5745   21.5788 C   0  0  1  0  0  0  0  0  0  0  0  0
    8.3218  -18.4827   22.4746 O   0  0  0  0  0  0  0  0  0  0  0  0
    8.5074  -16.1435   21.8996 C   0  0  2  0  0  0  0  0  0  0  0  0
    9.1022  -15.3162   20.8703 N   0  0  0  0  0  0  0  0  0  0  0  0
    8.9501  -15.7502   23.2603 C   0  0  0  0  0  0  0  0  0  0  0  0
   10.1488  -15.3326   23.3569 O   0  0  0  0  0  0  0  0  0  0  0  0
    8.1204  -15.8219   24.3984 N   0  0  0  0  0  0  0  0  0  0  0  0
    8.6952  -15.4351   25.6960 C   0  0  1  0  0  0  0  0  0  0  0  0
    7.6629  -14.7060   26.5071 C   0  0  0  0  0  0  0  0  0  0  0  0
    7.4835  -13.3171   25.9813 C   0  0  0  0  0  0  0  0  0  0  0  0
    6.3931  -12.5673   26.7486 C   0  0  0  0  0  0  0  0  0  0  0  0
    6.2850  -11.2011   26.1046 C   0  0  0  0  0  0  0  0  0  0  0  0
    5.2444  -10.4587   26.7946 N   0  0  0  0  0  0  0  0  0  0  0  0
    9.3235  -16.5803   26.3418 C   0  0  0  0  0  0  0  0  0  0  0  0
   10.2297  -16.3346   27.3969 O   0  0  0  0  0  0  0  0  0  0  0  0
    9.0957  -17.7467   26.0044 O   0  0  0  0  0  0  0  0  0  0  0  0
  1  2  1  0
  2  3  2  0
  4  5  1  0
  4  2  1  0
  5  6  1  0
  6  8  1  0
  6  7  1  6
  8 14  1  0
  9  8  2  0
 11 12  1  0
 11 10  1  1
 13 11  1  0
 13 14  1  6
 15 13  1  0
 15 16  2  0
 17 15  1  0
 18 17  1  0
 18 19  1  1
 19 20  1  0
 20 21  1  0
 22 21  1  0
 22 23  1  0
 24 18  1  0
 25 24  1  0
 26 24  2  0
M  END
$$$$
