QTK.pdb
     RDKit          3D

 26 25  0  0  1  0  0  0  0  0999 V2000
   11.2487  -16.1653   13.1923 N   0  0  0  0  0  0  0  0  0  0  0  0
   10.1156  -15.2755   13.1263 C   0  0  0  0  0  0  0  0  0  0  0  0
    9.6193  -14.9909   12.0134 O   0  0  0  0  0  0  0  0  0  0  0  0
    9.6154  -14.7565   14.4032 C   0  0  0  0  0  0  0  0  0  0  0  0
    8.3731  -15.4152   14.9023 C   0  0  0  0  0  0  0  0  0  0  0  0
    8.6082  -16.4038   16.0282 C   0  0  2  0  0  0  0  0  0  0  0  0
    7.4208  -17.1312   16.3705 N   0  0  0  0  0  0  0  0  0  0  0  0
    9.1258  -15.5985   17.1790 C   0  0  0  0  0  0  0  0  0  0  0  0
   10.2526  -15.0629   17.0313 O   0  0  0  0  0  0  0  0  0  0  0  0
    7.4595  -12.7892   19.2282 C   0  0  0  0  0  0  0  0  0  0  0  0
    7.8862  -13.9096   20.1499 C   0  0  1  0  0  0  0  0  0  0  0  0
    6.8295  -14.6691   20.6089 O   0  0  0  0  0  0  0  0  0  0  0  0
    8.9948  -14.7246   19.5388 C   0  0  2  0  0  0  0  0  0  0  0  0
    8.4442  -15.4090   18.3872 N   0  0  0  0  0  0  0  0  0  0  0  0
    9.6048  -15.6651   20.5111 C   0  0  0  0  0  0  0  0  0  0  0  0
    9.3405  -16.8978   20.3343 O   0  0  0  0  0  0  0  0  0  0  0  0
   10.4312  -15.2532   21.5770 N   0  0  0  0  0  0  0  0  0  0  0  0
   11.0059  -16.2924   22.4450 C   0  0  1  0  0  0  0  0  0  0  0  0
   12.4832  -16.0664   22.5913 C   0  0  0  0  0  0  0  0  0  0  0  0
   13.0972  -17.1781   23.3819 C   0  0  0  0  0  0  0  0  0  0  0  0
   14.6125  -17.0066   23.5007 C   0  0  0  0  0  0  0  0  0  0  0  0
   15.1244  -18.2421   24.2112 C   0  0  0  0  0  0  0  0  0  0  0  0
   16.5668  -18.1247   24.3367 N   0  0  0  0  0  0  0  0  0  0  0  0
   10.2501  -16.4014   23.6861 C   0  0  0  0  0  0  0  0  0  0  0  0
   10.3648  -17.5950   24.4322 O   0  0  0  0  0  0  0  0  0  0  0  0
    9.5197  -15.4978   24.1061 O   0  0  0  0  0  0  0  0  0  0  0  0
  1  2  1  0
  2  3  2  0
  4  5  1  0
  4  2  1  0
  5  6  1  0
  6  8  1  0
  6  7  1  1
  8 14  1  0
  9  8  2  0
 11 12  1  0
 11 10  1  6
 13 11  1  0
 13 14  1  6
 15 13  1  0
 15 16  2  0
 17 15  1  0
 18 17  1  0
 18 19  1  1
 19 20  1  0
 20 21  1  0
 22 21  1  0
 22 23  1  0
 24 18  1  0
 25 24  1  0
 26 24  2  0
M  END
$$$$
