QTK.pdb
     RDKit          3D

 26 25  0  0  1  0  0  0  0  0999 V2000
   14.5503  -16.0316   19.9531 N   0  0  0  0  0  0  0  0  0  0  0  0
   14.8117  -15.6349   18.5914 C   0  0  0  0  0  0  0  0  0  0  0  0
   15.7216  -16.2035   17.9475 O   0  0  0  0  0  0  0  0  0  0  0  0
   13.9685  -14.5657   18.0475 C   0  0  0  0  0  0  0  0  0  0  0  0
   12.9249  -14.0551   18.9837 C   0  0  0  0  0  0  0  0  0  0  0  0
   11.5445  -14.6367   18.7461 C   0  0  2  0  0  0  0  0  0  0  0  0
   10.9643  -14.1771   17.5178 N   0  0  0  0  0  0  0  0  0  0  0  0
   10.7249  -14.2461   19.9361 C   0  0  0  0  0  0  0  0  0  0  0  0
   10.7794  -13.0412   20.2879 O   0  0  0  0  0  0  0  0  0  0  0  0
    7.0584  -14.4799   20.5148 C   0  0  0  0  0  0  0  0  0  0  0  0
    7.7420  -15.2389   21.6300 C   0  0  1  0  0  0  0  0  0  0  0  0
    7.6473  -16.6088   21.4939 O   0  0  0  0  0  0  0  0  0  0  0  0
    9.1503  -14.7489   21.8381 C   0  0  2  0  0  0  0  0  0  0  0  0
    9.9162  -15.1244   20.6676 N   0  0  0  0  0  0  0  0  0  0  0  0
    9.7494  -15.2710   23.0912 C   0  0  0  0  0  0  0  0  0  0  0  0
   10.7064  -16.0984   22.9484 O   0  0  0  0  0  0  0  0  0  0  0  0
    9.3104  -14.8955   24.3777 N   0  0  0  0  0  0  0  0  0  0  0  0
    9.9816  -15.4999   25.5388 C   0  0  1  0  0  0  0  0  0  0  0  0
    9.7970  -14.6202   26.7417 C   0  0  0  0  0  0  0  0  0  0  0  0
   10.3648  -15.2844   27.9559 C   0  0  0  0  0  0  0  0  0  0  0  0
   10.0608  -14.4832   29.2229 C   0  0  0  0  0  0  0  0  0  0  0  0
   10.6856  -15.2502   30.3694 C   0  0  0  0  0  0  0  0  0  0  0  0
   10.4503  -14.5030   31.5927 N   0  0  0  0  0  0  0  0  0  0  0  0
    9.5806  -16.8918   25.6974 C   0  0  0  0  0  0  0  0  0  0  0  0
    8.3008  -17.2720   25.2367 O   0  0  0  0  0  0  0  0  0  0  0  0
   10.3108  -17.7436   26.2146 O   0  0  0  0  0  0  0  0  0  0  0  0
  1  2  1  0
  2  3  2  0
  4  5  1  0
  4  2  1  0
  5  6  1  0
  6  8  1  0
  6  7  1  6
  8 14  1  0
  9  8  2  0
 11 12  1  0
 11 10  1  6
 13 11  1  0
 13 14  1  6
 15 13  1  0
 15 16  2  0
 17 15  1  0
 18 17  1  0
 18 19  1  1
 19 20  1  0
 20 21  1  0
 22 21  1  0
 22 23  1  0
 24 18  1  0
 25 24  1  0
 26 24  2  0
M  END
$$$$
