QTK.pdb
     RDKit          3D

 26 25  0  0  1  0  0  0  0  0999 V2000
    7.4615  -13.1750   15.4146 N   0  0  0  0  0  0  0  0  0  0  0  0
    7.6434  -14.6009   15.2970 C   0  0  0  0  0  0  0  0  0  0  0  0
    7.5546  -15.1430   14.1727 O   0  0  0  0  0  0  0  0  0  0  0  0
    7.9271  -15.3294   16.5375 C   0  0  0  0  0  0  0  0  0  0  0  0
    8.1278  -14.4659   17.7376 C   0  0  0  0  0  0  0  0  0  0  0  0
    9.3646  -14.8095   18.5455 C   0  0  2  0  0  0  0  0  0  0  0  0
    9.7420  -16.1857   18.4040 N   0  0  0  0  0  0  0  0  0  0  0  0
    9.0381  -14.4588   19.9636 C   0  0  0  0  0  0  0  0  0  0  0  0
    8.6909  -13.2720   20.1858 O   0  0  0  0  0  0  0  0  0  0  0  0
    7.1828  -13.2317   21.4789 C   0  0  0  0  0  0  0  0  0  0  0  0
    7.2061  -14.5407   22.2359 C   0  0  1  0  0  0  0  0  0  0  0  0
    6.3130  -15.4702   21.7434 O   0  0  0  0  0  0  0  0  0  0  0  0
    8.6106  -15.0658   22.3715 C   0  0  2  0  0  0  0  0  0  0  0  0
    9.0947  -15.3553   21.0376 N   0  0  0  0  0  0  0  0  0  0  0  0
    8.6862  -16.2487   23.2643 C   0  0  0  0  0  0  0  0  0  0  0  0
    8.5521  -17.3819   22.6998 O   0  0  0  0  0  0  0  0  0  0  0  0
    8.8927  -16.1596   24.6565 N   0  0  0  0  0  0  0  0  0  0  0  0
    8.8658  -17.4052   25.4386 C   0  0  1  0  0  0  0  0  0  0  0  0
    9.6793  -17.2328   26.6889 C   0  0  0  0  0  0  0  0  0  0  0  0
    9.7058  -18.5114   27.4649 C   0  0  0  0  0  0  0  0  0  0  0  0
   10.5852  -18.3892   28.7105 C   0  0  0  0  0  0  0  0  0  0  0  0
   10.6579  -19.7755   29.3156 C   0  0  0  0  0  0  0  0  0  0  0  0
   11.5268  -19.7148   30.4781 N   0  0  0  0  0  0  0  0  0  0  0  0
    7.4958  -17.8650   25.6257 C   0  0  0  0  0  0  0  0  0  0  0  0
    6.4506  -16.9323   25.4461 O   0  0  0  0  0  0  0  0  0  0  0  0
    7.2168  -19.0287   25.9327 O   0  0  0  0  0  0  0  0  0  0  0  0
  1  2  1  0
  2  3  2  0
  4  5  1  0
  4  2  1  0
  5  6  1  0
  6  8  1  0
  6  7  1  1
  8 14  1  0
  9  8  2  0
 11 12  1  0
 11 10  1  6
 13 11  1  0
 13 14  1  6
 15 13  1  0
 15 16  2  0
 17 15  1  0
 18 17  1  0
 18 19  1  1
 19 20  1  0
 20 21  1  0
 22 21  1  0
 22 23  1  0
 24 18  1  0
 25 24  1  0
 26 24  2  0
M  END
$$$$
