QTK.pdb
     RDKit          3D

 26 25  0  0  1  0  0  0  0  0999 V2000
   13.0946  -17.5772   15.2751 N   0  0  0  0  0  0  0  0  0  0  0  0
   11.8021  -17.3008   14.6981 C   0  0  0  0  0  0  0  0  0  0  0  0
   11.6358  -17.4356   13.4652 O   0  0  0  0  0  0  0  0  0  0  0  0
   10.7498  -16.8709   15.6243 C   0  0  0  0  0  0  0  0  0  0  0  0
   11.1635  -16.8123   17.0567 C   0  0  0  0  0  0  0  0  0  0  0  0
   10.1477  -17.4006   18.0172 C   0  0  2  0  0  0  0  0  0  0  0  0
    8.8797  -17.6373   17.3906 N   0  0  0  0  0  0  0  0  0  0  0  0
   10.0425  -16.4270   19.1492 C   0  0  0  0  0  0  0  0  0  0  0  0
   11.1051  -16.1591   19.7637 O   0  0  0  0  0  0  0  0  0  0  0  0
    7.8387  -13.0383   19.4979 C   0  0  0  0  0  0  0  0  0  0  0  0
    7.5434  -14.0857   20.5479 C   0  0  1  0  0  0  0  0  0  0  0  0
    6.3563  -14.7549   20.3305 O   0  0  0  0  0  0  0  0  0  0  0  0
    8.7226  -14.9992   20.7520 C   0  0  2  0  0  0  0  0  0  0  0  0
    8.8550  -15.8079   19.5578 N   0  0  0  0  0  0  0  0  0  0  0  0
    8.5897  -15.8260   21.9770 C   0  0  0  0  0  0  0  0  0  0  0  0
    8.2192  -17.0308   21.7982 O   0  0  0  0  0  0  0  0  0  0  0  0
    8.8497  -15.3395   23.2749 N   0  0  0  0  0  0  0  0  0  0  0  0
    8.4886  -16.1939   24.4166 C   0  0  1  0  0  0  0  0  0  0  0  0
    9.6940  -16.4094   25.2858 C   0  0  0  0  0  0  0  0  0  0  0  0
    9.3524  -17.3223   26.4206 C   0  0  0  0  0  0  0  0  0  0  0  0
   10.5615  -17.5620   27.3263 C   0  0  0  0  0  0  0  0  0  0  0  0
   10.0908  -18.4928   28.4241 C   0  0  0  0  0  0  0  0  0  0  0  0
   11.2163  -18.7585   29.3031 N   0  0  0  0  0  0  0  0  0  0  0  0
    7.3007  -15.6810   25.0869 C   0  0  0  0  0  0  0  0  0  0  0  0
    6.5285  -16.5814   25.8535 O   0  0  0  0  0  0  0  0  0  0  0  0
    6.9471  -14.4997   25.0107 O   0  0  0  0  0  0  0  0  0  0  0  0
  1  2  1  0
  2  3  2  0
  4  5  1  0
  4  2  1  0
  5  6  1  0
  6  8  1  0
  6  7  1  6
  8 14  1  0
  9  8  2  0
 11 12  1  0
 11 10  1  6
 13 11  1  0
 13 14  1  6
 15 13  1  0
 15 16  2  0
 17 15  1  0
 18 17  1  0
 18 19  1  1
 19 20  1  0
 20 21  1  0
 22 21  1  0
 22 23  1  0
 24 18  1  0
 25 24  1  0
 26 24  2  0
M  END
$$$$
