QTK.pdb
     RDKit          3D

 26 25  0  0  1  0  0  0  0  0999 V2000
    7.7003  -13.1963   15.6369 N   0  0  0  0  0  0  0  0  0  0  0  0
    8.3734  -14.3939   15.1977 C   0  0  0  0  0  0  0  0  0  0  0  0
    8.2548  -14.7671   14.0092 O   0  0  0  0  0  0  0  0  0  0  0  0
    9.1689  -15.1044   16.2039 C   0  0  0  0  0  0  0  0  0  0  0  0
    9.1204  -14.5112   17.5721 C   0  0  0  0  0  0  0  0  0  0  0  0
    9.8767  -15.3082   18.6176 C   0  0  2  0  0  0  0  0  0  0  0  0
    9.6399  -16.7180   18.5037 N   0  0  0  0  0  0  0  0  0  0  0  0
    9.4352  -14.7690   19.9423 C   0  0  0  0  0  0  0  0  0  0  0  0
    9.7489  -13.5802   20.2006 O   0  0  0  0  0  0  0  0  0  0  0  0
    5.8936  -14.8096   21.3225 C   0  0  0  0  0  0  0  0  0  0  0  0
    6.8215  -15.4276   22.3442 C   0  0  1  0  0  0  0  0  0  0  0  0
    6.7050  -16.8002   22.4254 O   0  0  0  0  0  0  0  0  0  0  0  0
    8.2370  -14.9523   22.1515 C   0  0  2  0  0  0  0  0  0  0  0  0
    8.7077  -15.4944   20.8936 N   0  0  0  0  0  0  0  0  0  0  0  0
    9.1164  -15.3256   23.2869 C   0  0  0  0  0  0  0  0  0  0  0  0
   10.0654  -16.1297   23.0153 O   0  0  0  0  0  0  0  0  0  0  0  0
    8.9407  -14.8387   24.5987 N   0  0  0  0  0  0  0  0  0  0  0  0
    9.7790  -15.4096   25.6641 C   0  0  1  0  0  0  0  0  0  0  0  0
    9.5898  -14.6239   26.9297 C   0  0  0  0  0  0  0  0  0  0  0  0
   10.3883  -15.2345   28.0376 C   0  0  0  0  0  0  0  0  0  0  0  0
   10.1730  -14.4892   29.3559 C   0  0  0  0  0  0  0  0  0  0  0  0
   11.0035  -15.2150   30.3936 C   0  0  0  0  0  0  0  0  0  0  0  0
   10.9037  -14.4821   31.6437 N   0  0  0  0  0  0  0  0  0  0  0  0
    9.5699  -16.8480   25.7674 C   0  0  0  0  0  0  0  0  0  0  0  0
    8.2585  -17.3436   25.5963 O   0  0  0  0  0  0  0  0  0  0  0  0
   10.4875  -17.6426   25.9970 O   0  0  0  0  0  0  0  0  0  0  0  0
  1  2  1  0
  2  3  2  0
  4  5  1  0
  4  2  1  0
  5  6  1  0
  6  8  1  0
  6  7  1  1
  8 14  1  0
  9  8  2  0
 11 12  1  0
 11 10  1  6
 13 11  1  0
 13 14  1  6
 15 13  1  0
 15 16  2  0
 17 15  1  0
 18 17  1  0
 18 19  1  1
 19 20  1  0
 20 21  1  0
 22 21  1  0
 22 23  1  0
 24 18  1  0
 25 24  1  0
 26 24  2  0
M  END
$$$$
