QTK.pdb
     RDKit          3D

 26 25  0  0  1  0  0  0  0  0999 V2000
    6.3831  -20.4340   20.4819 N   0  0  0  0  0  0  0  0  0  0  0  0
    5.5864  -20.3023   19.2869 C   0  0  0  0  0  0  0  0  0  0  0  0
    4.4640  -20.8526   19.2306 O   0  0  0  0  0  0  0  0  0  0  0  0
    6.1665  -19.5113   18.1971 C   0  0  0  0  0  0  0  0  0  0  0  0
    7.4638  -18.8514   18.5254 C   0  0  0  0  0  0  0  0  0  0  0  0
    7.5587  -17.4109   18.0604 C   0  0  2  0  0  0  0  0  0  0  0  0
    8.2015  -17.2922   16.7841 N   0  0  0  0  0  0  0  0  0  0  0  0
    8.3031  -16.6818   19.1351 C   0  0  0  0  0  0  0  0  0  0  0  0
    9.4603  -17.0936   19.3989 O   0  0  0  0  0  0  0  0  0  0  0  0
    8.1834  -12.7473   19.6334 C   0  0  0  0  0  0  0  0  0  0  0  0
    7.9704  -13.4794   20.9394 C   0  0  1  0  0  0  0  0  0  0  0  0
    6.6665  -13.4246   21.3878 O   0  0  0  0  0  0  0  0  0  0  0  0
    8.5294  -14.8760   20.8779 C   0  0  2  0  0  0  0  0  0  0  0  0
    7.7985  -15.5893   19.8509 N   0  0  0  0  0  0  0  0  0  0  0  0
    8.4690  -15.5655   22.1904 C   0  0  0  0  0  0  0  0  0  0  0  0
    7.5299  -16.4134   22.3313 O   0  0  0  0  0  0  0  0  0  0  0  0
    9.3795  -15.3211   23.2393 N   0  0  0  0  0  0  0  0  0  0  0  0
    9.2276  -16.0979   24.4791 C   0  0  1  0  0  0  0  0  0  0  0  0
    9.3414  -17.5635   24.1725 C   0  0  0  0  0  0  0  0  0  0  0  0
    9.2785  -18.3594   25.4376 C   0  0  0  0  0  0  0  0  0  0  0  0
    9.3053  -19.8620   25.1526 C   0  0  0  0  0  0  0  0  0  0  0  0
    9.2584  -20.5499   26.5008 C   0  0  0  0  0  0  0  0  0  0  0  0
    9.3733  -21.9811   26.2807 N   0  0  0  0  0  0  0  0  0  0  0  0
   10.1173  -15.5908   25.5157 C   0  0  0  0  0  0  0  0  0  0  0  0
    9.7724  -15.8304   26.8641 O   0  0  0  0  0  0  0  0  0  0  0  0
   11.1520  -14.9652   25.2620 O   0  0  0  0  0  0  0  0  0  0  0  0
  1  2  1  0
  2  3  2  0
  4  5  1  0
  4  2  1  0
  5  6  1  0
  6  8  1  0
  6  7  1  6
  8 14  1  0
  9  8  2  0
 11 12  1  0
 11 10  1  6
 13 11  1  0
 13 14  1  6
 15 13  1  0
 15 16  2  0
 17 15  1  0
 18 17  1  0
 18 19  1  6
 19 20  1  0
 20 21  1  0
 22 21  1  0
 22 23  1  0
 24 18  1  0
 25 24  1  0
 26 24  2  0
M  END
$$$$
