QTK.pdb
     RDKit          3D

 26 25  0  0  1  0  0  0  0  0999 V2000
    7.5194  -12.9037   15.7941 N   0  0  0  0  0  0  0  0  0  0  0  0
    8.0443  -14.2261   15.5575 C   0  0  0  0  0  0  0  0  0  0  0  0
    7.7298  -14.8360   14.5111 O   0  0  0  0  0  0  0  0  0  0  0  0
    8.9319  -14.7725   16.5888 C   0  0  0  0  0  0  0  0  0  0  0  0
    9.0957  -13.9088   17.7944 C   0  0  0  0  0  0  0  0  0  0  0  0
    9.9762  -14.5128   18.8715 C   0  0  2  0  0  0  0  0  0  0  0  0
   10.2939  -15.8861   18.6081 N   0  0  0  0  0  0  0  0  0  0  0  0
    9.2257  -14.3454   20.1557 C   0  0  0  0  0  0  0  0  0  0  0  0
    8.9233  -13.1710   20.4837 O   0  0  0  0  0  0  0  0  0  0  0  0
    5.9310  -15.6641   21.3312 C   0  0  0  0  0  0  0  0  0  0  0  0
    6.9942  -16.1383   22.2965 C   0  0  1  0  0  0  0  0  0  0  0  0
    7.3128  -17.4721   22.1431 O   0  0  0  0  0  0  0  0  0  0  0  0
    8.1916  -15.2257   22.2783 C   0  0  2  0  0  0  0  0  0  0  0  0
    8.8469  -15.3977   20.9982 N   0  0  0  0  0  0  0  0  0  0  0  0
    9.1097  -15.4778   23.4165 C   0  0  0  0  0  0  0  0  0  0  0  0
   10.2493  -15.9597   23.1165 O   0  0  0  0  0  0  0  0  0  0  0  0
    8.7732  -15.2118   24.7599 N   0  0  0  0  0  0  0  0  0  0  0  0
    9.7232  -15.6267   25.8036 C   0  0  1  0  0  0  0  0  0  0  0  0
    9.4964  -14.8115   27.0442 C   0  0  0  0  0  0  0  0  0  0  0  0
   10.4126  -15.2695   28.1344 C   0  0  0  0  0  0  0  0  0  0  0  0
   10.1087  -14.5573   29.4536 C   0  0  0  0  0  0  0  0  0  0  0  0
   11.0848  -15.1124   30.4695 C   0  0  0  0  0  0  0  0  0  0  0  0
   10.8789  -14.4088   31.7236 N   0  0  0  0  0  0  0  0  0  0  0  0
    9.6978  -17.0734   25.9761 C   0  0  0  0  0  0  0  0  0  0  0  0
   10.9012  -17.7224   26.3301 O   0  0  0  0  0  0  0  0  0  0  0  0
    8.6733  -17.7472   25.8257 O   0  0  0  0  0  0  0  0  0  0  0  0
  1  2  1  0
  2  3  2  0
  4  5  1  0
  4  2  1  0
  5  6  1  0
  6  8  1  0
  6  7  1  6
  8 14  1  0
  9  8  2  0
 11 12  1  0
 11 10  1  6
 13 11  1  0
 13 14  1  6
 15 13  1  0
 15 16  2  0
 17 15  1  0
 18 17  1  0
 18 19  1  1
 19 20  1  0
 20 21  1  0
 22 21  1  0
 22 23  1  0
 24 18  1  0
 25 24  1  0
 26 24  2  0
M  END
$$$$
