QTK.pdb
     RDKit          3D

 26 25  0  0  1  0  0  0  0  0999 V2000
   13.1371  -18.7174   18.1319 N   0  0  0  0  0  0  0  0  0  0  0  0
   13.1818  -18.5635   16.6986 C   0  0  0  0  0  0  0  0  0  0  0  0
   14.1419  -19.0450   16.0565 O   0  0  0  0  0  0  0  0  0  0  0  0
   12.0683  -17.8345   16.0832 C   0  0  0  0  0  0  0  0  0  0  0  0
   10.9112  -17.5790   16.9900 C   0  0  0  0  0  0  0  0  0  0  0  0
   10.1076  -16.3435   16.6322 C   0  0  2  0  0  0  0  0  0  0  0  0
   10.6706  -15.6306   15.5226 N   0  0  0  0  0  0  0  0  0  0  0  0
   10.0652  -15.5086   17.8739 C   0  0  0  0  0  0  0  0  0  0  0  0
   11.0228  -14.7156   18.0537 O   0  0  0  0  0  0  0  0  0  0  0  0
    7.6078  -12.9559   19.0872 C   0  0  0  0  0  0  0  0  0  0  0  0
    7.6879  -14.0717   20.1048 C   0  0  1  0  0  0  0  0  0  0  0  0
    6.6109  -14.9330   20.0542 O   0  0  0  0  0  0  0  0  0  0  0  0
    9.0212  -14.7684   20.0446 C   0  0  2  0  0  0  0  0  0  0  0  0
    9.0429  -15.5563   18.8296 N   0  0  0  0  0  0  0  0  0  0  0  0
    9.2820  -15.5916   21.2513 C   0  0  0  0  0  0  0  0  0  0  0  0
    9.3371  -16.8500   21.0657 O   0  0  0  0  0  0  0  0  0  0  0  0
    9.4625  -15.0469   22.5395 N   0  0  0  0  0  0  0  0  0  0  0  0
    9.6754  -15.9781   23.6581 C   0  0  1  0  0  0  0  0  0  0  0  0
   10.0728  -15.2091   24.8852 C   0  0  0  0  0  0  0  0  0  0  0  0
   10.4065  -16.1526   25.9970 C   0  0  0  0  0  0  0  0  0  0  0  0
   10.7964  -15.3986   27.2696 C   0  0  0  0  0  0  0  0  0  0  0  0
   11.0689  -16.4540   28.3208 C   0  0  0  0  0  0  0  0  0  0  0  0
   11.5050  -15.7814   29.5322 N   0  0  0  0  0  0  0  0  0  0  0  0
    8.5350  -16.8730   23.8062 C   0  0  0  0  0  0  0  0  0  0  0  0
    7.2580  -16.3883   23.4472 O   0  0  0  0  0  0  0  0  0  0  0  0
    8.6420  -18.0286   24.2298 O   0  0  0  0  0  0  0  0  0  0  0  0
  1  2  1  0
  2  3  2  0
  4  5  1  0
  4  2  1  0
  5  6  1  0
  6  8  1  0
  6  7  1  6
  8 14  1  0
  9  8  2  0
 11 12  1  0
 11 10  1  6
 13 11  1  0
 13 14  1  6
 15 13  1  0
 15 16  2  0
 17 15  1  0
 18 17  1  0
 18 19  1  1
 19 20  1  0
 20 21  1  0
 22 21  1  0
 22 23  1  0
 24 18  1  0
 25 24  1  0
 26 24  2  0
M  END
$$$$
