QTK.pdb
     RDKit          3D

 26 25  0  0  1  0  0  0  0  0999 V2000
   11.0007  -19.3649   15.7918 N   0  0  0  0  0  0  0  0  0  0  0  0
    9.6533  -18.8737   15.6385 C   0  0  0  0  0  0  0  0  0  0  0  0
    9.3176  -18.3185   14.5685 O   0  0  0  0  0  0  0  0  0  0  0  0
    8.7522  -19.0671   16.7789 C   0  0  0  0  0  0  0  0  0  0  0  0
    8.0075  -17.8451   17.2015 C   0  0  0  0  0  0  0  0  0  0  0  0
    8.7358  -17.0040   18.2323 C   0  0  2  0  0  0  0  0  0  0  0  0
   10.0398  -17.5196   18.5324 N   0  0  0  0  0  0  0  0  0  0  0  0
    7.8503  -16.9771   19.4388 C   0  0  0  0  0  0  0  0  0  0  0  0
    6.6486  -16.6631   19.2499 O   0  0  0  0  0  0  0  0  0  0  0  0
    6.6574  -19.5954   21.5800 C   0  0  0  0  0  0  0  0  0  0  0  0
    7.3921  -18.6335   22.4866 C   0  0  1  0  0  0  0  0  0  0  0  0
    8.6368  -19.0897   22.8699 O   0  0  0  0  0  0  0  0  0  0  0  0
    7.4109  -17.2447   21.9056 C   0  0  2  0  0  0  0  0  0  0  0  0
    8.2709  -17.2749   20.7407 N   0  0  0  0  0  0  0  0  0  0  0  0
    7.8420  -16.2258   22.8945 C   0  0  0  0  0  0  0  0  0  0  0  0
    9.0563  -15.8516   22.8151 O   0  0  0  0  0  0  0  0  0  0  0  0
    6.9860  -15.6839   23.8754 N   0  0  0  0  0  0  0  0  0  0  0  0
    7.5374  -14.6702   24.7877 C   0  0  1  0  0  0  0  0  0  0  0  0
    6.4390  -13.7549   25.2469 C   0  0  0  0  0  0  0  0  0  0  0  0
    6.9743  -12.7637   26.2312 C   0  0  0  0  0  0  0  0  0  0  0  0
    5.8659  -11.8552   26.7659 C   0  0  0  0  0  0  0  0  0  0  0  0
    6.5403  -10.8628   27.6898 C   0  0  0  0  0  0  0  0  0  0  0  0
    5.5227   -9.9631   28.2047 N   0  0  0  0  0  0  0  0  0  0  0  0
    8.3263  -15.2994   25.8388 C   0  0  0  0  0  0  0  0  0  0  0  0
    9.4403  -14.5951   26.3465 O   0  0  0  0  0  0  0  0  0  0  0  0
    8.0602  -16.4149   26.2982 O   0  0  0  0  0  0  0  0  0  0  0  0
  1  2  1  0
  2  3  2  0
  4  5  1  0
  4  2  1  0
  5  6  1  0
  6  8  1  0
  6  7  1  1
  8 14  1  0
  9  8  2  0
 11 12  1  0
 11 10  1  6
 13 11  1  0
 13 14  1  6
 15 13  1  0
 15 16  2  0
 17 15  1  0
 18 17  1  0
 18 19  1  1
 19 20  1  0
 20 21  1  0
 22 21  1  0
 22 23  1  0
 24 18  1  0
 25 24  1  0
 26 24  2  0
M  END
$$$$
