QTK.pdb
     RDKit          3D

 26 25  0  0  1  0  0  0  0  0999 V2000
   10.1804  -14.4261   12.9582 N   0  0  0  0  0  0  0  0  0  0  0  0
    9.9382  -15.8339   12.7597 C   0  0  0  0  0  0  0  0  0  0  0  0
    9.8035  -16.2784   11.5978 O   0  0  0  0  0  0  0  0  0  0  0  0
    9.8662  -16.6626   13.9673 C   0  0  0  0  0  0  0  0  0  0  0  0
    9.9676  -15.9079   15.2504 C   0  0  0  0  0  0  0  0  0  0  0  0
    9.0359  -16.4096   16.3369 C   0  0  2  0  0  0  0  0  0  0  0  0
    7.6548  -16.2632   15.9798 N   0  0  0  0  0  0  0  0  0  0  0  0
    9.3843  -15.6310   17.5670 C   0  0  0  0  0  0  0  0  0  0  0  0
   10.4526  -14.9708   17.5332 O   0  0  0  0  0  0  0  0  0  0  0  0
    7.7231  -12.8558   19.1644 C   0  0  0  0  0  0  0  0  0  0  0  0
    7.8445  -13.9153   20.2366 C   0  0  1  0  0  0  0  0  0  0  0  0
    6.6480  -14.5410   20.5215 O   0  0  0  0  0  0  0  0  0  0  0  0
    8.9679  -14.8705   19.9329 C   0  0  2  0  0  0  0  0  0  0  0  0
    8.6073  -15.5941   18.7312 N   0  0  0  0  0  0  0  0  0  0  0  0
    9.2571  -15.7799   21.0693 C   0  0  0  0  0  0  0  0  0  0  0  0
    8.6596  -16.9039   21.0491 O   0  0  0  0  0  0  0  0  0  0  0  0
   10.1343  -15.4515   22.1236 N   0  0  0  0  0  0  0  0  0  0  0  0
   10.2895  -16.4213   23.2186 C   0  0  1  0  0  0  0  0  0  0  0  0
   11.7460  -16.7281   23.4173 C   0  0  0  0  0  0  0  0  0  0  0  0
   12.2315  -17.6388   22.3344 C   0  0  0  0  0  0  0  0  0  0  0  0
   13.7295  -17.9171   22.4703 C   0  0  0  0  0  0  0  0  0  0  0  0
   14.1062  -18.7929   21.2938 C   0  0  0  0  0  0  0  0  0  0  0  0
   15.5259  -19.0862   21.3867 N   0  0  0  0  0  0  0  0  0  0  0  0
    9.5618  -15.9812   24.4019 C   0  0  0  0  0  0  0  0  0  0  0  0
    9.3974  -16.9002   25.4617 O   0  0  0  0  0  0  0  0  0  0  0  0
    9.0879  -14.8457   24.5120 O   0  0  0  0  0  0  0  0  0  0  0  0
  1  2  1  0
  2  3  2  0
  4  5  1  0
  4  2  1  0
  5  6  1  0
  6  8  1  0
  6  7  1  6
  8 14  1  0
  9  8  2  0
 11 12  1  0
 11 10  1  6
 13 11  1  0
 13 14  1  6
 15 13  1  0
 15 16  2  0
 17 15  1  0
 18 17  1  0
 18 19  1  1
 19 20  1  0
 20 21  1  0
 22 21  1  0
 22 23  1  0
 24 18  1  0
 25 24  1  0
 26 24  2  0
M  END
$$$$
