QTK.pdb
     RDKit          3D

 26 25  0  0  1  0  0  0  0  0999 V2000
   16.0536  -14.5737   17.7687 N   0  0  0  0  0  0  0  0  0  0  0  0
   14.9243  -14.3949   18.6479 C   0  0  0  0  0  0  0  0  0  0  0  0
   15.1014  -13.9099   19.7878 O   0  0  0  0  0  0  0  0  0  0  0  0
   13.6169  -14.8055   18.1264 C   0  0  0  0  0  0  0  0  0  0  0  0
   12.5160  -14.8119   19.1335 C   0  0  0  0  0  0  0  0  0  0  0  0
   11.1680  -15.2217   18.5720 C   0  0  2  0  0  0  0  0  0  0  0  0
   10.6857  -14.2986   17.5863 N   0  0  0  0  0  0  0  0  0  0  0  0
   10.2473  -15.3207   19.7480 C   0  0  0  0  0  0  0  0  0  0  0  0
    9.4970  -14.3360   19.9618 O   0  0  0  0  0  0  0  0  0  0  0  0
    7.5298  -17.7088   20.3641 C   0  0  0  0  0  0  0  0  0  0  0  0
    8.4748  -17.8069   21.5407 C   0  0  1  0  0  0  0  0  0  0  0  0
    9.2659  -18.9371   21.5107 O   0  0  0  0  0  0  0  0  0  0  0  0
    9.2523  -16.5304   21.7219 C   0  0  2  0  0  0  0  0  0  0  0  0
   10.1723  -16.4228   20.6085 N   0  0  0  0  0  0  0  0  0  0  0  0
    9.9481  -16.4754   23.0314 C   0  0  0  0  0  0  0  0  0  0  0  0
   11.1832  -16.7840   23.0191 O   0  0  0  0  0  0  0  0  0  0  0  0
    9.3114  -16.1083   24.2349 N   0  0  0  0  0  0  0  0  0  0  0  0
   10.1080  -16.1316   25.4713 C   0  0  1  0  0  0  0  0  0  0  0  0
    9.4822  -15.2242   26.4911 C   0  0  0  0  0  0  0  0  0  0  0  0
   10.2135  -15.3314   27.7916 C   0  0  0  0  0  0  0  0  0  0  0  0
    9.6375  -14.3731   28.8355 C   0  0  0  0  0  0  0  0  0  0  0  0
   10.4597  -14.5707   30.0917 C   0  0  0  0  0  0  0  0  0  0  0  0
    9.9487  -13.6708   31.1110 N   0  0  0  0  0  0  0  0  0  0  0  0
   10.3517  -17.5029   25.8999 C   0  0  0  0  0  0  0  0  0  0  0  0
   11.6385  -17.8308   26.3809 O   0  0  0  0  0  0  0  0  0  0  0  0
    9.4836  -18.3809   25.8588 O   0  0  0  0  0  0  0  0  0  0  0  0
  1  2  1  0
  2  3  2  0
  4  5  1  0
  4  2  1  0
  5  6  1  0
  6  8  1  0
  6  7  1  6
  8 14  1  0
  9  8  2  0
 11 12  1  0
 11 10  1  6
 13 11  1  0
 13 14  1  6
 15 13  1  0
 15 16  2  0
 17 15  1  0
 18 17  1  0
 18 19  1  1
 19 20  1  0
 20 21  1  0
 22 21  1  0
 22 23  1  0
 24 18  1  0
 25 24  1  0
 26 24  2  0
M  END
$$$$
