QTK.pdb
     RDKit          3D

 26 25  0  0  1  0  0  0  0  0999 V2000
   13.7778  -13.7842   18.3809 N   0  0  0  0  0  0  0  0  0  0  0  0
   14.0973  -15.1326   18.7808 C   0  0  0  0  0  0  0  0  0  0  0  0
   15.2957  -15.4763   18.8878 O   0  0  0  0  0  0  0  0  0  0  0  0
   12.9630  -16.0250   19.0398 C   0  0  0  0  0  0  0  0  0  0  0  0
   12.3003  -15.8262   20.3618 C   0  0  0  0  0  0  0  0  0  0  0  0
   12.1010  -17.1059   21.1511 C   0  0  2  0  0  0  0  0  0  0  0  0
   10.9334  -17.8263   20.7339 N   0  0  0  0  0  0  0  0  0  0  0  0
   12.0238  -16.6932   22.5879 C   0  0  0  0  0  0  0  0  0  0  0  0
   13.0027  -16.0513   23.0440 O   0  0  0  0  0  0  0  0  0  0  0  0
    9.6403  -14.5235   24.3624 C   0  0  0  0  0  0  0  0  0  0  0  0
    9.6187  -15.8599   25.0700 C   0  0  1  0  0  0  0  0  0  0  0  0
    8.4843  -16.5989   24.8032 O   0  0  0  0  0  0  0  0  0  0  0  0
   10.8999  -16.6171   24.8419 C   0  0  2  0  0  0  0  0  0  0  0  0
   10.9477  -16.9732   23.4389 N   0  0  0  0  0  0  0  0  0  0  0  0
   11.0185  -17.8032   25.7257 C   0  0  0  0  0  0  0  0  0  0  0  0
   10.6385  -18.9106   25.2255 O   0  0  0  0  0  0  0  0  0  0  0  0
   11.5170  -17.7436   27.0435 N   0  0  0  0  0  0  0  0  0  0  0  0
   11.5179  -18.9823   27.8369 C   0  0  1  0  0  0  0  0  0  0  0  0
   12.7745  -19.0552   28.6558 C   0  0  0  0  0  0  0  0  0  0  0  0
   12.7993  -20.3248   29.4465 C   0  0  0  0  0  0  0  0  0  0  0  0
   13.9846  -20.3563   30.4129 C   0  0  0  0  0  0  0  0  0  0  0  0
   13.9406  -21.7083   31.0936 C   0  0  0  0  0  0  0  0  0  0  0  0
   14.9776  -21.7349   32.1104 N   0  0  0  0  0  0  0  0  0  0  0  0
   10.2673  -19.1231   28.5714 C   0  0  0  0  0  0  0  0  0  0  0  0
    9.8398  -20.4249   28.9137 O   0  0  0  0  0  0  0  0  0  0  0  0
    9.5736  -18.1560   28.9028 O   0  0  0  0  0  0  0  0  0  0  0  0
  1  2  1  0
  2  3  2  0
  4  5  1  0
  4  2  1  0
  5  6  1  0
  6  8  1  0
  6  7  1  6
  8 14  1  0
  9  8  2  0
 11 12  1  0
 11 10  1  6
 13 11  1  0
 13 14  1  6
 15 13  1  0
 15 16  2  0
 17 15  1  0
 18 17  1  0
 18 19  1  1
 19 20  1  0
 20 21  1  0
 22 21  1  0
 22 23  1  0
 24 18  1  0
 25 24  1  0
 26 24  2  0
M  END
$$$$
