QTK.pdb
     RDKit          3D

 26 25  0  0  1  0  0  0  0  0999 V2000
   14.4046  -18.4064   19.6579 N   0  0  0  0  0  0  0  0  0  0  0  0
   13.8418  -18.7066   18.3643 C   0  0  0  0  0  0  0  0  0  0  0  0
   14.4637  -19.4586   17.5810 O   0  0  0  0  0  0  0  0  0  0  0  0
   12.5470  -18.0920   18.0549 C   0  0  0  0  0  0  0  0  0  0  0  0
   11.5537  -18.1327   19.1675 C   0  0  0  0  0  0  0  0  0  0  0  0
   10.2184  -17.4995   18.8265 C   0  0  2  0  0  0  0  0  0  0  0  0
   10.2065  -16.9299   17.5105 N   0  0  0  0  0  0  0  0  0  0  0  0
    9.9696  -16.4722   19.8863 C   0  0  0  0  0  0  0  0  0  0  0  0
   10.5643  -15.3731   19.7576 O   0  0  0  0  0  0  0  0  0  0  0  0
    6.8683  -14.7445   20.7082 C   0  0  0  0  0  0  0  0  0  0  0  0
    7.3306  -15.4428   21.9674 C   0  0  1  0  0  0  0  0  0  0  0  0
    6.6266  -16.5981   22.2390 O   0  0  0  0  0  0  0  0  0  0  0  0
    8.8242  -15.6319   21.9676 C   0  0  2  0  0  0  0  0  0  0  0  0
    9.1304  -16.6574   20.9918 N   0  0  0  0  0  0  0  0  0  0  0  0
    9.3500  -15.9652   23.3147 C   0  0  0  0  0  0  0  0  0  0  0  0
   10.0390  -17.0327   23.3951 O   0  0  0  0  0  0  0  0  0  0  0  0
    9.1199  -15.1709   24.4570 N   0  0  0  0  0  0  0  0  0  0  0  0
    9.6627  -15.6378   25.7420 C   0  0  1  0  0  0  0  0  0  0  0  0
    9.5584  -14.5402   26.7616 C   0  0  0  0  0  0  0  0  0  0  0  0
   10.1353  -14.9936   28.0652 C   0  0  0  0  0  0  0  0  0  0  0  0
   10.0289  -13.9020   29.1314 C   0  0  0  0  0  0  0  0  0  0  0  0
   10.6052  -14.4922   30.4012 C   0  0  0  0  0  0  0  0  0  0  0  0
   10.4945  -13.4956   31.4522 N   0  0  0  0  0  0  0  0  0  0  0  0
    9.0710  -16.9158   26.1160 C   0  0  0  0  0  0  0  0  0  0  0  0
    7.7883  -17.2275   25.6137 O   0  0  0  0  0  0  0  0  0  0  0  0
    9.6435  -17.7292   26.8487 O   0  0  0  0  0  0  0  0  0  0  0  0
  1  2  1  0
  2  3  2  0
  4  5  1  0
  4  2  1  0
  5  6  1  0
  6  8  1  0
  6  7  1  6
  8 14  1  0
  9  8  2  0
 11 12  1  0
 11 10  1  6
 13 11  1  0
 13 14  1  6
 15 13  1  0
 15 16  2  0
 17 15  1  0
 18 17  1  0
 18 19  1  1
 19 20  1  0
 20 21  1  0
 22 21  1  0
 22 23  1  0
 24 18  1  0
 25 24  1  0
 26 24  2  0
M  END
$$$$
