SVH.pdb
     RDKit          3D

 24 24  0  0  1  0  0  0  0  0999 V2000
    7.8429  -17.1280   22.5225 O   0  0  0  0  0  0  0  0  0  0  0  0
    6.6658  -16.4727   22.2143 C   0  0  0  0  0  0  0  0  0  0  0  0
    6.9947  -15.0001   22.0469 C   0  0  2  0  0  0  0  0  0  0  0  0
    7.7451  -14.7091   20.8714 N   0  0  0  0  0  0  0  0  0  0  0  0
    7.8211  -14.5776   23.2448 C   0  0  0  0  0  0  0  0  0  0  0  0
    9.0399  -14.5499   23.0327 O   0  0  0  0  0  0  0  0  0  0  0  0
    6.3350  -11.7827   25.8646 C   0  0  0  0  0  0  0  0  0  0  0  0
    6.9918  -12.9579   26.5566 C   0  0  2  0  0  0  0  0  0  0  0  0
    7.5587  -12.4965   27.8474 C   0  0  0  0  0  0  0  0  0  0  0  0
    7.8341  -13.8267   25.6898 C   0  0  2  0  0  0  0  0  0  0  0  0
    7.2394  -14.2603   24.4453 N   0  0  0  0  0  0  0  0  0  0  0  0
    8.5605  -14.9190   26.3473 C   0  0  0  0  0  0  0  0  0  0  0  0
    7.8730  -15.9545   26.6848 O   0  0  0  0  0  0  0  0  0  0  0  0
    9.9196  -14.9745   26.6499 N   0  0  0  0  0  0  0  0  0  0  0  0
   10.5655  -16.0481   27.3780 C   0  0  1  0  0  0  0  0  0  0  0  0
   12.0026  -16.1067   26.8400 C   0  0  0  0  0  0  0  0  0  0  0  0
   12.0033  -16.4799   25.4059 C   0  0  0  0  0  0  0  0  0  0  0  0
   10.9180  -16.8043   24.6200 C   0  0  0  0  0  0  0  0  0  0  0  0
   11.3203  -17.0905   23.3568 N   0  0  0  0  0  0  0  0  0  0  0  0
   12.6556  -16.9450   23.3530 C   0  0  0  0  0  0  0  0  0  0  0  0
   13.0609  -16.5795   24.5813 N   0  0  0  0  0  0  0  0  0  0  0  0
   10.5446  -15.8872   28.8243 C   0  0  0  0  0  0  0  0  0  0  0  0
   10.2503  -14.7896   29.3391 O   0  0  0  0  0  0  0  0  0  0  0  0
   10.8489  -16.9407   29.6635 O   0  0  0  0  0  0  0  0  0  0  0  0
  2  1  1  0
  2  3  1  0
  3  4  1  6
  5  3  1  0
  5  6  2  0
  8  7  1  6
  8 10  1  0
  8  9  1  0
 10 11  1  6
 11  5  1  0
 12 10  1  0
 13 12  2  0
 14 12  1  0
 15 22  1  0
 15 14  1  0
 15 16  1  6
 17 18  2  0
 17 16  1  0
 19 18  1  0
 20 21  2  0
 20 19  1  0
 21 17  1  0
 22 24  1  0
 23 22  2  0
M  END
$$$$
