SVH.pdb
     RDKit          3D

 24 24  0  0  1  0  0  0  0  0999 V2000
    6.9829  -19.9002   17.1957 O   0  0  0  0  0  0  0  0  0  0  0  0
    7.6370  -19.0967   18.1103 C   0  0  0  0  0  0  0  0  0  0  0  0
    8.0059  -17.8062   17.4009 C   0  0  2  0  0  0  0  0  0  0  0  0
    8.8792  -17.9906   16.2905 N   0  0  0  0  0  0  0  0  0  0  0  0
    8.7103  -16.9177   18.4063 C   0  0  0  0  0  0  0  0  0  0  0  0
    9.9453  -16.9719   18.3497 O   0  0  0  0  0  0  0  0  0  0  0  0
    8.1208  -13.2079   21.7805 C   0  0  0  0  0  0  0  0  0  0  0  0
    7.5408  -14.2243   20.8205 C   0  0  2  0  0  0  0  0  0  0  0  0
    6.2038  -14.6376   21.3123 C   0  0  0  0  0  0  0  0  0  0  0  0
    8.4792  -15.2846   20.3613 C   0  0  2  0  0  0  0  0  0  0  0  0
    8.0120  -16.1337   19.2883 N   0  0  0  0  0  0  0  0  0  0  0  0
    9.1667  -16.0606   21.3997 C   0  0  0  0  0  0  0  0  0  0  0  0
    8.6560  -17.2025   21.7065 O   0  0  0  0  0  0  0  0  0  0  0  0
   10.3202  -15.7101   22.0986 N   0  0  0  0  0  0  0  0  0  0  0  0
   11.1014  -16.6139   22.9188 C   0  0  1  0  0  0  0  0  0  0  0  0
   12.5557  -16.4383   22.4580 C   0  0  0  0  0  0  0  0  0  0  0  0
   13.4528  -17.3359   23.2231 C   0  0  0  0  0  0  0  0  0  0  0  0
   13.1229  -18.1486   24.2868 C   0  0  0  0  0  0  0  0  0  0  0  0
   14.2176  -18.8195   24.7239 N   0  0  0  0  0  0  0  0  0  0  0  0
   15.2306  -18.4268   23.9342 C   0  0  0  0  0  0  0  0  0  0  0  0
   14.7692  -17.5386   23.0371 N   0  0  0  0  0  0  0  0  0  0  0  0
   10.9659  -16.3908   24.3505 C   0  0  0  0  0  0  0  0  0  0  0  0
   11.3731  -17.2397   25.1690 O   0  0  0  0  0  0  0  0  0  0  0  0
   10.3850  -15.2380   24.8409 O   0  0  0  0  0  0  0  0  0  0  0  0
  2  1  1  0
  2  3  1  0
  3  4  1  6
  5  3  1  0
  5  6  2  0
  8  7  1  1
  8 10  1  0
  8  9  1  0
 10 11  1  1
 11  5  1  0
 12 10  1  0
 13 12  2  0
 14 12  1  0
 15 22  1  0
 15 14  1  0
 15 16  1  6
 17 18  2  0
 17 16  1  0
 19 18  1  0
 20 21  2  0
 20 19  1  0
 21 17  1  0
 22 24  1  0
 23 22  2  0
M  END
$$$$
