SVH.pdb
     RDKit          3D

 24 24  0  0  1  0  0  0  0  0999 V2000
    6.9413  -16.8107   21.5486 O   0  0  0  0  0  0  0  0  0  0  0  0
    6.0781  -15.7327   21.4955 C   0  0  0  0  0  0  0  0  0  0  0  0
    6.9244  -14.4751   21.4128 C   0  0  2  0  0  0  0  0  0  0  0  0
    7.8075  -14.4494   20.2952 N   0  0  0  0  0  0  0  0  0  0  0  0
    7.7636  -14.4056   22.6727 C   0  0  0  0  0  0  0  0  0  0  0  0
    8.9595  -14.6712   22.4978 O   0  0  0  0  0  0  0  0  0  0  0  0
    6.7719  -11.6732   25.6303 C   0  0  0  0  0  0  0  0  0  0  0  0
    7.1403  -13.0446   26.1546 C   0  0  2  0  0  0  0  0  0  0  0  0
    7.7225  -12.8971   27.5109 C   0  0  0  0  0  0  0  0  0  0  0  0
    7.8318  -13.9394   25.1867 C   0  0  2  0  0  0  0  0  0  0  0  0
    7.2161  -14.0745   23.8855 N   0  0  0  0  0  0  0  0  0  0  0  0
    8.3026  -15.2329   25.6950 C   0  0  0  0  0  0  0  0  0  0  0  0
    7.4126  -16.1466   25.8734 O   0  0  0  0  0  0  0  0  0  0  0  0
    9.6107  -15.5980   26.0072 N   0  0  0  0  0  0  0  0  0  0  0  0
   10.0053  -16.8736   26.5704 C   0  0  1  0  0  0  0  0  0  0  0  0
   11.4363  -17.1211   26.0714 C   0  0  0  0  0  0  0  0  0  0  0  0
   11.4397  -17.3647   24.6097 C   0  0  0  0  0  0  0  0  0  0  0  0
   10.3503  -17.4705   23.7715 C   0  0  0  0  0  0  0  0  0  0  0  0
   10.7568  -17.6972   22.4975 N   0  0  0  0  0  0  0  0  0  0  0  0
   12.0989  -17.7329   22.5394 C   0  0  0  0  0  0  0  0  0  0  0  0
   12.5041  -17.5336   23.8053 N   0  0  0  0  0  0  0  0  0  0  0  0
    9.9295  -16.9356   28.0224 C   0  0  0  0  0  0  0  0  0  0  0  0
    9.7030  -15.9082   28.6931 O   0  0  0  0  0  0  0  0  0  0  0  0
   10.1058  -18.1283   28.6955 O   0  0  0  0  0  0  0  0  0  0  0  0
  2  1  1  0
  2  3  1  0
  3  4  1  6
  5  3  1  0
  5  6  2  0
  8  7  1  6
  8 10  1  0
  8  9  1  0
 10 11  1  6
 11  5  1  0
 12 10  1  0
 13 12  2  0
 14 12  1  0
 15 22  1  0
 15 14  1  0
 15 16  1  1
 17 18  2  0
 17 16  1  0
 19 18  1  0
 20 21  2  0
 20 19  1  0
 21 17  1  0
 22 24  1  0
 23 22  2  0
M  END
$$$$
