SVH.pdb
     RDKit          3D

 24 24  0  0  1  0  0  0  0  0999 V2000
    8.0877  -18.7069   19.4298 O   0  0  0  0  0  0  0  0  0  0  0  0
    7.5873  -18.0410   20.5326 C   0  0  0  0  0  0  0  0  0  0  0  0
    7.7475  -16.5530   20.2776 C   0  0  2  0  0  0  0  0  0  0  0  0
    8.4962  -16.2486   19.1044 N   0  0  0  0  0  0  0  0  0  0  0  0
    8.4803  -15.9624   21.4653 C   0  0  0  0  0  0  0  0  0  0  0  0
    9.7037  -15.8662   21.3066 O   0  0  0  0  0  0  0  0  0  0  0  0
    7.1212  -12.8772   23.7947 C   0  0  0  0  0  0  0  0  0  0  0  0
    7.4932  -14.1097   24.5908 C   0  0  2  0  0  0  0  0  0  0  0  0
    7.9168  -13.6911   25.9494 C   0  0  0  0  0  0  0  0  0  0  0  0
    8.3263  -15.1126   23.8729 C   0  0  2  0  0  0  0  0  0  0  0  0
    7.8170  -15.5779   22.6022 N   0  0  0  0  0  0  0  0  0  0  0  0
    8.8726  -16.2172   24.6696 C   0  0  0  0  0  0  0  0  0  0  0  0
    8.0482  -17.1400   25.0268 O   0  0  0  0  0  0  0  0  0  0  0  0
   10.1904  -16.3931   25.0872 N   0  0  0  0  0  0  0  0  0  0  0  0
   10.6699  -17.5105   25.8754 C   0  0  1  0  0  0  0  0  0  0  0  0
   12.1322  -17.7164   25.4543 C   0  0  0  0  0  0  0  0  0  0  0  0
   12.2161  -18.0165   24.0055 C   0  0  0  0  0  0  0  0  0  0  0  0
   11.5102  -18.9681   23.3008 C   0  0  0  0  0  0  0  0  0  0  0  0
   11.8635  -18.9427   21.9916 N   0  0  0  0  0  0  0  0  0  0  0  0
   12.7891  -17.9760   21.8780 C   0  0  0  0  0  0  0  0  0  0  0  0
   12.9977  -17.4238   23.0855 N   0  0  0  0  0  0  0  0  0  0  0  0
   10.5514  -17.3226   27.3137 C   0  0  0  0  0  0  0  0  0  0  0  0
   10.2734  -16.2032   27.7892 O   0  0  0  0  0  0  0  0  0  0  0  0
   10.7430  -18.3737   28.1885 O   0  0  0  0  0  0  0  0  0  0  0  0
  2  1  1  0
  2  3  1  0
  3  4  1  6
  5  3  1  0
  5  6  2  0
  8  7  1  6
  8 10  1  0
  8  9  1  0
 10 11  1  6
 11  5  1  0
 12 10  1  0
 13 12  2  0
 14 12  1  0
 15 22  1  0
 15 14  1  0
 15 16  1  1
 17 18  2  0
 17 16  1  0
 19 18  1  0
 20 21  2  0
 20 19  1  0
 21 17  1  0
 22 24  1  0
 23 22  2  0
M  END
$$$$
