SVH.pdb
     RDKit          3D

 24 24  0  0  1  0  0  0  0  0999 V2000
    8.3382  -19.5918   19.1879 O   0  0  0  0  0  0  0  0  0  0  0  0
    7.1973  -18.9484   18.7469 C   0  0  0  0  0  0  0  0  0  0  0  0
    7.6386  -17.7452   17.9332 C   0  0  2  0  0  0  0  0  0  0  0  0
    8.4705  -18.0752   16.8247 N   0  0  0  0  0  0  0  0  0  0  0  0
    8.4269  -16.8354   18.8538 C   0  0  0  0  0  0  0  0  0  0  0  0
    9.6513  -16.8811   18.6813 O   0  0  0  0  0  0  0  0  0  0  0  0
    7.2955  -13.0272   19.8434 C   0  0  0  0  0  0  0  0  0  0  0  0
    7.5846  -13.9023   21.0442 C   0  0  2  0  0  0  0  0  0  0  0  0
    8.0158  -13.0398   22.1713 C   0  0  0  0  0  0  0  0  0  0  0  0
    8.3657  -15.1386   20.7667 C   0  0  2  0  0  0  0  0  0  0  0  0
    7.8080  -16.0430   19.7862 N   0  0  0  0  0  0  0  0  0  0  0  0
    8.8975  -15.8644   21.9258 C   0  0  0  0  0  0  0  0  0  0  0  0
    8.0771  -16.6281   22.5603 O   0  0  0  0  0  0  0  0  0  0  0  0
   10.1977  -15.8308   22.4261 N   0  0  0  0  0  0  0  0  0  0  0  0
   10.6663  -16.5828   23.5727 C   0  0  1  0  0  0  0  0  0  0  0  0
   12.1949  -16.4368   23.5665 C   0  0  0  0  0  0  0  0  0  0  0  0
   12.7808  -17.1779   22.4248 C   0  0  0  0  0  0  0  0  0  0  0  0
   12.2726  -18.2949   21.7966 C   0  0  0  0  0  0  0  0  0  0  0  0
   13.0964  -18.6862   20.7927 N   0  0  0  0  0  0  0  0  0  0  0  0
   14.1184  -17.8145   20.7933 C   0  0  0  0  0  0  0  0  0  0  0  0
   13.9261  -16.9132   21.7715 N   0  0  0  0  0  0  0  0  0  0  0  0
   10.0959  -16.1560   24.8417 C   0  0  0  0  0  0  0  0  0  0  0  0
    9.6889  -14.9869   24.9963 O   0  0  0  0  0  0  0  0  0  0  0  0
    9.9899  -17.0297   25.9058 O   0  0  0  0  0  0  0  0  0  0  0  0
  2  1  1  0
  2  3  1  0
  3  4  1  6
  5  3  1  0
  5  6  2  0
  8  7  1  6
  8 10  1  0
  8  9  1  0
 10 11  1  1
 11  5  1  0
 12 10  1  0
 13 12  2  0
 14 12  1  0
 15 22  1  0
 15 14  1  0
 15 16  1  1
 17 18  2  0
 17 16  1  0
 19 18  1  0
 20 21  2  0
 20 19  1  0
 21 17  1  0
 22 24  1  0
 23 22  2  0
M  END
$$$$
