SVH.pdb
     RDKit          3D

 24 24  0  0  1  0  0  0  0  0999 V2000
   11.9056  -14.2075   15.6377 O   0  0  0  0  0  0  0  0  0  0  0  0
   12.5828  -15.2515   16.2388 C   0  0  0  0  0  0  0  0  0  0  0  0
   11.5518  -16.1239   16.9322 C   0  0  2  0  0  0  0  0  0  0  0  0
   10.3101  -16.2072   16.2389 N   0  0  0  0  0  0  0  0  0  0  0  0
   11.2853  -15.5196   18.2961 C   0  0  0  0  0  0  0  0  0  0  0  0
   12.2979  -15.3822   18.9939 O   0  0  0  0  0  0  0  0  0  0  0  0
    8.0827  -12.7780   18.8447 C   0  0  0  0  0  0  0  0  0  0  0  0
    8.2252  -13.8911   19.8605 C   0  0  2  0  0  0  0  0  0  0  0  0
    7.6063  -13.4558   21.1364 C   0  0  0  0  0  0  0  0  0  0  0  0
    9.5608  -14.5458   19.9149 C   0  0  2  0  0  0  0  0  0  0  0  0
   10.0210  -15.1665   18.6928 N   0  0  0  0  0  0  0  0  0  0  0  0
    9.8429  -15.3869   21.0837 C   0  0  0  0  0  0  0  0  0  0  0  0
    9.3294  -16.5680   21.0881 O   0  0  0  0  0  0  0  0  0  0  0  0
   10.6111  -15.0608   22.1997 N   0  0  0  0  0  0  0  0  0  0  0  0
   10.8110  -15.9189   23.3502 C   0  0  1  0  0  0  0  0  0  0  0  0
   12.2257  -15.6057   23.8590 C   0  0  0  0  0  0  0  0  0  0  0  0
   13.2415  -16.2436   22.9888 C   0  0  0  0  0  0  0  0  0  0  0  0
   13.0239  -17.0186   21.8696 C   0  0  0  0  0  0  0  0  0  0  0  0
   14.2052  -17.4249   21.3414 N   0  0  0  0  0  0  0  0  0  0  0  0
   15.1602  -16.9043   22.1295 C   0  0  0  0  0  0  0  0  0  0  0  0
   14.5796  -16.1979   23.1146 N   0  0  0  0  0  0  0  0  0  0  0  0
    9.8181  -15.7516   24.4010 C   0  0  0  0  0  0  0  0  0  0  0  0
    8.9909  -14.8189   24.3532 O   0  0  0  0  0  0  0  0  0  0  0  0
    9.7645  -16.6167   25.4758 O   0  0  0  0  0  0  0  0  0  0  0  0
  2  1  1  0
  2  3  1  0
  3  4  1  6
  5  3  1  0
  5  6  2  0
  8  7  1  6
  8 10  1  0
  8  9  1  0
 10 11  1  6
 11  5  1  0
 12 10  1  0
 13 12  2  0
 14 12  1  0
 15 22  1  0
 15 14  1  0
 15 16  1  1
 17 18  2  0
 17 16  1  0
 19 18  1  0
 20 21  2  0
 20 19  1  0
 21 17  1  0
 22 24  1  0
 23 22  2  0
M  END
$$$$
