SVH.pdb
     RDKit          3D

 24 24  0  0  1  0  0  0  0  0999 V2000
    7.5070  -19.5061   19.7707 O   0  0  0  0  0  0  0  0  0  0  0  0
    6.6533  -18.7032   19.0383 C   0  0  0  0  0  0  0  0  0  0  0  0
    7.5077  -17.7072   18.2749 C   0  0  2  0  0  0  0  0  0  0  0  0
    8.5474  -18.3099   17.5098 N   0  0  0  0  0  0  0  0  0  0  0  0
    8.1504  -16.7841   19.2904 C   0  0  0  0  0  0  0  0  0  0  0  0
    9.3158  -17.0841   19.5786 O   0  0  0  0  0  0  0  0  0  0  0  0
    7.2332  -12.7720   19.4730 C   0  0  0  0  0  0  0  0  0  0  0  0
    7.2257  -13.4488   20.8269 C   0  0  2  0  0  0  0  0  0  0  0  0
    7.6188  -12.4581   21.8586 C   0  0  0  0  0  0  0  0  0  0  0  0
    7.8504  -14.7990   20.8752 C   0  0  2  0  0  0  0  0  0  0  0  0
    7.4734  -15.7180   19.8246 N   0  0  0  0  0  0  0  0  0  0  0  0
    7.8950  -15.4657   22.1816 C   0  0  0  0  0  0  0  0  0  0  0  0
    6.8528  -16.1390   22.5269 O   0  0  0  0  0  0  0  0  0  0  0  0
    8.9413  -15.4624   23.1020 N   0  0  0  0  0  0  0  0  0  0  0  0
    9.0193  -16.3108   24.2741 C   0  0  1  0  0  0  0  0  0  0  0  0
    9.1326  -17.7458   23.7392 C   0  0  0  0  0  0  0  0  0  0  0  0
    7.8003  -18.3939   23.7103 C   0  0  0  0  0  0  0  0  0  0  0  0
    6.5902  -17.8473   24.0813 C   0  0  0  0  0  0  0  0  0  0  0  0
    5.5940  -18.7524   23.9145 N   0  0  0  0  0  0  0  0  0  0  0  0
    6.1806  -19.8635   23.4396 C   0  0  0  0  0  0  0  0  0  0  0  0
    7.5013  -19.6452   23.3187 N   0  0  0  0  0  0  0  0  0  0  0  0
   10.1177  -15.9895   25.1732 C   0  0  0  0  0  0  0  0  0  0  0  0
   10.1295  -16.4200   26.3441 O   0  0  0  0  0  0  0  0  0  0  0  0
   11.1730  -15.2020   24.7571 O   0  0  0  0  0  0  0  0  0  0  0  0
  2  1  1  0
  2  3  1  0
  3  4  1  1
  5  3  1  0
  5  6  2  0
  8  7  1  6
  8 10  1  0
  8  9  1  0
 10 11  1  6
 11  5  1  0
 12 10  1  0
 13 12  2  0
 14 12  1  0
 15 22  1  0
 15 14  1  0
 15 16  1  6
 17 18  2  0
 17 16  1  0
 19 18  1  0
 20 21  2  0
 20 19  1  0
 21 17  1  0
 22 24  1  0
 23 22  2  0
M  END
$$$$
