SVH.pdb
     RDKit          3D

 24 24  0  0  1  0  0  0  0  0999 V2000
    7.2616  -19.5085   19.0459 O   0  0  0  0  0  0  0  0  0  0  0  0
    6.2749  -18.6573   18.5857 C   0  0  0  0  0  0  0  0  0  0  0  0
    6.9532  -17.5755   17.7645 C   0  0  2  0  0  0  0  0  0  0  0  0
    7.7858  -18.0807   16.7246 N   0  0  0  0  0  0  0  0  0  0  0  0
    7.8215  -16.7648   18.7054 C   0  0  0  0  0  0  0  0  0  0  0  0
    9.0266  -17.0384   18.6418 O   0  0  0  0  0  0  0  0  0  0  0  0
    7.0368  -12.8612   19.2486 C   0  0  0  0  0  0  0  0  0  0  0  0
    7.3425  -13.5449   20.5640 C   0  0  2  0  0  0  0  0  0  0  0  0
    7.9913  -12.5671   21.4714 C   0  0  0  0  0  0  0  0  0  0  0  0
    7.9345  -14.9066   20.4594 C   0  0  2  0  0  0  0  0  0  0  0  0
    7.2882  -15.8181   19.5418 N   0  0  0  0  0  0  0  0  0  0  0  0
    8.2946  -15.5743   21.7155 C   0  0  0  0  0  0  0  0  0  0  0  0
    7.3253  -15.9117   22.4935 O   0  0  0  0  0  0  0  0  0  0  0  0
    9.5717  -15.8952   22.1714 N   0  0  0  0  0  0  0  0  0  0  0  0
    9.8665  -16.5181   23.4461 C   0  0  1  0  0  0  0  0  0  0  0  0
    9.8514  -18.0306   23.1808 C   0  0  0  0  0  0  0  0  0  0  0  0
    8.4707  -18.5595   23.2802 C   0  0  0  0  0  0  0  0  0  0  0  0
    7.3165  -17.8546   23.5476 C   0  0  0  0  0  0  0  0  0  0  0  0
    6.2471  -18.6888   23.5583 N   0  0  0  0  0  0  0  0  0  0  0  0
    6.7324  -19.9139   23.2977 C   0  0  0  0  0  0  0  0  0  0  0  0
    8.0637  -19.8326   23.1319 N   0  0  0  0  0  0  0  0  0  0  0  0
   11.1249  -16.0947   24.0420 C   0  0  0  0  0  0  0  0  0  0  0  0
   11.4374  -16.4557   25.1946 O   0  0  0  0  0  0  0  0  0  0  0  0
   12.0043  -15.2846   23.3512 O   0  0  0  0  0  0  0  0  0  0  0  0
  2  1  1  0
  2  3  1  0
  3  4  1  6
  5  3  1  0
  5  6  2  0
  8  7  1  6
  8 10  1  0
  8  9  1  0
 10 11  1  1
 11  5  1  0
 12 10  1  0
 13 12  2  0
 14 12  1  0
 15 22  1  0
 15 14  1  0
 15 16  1  6
 17 18  2  0
 17 16  1  0
 19 18  1  0
 20 21  2  0
 20 19  1  0
 21 17  1  0
 22 24  1  0
 23 22  2  0
M  END
$$$$
