SVH.pdb
     RDKit          3D

 24 24  0  0  1  0  0  0  0  0999 V2000
    7.5994  -19.6318   16.6487 O   0  0  0  0  0  0  0  0  0  0  0  0
    7.8005  -18.7686   17.7091 C   0  0  0  0  0  0  0  0  0  0  0  0
    8.1863  -17.4190   17.1310 C   0  0  2  0  0  0  0  0  0  0  0  0
    9.1341  -17.4981   16.0703 N   0  0  0  0  0  0  0  0  0  0  0  0
    8.8038  -16.6029   18.2488 C   0  0  0  0  0  0  0  0  0  0  0  0
   10.0337  -16.7103   18.3320 O   0  0  0  0  0  0  0  0  0  0  0  0
    7.0653  -12.9992   19.6330 C   0  0  0  0  0  0  0  0  0  0  0  0
    7.4453  -14.0153   20.6886 C   0  0  2  0  0  0  0  0  0  0  0  0
    7.7147  -13.3036   21.9619 C   0  0  0  0  0  0  0  0  0  0  0  0
    8.4057  -15.0663   20.2544 C   0  0  2  0  0  0  0  0  0  0  0  0
    8.0393  -15.8236   19.0785 N   0  0  0  0  0  0  0  0  0  0  0  0
    8.9618  -15.9331   21.2997 C   0  0  0  0  0  0  0  0  0  0  0  0
    8.2418  -16.9354   21.6681 O   0  0  0  0  0  0  0  0  0  0  0  0
   10.1896  -15.8044   21.9460 N   0  0  0  0  0  0  0  0  0  0  0  0
   10.7008  -16.7181   22.9479 C   0  0  1  0  0  0  0  0  0  0  0  0
   12.2149  -16.7950   22.7035 C   0  0  0  0  0  0  0  0  0  0  0  0
   12.8451  -17.7405   23.6548 C   0  0  0  0  0  0  0  0  0  0  0  0
   12.2162  -18.5642   24.5639 C   0  0  0  0  0  0  0  0  0  0  0  0
   13.1319  -19.2830   25.2599 N   0  0  0  0  0  0  0  0  0  0  0  0
   14.3319  -18.9091   24.7862 C   0  0  0  0  0  0  0  0  0  0  0  0
   14.1563  -17.9856   23.8256 N   0  0  0  0  0  0  0  0  0  0  0  0
   10.4017  -16.3312   24.3186 C   0  0  0  0  0  0  0  0  0  0  0  0
   10.0560  -15.1636   24.5901 O   0  0  0  0  0  0  0  0  0  0  0  0
   10.4921  -17.2419   25.3526 O   0  0  0  0  0  0  0  0  0  0  0  0
  2  1  1  0
  2  3  1  0
  3  4  1  6
  5  3  1  0
  5  6  2  0
  8  7  1  6
  8 10  1  0
  8  9  1  0
 10 11  1  6
 11  5  1  0
 12 10  1  0
 13 12  2  0
 14 12  1  0
 15 22  1  0
 15 14  1  0
 15 16  1  1
 17 18  2  0
 17 16  1  0
 19 18  1  0
 20 21  2  0
 20 19  1  0
 21 17  1  0
 22 24  1  0
 23 22  2  0
M  END
$$$$
