SVH.pdb
     RDKit          3D

 24 24  0  0  1  0  0  0  0  0999 V2000
    7.2298  -19.8108   17.4064 O   0  0  0  0  0  0  0  0  0  0  0  0
    7.8340  -18.9858   18.3360 C   0  0  0  0  0  0  0  0  0  0  0  0
    8.1827  -17.6861   17.6330 C   0  0  2  0  0  0  0  0  0  0  0  0
    9.0857  -17.8470   16.5429 N   0  0  0  0  0  0  0  0  0  0  0  0
    8.8389  -16.7771   18.6526 C   0  0  0  0  0  0  0  0  0  0  0  0
   10.0737  -16.7441   18.5785 O   0  0  0  0  0  0  0  0  0  0  0  0
    7.3912  -13.1213   19.6764 C   0  0  0  0  0  0  0  0  0  0  0  0
    7.6675  -13.9948   20.8813 C   0  0  2  0  0  0  0  0  0  0  0  0
    7.9990  -13.1248   22.0362 C   0  0  0  0  0  0  0  0  0  0  0  0
    8.5241  -15.1858   20.6302 C   0  0  2  0  0  0  0  0  0  0  0  0
    8.1013  -16.0666   19.5644 N   0  0  0  0  0  0  0  0  0  0  0  0
    8.9747  -15.9415   21.8046 C   0  0  0  0  0  0  0  0  0  0  0  0
    8.1096  -16.7118   22.3676 O   0  0  0  0  0  0  0  0  0  0  0  0
   10.2400  -15.9301   22.3882 N   0  0  0  0  0  0  0  0  0  0  0  0
   10.6416  -16.7451   23.5170 C   0  0  1  0  0  0  0  0  0  0  0  0
   12.1448  -16.9977   23.3309 C   0  0  0  0  0  0  0  0  0  0  0  0
   12.3827  -17.8531   22.1444 C   0  0  0  0  0  0  0  0  0  0  0  0
   11.9786  -19.1570   21.9522 C   0  0  0  0  0  0  0  0  0  0  0  0
   12.3874  -19.6025   20.7381 N   0  0  0  0  0  0  0  0  0  0  0  0
   13.0463  -18.5780   20.1720 C   0  0  0  0  0  0  0  0  0  0  0  0
   13.0415  -17.5325   21.0167 N   0  0  0  0  0  0  0  0  0  0  0  0
   10.3583  -16.1508   24.8149 C   0  0  0  0  0  0  0  0  0  0  0  0
    9.9529  -14.9741   24.9020 O   0  0  0  0  0  0  0  0  0  0  0  0
   10.5299  -16.8697   25.9813 O   0  0  0  0  0  0  0  0  0  0  0  0
  2  1  1  0
  2  3  1  0
  3  4  1  6
  5  3  1  0
  5  6  2  0
  8  7  1  6
  8 10  1  0
  8  9  1  0
 10 11  1  6
 11  5  1  0
 12 10  1  0
 13 12  2  0
 14 12  1  0
 15 22  1  0
 15 14  1  0
 15 16  1  6
 17 18  2  0
 17 16  1  0
 19 18  1  0
 20 21  2  0
 20 19  1  0
 21 17  1  0
 22 24  1  0
 23 22  2  0
M  END
$$$$
