SVH.pdb
     RDKit          3D

 24 24  0  0  1  0  0  0  0  0999 V2000
    6.9701  -17.2941   20.9042 O   0  0  0  0  0  0  0  0  0  0  0  0
    6.9587  -16.6721   22.1383 C   0  0  0  0  0  0  0  0  0  0  0  0
    7.1497  -15.1849   21.9005 C   0  0  2  0  0  0  0  0  0  0  0  0
    7.8732  -14.8815   20.7113 N   0  0  0  0  0  0  0  0  0  0  0  0
    7.9297  -14.6309   23.0757 C   0  0  0  0  0  0  0  0  0  0  0  0
    9.1480  -14.5442   22.8770 O   0  0  0  0  0  0  0  0  0  0  0  0
    6.4377  -11.7174   25.4984 C   0  0  0  0  0  0  0  0  0  0  0  0
    7.0402  -12.8615   26.2852 C   0  0  2  0  0  0  0  0  0  0  0  0
    7.5984  -12.3285   27.5520 C   0  0  0  0  0  0  0  0  0  0  0  0
    7.8679  -13.8173   25.4999 C   0  0  2  0  0  0  0  0  0  0  0  0
    7.3105  -14.2666   24.2437 N   0  0  0  0  0  0  0  0  0  0  0  0
    8.4887  -14.9232   26.2381 C   0  0  0  0  0  0  0  0  0  0  0  0
    7.7072  -15.8635   26.6429 O   0  0  0  0  0  0  0  0  0  0  0  0
    9.8365  -15.0833   26.5538 N   0  0  0  0  0  0  0  0  0  0  0  0
   10.3867  -16.1904   27.3098 C   0  0  1  0  0  0  0  0  0  0  0  0
   11.8324  -16.3498   26.8170 C   0  0  0  0  0  0  0  0  0  0  0  0
   11.8516  -16.7432   25.3884 C   0  0  0  0  0  0  0  0  0  0  0  0
   10.8031  -17.2249   24.6338 C   0  0  0  0  0  0  0  0  0  0  0  0
   11.2121  -17.4747   23.3650 N   0  0  0  0  0  0  0  0  0  0  0  0
   12.5147  -17.1494   23.3265 C   0  0  0  0  0  0  0  0  0  0  0  0
   12.8941  -16.7120   24.5394 N   0  0  0  0  0  0  0  0  0  0  0  0
   10.3327  -16.0144   28.7535 C   0  0  0  0  0  0  0  0  0  0  0  0
   10.1030  -14.8935   29.2506 O   0  0  0  0  0  0  0  0  0  0  0  0
   10.5337  -17.0790   29.6097 O   0  0  0  0  0  0  0  0  0  0  0  0
  2  1  1  0
  2  3  1  0
  3  4  1  6
  5  3  1  0
  5  6  2  0
  8  7  1  6
  8 10  1  0
  8  9  1  0
 10 11  1  6
 11  5  1  0
 12 10  1  0
 13 12  2  0
 14 12  1  0
 15 22  1  0
 15 14  1  0
 15 16  1  6
 17 18  2  0
 17 16  1  0
 19 18  1  0
 20 21  2  0
 20 19  1  0
 21 17  1  0
 22 24  1  0
 23 22  2  0
M  END
$$$$
