SVH.pdb
     RDKit          3D

 24 24  0  0  1  0  0  0  0  0999 V2000
    7.7413  -19.5965   18.8822 O   0  0  0  0  0  0  0  0  0  0  0  0
    6.7470  -18.6834   18.5861 C   0  0  0  0  0  0  0  0  0  0  0  0
    7.3838  -17.5590   17.7892 C   0  0  2  0  0  0  0  0  0  0  0  0
    8.2943  -18.0075   16.7896 N   0  0  0  0  0  0  0  0  0  0  0  0
    8.1513  -16.6872   18.7625 C   0  0  0  0  0  0  0  0  0  0  0  0
    9.3739  -16.8782   18.7552 O   0  0  0  0  0  0  0  0  0  0  0  0
    6.8498  -12.8438   19.8601 C   0  0  0  0  0  0  0  0  0  0  0  0
    7.2199  -13.7614   21.0057 C   0  0  2  0  0  0  0  0  0  0  0  0
    7.6665  -12.9356   22.1542 C   0  0  0  0  0  0  0  0  0  0  0  0
    8.0327  -14.9532   20.6391 C   0  0  2  0  0  0  0  0  0  0  0  0
    7.5175  -15.7758   19.5675 N   0  0  0  0  0  0  0  0  0  0  0  0
    8.5509  -15.7706   21.7421 C   0  0  0  0  0  0  0  0  0  0  0  0
    7.7260  -16.5899   22.2964 O   0  0  0  0  0  0  0  0  0  0  0  0
    9.8424  -15.7713   22.2652 N   0  0  0  0  0  0  0  0  0  0  0  0
   10.2655  -16.5184   23.4326 C   0  0  1  0  0  0  0  0  0  0  0  0
   11.5071  -17.3070   22.9914 C   0  0  0  0  0  0  0  0  0  0  0  0
   11.1323  -18.3603   22.0187 C   0  0  0  0  0  0  0  0  0  0  0  0
   11.7934  -18.7102   20.8606 C   0  0  0  0  0  0  0  0  0  0  0  0
   11.1418  -19.7211   20.2337 N   0  0  0  0  0  0  0  0  0  0  0  0
   10.0747  -20.0030   20.9993 C   0  0  0  0  0  0  0  0  0  0  0  0
   10.0723  -19.1864   22.0668 N   0  0  0  0  0  0  0  0  0  0  0  0
   10.5443  -15.6960   24.6004 C   0  0  0  0  0  0  0  0  0  0  0  0
   10.7408  -16.2190   25.7159 O   0  0  0  0  0  0  0  0  0  0  0  0
   10.5986  -14.3193   24.5069 O   0  0  0  0  0  0  0  0  0  0  0  0
  2  1  1  0
  2  3  1  0
  3  4  1  6
  5  3  1  0
  5  6  2  0
  8  7  1  6
  8 10  1  0
  8  9  1  0
 10 11  1  6
 11  5  1  0
 12 10  1  0
 13 12  2  0
 14 12  1  0
 15 22  1  0
 15 14  1  0
 15 16  1  6
 17 18  2  0
 17 16  1  0
 19 18  1  0
 20 21  2  0
 20 19  1  0
 21 17  1  0
 22 24  1  0
 23 22  2  0
M  END
$$$$
