SVH.pdb
     RDKit          3D

 24 24  0  0  1  0  0  0  0  0999 V2000
   10.1120  -17.5751   14.4474 O   0  0  0  0  0  0  0  0  0  0  0  0
    8.7809  -17.4053   14.7777 C   0  0  0  0  0  0  0  0  0  0  0  0
    8.4496  -15.9354   14.5925 C   0  0  2  0  0  0  0  0  0  0  0  0
    8.8517  -15.4105   13.3305 N   0  0  0  0  0  0  0  0  0  0  0  0
    9.1790  -15.1630   15.6732 C   0  0  0  0  0  0  0  0  0  0  0  0
   10.2655  -14.6937   15.3121 O   0  0  0  0  0  0  0  0  0  0  0  0
    7.0226  -13.1539   18.6872 C   0  0  0  0  0  0  0  0  0  0  0  0
    8.2056  -13.9756   19.1525 C   0  0  2  0  0  0  0  0  0  0  0  0
    8.7219  -13.3966   20.4169 C   0  0  0  0  0  0  0  0  0  0  0  0
    9.1875  -14.3456   18.0968 C   0  0  2  0  0  0  0  0  0  0  0  0
    8.6544  -15.0150   16.9314 N   0  0  0  0  0  0  0  0  0  0  0  0
   10.4435  -14.9602   18.5416 C   0  0  0  0  0  0  0  0  0  0  0  0
   10.4411  -16.2381   18.7017 O   0  0  0  0  0  0  0  0  0  0  0  0
   11.6531  -14.3225   18.8104 N   0  0  0  0  0  0  0  0  0  0  0  0
   12.8571  -14.9848   19.2705 C   0  0  1  0  0  0  0  0  0  0  0  0
   14.0005  -13.9943   19.0067 C   0  0  0  0  0  0  0  0  0  0  0  0
   15.2970  -14.5773   19.4254 C   0  0  0  0  0  0  0  0  0  0  0  0
   15.5303  -15.8431   19.9194 C   0  0  0  0  0  0  0  0  0  0  0  0
   16.8488  -16.0063   20.1922 N   0  0  0  0  0  0  0  0  0  0  0  0
   17.4390  -14.8439   19.8689 C   0  0  0  0  0  0  0  0  0  0  0  0
   16.5070  -13.9909   19.4103 N   0  0  0  0  0  0  0  0  0  0  0  0
   12.8185  -15.3939   20.6666 C   0  0  0  0  0  0  0  0  0  0  0  0
   12.1400  -14.7582   21.4984 O   0  0  0  0  0  0  0  0  0  0  0  0
   13.5293  -16.4926   21.1077 O   0  0  0  0  0  0  0  0  0  0  0  0
  2  1  1  0
  2  3  1  0
  3  4  1  6
  5  3  1  0
  5  6  2  0
  8  7  1  6
  8 10  1  0
  8  9  1  0
 10 11  1  6
 11  5  1  0
 12 10  1  0
 13 12  2  0
 14 12  1  0
 15 22  1  0
 15 14  1  0
 15 16  1  1
 17 18  2  0
 17 16  1  0
 19 18  1  0
 20 21  2  0
 20 19  1  0
 21 17  1  0
 22 24  1  0
 23 22  2  0
M  END
$$$$
