SVH.pdb
     RDKit          3D

 24 24  0  0  1  0  0  0  0  0999 V2000
    6.1003  -18.9673   21.7915 O   0  0  0  0  0  0  0  0  0  0  0  0
    5.0611  -18.2679   21.2075 C   0  0  0  0  0  0  0  0  0  0  0  0
    5.5044  -17.8767   19.8092 C   0  0  2  0  0  0  0  0  0  0  0  0
    5.7518  -18.9882   18.9531 N   0  0  0  0  0  0  0  0  0  0  0  0
    6.7948  -17.0932   19.9416 C   0  0  0  0  0  0  0  0  0  0  0  0
    7.8168  -17.7769   19.8035 O   0  0  0  0  0  0  0  0  0  0  0  0
    6.9968  -13.2423   18.5873 C   0  0  0  0  0  0  0  0  0  0  0  0
    7.6514  -13.4169   19.9409 C   0  0  2  0  0  0  0  0  0  0  0  0
    8.7652  -12.4448   20.0621 C   0  0  0  0  0  0  0  0  0  0  0  0
    7.8979  -14.8238   20.3601 C   0  0  2  0  0  0  0  0  0  0  0  0
    6.7963  -15.7451   20.1928 N   0  0  0  0  0  0  0  0  0  0  0  0
    8.5772  -15.0264   21.6448 C   0  0  0  0  0  0  0  0  0  0  0  0
    7.8583  -14.9126   22.7073 O   0  0  0  0  0  0  0  0  0  0  0  0
    9.9195  -15.3349   21.8569 N   0  0  0  0  0  0  0  0  0  0  0  0
   10.5277  -15.5492   23.1545 C   0  0  1  0  0  0  0  0  0  0  0  0
    9.8294  -16.7855   23.7395 C   0  0  0  0  0  0  0  0  0  0  0  0
    8.6281  -16.3853   24.5094 C   0  0  0  0  0  0  0  0  0  0  0  0
    8.1461  -15.1101   24.7145 C   0  0  0  0  0  0  0  0  0  0  0  0
    7.0234  -15.1478   25.4746 N   0  0  0  0  0  0  0  0  0  0  0  0
    6.8039  -16.4452   25.7442 C   0  0  0  0  0  0  0  0  0  0  0  0
    7.7665  -17.1830   25.1649 N   0  0  0  0  0  0  0  0  0  0  0  0
   11.9723  -15.7216   23.1171 C   0  0  0  0  0  0  0  0  0  0  0  0
   12.5709  -15.8484   22.0298 O   0  0  0  0  0  0  0  0  0  0  0  0
   12.7176  -15.7498   24.2792 O   0  0  0  0  0  0  0  0  0  0  0  0
  2  1  1  0
  2  3  1  0
  3  4  1  6
  5  3  1  0
  5  6  2  0
  8  7  1  6
  8 10  1  0
  8  9  1  0
 10 11  1  1
 11  5  1  0
 12 10  1  0
 13 12  2  0
 14 12  1  0
 15 22  1  0
 15 14  1  0
 15 16  1  6
 17 18  2  0
 17 16  1  0
 19 18  1  0
 20 21  2  0
 20 19  1  0
 21 17  1  0
 22 24  1  0
 23 22  2  0
M  END
$$$$
