YHR.pdb
     RDKit          3D

 34 35  0  0  1  0  0  0  0  0999 V2000
   31.0419  -34.7980   -6.1924 O   0  0  0  0  0  0  0  0  0  0  0  0
   31.5752  -34.2609   -5.0202 C   0  0  0  0  0  0  0  0  0  0  0  0
   30.7771  -33.4805   -4.1897 C   0  0  0  0  0  0  0  0  0  0  0  0
   31.3287  -32.9626   -3.0387 C   0  0  0  0  0  0  0  0  0  0  0  0
   32.6659  -33.2167   -2.7111 C   0  0  0  0  0  0  0  0  0  0  0  0
   33.1847  -32.6376   -1.4723 C   0  0  0  0  0  0  0  0  0  0  0  0
   33.1742  -33.6432   -0.3505 C   0  0  2  0  0  0  0  0  0  0  0  0
   31.8582  -33.9484    0.0984 N   0  0  0  0  0  0  0  0  0  0  0  0
   34.0176  -33.2155    0.7977 C   0  0  0  0  0  0  0  0  0  0  0  0
   33.5386  -32.3694    1.5865 O   0  0  0  0  0  0  0  0  0  0  0  0
   33.4654  -33.9899   -3.5289 C   0  0  0  0  0  0  0  0  0  0  0  0
   32.8993  -34.4992   -4.6743 C   0  0  0  0  0  0  0  0  0  0  0  0
   35.3092  -33.7056    1.0405 N   0  0  0  0  0  0  0  0  0  0  0  0
   36.1385  -33.5274    2.1736 C   0  0  1  0  0  0  0  0  0  0  0  0
   36.6056  -34.7888    2.8740 C   0  0  0  0  0  0  0  0  0  0  0  0
   35.4702  -35.4939    3.5449 C   0  0  0  0  0  0  0  0  0  0  0  0
   34.1538  -35.0042    3.4731 C   0  0  0  0  0  0  0  0  0  0  0  0
   33.4165  -35.8709    4.1730 N   0  0  0  0  0  0  0  0  0  0  0  0
   34.1830  -36.8540    4.6675 C   0  0  0  0  0  0  0  0  0  0  0  0
   35.4287  -36.5995    4.2697 N   0  0  0  0  0  0  0  0  0  0  0  0
   37.2173  -32.5738    1.9897 C   0  0  0  0  0  0  0  0  0  0  0  0
   37.8432  -32.5888    0.8670 O   0  0  0  0  0  0  0  0  0  0  0  0
   37.6843  -24.9207    5.7973 N   0  0  0  0  0  0  0  0  0  0  0  0
   36.5589  -25.3679    5.0485 C   0  0  0  0  0  0  0  0  0  0  0  0
   35.4707  -24.7005    5.0779 N   0  0  0  0  0  0  0  0  0  0  0  0
   36.6241  -26.5571    4.2580 N   0  0  0  0  0  0  0  0  0  0  0  0
   37.7595  -27.4557    4.2839 C   0  0  0  0  0  0  0  0  0  0  0  0
   37.5988  -28.6197    3.3289 C   0  0  0  0  0  0  0  0  0  0  0  0
   38.7802  -29.5402    3.5375 C   0  0  0  0  0  0  0  0  0  0  0  0
   38.7289  -30.7424    2.6288 C   0  0  2  0  0  0  0  0  0  0  0  0
   37.6461  -31.6270    2.9299 N   0  0  0  0  0  0  0  0  0  0  0  0
   39.9913  -31.5189    2.6551 C   0  0  0  0  0  0  0  0  0  0  0  0
   40.0309  -32.6837    3.1252 O   0  0  0  0  0  0  0  0  0  0  0  0
   41.1795  -31.0015    2.1662 O   0  0  0  0  0  0  0  0  0  0  0  0
  2  1  1  0
  3  2  2  0
  4  3  1  0
  5  4  2  0
  5 11  1  0
  6  5  1  0
  7  6  1  0
  7  8  1  1
  9  7  1  0
 10  9  2  0
 11 12  2  0
 12  2  1  0
 13  9  1  0
 14 13  1  0
 14 21  1  0
 14 15  1  6
 16 15  1  0
 17 16  2  0
 18 19  1  0
 18 17  1  0
 19 20  2  0
 20 16  1  0
 21 22  2  0
 23 24  1  0
 24 26  1  0
 24 25  2  0
 26 27  1  0
 27 28  1  0
 29 28  1  0
 30 29  1  1
 31 21  1  0
 31 30  1  0
 32 30  1  0
 32 34  1  0
 33 32  2  0
M  END
$$$$
