YHR.pdb
     RDKit          3D

 34 35  0  0  1  0  0  0  0  0999 V2000
   15.2430  -22.3370   -1.2712 O   0  0  0  0  0  0  0  0  0  0  0  0
   15.6229  -21.7849   -0.0473 C   0  0  0  0  0  0  0  0  0  0  0  0
   14.8619  -20.7679    0.5204 C   0  0  0  0  0  0  0  0  0  0  0  0
   15.2595  -20.2408    1.7293 C   0  0  0  0  0  0  0  0  0  0  0  0
   16.4066  -20.7189    2.3738 C   0  0  0  0  0  0  0  0  0  0  0  0
   16.7681  -20.1154    3.6561 C   0  0  0  0  0  0  0  0  0  0  0  0
   16.1632  -20.8736    4.8089 C   0  0  2  0  0  0  0  0  0  0  0  0
   14.7406  -20.8209    4.8122 N   0  0  0  0  0  0  0  0  0  0  0  0
   16.6928  -20.4188    6.1224 C   0  0  0  0  0  0  0  0  0  0  0  0
   15.9813  -19.6405    6.7972 O   0  0  0  0  0  0  0  0  0  0  0  0
   17.1679  -21.7277    1.8182 C   0  0  0  0  0  0  0  0  0  0  0  0
   16.7573  -22.2430    0.6109 C   0  0  0  0  0  0  0  0  0  0  0  0
   17.9359  -20.8123    6.6393 N   0  0  0  0  0  0  0  0  0  0  0  0
   18.5306  -20.4970    7.8845 C   0  0  1  0  0  0  0  0  0  0  0  0
   19.0182  -21.6677    8.7161 C   0  0  0  0  0  0  0  0  0  0  0  0
   17.8899  -22.5684    9.1065 C   0  0  0  0  0  0  0  0  0  0  0  0
   17.4088  -23.5647    8.2382 C   0  0  0  0  0  0  0  0  0  0  0  0
   16.4189  -24.1651    8.9048 N   0  0  0  0  0  0  0  0  0  0  0  0
   16.2585  -23.6111   10.1155 C   0  0  0  0  0  0  0  0  0  0  0  0
   17.1671  -22.6416   10.2117 N   0  0  0  0  0  0  0  0  0  0  0  0
   19.5027  -19.4202    7.8351 C   0  0  0  0  0  0  0  0  0  0  0  0
   19.7408  -18.8820    6.6923 O   0  0  0  0  0  0  0  0  0  0  0  0
   19.0095  -11.5909    7.0444 N   0  0  0  0  0  0  0  0  0  0  0  0
   20.4216  -11.7692    7.0063 C   0  0  0  0  0  0  0  0  0  0  0  0
   21.1706  -10.8202    6.5954 N   0  0  0  0  0  0  0  0  0  0  0  0
   21.0215  -12.9979    7.4230 N   0  0  0  0  0  0  0  0  0  0  0  0
   20.2482  -14.1337    7.8803 C   0  0  0  0  0  0  0  0  0  0  0  0
   21.1217  -15.2813    8.3416 C   0  0  0  0  0  0  0  0  0  0  0  0
   20.2755  -16.5339    8.3072 C   0  0  0  0  0  0  0  0  0  0  0  0
   21.0393  -17.7466    8.7759 C   0  0  2  0  0  0  0  0  0  0  0  0
   20.2142  -18.9049    8.9273 N   0  0  0  0  0  0  0  0  0  0  0  0
   21.7468  -17.5030   10.0556 C   0  0  0  0  0  0  0  0  0  0  0  0
   21.3330  -17.9981   11.1340 O   0  0  0  0  0  0  0  0  0  0  0  0
   22.8897  -16.7237   10.1236 O   0  0  0  0  0  0  0  0  0  0  0  0
  2  1  1  0
  3  2  2  0
  4  3  1  0
  5  4  2  0
  5 11  1  0
  6  5  1  0
  7  6  1  0
  7  8  1  1
  9  7  1  0
 10  9  2  0
 11 12  2  0
 12  2  1  0
 13  9  1  0
 14 13  1  0
 14 21  1  0
 14 15  1  6
 16 15  1  0
 17 16  2  0
 18 19  1  0
 18 17  1  0
 19 20  2  0
 20 16  1  0
 21 22  2  0
 23 24  1  0
 24 26  1  0
 24 25  2  0
 26 27  1  0
 27 28  1  0
 29 28  1  0
 30 29  1  1
 31 21  1  0
 31 30  1  0
 32 30  1  0
 32 34  1  0
 33 32  2  0
M  END
$$$$
