YHR.pdb
     RDKit          3D

 34 35  0  0  1  0  0  0  0  0999 V2000
   32.1845   -6.8476  -17.9481 O   0  0  0  0  0  0  0  0  0  0  0  0
   30.9322   -7.4515  -18.0654 C   0  0  0  0  0  0  0  0  0  0  0  0
   29.7860   -6.6651  -18.1224 C   0  0  0  0  0  0  0  0  0  0  0  0
   28.5625   -7.2871  -18.2383 C   0  0  0  0  0  0  0  0  0  0  0  0
   28.4742   -8.6830  -18.2976 C   0  0  0  0  0  0  0  0  0  0  0  0
   27.1431   -9.2759  -18.4237 C   0  0  0  0  0  0  0  0  0  0  0  0
   26.9215   -9.8377  -19.8039 C   0  0  2  0  0  0  0  0  0  0  0  0
   26.9043   -8.8295  -20.8088 N   0  0  0  0  0  0  0  0  0  0  0  0
   25.6845  -10.6597  -19.8859 C   0  0  0  0  0  0  0  0  0  0  0  0
   24.6281  -10.0856  -20.2348 O   0  0  0  0  0  0  0  0  0  0  0  0
   29.6060   -9.4715  -18.2419 C   0  0  0  0  0  0  0  0  0  0  0  0
   30.8197   -8.8349  -18.1261 C   0  0  0  0  0  0  0  0  0  0  0  0
   25.6402  -12.0311  -19.5953 N   0  0  0  0  0  0  0  0  0  0  0  0
   24.5312  -12.9107  -19.5837 C   0  0  1  0  0  0  0  0  0  0  0  0
   24.8184  -14.3644  -19.9063 C   0  0  0  0  0  0  0  0  0  0  0  0
   25.1380  -14.5498  -21.3555 C   0  0  0  0  0  0  0  0  0  0  0  0
   25.0201  -13.4934  -22.2765 C   0  0  0  0  0  0  0  0  0  0  0  0
   25.3812  -14.0106  -23.4541 N   0  0  0  0  0  0  0  0  0  0  0  0
   25.7113  -15.3037  -23.3226 C   0  0  0  0  0  0  0  0  0  0  0  0
   25.5540  -15.6056  -22.0347 N   0  0  0  0  0  0  0  0  0  0  0  0
   23.6592  -12.7693  -18.4319 C   0  0  0  0  0  0  0  0  0  0  0  0
   24.1831  -12.3578  -17.3325 O   0  0  0  0  0  0  0  0  0  0  0  0
   21.3040   -7.2543  -13.5028 N   0  0  0  0  0  0  0  0  0  0  0  0
   20.3364   -8.2240  -13.1147 C   0  0  0  0  0  0  0  0  0  0  0  0
   19.5664   -7.9912  -12.1231 N   0  0  0  0  0  0  0  0  0  0  0  0
   20.2083   -9.4612  -13.8192 N   0  0  0  0  0  0  0  0  0  0  0  0
   21.0582   -9.8209  -14.9352 C   0  0  0  0  0  0  0  0  0  0  0  0
   20.7842  -11.2202  -15.4446 C   0  0  0  0  0  0  0  0  0  0  0  0
   21.6718  -11.4435  -16.6482 C   0  0  0  0  0  0  0  0  0  0  0  0
   21.5272  -12.8361  -17.2080 C   0  0  2  0  0  0  0  0  0  0  0  0
   22.2844  -13.0410  -18.4040 N   0  0  0  0  0  0  0  0  0  0  0  0
   20.1129  -13.1860  -17.4815 C   0  0  0  0  0  0  0  0  0  0  0  0
   19.6596  -13.2008  -18.6535 O   0  0  0  0  0  0  0  0  0  0  0  0
   19.2294  -13.5110  -16.4656 O   0  0  0  0  0  0  0  0  0  0  0  0
  2  1  1  0
  3  2  2  0
  4  3  1  0
  5  4  2  0
  5 11  1  0
  6  5  1  0
  7  6  1  0
  7  8  1  6
  9  7  1  0
 10  9  2  0
 11 12  2  0
 12  2  1  0
 13  9  1  0
 14 13  1  0
 14 21  1  0
 14 15  1  1
 16 15  1  0
 17 16  2  0
 18 19  1  0
 18 17  1  0
 19 20  2  0
 20 16  1  0
 21 22  2  0
 23 24  1  0
 24 26  1  0
 24 25  2  0
 26 27  1  0
 27 28  1  0
 29 28  1  0
 30 29  1  6
 31 21  1  0
 31 30  1  0
 32 30  1  0
 32 34  1  0
 33 32  2  0
M  END
$$$$
