YHR.pdb
     RDKit          3D

 34 35  0  0  1  0  0  0  0  0999 V2000
   18.6402  -17.2662  -20.1994 O   0  0  0  0  0  0  0  0  0  0  0  0
   19.0345  -16.1663  -19.4367 C   0  0  0  0  0  0  0  0  0  0  0  0
   18.2869  -14.9936  -19.4733 C   0  0  0  0  0  0  0  0  0  0  0  0
   18.6986  -13.9230  -18.7106 C   0  0  0  0  0  0  0  0  0  0  0  0
   19.8466  -14.0133  -17.9144 C   0  0  0  0  0  0  0  0  0  0  0  0
   20.2234  -12.8390  -17.1281 C   0  0  0  0  0  0  0  0  0  0  0  0
   21.2554  -12.0075  -17.8447 C   0  0  2  0  0  0  0  0  0  0  0  0
   22.4782  -12.7078  -18.0468 N   0  0  0  0  0  0  0  0  0  0  0  0
   21.5163  -10.7157  -17.1548 C   0  0  0  0  0  0  0  0  0  0  0  0
   22.7070  -10.4220  -16.9032 O   0  0  0  0  0  0  0  0  0  0  0  0
   20.5947  -15.1728  -17.8717 C   0  0  0  0  0  0  0  0  0  0  0  0
   20.1701  -16.2323  -18.6391 C   0  0  0  0  0  0  0  0  0  0  0  0
   20.5076   -9.8182  -16.7748 N   0  0  0  0  0  0  0  0  0  0  0  0
   20.6209   -8.5495  -16.1576 C   0  0  1  0  0  0  0  0  0  0  0  0
   21.6559   -7.6055  -16.7387 C   0  0  0  0  0  0  0  0  0  0  0  0
   21.7709   -6.3543  -15.9276 C   0  0  0  0  0  0  0  0  0  0  0  0
   20.9927   -6.1505  -14.7739 C   0  0  0  0  0  0  0  0  0  0  0  0
   21.3530   -4.9493  -14.3134 N   0  0  0  0  0  0  0  0  0  0  0  0
   22.2931   -4.4032  -15.0986 C   0  0  0  0  0  0  0  0  0  0  0  0
   22.5285   -5.2800  -16.0735 N   0  0  0  0  0  0  0  0  0  0  0  0
   19.3556   -7.8841  -15.9059 C   0  0  0  0  0  0  0  0  0  0  0  0
   18.7863   -7.2896  -16.8932 O   0  0  0  0  0  0  0  0  0  0  0  0
   13.2860  -12.2056  -11.2496 N   0  0  0  0  0  0  0  0  0  0  0  0
   12.7257  -11.6087  -12.4145 C   0  0  0  0  0  0  0  0  0  0  0  0
   11.6393  -12.0680  -12.9035 N   0  0  0  0  0  0  0  0  0  0  0  0
   13.3595  -10.4967  -13.0511 N   0  0  0  0  0  0  0  0  0  0  0  0
   14.7970  -10.3253  -13.0835 C   0  0  0  0  0  0  0  0  0  0  0  0
   15.2144   -9.0722  -13.8241 C   0  0  0  0  0  0  0  0  0  0  0  0
   16.7258   -9.0566  -13.8672 C   0  0  0  0  0  0  0  0  0  0  0  0
   17.2587   -7.8646  -14.6214 C   0  0  2  0  0  0  0  0  0  0  0  0
   18.6874   -7.8280  -14.6751 N   0  0  0  0  0  0  0  0  0  0  0  0
   16.7766   -6.5822  -14.0554 C   0  0  0  0  0  0  0  0  0  0  0  0
   17.3786   -6.0214  -13.1054 O   0  0  0  0  0  0  0  0  0  0  0  0
   15.6476   -5.9450  -14.5428 O   0  0  0  0  0  0  0  0  0  0  0  0
  2  1  1  0
  3  2  2  0
  4  3  1  0
  5  4  2  0
  5 11  1  0
  6  5  1  0
  7  6  1  0
  7  8  1  1
  9  7  1  0
 10  9  2  0
 11 12  2  0
 12  2  1  0
 13  9  1  0
 14 13  1  0
 14 21  1  0
 14 15  1  6
 16 15  1  0
 17 16  2  0
 18 19  1  0
 18 17  1  0
 19 20  2  0
 20 16  1  0
 21 22  2  0
 23 24  1  0
 24 26  1  0
 24 25  2  0
 26 27  1  0
 27 28  1  0
 29 28  1  0
 30 29  1  1
 31 21  1  0
 31 30  1  0
 32 30  1  0
 32 34  1  0
 33 32  2  0
M  END
$$$$
