YHR.pdb
     RDKit          3D

 34 35  0  0  1  0  0  0  0  0999 V2000
   47.4541   -8.4203   -1.5806 O   0  0  0  0  0  0  0  0  0  0  0  0
   46.9226   -9.0996   -2.6774 C   0  0  0  0  0  0  0  0  0  0  0  0
   47.3671   -8.7989   -3.9610 C   0  0  0  0  0  0  0  0  0  0  0  0
   46.8256   -9.4847   -5.0257 C   0  0  0  0  0  0  0  0  0  0  0  0
   45.8473  -10.4648   -4.8203 C   0  0  0  0  0  0  0  0  0  0  0  0
   45.3186  -11.1553   -5.9963 C   0  0  0  0  0  0  0  0  0  0  0  0
   44.4256  -10.2524   -6.8070 C   0  0  2  0  0  0  0  0  0  0  0  0
   43.2029   -9.9521   -6.1426 N   0  0  0  0  0  0  0  0  0  0  0  0
   44.1479  -10.8024   -8.1608 C   0  0  0  0  0  0  0  0  0  0  0  0
   43.1611  -11.5625   -8.2875 O   0  0  0  0  0  0  0  0  0  0  0  0
   45.4001  -10.7701   -3.5504 C   0  0  0  0  0  0  0  0  0  0  0  0
   45.9509  -10.0762   -2.4983 C   0  0  0  0  0  0  0  0  0  0  0  0
   44.9264  -10.5171   -9.2921 N   0  0  0  0  0  0  0  0  0  0  0  0
   44.8310  -11.0422  -10.6031 C   0  0  1  0  0  0  0  0  0  0  0  0
   45.2504  -10.1209  -11.7322 C   0  0  0  0  0  0  0  0  0  0  0  0
   44.3670   -8.9169  -11.8119 C   0  0  0  0  0  0  0  0  0  0  0  0
   43.2268   -8.7850  -10.9991 C   0  0  0  0  0  0  0  0  0  0  0  0
   42.6902   -7.6080  -11.3328 N   0  0  0  0  0  0  0  0  0  0  0  0
   43.4165   -7.0099  -12.2885 C   0  0  0  0  0  0  0  0  0  0  0  0
   44.4312   -7.8288  -12.5612 N   0  0  0  0  0  0  0  0  0  0  0  0
   45.3733  -12.3795  -10.7598 C   0  0  0  0  0  0  0  0  0  0  0  0
   45.7317  -13.0075   -9.6969 O   0  0  0  0  0  0  0  0  0  0  0  0
   43.0515  -19.0257   -8.2422 N   0  0  0  0  0  0  0  0  0  0  0  0
   43.9313  -17.9408   -7.9660 C   0  0  0  0  0  0  0  0  0  0  0  0
   43.9975  -17.4619   -6.7841 N   0  0  0  0  0  0  0  0  0  0  0  0
   44.7484  -17.3740   -8.9927 N   0  0  0  0  0  0  0  0  0  0  0  0
   44.4824  -17.5656  -10.4032 C   0  0  0  0  0  0  0  0  0  0  0  0
   45.4303  -16.7787  -11.2836 C   0  0  0  0  0  0  0  0  0  0  0  0
   45.0517  -15.3199  -11.1625 C   0  0  0  0  0  0  0  0  0  0  0  0
   45.9487  -14.4315  -11.9870 C   0  0  2  0  0  0  0  0  0  0  0  0
   45.5449  -13.0595  -11.9734 N   0  0  0  0  0  0  0  0  0  0  0  0
   46.0397  -14.8807  -13.3967 C   0  0  0  0  0  0  0  0  0  0  0  0
   45.2723  -14.4199  -14.2788 O   0  0  0  0  0  0  0  0  0  0  0  0
   46.9682  -15.8232  -13.8064 O   0  0  0  0  0  0  0  0  0  0  0  0
  2  1  1  0
  3  2  2  0
  4  3  1  0
  5  4  2  0
  5 11  1  0
  6  5  1  0
  7  6  1  0
  7  8  1  1
  9  7  1  0
 10  9  2  0
 11 12  2  0
 12  2  1  0
 13  9  1  0
 14 13  1  0
 14 21  1  0
 14 15  1  6
 16 15  1  0
 17 16  2  0
 18 19  1  0
 18 17  1  0
 19 20  2  0
 20 16  1  0
 21 22  2  0
 23 24  1  0
 24 26  1  0
 24 25  2  0
 26 27  1  0
 27 28  1  0
 29 28  1  0
 30 29  1  1
 31 21  1  0
 31 30  1  0
 32 30  1  0
 32 34  1  0
 33 32  2  0
M  END
$$$$
