YHR.pdb
     RDKit          3D

 34 35  0  0  1  0  0  0  0  0999 V2000
   12.4435  -23.4080   -0.3930 O   0  0  0  0  0  0  0  0  0  0  0  0
   13.2597  -22.6418    0.4399 C   0  0  0  0  0  0  0  0  0  0  0  0
   14.3527  -23.2284    1.0698 C   0  0  0  0  0  0  0  0  0  0  0  0
   15.1417  -22.4490    1.8867 C   0  0  0  0  0  0  0  0  0  0  0  0
   14.8496  -21.0935    2.0792 C   0  0  0  0  0  0  0  0  0  0  0  0
   15.7317  -20.3254    2.9573 C   0  0  0  0  0  0  0  0  0  0  0  0
   16.6608  -19.4427    2.1652 C   0  0  2  0  0  0  0  0  0  0  0  0
   17.5479  -20.1862    1.3364 N   0  0  0  0  0  0  0  0  0  0  0  0
   17.4330  -18.5143    3.0337 C   0  0  0  0  0  0  0  0  0  0  0  0
   18.4918  -18.9438    3.5456 O   0  0  0  0  0  0  0  0  0  0  0  0
   13.7674  -20.5027    1.4583 C   0  0  0  0  0  0  0  0  0  0  0  0
   12.9896  -21.2947    0.6462 C   0  0  0  0  0  0  0  0  0  0  0  0
   17.0407  -17.1957    3.3068 N   0  0  0  0  0  0  0  0  0  0  0  0
   17.7116  -16.1954    4.0503 C   0  0  1  0  0  0  0  0  0  0  0  0
   17.2604  -14.7659    3.8205 C   0  0  0  0  0  0  0  0  0  0  0  0
   18.1411  -13.7928    4.5374 C   0  0  0  0  0  0  0  0  0  0  0  0
   19.2347  -14.2211    5.3111 C   0  0  0  0  0  0  0  0  0  0  0  0
   19.7845  -13.1031    5.7934 N   0  0  0  0  0  0  0  0  0  0  0  0
   19.1095  -12.0233    5.3728 C   0  0  0  0  0  0  0  0  0  0  0  0
   18.1141  -12.4725    4.6098 N   0  0  0  0  0  0  0  0  0  0  0  0
   17.8732  -16.4966    5.4611 C   0  0  0  0  0  0  0  0  0  0  0  0
   16.8474  -16.9349    6.0999 O   0  0  0  0  0  0  0  0  0  0  0  0
   24.7673  -16.7274   10.8038 N   0  0  0  0  0  0  0  0  0  0  0  0
   23.8487  -15.6455   10.6895 C   0  0  0  0  0  0  0  0  0  0  0  0
   24.2398  -14.4529   10.9244 N   0  0  0  0  0  0  0  0  0  0  0  0
   22.4881  -15.8698   10.3131 N   0  0  0  0  0  0  0  0  0  0  0  0
   21.9557  -17.1889   10.0421 C   0  0  0  0  0  0  0  0  0  0  0  0
   20.5065  -17.1501    9.6048 C   0  0  0  0  0  0  0  0  0  0  0  0
   20.4819  -16.6796    8.1680 C   0  0  0  0  0  0  0  0  0  0  0  0
   19.0903  -16.7035    7.5879 C   0  0  2  0  0  0  0  0  0  0  0  0
   19.0547  -16.3541    6.2015 N   0  0  0  0  0  0  0  0  0  0  0  0
   18.1620  -15.8106    8.3216 C   0  0  0  0  0  0  0  0  0  0  0  0
   17.3545  -16.2651    9.1706 O   0  0  0  0  0  0  0  0  0  0  0  0
   18.1402  -14.4423    8.1082 O   0  0  0  0  0  0  0  0  0  0  0  0
  2  1  1  0
  3  2  2  0
  4  3  1  0
  5  4  2  0
  5 11  1  0
  6  5  1  0
  7  6  1  0
  7  8  1  1
  9  7  1  0
 10  9  2  0
 11 12  2  0
 12  2  1  0
 13  9  1  0
 14 13  1  0
 14 21  1  0
 14 15  1  1
 16 15  1  0
 17 16  2  0
 18 19  1  0
 18 17  1  0
 19 20  2  0
 20 16  1  0
 21 22  2  0
 23 24  1  0
 24 26  1  0
 24 25  2  0
 26 27  1  0
 27 28  1  0
 29 28  1  0
 30 29  1  1
 31 21  1  0
 31 30  1  0
 32 30  1  0
 32 34  1  0
 33 32  2  0
M  END
$$$$
