YHR.pdb
     RDKit          3D

 34 35  0  0  1  0  0  0  0  0999 V2000
   16.4315  -18.3314    5.3366 O   0  0  0  0  0  0  0  0  0  0  0  0
   16.0759  -19.2901    4.3872 C   0  0  0  0  0  0  0  0  0  0  0  0
   15.1873  -20.3054    4.7267 C   0  0  0  0  0  0  0  0  0  0  0  0
   14.8533  -21.2388    3.7704 C   0  0  0  0  0  0  0  0  0  0  0  0
   15.3971  -21.1670    2.4824 C   0  0  0  0  0  0  0  0  0  0  0  0
   14.9959  -22.1895    1.5165 C   0  0  0  0  0  0  0  0  0  0  0  0
   14.0381  -21.6333    0.4952 C   0  0  2  0  0  0  0  0  0  0  0  0
   12.7768  -21.2890    1.0585 N   0  0  0  0  0  0  0  0  0  0  0  0
   13.8468  -22.5534   -0.6578 C   0  0  0  0  0  0  0  0  0  0  0  0
   12.8011  -23.2412   -0.6845 O   0  0  0  0  0  0  0  0  0  0  0  0
   16.2794  -20.1632    2.1363 C   0  0  0  0  0  0  0  0  0  0  0  0
   16.6026  -19.2395    3.1028 C   0  0  0  0  0  0  0  0  0  0  0  0
   14.7682  -22.6896   -1.7066 N   0  0  0  0  0  0  0  0  0  0  0  0
   14.7315  -23.5539   -2.8269 C   0  0  1  0  0  0  0  0  0  0  0  0
   15.5763  -23.1500   -4.0198 C   0  0  0  0  0  0  0  0  0  0  0  0
   15.2482  -23.9720   -5.2252 C   0  0  0  0  0  0  0  0  0  0  0  0
   14.4635  -25.1354   -5.1318 C   0  0  0  0  0  0  0  0  0  0  0  0
   14.3758  -25.6026   -6.3803 N   0  0  0  0  0  0  0  0  0  0  0  0
   15.0477  -24.8123   -7.2304 C   0  0  0  0  0  0  0  0  0  0  0  0
   15.5688  -23.8275   -6.5002 N   0  0  0  0  0  0  0  0  0  0  0  0
   14.8748  -24.9629   -2.5086 C   0  0  0  0  0  0  0  0  0  0  0  0
   15.8701  -25.3114   -1.7735 O   0  0  0  0  0  0  0  0  0  0  0  0
   12.9135  -31.1705   -6.9981 N   0  0  0  0  0  0  0  0  0  0  0  0
   13.1081  -29.8616   -7.5237 C   0  0  0  0  0  0  0  0  0  0  0  0
   12.6842  -29.5778   -8.6942 N   0  0  0  0  0  0  0  0  0  0  0  0
   13.7724  -28.8517   -6.7609 N   0  0  0  0  0  0  0  0  0  0  0  0
   14.2141  -29.0607   -5.3977 C   0  0  0  0  0  0  0  0  0  0  0  0
   14.9230  -27.8507   -4.8265 C   0  0  0  0  0  0  0  0  0  0  0  0
   15.1609  -28.1195   -3.3576 C   0  0  0  0  0  0  0  0  0  0  0  0
   14.2213  -27.3335   -2.4785 C   0  0  2  0  0  0  0  0  0  0  0  0
   14.0212  -25.9915   -2.9307 N   0  0  0  0  0  0  0  0  0  0  0  0
   14.6767  -27.2914   -1.0685 C   0  0  0  0  0  0  0  0  0  0  0  0
   14.1757  -26.4848   -0.2451 O   0  0  0  0  0  0  0  0  0  0  0  0
   15.6691  -28.1330   -0.5940 O   0  0  0  0  0  0  0  0  0  0  0  0
  2  1  1  0
  3  2  2  0
  4  3  1  0
  5  4  2  0
  5 11  1  0
  6  5  1  0
  7  6  1  0
  7  8  1  1
  9  7  1  0
 10  9  2  0
 11 12  2  0
 12  2  1  0
 13  9  1  0
 14 13  1  0
 14 21  1  0
 14 15  1  6
 16 15  1  0
 17 16  2  0
 18 19  1  0
 18 17  1  0
 19 20  2  0
 20 16  1  0
 21 22  2  0
 23 24  1  0
 24 26  1  0
 24 25  2  0
 26 27  1  0
 27 28  1  0
 29 28  1  0
 30 29  1  6
 31 21  1  0
 31 30  1  0
 32 30  1  0
 32 34  1  0
 33 32  2  0
M  END
$$$$
