YHR.pdb
     RDKit          3D

 34 35  0  0  1  0  0  0  0  0999 V2000
   14.3234  -16.3593  -19.3571 O   0  0  0  0  0  0  0  0  0  0  0  0
   14.7820  -15.3092  -18.5610 C   0  0  0  0  0  0  0  0  0  0  0  0
   14.5825  -15.3447  -17.1845 C   0  0  0  0  0  0  0  0  0  0  0  0
   15.0454  -14.2950  -16.4221 C   0  0  0  0  0  0  0  0  0  0  0  0
   15.7035  -13.2140  -17.0206 C   0  0  0  0  0  0  0  0  0  0  0  0
   16.1711  -12.1356  -16.1500 C   0  0  0  0  0  0  0  0  0  0  0  0
   17.6557  -12.2289  -15.9107 C   0  0  2  0  0  0  0  0  0  0  0  0
   18.0244  -13.4154  -15.2157 N   0  0  0  0  0  0  0  0  0  0  0  0
   18.1878  -11.0358  -15.1994 C   0  0  0  0  0  0  0  0  0  0  0  0
   17.8939  -10.9020  -13.9898 O   0  0  0  0  0  0  0  0  0  0  0  0
   15.9061  -13.1701  -18.3854 C   0  0  0  0  0  0  0  0  0  0  0  0
   15.4377  -14.2259  -19.1322 C   0  0  0  0  0  0  0  0  0  0  0  0
   18.9938  -10.0620  -15.8073 N   0  0  0  0  0  0  0  0  0  0  0  0
   19.5317   -8.8727  -15.2599 C   0  0  1  0  0  0  0  0  0  0  0  0
   20.5071   -8.1077  -16.1334 C   0  0  0  0  0  0  0  0  0  0  0  0
   21.1139   -6.9565  -15.3965 C   0  0  0  0  0  0  0  0  0  0  0  0
   20.8064   -6.7011  -14.0480 C   0  0  0  0  0  0  0  0  0  0  0  0
   21.5171   -5.6174  -13.7237 N   0  0  0  0  0  0  0  0  0  0  0  0
   22.2363   -5.1909  -14.7722 C   0  0  0  0  0  0  0  0  0  0  0  0
   21.9717   -6.0245  -15.7770 N   0  0  0  0  0  0  0  0  0  0  0  0
   18.5550   -7.9980  -14.6369 C   0  0  0  0  0  0  0  0  0  0  0  0
   17.5099   -7.6879  -15.3181 O   0  0  0  0  0  0  0  0  0  0  0  0
   13.9559   -8.1442   -7.3533 N   0  0  0  0  0  0  0  0  0  0  0  0
   13.5222   -6.9591   -8.0127 C   0  0  0  0  0  0  0  0  0  0  0  0
   12.5168   -6.3135   -7.5623 N   0  0  0  0  0  0  0  0  0  0  0  0
   14.1956   -6.4740   -9.1765 N   0  0  0  0  0  0  0  0  0  0  0  0
   15.3480   -7.1371   -9.7504 C   0  0  0  0  0  0  0  0  0  0  0  0
   15.8609   -6.4368  -10.9911 C   0  0  0  0  0  0  0  0  0  0  0  0
   16.9797   -7.2827  -11.5560 C   0  0  0  0  0  0  0  0  0  0  0  0
   17.5658   -6.6831  -12.8093 C   0  0  2  0  0  0  0  0  0  0  0  0
   18.6435   -7.4535  -13.3483 N   0  0  0  0  0  0  0  0  0  0  0  0
   18.0404   -5.2949  -12.5973 C   0  0  0  0  0  0  0  0  0  0  0  0
   19.2418   -5.0517  -12.3201 O   0  0  0  0  0  0  0  0  0  0  0  0
   17.1887   -4.2071  -12.6938 O   0  0  0  0  0  0  0  0  0  0  0  0
  2  1  1  0
  3  2  2  0
  4  3  1  0
  5  4  2  0
  5 11  1  0
  6  5  1  0
  7  6  1  0
  7  8  1  1
  9  7  1  0
 10  9  2  0
 11 12  2  0
 12  2  1  0
 13  9  1  0
 14 13  1  0
 14 21  1  0
 14 15  1  6
 16 15  1  0
 17 16  2  0
 18 19  1  0
 18 17  1  0
 19 20  2  0
 20 16  1  0
 21 22  2  0
 23 24  1  0
 24 26  1  0
 24 25  2  0
 26 27  1  0
 27 28  1  0
 29 28  1  0
 30 29  1  1
 31 21  1  0
 31 30  1  0
 32 30  1  0
 32 34  1  0
 33 32  2  0
M  END
$$$$
