YHR.pdb
     RDKit          3D

 34 35  0  0  1  0  0  0  0  0999 V2000
   28.2792  -15.1471  -16.3611 O   0  0  0  0  0  0  0  0  0  0  0  0
   27.7685  -13.8509  -16.2846 C   0  0  0  0  0  0  0  0  0  0  0  0
   28.5615  -12.8217  -15.7870 C   0  0  0  0  0  0  0  0  0  0  0  0
   28.0324  -11.5516  -15.7225 C   0  0  0  0  0  0  0  0  0  0  0  0
   26.7227  -11.3014  -16.1491 C   0  0  0  0  0  0  0  0  0  0  0  0
   26.2270   -9.9285  -16.0549 C   0  0  0  0  0  0  0  0  0  0  0  0
   26.4412   -9.1786  -17.3439 C   0  0  2  0  0  0  0  0  0  0  0  0
   27.8178   -9.0641  -17.6881 N   0  0  0  0  0  0  0  0  0  0  0  0
   25.8072   -7.8331  -17.3251 C   0  0  0  0  0  0  0  0  0  0  0  0
   26.5365   -6.8514  -17.0570 O   0  0  0  0  0  0  0  0  0  0  0  0
   25.9285  -12.3161  -16.6443 C   0  0  0  0  0  0  0  0  0  0  0  0
   26.4717  -13.5784  -16.7019 C   0  0  0  0  0  0  0  0  0  0  0  0
   24.4481   -7.6089  -17.5893 N   0  0  0  0  0  0  0  0  0  0  0  0
   23.7402   -6.3861  -17.6749 C   0  0  1  0  0  0  0  0  0  0  0  0
   24.3539   -5.3099  -18.5494 C   0  0  0  0  0  0  0  0  0  0  0  0
   25.4797   -4.6150  -17.8521 C   0  0  0  0  0  0  0  0  0  0  0  0
   25.5131   -4.4899  -16.4517 C   0  0  0  0  0  0  0  0  0  0  0  0
   26.6419   -3.8274  -16.1839 N   0  0  0  0  0  0  0  0  0  0  0  0
   27.3013   -3.5380  -17.3151 C   0  0  0  0  0  0  0  0  0  0  0  0
   26.5713   -4.0292  -18.3153 N   0  0  0  0  0  0  0  0  0  0  0  0
   22.3138   -6.5278  -17.9037 C   0  0  0  0  0  0  0  0  0  0  0  0
   21.9327   -7.3688  -18.7981 O   0  0  0  0  0  0  0  0  0  0  0  0
   16.9065  -12.0171  -16.2744 N   0  0  0  0  0  0  0  0  0  0  0  0
   16.0763  -11.0781  -16.9500 C   0  0  0  0  0  0  0  0  0  0  0  0
   14.9037  -11.4197  -17.3223 N   0  0  0  0  0  0  0  0  0  0  0  0
   16.5327   -9.7507  -17.2204 N   0  0  0  0  0  0  0  0  0  0  0  0
   17.8844   -9.3129  -16.9403 C   0  0  0  0  0  0  0  0  0  0  0  0
   18.1049   -7.8556  -17.2875 C   0  0  0  0  0  0  0  0  0  0  0  0
   19.5762   -7.5643  -17.0960 C   0  0  0  0  0  0  0  0  0  0  0  0
   19.9250   -6.1441  -17.4634 C   0  0  2  0  0  0  0  0  0  0  0  0
   21.3008   -5.8276  -17.2344 N   0  0  0  0  0  0  0  0  0  0  0  0
   19.0888   -5.1568  -16.7402 C   0  0  0  0  0  0  0  0  0  0  0  0
   19.5991   -4.3272  -15.9460 O   0  0  0  0  0  0  0  0  0  0  0  0
   17.7146   -5.1014  -16.9038 O   0  0  0  0  0  0  0  0  0  0  0  0
  2  1  1  0
  3  2  2  0
  4  3  1  0
  5  4  2  0
  5 11  1  0
  6  5  1  0
  7  6  1  0
  7  8  1  1
  9  7  1  0
 10  9  2  0
 11 12  2  0
 12  2  1  0
 13  9  1  0
 14 13  1  0
 14 21  1  0
 14 15  1  6
 16 15  1  0
 17 16  2  0
 18 19  1  0
 18 17  1  0
 19 20  2  0
 20 16  1  0
 21 22  2  0
 23 24  1  0
 24 26  1  0
 24 25  2  0
 26 27  1  0
 27 28  1  0
 29 28  1  0
 30 29  1  1
 31 21  1  0
 31 30  1  0
 32 30  1  0
 32 34  1  0
 33 32  2  0
M  END
$$$$
