YHR.pdb
     RDKit          3D

 34 35  0  0  1  0  0  0  0  0999 V2000
   15.1422  -18.1586  -16.9650 O   0  0  0  0  0  0  0  0  0  0  0  0
   15.7812  -16.9353  -17.1697 C   0  0  0  0  0  0  0  0  0  0  0  0
   15.0542  -15.8420  -17.6299 C   0  0  0  0  0  0  0  0  0  0  0  0
   15.7098  -14.6462  -17.8235 C   0  0  0  0  0  0  0  0  0  0  0  0
   17.0805  -14.5333  -17.5622 C   0  0  0  0  0  0  0  0  0  0  0  0
   17.7112  -13.2328  -17.7870 C   0  0  0  0  0  0  0  0  0  0  0  0
   17.9984  -12.5305  -16.4855 C   0  0  2  0  0  0  0  0  0  0  0  0
   16.8149  -12.2259  -15.7552 N   0  0  0  0  0  0  0  0  0  0  0  0
   18.8099  -11.2986  -16.6770 C   0  0  0  0  0  0  0  0  0  0  0  0
   18.2157  -10.2659  -17.0615 O   0  0  0  0  0  0  0  0  0  0  0  0
   17.8101  -15.6125  -17.1053 C   0  0  0  0  0  0  0  0  0  0  0  0
   17.1405  -16.7991  -16.9174 C   0  0  0  0  0  0  0  0  0  0  0  0
   20.1928  -11.2343  -16.4517 N   0  0  0  0  0  0  0  0  0  0  0  0
   21.0945  -10.1724  -16.7025 C   0  0  1  0  0  0  0  0  0  0  0  0
   21.9854   -9.7557  -15.5481 C   0  0  0  0  0  0  0  0  0  0  0  0
   21.2779   -8.8181  -14.6225 C   0  0  0  0  0  0  0  0  0  0  0  0
   19.9865   -8.3383  -14.9060 C   0  0  0  0  0  0  0  0  0  0  0  0
   19.6739   -7.5410  -13.8807 N   0  0  0  0  0  0  0  0  0  0  0  0
   20.6767   -7.4971  -12.9914 C   0  0  0  0  0  0  0  0  0  0  0  0
   21.6403   -8.2838  -13.4682 N   0  0  0  0  0  0  0  0  0  0  0  0
   21.8321  -10.2865  -17.9475 C   0  0  0  0  0  0  0  0  0  0  0  0
   22.4969  -11.3676  -18.1513 O   0  0  0  0  0  0  0  0  0  0  0  0
   21.9217   -6.1812  -25.9294 N   0  0  0  0  0  0  0  0  0  0  0  0
   22.7693   -7.3194  -26.0451 C   0  0  0  0  0  0  0  0  0  0  0  0
   23.3061   -7.5997  -27.1692 N   0  0  0  0  0  0  0  0  0  0  0  0
   23.0338   -8.1596  -24.9193 N   0  0  0  0  0  0  0  0  0  0  0  0
   22.4529   -7.9281  -23.6131 C   0  0  0  0  0  0  0  0  0  0  0  0
   22.8889   -8.9598  -22.5942 C   0  0  0  0  0  0  0  0  0  0  0  0
   22.1582   -8.6571  -21.3054 C   0  0  0  0  0  0  0  0  0  0  0  0
   22.5526   -9.5991  -20.1960 C   0  0  2  0  0  0  0  0  0  0  0  0
   21.8885   -9.3195  -18.9606 N   0  0  0  0  0  0  0  0  0  0  0  0
   24.0151   -9.5986  -19.9540 C   0  0  0  0  0  0  0  0  0  0  0  0
   24.5502   -8.7520  -19.1949 O   0  0  0  0  0  0  0  0  0  0  0  0
   24.8560  -10.5246  -20.5487 O   0  0  0  0  0  0  0  0  0  0  0  0
  2  1  1  0
  3  2  2  0
  4  3  1  0
  5  4  2  0
  5 11  1  0
  6  5  1  0
  7  6  1  0
  7  8  1  6
  9  7  1  0
 10  9  2  0
 11 12  2  0
 12  2  1  0
 13  9  1  0
 14 13  1  0
 14 21  1  0
 14 15  1  1
 16 15  1  0
 17 16  2  0
 18 19  1  0
 18 17  1  0
 19 20  2  0
 20 16  1  0
 21 22  2  0
 23 24  1  0
 24 26  1  0
 24 25  2  0
 26 27  1  0
 27 28  1  0
 29 28  1  0
 30 29  1  6
 31 21  1  0
 31 30  1  0
 32 30  1  0
 32 34  1  0
 33 32  2  0
M  END
$$$$
