YHR.pdb
     RDKit          3D

 34 35  0  0  1  0  0  0  0  0999 V2000
   32.0027  -21.6244  -10.1366 O   0  0  0  0  0  0  0  0  0  0  0  0
   30.7424  -21.1824  -10.5404 C   0  0  0  0  0  0  0  0  0  0  0  0
   29.6352  -21.4102   -9.7293 C   0  0  0  0  0  0  0  0  0  0  0  0
   28.4028  -20.9633  -10.1520 C   0  0  0  0  0  0  0  0  0  0  0  0
   28.2671  -20.2930  -11.3736 C   0  0  0  0  0  0  0  0  0  0  0  0
   26.9294  -19.8436  -11.7581 C   0  0  0  0  0  0  0  0  0  0  0  0
   26.1250  -20.9671  -12.3586 C   0  0  2  0  0  0  0  0  0  0  0  0
   26.8244  -21.6476  -13.3952 N   0  0  0  0  0  0  0  0  0  0  0  0
   24.7995  -20.5089  -12.8542 C   0  0  0  0  0  0  0  0  0  0  0  0
   24.7252  -19.3530  -13.3293 O   0  0  0  0  0  0  0  0  0  0  0  0
   29.3598  -20.0624  -12.1850 C   0  0  0  0  0  0  0  0  0  0  0  0
   30.5831  -20.5151  -11.7484 C   0  0  0  0  0  0  0  0  0  0  0  0
   23.6395  -21.2965  -12.8171 N   0  0  0  0  0  0  0  0  0  0  0  0
   22.6355  -21.4624  -13.8010 C   0  0  1  0  0  0  0  0  0  0  0  0
   23.1131  -21.7227  -15.2165 C   0  0  0  0  0  0  0  0  0  0  0  0
   23.7583  -20.5099  -15.8074 C   0  0  0  0  0  0  0  0  0  0  0  0
   23.6046  -19.2377  -15.2277 C   0  0  0  0  0  0  0  0  0  0  0  0
   24.3062  -18.4087  -16.0057 N   0  0  0  0  0  0  0  0  0  0  0  0
   24.8776  -19.0782  -17.0175 C   0  0  0  0  0  0  0  0  0  0  0  0
   24.5274  -20.3552  -16.8723 N   0  0  0  0  0  0  0  0  0  0  0  0
   21.5540  -22.3516  -13.4176 C   0  0  0  0  0  0  0  0  0  0  0  0
   21.8667  -23.5211  -12.9854 O   0  0  0  0  0  0  0  0  0  0  0  0
   13.2805  -21.6224  -10.2567 N   0  0  0  0  0  0  0  0  0  0  0  0
   13.5604  -23.0177  -10.3019 C   0  0  0  0  0  0  0  0  0  0  0  0
   12.6864  -23.8542   -9.8934 N   0  0  0  0  0  0  0  0  0  0  0  0
   14.8089  -23.5039  -10.8001 N   0  0  0  0  0  0  0  0  0  0  0  0
   15.8694  -22.6268  -11.2509 C   0  0  0  0  0  0  0  0  0  0  0  0
   17.0004  -23.3809  -11.9180 C   0  0  0  0  0  0  0  0  0  0  0  0
   18.0387  -22.3625  -12.3317 C   0  0  0  0  0  0  0  0  0  0  0  0
   19.2155  -23.0025  -13.0239 C   0  0  2  0  0  0  0  0  0  0  0  0
   20.1858  -22.0529  -13.4737 N   0  0  0  0  0  0  0  0  0  0  0  0
   18.8016  -23.8344  -14.1789 C   0  0  0  0  0  0  0  0  0  0  0  0
   18.7417  -23.3557  -15.3393 O   0  0  0  0  0  0  0  0  0  0  0  0
   18.4633  -25.1698  -14.0356 O   0  0  0  0  0  0  0  0  0  0  0  0
  2  1  1  0
  3  2  2  0
  4  3  1  0
  5  4  2  0
  5 11  1  0
  6  5  1  0
  7  6  1  0
  7  8  1  6
  9  7  1  0
 10  9  2  0
 11 12  2  0
 12  2  1  0
 13  9  1  0
 14 13  1  0
 14 21  1  0
 14 15  1  6
 16 15  1  0
 17 16  2  0
 18 19  1  0
 18 17  1  0
 19 20  2  0
 20 16  1  0
 21 22  2  0
 23 24  1  0
 24 26  1  0
 24 25  2  0
 26 27  1  0
 27 28  1  0
 29 28  1  0
 30 29  1  6
 31 21  1  0
 31 30  1  0
 32 30  1  0
 32 34  1  0
 33 32  2  0
M  END
$$$$
