YHR.pdb
     RDKit          3D

 34 35  0  0  1  0  0  0  0  0999 V2000
   11.3108  -17.1314  -15.8671 O   0  0  0  0  0  0  0  0  0  0  0  0
   12.0435  -16.0962  -15.2852 C   0  0  0  0  0  0  0  0  0  0  0  0
   12.0124  -14.8239  -15.8474 C   0  0  0  0  0  0  0  0  0  0  0  0
   12.7449  -13.8204  -15.2527 C   0  0  0  0  0  0  0  0  0  0  0  0
   13.5055  -14.0756  -14.1055 C   0  0  0  0  0  0  0  0  0  0  0  0
   14.2561  -12.9625  -13.5252 C   0  0  0  0  0  0  0  0  0  0  0  0
   15.5374  -12.7139  -14.2777 C   0  0  2  0  0  0  0  0  0  0  0  0
   16.4411  -13.8110  -14.1971 N   0  0  0  0  0  0  0  0  0  0  0  0
   16.2142  -11.4635  -13.8405 C   0  0  0  0  0  0  0  0  0  0  0  0
   16.8686  -11.5000  -12.7738 O   0  0  0  0  0  0  0  0  0  0  0  0
   13.5424  -15.3347  -13.5406 C   0  0  0  0  0  0  0  0  0  0  0  0
   12.8056  -16.3255  -14.1466 C   0  0  0  0  0  0  0  0  0  0  0  0
   16.1577  -10.2571  -14.5539 N   0  0  0  0  0  0  0  0  0  0  0  0
   16.7764   -9.0163  -14.2692 C   0  0  1  0  0  0  0  0  0  0  0  0
   17.4586   -8.3193  -15.4305 C   0  0  0  0  0  0  0  0  0  0  0  0
   18.5486   -9.1631  -16.0104 C   0  0  0  0  0  0  0  0  0  0  0  0
   19.5170   -9.7769  -15.1958 C   0  0  0  0  0  0  0  0  0  0  0  0
   20.3161  -10.4396  -16.0366 N   0  0  0  0  0  0  0  0  0  0  0  0
   19.9093  -10.2773  -17.3042 C   0  0  0  0  0  0  0  0  0  0  0  0
   18.8314   -9.4958  -17.2588 N   0  0  0  0  0  0  0  0  0  0  0  0
   15.9666   -8.1028  -13.4838 C   0  0  0  0  0  0  0  0  0  0  0  0
   14.7445   -7.9283  -13.8424 O   0  0  0  0  0  0  0  0  0  0  0  0
   15.1595   -5.4745   -5.0445 N   0  0  0  0  0  0  0  0  0  0  0  0
   13.9994   -5.0387   -5.7457 C   0  0  0  0  0  0  0  0  0  0  0  0
   13.0012   -4.5773   -5.0969 N   0  0  0  0  0  0  0  0  0  0  0  0
   13.9304   -5.1071   -7.1718 N   0  0  0  0  0  0  0  0  0  0  0  0
   14.8676   -5.8725   -7.9674 C   0  0  0  0  0  0  0  0  0  0  0  0
   14.6002   -5.7517   -9.4529 C   0  0  0  0  0  0  0  0  0  0  0  0
   15.5964   -6.6396  -10.1638 C   0  0  0  0  0  0  0  0  0  0  0  0
   15.4941   -6.5185  -11.6634 C   0  0  2  0  0  0  0  0  0  0  0  0
   16.3947   -7.3851  -12.3586 N   0  0  0  0  0  0  0  0  0  0  0  0
   15.7232   -5.1303  -12.1302 C   0  0  0  0  0  0  0  0  0  0  0  0
   14.7951   -4.2829  -12.1365 O   0  0  0  0  0  0  0  0  0  0  0  0
   16.9621   -4.7036  -12.5787 O   0  0  0  0  0  0  0  0  0  0  0  0
  2  1  1  0
  3  2  2  0
  4  3  1  0
  5  4  2  0
  5 11  1  0
  6  5  1  0
  7  6  1  0
  7  8  1  1
  9  7  1  0
 10  9  2  0
 11 12  2  0
 12  2  1  0
 13  9  1  0
 14 13  1  0
 14 21  1  0
 14 15  1  6
 16 15  1  0
 17 16  2  0
 18 19  1  0
 18 17  1  0
 19 20  2  0
 20 16  1  0
 21 22  2  0
 23 24  1  0
 24 26  1  0
 24 25  2  0
 26 27  1  0
 27 28  1  0
 29 28  1  0
 30 29  1  1
 31 21  1  0
 31 30  1  0
 32 30  1  0
 32 34  1  0
 33 32  2  0
M  END
$$$$
