YHR.pdb
     RDKit          3D

 34 35  0  0  1  0  0  0  0  0999 V2000
   11.4300  -14.9137  -11.3708 O   0  0  0  0  0  0  0  0  0  0  0  0
   12.1585  -13.7241  -11.3394 C   0  0  0  0  0  0  0  0  0  0  0  0
   12.6880  -13.2670  -10.1368 C   0  0  0  0  0  0  0  0  0  0  0  0
   13.4031  -12.0898  -10.1343 C   0  0  0  0  0  0  0  0  0  0  0  0
   13.5933  -11.3676  -11.3184 C   0  0  0  0  0  0  0  0  0  0  0  0
   14.3654  -10.1276  -11.2426 C   0  0  0  0  0  0  0  0  0  0  0  0
   15.8001  -10.3497  -11.6452 C   0  0  2  0  0  0  0  0  0  0  0  0
   16.4762  -11.2582  -10.7825 N   0  0  0  0  0  0  0  0  0  0  0  0
   16.5621   -9.0758  -11.7412 C   0  0  0  0  0  0  0  0  0  0  0  0
   17.0436   -8.6063  -10.6852 O   0  0  0  0  0  0  0  0  0  0  0  0
   13.0718  -11.8132  -12.5163 C   0  0  0  0  0  0  0  0  0  0  0  0
   12.3603  -12.9902  -12.5017 C   0  0  0  0  0  0  0  0  0  0  0  0
   16.7670   -8.3795  -12.9414 N   0  0  0  0  0  0  0  0  0  0  0  0
   17.4142   -7.1399  -13.1607 C   0  0  1  0  0  0  0  0  0  0  0  0
   18.4026   -7.0877  -14.3097 C   0  0  0  0  0  0  0  0  0  0  0  0
   19.5165   -8.0668  -14.1174 C   0  0  0  0  0  0  0  0  0  0  0  0
   19.6180   -8.8470  -12.9516 C   0  0  0  0  0  0  0  0  0  0  0  0
   20.7122   -9.5944  -13.1219 N   0  0  0  0  0  0  0  0  0  0  0  0
   21.2873   -9.3301  -14.3042 C   0  0  0  0  0  0  0  0  0  0  0  0
   20.5386   -8.3966  -14.8894 N   0  0  0  0  0  0  0  0  0  0  0  0
   16.5329   -5.9866  -13.1459 C   0  0  0  0  0  0  0  0  0  0  0  0
   15.4947   -6.0181  -13.9033 O   0  0  0  0  0  0  0  0  0  0  0  0
   14.6562   -2.8952   -5.8148 N   0  0  0  0  0  0  0  0  0  0  0  0
   13.7315   -3.7466   -6.4837 C   0  0  0  0  0  0  0  0  0  0  0  0
   12.6658   -4.1196   -5.8875 N   0  0  0  0  0  0  0  0  0  0  0  0
   13.9740   -4.1940   -7.8195 N   0  0  0  0  0  0  0  0  0  0  0  0
   14.6843   -3.3967   -8.7978 C   0  0  0  0  0  0  0  0  0  0  0  0
   14.8482   -4.1143  -10.1210 C   0  0  0  0  0  0  0  0  0  0  0  0
   15.4847   -3.1399  -11.0863 C   0  0  0  0  0  0  0  0  0  0  0  0
   15.7509   -3.7673  -12.4314 C   0  0  2  0  0  0  0  0  0  0  0  0
   16.7076   -4.8289  -12.3753 N   0  0  0  0  0  0  0  0  0  0  0  0
   16.2089   -2.7742  -13.4320 C   0  0  0  0  0  0  0  0  0  0  0  0
   17.3527   -2.8477  -13.9476 O   0  0  0  0  0  0  0  0  0  0  0  0
   15.4041   -1.7250  -13.8439 O   0  0  0  0  0  0  0  0  0  0  0  0
  2  1  1  0
  3  2  2  0
  4  3  1  0
  5  4  2  0
  5 11  1  0
  6  5  1  0
  7  6  1  0
  7  8  1  1
  9  7  1  0
 10  9  2  0
 11 12  2  0
 12  2  1  0
 13  9  1  0
 14 13  1  0
 14 21  1  0
 14 15  1  6
 16 15  1  0
 17 16  2  0
 18 19  1  0
 18 17  1  0
 19 20  2  0
 20 16  1  0
 21 22  2  0
 23 24  1  0
 24 26  1  0
 24 25  2  0
 26 27  1  0
 27 28  1  0
 29 28  1  0
 30 29  1  1
 31 21  1  0
 31 30  1  0
 32 30  1  0
 32 34  1  0
 33 32  2  0
M  END
$$$$
