YHR.pdb
     RDKit          3D

 34 35  0  0  1  0  0  0  0  0999 V2000
   14.9278  -20.1459  -15.6801 O   0  0  0  0  0  0  0  0  0  0  0  0
   16.3078  -20.3456  -15.6283 C   0  0  0  0  0  0  0  0  0  0  0  0
   17.1385  -19.6804  -16.5245 C   0  0  0  0  0  0  0  0  0  0  0  0
   18.4970  -19.8958  -16.4514 C   0  0  0  0  0  0  0  0  0  0  0  0
   19.0312  -20.7666  -15.4942 C   0  0  0  0  0  0  0  0  0  0  0  0
   20.4827  -20.9454  -15.4718 C   0  0  0  0  0  0  0  0  0  0  0  0
   20.8894  -22.2161  -16.1716 C   0  0  2  0  0  0  0  0  0  0  0  0
   20.4164  -23.3826  -15.5066 N   0  0  0  0  0  0  0  0  0  0  0  0
   22.3611  -22.3041  -16.3696 C   0  0  0  0  0  0  0  0  0  0  0  0
   23.0541  -22.6984  -15.4044 O   0  0  0  0  0  0  0  0  0  0  0  0
   18.2149  -21.4308  -14.6008 C   0  0  0  0  0  0  0  0  0  0  0  0
   16.8609  -21.2049  -14.6873 C   0  0  0  0  0  0  0  0  0  0  0  0
   23.0067  -21.9714  -17.5695 N   0  0  0  0  0  0  0  0  0  0  0  0
   24.3718  -22.1013  -17.9201 C   0  0  1  0  0  0  0  0  0  0  0  0
   24.6656  -22.5328  -19.3439 C   0  0  0  0  0  0  0  0  0  0  0  0
   26.1351  -22.6837  -19.5771 C   0  0  0  0  0  0  0  0  0  0  0  0
   26.8004  -23.8964  -19.3224 C   0  0  0  0  0  0  0  0  0  0  0  0
   28.0785  -23.6705  -19.6390 N   0  0  0  0  0  0  0  0  0  0  0  0
   28.2449  -22.4109  -20.0684 C   0  0  0  0  0  0  0  0  0  0  0  0
   27.0456  -21.8329  -20.0205 N   0  0  0  0  0  0  0  0  0  0  0  0
   25.2119  -20.9942  -17.5010 C   0  0  0  0  0  0  0  0  0  0  0  0
   24.7999  -19.8028  -17.7526 O   0  0  0  0  0  0  0  0  0  0  0  0
   29.0266  -20.9147  -10.3085 N   0  0  0  0  0  0  0  0  0  0  0  0
   29.1877  -21.5980  -11.5473 C   0  0  0  0  0  0  0  0  0  0  0  0
   30.0354  -22.5481  -11.6429 N   0  0  0  0  0  0  0  0  0  0  0  0
   28.4128  -21.2395  -12.6937 N   0  0  0  0  0  0  0  0  0  0  0  0
   27.4268  -20.1791  -12.6745 C   0  0  0  0  0  0  0  0  0  0  0  0
   26.7143  -20.0265  -14.0019 C   0  0  0  0  0  0  0  0  0  0  0  0
   27.7713  -20.0247  -15.0831 C   0  0  0  0  0  0  0  0  0  0  0  0
   27.1702  -19.9290  -16.4627 C   0  0  2  0  0  0  0  0  0  0  0  0
   26.4432  -21.1015  -16.8399 N   0  0  0  0  0  0  0  0  0  0  0  0
   28.1918  -19.6550  -17.5012 C   0  0  0  0  0  0  0  0  0  0  0  0
   28.8653  -20.5836  -18.0146 O   0  0  0  0  0  0  0  0  0  0  0  0
   28.4513  -18.3715  -17.9524 O   0  0  0  0  0  0  0  0  0  0  0  0
  2  1  1  0
  3  2  2  0
  4  3  1  0
  5  4  2  0
  5 11  1  0
  6  5  1  0
  7  6  1  0
  7  8  1  1
  9  7  1  0
 10  9  2  0
 11 12  2  0
 12  2  1  0
 13  9  1  0
 14 13  1  0
 14 21  1  0
 14 15  1  6
 16 15  1  0
 17 16  2  0
 18 19  1  0
 18 17  1  0
 19 20  2  0
 20 16  1  0
 21 22  2  0
 23 24  1  0
 24 26  1  0
 24 25  2  0
 26 27  1  0
 27 28  1  0
 29 28  1  0
 30 29  1  1
 31 21  1  0
 31 30  1  0
 32 30  1  0
 32 34  1  0
 33 32  2  0
M  END
$$$$
