CYV.pdb
     RDKit          3D

 26 26  0  0  1  0  0  0  0  0999 V2000
   18.4706  -21.4106  -13.5095 N   0  0  0  0  0  0  0  0  0  0  0  0
   19.5343  -21.3759  -14.4615 C   0  0  1  0  0  0  0  0  0  0  0  0
   19.0690  -20.5714  -15.6691 C   0  0  0  0  0  0  0  0  0  0  0  0
   20.4105  -20.3965  -16.8715 S   0  0  0  0  0  0  0  0  0  0  0  0
   20.7783  -20.7832  -13.9381 C   0  0  0  0  0  0  0  0  0  0  0  0
   20.7074  -19.6734  -13.3263 O   0  0  0  0  0  0  0  0  0  0  0  0
   27.2621  -20.3203   -8.2739 O   0  0  0  0  0  0  0  0  0  0  0  0
   26.3585  -20.7008   -9.2592 C   0  0  0  0  0  0  0  0  0  0  0  0
   26.7896  -21.2731  -10.4421 C   0  0  0  0  0  0  0  0  0  0  0  0
   25.8970  -21.6498  -11.4169 C   0  0  0  0  0  0  0  0  0  0  0  0
   24.5135  -21.4784  -11.2716 C   0  0  0  0  0  0  0  0  0  0  0  0
   23.5897  -21.8598  -12.3489 C   0  0  0  0  0  0  0  0  0  0  0  0
   23.2397  -20.8384  -13.3564 C   0  0  2  0  0  0  0  0  0  0  0  0
   22.0462  -21.3745  -14.0754 N   0  0  0  0  0  0  0  0  0  0  0  0
   24.2961  -20.5357  -14.3280 C   0  0  0  0  0  0  0  0  0  0  0  0
   24.3743  -21.3269  -15.3397 O   0  0  0  0  0  0  0  0  0  0  0  0
   24.1035  -20.9076  -10.0882 C   0  0  0  0  0  0  0  0  0  0  0  0
   24.9953  -20.5282   -9.1078 C   0  0  0  0  0  0  0  0  0  0  0  0
   27.8481  -17.7519  -16.3709 C   0  0  0  0  0  0  0  0  0  0  0  0
   26.9097  -17.9715  -15.2252 C   0  0  2  0  0  0  0  0  0  0  0  0
   27.7331  -18.0222  -13.9590 C   0  0  0  0  0  0  0  0  0  0  0  0
   26.1070  -19.2481  -15.3563 C   0  0  2  0  0  0  0  0  0  0  0  0
   25.2206  -19.4578  -14.2535 N   0  0  0  0  0  0  0  0  0  0  0  0
   27.0540  -20.3746  -15.4761 C   0  0  0  0  0  0  0  0  0  0  0  0
   27.4865  -21.0213  -14.5107 O   0  0  0  0  0  0  0  0  0  0  0  0
   27.5304  -20.7853  -16.7413 O   0  0  0  0  0  0  0  0  0  0  0  0
  2  3  1  0
  2  1  1  1
  4  3  1  0
  5  6  2  0
  5  2  1  0
  7  8  1  0
  8 18  2  0
  9 10  2  0
  9  8  1  0
 10 11  1  0
 11 17  2  0
 11 12  1  0
 13 12  1  1
 13 14  1  0
 14  5  1  0
 15 13  1  0
 15 16  2  0
 18 17  1  0
 20 19  1  6
 20 21  1  0
 22 23  1  1
 22 20  1  0
 23 15  1  0
 24 22  1  0
 25 24  2  0
 26 24  1  0
M  END
$$$$
