CYV.pdb
     RDKit          3D

 26 26  0  0  1  0  0  0  0  0999 V2000
   29.2490  -23.3899  -17.4548 N   0  0  0  0  0  0  0  0  0  0  0  0
   28.6835  -22.1356  -17.0726 C   0  0  1  0  0  0  0  0  0  0  0  0
   27.8896  -21.5898  -18.2532 C   0  0  0  0  0  0  0  0  0  0  0  0
   28.9748  -20.6865  -19.3856 S   0  0  0  0  0  0  0  0  0  0  0  0
   27.8004  -22.2184  -15.8953 C   0  0  0  0  0  0  0  0  0  0  0  0
   27.0715  -23.2484  -15.7586 O   0  0  0  0  0  0  0  0  0  0  0  0
   24.6805  -20.2177   -7.6924 O   0  0  0  0  0  0  0  0  0  0  0  0
   25.3804  -20.3261   -8.8884 C   0  0  0  0  0  0  0  0  0  0  0  0
   25.1707  -19.4328   -9.9230 C   0  0  0  0  0  0  0  0  0  0  0  0
   25.8623  -19.5389  -11.1059 C   0  0  0  0  0  0  0  0  0  0  0  0
   26.8099  -20.5469  -11.3310 C   0  0  0  0  0  0  0  0  0  0  0  0
   27.5057  -20.6526  -12.6211 C   0  0  0  0  0  0  0  0  0  0  0  0
   26.8292  -21.3758  -13.7166 C   0  0  2  0  0  0  0  0  0  0  0  0
   27.7149  -21.2210  -14.9084 N   0  0  0  0  0  0  0  0  0  0  0  0
   25.4845  -20.8903  -14.0450 C   0  0  0  0  0  0  0  0  0  0  0  0
   25.4302  -19.8029  -14.7307 O   0  0  0  0  0  0  0  0  0  0  0  0
   27.0051  -21.4262  -10.2903 C   0  0  0  0  0  0  0  0  0  0  0  0
   26.3135  -21.3235   -9.1022 C   0  0  0  0  0  0  0  0  0  0  0  0
   21.9181  -22.9784  -14.7016 C   0  0  0  0  0  0  0  0  0  0  0  0
   22.2402  -21.5647  -15.0748 C   0  0  2  0  0  0  0  0  0  0  0  0
   23.0318  -21.5974  -16.3618 C   0  0  0  0  0  0  0  0  0  0  0  0
   23.0369  -20.8404  -14.0110 C   0  0  2  0  0  0  0  0  0  0  0  0
   24.2571  -21.5109  -13.6836 N   0  0  0  0  0  0  0  0  0  0  0  0
   22.1855  -20.7077  -12.8119 C   0  0  0  0  0  0  0  0  0  0  0  0
   22.4251  -21.2599  -11.7280 O   0  0  0  0  0  0  0  0  0  0  0  0
   21.0150  -19.9169  -12.8419 O   0  0  0  0  0  0  0  0  0  0  0  0
  2  3  1  0
  2  1  1  6
  4  3  1  0
  5  6  2  0
  5  2  1  0
  7  8  1  0
  8 18  2  0
  9 10  2  0
  9  8  1  0
 10 11  1  0
 11 17  2  0
 11 12  1  0
 13 12  1  1
 13 14  1  0
 14  5  1  0
 15 13  1  0
 15 16  2  0
 18 17  1  0
 20 19  1  1
 20 21  1  0
 22 23  1  1
 22 20  1  0
 23 15  1  0
 24 22  1  0
 25 24  2  0
 26 24  1  0
M  END
$$$$
