CYV.pdb
     RDKit          3D

 26 26  0  0  1  0  0  0  0  0999 V2000
   26.7379  -15.5924  -18.5306 N   0  0  0  0  0  0  0  0  0  0  0  0
   25.8952  -15.8139  -17.3993 C   0  0  1  0  0  0  0  0  0  0  0  0
   24.6658  -14.9244  -17.5376 C   0  0  0  0  0  0  0  0  0  0  0  0
   23.5602  -15.1436  -16.1214 S   0  0  0  0  0  0  0  0  0  0  0  0
   25.4617  -17.2148  -17.2492 C   0  0  0  0  0  0  0  0  0  0  0  0
   25.0036  -17.8175  -18.2679 O   0  0  0  0  0  0  0  0  0  0  0  0
   25.2017  -25.7245  -14.6732 O   0  0  0  0  0  0  0  0  0  0  0  0
   25.3928  -24.3562  -14.8257 C   0  0  0  0  0  0  0  0  0  0  0  0
   25.9356  -23.8350  -15.9860 C   0  0  0  0  0  0  0  0  0  0  0  0
   26.1249  -22.4823  -16.1379 C   0  0  0  0  0  0  0  0  0  0  0  0
   25.7831  -21.5617  -15.1377 C   0  0  0  0  0  0  0  0  0  0  0  0
   26.0320  -20.1248  -15.3191 C   0  0  0  0  0  0  0  0  0  0  0  0
   24.9585  -19.3049  -15.9157 C   0  0  2  0  0  0  0  0  0  0  0  0
   25.5246  -17.9291  -16.0401 N   0  0  0  0  0  0  0  0  0  0  0  0
   23.7145  -19.2494  -15.1404 C   0  0  0  0  0  0  0  0  0  0  0  0
   23.7680  -18.5912  -14.0360 O   0  0  0  0  0  0  0  0  0  0  0  0
   25.2444  -22.0988  -13.9907 C   0  0  0  0  0  0  0  0  0  0  0  0
   25.0528  -23.4550  -13.8340 C   0  0  0  0  0  0  0  0  0  0  0  0
   19.6630  -19.9578  -16.4026 C   0  0  0  0  0  0  0  0  0  0  0  0
   20.1363  -19.1612  -15.2267 C   0  0  2  0  0  0  0  0  0  0  0  0
   20.4219  -17.7570  -15.7069 C   0  0  0  0  0  0  0  0  0  0  0  0
   21.3803  -19.7377  -14.5855 C   0  0  2  0  0  0  0  0  0  0  0  0
   22.4740  -19.8438  -15.5011 N   0  0  0  0  0  0  0  0  0  0  0  0
   21.0394  -21.0651  -14.0358 C   0  0  0  0  0  0  0  0  0  0  0  0
   21.4782  -22.1341  -14.4851 O   0  0  0  0  0  0  0  0  0  0  0  0
   20.1657  -21.1862  -12.9320 O   0  0  0  0  0  0  0  0  0  0  0  0
  2  3  1  0
  2  1  1  6
  4  3  1  0
  5  6  2  0
  5  2  1  0
  7  8  1  0
  8 18  2  0
  9 10  2  0
  9  8  1  0
 10 11  1  0
 11 17  2  0
 11 12  1  0
 13 12  1  1
 13 14  1  0
 14  5  1  0
 15 13  1  0
 15 16  2  0
 18 17  1  0
 20 19  1  6
 20 21  1  0
 22 23  1  6
 22 20  1  0
 23 15  1  0
 24 22  1  0
 25 24  2  0
 26 24  1  0
M  END
$$$$
