CYV.pdb
     RDKit          3D

 26 26  0  0  1  0  0  0  0  0999 V2000
   26.6772  -25.1135  -16.1908 N   0  0  0  0  0  0  0  0  0  0  0  0
   26.8417  -23.7403  -15.8352 C   0  0  1  0  0  0  0  0  0  0  0  0
   26.9634  -22.9258  -17.1172 C   0  0  0  0  0  0  0  0  0  0  0  0
   28.5729  -23.2044  -17.8968 S   0  0  0  0  0  0  0  0  0  0  0  0
   25.7340  -23.2016  -15.0255 C   0  0  0  0  0  0  0  0  0  0  0  0
   24.6918  -23.9112  -14.8800 O   0  0  0  0  0  0  0  0  0  0  0  0
   22.5080  -20.7136   -7.5047 O   0  0  0  0  0  0  0  0  0  0  0  0
   23.1696  -20.6820   -8.7267 C   0  0  0  0  0  0  0  0  0  0  0  0
   22.5123  -20.3133   -9.8863 C   0  0  0  0  0  0  0  0  0  0  0  0
   23.1655  -20.2816  -11.0951 C   0  0  0  0  0  0  0  0  0  0  0  0
   24.5205  -20.6169  -11.2226 C   0  0  0  0  0  0  0  0  0  0  0  0
   25.1789  -20.6066  -12.5364 C   0  0  0  0  0  0  0  0  0  0  0  0
   24.5989  -21.4392  -13.6093 C   0  0  2  0  0  0  0  0  0  0  0  0
   25.7605  -21.9426  -14.4007 N   0  0  0  0  0  0  0  0  0  0  0  0
   23.6684  -20.7417  -14.5035 C   0  0  0  0  0  0  0  0  0  0  0  0
   24.1803  -19.8203  -15.2415 O   0  0  0  0  0  0  0  0  0  0  0  0
   25.1577  -20.9811  -10.0583 C   0  0  0  0  0  0  0  0  0  0  0  0
   24.5064  -21.0143   -8.8438 C   0  0  0  0  0  0  0  0  0  0  0  0
   19.9835  -22.0036  -16.2024 C   0  0  0  0  0  0  0  0  0  0  0  0
   20.8781  -20.8852  -16.6388 C   0  0  2  0  0  0  0  0  0  0  0  0
   21.9671  -21.4774  -17.5031 C   0  0  0  0  0  0  0  0  0  0  0  0
   21.5036  -20.1425  -15.4776 C   0  0  2  0  0  0  0  0  0  0  0  0
   22.2749  -20.9964  -14.6282 N   0  0  0  0  0  0  0  0  0  0  0  0
   20.4203  -19.4963  -14.7101 C   0  0  0  0  0  0  0  0  0  0  0  0
   20.1388  -19.7801  -13.5364 O   0  0  0  0  0  0  0  0  0  0  0  0
   19.6235  -18.4874  -15.2961 O   0  0  0  0  0  0  0  0  0  0  0  0
  2  3  1  0
  2  1  1  6
  4  3  1  0
  5  6  2  0
  5  2  1  0
  7  8  1  0
  8 18  2  0
  9 10  2  0
  9  8  1  0
 10 11  1  0
 11 17  2  0
 11 12  1  0
 13 12  1  1
 13 14  1  0
 14  5  1  0
 15 13  1  0
 15 16  2  0
 18 17  1  0
 20 19  1  1
 20 21  1  0
 22 23  1  1
 22 20  1  0
 23 15  1  0
 24 22  1  0
 25 24  2  0
 26 24  1  0
M  END
$$$$
