CYV.pdb
     RDKit          3D

 26 26  0  0  1  0  0  0  0  0999 V2000
   24.8825  -13.9441  -17.2820 N   0  0  0  0  0  0  0  0  0  0  0  0
   24.6379  -12.9028  -16.3360 C   0  0  1  0  0  0  0  0  0  0  0  0
   25.9387  -12.1397  -16.1181 C   0  0  0  0  0  0  0  0  0  0  0  0
   27.1690  -13.1970  -15.3155 S   0  0  0  0  0  0  0  0  0  0  0  0
   23.5886  -11.9563  -16.7554 C   0  0  0  0  0  0  0  0  0  0  0  0
   23.5064  -11.6520  -17.9848 O   0  0  0  0  0  0  0  0  0  0  0  0
   15.5494   -8.2431  -17.2729 O   0  0  0  0  0  0  0  0  0  0  0  0
   16.7173   -8.9582  -17.0352 C   0  0  0  0  0  0  0  0  0  0  0  0
   16.9806   -9.5048  -15.7924 C   0  0  0  0  0  0  0  0  0  0  0  0
   18.1351  -10.2122  -15.5563 C   0  0  0  0  0  0  0  0  0  0  0  0
   19.1023  -10.4192  -16.5493 C   0  0  0  0  0  0  0  0  0  0  0  0
   20.3422  -11.1501  -16.2529 C   0  0  0  0  0  0  0  0  0  0  0  0
   21.6205  -10.4178  -16.3557 C   0  0  2  0  0  0  0  0  0  0  0  0
   22.6676  -11.3660  -15.8725 N   0  0  0  0  0  0  0  0  0  0  0  0
   21.6913   -9.1778  -15.5753 C   0  0  0  0  0  0  0  0  0  0  0  0
   21.9788   -9.3127  -14.3284 O   0  0  0  0  0  0  0  0  0  0  0  0
   18.8230   -9.8681  -17.7792 C   0  0  0  0  0  0  0  0  0  0  0  0
   17.6663   -9.1578  -18.0204 C   0  0  0  0  0  0  0  0  0  0  0  0
   22.4338   -4.4525  -14.7435 C   0  0  0  0  0  0  0  0  0  0  0  0
   22.4001   -5.6249  -15.6739 C   0  0  2  0  0  0  0  0  0  0  0  0
   21.8362   -5.1497  -16.9930 C   0  0  0  0  0  0  0  0  0  0  0  0
   21.5606   -6.7702  -15.1498 C   0  0  2  0  0  0  0  0  0  0  0  0
   21.4805   -7.8616  -16.0707 N   0  0  0  0  0  0  0  0  0  0  0  0
   20.2116   -6.2500  -14.8505 C   0  0  0  0  0  0  0  0  0  0  0  0
   19.2478   -6.3381  -15.6255 O   0  0  0  0  0  0  0  0  0  0  0  0
   19.9434   -5.6038  -13.6230 O   0  0  0  0  0  0  0  0  0  0  0  0
  2  3  1  0
  2  1  1  6
  4  3  1  0
  5  6  2  0
  5  2  1  0
  7  8  1  0
  8 18  2  0
  9 10  2  0
  9  8  1  0
 10 11  1  0
 11 17  2  0
 11 12  1  0
 13 12  1  1
 13 14  1  0
 14  5  1  0
 15 13  1  0
 15 16  2  0
 18 17  1  0
 20 19  1  1
 20 21  1  0
 22 23  1  6
 22 20  1  0
 23 15  1  0
 24 22  1  0
 25 24  2  0
 26 24  1  0
M  END
$$$$
