CYV.pdb
     RDKit          3D

 26 26  0  0  1  0  0  0  0  0999 V2000
   19.5341  -25.4454  -14.6135 N   0  0  0  0  0  0  0  0  0  0  0  0
   19.7502  -26.0446  -13.3355 C   0  0  1  0  0  0  0  0  0  0  0  0
   21.2278  -25.9102  -12.9882 C   0  0  0  0  0  0  0  0  0  0  0  0
   21.6983  -24.1660  -12.8763 S   0  0  0  0  0  0  0  0  0  0  0  0
   18.9452  -25.4443  -12.2564 C   0  0  0  0  0  0  0  0  0  0  0  0
   18.8683  -24.1790  -12.1930 O   0  0  0  0  0  0  0  0  0  0  0  0
   14.4622  -21.3614  -14.4008 O   0  0  0  0  0  0  0  0  0  0  0  0
   14.8278  -22.4107  -13.5658 C   0  0  0  0  0  0  0  0  0  0  0  0
   14.6261  -22.3406  -12.1994 C   0  0  0  0  0  0  0  0  0  0  0  0
   14.9872  -23.3776  -11.3728 C   0  0  0  0  0  0  0  0  0  0  0  0
   15.5741  -24.5535  -11.8599 C   0  0  0  0  0  0  0  0  0  0  0  0
   15.9807  -25.6282  -10.9438 C   0  0  0  0  0  0  0  0  0  0  0  0
   17.3174  -25.5410  -10.3222 C   0  0  2  0  0  0  0  0  0  0  0  0
   18.2532  -26.1909  -11.2870 N   0  0  0  0  0  0  0  0  0  0  0  0
   17.4387  -26.1935   -9.0141 C   0  0  0  0  0  0  0  0  0  0  0  0
   17.9334  -27.3813   -9.0209 O   0  0  0  0  0  0  0  0  0  0  0  0
   15.7669  -24.6050  -13.2217 C   0  0  0  0  0  0  0  0  0  0  0  0
   15.4063  -23.5672  -14.0545 C   0  0  0  0  0  0  0  0  0  0  0  0
   18.6879  -24.5373   -5.5328 C   0  0  0  0  0  0  0  0  0  0  0  0
   17.5584  -25.5050   -5.3619 C   0  0  2  0  0  0  0  0  0  0  0  0
   17.8697  -26.3685   -4.1614 C   0  0  0  0  0  0  0  0  0  0  0  0
   17.3466  -26.3852   -6.5750 C   0  0  2  0  0  0  0  0  0  0  0  0
   17.0700  -25.6336   -7.7600 N   0  0  0  0  0  0  0  0  0  0  0  0
   16.2339  -27.3102   -6.2813 C   0  0  0  0  0  0  0  0  0  0  0  0
   15.0439  -27.0613   -6.5248 O   0  0  0  0  0  0  0  0  0  0  0  0
   16.4792  -28.5687   -5.6876 O   0  0  0  0  0  0  0  0  0  0  0  0
  2  3  1  0
  2  1  1  6
  4  3  1  0
  5  6  2  0
  5  2  1  0
  7  8  1  0
  8 18  2  0
  9 10  2  0
  9  8  1  0
 10 11  1  0
 11 17  2  0
 11 12  1  0
 13 12  1  6
 13 14  1  0
 14  5  1  0
 15 13  1  0
 15 16  2  0
 18 17  1  0
 20 19  1  6
 20 21  1  0
 22 23  1  6
 22 20  1  0
 23 15  1  0
 24 22  1  0
 25 24  2  0
 26 24  1  0
M  END
$$$$
