CYV.pdb
     RDKit          3D

 26 26  0  0  1  0  0  0  0  0999 V2000
   25.4104  -19.1923  -19.5581 N   0  0  0  0  0  0  0  0  0  0  0  0
   24.8156  -20.0955  -18.6256 C   0  0  1  0  0  0  0  0  0  0  0  0
   25.4843  -21.4554  -18.7842 C   0  0  0  0  0  0  0  0  0  0  0  0
   24.9469  -22.2530  -20.3175 S   0  0  0  0  0  0  0  0  0  0  0  0
   24.9345  -19.6609  -17.2222 C   0  0  0  0  0  0  0  0  0  0  0  0
   25.9329  -18.9499  -16.8928 O   0  0  0  0  0  0  0  0  0  0  0  0
   18.6969  -22.6775  -13.2981 O   0  0  0  0  0  0  0  0  0  0  0  0
   19.6705  -21.7351  -13.6077 C   0  0  0  0  0  0  0  0  0  0  0  0
   19.9337  -21.3833  -14.9191 C   0  0  0  0  0  0  0  0  0  0  0  0
   20.8960  -20.4515  -15.2264 C   0  0  0  0  0  0  0  0  0  0  0  0
   21.6587  -19.8102  -14.2407 C   0  0  0  0  0  0  0  0  0  0  0  0
   22.7044  -18.8447  -14.6064 C   0  0  0  0  0  0  0  0  0  0  0  0
   24.0638  -19.3599  -14.8660 C   0  0  2  0  0  0  0  0  0  0  0  0
   24.0049  -19.9874  -16.2195 N   0  0  0  0  0  0  0  0  0  0  0  0
   24.5512  -20.3456  -13.8951 C   0  0  0  0  0  0  0  0  0  0  0  0
   24.2917  -21.5769  -14.1638 O   0  0  0  0  0  0  0  0  0  0  0  0
   21.3827  -20.1730  -12.9420 C   0  0  0  0  0  0  0  0  0  0  0  0
   20.4184  -21.1071  -12.6292 C   0  0  0  0  0  0  0  0  0  0  0  0
   27.8799  -20.1509  -11.2474 C   0  0  0  0  0  0  0  0  0  0  0  0
   27.1699  -21.3414  -11.8131 C   0  0  2  0  0  0  0  0  0  0  0  0
   27.7055  -21.5777  -13.2063 C   0  0  0  0  0  0  0  0  0  0  0  0
   25.6685  -21.1591  -11.8741 C   0  0  2  0  0  0  0  0  0  0  0  0
   25.2795  -20.0632  -12.7067 N   0  0  0  0  0  0  0  0  0  0  0  0
   25.1749  -20.9591  -10.4970 C   0  0  0  0  0  0  0  0  0  0  0  0
   25.2902  -21.7980   -9.5913 O   0  0  0  0  0  0  0  0  0  0  0  0
   24.5242  -19.7596  -10.1308 O   0  0  0  0  0  0  0  0  0  0  0  0
  2  3  1  0
  2  1  1  6
  4  3  1  0
  5  6  2  0
  5  2  1  0
  7  8  1  0
  8 18  2  0
  9 10  2  0
  9  8  1  0
 10 11  1  0
 11 17  2  0
 11 12  1  0
 13 12  1  1
 13 14  1  0
 14  5  1  0
 15 13  1  0
 15 16  2  0
 18 17  1  0
 20 19  1  6
 20 21  1  0
 22 23  1  6
 22 20  1  0
 23 15  1  0
 24 22  1  0
 25 24  2  0
 26 24  1  0
M  END
$$$$
