CYV.pdb
     RDKit          3D

 26 26  0  0  1  0  0  0  0  0999 V2000
   28.8950  -22.4985  -17.8077 N   0  0  0  0  0  0  0  0  0  0  0  0
   28.3529  -21.3193  -17.2122 C   0  0  1  0  0  0  0  0  0  0  0  0
   27.4844  -20.6165  -18.2483 C   0  0  0  0  0  0  0  0  0  0  0  0
   28.5132  -19.8426  -19.5205 S   0  0  0  0  0  0  0  0  0  0  0  0
   27.5470  -21.5818  -16.0062 C   0  0  0  0  0  0  0  0  0  0  0  0
   26.8522  -22.6430  -15.9636 O   0  0  0  0  0  0  0  0  0  0  0  0
   24.7637  -20.5126   -7.4665 O   0  0  0  0  0  0  0  0  0  0  0  0
   25.3758  -20.4746   -8.7139 C   0  0  0  0  0  0  0  0  0  0  0  0
   26.0545  -21.5723   -9.2110 C   0  0  0  0  0  0  0  0  0  0  0  0
   26.6599  -21.5359  -10.4442 C   0  0  0  0  0  0  0  0  0  0  0  0
   26.6259  -20.3977  -11.2614 C   0  0  0  0  0  0  0  0  0  0  0  0
   27.3144  -20.3812  -12.5596 C   0  0  0  0  0  0  0  0  0  0  0  0
   26.6487  -21.0317  -13.7060 C   0  0  2  0  0  0  0  0  0  0  0  0
   27.4999  -20.7241  -14.8934 N   0  0  0  0  0  0  0  0  0  0  0  0
   25.2759  -20.5839  -13.9640 C   0  0  0  0  0  0  0  0  0  0  0  0
   25.1548  -19.4267  -14.5133 O   0  0  0  0  0  0  0  0  0  0  0  0
   25.9461  -19.3156  -10.7502 C   0  0  0  0  0  0  0  0  0  0  0  0
   25.3374  -19.3477   -9.5137 C   0  0  0  0  0  0  0  0  0  0  0  0
   21.6932  -22.7918  -14.5637 C   0  0  0  0  0  0  0  0  0  0  0  0
   21.9764  -21.3640  -14.9138 C   0  0  2  0  0  0  0  0  0  0  0  0
   22.6863  -21.3492  -16.2478 C   0  0  0  0  0  0  0  0  0  0  0  0
   22.8302  -20.6611  -13.8802 C   0  0  2  0  0  0  0  0  0  0  0  0
   24.0881  -21.3089  -13.6713 N   0  0  0  0  0  0  0  0  0  0  0  0
   22.0662  -20.6022  -12.6181 C   0  0  0  0  0  0  0  0  0  0  0  0
   21.0339  -19.9329  -12.4640 O   0  0  0  0  0  0  0  0  0  0  0  0
   22.4887  -21.3316  -11.4841 O   0  0  0  0  0  0  0  0  0  0  0  0
  2  3  1  0
  2  1  1  6
  4  3  1  0
  5  6  2  0
  5  2  1  0
  7  8  1  0
  8 18  2  0
  9 10  2  0
  9  8  1  0
 10 11  1  0
 11 17  2  0
 11 12  1  0
 13 12  1  1
 13 14  1  0
 14  5  1  0
 15 13  1  0
 15 16  2  0
 18 17  1  0
 20 19  1  1
 20 21  1  0
 22 23  1  1
 22 20  1  0
 23 15  1  0
 24 22  1  0
 25 24  2  0
 26 24  1  0
M  END
$$$$
