CYV.pdb
     RDKit          3D

 26 26  0  0  1  0  0  0  0  0999 V2000
   29.1141  -21.6809  -15.0011 N   0  0  0  0  0  0  0  0  0  0  0  0
   28.9970  -20.6273  -14.0444 C   0  0  1  0  0  0  0  0  0  0  0  0
   28.0846  -19.5538  -14.6249 C   0  0  0  0  0  0  0  0  0  0  0  0
   28.8774  -18.7395  -16.0336 S   0  0  0  0  0  0  0  0  0  0  0  0
   28.4587  -21.0654  -12.7440 C   0  0  0  0  0  0  0  0  0  0  0  0
   27.5643  -21.9658  -12.7333 O   0  0  0  0  0  0  0  0  0  0  0  0
   27.0182  -20.2455   -3.8326 O   0  0  0  0  0  0  0  0  0  0  0  0
   27.5049  -20.2765   -5.1342 C   0  0  0  0  0  0  0  0  0  0  0  0
   27.9923  -21.4465   -5.6875 C   0  0  0  0  0  0  0  0  0  0  0  0
   28.4737  -21.4783   -6.9744 C   0  0  0  0  0  0  0  0  0  0  0  0
   28.4989  -20.3405   -7.7925 C   0  0  0  0  0  0  0  0  0  0  0  0
   29.0535  -20.4018   -9.1519 C   0  0  0  0  0  0  0  0  0  0  0  0
   28.1817  -20.8999  -10.2348 C   0  0  2  0  0  0  0  0  0  0  0  0
   28.8772  -20.5444  -11.5072 N   0  0  0  0  0  0  0  0  0  0  0  0
   26.8263  -20.3391  -10.2496 C   0  0  0  0  0  0  0  0  0  0  0  0
   26.7464  -19.0628  -10.3926 O   0  0  0  0  0  0  0  0  0  0  0  0
   28.0099  -19.1859   -7.2248 C   0  0  0  0  0  0  0  0  0  0  0  0
   27.5262  -19.1494   -5.9344 C   0  0  0  0  0  0  0  0  0  0  0  0
   23.2290  -22.0604  -11.6160 C   0  0  0  0  0  0  0  0  0  0  0  0
   23.6006  -20.6195  -11.4511 C   0  0  2  0  0  0  0  0  0  0  0  0
   24.4348  -20.2196  -12.6462 C   0  0  0  0  0  0  0  0  0  0  0  0
   24.3790  -20.3524  -10.1807 C   0  0  2  0  0  0  0  0  0  0  0  0
   25.6138  -21.0722  -10.1290 N   0  0  0  0  0  0  0  0  0  0  0  0
   23.5232  -20.7165   -9.0339 C   0  0  0  0  0  0  0  0  0  0  0  0
   23.8207  -21.5788   -8.1941 O   0  0  0  0  0  0  0  0  0  0  0  0
   22.2796  -20.0776   -8.8301 O   0  0  0  0  0  0  0  0  0  0  0  0
  2  3  1  0
  2  1  1  6
  4  3  1  0
  5  6  2  0
  5  2  1  0
  7  8  1  0
  8 18  2  0
  9 10  2  0
  9  8  1  0
 10 11  1  0
 11 17  2  0
 11 12  1  0
 13 12  1  1
 13 14  1  0
 14  5  1  0
 15 13  1  0
 15 16  2  0
 18 17  1  0
 20 19  1  6
 20 21  1  0
 22 23  1  6
 22 20  1  0
 23 15  1  0
 24 22  1  0
 25 24  2  0
 26 24  1  0
M  END
$$$$
