CYV.pdb
     RDKit          3D

 26 26  0  0  1  0  0  0  0  0999 V2000
   28.4975  -23.4618  -17.7103 N   0  0  0  0  0  0  0  0  0  0  0  0
   28.3525  -22.1750  -17.1085 C   0  0  1  0  0  0  0  0  0  0  0  0
   27.8052  -21.2154  -18.1580 C   0  0  0  0  0  0  0  0  0  0  0  0
   28.9560  -21.0693  -19.5473 S   0  0  0  0  0  0  0  0  0  0  0  0
   27.4593  -22.1669  -15.9360 C   0  0  0  0  0  0  0  0  0  0  0  0
   26.5358  -23.0355  -15.8745 O   0  0  0  0  0  0  0  0  0  0  0  0
   24.9423  -20.1752   -7.4861 O   0  0  0  0  0  0  0  0  0  0  0  0
   25.5447  -20.2914   -8.7333 C   0  0  0  0  0  0  0  0  0  0  0  0
   25.8197  -21.5308   -9.2819 C   0  0  0  0  0  0  0  0  0  0  0  0
   26.4152  -21.6468  -10.5151 C   0  0  0  0  0  0  0  0  0  0  0  0
   26.7749  -20.5292  -11.2807 C   0  0  0  0  0  0  0  0  0  0  0  0
   27.4427  -20.6891  -12.5799 C   0  0  0  0  0  0  0  0  0  0  0  0
   26.6927  -21.3467  -13.6689 C   0  0  2  0  0  0  0  0  0  0  0  0
   27.5674  -21.2511  -14.8750 N   0  0  0  0  0  0  0  0  0  0  0  0
   25.3851  -20.7539  -13.9696 C   0  0  0  0  0  0  0  0  0  0  0  0
   25.4060  -19.6450  -14.6220 O   0  0  0  0  0  0  0  0  0  0  0  0
   26.4935  -19.3048  -10.7187 C   0  0  0  0  0  0  0  0  0  0  0  0
   25.8963  -19.1837   -9.4821 C   0  0  0  0  0  0  0  0  0  0  0  0
   21.7968  -22.6046  -14.8713 C   0  0  0  0  0  0  0  0  0  0  0  0
   22.1981  -21.1865  -15.1344 C   0  0  2  0  0  0  0  0  0  0  0  0
   23.0770  -21.1773  -16.3638 C   0  0  0  0  0  0  0  0  0  0  0  0
   22.9444  -20.5598  -13.9762 C   0  0  2  0  0  0  0  0  0  0  0  0
   24.1180  -21.2932  -13.6149 N   0  0  0  0  0  0  0  0  0  0  0  0
   22.0193  -20.4721  -12.8287 C   0  0  0  0  0  0  0  0  0  0  0  0
   22.1839  -21.0766  -11.7588 O   0  0  0  0  0  0  0  0  0  0  0  0
   20.8605  -19.6665  -12.8959 O   0  0  0  0  0  0  0  0  0  0  0  0
  2  3  1  0
  2  1  1  6
  4  3  1  0
  5  6  2  0
  5  2  1  0
  7  8  1  0
  8 18  2  0
  9 10  2  0
  9  8  1  0
 10 11  1  0
 11 17  2  0
 11 12  1  0
 13 12  1  1
 13 14  1  0
 14  5  1  0
 15 13  1  0
 15 16  2  0
 18 17  1  0
 20 19  1  1
 20 21  1  0
 22 23  1  1
 22 20  1  0
 23 15  1  0
 24 22  1  0
 25 24  2  0
 26 24  1  0
M  END
$$$$
