VDF.pdb
     RDKit          3D

 27 27  0  0  1  0  0  0  0  0999 V2000
   26.9007  -15.8700  -15.7044 C   0  0  0  0  0  0  0  0  0  0  0  0
   26.2400  -16.9230  -14.8535 C   0  0  1  0  0  0  0  0  0  0  0  0
   25.4534  -17.8394  -15.7611 C   0  0  0  0  0  0  0  0  0  0  0  0
   27.2456  -17.7172  -14.0492 C   0  0  2  0  0  0  0  0  0  0  0  0
   28.2840  -18.2542  -14.8977 N   0  0  0  0  0  0  0  0  0  0  0  0
   26.5645  -18.7613  -13.2620 C   0  0  0  0  0  0  0  0  0  0  0  0
   25.5007  -18.4647  -12.6622 O   0  0  0  0  0  0  0  0  0  0  0  0
   27.0384  -20.0904  -13.1383 N   0  0  0  0  0  0  0  0  0  0  0  0
   26.3900  -21.0526  -12.2715 C   0  0  1  0  0  0  0  0  0  0  0  0
   26.4621  -22.4393  -12.8335 C   0  0  0  0  0  0  0  0  0  0  0  0
   25.8356  -22.5894  -14.1442 C   0  0  0  0  0  0  0  0  0  0  0  0
   24.8375  -21.8854  -14.4295 O   0  0  0  0  0  0  0  0  0  0  0  0
   26.9161  -20.9732  -10.8829 C   0  0  0  0  0  0  0  0  0  0  0  0
   28.1427  -20.9123  -10.6249 O   0  0  0  0  0  0  0  0  0  0  0  0
   26.2974  -23.4822  -15.0956 O   0  0  0  0  0  0  0  0  0  0  0  0
   26.0177  -20.9640   -9.7802 N   0  0  0  0  0  0  0  0  0  0  0  0
   26.4914  -20.9181   -8.3861 C   0  0  1  0  0  0  0  0  0  0  0  0
   27.4687  -19.8069   -8.1935 C   0  0  0  0  0  0  0  0  0  0  0  0
   27.9139  -19.7564   -6.7957 C   0  0  0  0  0  0  0  0  0  0  0  0
   27.4021  -18.8141   -5.9288 C   0  0  0  0  0  0  0  0  0  0  0  0
   27.7947  -18.7598   -4.6111 C   0  0  0  0  0  0  0  0  0  0  0  0
   28.7112  -19.6456   -4.1180 C   0  0  0  0  0  0  0  0  0  0  0  0
   29.2289  -20.5883   -4.9681 C   0  0  0  0  0  0  0  0  0  0  0  0
   28.8362  -20.6496   -6.3040 C   0  0  0  0  0  0  0  0  0  0  0  0
   25.3493  -20.9291   -7.4569 C   0  0  0  0  0  0  0  0  0  0  0  0
   25.3561  -21.5085   -6.2002 O   0  0  0  0  0  0  0  0  0  0  0  0
   24.2348  -20.3799   -7.7730 O   0  0  0  0  0  0  0  0  0  0  0  0
  2  3  1  6
  2  1  1  0
  4  2  1  0
  4  5  1  6
  6  7  2  0
  6  4  1  0
  8  6  1  0
  9  8  1  0
  9 10  1  6
 11 10  1  0
 12 11  2  0
 13 16  1  0
 13  9  1  0
 14 13  2  0
 15 11  1  0
 17 16  1  0
 17 25  1  0
 17 18  1  6
 19 20  2  0
 19 18  1  0
 21 20  1  0
 22 21  2  0
 23 22  1  0
 23 24  2  0
 24 19  1  0
 25 26  1  0
 27 25  2  0
M  END
$$$$
