VDF.pdb
     RDKit          3D

 27 27  0  0  1  0  0  0  0  0999 V2000
   18.9664  -13.8974  -17.1258 C   0  0  0  0  0  0  0  0  0  0  0  0
   19.5144  -12.5506  -17.5198 C   0  0  1  0  0  0  0  0  0  0  0  0
   18.8332  -12.1182  -18.7970 C   0  0  0  0  0  0  0  0  0  0  0  0
   19.3074  -11.5140  -16.4374 C   0  0  2  0  0  0  0  0  0  0  0  0
   17.9319  -11.4881  -15.9969 N   0  0  0  0  0  0  0  0  0  0  0  0
   19.7782  -10.1935  -16.8939 C   0  0  0  0  0  0  0  0  0  0  0  0
   20.9977  -10.0488  -17.1608 O   0  0  0  0  0  0  0  0  0  0  0  0
   18.9341   -9.0670  -17.0520 N   0  0  0  0  0  0  0  0  0  0  0  0
   19.4652   -7.7537  -17.3534 C   0  0  1  0  0  0  0  0  0  0  0  0
   18.6140   -7.0289  -18.3505 C   0  0  0  0  0  0  0  0  0  0  0  0
   18.8783   -7.3901  -19.7408 C   0  0  0  0  0  0  0  0  0  0  0  0
   17.9449   -7.8487  -20.4419 O   0  0  0  0  0  0  0  0  0  0  0  0
   19.6902   -6.9619  -16.1150 C   0  0  0  0  0  0  0  0  0  0  0  0
   18.7572   -6.6263  -15.3457 O   0  0  0  0  0  0  0  0  0  0  0  0
   20.1244   -7.2480  -20.3260 O   0  0  0  0  0  0  0  0  0  0  0  0
   21.0055   -6.5528  -15.7602 N   0  0  0  0  0  0  0  0  0  0  0  0
   21.2834   -5.7982  -14.5260 C   0  0  1  0  0  0  0  0  0  0  0  0
   21.8748   -6.6860  -13.4824 C   0  0  0  0  0  0  0  0  0  0  0  0
   22.8753   -7.5785  -14.0799 C   0  0  0  0  0  0  0  0  0  0  0  0
   23.7796   -7.1012  -15.0050 C   0  0  0  0  0  0  0  0  0  0  0  0
   24.7351   -7.9176  -15.5653 C   0  0  0  0  0  0  0  0  0  0  0  0
   24.8170   -9.2371  -15.2188 C   0  0  0  0  0  0  0  0  0  0  0  0
   23.9244   -9.7261  -14.3002 C   0  0  0  0  0  0  0  0  0  0  0  0
   22.9539   -8.9053  -13.7284 C   0  0  0  0  0  0  0  0  0  0  0  0
   22.0498   -4.5792  -14.8330 C   0  0  0  0  0  0  0  0  0  0  0  0
   22.6016   -4.2800  -16.0664 O   0  0  0  0  0  0  0  0  0  0  0  0
   22.2601   -3.6872  -13.9363 O   0  0  0  0  0  0  0  0  0  0  0  0
  2  3  1  6
  2  1  1  0
  4  2  1  0
  4  5  1  6
  6  7  2  0
  6  4  1  0
  8  6  1  0
  9  8  1  0
  9 10  1  6
 11 10  1  0
 12 11  2  0
 13 16  1  0
 13  9  1  0
 14 13  2  0
 15 11  1  0
 17 16  1  0
 17 25  1  0
 17 18  1  1
 19 20  2  0
 19 18  1  0
 21 20  1  0
 22 21  2  0
 23 22  1  0
 23 24  2  0
 24 19  1  0
 25 26  1  0
 27 25  2  0
M  END
$$$$
