VDF.pdb
     RDKit          3D

 27 27  0  0  1  0  0  0  0  0999 V2000
   21.3891  -13.5723  -16.5474 C   0  0  0  0  0  0  0  0  0  0  0  0
   21.2046  -12.1337  -16.9546 C   0  0  1  0  0  0  0  0  0  0  0  0
   22.2022  -11.8191  -18.0445 C   0  0  0  0  0  0  0  0  0  0  0  0
   19.7971  -11.8548  -17.4346 C   0  0  2  0  0  0  0  0  0  0  0  0
   19.4659  -12.6709  -18.5796 N   0  0  0  0  0  0  0  0  0  0  0  0
   19.6200  -10.4151  -17.6981 C   0  0  0  0  0  0  0  0  0  0  0  0
   19.2858  -10.0515  -18.8537 O   0  0  0  0  0  0  0  0  0  0  0  0
   19.8046   -9.4064  -16.7209 N   0  0  0  0  0  0  0  0  0  0  0  0
   19.5822   -8.0067  -17.0198 C   0  0  1  0  0  0  0  0  0  0  0  0
   18.2183   -7.7741  -17.5940 C   0  0  0  0  0  0  0  0  0  0  0  0
   17.9469   -6.3848  -17.9532 C   0  0  0  0  0  0  0  0  0  0  0  0
   17.1819   -5.7038  -17.2290 O   0  0  0  0  0  0  0  0  0  0  0  0
   19.8553   -7.1489  -15.8363 C   0  0  0  0  0  0  0  0  0  0  0  0
   19.2276   -7.2642  -14.7558 O   0  0  0  0  0  0  0  0  0  0  0  0
   18.5007   -5.7789  -19.0675 O   0  0  0  0  0  0  0  0  0  0  0  0
   20.8634   -6.1473  -15.8997 N   0  0  0  0  0  0  0  0  0  0  0  0
   21.2430   -5.3446  -14.7244 C   0  0  1  0  0  0  0  0  0  0  0  0
   22.6776   -5.5603  -14.3747 C   0  0  0  0  0  0  0  0  0  0  0  0
   22.9618   -6.9951  -14.2509 C   0  0  0  0  0  0  0  0  0  0  0  0
   23.7943   -7.6268  -15.1504 C   0  0  0  0  0  0  0  0  0  0  0  0
   24.0857   -8.9672  -15.0429 C   0  0  0  0  0  0  0  0  0  0  0  0
   23.5540   -9.7190  -14.0328 C   0  0  0  0  0  0  0  0  0  0  0  0
   22.7244   -9.1046  -13.1307 C   0  0  0  0  0  0  0  0  0  0  0  0
   22.4246   -7.7473  -13.2331 C   0  0  0  0  0  0  0  0  0  0  0  0
   20.8376   -3.9414  -14.9105 C   0  0  0  0  0  0  0  0  0  0  0  0
   20.8287   -2.9806  -13.9145 O   0  0  0  0  0  0  0  0  0  0  0  0
   20.4517   -3.5111  -16.0549 O   0  0  0  0  0  0  0  0  0  0  0  0
  2  3  1  6
  2  1  1  0
  4  2  1  0
  4  5  1  6
  6  7  2  0
  6  4  1  0
  8  6  1  0
  9  8  1  0
  9 10  1  1
 11 10  1  0
 12 11  2  0
 13 16  1  0
 13  9  1  0
 14 13  2  0
 15 11  1  0
 17 16  1  0
 17 25  1  0
 17 18  1  6
 19 20  2  0
 19 18  1  0
 21 20  1  0
 22 21  2  0
 23 22  1  0
 23 24  2  0
 24 19  1  0
 25 26  1  0
 27 25  2  0
M  END
$$$$
