VDF.pdb
     RDKit          3D

 27 27  0  0  1  0  0  0  0  0999 V2000
   22.6764  -16.1274  -14.9038 C   0  0  0  0  0  0  0  0  0  0  0  0
   22.1311  -14.7927  -15.3406 C   0  0  1  0  0  0  0  0  0  0  0  0
   23.2721  -13.8030  -15.3719 C   0  0  0  0  0  0  0  0  0  0  0  0
   21.4636  -14.8676  -16.6963 C   0  0  2  0  0  0  0  0  0  0  0  0
   22.3872  -15.3278  -17.7071 N   0  0  0  0  0  0  0  0  0  0  0  0
   20.8515  -13.5711  -17.0399 C   0  0  0  0  0  0  0  0  0  0  0  0
   21.4778  -12.7935  -17.8031 O   0  0  0  0  0  0  0  0  0  0  0  0
   19.5898  -13.1429  -16.5591 N   0  0  0  0  0  0  0  0  0  0  0  0
   19.0307  -11.8583  -16.9265 C   0  0  1  0  0  0  0  0  0  0  0  0
   17.5449  -11.9325  -17.1031 C   0  0  0  0  0  0  0  0  0  0  0  0
   17.1127  -12.7963  -18.1985 C   0  0  0  0  0  0  0  0  0  0  0  0
   17.7189  -12.7432  -19.2953 O   0  0  0  0  0  0  0  0  0  0  0  0
   19.4377  -10.7954  -15.9697 C   0  0  0  0  0  0  0  0  0  0  0  0
   19.3137  -10.9179  -14.7269 O   0  0  0  0  0  0  0  0  0  0  0  0
   16.0539  -13.6798  -18.0806 O   0  0  0  0  0  0  0  0  0  0  0  0
   19.9940   -9.5781  -16.4514 N   0  0  0  0  0  0  0  0  0  0  0  0
   20.3571   -8.4728  -15.5479 C   0  0  1  0  0  0  0  0  0  0  0  0
   21.7731   -8.0539  -15.7635 C   0  0  0  0  0  0  0  0  0  0  0  0
   22.0464   -6.7979  -15.0546 C   0  0  0  0  0  0  0  0  0  0  0  0
   22.2946   -6.7961  -13.6983 C   0  0  0  0  0  0  0  0  0  0  0  0
   22.5682   -5.6317  -13.0181 C   0  0  0  0  0  0  0  0  0  0  0  0
   22.6023   -4.4320  -13.6720 C   0  0  0  0  0  0  0  0  0  0  0  0
   22.3575   -4.4181  -15.0208 C   0  0  0  0  0  0  0  0  0  0  0  0
   22.0797   -5.5933  -15.7166 C   0  0  0  0  0  0  0  0  0  0  0  0
   19.3559   -7.3963  -15.6282 C   0  0  0  0  0  0  0  0  0  0  0  0
   18.7571   -6.9568  -16.7959 O   0  0  0  0  0  0  0  0  0  0  0  0
   18.9657   -6.7768  -14.5757 O   0  0  0  0  0  0  0  0  0  0  0  0
  2  3  1  6
  2  1  1  0
  4  2  1  0
  4  5  1  6
  6  7  2  0
  6  4  1  0
  8  6  1  0
  9  8  1  0
  9 10  1  1
 11 10  1  0
 12 11  2  0
 13 16  1  0
 13  9  1  0
 14 13  2  0
 15 11  1  0
 17 16  1  0
 17 25  1  0
 17 18  1  6
 19 20  2  0
 19 18  1  0
 21 20  1  0
 22 21  2  0
 23 22  1  0
 23 24  2  0
 24 19  1  0
 25 26  1  0
 27 25  2  0
M  END
$$$$
