VDF.pdb
     RDKit          3D

 27 27  0  0  1  0  0  0  0  0999 V2000
   26.7584  -26.6992  -23.7147 C   0  0  0  0  0  0  0  0  0  0  0  0
   28.1600  -27.2185  -23.9025 C   0  0  1  0  0  0  0  0  0  0  0  0
   29.0017  -26.1076  -24.4854 C   0  0  0  0  0  0  0  0  0  0  0  0
   28.7633  -27.7085  -22.6044 C   0  0  2  0  0  0  0  0  0  0  0  0
   28.4467  -26.8164  -21.5132 N   0  0  0  0  0  0  0  0  0  0  0  0
   30.2145  -27.9174  -22.7590 C   0  0  0  0  0  0  0  0  0  0  0  0
   30.6149  -28.7592  -23.6019 O   0  0  0  0  0  0  0  0  0  0  0  0
   31.1952  -27.2222  -22.0097 N   0  0  0  0  0  0  0  0  0  0  0  0
   32.6037  -27.5428  -22.1159 C   0  0  1  0  0  0  0  0  0  0  0  0
   33.4275  -26.3250  -22.4028 C   0  0  0  0  0  0  0  0  0  0  0  0
   33.3425  -25.8539  -23.7826 C   0  0  0  0  0  0  0  0  0  0  0  0
   32.4235  -25.0628  -24.1035 O   0  0  0  0  0  0  0  0  0  0  0  0
   33.0829  -28.2853  -20.9200 C   0  0  0  0  0  0  0  0  0  0  0  0
   33.5824  -27.7126  -19.9213 O   0  0  0  0  0  0  0  0  0  0  0  0
   34.2386  -26.2444  -24.7624 O   0  0  0  0  0  0  0  0  0  0  0  0
   32.9850  -29.7037  -20.8756 N   0  0  0  0  0  0  0  0  0  0  0  0
   33.3835  -30.4781  -19.6876 C   0  0  1  0  0  0  0  0  0  0  0  0
   32.6683  -29.9912  -18.4717 C   0  0  0  0  0  0  0  0  0  0  0  0
   32.9629  -30.8594  -17.3253 C   0  0  0  0  0  0  0  0  0  0  0  0
   32.1614  -31.9450  -17.0416 C   0  0  0  0  0  0  0  0  0  0  0  0
   32.4292  -32.7799  -15.9812 C   0  0  0  0  0  0  0  0  0  0  0  0
   33.5066  -32.5563  -15.1706 C   0  0  0  0  0  0  0  0  0  0  0  0
   34.3127  -31.4807  -15.4403 C   0  0  0  0  0  0  0  0  0  0  0  0
   34.0480  -30.6306  -16.5126 C   0  0  0  0  0  0  0  0  0  0  0  0
   33.2715  -31.9214  -19.9563 C   0  0  0  0  0  0  0  0  0  0  0  0
   34.1384  -32.8865  -19.4746 O   0  0  0  0  0  0  0  0  0  0  0  0
   32.3243  -32.3865  -20.6845 O   0  0  0  0  0  0  0  0  0  0  0  0
  2  3  1  1
  2  1  1  0
  4  2  1  0
  4  5  1  1
  6  7  2  0
  6  4  1  0
  8  6  1  0
  9  8  1  0
  9 10  1  1
 11 10  1  0
 12 11  2  0
 13 16  1  0
 13  9  1  0
 14 13  2  0
 15 11  1  0
 17 16  1  0
 17 25  1  0
 17 18  1  1
 19 20  2  0
 19 18  1  0
 21 20  1  0
 22 21  2  0
 23 22  1  0
 23 24  2  0
 24 19  1  0
 25 26  1  0
 27 25  2  0
M  END
$$$$
