VDF.pdb
     RDKit          3D

 27 27  0  0  1  0  0  0  0  0999 V2000
   14.3160  -29.6359   -3.3594 C   0  0  0  0  0  0  0  0  0  0  0  0
   14.4760  -28.1382   -3.3348 C   0  0  1  0  0  0  0  0  0  0  0  0
   13.2433  -27.5413   -2.6974 C   0  0  0  0  0  0  0  0  0  0  0  0
   15.7162  -27.7115   -2.5805 C   0  0  2  0  0  0  0  0  0  0  0  0
   16.9143  -28.0581   -3.3091 N   0  0  0  0  0  0  0  0  0  0  0  0
   15.7048  -28.2694   -1.2158 C   0  0  0  0  0  0  0  0  0  0  0  0
   14.7660  -27.9512   -0.4434 O   0  0  0  0  0  0  0  0  0  0  0  0
   16.6954  -29.1500   -0.7160 N   0  0  0  0  0  0  0  0  0  0  0  0
   16.7077  -29.5756    0.6684 C   0  0  1  0  0  0  0  0  0  0  0  0
   16.5808  -31.0632    0.7904 C   0  0  0  0  0  0  0  0  0  0  0  0
   16.0762  -31.5189    2.0829 C   0  0  0  0  0  0  0  0  0  0  0  0
   15.2877  -32.4935    2.1228 O   0  0  0  0  0  0  0  0  0  0  0  0
   17.8951  -29.0446    1.3890 C   0  0  0  0  0  0  0  0  0  0  0  0
   19.0462  -29.5226    1.2437 O   0  0  0  0  0  0  0  0  0  0  0  0
   16.4319  -30.9184    3.2781 O   0  0  0  0  0  0  0  0  0  0  0  0
   17.7531  -27.9505    2.2868 N   0  0  0  0  0  0  0  0  0  0  0  0
   18.8988  -27.3901    3.0238 C   0  0  1  0  0  0  0  0  0  0  0  0
   19.2979  -26.0675    2.4596 C   0  0  0  0  0  0  0  0  0  0  0  0
   19.6706  -26.2076    1.0468 C   0  0  0  0  0  0  0  0  0  0  0  0
   18.7278  -26.0531    0.0526 C   0  0  0  0  0  0  0  0  0  0  0  0
   19.0598  -26.1651   -1.2781 C   0  0  0  0  0  0  0  0  0  0  0  0
   20.3448  -26.4352   -1.6573 C   0  0  0  0  0  0  0  0  0  0  0  0
   21.2933  -26.5915   -0.6798 C   0  0  0  0  0  0  0  0  0  0  0  0
   20.9646  -26.4794    0.6700 C   0  0  0  0  0  0  0  0  0  0  0  0
   18.6350  -27.4105    4.4722 C   0  0  0  0  0  0  0  0  0  0  0  0
   17.4618  -27.8533    5.0576 O   0  0  0  0  0  0  0  0  0  0  0  0
   19.5145  -27.0001    5.3100 O   0  0  0  0  0  0  0  0  0  0  0  0
  2  3  1  1
  2  1  1  0
  4  2  1  0
  4  5  1  6
  6  7  2  0
  6  4  1  0
  8  6  1  0
  9  8  1  0
  9 10  1  6
 11 10  1  0
 12 11  2  0
 13 16  1  0
 13  9  1  0
 14 13  2  0
 15 11  1  0
 17 16  1  0
 17 25  1  0
 17 18  1  6
 19 20  2  0
 19 18  1  0
 21 20  1  0
 22 21  2  0
 23 22  1  0
 23 24  2  0
 24 19  1  0
 25 26  1  0
 27 25  2  0
M  END
$$$$
