VDF.pdb
     RDKit          3D

 27 27  0  0  1  0  0  0  0  0999 V2000
   29.3189  -19.0854  -14.1810 C   0  0  0  0  0  0  0  0  0  0  0  0
   28.4537  -18.9001  -15.4002 C   0  0  1  0  0  0  0  0  0  0  0  0
   29.2346  -19.3602  -16.6087 C   0  0  0  0  0  0  0  0  0  0  0  0
   27.1517  -19.6635  -15.2945 C   0  0  2  0  0  0  0  0  0  0  0  0
   26.3677  -19.5260  -16.4999 N   0  0  0  0  0  0  0  0  0  0  0  0
   26.4101  -19.2499  -14.0893 C   0  0  0  0  0  0  0  0  0  0  0  0
   26.2262  -18.0232  -13.8873 O   0  0  0  0  0  0  0  0  0  0  0  0
   25.8867  -20.1572  -13.1356 N   0  0  0  0  0  0  0  0  0  0  0  0
   25.1128  -19.7044  -11.9982 C   0  0  1  0  0  0  0  0  0  0  0  0
   23.6743  -19.4916  -12.3581 C   0  0  0  0  0  0  0  0  0  0  0  0
   22.9432  -20.7189  -12.6615 C   0  0  0  0  0  0  0  0  0  0  0  0
   23.3890  -21.4955  -13.5399 O   0  0  0  0  0  0  0  0  0  0  0  0
   25.2795  -20.6121  -10.8323 C   0  0  0  0  0  0  0  0  0  0  0  0
   25.4002  -21.8554  -10.9525 O   0  0  0  0  0  0  0  0  0  0  0  0
   21.7688  -21.0680  -12.0177 O   0  0  0  0  0  0  0  0  0  0  0  0
   25.3072  -20.0799   -9.5134 N   0  0  0  0  0  0  0  0  0  0  0  0
   25.3142  -20.9450   -8.3212 C   0  0  1  0  0  0  0  0  0  0  0  0
   25.6438  -20.1588   -7.0963 C   0  0  0  0  0  0  0  0  0  0  0  0
   27.0982  -20.0149   -6.9591 C   0  0  0  0  0  0  0  0  0  0  0  0
   27.6599  -18.7861   -6.6837 C   0  0  0  0  0  0  0  0  0  0  0  0
   29.0193  -18.6328   -6.5360 C   0  0  0  0  0  0  0  0  0  0  0  0
   29.8605  -19.7030   -6.6589 C   0  0  0  0  0  0  0  0  0  0  0  0
   29.3165  -20.9312   -6.9327 C   0  0  0  0  0  0  0  0  0  0  0  0
   27.9406  -21.0943   -7.0836 C   0  0  0  0  0  0  0  0  0  0  0  0
   24.0738  -21.7355   -8.2552 C   0  0  0  0  0  0  0  0  0  0  0  0
   23.9137  -22.8985   -7.5224 O   0  0  0  0  0  0  0  0  0  0  0  0
   23.0264  -21.3768   -8.9017 O   0  0  0  0  0  0  0  0  0  0  0  0
  2  3  1  6
  2  1  1  0
  4  2  1  0
  4  5  1  6
  6  7  2  0
  6  4  1  0
  8  6  1  0
  9  8  1  0
  9 10  1  6
 11 10  1  0
 12 11  2  0
 13 16  1  0
 13  9  1  0
 14 13  2  0
 15 11  1  0
 17 16  1  0
 17 25  1  0
 17 18  1  1
 19 20  2  0
 19 18  1  0
 21 20  1  0
 22 21  2  0
 23 22  1  0
 23 24  2  0
 24 19  1  0
 25 26  1  0
 27 25  2  0
M  END
$$$$
