VDF.pdb
     RDKit          3D

 27 27  0  0  1  0  0  0  0  0999 V2000
   26.8857  -20.3942  -12.1555 C   0  0  0  0  0  0  0  0  0  0  0  0
   25.9132  -21.1602  -11.2970 C   0  0  1  0  0  0  0  0  0  0  0  0
   25.0640  -20.1651  -10.5414 C   0  0  0  0  0  0  0  0  0  0  0  0
   25.0374  -22.0834  -12.1153 C   0  0  2  0  0  0  0  0  0  0  0  0
   25.8166  -23.1359  -12.7251 N   0  0  0  0  0  0  0  0  0  0  0  0
   24.2602  -21.3127  -13.1030 C   0  0  0  0  0  0  0  0  0  0  0  0
   24.7614  -21.1100  -14.2375 O   0  0  0  0  0  0  0  0  0  0  0  0
   22.9717  -20.7811  -12.8509 N   0  0  0  0  0  0  0  0  0  0  0  0
   22.2445  -20.0365  -13.8581 C   0  0  1  0  0  0  0  0  0  0  0  0
   20.8114  -19.8366  -13.4703 C   0  0  0  0  0  0  0  0  0  0  0  0
   20.1197  -21.0608  -13.0755 C   0  0  0  0  0  0  0  0  0  0  0  0
   19.3585  -21.0393  -12.0788 O   0  0  0  0  0  0  0  0  0  0  0  0
   22.9286  -18.7580  -14.1875 C   0  0  0  0  0  0  0  0  0  0  0  0
   22.9435  -17.7759  -13.4064 O   0  0  0  0  0  0  0  0  0  0  0  0
   20.2671  -22.2559  -13.7579 O   0  0  0  0  0  0  0  0  0  0  0  0
   23.6030  -18.6108  -15.4313 N   0  0  0  0  0  0  0  0  0  0  0  0
   24.3466  -17.3872  -15.7774 C   0  0  1  0  0  0  0  0  0  0  0  0
   25.5994  -17.2817  -14.9734 C   0  0  0  0  0  0  0  0  0  0  0  0
   26.4140  -16.1552  -15.4447 C   0  0  0  0  0  0  0  0  0  0  0  0
   27.3122  -16.3212  -16.4777 C   0  0  0  0  0  0  0  0  0  0  0  0
   28.0739  -15.2746  -16.9445 C   0  0  0  0  0  0  0  0  0  0  0  0
   27.9620  -14.0288  -16.3935 C   0  0  0  0  0  0  0  0  0  0  0  0
   27.0730  -13.8485  -15.3656 C   0  0  0  0  0  0  0  0  0  0  0  0
   26.2981  -14.9037  -14.8874 C   0  0  0  0  0  0  0  0  0  0  0  0
   24.5167  -17.2872  -17.2364 C   0  0  0  0  0  0  0  0  0  0  0  0
   24.4606  -16.1099  -17.9617 O   0  0  0  0  0  0  0  0  0  0  0  0
   24.7347  -18.3302  -17.9494 O   0  0  0  0  0  0  0  0  0  0  0  0
  2  3  1  6
  2  1  1  0
  4  2  1  0
  4  5  1  6
  6  7  2  0
  6  4  1  0
  8  6  1  0
  9  8  1  0
  9 10  1  1
 11 10  1  0
 12 11  2  0
 13 16  1  0
 13  9  1  0
 14 13  2  0
 15 11  1  0
 17 16  1  0
 17 25  1  0
 17 18  1  1
 19 20  2  0
 19 18  1  0
 21 20  1  0
 22 21  2  0
 23 22  1  0
 23 24  2  0
 24 19  1  0
 25 26  1  0
 27 25  2  0
M  END
$$$$
