VDF.pdb
     RDKit          3D

 27 27  0  0  1  0  0  0  0  0999 V2000
   18.0027   -9.4717  -19.0363 C   0  0  0  0  0  0  0  0  0  0  0  0
   18.5809  -10.8424  -19.2737 C   0  0  1  0  0  0  0  0  0  0  0  0
   17.6851  -11.5714  -20.2476 C   0  0  0  0  0  0  0  0  0  0  0  0
   19.9949  -10.7780  -19.8081 C   0  0  2  0  0  0  0  0  0  0  0  0
   20.5574  -12.1004  -19.9544 N   0  0  0  0  0  0  0  0  0  0  0  0
   20.8251   -9.9027  -18.9605 C   0  0  0  0  0  0  0  0  0  0  0  0
   21.1453  -10.3038  -17.8133 O   0  0  0  0  0  0  0  0  0  0  0  0
   21.2888   -8.6259  -19.3620 N   0  0  0  0  0  0  0  0  0  0  0  0
   22.1035   -7.8032  -18.4918 C   0  0  1  0  0  0  0  0  0  0  0  0
   22.9538   -6.8477  -19.2715 C   0  0  0  0  0  0  0  0  0  0  0  0
   23.7902   -5.9786  -18.4481 C   0  0  0  0  0  0  0  0  0  0  0  0
   23.4633   -4.7768  -18.2993 O   0  0  0  0  0  0  0  0  0  0  0  0
   21.2776   -7.1197  -17.4613 C   0  0  0  0  0  0  0  0  0  0  0  0
   20.1871   -6.5592  -17.7285 O   0  0  0  0  0  0  0  0  0  0  0  0
   24.9388   -6.4248  -17.8180 O   0  0  0  0  0  0  0  0  0  0  0  0
   21.7143   -7.0823  -16.1081 N   0  0  0  0  0  0  0  0  0  0  0  0
   20.9061   -6.4650  -15.0425 C   0  0  1  0  0  0  0  0  0  0  0  0
   20.1149   -7.4971  -14.3104 C   0  0  0  0  0  0  0  0  0  0  0  0
   21.0011   -8.3313  -13.4898 C   0  0  0  0  0  0  0  0  0  0  0  0
   21.8820   -9.2126  -14.0801 C   0  0  0  0  0  0  0  0  0  0  0  0
   22.7318   -9.9922  -13.3295 C   0  0  0  0  0  0  0  0  0  0  0  0
   22.7281   -9.9156  -11.9650 C   0  0  0  0  0  0  0  0  0  0  0  0
   21.8576   -9.0437  -11.3637 C   0  0  0  0  0  0  0  0  0  0  0  0
   20.9938   -8.2509  -12.1173 C   0  0  0  0  0  0  0  0  0  0  0  0
   21.7453   -5.5934  -14.2035 C   0  0  0  0  0  0  0  0  0  0  0  0
   23.1035   -5.3941  -14.3789 O   0  0  0  0  0  0  0  0  0  0  0  0
   21.2444   -4.9423  -13.2191 O   0  0  0  0  0  0  0  0  0  0  0  0
  2  3  1  6
  2  1  1  0
  4  2  1  0
  4  5  1  1
  6  7  2  0
  6  4  1  0
  8  6  1  0
  9  8  1  0
  9 10  1  6
 11 10  1  0
 12 11  2  0
 13 16  1  0
 13  9  1  0
 14 13  2  0
 15 11  1  0
 17 16  1  0
 17 25  1  0
 17 18  1  1
 19 20  2  0
 19 18  1  0
 21 20  1  0
 22 21  2  0
 23 22  1  0
 23 24  2  0
 24 19  1  0
 25 26  1  0
 27 25  2  0
M  END
$$$$
