VDF.pdb
     RDKit          3D

 27 27  0  0  1  0  0  0  0  0999 V2000
   24.6294  -16.1012  -15.6089 C   0  0  0  0  0  0  0  0  0  0  0  0
   25.0159  -17.3884  -14.9282 C   0  0  1  0  0  0  0  0  0  0  0  0
   24.2935  -17.4581  -13.6033 C   0  0  0  0  0  0  0  0  0  0  0  0
   24.6835  -18.5995  -15.7719 C   0  0  2  0  0  0  0  0  0  0  0  0
   23.3104  -18.5621  -16.2190 N   0  0  0  0  0  0  0  0  0  0  0  0
   25.0049  -19.8387  -15.0408 C   0  0  0  0  0  0  0  0  0  0  0  0
   24.0717  -20.4645  -14.4778 O   0  0  0  0  0  0  0  0  0  0  0  0
   26.3121  -20.3734  -14.9322 N   0  0  0  0  0  0  0  0  0  0  0  0
   26.5764  -21.5970  -14.2036 C   0  0  1  0  0  0  0  0  0  0  0  0
   27.5984  -22.4439  -14.8981 C   0  0  0  0  0  0  0  0  0  0  0  0
   27.4696  -22.4687  -16.3527 C   0  0  0  0  0  0  0  0  0  0  0  0
   28.4350  -22.0913  -17.0590 O   0  0  0  0  0  0  0  0  0  0  0  0
   26.9350  -21.3188  -12.7876 C   0  0  0  0  0  0  0  0  0  0  0  0
   28.0838  -20.9542  -12.4379 O   0  0  0  0  0  0  0  0  0  0  0  0
   26.3193  -22.8940  -16.9941 O   0  0  0  0  0  0  0  0  0  0  0  0
   25.9580  -21.4628  -11.7638 N   0  0  0  0  0  0  0  0  0  0  0  0
   26.2677  -21.2089  -10.3462 C   0  0  1  0  0  0  0  0  0  0  0  0
   27.0231  -19.9315  -10.1881 C   0  0  0  0  0  0  0  0  0  0  0  0
   27.4758  -19.7757   -8.8005 C   0  0  0  0  0  0  0  0  0  0  0  0
   26.9381  -18.7969   -7.9916 C   0  0  0  0  0  0  0  0  0  0  0  0
   27.3376  -18.6442   -6.6837 C   0  0  0  0  0  0  0  0  0  0  0  0
   28.2872  -19.4650   -6.1428 C   0  0  0  0  0  0  0  0  0  0  0  0
   28.8309  -20.4429   -6.9350 C   0  0  0  0  0  0  0  0  0  0  0  0
   28.4314  -20.6037   -8.2605 C   0  0  0  0  0  0  0  0  0  0  0  0
   25.0514  -21.3343   -9.5262 C   0  0  0  0  0  0  0  0  0  0  0  0
   24.9890  -21.9564   -8.2915 O   0  0  0  0  0  0  0  0  0  0  0  0
   23.9318  -20.8550   -9.9269 O   0  0  0  0  0  0  0  0  0  0  0  0
  2  3  1  1
  2  1  1  0
  4  2  1  0
  4  5  1  1
  6  7  2  0
  6  4  1  0
  8  6  1  0
  9  8  1  0
  9 10  1  6
 11 10  1  0
 12 11  2  0
 13 16  1  0
 13  9  1  0
 14 13  2  0
 15 11  1  0
 17 16  1  0
 17 25  1  0
 17 18  1  6
 19 20  2  0
 19 18  1  0
 21 20  1  0
 22 21  2  0
 23 22  1  0
 23 24  2  0
 24 19  1  0
 25 26  1  0
 27 25  2  0
M  END
$$$$
