VDF.pdb
     RDKit          3D

 27 27  0  0  1  0  0  0  0  0999 V2000
   25.9738  -25.8315  -17.2774 C   0  0  0  0  0  0  0  0  0  0  0  0
   25.6732  -24.6185  -16.4361 C   0  0  1  0  0  0  0  0  0  0  0  0
   26.7797  -24.4619  -15.4197 C   0  0  0  0  0  0  0  0  0  0  0  0
   25.5468  -23.3640  -17.2723 C   0  0  2  0  0  0  0  0  0  0  0  0
   26.6447  -23.2458  -18.2036 N   0  0  0  0  0  0  0  0  0  0  0  0
   25.4134  -22.1795  -16.4047 C   0  0  0  0  0  0  0  0  0  0  0  0
   26.0661  -21.1452  -16.6938 O   0  0  0  0  0  0  0  0  0  0  0  0
   24.5877  -22.1338  -15.2546 N   0  0  0  0  0  0  0  0  0  0  0  0
   24.0959  -20.8810  -14.7194 C   0  0  1  0  0  0  0  0  0  0  0  0
   22.6153  -20.7453  -14.9021 C   0  0  0  0  0  0  0  0  0  0  0  0
   22.0675  -19.4723  -14.4412 C   0  0  0  0  0  0  0  0  0  0  0  0
   22.6312  -18.4046  -14.7812 O   0  0  0  0  0  0  0  0  0  0  0  0
   24.5144  -20.6935  -13.3049 C   0  0  0  0  0  0  0  0  0  0  0  0
   24.1858  -19.6893  -12.6279 O   0  0  0  0  0  0  0  0  0  0  0  0
   20.9434  -19.3893  -13.6381 O   0  0  0  0  0  0  0  0  0  0  0  0
   25.3204  -21.6750  -12.6643 N   0  0  0  0  0  0  0  0  0  0  0  0
   25.8087  -21.5067  -11.2848 C   0  0  1  0  0  0  0  0  0  0  0  0
   27.1389  -20.8303  -11.2709 C   0  0  0  0  0  0  0  0  0  0  0  0
   27.6002  -20.6414   -9.8903 C   0  0  0  0  0  0  0  0  0  0  0  0
   28.5759  -21.4571   -9.3576 C   0  0  0  0  0  0  0  0  0  0  0  0
   29.0331  -21.2869   -8.0709 C   0  0  0  0  0  0  0  0  0  0  0  0
   28.5295  -20.2958   -7.2759 C   0  0  0  0  0  0  0  0  0  0  0  0
   27.5586  -19.4768   -7.7919 C   0  0  0  0  0  0  0  0  0  0  0  0
   27.0906  -19.6431   -9.0941 C   0  0  0  0  0  0  0  0  0  0  0  0
   24.7701  -20.8850  -10.4465 C   0  0  0  0  0  0  0  0  0  0  0  0
   24.4918  -21.2386   -9.1378 O   0  0  0  0  0  0  0  0  0  0  0  0
   24.0315  -19.9408  -10.9010 O   0  0  0  0  0  0  0  0  0  0  0  0
  2  3  1  1
  2  1  1  0
  4  2  1  0
  4  5  1  1
  6  7  2  0
  6  4  1  0
  8  6  1  0
  9  8  1  0
  9 10  1  1
 11 10  1  0
 12 11  2  0
 13 16  1  0
 13  9  1  0
 14 13  2  0
 15 11  1  0
 17 16  1  0
 17 25  1  0
 17 18  1  6
 19 20  2  0
 19 18  1  0
 21 20  1  0
 22 21  2  0
 23 22  1  0
 23 24  2  0
 24 19  1  0
 25 26  1  0
 27 25  2  0
M  END
$$$$
