VDF.pdb
     RDKit          3D

 27 27  0  0  1  0  0  0  0  0999 V2000
   19.3355  -13.6418  -18.4285 C   0  0  0  0  0  0  0  0  0  0  0  0
   19.3313  -12.1579  -18.6879 C   0  0  1  0  0  0  0  0  0  0  0  0
   17.9107  -11.6598  -18.5613 C   0  0  0  0  0  0  0  0  0  0  0  0
   20.2365  -11.4114  -17.7327 C   0  0  2  0  0  0  0  0  0  0  0  0
   19.9274  -11.7371  -16.3598 N   0  0  0  0  0  0  0  0  0  0  0  0
   20.1770   -9.9619  -17.9955 C   0  0  0  0  0  0  0  0  0  0  0  0
   20.5882   -9.5337  -19.1032 O   0  0  0  0  0  0  0  0  0  0  0  0
   19.6807   -9.0125  -17.0687 N   0  0  0  0  0  0  0  0  0  0  0  0
   19.7730   -7.5881  -17.3143 C   0  0  1  0  0  0  0  0  0  0  0  0
   18.6597   -7.1056  -18.1929 C   0  0  0  0  0  0  0  0  0  0  0  0
   18.7668   -5.7019  -18.5817 C   0  0  0  0  0  0  0  0  0  0  0  0
   17.7600   -4.9606  -18.4812 O   0  0  0  0  0  0  0  0  0  0  0  0
   19.8669   -6.8229  -16.0428 C   0  0  0  0  0  0  0  0  0  0  0  0
   19.0780   -7.0023  -15.0835 O   0  0  0  0  0  0  0  0  0  0  0  0
   19.9404   -5.1464  -19.0609 O   0  0  0  0  0  0  0  0  0  0  0  0
   20.8819   -5.8404  -15.8759 N   0  0  0  0  0  0  0  0  0  0  0  0
   21.0925   -5.1435  -14.5953 C   0  0  1  0  0  0  0  0  0  0  0  0
   22.3938   -5.5406  -13.9822 C   0  0  0  0  0  0  0  0  0  0  0  0
   22.4066   -6.9815  -13.7022 C   0  0  0  0  0  0  0  0  0  0  0  0
   21.8219   -7.4802  -12.5573 C   0  0  0  0  0  0  0  0  0  0  0  0
   21.8095   -8.8287  -12.2840 C   0  0  0  0  0  0  0  0  0  0  0  0
   22.3813   -9.7217  -13.1463 C   0  0  0  0  0  0  0  0  0  0  0  0
   22.9665   -9.2406  -14.2890 C   0  0  0  0  0  0  0  0  0  0  0  0
   22.9830   -7.8761  -14.5727 C   0  0  0  0  0  0  0  0  0  0  0  0
   20.8824   -3.6956  -14.7601 C   0  0  0  0  0  0  0  0  0  0  0  0
   20.8563   -2.7762  -13.7260 O   0  0  0  0  0  0  0  0  0  0  0  0
   20.7026   -3.1817  -15.9208 O   0  0  0  0  0  0  0  0  0  0  0  0
  2  3  1  1
  2  1  1  0
  4  2  1  0
  4  5  1  1
  6  7  2  0
  6  4  1  0
  8  6  1  0
  9  8  1  0
  9 10  1  1
 11 10  1  0
 12 11  2  0
 13 16  1  0
 13  9  1  0
 14 13  2  0
 15 11  1  0
 17 16  1  0
 17 25  1  0
 17 18  1  6
 19 20  2  0
 19 18  1  0
 21 20  1  0
 22 21  2  0
 23 22  1  0
 23 24  2  0
 24 19  1  0
 25 26  1  0
 27 25  2  0
M  END
$$$$
