VIH.pdb
     RDKit          3D

 26 26  0  0  1  0  0  0  0  0999 V2000
    6.5998  -17.2612   22.0227 C   0  0  0  0  0  0  0  0  0  0  0  0
    7.0316  -16.3036   20.9487 C   0  0  1  0  0  0  0  0  0  0  0  0
    6.3195  -16.4906   19.6388 C   0  0  0  0  0  0  0  0  0  0  0  0
    7.0728  -14.8681   21.4099 C   0  0  2  0  0  0  0  0  0  0  0  0
    7.5928  -14.0963   20.2846 N   0  0  0  0  0  0  0  0  0  0  0  0
    7.9146  -14.6311   22.5836 C   0  0  0  0  0  0  0  0  0  0  0  0
    9.1678  -14.5888   22.4331 O   0  0  0  0  0  0  0  0  0  0  0  0
    6.2959  -11.3073   26.4691 C   0  0  0  0  0  0  0  0  0  0  0  0
    7.1858  -12.0667   25.5091 C   0  0  0  0  0  0  0  0  0  0  0  0
    7.5902  -13.4075   26.0842 C   0  0  2  0  0  0  0  0  0  0  0  0
    8.4558  -13.2158   27.3103 C   0  0  0  0  0  0  0  0  0  0  0  0
    8.3012  -14.2612   25.0543 C   0  0  2  0  0  0  0  0  0  0  0  0
    7.4466  -14.4392   23.9070 N   0  0  0  0  0  0  0  0  0  0  0  0
    8.6319  -15.5955   25.6511 C   0  0  0  0  0  0  0  0  0  0  0  0
    7.7334  -16.3117   26.1798 O   0  0  0  0  0  0  0  0  0  0  0  0
    9.9378  -16.1108   25.6537 N   0  0  0  0  0  0  0  0  0  0  0  0
   10.2693  -17.4851   26.0983 C   0  0  1  0  0  0  0  0  0  0  0  0
   11.5812  -17.7852   25.4707 C   0  0  0  0  0  0  0  0  0  0  0  0
   11.6145  -17.9457   24.0229 C   0  0  0  0  0  0  0  0  0  0  0  0
   10.7031  -18.3459   23.0795 C   0  0  0  0  0  0  0  0  0  0  0  0
   11.3130  -18.2432   21.8589 N   0  0  0  0  0  0  0  0  0  0  0  0
   12.5582  -17.7948   22.0335 C   0  0  0  0  0  0  0  0  0  0  0  0
   12.7465  -17.6141   23.3243 N   0  0  0  0  0  0  0  0  0  0  0  0
   10.5031  -17.3533   27.5828 C   0  0  0  0  0  0  0  0  0  0  0  0
   10.4282  -16.1213   28.1767 O   0  0  0  0  0  0  0  0  0  0  0  0
   10.7650  -18.3310   28.3005 O   0  0  0  0  0  0  0  0  0  0  0  0
  2  4  1  0
  2  1  1  1
  3  2  1  0
  4  5  1  6
  4  6  1  0
  6  7  2  0
  8  9  1  0
 10 12  1  0
 10  9  1  0
 10 11  1  1
 12 14  1  0
 13  6  1  0
 12 13  1  6
 14 15  2  0
 16 17  1  0
 16 14  1  0
 17 24  1  0
 17 18  1  6
 19 20  2  0
 19 18  1  0
 21 20  1  0
 22 23  2  0
 22 21  1  0
 23 19  1  0
 24 26  2  0
 24 25  1  0
M  END
$$$$
