VIH.pdb
     RDKit          3D

 26 26  0  0  1  0  0  0  0  0999 V2000
    6.6905  -16.9830   21.4966 C   0  0  0  0  0  0  0  0  0  0  0  0
    7.4144  -16.0788   20.5400 C   0  0  1  0  0  0  0  0  0  0  0  0
    6.9071  -16.1493   19.1273 C   0  0  0  0  0  0  0  0  0  0  0  0
    7.5695  -14.6687   21.0523 C   0  0  2  0  0  0  0  0  0  0  0  0
    8.3876  -13.9677   20.0667 N   0  0  0  0  0  0  0  0  0  0  0  0
    8.2080  -14.5663   22.3654 C   0  0  0  0  0  0  0  0  0  0  0  0
    9.4612  -14.7010   22.4431 O   0  0  0  0  0  0  0  0  0  0  0  0
    5.9036  -11.5298   26.2614 C   0  0  0  0  0  0  0  0  0  0  0  0
    6.9498  -12.1732   25.3774 C   0  0  0  0  0  0  0  0  0  0  0  0
    7.2994  -13.5623   25.8677 C   0  0  2  0  0  0  0  0  0  0  0  0
    7.9613  -13.4908   27.2264 C   0  0  0  0  0  0  0  0  0  0  0  0
    8.1834  -14.2936   24.8785 C   0  0  2  0  0  0  0  0  0  0  0  0
    7.5378  -14.3239   23.5900 N   0  0  0  0  0  0  0  0  0  0  0  0
    8.4217  -15.6933   25.3585 C   0  0  0  0  0  0  0  0  0  0  0  0
    7.8275  -16.6736   24.8240 O   0  0  0  0  0  0  0  0  0  0  0  0
    9.3042  -15.9831   26.4111 N   0  0  0  0  0  0  0  0  0  0  0  0
   10.0757  -17.2451   26.5019 C   0  0  1  0  0  0  0  0  0  0  0  0
   11.1340  -17.1229   25.4675 C   0  0  0  0  0  0  0  0  0  0  0  0
   10.9236  -17.8156   24.2031 C   0  0  0  0  0  0  0  0  0  0  0  0
   10.5026  -17.4315   22.9557 C   0  0  0  0  0  0  0  0  0  0  0  0
   10.5558  -18.5379   22.1523 N   0  0  0  0  0  0  0  0  0  0  0  0
   10.9946  -19.5739   22.8709 C   0  0  0  0  0  0  0  0  0  0  0  0
   11.2170  -19.1507   24.0980 N   0  0  0  0  0  0  0  0  0  0  0  0
   10.7545  -17.1742   27.8472 C   0  0  0  0  0  0  0  0  0  0  0  0
   11.0638  -18.3294   28.5151 O   0  0  0  0  0  0  0  0  0  0  0  0
   11.0496  -16.0948   28.3831 O   0  0  0  0  0  0  0  0  0  0  0  0
  2  4  1  0
  2  1  1  1
  3  2  1  0
  4  5  1  6
  4  6  1  0
  6  7  2  0
  8  9  1  0
 10 12  1  0
 10  9  1  0
 10 11  1  1
 12 14  1  0
 13  6  1  0
 12 13  1  6
 14 15  2  0
 16 17  1  0
 16 14  1  0
 17 24  1  0
 17 18  1  6
 19 20  2  0
 19 18  1  0
 21 20  1  0
 22 23  2  0
 22 21  1  0
 23 19  1  0
 24 26  2  0
 24 25  1  0
M  END
$$$$
