VIH.pdb
     RDKit          3D

 26 26  0  0  1  0  0  0  0  0999 V2000
    5.8753  -16.9839   19.9953 C   0  0  0  0  0  0  0  0  0  0  0  0
    6.7738  -16.7276   21.1716 C   0  0  1  0  0  0  0  0  0  0  0  0
    7.8961  -17.7168   21.3124 C   0  0  0  0  0  0  0  0  0  0  0  0
    7.2225  -15.2916   21.2786 C   0  0  2  0  0  0  0  0  0  0  0  0
    8.0605  -15.0412   20.1093 N   0  0  0  0  0  0  0  0  0  0  0  0
    7.9843  -14.9818   22.4895 C   0  0  0  0  0  0  0  0  0  0  0  0
    9.2458  -15.0044   22.4353 O   0  0  0  0  0  0  0  0  0  0  0  0
    6.0551  -11.4638   26.1291 C   0  0  0  0  0  0  0  0  0  0  0  0
    6.9789  -12.2577   25.2311 C   0  0  0  0  0  0  0  0  0  0  0  0
    7.4116  -13.5470   25.8962 C   0  0  2  0  0  0  0  0  0  0  0  0
    8.2147  -13.2528   27.1444 C   0  0  0  0  0  0  0  0  0  0  0  0
    8.2003  -14.4242   24.9457 C   0  0  2  0  0  0  0  0  0  0  0  0
    7.4279  -14.6502   23.7496 N   0  0  0  0  0  0  0  0  0  0  0  0
    8.5039  -15.7341   25.6074 C   0  0  0  0  0  0  0  0  0  0  0  0
    7.5747  -16.4703   26.0484 O   0  0  0  0  0  0  0  0  0  0  0  0
    9.8169  -16.2039   25.7691 N   0  0  0  0  0  0  0  0  0  0  0  0
   10.1439  -17.5032   26.4025 C   0  0  1  0  0  0  0  0  0  0  0  0
   11.4934  -17.8509   25.8895 C   0  0  0  0  0  0  0  0  0  0  0  0
   11.5973  -18.2732   24.4988 C   0  0  0  0  0  0  0  0  0  0  0  0
   10.6897  -18.5838   23.5187 C   0  0  0  0  0  0  0  0  0  0  0  0
   11.4005  -18.8668   22.3843 N   0  0  0  0  0  0  0  0  0  0  0  0
   12.7031  -18.7368   22.6459 C   0  0  0  0  0  0  0  0  0  0  0  0
   12.8295  -18.3819   23.9078 N   0  0  0  0  0  0  0  0  0  0  0  0
   10.2923  -17.1795   27.8684 C   0  0  0  0  0  0  0  0  0  0  0  0
   10.4803  -18.1907   28.7729 O   0  0  0  0  0  0  0  0  0  0  0  0
   10.2505  -16.0156   28.2963 O   0  0  0  0  0  0  0  0  0  0  0  0
  2  4  1  0
  2  1  1  6
  3  2  1  0
  4  5  1  6
  4  6  1  0
  6  7  2  0
  8  9  1  0
 10 12  1  0
 10  9  1  0
 10 11  1  1
 12 14  1  0
 13  6  1  0
 12 13  1  6
 14 15  2  0
 16 17  1  0
 16 14  1  0
 17 24  1  0
 17 18  1  6
 19 20  2  0
 19 18  1  0
 21 20  1  0
 22 23  2  0
 22 21  1  0
 23 19  1  0
 24 26  2  0
 24 25  1  0
M  END
$$$$
