VIH.pdb
     RDKit          3D

 26 26  0  0  1  0  0  0  0  0999 V2000
    7.2339  -17.7039   21.8934 C   0  0  0  0  0  0  0  0  0  0  0  0
    7.9515  -16.9684   20.7976 C   0  0  1  0  0  0  0  0  0  0  0  0
    7.4852  -17.3234   19.4139 C   0  0  0  0  0  0  0  0  0  0  0  0
    8.0437  -15.4821   21.0368 C   0  0  2  0  0  0  0  0  0  0  0  0
    8.8868  -14.9517   19.9690 N   0  0  0  0  0  0  0  0  0  0  0  0
    8.6178  -15.1095   22.3307 C   0  0  0  0  0  0  0  0  0  0  0  0
    9.8650  -15.2195   22.4956 O   0  0  0  0  0  0  0  0  0  0  0  0
    7.2810  -11.9556   27.5204 C   0  0  0  0  0  0  0  0  0  0  0  0
    8.1640  -12.9559   26.8064 C   0  0  0  0  0  0  0  0  0  0  0  0
    7.5693  -13.3545   25.4724 C   0  0  2  0  0  0  0  0  0  0  0  0
    6.1953  -13.9577   25.6668 C   0  0  0  0  0  0  0  0  0  0  0  0
    8.4745  -14.3123   24.7254 C   0  0  2  0  0  0  0  0  0  0  0  0
    7.8897  -14.6244   23.4452 N   0  0  0  0  0  0  0  0  0  0  0  0
    8.6436  -15.5688   25.5247 C   0  0  0  0  0  0  0  0  0  0  0  0
    7.6461  -16.2841   25.8299 O   0  0  0  0  0  0  0  0  0  0  0  0
    9.9003  -16.0093   25.9689 N   0  0  0  0  0  0  0  0  0  0  0  0
   10.1007  -17.2680   26.7250 C   0  0  1  0  0  0  0  0  0  0  0  0
   11.4120  -17.7888   26.2621 C   0  0  0  0  0  0  0  0  0  0  0  0
   11.4498  -18.4710   24.9751 C   0  0  0  0  0  0  0  0  0  0  0  0
   10.7701  -18.3293   23.7924 C   0  0  0  0  0  0  0  0  0  0  0  0
   11.2878  -19.2441   22.9164 N   0  0  0  0  0  0  0  0  0  0  0  0
   12.2552  -19.9306   23.5288 C   0  0  0  0  0  0  0  0  0  0  0  0
   12.3586  -19.4745   24.7599 N   0  0  0  0  0  0  0  0  0  0  0  0
   10.2759  -16.8228   28.1557 C   0  0  0  0  0  0  0  0  0  0  0  0
   10.1892  -17.7401   29.1693 O   0  0  0  0  0  0  0  0  0  0  0  0
   10.4992  -15.6403   28.4578 O   0  0  0  0  0  0  0  0  0  0  0  0
  2  4  1  0
  2  1  1  1
  3  2  1  0
  4  5  1  6
  4  6  1  0
  6  7  2  0
  8  9  1  0
 10 12  1  0
 10  9  1  0
 10 11  1  1
 12 14  1  0
 13  6  1  0
 12 13  1  6
 14 15  2  0
 16 17  1  0
 16 14  1  0
 17 24  1  0
 17 18  1  6
 19 20  2  0
 19 18  1  0
 21 20  1  0
 22 23  2  0
 22 21  1  0
 23 19  1  0
 24 26  2  0
 24 25  1  0
M  END
$$$$
