VIH.pdb
     RDKit          3D

 26 26  0  0  1  0  0  0  0  0999 V2000
    7.0220  -16.8320   21.4136 C   0  0  0  0  0  0  0  0  0  0  0  0
    7.3849  -15.7127   20.4797 C   0  0  1  0  0  0  0  0  0  0  0  0
    6.7631  -15.8262   19.1165 C   0  0  0  0  0  0  0  0  0  0  0  0
    7.2307  -14.3455   21.0977 C   0  0  2  0  0  0  0  0  0  0  0  0
    7.7667  -13.3984   20.1242 N   0  0  0  0  0  0  0  0  0  0  0  0
    7.9311  -14.1720   22.3712 C   0  0  0  0  0  0  0  0  0  0  0  0
    9.1909  -14.0841   22.3639 O   0  0  0  0  0  0  0  0  0  0  0  0
    5.8976  -11.3059   26.5115 C   0  0  0  0  0  0  0  0  0  0  0  0
    6.8408  -11.9529   25.5207 C   0  0  0  0  0  0  0  0  0  0  0  0
    7.1924  -13.3637   25.9429 C   0  0  2  0  0  0  0  0  0  0  0  0
    7.9023  -13.3528   27.2790 C   0  0  0  0  0  0  0  0  0  0  0  0
    8.0332  -14.0632   24.8948 C   0  0  2  0  0  0  0  0  0  0  0  0
    7.3156  -14.0908   23.6448 N   0  0  0  0  0  0  0  0  0  0  0  0
    8.3275  -15.4634   25.3407 C   0  0  0  0  0  0  0  0  0  0  0  0
    7.3912  -16.2709   25.6073 O   0  0  0  0  0  0  0  0  0  0  0  0
    9.6392  -15.9430   25.4832 N   0  0  0  0  0  0  0  0  0  0  0  0
    9.9580  -17.3343   25.8818 C   0  0  1  0  0  0  0  0  0  0  0  0
   11.2180  -17.6590   25.1663 C   0  0  0  0  0  0  0  0  0  0  0  0
   11.1411  -17.8650   23.7259 C   0  0  0  0  0  0  0  0  0  0  0  0
   10.1802  -18.3469   22.8743 C   0  0  0  0  0  0  0  0  0  0  0  0
   10.6801  -18.2502   21.6043 N   0  0  0  0  0  0  0  0  0  0  0  0
   11.9068  -17.7266   21.6606 C   0  0  0  0  0  0  0  0  0  0  0  0
   12.1901  -17.4932   22.9253 N   0  0  0  0  0  0  0  0  0  0  0  0
   10.2894  -17.2376   27.3503 C   0  0  0  0  0  0  0  0  0  0  0  0
   10.5282  -18.3780   28.0705 O   0  0  0  0  0  0  0  0  0  0  0  0
   10.3560  -16.1497   27.9431 O   0  0  0  0  0  0  0  0  0  0  0  0
  2  4  1  0
  2  1  1  1
  3  2  1  0
  4  5  1  6
  4  6  1  0
  6  7  2  0
  8  9  1  0
 10 12  1  0
 10  9  1  0
 10 11  1  1
 12 14  1  0
 13  6  1  0
 12 13  1  6
 14 15  2  0
 16 17  1  0
 16 14  1  0
 17 24  1  0
 17 18  1  6
 19 20  2  0
 19 18  1  0
 21 20  1  0
 22 23  2  0
 22 21  1  0
 23 19  1  0
 24 26  2  0
 24 25  1  0
M  END
$$$$
