VIH.pdb
     RDKit          3D

 26 26  0  0  1  0  0  0  0  0999 V2000
    7.3011  -17.6895   22.0459 C   0  0  0  0  0  0  0  0  0  0  0  0
    7.7506  -16.7307   20.9804 C   0  0  1  0  0  0  0  0  0  0  0  0
    7.1798  -17.0150   19.6198 C   0  0  0  0  0  0  0  0  0  0  0  0
    7.6325  -15.2840   21.3905 C   0  0  2  0  0  0  0  0  0  0  0  0
    8.2658  -14.5089   20.3272 N   0  0  0  0  0  0  0  0  0  0  0  0
    8.2726  -14.9600   22.6663 C   0  0  0  0  0  0  0  0  0  0  0  0
    9.5335  -14.9158   22.7188 O   0  0  0  0  0  0  0  0  0  0  0  0
    5.8427  -11.7162   26.3557 C   0  0  0  0  0  0  0  0  0  0  0  0
    6.8647  -12.3985   25.4726 C   0  0  0  0  0  0  0  0  0  0  0  0
    7.3123  -13.7147   26.0722 C   0  0  2  0  0  0  0  0  0  0  0  0
    7.9614  -13.4864   27.4198 C   0  0  0  0  0  0  0  0  0  0  0  0
    8.2516  -14.4565   25.1436 C   0  0  2  0  0  0  0  0  0  0  0  0
    7.5958  -14.6837   23.8800 N   0  0  0  0  0  0  0  0  0  0  0  0
    8.6327  -15.7686   25.7593 C   0  0  0  0  0  0  0  0  0  0  0  0
    7.7552  -16.6380   26.0317 O   0  0  0  0  0  0  0  0  0  0  0  0
    9.9644  -16.0948   26.0608 N   0  0  0  0  0  0  0  0  0  0  0  0
   10.3643  -17.3676   26.7059 C   0  0  1  0  0  0  0  0  0  0  0  0
   11.7476  -17.6211   26.2291 C   0  0  0  0  0  0  0  0  0  0  0  0
   11.9124  -18.0979   24.8622 C   0  0  0  0  0  0  0  0  0  0  0  0
   11.0488  -18.4252   23.8483 C   0  0  0  0  0  0  0  0  0  0  0  0
   11.8097  -18.7667   22.7635 N   0  0  0  0  0  0  0  0  0  0  0  0
   13.1000  -18.6558   23.0875 C   0  0  0  0  0  0  0  0  0  0  0  0
   13.1702  -18.2562   24.3404 N   0  0  0  0  0  0  0  0  0  0  0  0
   10.4515  -17.0331   28.1743 C   0  0  0  0  0  0  0  0  0  0  0  0
   10.6742  -18.0297   29.0872 O   0  0  0  0  0  0  0  0  0  0  0  0
   10.3278  -15.8731   28.5970 O   0  0  0  0  0  0  0  0  0  0  0  0
  2  4  1  0
  2  1  1  1
  3  2  1  0
  4  5  1  6
  4  6  1  0
  6  7  2  0
  8  9  1  0
 10 12  1  0
 10  9  1  0
 10 11  1  1
 12 14  1  0
 13  6  1  0
 12 13  1  6
 14 15  2  0
 16 17  1  0
 16 14  1  0
 17 24  1  0
 17 18  1  6
 19 20  2  0
 19 18  1  0
 21 20  1  0
 22 23  2  0
 22 21  1  0
 23 19  1  0
 24 26  2  0
 24 25  1  0
M  END
$$$$
