VIH.pdb
     RDKit          3D

 26 26  0  0  1  0  0  0  0  0999 V2000
    6.9525  -17.9188   22.0137 C   0  0  0  0  0  0  0  0  0  0  0  0
    7.3873  -17.0729   20.8509 C   0  0  1  0  0  0  0  0  0  0  0  0
    6.7364  -17.4417   19.5477 C   0  0  0  0  0  0  0  0  0  0  0  0
    7.3513  -15.5934   21.1421 C   0  0  2  0  0  0  0  0  0  0  0  0
    7.9584  -14.9386   19.9868 N   0  0  0  0  0  0  0  0  0  0  0  0
    8.0716  -15.1949   22.3525 C   0  0  0  0  0  0  0  0  0  0  0  0
    9.3310  -15.1126   22.3098 O   0  0  0  0  0  0  0  0  0  0  0  0
    5.9097  -11.7787   26.0453 C   0  0  0  0  0  0  0  0  0  0  0  0
    6.9110  -12.4841   25.1566 C   0  0  0  0  0  0  0  0  0  0  0  0
    7.3348  -13.8083   25.7558 C   0  0  2  0  0  0  0  0  0  0  0  0
    8.0393  -13.5880   27.0766 C   0  0  0  0  0  0  0  0  0  0  0  0
    8.2142  -14.5922   24.8034 C   0  0  2  0  0  0  0  0  0  0  0  0
    7.4761  -14.8842   23.6000 N   0  0  0  0  0  0  0  0  0  0  0  0
    8.6450  -15.8707   25.4559 C   0  0  0  0  0  0  0  0  0  0  0  0
    7.7930  -16.7174   25.8521 O   0  0  0  0  0  0  0  0  0  0  0  0
    9.9974  -16.1889   25.6576 N   0  0  0  0  0  0  0  0  0  0  0  0
   10.4609  -17.5219   26.1100 C   0  0  1  0  0  0  0  0  0  0  0  0
   11.8449  -17.6446   25.5861 C   0  0  0  0  0  0  0  0  0  0  0  0
   12.6332  -18.7881   26.0267 C   0  0  0  0  0  0  0  0  0  0  0  0
   12.9457  -19.3258   27.2490 C   0  0  0  0  0  0  0  0  0  0  0  0
   13.6945  -20.4475   27.0179 N   0  0  0  0  0  0  0  0  0  0  0  0
   13.8431  -20.6049   25.7006 C   0  0  0  0  0  0  0  0  0  0  0  0
   13.2115  -19.6172   25.1007 N   0  0  0  0  0  0  0  0  0  0  0  0
   10.5598  -17.3959   27.6100 C   0  0  0  0  0  0  0  0  0  0  0  0
   10.7808  -18.5115   28.3734 O   0  0  0  0  0  0  0  0  0  0  0  0
   10.4474  -16.3054   28.1911 O   0  0  0  0  0  0  0  0  0  0  0  0
  2  4  1  0
  2  1  1  1
  3  2  1  0
  4  5  1  6
  4  6  1  0
  6  7  2  0
  8  9  1  0
 10 12  1  0
 10  9  1  0
 10 11  1  1
 12 14  1  0
 13  6  1  0
 12 13  1  6
 14 15  2  0
 16 17  1  0
 16 14  1  0
 17 24  1  0
 17 18  1  6
 19 20  2  0
 19 18  1  0
 21 20  1  0
 22 23  2  0
 22 21  1  0
 23 19  1  0
 24 26  2  0
 24 25  1  0
M  END
$$$$
