VIH.pdb
     RDKit          3D

 26 26  0  0  1  0  0  0  0  0999 V2000
    6.6715  -17.4930   21.8500 C   0  0  0  0  0  0  0  0  0  0  0  0
    7.3074  -16.6865   20.7537 C   0  0  1  0  0  0  0  0  0  0  0  0
    6.6715  -16.8765   19.4055 C   0  0  0  0  0  0  0  0  0  0  0  0
    7.5145  -15.2383   21.1208 C   0  0  2  0  0  0  0  0  0  0  0  0
    8.2961  -14.6532   20.0350 N   0  0  0  0  0  0  0  0  0  0  0  0
    8.2190  -15.0272   22.3864 C   0  0  0  0  0  0  0  0  0  0  0  0
    9.4706  -15.1914   22.4189 O   0  0  0  0  0  0  0  0  0  0  0  0
    6.3365  -11.4142   26.0466 C   0  0  0  0  0  0  0  0  0  0  0  0
    7.2086  -12.2586   25.1431 C   0  0  0  0  0  0  0  0  0  0  0  0
    7.5229  -13.5951   25.7812 C   0  0  2  0  0  0  0  0  0  0  0  0
    8.2487  -13.3950   27.0936 C   0  0  0  0  0  0  0  0  0  0  0  0
    8.3301  -14.4777   24.8514 C   0  0  2  0  0  0  0  0  0  0  0  0
    7.6159  -14.6461   23.6105 N   0  0  0  0  0  0  0  0  0  0  0  0
    8.5506  -15.8135   25.4940 C   0  0  0  0  0  0  0  0  0  0  0  0
    7.5733  -16.5262   25.8636 O   0  0  0  0  0  0  0  0  0  0  0  0
    9.8354  -16.3342   25.7151 N   0  0  0  0  0  0  0  0  0  0  0  0
   10.0810  -17.6882   26.2652 C   0  0  1  0  0  0  0  0  0  0  0  0
   11.4226  -18.0711   25.7567 C   0  0  0  0  0  0  0  0  0  0  0  0
   11.5400  -18.3920   24.3403 C   0  0  0  0  0  0  0  0  0  0  0  0
   10.6476  -18.7245   23.3534 C   0  0  0  0  0  0  0  0  0  0  0  0
   11.3606  -18.8656   22.1942 N   0  0  0  0  0  0  0  0  0  0  0  0
   12.6498  -18.6290   22.4473 C   0  0  0  0  0  0  0  0  0  0  0  0
   12.7657  -18.3449   23.7280 N   0  0  0  0  0  0  0  0  0  0  0  0
   10.2114  -17.4714   27.7523 C   0  0  0  0  0  0  0  0  0  0  0  0
   10.3410  -18.5486   28.5883 O   0  0  0  0  0  0  0  0  0  0  0  0
   10.2060  -16.3386   28.2587 O   0  0  0  0  0  0  0  0  0  0  0  0
  2  4  1  0
  2  1  1  1
  3  2  1  0
  4  5  1  6
  4  6  1  0
  6  7  2  0
  8  9  1  0
 10 12  1  0
 10  9  1  0
 10 11  1  1
 12 14  1  0
 13  6  1  0
 12 13  1  6
 14 15  2  0
 16 17  1  0
 16 14  1  0
 17 24  1  0
 17 18  1  6
 19 20  2  0
 19 18  1  0
 21 20  1  0
 22 23  2  0
 22 21  1  0
 23 19  1  0
 24 26  2  0
 24 25  1  0
M  END
$$$$
