VIH.pdb
     RDKit          3D

 26 26  0  0  1  0  0  0  0  0999 V2000
    5.9670  -16.4978   19.5268 C   0  0  0  0  0  0  0  0  0  0  0  0
    6.8387  -16.2762   20.7300 C   0  0  1  0  0  0  0  0  0  0  0  0
    7.9758  -17.2511   20.8508 C   0  0  0  0  0  0  0  0  0  0  0  0
    7.2594  -14.8386   20.9061 C   0  0  2  0  0  0  0  0  0  0  0  0
    8.1230  -14.5276   19.7703 N   0  0  0  0  0  0  0  0  0  0  0  0
    7.9840  -14.5654   22.1482 C   0  0  0  0  0  0  0  0  0  0  0  0
    9.2425  -14.6710   22.1525 O   0  0  0  0  0  0  0  0  0  0  0  0
    7.2353  -11.7972   27.6650 C   0  0  0  0  0  0  0  0  0  0  0  0
    8.0635  -12.6877   26.7644 C   0  0  0  0  0  0  0  0  0  0  0  0
    7.2966  -13.0648   25.5147 C   0  0  2  0  0  0  0  0  0  0  0  0
    6.0071  -13.7675   25.8793 C   0  0  0  0  0  0  0  0  0  0  0  0
    8.1325  -13.9247   24.5891 C   0  0  2  0  0  0  0  0  0  0  0  0
    7.3940  -14.1837   23.3784 N   0  0  0  0  0  0  0  0  0  0  0  0
    8.4613  -15.2195   25.2684 C   0  0  0  0  0  0  0  0  0  0  0  0
    7.5593  -16.0708   25.5163 O   0  0  0  0  0  0  0  0  0  0  0  0
    9.7691  -15.5485   25.6585 N   0  0  0  0  0  0  0  0  0  0  0  0
   10.1253  -16.8303   26.3115 C   0  0  1  0  0  0  0  0  0  0  0  0
   11.4151  -17.2299   25.6938 C   0  0  0  0  0  0  0  0  0  0  0  0
   11.3827  -17.7151   24.3203 C   0  0  0  0  0  0  0  0  0  0  0  0
   10.4583  -18.3837   23.5592 C   0  0  0  0  0  0  0  0  0  0  0  0
   10.9895  -18.5209   22.3057 N   0  0  0  0  0  0  0  0  0  0  0  0
   12.1999  -17.9581   22.2845 C   0  0  0  0  0  0  0  0  0  0  0  0
   12.4425  -17.4737   23.4849 N   0  0  0  0  0  0  0  0  0  0  0  0
   10.4126  -16.4547   27.7440 C   0  0  0  0  0  0  0  0  0  0  0  0
   10.5675  -17.4362   28.6869 O   0  0  0  0  0  0  0  0  0  0  0  0
   10.5164  -15.2737   28.1102 O   0  0  0  0  0  0  0  0  0  0  0  0
  2  4  1  0
  2  1  1  6
  3  2  1  0
  4  5  1  6
  4  6  1  0
  6  7  2  0
  8  9  1  0
 10 12  1  0
 10  9  1  0
 10 11  1  1
 12 14  1  0
 13  6  1  0
 12 13  1  6
 14 15  2  0
 16 17  1  0
 16 14  1  0
 17 24  1  0
 17 18  1  6
 19 20  2  0
 19 18  1  0
 21 20  1  0
 22 23  2  0
 22 21  1  0
 23 19  1  0
 24 26  2  0
 24 25  1  0
M  END
$$$$
