VIH.pdb
     RDKit          3D

 26 26  0  0  1  0  0  0  0  0999 V2000
    7.0604  -17.3180   19.7269 C   0  0  0  0  0  0  0  0  0  0  0  0
    7.7826  -16.9479   20.9911 C   0  0  1  0  0  0  0  0  0  0  0  0
    8.9180  -17.8684   21.3399 C   0  0  0  0  0  0  0  0  0  0  0  0
    8.1507  -15.4870   21.0629 C   0  0  2  0  0  0  0  0  0  0  0  0
    9.1985  -15.2842   20.0663 N   0  0  0  0  0  0  0  0  0  0  0  0
    8.6409  -15.0476   22.3702 C   0  0  0  0  0  0  0  0  0  0  0  0
    9.8866  -15.0302   22.5767 O   0  0  0  0  0  0  0  0  0  0  0  0
    6.8032  -12.1944   27.5934 C   0  0  0  0  0  0  0  0  0  0  0  0
    7.8083  -13.0731   26.8809 C   0  0  0  0  0  0  0  0  0  0  0  0
    7.3246  -13.4424   25.4946 C   0  0  2  0  0  0  0  0  0  0  0  0
    5.9804  -14.1327   25.5717 C   0  0  0  0  0  0  0  0  0  0  0  0
    8.3319  -14.3100   24.7684 C   0  0  2  0  0  0  0  0  0  0  0  0
    7.8310  -14.6287   23.4547 N   0  0  0  0  0  0  0  0  0  0  0  0
    8.5579  -15.5723   25.5440 C   0  0  0  0  0  0  0  0  0  0  0  0
    7.6139  -16.3900   25.7441 O   0  0  0  0  0  0  0  0  0  0  0  0
    9.8115  -15.9064   26.0804 N   0  0  0  0  0  0  0  0  0  0  0  0
   10.0585  -17.1395   26.8644 C   0  0  1  0  0  0  0  0  0  0  0  0
   11.3450  -17.6713   26.3474 C   0  0  0  0  0  0  0  0  0  0  0  0
   11.3101  -18.4257   25.1014 C   0  0  0  0  0  0  0  0  0  0  0  0
   10.3106  -18.8586   24.2681 C   0  0  0  0  0  0  0  0  0  0  0  0
   10.9096  -19.4858   23.2097 N   0  0  0  0  0  0  0  0  0  0  0  0
   12.2337  -19.4451   23.3754 C   0  0  0  0  0  0  0  0  0  0  0  0
   12.4816  -18.8129   24.5038 N   0  0  0  0  0  0  0  0  0  0  0  0
   10.3095  -16.6478   28.2683 C   0  0  0  0  0  0  0  0  0  0  0  0
   10.4443  -17.5490   29.2910 O   0  0  0  0  0  0  0  0  0  0  0  0
   10.4005  -15.4406   28.5400 O   0  0  0  0  0  0  0  0  0  0  0  0
  2  4  1  0
  2  1  1  6
  3  2  1  0
  4  5  1  6
  4  6  1  0
  6  7  2  0
  8  9  1  0
 10 12  1  0
 10  9  1  0
 10 11  1  1
 12 14  1  0
 13  6  1  0
 12 13  1  6
 14 15  2  0
 16 17  1  0
 16 14  1  0
 17 24  1  0
 17 18  1  6
 19 20  2  0
 19 18  1  0
 21 20  1  0
 22 23  2  0
 22 21  1  0
 23 19  1  0
 24 26  2  0
 24 25  1  0
M  END
$$$$
