VIH.pdb
     RDKit          3D

 26 26  0  0  1  0  0  0  0  0999 V2000
    7.9555  -11.8160   26.0918 C   0  0  0  0  0  0  0  0  0  0  0  0
    6.7398  -12.5244   26.6182 C   0  0  1  0  0  0  0  0  0  0  0  0
    5.7772  -11.6300   27.3471 C   0  0  0  0  0  0  0  0  0  0  0  0
    6.0768  -13.4130   25.5955 C   0  0  2  0  0  0  0  0  0  0  0  0
    5.1002  -14.2143   26.3280 N   0  0  0  0  0  0  0  0  0  0  0  0
    6.9914  -14.3059   24.8824 C   0  0  0  0  0  0  0  0  0  0  0  0
    7.3885  -15.3559   25.4607 O   0  0  0  0  0  0  0  0  0  0  0  0
    7.5079  -13.3207   19.5318 C   0  0  0  0  0  0  0  0  0  0  0  0
    7.2505  -14.0454   20.8351 C   0  0  0  0  0  0  0  0  0  0  0  0
    8.5425  -14.5445   21.4465 C   0  0  2  0  0  0  0  0  0  0  0  0
    9.1437  -15.6371   20.5898 C   0  0  0  0  0  0  0  0  0  0  0  0
    8.3331  -15.0303   22.8660 C   0  0  2  0  0  0  0  0  0  0  0  0
    7.4870  -14.1002   23.5711 N   0  0  0  0  0  0  0  0  0  0  0  0
    9.6572  -15.1367   23.5600 C   0  0  0  0  0  0  0  0  0  0  0  0
   10.3955  -14.1207   23.7105 O   0  0  0  0  0  0  0  0  0  0  0  0
   10.1384  -16.3524   24.0710 N   0  0  0  0  0  0  0  0  0  0  0  0
   11.4996  -16.5166   24.6337 C   0  0  1  0  0  0  0  0  0  0  0  0
   11.2878  -17.0768   25.9925 C   0  0  0  0  0  0  0  0  0  0  0  0
   10.9736  -16.1422   27.0652 C   0  0  0  0  0  0  0  0  0  0  0  0
   10.7996  -14.7837   27.1354 C   0  0  0  0  0  0  0  0  0  0  0  0
   10.4667  -14.4849   28.4286 N   0  0  0  0  0  0  0  0  0  0  0  0
   10.4332  -15.6146   29.1390 C   0  0  0  0  0  0  0  0  0  0  0  0
   10.7348  -16.6102   28.3315 N   0  0  0  0  0  0  0  0  0  0  0  0
   12.1243  -17.6031   23.7942 C   0  0  0  0  0  0  0  0  0  0  0  0
   13.4707  -17.8401   23.8800 O   0  0  0  0  0  0  0  0  0  0  0  0
   11.4582  -18.3032   23.0158 O   0  0  0  0  0  0  0  0  0  0  0  0
  2  4  1  0
  2  1  1  6
  3  2  1  0
  4  5  1  1
  4  6  1  0
  6  7  2  0
  8  9  1  0
 10 12  1  0
 10  9  1  0
 10 11  1  6
 12 14  1  0
 13  6  1  0
 12 13  1  1
 14 15  2  0
 16 17  1  0
 16 14  1  0
 17 24  1  0
 17 18  1  1
 19 20  2  0
 19 18  1  0
 21 20  1  0
 22 23  2  0
 22 21  1  0
 23 19  1  0
 24 26  2  0
 24 25  1  0
M  END
$$$$
