VIH.pdb
     RDKit          3D

 26 26  0  0  1  0  0  0  0  0999 V2000
    5.5349  -18.0249   23.0521 C   0  0  0  0  0  0  0  0  0  0  0  0
    6.1106  -17.6826   21.7074 C   0  0  1  0  0  0  0  0  0  0  0  0
    5.2868  -18.1655   20.5472 C   0  0  0  0  0  0  0  0  0  0  0  0
    6.5285  -16.2383   21.5868 C   0  0  2  0  0  0  0  0  0  0  0  0
    7.1574  -16.1072   20.2755 N   0  0  0  0  0  0  0  0  0  0  0  0
    7.4676  -15.7897   22.6160 C   0  0  0  0  0  0  0  0  0  0  0  0
    8.6701  -16.1693   22.5474 O   0  0  0  0  0  0  0  0  0  0  0  0
    5.9886  -12.1142   26.8237 C   0  0  0  0  0  0  0  0  0  0  0  0
    6.3074  -13.3821   26.0615 C   0  0  0  0  0  0  0  0  0  0  0  0
    7.6591  -13.2878   25.3862 C   0  0  2  0  0  0  0  0  0  0  0  0
    7.6518  -12.1921   24.3427 C   0  0  0  0  0  0  0  0  0  0  0  0
    8.0655  -14.6112   24.7710 C   0  0  2  0  0  0  0  0  0  0  0  0
    7.1491  -14.9482   23.7104 N   0  0  0  0  0  0  0  0  0  0  0  0
    8.0405  -15.6806   25.8206 C   0  0  0  0  0  0  0  0  0  0  0  0
    6.9673  -16.2860   26.1062 O   0  0  0  0  0  0  0  0  0  0  0  0
    9.1911  -16.0594   26.5302 N   0  0  0  0  0  0  0  0  0  0  0  0
    9.2972  -17.3264   27.2916 C   0  0  1  0  0  0  0  0  0  0  0  0
    9.2868  -18.3952   26.2607 C   0  0  0  0  0  0  0  0  0  0  0  0
    9.3989  -19.7739   26.7185 C   0  0  0  0  0  0  0  0  0  0  0  0
    9.4970  -20.3729   27.9483 C   0  0  0  0  0  0  0  0  0  0  0  0
    9.5243  -21.7247   27.7387 N   0  0  0  0  0  0  0  0  0  0  0  0
    9.4452  -21.9612   26.4272 C   0  0  0  0  0  0  0  0  0  0  0  0
    9.3696  -20.8002   25.8101 N   0  0  0  0  0  0  0  0  0  0  0  0
   10.6831  -17.2920   27.8864 C   0  0  0  0  0  0  0  0  0  0  0  0
   11.0171  -18.1686   28.8845 O   0  0  0  0  0  0  0  0  0  0  0  0
   11.5479  -16.4892   27.5028 O   0  0  0  0  0  0  0  0  0  0  0  0
  2  4  1  0
  2  1  1  1
  3  2  1  0
  4  5  1  6
  4  6  1  0
  6  7  2  0
  8  9  1  0
 10 12  1  0
 10  9  1  0
 10 11  1  6
 12 14  1  0
 13  6  1  0
 12 13  1  6
 14 15  2  0
 16 17  1  0
 16 14  1  0
 17 24  1  0
 17 18  1  6
 19 20  2  0
 19 18  1  0
 21 20  1  0
 22 23  2  0
 22 21  1  0
 23 19  1  0
 24 26  2  0
 24 25  1  0
M  END
$$$$
