VIH.pdb
     RDKit          3D

 26 26  0  0  1  0  0  0  0  0999 V2000
    6.7093  -17.2223   21.7311 C   0  0  0  0  0  0  0  0  0  0  0  0
    7.3967  -16.3456   20.7234 C   0  0  1  0  0  0  0  0  0  0  0  0
    6.8860  -16.5087   19.3196 C   0  0  0  0  0  0  0  0  0  0  0  0
    7.5044  -14.9056   21.1592 C   0  0  2  0  0  0  0  0  0  0  0  0
    8.3465  -14.2441   20.1665 N   0  0  0  0  0  0  0  0  0  0  0  0
    8.0893  -14.7151   22.4874 C   0  0  0  0  0  0  0  0  0  0  0  0
    9.3442  -14.7792   22.6129 O   0  0  0  0  0  0  0  0  0  0  0  0
    5.7755  -11.5224   26.2629 C   0  0  0  0  0  0  0  0  0  0  0  0
    6.7815  -12.2513   25.3987 C   0  0  0  0  0  0  0  0  0  0  0  0
    7.0467  -13.6451   25.9272 C   0  0  2  0  0  0  0  0  0  0  0  0
    7.6424  -13.5777   27.3164 C   0  0  0  0  0  0  0  0  0  0  0  0
    7.9471  -14.4297   24.9952 C   0  0  2  0  0  0  0  0  0  0  0  0
    7.3639  -14.4588   23.6772 N   0  0  0  0  0  0  0  0  0  0  0  0
    8.1048  -15.8283   25.5101 C   0  0  0  0  0  0  0  0  0  0  0  0
    7.0948  -16.5555   25.7358 O   0  0  0  0  0  0  0  0  0  0  0  0
    9.3641  -16.3943   25.7644 N   0  0  0  0  0  0  0  0  0  0  0  0
    9.5465  -17.7324   26.3747 C   0  0  1  0  0  0  0  0  0  0  0  0
   10.4352  -18.4638   25.4364 C   0  0  0  0  0  0  0  0  0  0  0  0
    9.8279  -19.0396   24.2437 C   0  0  0  0  0  0  0  0  0  0  0  0
    8.6198  -19.6278   23.9692 C   0  0  0  0  0  0  0  0  0  0  0  0
    8.6108  -19.9292   22.6345 N   0  0  0  0  0  0  0  0  0  0  0  0
    9.7694  -19.5428   22.0956 C   0  0  0  0  0  0  0  0  0  0  0  0
   10.5028  -19.0098   23.0507 N   0  0  0  0  0  0  0  0  0  0  0  0
   10.3412  -17.4677   27.6292 C   0  0  0  0  0  0  0  0  0  0  0  0
   10.8452  -16.2159   27.8641 O   0  0  0  0  0  0  0  0  0  0  0  0
   10.5612  -18.3516   28.4717 O   0  0  0  0  0  0  0  0  0  0  0  0
  2  4  1  0
  2  1  1  1
  3  2  1  0
  4  5  1  6
  4  6  1  0
  6  7  2  0
  8  9  1  0
 10 12  1  0
 10  9  1  0
 10 11  1  1
 12 14  1  0
 13  6  1  0
 12 13  1  6
 14 15  2  0
 16 17  1  0
 16 14  1  0
 17 24  1  0
 17 18  1  6
 19 20  2  0
 19 18  1  0
 21 20  1  0
 22 23  2  0
 22 21  1  0
 23 19  1  0
 24 26  2  0
 24 25  1  0
M  END
$$$$
