VIH.pdb
     RDKit          3D

 26 26  0  0  1  0  0  0  0  0999 V2000
    6.5704  -16.3592   21.0706 C   0  0  0  0  0  0  0  0  0  0  0  0
    7.1864  -15.2803   20.2260 C   0  0  1  0  0  0  0  0  0  0  0  0
    6.6239  -15.1947   18.8352 C   0  0  0  0  0  0  0  0  0  0  0  0
    7.2643  -13.9460   20.9250 C   0  0  2  0  0  0  0  0  0  0  0  0
    7.9671  -13.0504   20.0105 N   0  0  0  0  0  0  0  0  0  0  0  0
    7.9699  -13.9722   22.2071 C   0  0  0  0  0  0  0  0  0  0  0  0
    9.2302  -14.0532   22.2048 O   0  0  0  0  0  0  0  0  0  0  0  0
    6.0196  -11.1949   26.4538 C   0  0  0  0  0  0  0  0  0  0  0  0
    6.9221  -11.8383   25.4235 C   0  0  0  0  0  0  0  0  0  0  0  0
    7.2581  -13.2640   25.8064 C   0  0  2  0  0  0  0  0  0  0  0  0
    7.9811  -13.2965   27.1352 C   0  0  0  0  0  0  0  0  0  0  0  0
    8.0791  -13.9480   24.7326 C   0  0  2  0  0  0  0  0  0  0  0  0
    7.3591  -13.9137   23.4842 N   0  0  0  0  0  0  0  0  0  0  0  0
    8.3378  -15.3700   25.1290 C   0  0  0  0  0  0  0  0  0  0  0  0
    7.3812  -16.1667   25.3526 O   0  0  0  0  0  0  0  0  0  0  0  0
    9.6370  -15.8827   25.2701 N   0  0  0  0  0  0  0  0  0  0  0  0
    9.9216  -17.3013   25.5907 C   0  0  1  0  0  0  0  0  0  0  0  0
   11.2618  -17.5647   25.0080 C   0  0  0  0  0  0  0  0  0  0  0  0
   11.3572  -17.6702   23.5579 C   0  0  0  0  0  0  0  0  0  0  0  0
   10.4559  -17.8994   22.5500 C   0  0  0  0  0  0  0  0  0  0  0  0
   11.1444  -17.8352   21.3693 N   0  0  0  0  0  0  0  0  0  0  0  0
   12.4275  -17.5747   21.6301 C   0  0  0  0  0  0  0  0  0  0  0  0
   12.5632  -17.4743   22.9362 N   0  0  0  0  0  0  0  0  0  0  0  0
   10.0738  -17.3239   27.0913 C   0  0  0  0  0  0  0  0  0  0  0  0
   10.2179  -18.5202   27.7427 O   0  0  0  0  0  0  0  0  0  0  0  0
   10.0740  -16.2864   27.7719 O   0  0  0  0  0  0  0  0  0  0  0  0
  2  4  1  0
  2  1  1  1
  3  2  1  0
  4  5  1  6
  4  6  1  0
  6  7  2  0
  8  9  1  0
 10 12  1  0
 10  9  1  0
 10 11  1  1
 12 14  1  0
 13  6  1  0
 12 13  1  6
 14 15  2  0
 16 17  1  0
 16 14  1  0
 17 24  1  0
 17 18  1  6
 19 20  2  0
 19 18  1  0
 21 20  1  0
 22 23  2  0
 22 21  1  0
 23 19  1  0
 24 26  2  0
 24 25  1  0
M  END
$$$$
