VIH.pdb
     RDKit          3D

 26 26  0  0  1  0  0  0  0  0999 V2000
    6.8288  -16.4752   20.9482 C   0  0  0  0  0  0  0  0  0  0  0  0
    7.3516  -15.4285   20.0058 C   0  0  1  0  0  0  0  0  0  0  0  0
    6.7500  -15.4873   18.6301 C   0  0  0  0  0  0  0  0  0  0  0  0
    7.3595  -14.0416   20.5986 C   0  0  2  0  0  0  0  0  0  0  0  0
    8.0254  -13.1868   19.6197 N   0  0  0  0  0  0  0  0  0  0  0  0
    8.0554  -13.9334   21.8818 C   0  0  0  0  0  0  0  0  0  0  0  0
    9.3157  -14.0120   21.8971 O   0  0  0  0  0  0  0  0  0  0  0  0
    7.3522  -11.8390   27.6631 C   0  0  0  0  0  0  0  0  0  0  0  0
    8.1199  -12.7083   26.6911 C   0  0  0  0  0  0  0  0  0  0  0  0
    7.3586  -12.8802   25.3938 C   0  0  2  0  0  0  0  0  0  0  0  0
    6.0002  -13.4927   25.6568 C   0  0  0  0  0  0  0  0  0  0  0  0
    8.1391  -13.7143   24.3988 C   0  0  2  0  0  0  0  0  0  0  0  0
    7.4349  -13.7436   23.1413 N   0  0  0  0  0  0  0  0  0  0  0  0
    8.2932  -15.1090   24.9254 C   0  0  0  0  0  0  0  0  0  0  0  0
    7.3033  -15.8940   24.9854 O   0  0  0  0  0  0  0  0  0  0  0  0
    9.5269  -15.6077   25.3726 N   0  0  0  0  0  0  0  0  0  0  0  0
    9.7014  -16.9724   25.9234 C   0  0  1  0  0  0  0  0  0  0  0  0
   10.9401  -17.4874   25.2864 C   0  0  0  0  0  0  0  0  0  0  0  0
   10.8454  -17.9553   23.9097 C   0  0  0  0  0  0  0  0  0  0  0  0
    9.8184  -18.0977   23.0120 C   0  0  0  0  0  0  0  0  0  0  0  0
   10.3647  -18.5469   21.8406 N   0  0  0  0  0  0  0  0  0  0  0  0
   11.6834  -18.6791   22.0006 C   0  0  0  0  0  0  0  0  0  0  0  0
   11.9791  -18.3272   23.2347 N   0  0  0  0  0  0  0  0  0  0  0  0
   10.0079  -16.7516   27.3838 C   0  0  0  0  0  0  0  0  0  0  0  0
   10.0503  -17.8204   28.2394 O   0  0  0  0  0  0  0  0  0  0  0  0
   10.2271  -15.6229   27.8504 O   0  0  0  0  0  0  0  0  0  0  0  0
  2  4  1  0
  2  1  1  1
  3  2  1  0
  4  5  1  6
  4  6  1  0
  6  7  2  0
  8  9  1  0
 10 12  1  0
 10  9  1  0
 10 11  1  1
 12 14  1  0
 13  6  1  0
 12 13  1  6
 14 15  2  0
 16 17  1  0
 16 14  1  0
 17 24  1  0
 17 18  1  6
 19 20  2  0
 19 18  1  0
 21 20  1  0
 22 23  2  0
 22 21  1  0
 23 19  1  0
 24 26  2  0
 24 25  1  0
M  END
$$$$
