DWK.pdb
     RDKit          3D

 32 33  0  0  1  0  0  0  0  0999 V2000
    8.6727  -17.7796   18.6439 N   0  0  0  0  0  0  0  0  0  0  0  0
    9.9341  -17.4424   19.2572 C   0  0  1  0  0  0  0  0  0  0  0  0
   10.7472  -16.6115   18.2938 C   0  0  0  0  0  0  0  0  0  0  0  0
   10.6629  -17.0555   16.9087 C   0  0  0  0  0  0  0  0  0  0  0  0
   10.7951  -18.2825   16.6683 O   0  0  0  0  0  0  0  0  0  0  0  0
    9.8154  -16.7746   20.5632 C   0  0  0  0  0  0  0  0  0  0  0  0
   10.8028  -16.1662   21.0998 O   0  0  0  0  0  0  0  0  0  0  0  0
   10.4450  -16.2121   15.8393 O   0  0  0  0  0  0  0  0  0  0  0  0
    8.6299  -16.7493   21.3180 N   0  0  0  0  0  0  0  0  0  0  0  0
    8.5514  -16.1296   22.6250 C   0  0  1  0  0  0  0  0  0  0  0  0
    7.1779  -15.6997   22.9052 C   0  0  0  0  0  0  0  0  0  0  0  0
    7.0378  -15.1813   24.2902 C   0  0  0  0  0  0  0  0  0  0  0  0
    6.6105  -15.9828   25.3590 C   0  0  0  0  0  0  0  0  0  0  0  0
    6.6356  -15.2183   26.4461 N   0  0  0  0  0  0  0  0  0  0  0  0
    7.0488  -13.9752   26.1586 C   0  0  0  0  0  0  0  0  0  0  0  0
    7.2363  -12.8246   26.8997 C   0  0  0  0  0  0  0  0  0  0  0  0
    7.6655  -11.6746   26.3001 C   0  0  0  0  0  0  0  0  0  0  0  0
    7.9207  -11.6324   24.9494 C   0  0  0  0  0  0  0  0  0  0  0  0
    7.7329  -12.7836   24.2124 C   0  0  0  0  0  0  0  0  0  0  0  0
    7.3023  -13.9426   24.8115 C   0  0  0  0  0  0  0  0  0  0  0  0
    9.1528  -17.0617   23.5861 C   0  0  0  0  0  0  0  0  0  0  0  0
    8.8505  -18.2814   23.5333 O   0  0  0  0  0  0  0  0  0  0  0  0
   10.0701  -16.6998   24.5969 N   0  0  0  0  0  0  0  0  0  0  0  0
   10.7367  -17.7166   25.4533 C   0  0  1  0  0  0  0  0  0  0  0  0
   12.2260  -17.6289   25.2330 C   0  0  0  0  0  0  0  0  0  0  0  0
   12.9429  -18.5651   26.1527 C   0  0  0  0  0  0  0  0  0  0  0  0
   14.4349  -18.5744   26.0156 C   0  0  0  0  0  0  0  0  0  0  0  0
   15.1728  -19.4795   26.9307 C   0  0  0  0  0  0  0  0  0  0  0  0
   16.6121  -19.3791   26.8643 N   0  0  0  0  0  0  0  0  0  0  0  0
   10.4055  -17.3047   26.8307 C   0  0  0  0  0  0  0  0  0  0  0  0
   10.5537  -18.2141   27.9053 O   0  0  0  0  0  0  0  0  0  0  0  0
    9.9819  -16.1743   27.1812 O   0  0  0  0  0  0  0  0  0  0  0  0
  2  1  1  6
  2  3  1  0
  3  4  1  0
  4  8  1  0
  5  4  2  0
  6  7  2  0
  6  2  1  0
  9  6  1  0
 10  9  1  0
 10 11  1  1
 11 12  1  0
 12 13  2  0
 12 20  1  0
 13 14  1  0
 14 15  1  0
 15 16  2  0
 16 17  1  0
 18 17  2  0
 19 18  1  0
 20 19  2  0
 20 15  1  0
 21 10  1  0
 22 21  2  0
 23 21  1  0
 24 25  1  1
 24 23  1  0
 26 25  1  0
 27 26  1  0
 27 28  1  0
 28 29  1  0
 30 24  1  0
 31 30  1  0
 32 30  2  0
M  END
$$$$
