DWK.pdb
     RDKit          3D

 32 33  0  0  1  0  0  0  0  0999 V2000
    9.3616  -17.2142   18.7144 N   0  0  0  0  0  0  0  0  0  0  0  0
   10.4739  -17.1174   19.6279 C   0  0  1  0  0  0  0  0  0  0  0  0
   11.6406  -16.4701   18.9213 C   0  0  0  0  0  0  0  0  0  0  0  0
   11.9157  -17.0213   17.6010 C   0  0  0  0  0  0  0  0  0  0  0  0
   11.3769  -18.1134   17.2884 O   0  0  0  0  0  0  0  0  0  0  0  0
   10.1663  -16.4228   20.8883 C   0  0  0  0  0  0  0  0  0  0  0  0
   11.0144  -15.6549   21.4575 O   0  0  0  0  0  0  0  0  0  0  0  0
   12.7322  -16.4183   16.6672 O   0  0  0  0  0  0  0  0  0  0  0  0
    8.9381  -16.5422   21.5615 N   0  0  0  0  0  0  0  0  0  0  0  0
    8.7026  -15.9520   22.8633 C   0  0  1  0  0  0  0  0  0  0  0  0
    7.3128  -15.4983   22.9749 C   0  0  0  0  0  0  0  0  0  0  0  0
    6.9893  -15.0584   24.3564 C   0  0  0  0  0  0  0  0  0  0  0  0
    6.4912  -15.9338   25.3325 C   0  0  0  0  0  0  0  0  0  0  0  0
    6.3509  -15.2249   26.4483 N   0  0  0  0  0  0  0  0  0  0  0  0
    6.7225  -13.9493   26.2655 C   0  0  0  0  0  0  0  0  0  0  0  0
    6.7602  -12.8295   27.0735 C   0  0  0  0  0  0  0  0  0  0  0  0
    7.1879  -11.6301   26.5786 C   0  0  0  0  0  0  0  0  0  0  0  0
    7.5900  -11.5067   25.2693 C   0  0  0  0  0  0  0  0  0  0  0  0
    7.5515  -12.6273   24.4652 C   0  0  0  0  0  0  0  0  0  0  0  0
    7.1230  -13.8357   24.9590 C   0  0  0  0  0  0  0  0  0  0  0  0
    9.1562  -16.9199   23.8691 C   0  0  0  0  0  0  0  0  0  0  0  0
    8.8287  -18.1285   23.7530 O   0  0  0  0  0  0  0  0  0  0  0  0
    9.9536  -16.6050   24.9913 N   0  0  0  0  0  0  0  0  0  0  0  0
   10.5252  -17.6603   25.8695 C   0  0  1  0  0  0  0  0  0  0  0  0
   12.0089  -17.7469   25.6139 C   0  0  0  0  0  0  0  0  0  0  0  0
   12.6138  -18.8423   26.4327 C   0  0  0  0  0  0  0  0  0  0  0  0
   14.0624  -19.1135   26.1626 C   0  0  0  0  0  0  0  0  0  0  0  0
   14.6836  -20.2071   26.9497 C   0  0  0  0  0  0  0  0  0  0  0  0
   16.0506  -20.5151   26.5997 N   0  0  0  0  0  0  0  0  0  0  0  0
   10.2772  -17.1675   27.2379 C   0  0  0  0  0  0  0  0  0  0  0  0
   10.0273  -15.7936   27.4700 O   0  0  0  0  0  0  0  0  0  0  0  0
   10.2615  -17.8666   28.2825 O   0  0  0  0  0  0  0  0  0  0  0  0
  2  1  1  6
  2  3  1  0
  3  4  1  0
  4  8  1  0
  5  4  2  0
  6  7  2  0
  6  2  1  0
  9  6  1  0
 10  9  1  0
 10 11  1  1
 11 12  1  0
 12 13  2  0
 12 20  1  0
 13 14  1  0
 14 15  1  0
 15 16  2  0
 16 17  1  0
 18 17  2  0
 19 18  1  0
 20 19  2  0
 20 15  1  0
 21 10  1  0
 22 21  2  0
 23 21  1  0
 24 25  1  6
 24 23  1  0
 26 25  1  0
 27 26  1  0
 27 28  1  0
 28 29  1  0
 30 24  1  0
 31 30  1  0
 32 30  2  0
M  END
$$$$
