DWK.pdb
     RDKit          3D

 32 33  0  0  1  0  0  0  0  0999 V2000
    9.8204  -17.8319   19.4167 N   0  0  0  0  0  0  0  0  0  0  0  0
   10.8986  -17.1338   20.0731 C   0  0  1  0  0  0  0  0  0  0  0  0
   11.5575  -16.1999   19.0865 C   0  0  0  0  0  0  0  0  0  0  0  0
   12.0295  -16.8541   17.8733 C   0  0  0  0  0  0  0  0  0  0  0  0
   13.2612  -16.8254   17.6228 O   0  0  0  0  0  0  0  0  0  0  0  0
   10.5033  -16.4184   21.2969 C   0  0  0  0  0  0  0  0  0  0  0  0
   11.2750  -15.5685   21.8584 O   0  0  0  0  0  0  0  0  0  0  0  0
   11.2079  -17.5072   16.9785 O   0  0  0  0  0  0  0  0  0  0  0  0
    9.2680  -16.6048   21.9411 N   0  0  0  0  0  0  0  0  0  0  0  0
    8.9346  -15.9525   23.1909 C   0  0  1  0  0  0  0  0  0  0  0  0
    7.5176  -15.5764   23.2091 C   0  0  0  0  0  0  0  0  0  0  0  0
    7.1259  -14.9790   24.5115 C   0  0  0  0  0  0  0  0  0  0  0  0
    6.5518  -15.7308   25.5472 C   0  0  0  0  0  0  0  0  0  0  0  0
    6.3648  -14.8990   26.5671 N   0  0  0  0  0  0  0  0  0  0  0  0
    6.7767  -13.6586   26.2666 C   0  0  0  0  0  0  0  0  0  0  0  0
    6.7949  -12.4562   26.9464 C   0  0  0  0  0  0  0  0  0  0  0  0
    7.2789  -11.3274   26.3481 C   0  0  0  0  0  0  0  0  0  0  0  0
    7.7583  -11.3585   25.0595 C   0  0  0  0  0  0  0  0  0  0  0  0
    7.7391  -12.5612   24.3837 C   0  0  0  0  0  0  0  0  0  0  0  0
    7.2542  -13.6990   24.9818 C   0  0  0  0  0  0  0  0  0  0  0  0
    9.3914  -16.8295   24.2755 C   0  0  0  0  0  0  0  0  0  0  0  0
    8.9807  -18.0173   24.3220 O   0  0  0  0  0  0  0  0  0  0  0  0
   10.2796  -16.4464   25.3044 N   0  0  0  0  0  0  0  0  0  0  0  0
   10.7170  -17.3989   26.3595 C   0  0  1  0  0  0  0  0  0  0  0  0
   12.2185  -17.5251   26.3008 C   0  0  0  0  0  0  0  0  0  0  0  0
   12.6402  -18.1011   24.9867 C   0  0  0  0  0  0  0  0  0  0  0  0
   14.1200  -18.2426   24.7990 C   0  0  0  0  0  0  0  0  0  0  0  0
   14.5674  -18.7800   23.4904 C   0  0  0  0  0  0  0  0  0  0  0  0
   15.9982  -18.8072   23.2951 N   0  0  0  0  0  0  0  0  0  0  0  0
   10.3144  -16.7514   27.6225 C   0  0  0  0  0  0  0  0  0  0  0  0
   10.4691  -17.4290   28.8557 O   0  0  0  0  0  0  0  0  0  0  0  0
    9.8207  -15.6011   27.7375 O   0  0  0  0  0  0  0  0  0  0  0  0
  2  1  1  6
  2  3  1  0
  3  4  1  0
  4  8  1  0
  5  4  2  0
  6  7  2  0
  6  2  1  0
  9  6  1  0
 10  9  1  0
 10 11  1  1
 11 12  1  0
 12 13  2  0
 12 20  1  0
 13 14  1  0
 14 15  1  0
 15 16  2  0
 16 17  1  0
 18 17  2  0
 19 18  1  0
 20 19  2  0
 20 15  1  0
 21 10  1  0
 22 21  2  0
 23 21  1  0
 24 25  1  1
 24 23  1  0
 26 25  1  0
 27 26  1  0
 27 28  1  0
 28 29  1  0
 30 24  1  0
 31 30  1  0
 32 30  2  0
M  END
$$$$
