DWK.pdb
     RDKit          3D

 32 33  0  0  1  0  0  0  0  0999 V2000
    8.4348  -16.8291   19.2986 N   0  0  0  0  0  0  0  0  0  0  0  0
    9.2802  -17.6219   20.1575 C   0  0  1  0  0  0  0  0  0  0  0  0
   10.5655  -17.9394   19.4316 C   0  0  0  0  0  0  0  0  0  0  0  0
   10.3846  -18.7311   18.2220 C   0  0  0  0  0  0  0  0  0  0  0  0
    9.2149  -19.0511   17.8900 O   0  0  0  0  0  0  0  0  0  0  0  0
    9.5497  -17.0164   21.4715 C   0  0  0  0  0  0  0  0  0  0  0  0
   10.5844  -17.3250   22.1549 O   0  0  0  0  0  0  0  0  0  0  0  0
   11.4191  -19.1530   17.4133 O   0  0  0  0  0  0  0  0  0  0  0  0
    8.7088  -16.0661   22.0762 N   0  0  0  0  0  0  0  0  0  0  0  0
    8.9845  -15.4998   23.3807 C   0  0  1  0  0  0  0  0  0  0  0  0
    8.1947  -14.2817   23.5864 C   0  0  0  0  0  0  0  0  0  0  0  0
    8.2114  -13.8513   25.0080 C   0  0  0  0  0  0  0  0  0  0  0  0
    9.2041  -14.2595   25.9110 C   0  0  0  0  0  0  0  0  0  0  0  0
    8.9367  -13.6658   27.0698 N   0  0  0  0  0  0  0  0  0  0  0  0
    7.8387  -12.9004   26.9836 C   0  0  0  0  0  0  0  0  0  0  0  0
    7.1440  -12.1049   27.8741 C   0  0  0  0  0  0  0  0  0  0  0  0
    6.0170  -11.4413   27.4794 C   0  0  0  0  0  0  0  0  0  0  0  0
    5.5468  -11.5475   26.1914 C   0  0  0  0  0  0  0  0  0  0  0  0
    6.2434  -12.3424   25.3045 C   0  0  0  0  0  0  0  0  0  0  0  0
    7.3778  -13.0107   25.6969 C   0  0  0  0  0  0  0  0  0  0  0  0
    8.8023  -16.5705   24.3680 C   0  0  0  0  0  0  0  0  0  0  0  0
    7.7507  -17.2597   24.3426 O   0  0  0  0  0  0  0  0  0  0  0  0
    9.7325  -16.9069   25.3758 N   0  0  0  0  0  0  0  0  0  0  0  0
    9.5615  -18.1104   26.2325 C   0  0  1  0  0  0  0  0  0  0  0  0
    9.9239  -19.3311   25.4247 C   0  0  0  0  0  0  0  0  0  0  0  0
   11.3728  -19.2984   25.0560 C   0  0  0  0  0  0  0  0  0  0  0  0
   11.8520  -20.4690   24.2529 C   0  0  0  0  0  0  0  0  0  0  0  0
   13.2629  -20.4187   23.7965 C   0  0  0  0  0  0  0  0  0  0  0  0
   13.7074  -21.5717   23.0488 N   0  0  0  0  0  0  0  0  0  0  0  0
   10.5357  -17.9205   27.3240 C   0  0  0  0  0  0  0  0  0  0  0  0
   10.5616  -18.8112   28.4239 O   0  0  0  0  0  0  0  0  0  0  0  0
   11.3953  -17.0061   27.3951 O   0  0  0  0  0  0  0  0  0  0  0  0
  2  1  1  6
  2  3  1  0
  3  4  1  0
  4  8  1  0
  5  4  2  0
  6  7  2  0
  6  2  1  0
  9  6  1  0
 10  9  1  0
 10 11  1  1
 11 12  1  0
 12 13  2  0
 12 20  1  0
 13 14  1  0
 14 15  1  0
 15 16  2  0
 16 17  1  0
 18 17  2  0
 19 18  1  0
 20 19  2  0
 20 15  1  0
 21 10  1  0
 22 21  2  0
 23 21  1  0
 24 25  1  6
 24 23  1  0
 26 25  1  0
 27 26  1  0
 27 28  1  0
 28 29  1  0
 30 24  1  0
 31 30  1  0
 32 30  2  0
M  END
$$$$
