DWK.pdb
     RDKit          3D

 32 33  0  0  1  0  0  0  0  0999 V2000
   11.5886  -15.9871   19.2885 N   0  0  0  0  0  0  0  0  0  0  0  0
   10.8794  -16.9244   20.1249 C   0  0  1  0  0  0  0  0  0  0  0  0
   11.7056  -18.1793   20.2739 C   0  0  0  0  0  0  0  0  0  0  0  0
   12.1354  -18.7612   19.0093 C   0  0  0  0  0  0  0  0  0  0  0  0
   11.6040  -19.8389   18.6393 O   0  0  0  0  0  0  0  0  0  0  0  0
   10.4863  -16.3899   21.4385 C   0  0  0  0  0  0  0  0  0  0  0  0
   11.3457  -15.9133   22.2553 O   0  0  0  0  0  0  0  0  0  0  0  0
   13.0917  -18.2022   18.1874 O   0  0  0  0  0  0  0  0  0  0  0  0
    9.1586  -16.3588   21.8989 N   0  0  0  0  0  0  0  0  0  0  0  0
    8.7985  -15.8447   23.2045 C   0  0  1  0  0  0  0  0  0  0  0  0
    7.3671  -15.5309   23.2532 C   0  0  0  0  0  0  0  0  0  0  0  0
    6.9549  -15.0602   24.6005 C   0  0  0  0  0  0  0  0  0  0  0  0
    6.2983  -15.8876   25.5234 C   0  0  0  0  0  0  0  0  0  0  0  0
    6.1147  -15.1651   26.6239 N   0  0  0  0  0  0  0  0  0  0  0  0
    6.6055  -13.9252   26.4808 C   0  0  0  0  0  0  0  0  0  0  0  0
    6.6608  -12.8091   27.2930 C   0  0  0  0  0  0  0  0  0  0  0  0
    7.2298  -11.6511   26.8440 C   0  0  0  0  0  0  0  0  0  0  0  0
    7.7598  -11.5666   25.5778 C   0  0  0  0  0  0  0  0  0  0  0  0
    7.7033  -12.6834   24.7696 C   0  0  0  0  0  0  0  0  0  0  0  0
    7.1329  -13.8503   25.2173 C   0  0  0  0  0  0  0  0  0  0  0  0
    9.2912  -16.8028   24.2012 C   0  0  0  0  0  0  0  0  0  0  0  0
    9.1017  -18.0327   24.0200 O   0  0  0  0  0  0  0  0  0  0  0  0
    9.9815  -16.4557   25.3833 N   0  0  0  0  0  0  0  0  0  0  0  0
   10.4544  -17.4843   26.3475 C   0  0  1  0  0  0  0  0  0  0  0  0
   11.9409  -17.6639   26.1684 C   0  0  0  0  0  0  0  0  0  0  0  0
   12.4617  -18.6786   27.1355 C   0  0  0  0  0  0  0  0  0  0  0  0
   13.9302  -18.9587   27.0355 C   0  0  0  0  0  0  0  0  0  0  0  0
   14.4673  -19.9859   27.9616 C   0  0  0  0  0  0  0  0  0  0  0  0
   15.8940  -20.1969   27.8833 N   0  0  0  0  0  0  0  0  0  0  0  0
   10.1733  -16.8974   27.6716 C   0  0  0  0  0  0  0  0  0  0  0  0
   10.1031  -17.7218   28.8202 O   0  0  0  0  0  0  0  0  0  0  0  0
    9.9770  -15.6793   27.9122 O   0  0  0  0  0  0  0  0  0  0  0  0
  2  1  1  1
  2  3  1  0
  3  4  1  0
  4  8  1  0
  5  4  2  0
  6  7  2  0
  6  2  1  0
  9  6  1  0
 10  9  1  0
 10 11  1  6
 11 12  1  0
 12 13  2  0
 12 20  1  0
 13 14  1  0
 14 15  1  0
 15 16  2  0
 16 17  1  0
 18 17  2  0
 19 18  1  0
 20 19  2  0
 20 15  1  0
 21 10  1  0
 22 21  2  0
 23 21  1  0
 24 25  1  1
 24 23  1  0
 26 25  1  0
 27 26  1  0
 27 28  1  0
 28 29  1  0
 30 24  1  0
 31 30  1  0
 32 30  2  0
M  END
$$$$
