DWK.pdb
     RDKit          3D

 32 33  0  0  1  0  0  0  0  0999 V2000
    8.9197  -18.3266   19.3901 N   0  0  0  0  0  0  0  0  0  0  0  0
    8.3036  -18.6722   20.6479 C   0  0  1  0  0  0  0  0  0  0  0  0
    8.5114  -20.1439   20.9137 C   0  0  0  0  0  0  0  0  0  0  0  0
    8.0092  -21.0147   19.8591 C   0  0  0  0  0  0  0  0  0  0  0  0
    6.7946  -20.9297   19.5456 O   0  0  0  0  0  0  0  0  0  0  0  0
    8.7543  -17.8591   21.7888 C   0  0  0  0  0  0  0  0  0  0  0  0
    9.9598  -17.9014   22.2104 O   0  0  0  0  0  0  0  0  0  0  0  0
    8.7849  -21.9298   19.1785 O   0  0  0  0  0  0  0  0  0  0  0  0
    7.9143  -16.9842   22.4992 N   0  0  0  0  0  0  0  0  0  0  0  0
    8.4028  -16.1198   23.5540 C   0  0  1  0  0  0  0  0  0  0  0  0
    7.5877  -14.9039   23.6371 C   0  0  0  0  0  0  0  0  0  0  0  0
    8.0121  -14.0357   24.7653 C   0  0  0  0  0  0  0  0  0  0  0  0
    9.3569  -13.8666   25.1260 C   0  0  0  0  0  0  0  0  0  0  0  0
    9.3773  -13.0059   26.1389 N   0  0  0  0  0  0  0  0  0  0  0  0
    8.1394  -12.6041   26.4624 C   0  0  0  0  0  0  0  0  0  0  0  0
    7.6195  -11.7526   27.4179 C   0  0  0  0  0  0  0  0  0  0  0  0
    6.2713  -11.5531   27.5106 C   0  0  0  0  0  0  0  0  0  0  0  0
    5.4004  -12.1916   26.6591 C   0  0  0  0  0  0  0  0  0  0  0  0
    5.9230  -13.0409   25.7056 C   0  0  0  0  0  0  0  0  0  0  0  0
    7.2783  -13.2439   25.6082 C   0  0  0  0  0  0  0  0  0  0  0  0
    8.4933  -16.9299   24.7745 C   0  0  0  0  0  0  0  0  0  0  0  0
    7.4462  -17.4254   25.2642 O   0  0  0  0  0  0  0  0  0  0  0  0
    9.6894  -17.2120   25.4702 N   0  0  0  0  0  0  0  0  0  0  0  0
    9.7082  -18.0712   26.6838 C   0  0  1  0  0  0  0  0  0  0  0  0
   10.8497  -19.0492   26.5630 C   0  0  0  0  0  0  0  0  0  0  0  0
   10.6708  -19.9091   25.3527 C   0  0  0  0  0  0  0  0  0  0  0  0
   11.8034  -20.8468   25.0648 C   0  0  0  0  0  0  0  0  0  0  0  0
   11.6389  -21.7327   23.8860 C   0  0  0  0  0  0  0  0  0  0  0  0
   12.7360  -22.6399   23.6424 N   0  0  0  0  0  0  0  0  0  0  0  0
    9.9653  -17.1303   27.7908 C   0  0  0  0  0  0  0  0  0  0  0  0
   10.7472  -15.9698   27.5772 O   0  0  0  0  0  0  0  0  0  0  0  0
    9.5466  -17.2465   28.9703 O   0  0  0  0  0  0  0  0  0  0  0  0
  2  1  1  6
  2  3  1  0
  3  4  1  0
  4  8  1  0
  5  4  2  0
  6  7  2  0
  6  2  1  0
  9  6  1  0
 10  9  1  0
 10 11  1  1
 11 12  1  0
 12 13  2  0
 12 20  1  0
 13 14  1  0
 14 15  1  0
 15 16  2  0
 16 17  1  0
 18 17  2  0
 19 18  1  0
 20 19  2  0
 20 15  1  0
 21 10  1  0
 22 21  2  0
 23 21  1  0
 24 25  1  6
 24 23  1  0
 26 25  1  0
 27 26  1  0
 27 28  1  0
 28 29  1  0
 30 24  1  0
 31 30  1  0
 32 30  2  0
M  END
$$$$
