DWK.pdb
     RDKit          3D

 32 33  0  0  1  0  0  0  0  0999 V2000
   10.1505  -19.2239   21.0334 N   0  0  0  0  0  0  0  0  0  0  0  0
   11.1500  -18.2096   21.2639 C   0  0  1  0  0  0  0  0  0  0  0  0
   11.7279  -17.7732   19.9390 C   0  0  0  0  0  0  0  0  0  0  0  0
   12.3180  -18.8557   19.1628 C   0  0  0  0  0  0  0  0  0  0  0  0
   11.5533  -19.7366   18.6937 O   0  0  0  0  0  0  0  0  0  0  0  0
   10.6747  -17.0537   22.0409 C   0  0  0  0  0  0  0  0  0  0  0  0
   11.4043  -16.0208   22.2247 O   0  0  0  0  0  0  0  0  0  0  0  0
   13.6680  -18.9759   18.9073 O   0  0  0  0  0  0  0  0  0  0  0  0
    9.4033  -16.9878   22.6366 N   0  0  0  0  0  0  0  0  0  0  0  0
    9.0200  -15.9215   23.5392 C   0  0  1  0  0  0  0  0  0  0  0  0
    7.7179  -15.3685   23.1533 C   0  0  0  0  0  0  0  0  0  0  0  0
    7.5135  -14.0073   23.7118 C   0  0  0  0  0  0  0  0  0  0  0  0
    7.8285  -12.8413   22.9987 C   0  0  0  0  0  0  0  0  0  0  0  0
    7.4884  -11.8149   23.7718 N   0  0  0  0  0  0  0  0  0  0  0  0
    6.9749  -12.2321   24.9384 C   0  0  0  0  0  0  0  0  0  0  0  0
    6.4922  -11.5936   26.0642 C   0  0  0  0  0  0  0  0  0  0  0  0
    6.0367  -12.3158   27.1306 C   0  0  0  0  0  0  0  0  0  0  0  0
    6.0467  -13.6908   27.1113 C   0  0  0  0  0  0  0  0  0  0  0  0
    6.5289  -14.3253   25.9850 C   0  0  0  0  0  0  0  0  0  0  0  0
    6.9871  -13.6030   24.9099 C   0  0  0  0  0  0  0  0  0  0  0  0
    9.1271  -16.4473   24.9053 C   0  0  0  0  0  0  0  0  0  0  0  0
    8.3071  -17.3165   25.2971 O   0  0  0  0  0  0  0  0  0  0  0  0
   10.1003  -16.0518   25.8491 N   0  0  0  0  0  0  0  0  0  0  0  0
   10.4615  -16.9077   27.0104 C   0  0  1  0  0  0  0  0  0  0  0  0
   11.1662  -18.1391   26.4994 C   0  0  0  0  0  0  0  0  0  0  0  0
   11.5153  -19.0467   27.6355 C   0  0  0  0  0  0  0  0  0  0  0  0
   12.2091  -20.3163   27.2462 C   0  0  0  0  0  0  0  0  0  0  0  0
   12.5007  -21.2690   28.3456 C   0  0  0  0  0  0  0  0  0  0  0  0
   13.2995  -22.4125   27.9710 N   0  0  0  0  0  0  0  0  0  0  0  0
   11.3977  -16.0796   27.7943 C   0  0  0  0  0  0  0  0  0  0  0  0
   12.5993  -15.6104   27.2115 O   0  0  0  0  0  0  0  0  0  0  0  0
   11.2434  -15.7219   28.9895 O   0  0  0  0  0  0  0  0  0  0  0  0
  2  1  1  6
  2  3  1  0
  3  4  1  0
  4  8  1  0
  5  4  2  0
  6  7  2  0
  6  2  1  0
  9  6  1  0
 10  9  1  0
 10 11  1  6
 11 12  1  0
 12 13  2  0
 12 20  1  0
 13 14  1  0
 14 15  1  0
 15 16  2  0
 16 17  1  0
 18 17  2  0
 19 18  1  0
 20 19  2  0
 20 15  1  0
 21 10  1  0
 22 21  2  0
 23 21  1  0
 24 25  1  6
 24 23  1  0
 26 25  1  0
 27 26  1  0
 27 28  1  0
 28 29  1  0
 30 24  1  0
 31 30  1  0
 32 30  2  0
M  END
$$$$
