DWK.pdb
     RDKit          3D

 32 33  0  0  1  0  0  0  0  0999 V2000
    8.0230  -18.0257   21.1982 N   0  0  0  0  0  0  0  0  0  0  0  0
    9.2565  -17.2831   21.2868 C   0  0  1  0  0  0  0  0  0  0  0  0
    9.1722  -16.0731   20.3877 C   0  0  0  0  0  0  0  0  0  0  0  0
    9.0209  -16.3926   18.9743 C   0  0  0  0  0  0  0  0  0  0  0  0
    7.8964  -16.2139   18.4411 O   0  0  0  0  0  0  0  0  0  0  0  0
    9.6383  -16.9003   22.6556 C   0  0  0  0  0  0  0  0  0  0  0  0
   10.6956  -16.2236   22.8947 O   0  0  0  0  0  0  0  0  0  0  0  0
   10.0375  -16.8798   18.1797 O   0  0  0  0  0  0  0  0  0  0  0  0
    8.8884  -17.2398   23.7950 N   0  0  0  0  0  0  0  0  0  0  0  0
    9.3385  -16.9455   25.1401 C   0  0  1  0  0  0  0  0  0  0  0  0
    8.1911  -16.7375   26.0290 C   0  0  0  0  0  0  0  0  0  0  0  0
    7.3486  -15.5998   25.5791 C   0  0  0  0  0  0  0  0  0  0  0  0
    6.1546  -15.7779   24.8649 C   0  0  0  0  0  0  0  0  0  0  0  0
    5.6457  -14.5672   24.6598 N   0  0  0  0  0  0  0  0  0  0  0  0
    6.4260  -13.6140   25.1902 C   0  0  0  0  0  0  0  0  0  0  0  0
    6.3632  -12.2351   25.2457 C   0  0  0  0  0  0  0  0  0  0  0  0
    7.3492  -11.5194   25.8636 C   0  0  0  0  0  0  0  0  0  0  0  0
    8.4250  -12.1498   26.4436 C   0  0  0  0  0  0  0  0  0  0  0  0
    8.4842  -13.5271   26.3868 C   0  0  0  0  0  0  0  0  0  0  0  0
    7.4944  -14.2510   25.7672 C   0  0  0  0  0  0  0  0  0  0  0  0
   10.2798  -18.0035   25.5259 C   0  0  0  0  0  0  0  0  0  0  0  0
    9.9692  -19.2063   25.3299 O   0  0  0  0  0  0  0  0  0  0  0  0
   11.5439  -17.7843   26.1160 N   0  0  0  0  0  0  0  0  0  0  0  0
   12.4451  -18.9090   26.4828 C   0  0  1  0  0  0  0  0  0  0  0  0
   13.8637  -18.5140   26.1578 C   0  0  0  0  0  0  0  0  0  0  0  0
   14.8047  -19.6221   26.5085 C   0  0  0  0  0  0  0  0  0  0  0  0
   16.2572  -19.3091   26.3156 C   0  0  0  0  0  0  0  0  0  0  0  0
   17.2049  -20.4295   26.5342 C   0  0  0  0  0  0  0  0  0  0  0  0
   18.5947  -20.1117   26.3027 N   0  0  0  0  0  0  0  0  0  0  0  0
   12.2812  -19.0444   27.9427 C   0  0  0  0  0  0  0  0  0  0  0  0
   11.7467  -17.9782   28.7053 O   0  0  0  0  0  0  0  0  0  0  0  0
   12.5787  -20.0553   28.6281 O   0  0  0  0  0  0  0  0  0  0  0  0
  2  1  1  1
  2  3  1  0
  3  4  1  0
  4  8  1  0
  5  4  2  0
  6  7  2  0
  6  2  1  0
  9  6  1  0
 10  9  1  0
 10 11  1  1
 11 12  1  0
 12 13  2  0
 12 20  1  0
 13 14  1  0
 14 15  1  0
 15 16  2  0
 16 17  1  0
 18 17  2  0
 19 18  1  0
 20 19  2  0
 20 15  1  0
 21 10  1  0
 22 21  2  0
 23 21  1  0
 24 25  1  1
 24 23  1  0
 26 25  1  0
 27 26  1  0
 27 28  1  0
 28 29  1  0
 30 24  1  0
 31 30  1  0
 32 30  2  0
M  END
$$$$
