DWK.pdb
     RDKit          3D

 32 33  0  0  1  0  0  0  0  0999 V2000
    7.6402  -16.7655   20.0078 N   0  0  0  0  0  0  0  0  0  0  0  0
    8.9113  -17.3666   20.3301 C   0  0  1  0  0  0  0  0  0  0  0  0
    9.7200  -17.5240   19.0648 C   0  0  0  0  0  0  0  0  0  0  0  0
    9.0217  -18.2276   17.9971 C   0  0  0  0  0  0  0  0  0  0  0  0
    9.6715  -18.5420   16.9677 O   0  0  0  0  0  0  0  0  0  0  0  0
    9.6774  -16.6508   21.3628 C   0  0  0  0  0  0  0  0  0  0  0  0
   10.8578  -16.2134   21.1426 O   0  0  0  0  0  0  0  0  0  0  0  0
    7.6874  -18.5737   18.0442 O   0  0  0  0  0  0  0  0  0  0  0  0
    9.1871  -16.3924   22.6545 N   0  0  0  0  0  0  0  0  0  0  0  0
   10.0125  -15.8281   23.7028 C   0  0  1  0  0  0  0  0  0  0  0  0
    9.6182  -14.4420   23.9735 C   0  0  0  0  0  0  0  0  0  0  0  0
    8.2742  -14.3674   24.6018 C   0  0  0  0  0  0  0  0  0  0  0  0
    7.3944  -15.4592   24.6392 C   0  0  0  0  0  0  0  0  0  0  0  0
    6.3130  -15.0581   25.3001 N   0  0  0  0  0  0  0  0  0  0  0  0
    6.4280  -13.7814   25.6944 C   0  0  0  0  0  0  0  0  0  0  0  0
    5.6100  -12.9060   26.3821 C   0  0  0  0  0  0  0  0  0  0  0  0
    6.0137  -11.6236   26.6248 C   0  0  0  0  0  0  0  0  0  0  0  0
    7.2390  -11.1728   26.1928 C   0  0  0  0  0  0  0  0  0  0  0  0
    8.0536  -12.0501   25.5068 C   0  0  0  0  0  0  0  0  0  0  0  0
    7.6521  -13.3408   25.2613 C   0  0  0  0  0  0  0  0  0  0  0  0
    9.9657  -16.7543   24.8404 C   0  0  0  0  0  0  0  0  0  0  0  0
    8.9004  -17.3762   25.0853 O   0  0  0  0  0  0  0  0  0  0  0  0
   11.0448  -17.0181   25.7123 N   0  0  0  0  0  0  0  0  0  0  0  0
   10.9547  -18.0432   26.7859 C   0  0  1  0  0  0  0  0  0  0  0  0
   12.2949  -18.7220   26.9163 C   0  0  0  0  0  0  0  0  0  0  0  0
   12.7528  -19.2274   25.5855 C   0  0  0  0  0  0  0  0  0  0  0  0
   14.0860  -19.9111   25.5883 C   0  0  0  0  0  0  0  0  0  0  0  0
   14.6652  -20.2261   24.2592 C   0  0  0  0  0  0  0  0  0  0  0  0
   16.0358  -20.6815   24.2794 N   0  0  0  0  0  0  0  0  0  0  0  0
   10.6617  -17.2668   28.0056 C   0  0  0  0  0  0  0  0  0  0  0  0
   10.3004  -17.9263   29.2049 O   0  0  0  0  0  0  0  0  0  0  0  0
   10.6975  -16.0145   28.1097 O   0  0  0  0  0  0  0  0  0  0  0  0
  2  1  1  6
  2  3  1  0
  3  4  1  0
  4  8  1  0
  5  4  2  0
  6  7  2  0
  6  2  1  0
  9  6  1  0
 10  9  1  0
 10 11  1  1
 11 12  1  0
 12 13  2  0
 12 20  1  0
 13 14  1  0
 14 15  1  0
 15 16  2  0
 16 17  1  0
 18 17  2  0
 19 18  1  0
 20 19  2  0
 20 15  1  0
 21 10  1  0
 22 21  2  0
 23 21  1  0
 24 25  1  1
 24 23  1  0
 26 25  1  0
 27 26  1  0
 27 28  1  0
 28 29  1  0
 30 24  1  0
 31 30  1  0
 32 30  2  0
M  END
$$$$
