DWK.pdb
     RDKit          3D

 32 33  0  0  1  0  0  0  0  0999 V2000
    7.8685  -17.9212   20.8747 N   0  0  0  0  0  0  0  0  0  0  0  0
    9.0295  -17.0767   20.7340 C   0  0  1  0  0  0  0  0  0  0  0  0
    8.7215  -15.9701   19.7541 C   0  0  0  0  0  0  0  0  0  0  0  0
    8.2387  -16.4384   18.4617 C   0  0  0  0  0  0  0  0  0  0  0  0
    8.9786  -17.2029   17.7918 O   0  0  0  0  0  0  0  0  0  0  0  0
    9.5431  -16.5338   22.0018 C   0  0  0  0  0  0  0  0  0  0  0  0
   10.4088  -15.5943   22.0296 O   0  0  0  0  0  0  0  0  0  0  0  0
    7.0155  -16.0961   17.9242 O   0  0  0  0  0  0  0  0  0  0  0  0
    9.1345  -16.9931   23.2659 N   0  0  0  0  0  0  0  0  0  0  0  0
    9.7485  -16.5375   24.4963 C   0  0  1  0  0  0  0  0  0  0  0  0
    8.7938  -16.6224   25.6059 C   0  0  0  0  0  0  0  0  0  0  0  0
    7.6987  -15.6289   25.4638 C   0  0  0  0  0  0  0  0  0  0  0  0
    6.3955  -15.9871   25.0887 C   0  0  0  0  0  0  0  0  0  0  0  0
    5.6734  -14.8711   25.0962 N   0  0  0  0  0  0  0  0  0  0  0  0
    6.4165  -13.8119   25.4492 C   0  0  0  0  0  0  0  0  0  0  0  0
    6.1643  -12.4617   25.5965 C   0  0  0  0  0  0  0  0  0  0  0  0
    7.1625  -11.6050   25.9650 C   0  0  0  0  0  0  0  0  0  0  0  0
    8.4386  -12.0620   26.1977 C   0  0  0  0  0  0  0  0  0  0  0  0
    8.6867  -13.4113   26.0502 C   0  0  0  0  0  0  0  0  0  0  0  0
    7.6856  -14.2766   25.6808 C   0  0  0  0  0  0  0  0  0  0  0  0
   11.0045  -17.2797   24.6574 C   0  0  0  0  0  0  0  0  0  0  0  0
   11.0121  -18.5244   24.4778 O   0  0  0  0  0  0  0  0  0  0  0  0
   12.2450  -16.7023   25.0068 N   0  0  0  0  0  0  0  0  0  0  0  0
   13.4870  -17.5133   25.1120 C   0  0  1  0  0  0  0  0  0  0  0  0
   14.6719  -16.6111   24.8753 C   0  0  0  0  0  0  0  0  0  0  0  0
   15.9473  -17.3713   25.0534 C   0  0  0  0  0  0  0  0  0  0  0  0
   17.1864  -16.5311   25.1135 C   0  0  0  0  0  0  0  0  0  0  0  0
   18.4687  -17.2621   25.2640 C   0  0  0  0  0  0  0  0  0  0  0  0
   19.6324  -16.4274   25.4516 N   0  0  0  0  0  0  0  0  0  0  0  0
   13.4897  -17.9939   26.5069 C   0  0  0  0  0  0  0  0  0  0  0  0
   14.0593  -19.2487   26.8310 O   0  0  0  0  0  0  0  0  0  0  0  0
   13.0172  -17.3831   27.4988 O   0  0  0  0  0  0  0  0  0  0  0  0
  2  1  1  1
  2  3  1  0
  3  4  1  0
  4  8  1  0
  5  4  2  0
  6  7  2  0
  6  2  1  0
  9  6  1  0
 10  9  1  0
 10 11  1  1
 11 12  1  0
 12 13  2  0
 12 20  1  0
 13 14  1  0
 14 15  1  0
 15 16  2  0
 16 17  1  0
 18 17  2  0
 19 18  1  0
 20 19  2  0
 20 15  1  0
 21 10  1  0
 22 21  2  0
 23 21  1  0
 24 25  1  1
 24 23  1  0
 26 25  1  0
 27 26  1  0
 27 28  1  0
 28 29  1  0
 30 24  1  0
 31 30  1  0
 32 30  2  0
M  END
$$$$
