DWK.pdb
     RDKit          3D

 32 33  0  0  1  0  0  0  0  0999 V2000
    7.0045  -17.1530   20.6392 N   0  0  0  0  0  0  0  0  0  0  0  0
    8.2320  -16.4106   20.4882 C   0  0  1  0  0  0  0  0  0  0  0  0
    7.9519  -15.1404   19.7215 C   0  0  0  0  0  0  0  0  0  0  0  0
    7.6760  -15.3494   18.3063 C   0  0  0  0  0  0  0  0  0  0  0  0
    7.6783  -16.5276   17.8675 O   0  0  0  0  0  0  0  0  0  0  0  0
    8.9279  -16.1235   21.7528 C   0  0  0  0  0  0  0  0  0  0  0  0
    9.9763  -15.3940   21.7931 O   0  0  0  0  0  0  0  0  0  0  0  0
    7.4099  -14.3326   17.4131 O   0  0  0  0  0  0  0  0  0  0  0  0
    8.5082  -16.6175   23.0000 N   0  0  0  0  0  0  0  0  0  0  0  0
    9.2159  -16.3289   24.2306 C   0  0  1  0  0  0  0  0  0  0  0  0
    8.3192  -16.4730   25.3818 C   0  0  0  0  0  0  0  0  0  0  0  0
    7.3458  -15.3538   25.4616 C   0  0  0  0  0  0  0  0  0  0  0  0
    5.9589  -15.5499   25.3877 C   0  0  0  0  0  0  0  0  0  0  0  0
    5.3942  -14.3550   25.5295 N   0  0  0  0  0  0  0  0  0  0  0  0
    6.3172  -13.3952   25.6896 C   0  0  0  0  0  0  0  0  0  0  0  0
    6.2660  -12.0254   25.8603 C   0  0  0  0  0  0  0  0  0  0  0  0
    7.4154  -11.2975   25.9841 C   0  0  0  0  0  0  0  0  0  0  0  0
    8.6477  -11.9066   25.9419 C   0  0  0  0  0  0  0  0  0  0  0  0
    8.6951  -13.2750   25.7719 C   0  0  0  0  0  0  0  0  0  0  0  0
    7.5416  -14.0110   25.6480 C   0  0  0  0  0  0  0  0  0  0  0  0
   10.4286  -17.1556   24.2401 C   0  0  0  0  0  0  0  0  0  0  0  0
   10.3330  -18.3922   24.0321 O   0  0  0  0  0  0  0  0  0  0  0  0
   11.7351  -16.6709   24.4688 N   0  0  0  0  0  0  0  0  0  0  0  0
   12.9091  -17.5808   24.5403 C   0  0  1  0  0  0  0  0  0  0  0  0
   14.1415  -16.8077   24.1433 C   0  0  0  0  0  0  0  0  0  0  0  0
   15.3649  -17.6459   24.3360 C   0  0  0  0  0  0  0  0  0  0  0  0
   16.6609  -16.9625   24.0226 C   0  0  0  0  0  0  0  0  0  0  0  0
   17.8852  -17.7929   24.1355 C   0  0  0  0  0  0  0  0  0  0  0  0
   19.1225  -17.1036   23.8524 N   0  0  0  0  0  0  0  0  0  0  0  0
   12.9885  -17.9600   25.9639 C   0  0  0  0  0  0  0  0  0  0  0  0
   13.5930  -19.1813   26.3471 O   0  0  0  0  0  0  0  0  0  0  0  0
   12.5562  -17.2854   26.9324 O   0  0  0  0  0  0  0  0  0  0  0  0
  2  1  1  1
  2  3  1  0
  3  4  1  0
  4  8  1  0
  5  4  2  0
  6  7  2  0
  6  2  1  0
  9  6  1  0
 10  9  1  0
 10 11  1  1
 11 12  1  0
 12 13  2  0
 12 20  1  0
 13 14  1  0
 14 15  1  0
 15 16  2  0
 16 17  1  0
 18 17  2  0
 19 18  1  0
 20 19  2  0
 20 15  1  0
 21 10  1  0
 22 21  2  0
 23 21  1  0
 24 25  1  1
 24 23  1  0
 26 25  1  0
 27 26  1  0
 27 28  1  0
 28 29  1  0
 30 24  1  0
 31 30  1  0
 32 30  2  0
M  END
$$$$
