DWK.pdb
     RDKit          3D

 32 33  0  0  1  0  0  0  0  0999 V2000
   10.0816  -17.8742   21.7843 N   0  0  0  0  0  0  0  0  0  0  0  0
   11.1066  -17.1127   22.4554 C   0  0  1  0  0  0  0  0  0  0  0  0
   11.5125  -15.9502   21.5816 C   0  0  0  0  0  0  0  0  0  0  0  0
   12.1554  -16.3408   20.3339 C   0  0  0  0  0  0  0  0  0  0  0  0
   11.4480  -16.8743   19.4419 O   0  0  0  0  0  0  0  0  0  0  0  0
   10.7393  -16.6574   23.8058 C   0  0  0  0  0  0  0  0  0  0  0  0
   11.4922  -15.8754   24.4800 O   0  0  0  0  0  0  0  0  0  0  0  0
   13.4965  -16.1609   20.0669 O   0  0  0  0  0  0  0  0  0  0  0  0
    9.5530  -17.0364   24.4576 N   0  0  0  0  0  0  0  0  0  0  0  0
    9.2206  -16.5874   25.7941 C   0  0  1  0  0  0  0  0  0  0  0  0
    7.7903  -16.2790   25.8888 C   0  0  0  0  0  0  0  0  0  0  0  0
    7.4469  -15.0388   25.1470 C   0  0  0  0  0  0  0  0  0  0  0  0
    7.2868  -15.0098   23.7538 C   0  0  0  0  0  0  0  0  0  0  0  0
    6.9497  -13.7648   23.4320 N   0  0  0  0  0  0  0  0  0  0  0  0
    6.8800  -12.9821   24.5188 C   0  0  0  0  0  0  0  0  0  0  0  0
    6.5923  -11.6477   24.7307 C   0  0  0  0  0  0  0  0  0  0  0  0
    6.6177  -11.1235   25.9920 C   0  0  0  0  0  0  0  0  0  0  0  0
    6.9292  -11.9068   27.0786 C   0  0  0  0  0  0  0  0  0  0  0  0
    7.2155  -13.2393   26.8634 C   0  0  0  0  0  0  0  0  0  0  0  0
    7.1901  -13.7708   25.5968 C   0  0  0  0  0  0  0  0  0  0  0  0
    9.7354  -17.5921   26.7320 C   0  0  0  0  0  0  0  0  0  0  0  0
    9.3315  -17.5875   27.9230 O   0  0  0  0  0  0  0  0  0  0  0  0
   10.6737  -18.5959   26.4060 N   0  0  0  0  0  0  0  0  0  0  0  0
   11.1888  -19.5501   27.4237 C   0  0  1  0  0  0  0  0  0  0  0  0
   11.7289  -20.7656   26.7133 C   0  0  0  0  0  0  0  0  0  0  0  0
   10.6252  -21.4895   26.0104 C   0  0  0  0  0  0  0  0  0  0  0  0
   11.0632  -22.6287   25.1413 C   0  0  0  0  0  0  0  0  0  0  0  0
   10.0018  -23.2933   24.3457 C   0  0  0  0  0  0  0  0  0  0  0  0
   10.4690  -24.2907   23.4113 N   0  0  0  0  0  0  0  0  0  0  0  0
   12.2891  -18.8200   28.0818 C   0  0  0  0  0  0  0  0  0  0  0  0
   12.9606  -19.3857   29.1921 O   0  0  0  0  0  0  0  0  0  0  0  0
   12.7246  -17.6879   27.7520 O   0  0  0  0  0  0  0  0  0  0  0  0
  2  1  1  6
  2  3  1  0
  3  4  1  0
  4  8  1  0
  5  4  2  0
  6  7  2  0
  6  2  1  0
  9  6  1  0
 10  9  1  0
 10 11  1  6
 11 12  1  0
 12 13  2  0
 12 20  1  0
 13 14  1  0
 14 15  1  0
 15 16  2  0
 16 17  1  0
 18 17  2  0
 19 18  1  0
 20 19  2  0
 20 15  1  0
 21 10  1  0
 22 21  2  0
 23 21  1  0
 24 25  1  6
 24 23  1  0
 26 25  1  0
 27 26  1  0
 27 28  1  0
 28 29  1  0
 30 24  1  0
 31 30  1  0
 32 30  2  0
M  END
$$$$
