VDI.pdb
     RDKit          3D

 24 23  0  0  1  0  0  0  0  0999 V2000
   14.3820  -11.6907  -15.9363 C   0  0  0  0  0  0  0  0  0  0  0  0
   14.8914  -10.8547  -14.7821 C   0  0  1  0  0  0  0  0  0  0  0  0
   14.3520  -11.3147  -13.4620 C   0  0  0  0  0  0  0  0  0  0  0  0
   16.3983  -10.9589  -14.7856 C   0  0  2  0  0  0  0  0  0  0  0  0
   16.8693  -12.3067  -14.7462 N   0  0  0  0  0  0  0  0  0  0  0  0
   17.0053  -10.1241  -13.7166 C   0  0  0  0  0  0  0  0  0  0  0  0
   17.3339  -10.6672  -12.6319 O   0  0  0  0  0  0  0  0  0  0  0  0
   17.2408   -8.7328  -13.8448 N   0  0  0  0  0  0  0  0  0  0  0  0
   17.7250   -7.9161  -12.7484 C   0  0  1  0  0  0  0  0  0  0  0  0
   18.6980   -6.8642  -13.2250 C   0  0  0  0  0  0  0  0  0  0  0  0
   18.1291   -5.9446  -14.2095 C   0  0  0  0  0  0  0  0  0  0  0  0
   17.5696   -4.8580  -13.9219 O   0  0  0  0  0  0  0  0  0  0  0  0
   16.5681   -7.3406  -12.0395 C   0  0  0  0  0  0  0  0  0  0  0  0
   15.4702   -7.1834  -12.6084 O   0  0  0  0  0  0  0  0  0  0  0  0
   18.2004   -6.2725  -15.5546 O   0  0  0  0  0  0  0  0  0  0  0  0
   12.7681   -7.9264   -7.9451 C   0  0  0  0  0  0  0  0  0  0  0  0
   13.4570   -6.8659   -8.7525 C   0  0  0  0  0  0  0  0  0  0  0  0
   14.6440   -7.4741   -9.4993 C   0  0  2  0  0  0  0  0  0  0  0  0
   15.3411   -8.4083   -8.5648 C   0  0  0  0  0  0  0  0  0  0  0  0
   15.5587   -6.3805  -10.0129 C   0  0  2  0  0  0  0  0  0  0  0  0
   16.6852   -6.9530  -10.6881 N   0  0  0  0  0  0  0  0  0  0  0  0
   16.0934   -5.5616   -8.8850 C   0  0  0  0  0  0  0  0  0  0  0  0
   15.4056   -4.5031   -8.3243 O   0  0  0  0  0  0  0  0  0  0  0  0
   17.2243   -5.8489   -8.4228 O   0  0  0  0  0  0  0  0  0  0  0  0
  2  3  1  1
  2  1  1  0
  4  2  1  0
  4  5  1  1
  6  7  2  0
  6  4  1  0
  8  6  1  0
  9  8  1  0
  9 10  1  6
 10 11  1  0
 11 12  2  0
 11 15  1  0
 13  9  1  0
 14 13  2  0
 16 17  1  0
 18 17  1  0
 18 20  1  0
 18 19  1  1
 20 21  1  1
 21 13  1  0
 22 20  1  0
 22 23  1  0
 24 22  2  0
M  END
$$$$
