VDI.pdb
     RDKit          3D

 24 23  0  0  1  0  0  0  0  0999 V2000
   25.3615  -32.2694   -7.5113 C   0  0  0  0  0  0  0  0  0  0  0  0
   24.9499  -33.0994   -8.7080 C   0  0  1  0  0  0  0  0  0  0  0  0
   25.6596  -32.6859   -9.9612 C   0  0  0  0  0  0  0  0  0  0  0  0
   25.2733  -34.5392   -8.3859 C   0  0  2  0  0  0  0  0  0  0  0  0
   24.8918  -35.4468   -9.4206 N   0  0  0  0  0  0  0  0  0  0  0  0
   24.7259  -34.9386   -7.0634 C   0  0  0  0  0  0  0  0  0  0  0  0
   23.8802  -35.8666   -7.0090 O   0  0  0  0  0  0  0  0  0  0  0  0
   25.1029  -34.3299   -5.8407 N   0  0  0  0  0  0  0  0  0  0  0  0
   24.7736  -34.8991   -4.5481 C   0  0  1  0  0  0  0  0  0  0  0  0
   25.1659  -36.3550   -4.4645 C   0  0  0  0  0  0  0  0  0  0  0  0
   24.7634  -36.9982   -3.2143 C   0  0  0  0  0  0  0  0  0  0  0  0
   23.8826  -36.5500   -2.4398 O   0  0  0  0  0  0  0  0  0  0  0  0
   25.4014  -34.0801   -3.4958 C   0  0  0  0  0  0  0  0  0  0  0  0
   26.6178  -33.8092   -3.5228 O   0  0  0  0  0  0  0  0  0  0  0  0
   25.3807  -38.1812   -2.8386 O   0  0  0  0  0  0  0  0  0  0  0  0
   22.6035  -29.9602   -1.4693 C   0  0  0  0  0  0  0  0  0  0  0  0
   23.6499  -30.8845   -2.0188 C   0  0  0  0  0  0  0  0  0  0  0  0
   24.2102  -31.7571   -0.8957 C   0  0  2  0  0  0  0  0  0  0  0  0
   24.7882  -30.8505    0.1416 C   0  0  0  0  0  0  0  0  0  0  0  0
   25.2319  -32.7313   -1.4464 C   0  0  2  0  0  0  0  0  0  0  0  0
   24.6266  -33.5828   -2.4270 N   0  0  0  0  0  0  0  0  0  0  0  0
   25.7607  -33.6147   -0.3654 C   0  0  0  0  0  0  0  0  0  0  0  0
   26.9608  -33.3874    0.2798 O   0  0  0  0  0  0  0  0  0  0  0  0
   25.0814  -34.6138   -0.0255 O   0  0  0  0  0  0  0  0  0  0  0  0
  2  3  1  6
  2  1  1  0
  4  2  1  0
  4  5  1  6
  6  7  2  0
  6  4  1  0
  8  6  1  0
  9  8  1  0
  9 10  1  6
 10 11  1  0
 11 12  2  0
 11 15  1  0
 13  9  1  0
 14 13  2  0
 16 17  1  0
 18 17  1  0
 18 20  1  0
 18 19  1  1
 20 21  1  6
 21 13  1  0
 22 20  1  0
 22 23  1  0
 24 22  2  0
M  END
$$$$
