VDI.pdb
     RDKit          3D

 24 23  0  0  1  0  0  0  0  0999 V2000
   28.6072  -20.9754  -14.9629 C   0  0  0  0  0  0  0  0  0  0  0  0
   28.7014  -19.8531  -15.9740 C   0  0  1  0  0  0  0  0  0  0  0  0
   29.6161  -20.1859  -17.1131 C   0  0  0  0  0  0  0  0  0  0  0  0
   27.3055  -19.6007  -16.4930 C   0  0  2  0  0  0  0  0  0  0  0  0
   27.2431  -18.5395  -17.4468 N   0  0  0  0  0  0  0  0  0  0  0  0
   26.3366  -19.4107  -15.3825 C   0  0  0  0  0  0  0  0  0  0  0  0
   26.0951  -18.2459  -14.9771 O   0  0  0  0  0  0  0  0  0  0  0  0
   25.6572  -20.4763  -14.7417 N   0  0  0  0  0  0  0  0  0  0  0  0
   24.7152  -20.2661  -13.6592 C   0  0  1  0  0  0  0  0  0  0  0  0
   23.3211  -20.7026  -14.0416 C   0  0  0  0  0  0  0  0  0  0  0  0
   22.3538  -20.5924  -12.9503 C   0  0  0  0  0  0  0  0  0  0  0  0
   22.0496  -21.5336  -12.1770 O   0  0  0  0  0  0  0  0  0  0  0  0
   25.2156  -20.9534  -12.4553 C   0  0  0  0  0  0  0  0  0  0  0  0
   25.7074  -22.0971  -12.5176 O   0  0  0  0  0  0  0  0  0  0  0  0
   21.7182  -19.3791  -12.7362 O   0  0  0  0  0  0  0  0  0  0  0  0
   28.2634  -19.9948   -7.4383 C   0  0  0  0  0  0  0  0  0  0  0  0
   27.2012  -20.8349   -8.0843 C   0  0  0  0  0  0  0  0  0  0  0  0
   26.6341  -20.1050   -9.3018 C   0  0  2  0  0  0  0  0  0  0  0  0
   26.0111  -18.8343   -8.8229 C   0  0  0  0  0  0  0  0  0  0  0  0
   25.6481  -20.9921  -10.0347 C   0  0  2  0  0  0  0  0  0  0  0  0
   25.1458  -20.3206  -11.1965 N   0  0  0  0  0  0  0  0  0  0  0  0
   24.4735  -21.3092   -9.1696 C   0  0  0  0  0  0  0  0  0  0  0  0
   24.5080  -22.2518   -8.1605 O   0  0  0  0  0  0  0  0  0  0  0  0
   23.4009  -20.6886   -9.3687 O   0  0  0  0  0  0  0  0  0  0  0  0
  2  3  1  6
  2  1  1  0
  4  2  1  0
  4  5  1  6
  6  7  2  0
  6  4  1  0
  8  6  1  0
  9  8  1  0
  9 10  1  6
 10 11  1  0
 11 12  2  0
 11 15  1  0
 13  9  1  0
 14 13  2  0
 16 17  1  0
 18 17  1  0
 18 20  1  0
 18 19  1  1
 20 21  1  6
 21 13  1  0
 22 20  1  0
 22 23  1  0
 24 22  2  0
M  END
$$$$
