VDI.pdb
     RDKit          3D

 24 23  0  0  1  0  0  0  0  0999 V2000
   16.6288  -14.5376  -20.1621 C   0  0  0  0  0  0  0  0  0  0  0  0
   17.7416  -13.5127  -20.2014 C   0  0  1  0  0  0  0  0  0  0  0  0
   17.5922  -12.5507  -21.3404 C   0  0  0  0  0  0  0  0  0  0  0  0
   17.7069  -12.7648  -18.8896 C   0  0  2  0  0  0  0  0  0  0  0  0
   16.4149  -12.2454  -18.5719 N   0  0  0  0  0  0  0  0  0  0  0  0
   18.7594  -11.7174  -18.8307 C   0  0  0  0  0  0  0  0  0  0  0  0
   19.9667  -12.0637  -18.8731 O   0  0  0  0  0  0  0  0  0  0  0  0
   18.4836  -10.3314  -18.7281 N   0  0  0  0  0  0  0  0  0  0  0  0
   19.5256   -9.3351  -18.5701 C   0  0  1  0  0  0  0  0  0  0  0  0
   19.2132   -8.0753  -19.3419 C   0  0  0  0  0  0  0  0  0  0  0  0
   20.2179   -7.0252  -19.1786 C   0  0  0  0  0  0  0  0  0  0  0  0
   19.9561   -5.8392  -18.8605 O   0  0  0  0  0  0  0  0  0  0  0  0
   19.7279   -9.0850  -17.1319 C   0  0  0  0  0  0  0  0  0  0  0  0
   18.7700   -9.0688  -16.3344 O   0  0  0  0  0  0  0  0  0  0  0  0
   21.5534   -7.3357  -19.3834 O   0  0  0  0  0  0  0  0  0  0  0  0
   23.3904  -11.7833  -14.6735 C   0  0  0  0  0  0  0  0  0  0  0  0
   22.1663  -10.9944  -15.0348 C   0  0  0  0  0  0  0  0  0  0  0  0
   22.4046   -9.5113  -14.7507 C   0  0  2  0  0  0  0  0  0  0  0  0
   22.6604   -9.3624  -13.2863 C   0  0  0  0  0  0  0  0  0  0  0  0
   21.2200   -8.6895  -15.2174 C   0  0  2  0  0  0  0  0  0  0  0  0
   21.0253   -8.8568  -16.6270 N   0  0  0  0  0  0  0  0  0  0  0  0
   21.4545   -7.2349  -14.9769 C   0  0  0  0  0  0  0  0  0  0  0  0
   21.0306   -6.5770  -13.8386 O   0  0  0  0  0  0  0  0  0  0  0  0
   22.0673   -6.5765  -15.8521 O   0  0  0  0  0  0  0  0  0  0  0  0
  2  3  1  6
  2  1  1  0
  4  2  1  0
  4  5  1  6
  6  7  2  0
  6  4  1  0
  8  6  1  0
  9  8  1  0
  9 10  1  6
 10 11  1  0
 11 12  2  0
 11 15  1  0
 13  9  1  0
 14 13  2  0
 16 17  1  0
 18 17  1  0
 18 20  1  0
 18 19  1  1
 20 21  1  6
 21 13  1  0
 22 20  1  0
 22 23  1  0
 24 22  2  0
M  END
$$$$
