VDI.pdb
     RDKit          3D

 24 23  0  0  1  0  0  0  0  0999 V2000
   18.3038  -12.1017  -19.9000 C   0  0  0  0  0  0  0  0  0  0  0  0
   18.3468  -10.8662  -19.0270 C   0  0  1  0  0  0  0  0  0  0  0  0
   17.0143  -10.5497  -18.4192 C   0  0  0  0  0  0  0  0  0  0  0  0
   19.3602  -11.1240  -17.9371 C   0  0  2  0  0  0  0  0  0  0  0  0
   19.1677  -12.3743  -17.2740 N   0  0  0  0  0  0  0  0  0  0  0  0
   19.4324   -9.9898  -16.9798 C   0  0  0  0  0  0  0  0  0  0  0  0
   18.6200   -9.9482  -16.0219 O   0  0  0  0  0  0  0  0  0  0  0  0
   20.3739   -8.9357  -17.0802 N   0  0  0  0  0  0  0  0  0  0  0  0
   20.3392   -7.7698  -16.2184 C   0  0  1  0  0  0  0  0  0  0  0  0
   21.5664   -7.6882  -15.3423 C   0  0  0  0  0  0  0  0  0  0  0  0
   21.6192   -8.7245  -14.3117 C   0  0  0  0  0  0  0  0  0  0  0  0
   20.8989   -8.7367  -13.2833 O   0  0  0  0  0  0  0  0  0  0  0  0
   20.1559   -6.5689  -17.0528 C   0  0  0  0  0  0  0  0  0  0  0  0
   20.5836   -6.5194  -18.2226 O   0  0  0  0  0  0  0  0  0  0  0  0
   22.5153   -9.7721  -14.4580 O   0  0  0  0  0  0  0  0  0  0  0  0
   16.3472   -3.0038  -19.3971 C   0  0  0  0  0  0  0  0  0  0  0  0
   17.6864   -2.9614  -18.7219 C   0  0  0  0  0  0  0  0  0  0  0  0
   17.9132   -4.2561  -17.9415 C   0  0  2  0  0  0  0  0  0  0  0  0
   16.8537   -4.3480  -16.8921 C   0  0  0  0  0  0  0  0  0  0  0  0
   19.3106   -4.2794  -17.3559 C   0  0  2  0  0  0  0  0  0  0  0  0
   19.4849   -5.4410  -16.5354 N   0  0  0  0  0  0  0  0  0  0  0  0
   19.5420   -3.0891  -16.4852 C   0  0  0  0  0  0  0  0  0  0  0  0
   19.9883   -1.8736  -16.9662 O   0  0  0  0  0  0  0  0  0  0  0  0
   19.3201   -3.1976  -15.2547 O   0  0  0  0  0  0  0  0  0  0  0  0
  2  3  1  1
  2  1  1  0
  4  2  1  0
  4  5  1  1
  6  7  2  0
  6  4  1  0
  8  6  1  0
  9  8  1  0
  9 10  1  6
 10 11  1  0
 11 12  2  0
 11 15  1  0
 13  9  1  0
 14 13  2  0
 16 17  1  0
 18 17  1  0
 18 20  1  0
 18 19  1  1
 20 21  1  1
 21 13  1  0
 22 20  1  0
 22 23  1  0
 24 22  2  0
M  END
$$$$
