VDI.pdb
     RDKit          3D

 24 23  0  0  1  0  0  0  0  0999 V2000
   14.9963  -12.9380  -16.4674 C   0  0  0  0  0  0  0  0  0  0  0  0
   15.4530  -11.5229  -16.7491 C   0  0  1  0  0  0  0  0  0  0  0  0
   14.3262  -10.5370  -16.6917 C   0  0  0  0  0  0  0  0  0  0  0  0
   16.4939  -11.1742  -15.7116 C   0  0  2  0  0  0  0  0  0  0  0  0
   16.0675  -11.4413  -14.3748 N   0  0  0  0  0  0  0  0  0  0  0  0
   16.9804   -9.7796  -15.8741 C   0  0  0  0  0  0  0  0  0  0  0  0
   17.4473   -9.4227  -16.9850 O   0  0  0  0  0  0  0  0  0  0  0  0
   16.9508   -8.8116  -14.8398 N   0  0  0  0  0  0  0  0  0  0  0  0
   17.4632   -7.4658  -15.0118 C   0  0  1  0  0  0  0  0  0  0  0  0
   16.4798   -6.4290  -14.5237 C   0  0  0  0  0  0  0  0  0  0  0  0
   15.3469   -6.2269  -15.4261 C   0  0  0  0  0  0  0  0  0  0  0  0
   15.3710   -6.4716  -16.6574 O   0  0  0  0  0  0  0  0  0  0  0  0
   18.7719   -7.3677  -14.3413 C   0  0  0  0  0  0  0  0  0  0  0  0
   18.9262   -7.7372  -13.1608 O   0  0  0  0  0  0  0  0  0  0  0  0
   14.1579   -5.7338  -14.9114 O   0  0  0  0  0  0  0  0  0  0  0  0
   22.6235   -9.8408  -16.2500 C   0  0  0  0  0  0  0  0  0  0  0  0
   21.6712   -9.0753  -15.3791 C   0  0  0  0  0  0  0  0  0  0  0  0
   22.1652   -7.6384  -15.2112 C   0  0  2  0  0  0  0  0  0  0  0  0
   23.5142   -7.6913  -14.5713 C   0  0  0  0  0  0  0  0  0  0  0  0
   21.1715   -6.8321  -14.3997 C   0  0  2  0  0  0  0  0  0  0  0  0
   19.8861   -6.8476  -15.0327 N   0  0  0  0  0  0  0  0  0  0  0  0
   21.5965   -5.4041  -14.3056 C   0  0  0  0  0  0  0  0  0  0  0  0
   22.3153   -4.8959  -13.2411 O   0  0  0  0  0  0  0  0  0  0  0  0
   21.2854   -4.6261  -15.2400 O   0  0  0  0  0  0  0  0  0  0  0  0
  2  3  1  1
  2  1  1  0
  4  2  1  0
  4  5  1  1
  6  7  2  0
  6  4  1  0
  8  6  1  0
  9  8  1  0
  9 10  1  1
 10 11  1  0
 11 12  2  0
 11 15  1  0
 13  9  1  0
 14 13  2  0
 16 17  1  0
 18 17  1  0
 18 20  1  0
 18 19  1  1
 20 21  1  6
 21 13  1  0
 22 20  1  0
 22 23  1  0
 24 22  2  0
M  END
$$$$
