VDI.pdb
     RDKit          3D

 24 23  0  0  1  0  0  0  0  0999 V2000
   27.8923  -19.4869  -18.7915 C   0  0  0  0  0  0  0  0  0  0  0  0
   26.9047  -19.0661  -17.7247 C   0  0  1  0  0  0  0  0  0  0  0  0
   25.5031  -19.4871  -18.0459 C   0  0  0  0  0  0  0  0  0  0  0  0
   27.3481  -19.7030  -16.4289 C   0  0  2  0  0  0  0  0  0  0  0  0
   27.7660  -21.0600  -16.5830 N   0  0  0  0  0  0  0  0  0  0  0  0
   26.3193  -19.5529  -15.3672 C   0  0  0  0  0  0  0  0  0  0  0  0
   25.9007  -18.4025  -15.0826 O   0  0  0  0  0  0  0  0  0  0  0  0
   25.7719  -20.6415  -14.6441 N   0  0  0  0  0  0  0  0  0  0  0  0
   24.8170  -20.4652  -13.5669 C   0  0  1  0  0  0  0  0  0  0  0  0
   23.4737  -21.0634  -13.9100 C   0  0  0  0  0  0  0  0  0  0  0  0
   22.3462  -20.3539  -13.3066 C   0  0  0  0  0  0  0  0  0  0  0  0
   22.4595  -19.3507  -12.5601 O   0  0  0  0  0  0  0  0  0  0  0  0
   25.3894  -21.0257  -12.3298 C   0  0  0  0  0  0  0  0  0  0  0  0
   25.9857  -22.1203  -12.3279 O   0  0  0  0  0  0  0  0  0  0  0  0
   21.0584  -20.7997  -13.5609 O   0  0  0  0  0  0  0  0  0  0  0  0
   28.2744  -19.5828   -7.3166 C   0  0  0  0  0  0  0  0  0  0  0  0
   27.3129  -20.5409   -7.9559 C   0  0  0  0  0  0  0  0  0  0  0  0
   26.7602  -19.9350   -9.2460 C   0  0  2  0  0  0  0  0  0  0  0  0
   26.1182  -18.6312   -8.8995 C   0  0  0  0  0  0  0  0  0  0  0  0
   25.7945  -20.8973   -9.9075 C   0  0  2  0  0  0  0  0  0  0  0  0
   25.2705  -20.3242  -11.1117 N   0  0  0  0  0  0  0  0  0  0  0  0
   24.6318  -21.1810   -9.0151 C   0  0  0  0  0  0  0  0  0  0  0  0
   24.7007  -22.0297   -7.9275 O   0  0  0  0  0  0  0  0  0  0  0  0
   23.5370  -20.6206   -9.2651 O   0  0  0  0  0  0  0  0  0  0  0  0
  2  3  1  6
  2  1  1  0
  4  2  1  0
  4  5  1  6
  6  7  2  0
  6  4  1  0
  8  6  1  0
  9  8  1  0
  9 10  1  6
 10 11  1  0
 11 12  2  0
 11 15  1  0
 13  9  1  0
 14 13  2  0
 16 17  1  0
 18 17  1  0
 18 20  1  0
 18 19  1  1
 20 21  1  6
 21 13  1  0
 22 20  1  0
 22 23  1  0
 24 22  2  0
M  END
$$$$
