VDI.pdb
     RDKit          3D

 24 23  0  0  1  0  0  0  0  0999 V2000
   12.7405  -12.9659  -14.6711 C   0  0  0  0  0  0  0  0  0  0  0  0
   13.5694  -12.0748  -13.7714 C   0  0  1  0  0  0  0  0  0  0  0  0
   13.5635  -12.5380  -12.3465 C   0  0  0  0  0  0  0  0  0  0  0  0
   14.9809  -12.0857  -14.3092 C   0  0  2  0  0  0  0  0  0  0  0  0
   15.5573  -13.3919  -14.3503 N   0  0  0  0  0  0  0  0  0  0  0  0
   15.8465  -11.1161  -13.5891 C   0  0  0  0  0  0  0  0  0  0  0  0
   16.6636  -11.5451  -12.7361 O   0  0  0  0  0  0  0  0  0  0  0  0
   15.8084   -9.7165  -13.8068 N   0  0  0  0  0  0  0  0  0  0  0  0
   16.6231   -8.7840  -13.0518 C   0  0  1  0  0  0  0  0  0  0  0  0
   17.4740   -7.9272  -13.9585 C   0  0  0  0  0  0  0  0  0  0  0  0
   18.3388   -6.9932  -13.2383 C   0  0  0  0  0  0  0  0  0  0  0  0
   19.1955   -7.3356  -12.3866 O   0  0  0  0  0  0  0  0  0  0  0  0
   15.7442   -7.9872  -12.1773 C   0  0  0  0  0  0  0  0  0  0  0  0
   14.6578   -7.5341  -12.5875 O   0  0  0  0  0  0  0  0  0  0  0  0
   18.2234   -5.6360  -13.4960 O   0  0  0  0  0  0  0  0  0  0  0  0
   13.0888   -9.2378   -8.1455 C   0  0  0  0  0  0  0  0  0  0  0  0
   13.5909   -8.4361   -9.3101 C   0  0  0  0  0  0  0  0  0  0  0  0
   14.7474   -7.5423   -8.8623 C   0  0  2  0  0  0  0  0  0  0  0  0
   14.2234   -6.6031   -7.8253 C   0  0  0  0  0  0  0  0  0  0  0  0
   15.3425   -6.8166  -10.0521 C   0  0  2  0  0  0  0  0  0  0  0  0
   16.1222   -7.7204  -10.8447 N   0  0  0  0  0  0  0  0  0  0  0  0
   16.2570   -5.7244   -9.6056 C   0  0  0  0  0  0  0  0  0  0  0  0
   15.8140   -4.4706   -9.2316 O   0  0  0  0  0  0  0  0  0  0  0  0
   17.4898   -5.9564   -9.5678 O   0  0  0  0  0  0  0  0  0  0  0  0
  2  3  1  1
  2  1  1  0
  4  2  1  0
  4  5  1  1
  6  7  2  0
  6  4  1  0
  8  6  1  0
  9  8  1  0
  9 10  1  6
 10 11  1  0
 11 12  2  0
 11 15  1  0
 13  9  1  0
 14 13  2  0
 16 17  1  0
 18 17  1  0
 18 20  1  0
 18 19  1  1
 20 21  1  6
 21 13  1  0
 22 20  1  0
 22 23  1  0
 24 22  2  0
M  END
$$$$
