VDI.pdb
     RDKit          3D

 24 23  0  0  1  0  0  0  0  0999 V2000
   16.8755  -13.3613  -19.4807 C   0  0  0  0  0  0  0  0  0  0  0  0
   17.2071  -12.1634  -18.6172 C   0  0  1  0  0  0  0  0  0  0  0  0
   16.1083  -11.8322  -17.6538 C   0  0  0  0  0  0  0  0  0  0  0  0
   18.4715  -12.4945  -17.8601 C   0  0  2  0  0  0  0  0  0  0  0  0
   18.4269  -13.7710  -17.2211 N   0  0  0  0  0  0  0  0  0  0  0  0
   18.8410  -11.4095  -16.9144 C   0  0  0  0  0  0  0  0  0  0  0  0
   18.4132  -11.4584  -15.7337 O   0  0  0  0  0  0  0  0  0  0  0  0
   19.6578  -10.3061  -17.2649 N   0  0  0  0  0  0  0  0  0  0  0  0
   19.9142   -9.2024  -16.3596 C   0  0  1  0  0  0  0  0  0  0  0  0
   21.3897   -9.0411  -16.0820 C   0  0  0  0  0  0  0  0  0  0  0  0
   21.6934   -7.9632  -15.1415 C   0  0  0  0  0  0  0  0  0  0  0  0
   21.4724   -8.0185  -13.9068 O   0  0  0  0  0  0  0  0  0  0  0  0
   19.3038   -7.9817  -16.9157 C   0  0  0  0  0  0  0  0  0  0  0  0
   19.2854   -7.7661  -18.1433 O   0  0  0  0  0  0  0  0  0  0  0  0
   22.2630   -6.7939  -15.6213 O   0  0  0  0  0  0  0  0  0  0  0  0
   14.4338   -6.5264  -16.3628 C   0  0  0  0  0  0  0  0  0  0  0  0
   15.8049   -6.5286  -16.9720 C   0  0  0  0  0  0  0  0  0  0  0  0
   16.7389   -5.6436  -16.1466 C   0  0  2  0  0  0  0  0  0  0  0  0
   16.2673   -4.2323  -16.2809 C   0  0  0  0  0  0  0  0  0  0  0  0
   18.1724   -5.8203  -16.6049 C   0  0  2  0  0  0  0  0  0  0  0  0
   18.7228   -7.0246  -16.0575 N   0  0  0  0  0  0  0  0  0  0  0  0
   19.0258   -4.6921  -16.1282 C   0  0  0  0  0  0  0  0  0  0  0  0
   19.2096   -3.5256  -16.8449 O   0  0  0  0  0  0  0  0  0  0  0  0
   19.6055   -4.8087  -15.0212 O   0  0  0  0  0  0  0  0  0  0  0  0
  2  3  1  1
  2  1  1  0
  4  2  1  0
  4  5  1  1
  6  7  2  0
  6  4  1  0
  8  6  1  0
  9  8  1  0
  9 10  1  6
 10 11  1  0
 11 12  2  0
 11 15  1  0
 13  9  1  0
 14 13  2  0
 16 17  1  0
 18 17  1  0
 18 20  1  0
 18 19  1  6
 20 21  1  1
 21 13  1  0
 22 20  1  0
 22 23  1  0
 24 22  2  0
M  END
$$$$
