VDI.pdb
     RDKit          3D

 24 23  0  0  1  0  0  0  0  0999 V2000
   16.3599  -13.7542  -18.2966 C   0  0  0  0  0  0  0  0  0  0  0  0
   16.6205  -12.5784  -17.3800 C   0  0  1  0  0  0  0  0  0  0  0  0
   15.6238  -12.4917  -16.2647 C   0  0  0  0  0  0  0  0  0  0  0  0
   18.0103  -12.7519  -16.8145 C   0  0  2  0  0  0  0  0  0  0  0  0
   18.2014  -14.0107  -16.1674 N   0  0  0  0  0  0  0  0  0  0  0  0
   18.3900  -11.6117  -15.9406 C   0  0  0  0  0  0  0  0  0  0  0  0
   18.1621  -11.6873  -14.7069 O   0  0  0  0  0  0  0  0  0  0  0  0
   19.0022  -10.4262  -16.4174 N   0  0  0  0  0  0  0  0  0  0  0  0
   19.2111   -9.2610  -15.5795 C   0  0  1  0  0  0  0  0  0  0  0  0
   20.6572   -8.8261  -15.5809 C   0  0  0  0  0  0  0  0  0  0  0  0
   20.9343   -7.7142  -14.6723 C   0  0  0  0  0  0  0  0  0  0  0  0
   20.0894   -7.2115  -13.8913 O   0  0  0  0  0  0  0  0  0  0  0  0
   18.2958   -8.1922  -16.0176 C   0  0  0  0  0  0  0  0  0  0  0  0
   18.1480   -7.9179  -17.2245 O   0  0  0  0  0  0  0  0  0  0  0  0
   22.2060   -7.1626  -14.6543 O   0  0  0  0  0  0  0  0  0  0  0  0
   13.3445   -8.0698  -14.9023 C   0  0  0  0  0  0  0  0  0  0  0  0
   14.5658   -7.6679  -15.6756 C   0  0  0  0  0  0  0  0  0  0  0  0
   15.3153   -6.5681  -14.9235 C   0  0  2  0  0  0  0  0  0  0  0  0
   14.4984   -5.3199  -15.0069 C   0  0  0  0  0  0  0  0  0  0  0  0
   16.7050   -6.3894  -15.5006 C   0  0  2  0  0  0  0  0  0  0  0  0
   17.5624   -7.4521  -15.0665 N   0  0  0  0  0  0  0  0  0  0  0  0
   17.3166   -5.1121  -15.0280 C   0  0  0  0  0  0  0  0  0  0  0  0
   18.0922   -5.0192  -13.8888 O   0  0  0  0  0  0  0  0  0  0  0  0
   17.1163   -4.0706  -15.6989 O   0  0  0  0  0  0  0  0  0  0  0  0
  2  3  1  1
  2  1  1  0
  4  2  1  0
  4  5  1  1
  6  7  2  0
  6  4  1  0
  8  6  1  0
  9  8  1  0
  9 10  1  6
 10 11  1  0
 11 12  2  0
 11 15  1  0
 13  9  1  0
 14 13  2  0
 16 17  1  0
 18 17  1  0
 18 20  1  0
 18 19  1  6
 20 21  1  1
 21 13  1  0
 22 20  1  0
 22 23  1  0
 24 22  2  0
M  END
$$$$
