VDI.pdb
     RDKit          3D

 24 23  0  0  1  0  0  0  0  0999 V2000
   31.6552   -4.0191  -20.2635 C   0  0  0  0  0  0  0  0  0  0  0  0
   30.1422   -4.0558  -20.2658 C   0  0  1  0  0  0  0  0  0  0  0  0
   29.5701   -3.9362  -21.6455 C   0  0  0  0  0  0  0  0  0  0  0  0
   29.7261   -5.3705  -19.6495 C   0  0  2  0  0  0  0  0  0  0  0  0
   28.3163   -5.4756  -19.4463 N   0  0  0  0  0  0  0  0  0  0  0  0
   30.4918   -5.6580  -18.4089 C   0  0  0  0  0  0  0  0  0  0  0  0
   30.1258   -5.1272  -17.3301 O   0  0  0  0  0  0  0  0  0  0  0  0
   31.6261   -6.5060  -18.3644 N   0  0  0  0  0  0  0  0  0  0  0  0
   32.2787   -6.8766  -17.1234 C   0  0  1  0  0  0  0  0  0  0  0  0
   32.8767   -8.2611  -17.2006 C   0  0  0  0  0  0  0  0  0  0  0  0
   31.8775   -9.3279  -17.2470 C   0  0  0  0  0  0  0  0  0  0  0  0
   30.7261   -9.2406  -16.7540 O   0  0  0  0  0  0  0  0  0  0  0  0
   33.2757   -5.8451  -16.7859 C   0  0  0  0  0  0  0  0  0  0  0  0
   34.0705   -5.4059  -17.6398 O   0  0  0  0  0  0  0  0  0  0  0  0
   32.1997  -10.5232  -17.8710 O   0  0  0  0  0  0  0  0  0  0  0  0
   33.7564   -0.9551  -13.3176 C   0  0  0  0  0  0  0  0  0  0  0  0
   34.4959   -2.0549  -14.0210 C   0  0  0  0  0  0  0  0  0  0  0  0
   33.5146   -3.1459  -14.4497 C   0  0  2  0  0  0  0  0  0  0  0  0
   32.8155   -3.6381  -13.2244 C   0  0  0  0  0  0  0  0  0  0  0  0
   34.2457   -4.2526  -15.1823 C   0  0  2  0  0  0  0  0  0  0  0  0
   33.3483   -5.3308  -15.4743 N   0  0  0  0  0  0  0  0  0  0  0  0
   35.3439   -4.8124  -14.3402 C   0  0  0  0  0  0  0  0  0  0  0  0
   36.5904   -4.2267  -14.2331 O   0  0  0  0  0  0  0  0  0  0  0  0
   35.1243   -5.8676  -13.6972 O   0  0  0  0  0  0  0  0  0  0  0  0
  2  3  1  6
  2  1  1  0
  4  2  1  0
  4  5  1  1
  6  7  2  0
  6  4  1  0
  8  6  1  0
  9  8  1  0
  9 10  1  6
 10 11  1  0
 11 12  2  0
 11 15  1  0
 13  9  1  0
 14 13  2  0
 16 17  1  0
 18 17  1  0
 18 20  1  0
 18 19  1  1
 20 21  1  1
 21 13  1  0
 22 20  1  0
 22 23  1  0
 24 22  2  0
M  END
$$$$
