VDI.pdb
     RDKit          3D

 24 23  0  0  1  0  0  0  0  0999 V2000
   16.8600  -13.1599  -15.4277 C   0  0  0  0  0  0  0  0  0  0  0  0
   17.4791  -12.0165  -14.6531 C   0  0  1  0  0  0  0  0  0  0  0  0
   18.4729  -11.2465  -15.4682 C   0  0  0  0  0  0  0  0  0  0  0  0
   16.3528  -11.1067  -14.2227 C   0  0  2  0  0  0  0  0  0  0  0  0
   15.5387  -10.6659  -15.3102 N   0  0  0  0  0  0  0  0  0  0  0  0
   16.8512   -9.9721  -13.4028 C   0  0  0  0  0  0  0  0  0  0  0  0
   17.4650  -10.2162  -12.3336 O   0  0  0  0  0  0  0  0  0  0  0  0
   16.6754   -8.6111  -13.7555 N   0  0  0  0  0  0  0  0  0  0  0  0
   17.2990   -7.5254  -13.0236 C   0  0  1  0  0  0  0  0  0  0  0  0
   18.0754   -6.6098  -13.9397 C   0  0  0  0  0  0  0  0  0  0  0  0
   19.3410   -7.1795  -14.4005 C   0  0  0  0  0  0  0  0  0  0  0  0
   19.5503   -7.5838  -15.5706 O   0  0  0  0  0  0  0  0  0  0  0  0
   16.2616   -6.8143  -12.2554 C   0  0  0  0  0  0  0  0  0  0  0  0
   15.0985   -6.6974  -12.6884 O   0  0  0  0  0  0  0  0  0  0  0  0
   20.3931   -7.2908  -13.5047 O   0  0  0  0  0  0  0  0  0  0  0  0
   15.0389   -7.7701   -7.2626 C   0  0  0  0  0  0  0  0  0  0  0  0
   14.9923   -7.3417   -8.6998 C   0  0  0  0  0  0  0  0  0  0  0  0
   15.5457   -5.9231   -8.8347 C   0  0  2  0  0  0  0  0  0  0  0  0
   14.6981   -5.0211   -7.9979 C   0  0  0  0  0  0  0  0  0  0  0  0
   15.5720   -5.5052  -10.2911 C   0  0  2  0  0  0  0  0  0  0  0  0
   16.5711   -6.2468  -11.0015 N   0  0  0  0  0  0  0  0  0  0  0  0
   15.9223   -4.0600  -10.4230 C   0  0  0  0  0  0  0  0  0  0  0  0
   17.1819   -3.6146  -10.7739 O   0  0  0  0  0  0  0  0  0  0  0  0
   15.0282   -3.2069  -10.2044 O   0  0  0  0  0  0  0  0  0  0  0  0
  2  3  1  6
  2  1  1  0
  4  2  1  0
  4  5  1  6
  6  7  2  0
  6  4  1  0
  8  6  1  0
  9  8  1  0
  9 10  1  6
 10 11  1  0
 11 12  2  0
 11 15  1  0
 13  9  1  0
 14 13  2  0
 16 17  1  0
 18 17  1  0
 18 20  1  0
 18 19  1  1
 20 21  1  6
 21 13  1  0
 22 20  1  0
 22 23  1  0
 24 22  2  0
M  END
$$$$
