VDI.pdb
     RDKit          3D

 24 23  0  0  1  0  0  0  0  0999 V2000
   23.0668  -14.3224  -17.3315 C   0  0  0  0  0  0  0  0  0  0  0  0
   23.3490  -15.4657  -16.3808 C   0  0  1  0  0  0  0  0  0  0  0  0
   23.3477  -15.0299  -14.9472 C   0  0  0  0  0  0  0  0  0  0  0  0
   22.2767  -16.5061  -16.6022 C   0  0  2  0  0  0  0  0  0  0  0  0
   20.9538  -15.9971  -16.4268 N   0  0  0  0  0  0  0  0  0  0  0  0
   22.5197  -17.7226  -15.7842 C   0  0  0  0  0  0  0  0  0  0  0  0
   21.9077  -17.8565  -14.6946 O   0  0  0  0  0  0  0  0  0  0  0  0
   23.4115  -18.7573  -16.1606 N   0  0  0  0  0  0  0  0  0  0  0  0
   23.6099  -19.9501  -15.3598 C   0  0  1  0  0  0  0  0  0  0  0  0
   23.7577  -21.1812  -16.2217 C   0  0  0  0  0  0  0  0  0  0  0  0
   23.7688  -22.4300  -15.4606 C   0  0  0  0  0  0  0  0  0  0  0  0
   23.6484  -22.4989  -14.2127 O   0  0  0  0  0  0  0  0  0  0  0  0
   24.7656  -19.7370  -14.4704 C   0  0  0  0  0  0  0  0  0  0  0  0
   25.6812  -18.9473  -14.7733 O   0  0  0  0  0  0  0  0  0  0  0  0
   23.9209  -23.6290  -16.1397 O   0  0  0  0  0  0  0  0  0  0  0  0
   26.2724  -20.3430   -8.5618 C   0  0  0  0  0  0  0  0  0  0  0  0
   26.7246  -20.2003   -9.9853 C   0  0  0  0  0  0  0  0  0  0  0  0
   25.5514  -20.4636  -10.9294 C   0  0  2  0  0  0  0  0  0  0  0  0
   25.1187  -21.8804  -10.7356 C   0  0  0  0  0  0  0  0  0  0  0  0
   25.9529  -20.1722  -12.3612 C   0  0  2  0  0  0  0  0  0  0  0  0
   24.8563  -20.4317  -13.2460 N   0  0  0  0  0  0  0  0  0  0  0  0
   27.0786  -21.0551  -12.7877 C   0  0  0  0  0  0  0  0  0  0  0  0
   28.4076  -20.6943  -12.6795 O   0  0  0  0  0  0  0  0  0  0  0  0
   26.8044  -22.1814  -13.2687 O   0  0  0  0  0  0  0  0  0  0  0  0
  2  3  1  1
  2  1  1  0
  4  2  1  0
  4  5  1  1
  6  7  2  0
  6  4  1  0
  8  6  1  0
  9  8  1  0
  9 10  1  6
 10 11  1  0
 11 12  2  0
 11 15  1  0
 13  9  1  0
 14 13  2  0
 16 17  1  0
 18 17  1  0
 18 20  1  0
 18 19  1  6
 20 21  1  6
 21 13  1  0
 22 20  1  0
 22 23  1  0
 24 22  2  0
M  END
$$$$
