QLN.pdb
     RDKit          3D

 26 25  0  0  1  0  0  0  0  0999 V2000
   12.9896  -23.7121    0.2205 N   0  0  0  0  0  0  0  0  0  0  0  0
   12.1817  -24.8408   -0.0101 C   0  0  0  0  0  0  0  0  0  0  0  0
   11.1262  -24.7328   -0.6998 O   0  0  0  0  0  0  0  0  0  0  0  0
   12.5078  -26.1861    0.5251 C   0  0  0  0  0  0  0  0  0  0  0  0
   13.6859  -26.1539    1.4420 C   0  0  0  0  0  0  0  0  0  0  0  0
   14.9199  -26.5346    0.6744 C   0  0  2  0  0  0  0  0  0  0  0  0
   14.6488  -27.7814   -0.0299 N   0  0  0  0  0  0  0  0  0  0  0  0
   16.1186  -26.6766    1.5321 C   0  0  0  0  0  0  0  0  0  0  0  0
   16.1614  -27.5571    2.4140 O   0  0  0  0  0  0  0  0  0  0  0  0
   21.2371  -26.7294    2.5815 C   0  0  0  0  0  0  0  0  0  0  0  0
   20.7987  -25.2959    2.3593 C   0  0  1  0  0  0  0  0  0  0  0  0
   21.9363  -24.5011    1.7206 C   0  0  0  0  0  0  0  0  0  0  0  0
   19.5704  -25.2705    1.4934 C   0  0  0  0  0  0  0  0  0  0  0  0
   18.3765  -25.8565    2.1802 C   0  0  2  0  0  0  0  0  0  0  0  0
   17.2124  -25.8059    1.3425 N   0  0  0  0  0  0  0  0  0  0  0  0
   18.1113  -25.1636    3.4820 C   0  0  0  0  0  0  0  0  0  0  0  0
   17.8835  -23.9342    3.5071 O   0  0  0  0  0  0  0  0  0  0  0  0
   17.4005  -24.0263    8.4447 N   0  0  0  0  0  0  0  0  0  0  0  0
   17.0875  -25.4022    8.2660 C   0  0  0  0  0  0  0  0  0  0  0  0
   16.5802  -26.0195    9.2317 O   0  0  0  0  0  0  0  0  0  0  0  0
   17.3458  -26.0800    7.0023 C   0  0  0  0  0  0  0  0  0  0  0  0
   17.9675  -25.1814    5.9678 C   0  0  2  0  0  0  0  0  0  0  0  0
   18.1154  -25.8871    4.6920 N   0  0  0  0  0  0  0  0  0  0  0  0
   19.2706  -24.7000    6.4324 C   0  0  0  0  0  0  0  0  0  0  0  0
   20.4896  -24.9688    5.8551 O   0  0  0  0  0  0  0  0  0  0  0  0
   19.3002  -23.9581    7.4732 O   0  0  0  0  0  0  0  0  0  0  0  0
  1  2  1  0
  2  4  1  0
  3  2  2  0
  4  5  1  0
  5  6  1  0
  6  7  1  1
  8  6  1  0
  9  8  2  0
 11 10  1  6
 12 11  1  0
 13 11  1  0
 14 15  1  0
 14 13  1  6
 15  8  1  0
 16 14  1  0
 17 16  2  0
 19 18  1  0
 19 21  1  0
 20 19  2  0
 22 21  1  1
 22 23  1  0
 23 16  1  0
 24 25  1  0
 24 22  1  0
 26 24  2  0
M  END
$$$$
