QLN.pdb
     RDKit          3D

 26 25  0  0  1  0  0  0  0  0999 V2000
   27.8815  -25.5977  -16.4288 N   0  0  0  0  0  0  0  0  0  0  0  0
   28.3965  -24.3432  -16.8040 C   0  0  0  0  0  0  0  0  0  0  0  0
   29.4108  -24.2756  -17.5576 O   0  0  0  0  0  0  0  0  0  0  0  0
   27.7998  -23.0614  -16.3528 C   0  0  0  0  0  0  0  0  0  0  0  0
   26.6901  -23.2727  -15.3764 C   0  0  0  0  0  0  0  0  0  0  0  0
   25.7224  -22.1277  -15.4729 C   0  0  2  0  0  0  0  0  0  0  0  0
   26.4839  -20.8859  -15.4289 N   0  0  0  0  0  0  0  0  0  0  0  0
   24.6957  -22.1415  -14.4059 C   0  0  0  0  0  0  0  0  0  0  0  0
   23.8602  -23.0653  -14.3476 O   0  0  0  0  0  0  0  0  0  0  0  0
   26.1534  -19.9615   -9.6328 C   0  0  0  0  0  0  0  0  0  0  0  0
   25.6332  -20.8194  -10.7686 C   0  0  1  0  0  0  0  0  0  0  0  0
   25.5765  -22.2809  -10.3277 C   0  0  0  0  0  0  0  0  0  0  0  0
   24.2763  -20.3306  -11.1920 C   0  0  0  0  0  0  0  0  0  0  0  0
   23.7379  -21.0883  -12.3653 C   0  0  2  0  0  0  0  0  0  0  0  0
   24.6713  -21.0992  -13.4554 N   0  0  0  0  0  0  0  0  0  0  0  0
   22.4231  -20.5250  -12.8115 C   0  0  0  0  0  0  0  0  0  0  0  0
   21.4980  -20.3540  -11.9875 O   0  0  0  0  0  0  0  0  0  0  0  0
   19.5116  -17.0665  -16.5303 N   0  0  0  0  0  0  0  0  0  0  0  0
   19.7617  -18.4626  -16.4230 C   0  0  0  0  0  0  0  0  0  0  0  0
   18.8515  -19.2509  -16.7708 O   0  0  0  0  0  0  0  0  0  0  0  0
   21.0342  -18.9681  -15.9248 C   0  0  0  0  0  0  0  0  0  0  0  0
   20.9146  -19.6535  -14.5906 C   0  0  2  0  0  0  0  0  0  0  0  0
   22.2130  -20.1814  -14.1626 N   0  0  0  0  0  0  0  0  0  0  0  0
   19.9291  -20.7347  -14.6632 C   0  0  0  0  0  0  0  0  0  0  0  0
   20.1076  -21.9583  -15.2651 O   0  0  0  0  0  0  0  0  0  0  0  0
   18.7867  -20.5430  -14.1223 O   0  0  0  0  0  0  0  0  0  0  0  0
  1  2  1  0
  2  4  1  0
  3  2  2  0
  4  5  1  0
  5  6  1  0
  6  7  1  1
  8  6  1  0
  9  8  2  0
 11 10  1  1
 12 11  1  0
 13 11  1  0
 14 15  1  0
 14 13  1  1
 15  8  1  0
 16 14  1  0
 17 16  2  0
 19 18  1  0
 19 21  1  0
 20 19  2  0
 22 21  1  6
 22 23  1  0
 23 16  1  0
 24 25  1  0
 24 22  1  0
 26 24  2  0
M  END
$$$$
