QLN.pdb
     RDKit          3D

 26 25  0  0  1  0  0  0  0  0999 V2000
   28.0678  -26.8574  -15.9556 N   0  0  0  0  0  0  0  0  0  0  0  0
   28.7908  -26.3971  -17.0715 C   0  0  0  0  0  0  0  0  0  0  0  0
   29.2697  -27.2250  -17.9001 O   0  0  0  0  0  0  0  0  0  0  0  0
   29.0290  -24.9565  -17.3370 C   0  0  0  0  0  0  0  0  0  0  0  0
   28.4290  -24.0857  -16.2829 C   0  0  0  0  0  0  0  0  0  0  0  0
   27.2751  -23.3233  -16.8697 C   0  0  2  0  0  0  0  0  0  0  0  0
   27.7818  -22.5070  -17.9656 N   0  0  0  0  0  0  0  0  0  0  0  0
   26.5719  -22.4773  -15.8785 C   0  0  0  0  0  0  0  0  0  0  0  0
   26.1997  -22.9591  -14.7902 O   0  0  0  0  0  0  0  0  0  0  0  0
   28.2285  -19.0708  -15.6600 C   0  0  0  0  0  0  0  0  0  0  0  0
   27.0669  -18.3049  -15.0596 C   0  0  1  0  0  0  0  0  0  0  0  0
   27.2253  -16.8139  -15.3519 C   0  0  0  0  0  0  0  0  0  0  0  0
   25.7729  -18.8292  -15.6163 C   0  0  0  0  0  0  0  0  0  0  0  0
   25.5623  -20.2775  -15.3020 C   0  0  2  0  0  0  0  0  0  0  0  0
   26.3265  -21.1203  -16.1767 N   0  0  0  0  0  0  0  0  0  0  0  0
   24.1093  -20.6368  -15.3715 C   0  0  0  0  0  0  0  0  0  0  0  0
   23.6263  -21.1107  -16.4232 O   0  0  0  0  0  0  0  0  0  0  0  0
   19.4429  -22.2945  -14.1151 N   0  0  0  0  0  0  0  0  0  0  0  0
   20.5847  -22.9886  -13.6276 C   0  0  0  0  0  0  0  0  0  0  0  0
   20.4249  -24.1568  -13.2028 O   0  0  0  0  0  0  0  0  0  0  0  0
   21.9026  -22.3671  -13.6192 C   0  0  0  0  0  0  0  0  0  0  0  0
   21.9148  -21.0025  -14.2529 C   0  0  2  0  0  0  0  0  0  0  0  0
   23.2703  -20.4456  -14.2546 N   0  0  0  0  0  0  0  0  0  0  0  0
   21.0014  -20.1053  -13.5414 C   0  0  0  0  0  0  0  0  0  0  0  0
   19.6562  -19.9545  -13.7849 O   0  0  0  0  0  0  0  0  0  0  0  0
   21.4801  -19.3838  -12.6008 O   0  0  0  0  0  0  0  0  0  0  0  0
  1  2  1  0
  2  4  1  0
  3  2  2  0
  4  5  1  0
  5  6  1  0
  6  7  1  6
  8  6  1  0
  9  8  2  0
 11 10  1  6
 12 11  1  0
 13 11  1  0
 14 15  1  0
 14 13  1  6
 15  8  1  0
 16 14  1  0
 17 16  2  0
 19 18  1  0
 19 21  1  0
 20 19  2  0
 22 21  1  1
 22 23  1  0
 23 16  1  0
 24 25  1  0
 24 22  1  0
 26 24  2  0
M  END
$$$$
