QLN.pdb
     RDKit          3D

 26 25  0  0  1  0  0  0  0  0999 V2000
   27.5481  -23.0489  -18.1055 N   0  0  0  0  0  0  0  0  0  0  0  0
   28.4430  -21.9788  -17.9219 C   0  0  0  0  0  0  0  0  0  0  0  0
   29.1816  -21.6010  -18.8773 O   0  0  0  0  0  0  0  0  0  0  0  0
   28.5717  -21.2498  -16.6355 C   0  0  0  0  0  0  0  0  0  0  0  0
   27.6361  -21.7755  -15.5974 C   0  0  0  0  0  0  0  0  0  0  0  0
   26.4294  -20.8838  -15.5227 C   0  0  2  0  0  0  0  0  0  0  0  0
   26.8759  -19.5473  -15.1508 N   0  0  0  0  0  0  0  0  0  0  0  0
   25.4047  -21.3692  -14.5703 C   0  0  0  0  0  0  0  0  0  0  0  0
   24.9201  -22.5114  -14.6944 O   0  0  0  0  0  0  0  0  0  0  0  0
   25.8338  -20.3417   -9.3380 C   0  0  0  0  0  0  0  0  0  0  0  0
   25.5763  -20.9073  -10.7201 C   0  0  1  0  0  0  0  0  0  0  0  0
   25.6431  -22.4328  -10.6744 C   0  0  0  0  0  0  0  0  0  0  0  0
   24.2365  -20.4407  -11.2167 C   0  0  0  0  0  0  0  0  0  0  0  0
   23.9462  -20.9164  -12.6060 C   0  0  2  0  0  0  0  0  0  0  0  0
   24.9814  -20.5270  -13.5205 N   0  0  0  0  0  0  0  0  0  0  0  0
   22.6168  -20.4129  -13.0796 C   0  0  0  0  0  0  0  0  0  0  0  0
   22.5255  -19.2924  -13.6274 O   0  0  0  0  0  0  0  0  0  0  0  0
   18.2957  -21.8082  -15.9000 N   0  0  0  0  0  0  0  0  0  0  0  0
   19.5680  -21.2260  -16.1564 C   0  0  0  0  0  0  0  0  0  0  0  0
   19.7118  -20.5716  -17.2156 O   0  0  0  0  0  0  0  0  0  0  0  0
   20.6745  -21.3814  -15.2211 C   0  0  0  0  0  0  0  0  0  0  0  0
   20.3112  -21.0048  -13.8104 C   0  0  2  0  0  0  0  0  0  0  0  0
   21.4550  -21.1942  -12.9141 N   0  0  0  0  0  0  0  0  0  0  0  0
   19.1720  -21.8025  -13.3505 C   0  0  0  0  0  0  0  0  0  0  0  0
   17.8645  -21.3832  -13.2728 O   0  0  0  0  0  0  0  0  0  0  0  0
   19.3924  -23.0063  -12.9805 O   0  0  0  0  0  0  0  0  0  0  0  0
  1  2  1  0
  2  4  1  0
  3  2  2  0
  4  5  1  0
  5  6  1  0
  6  7  1  1
  8  6  1  0
  9  8  2  0
 11 10  1  1
 12 11  1  0
 13 11  1  0
 14 15  1  0
 14 13  1  1
 15  8  1  0
 16 14  1  0
 17 16  2  0
 19 18  1  0
 19 21  1  0
 20 19  2  0
 22 21  1  6
 22 23  1  0
 23 16  1  0
 24 25  1  0
 24 22  1  0
 26 24  2  0
M  END
$$$$
