QLN.pdb
     RDKit          3D

 26 25  0  0  1  0  0  0  0  0999 V2000
   14.7387  -13.5019  -15.7275 N   0  0  0  0  0  0  0  0  0  0  0  0
   14.2503  -12.6902  -16.7678 C   0  0  0  0  0  0  0  0  0  0  0  0
   13.3680  -13.1367  -17.5574 O   0  0  0  0  0  0  0  0  0  0  0  0
   14.7254  -11.3028  -16.9960 C   0  0  0  0  0  0  0  0  0  0  0  0
   15.6856  -10.8588  -15.9423 C   0  0  0  0  0  0  0  0  0  0  0  0
   16.6992   -9.9347  -16.5551 C   0  0  2  0  0  0  0  0  0  0  0  0
   17.4322  -10.6769  -17.5729 N   0  0  0  0  0  0  0  0  0  0  0  0
   17.6350   -9.3568  -15.5636 C   0  0  0  0  0  0  0  0  0  0  0  0
   17.2038   -8.6709  -14.6157 O   0  0  0  0  0  0  0  0  0  0  0  0
   21.4518   -9.5185  -12.1590 C   0  0  0  0  0  0  0  0  0  0  0  0
   22.0932   -9.5636  -13.5313 C   0  0  1  0  0  0  0  0  0  0  0  0
   23.3266  -10.4643  -13.4955 C   0  0  0  0  0  0  0  0  0  0  0  0
   21.0946  -10.0563  -14.5409 C   0  0  0  0  0  0  0  0  0  0  0  0
   19.9712   -9.0896  -14.7503 C   0  0  2  0  0  0  0  0  0  0  0  0
   19.0197   -9.5894  -15.7013 N   0  0  0  0  0  0  0  0  0  0  0  0
   20.4873   -7.7516  -15.1846 C   0  0  0  0  0  0  0  0  0  0  0  0
   20.9820   -7.6060  -16.3239 O   0  0  0  0  0  0  0  0  0  0  0  0
   21.7917   -2.7498  -15.3310 N   0  0  0  0  0  0  0  0  0  0  0  0
   20.4272   -2.9524  -14.9843 C   0  0  0  0  0  0  0  0  0  0  0  0
   19.6731   -1.9517  -14.9574 O   0  0  0  0  0  0  0  0  0  0  0  0
   19.9148   -4.2795  -14.6689 C   0  0  0  0  0  0  0  0  0  0  0  0
   20.9697   -5.3502  -14.7366 C   0  0  2  0  0  0  0  0  0  0  0  0
   20.4219   -6.6428  -14.3163 N   0  0  0  0  0  0  0  0  0  0  0  0
   22.1130   -4.9888  -13.8951 C   0  0  0  0  0  0  0  0  0  0  0  0
   22.1775   -5.0882  -12.5250 O   0  0  0  0  0  0  0  0  0  0  0  0
   23.1611   -4.5345  -14.4693 O   0  0  0  0  0  0  0  0  0  0  0  0
  1  2  1  0
  2  4  1  0
  3  2  2  0
  4  5  1  0
  5  6  1  0
  6  7  1  6
  8  6  1  0
  9  8  2  0
 11 10  1  1
 12 11  1  0
 13 11  1  0
 14 15  1  0
 14 13  1  6
 15  8  1  0
 16 14  1  0
 17 16  2  0
 19 18  1  0
 19 21  1  0
 20 19  2  0
 22 21  1  1
 22 23  1  0
 23 16  1  0
 24 25  1  0
 24 22  1  0
 26 24  2  0
M  END
$$$$
