QLN.pdb
     RDKit          3D

 26 25  0  0  1  0  0  0  0  0999 V2000
   18.0943  -23.0403  -15.1360 N   0  0  0  0  0  0  0  0  0  0  0  0
   18.5879  -22.9138  -13.8245 C   0  0  0  0  0  0  0  0  0  0  0  0
   17.7864  -22.9037  -12.8453 O   0  0  0  0  0  0  0  0  0  0  0  0
   20.0347  -22.7883  -13.5184 C   0  0  0  0  0  0  0  0  0  0  0  0
   20.4382  -21.3689  -13.2904 C   0  0  0  0  0  0  0  0  0  0  0  0
   21.5085  -20.9950  -14.2761 C   0  0  2  0  0  0  0  0  0  0  0  0
   22.0645  -22.2235  -14.8289 N   0  0  0  0  0  0  0  0  0  0  0  0
   22.5813  -20.1640  -13.6835 C   0  0  0  0  0  0  0  0  0  0  0  0
   22.3117  -19.0612  -13.1677 O   0  0  0  0  0  0  0  0  0  0  0  0
   26.1283  -22.2942  -10.5241 C   0  0  0  0  0  0  0  0  0  0  0  0
   25.1715  -21.3900  -11.2748 C   0  0  1  0  0  0  0  0  0  0  0  0
   24.5001  -20.4251  -10.2991 C   0  0  0  0  0  0  0  0  0  0  0  0
   25.9159  -20.6430  -12.3458 C   0  0  0  0  0  0  0  0  0  0  0  0
   25.0039  -19.8387  -13.2188 C   0  0  2  0  0  0  0  0  0  0  0  0
   23.9122  -20.6315  -13.7077 N   0  0  0  0  0  0  0  0  0  0  0  0
   25.7553  -19.2266  -14.3615 C   0  0  0  0  0  0  0  0  0  0  0  0
   27.0053  -19.1904  -14.3471 O   0  0  0  0  0  0  0  0  0  0  0  0
   27.0504  -18.1290  -19.1792 N   0  0  0  0  0  0  0  0  0  0  0  0
   27.0847  -19.4003  -18.5422 C   0  0  0  0  0  0  0  0  0  0  0  0
   27.6953  -20.3303  -19.1192 O   0  0  0  0  0  0  0  0  0  0  0  0
   26.4323  -19.6220  -17.2583 C   0  0  0  0  0  0  0  0  0  0  0  0
   25.7856  -18.3818  -16.7037 C   0  0  2  0  0  0  0  0  0  0  0  0
   25.0643  -18.6850  -15.4646 N   0  0  0  0  0  0  0  0  0  0  0  0
   24.8717  -17.8024  -17.6909 C   0  0  0  0  0  0  0  0  0  0  0  0
   25.2274  -17.0397  -18.7787 O   0  0  0  0  0  0  0  0  0  0  0  0
   23.6191  -18.0129  -17.5456 O   0  0  0  0  0  0  0  0  0  0  0  0
  1  2  1  0
  2  4  1  0
  3  2  2  0
  4  5  1  0
  5  6  1  0
  6  7  1  1
  8  6  1  0
  9  8  2  0
 11 10  1  1
 12 11  1  0
 13 11  1  0
 14 15  1  0
 14 13  1  6
 15  8  1  0
 16 14  1  0
 17 16  2  0
 19 18  1  0
 19 21  1  0
 20 19  2  0
 22 21  1  6
 22 23  1  0
 23 16  1  0
 24 25  1  0
 24 22  1  0
 26 24  2  0
M  END
$$$$
