QLN.pdb
     RDKit          3D

 26 25  0  0  1  0  0  0  0  0999 V2000
   21.8652  -17.1672  -16.5707 N   0  0  0  0  0  0  0  0  0  0  0  0
   22.0479  -16.7302  -17.8957 C   0  0  0  0  0  0  0  0  0  0  0  0
   21.8673  -17.5329  -18.8570 O   0  0  0  0  0  0  0  0  0  0  0  0
   22.4512  -15.3432  -18.2366 C   0  0  0  0  0  0  0  0  0  0  0  0
   22.5506  -14.4748  -17.0260 C   0  0  0  0  0  0  0  0  0  0  0  0
   22.8765  -13.0710  -17.4503 C   0  0  2  0  0  0  0  0  0  0  0  0
   23.8158  -13.1403  -18.5625 N   0  0  0  0  0  0  0  0  0  0  0  0
   23.4343  -12.2461  -16.3543 C   0  0  0  0  0  0  0  0  0  0  0  0
   22.7661  -12.0334  -15.3232 O   0  0  0  0  0  0  0  0  0  0  0  0
   26.9675   -9.3823  -17.4017 C   0  0  0  0  0  0  0  0  0  0  0  0
   27.3452  -10.7659  -16.9122 C   0  0  1  0  0  0  0  0  0  0  0  0
   28.8628  -10.9345  -16.9610 C   0  0  0  0  0  0  0  0  0  0  0  0
   26.8246  -10.9690  -15.5169 C   0  0  0  0  0  0  0  0  0  0  0  0
   25.3302  -10.9112  -15.4520 C   0  0  2  0  0  0  0  0  0  0  0  0
   24.7294  -11.7026  -16.4875 N   0  0  0  0  0  0  0  0  0  0  0  0
   24.8432   -9.4963  -15.5294 C   0  0  0  0  0  0  0  0  0  0  0  0
   25.3222   -8.6222  -14.7742 O   0  0  0  0  0  0  0  0  0  0  0  0
   22.1749   -5.2275  -16.6691 N   0  0  0  0  0  0  0  0  0  0  0  0
   22.2646   -6.0262  -17.8426 C   0  0  0  0  0  0  0  0  0  0  0  0
   21.8173   -5.5506  -18.9125 O   0  0  0  0  0  0  0  0  0  0  0  0
   22.8569   -7.3571  -17.8097 C   0  0  0  0  0  0  0  0  0  0  0  0
   23.2787   -7.7806  -16.4289 C   0  0  2  0  0  0  0  0  0  0  0  0
   23.8411   -9.1336  -16.4525 N   0  0  0  0  0  0  0  0  0  0  0  0
   22.1384   -7.7239  -15.5112 C   0  0  0  0  0  0  0  0  0  0  0  0
   21.0629   -8.5810  -15.4971 O   0  0  0  0  0  0  0  0  0  0  0  0
   22.1209   -6.7959  -14.6320 O   0  0  0  0  0  0  0  0  0  0  0  0
  1  2  1  0
  2  4  1  0
  3  2  2  0
  4  5  1  0
  5  6  1  0
  6  7  1  6
  8  6  1  0
  9  8  2  0
 11 10  1  1
 12 11  1  0
 13 11  1  0
 14 15  1  0
 14 13  1  6
 15  8  1  0
 16 14  1  0
 17 16  2  0
 19 18  1  0
 19 21  1  0
 20 19  2  0
 22 21  1  6
 22 23  1  0
 23 16  1  0
 24 25  1  0
 24 22  1  0
 26 24  2  0
M  END
$$$$
