QLN.pdb
     RDKit          3D

 26 25  0  0  1  0  0  0  0  0999 V2000
   25.2625  -21.4557  -10.3608 N   0  0  0  0  0  0  0  0  0  0  0  0
   23.9723  -20.9839  -10.0566 C   0  0  0  0  0  0  0  0  0  0  0  0
   23.6942  -20.6185   -8.8775 O   0  0  0  0  0  0  0  0  0  0  0  0
   22.8913  -20.8888  -11.0691 C   0  0  0  0  0  0  0  0  0  0  0  0
   23.1786  -19.8471  -12.0995 C   0  0  0  0  0  0  0  0  0  0  0  0
   23.2961  -20.5029  -13.4459 C   0  0  2  0  0  0  0  0  0  0  0  0
   23.7778  -21.8639  -13.2465 N   0  0  0  0  0  0  0  0  0  0  0  0
   24.1876  -19.7709  -14.3744 C   0  0  0  0  0  0  0  0  0  0  0  0
   24.0084  -18.5565  -14.5937 O   0  0  0  0  0  0  0  0  0  0  0  0
   29.2624  -21.6125  -14.5354 C   0  0  0  0  0  0  0  0  0  0  0  0
   28.0133  -20.7571  -14.4676 C   0  0  1  0  0  0  0  0  0  0  0  0
   28.3182  -19.4558  -13.7277 C   0  0  0  0  0  0  0  0  0  0  0  0
   27.5115  -20.4825  -15.8575 C   0  0  0  0  0  0  0  0  0  0  0  0
   26.1848  -19.7892  -15.8581 C   0  0  2  0  0  0  0  0  0  0  0  0
   25.2423  -20.4603  -15.0092 N   0  0  0  0  0  0  0  0  0  0  0  0
   25.6406  -19.6715  -17.2491 C   0  0  0  0  0  0  0  0  0  0  0  0
   25.3795  -20.6985  -17.9133 O   0  0  0  0  0  0  0  0  0  0  0  0
   21.7894  -17.3380  -17.4242 N   0  0  0  0  0  0  0  0  0  0  0  0
   22.4916  -18.0445  -18.4396 C   0  0  0  0  0  0  0  0  0  0  0  0
   22.1212  -19.2117  -18.7065 O   0  0  0  0  0  0  0  0  0  0  0  0
   23.6080  -17.4365  -19.1518 C   0  0  0  0  0  0  0  0  0  0  0  0
   24.8384  -18.3024  -19.1681 C   0  0  2  0  0  0  0  0  0  0  0  0
   25.4165  -18.4044  -17.8254 N   0  0  0  0  0  0  0  0  0  0  0  0
   25.8269  -17.7602  -20.1034 C   0  0  0  0  0  0  0  0  0  0  0  0
   25.9048  -18.0288  -21.4500 O   0  0  0  0  0  0  0  0  0  0  0  0
   26.7115  -16.9594  -19.6444 O   0  0  0  0  0  0  0  0  0  0  0  0
  1  2  1  0
  2  4  1  0
  3  2  2  0
  4  5  1  0
  5  6  1  0
  6  7  1  1
  8  6  1  0
  9  8  2  0
 11 10  1  6
 12 11  1  0
 13 11  1  0
 14 15  1  0
 14 13  1  6
 15  8  1  0
 16 14  1  0
 17 16  2  0
 19 18  1  0
 19 21  1  0
 20 19  2  0
 22 21  1  1
 22 23  1  0
 23 16  1  0
 24 25  1  0
 24 22  1  0
 26 24  2  0
M  END
$$$$
