QLN.pdb
     RDKit          3D

 26 25  0  0  1  0  0  0  0  0999 V2000
   27.7269  -27.5596  -18.6878 N   0  0  0  0  0  0  0  0  0  0  0  0
   28.1951  -27.4564  -17.3650 C   0  0  0  0  0  0  0  0  0  0  0  0
   28.0035  -28.4056  -16.5504 O   0  0  0  0  0  0  0  0  0  0  0  0
   28.9203  -26.2643  -16.8594 C   0  0  0  0  0  0  0  0  0  0  0  0
   29.1169  -25.2350  -17.9230 C   0  0  0  0  0  0  0  0  0  0  0  0
   29.8804  -24.0741  -17.3521 C   0  0  2  0  0  0  0  0  0  0  0  0
   30.5140  -24.5127  -16.1151 N   0  0  0  0  0  0  0  0  0  0  0  0
   29.0332  -22.8851  -17.1045 C   0  0  0  0  0  0  0  0  0  0  0  0
   28.6061  -22.6436  -15.9581 O   0  0  0  0  0  0  0  0  0  0  0  0
   30.0667  -17.8595  -18.8494 C   0  0  0  0  0  0  0  0  0  0  0  0
   29.5377  -19.0109  -18.0182 C   0  0  1  0  0  0  0  0  0  0  0  0
   29.0687  -18.4939  -16.6593 C   0  0  0  0  0  0  0  0  0  0  0  0
   28.4170  -19.6923  -18.7522 C   0  0  0  0  0  0  0  0  0  0  0  0
   27.8798  -20.8723  -18.0039 C   0  0  2  0  0  0  0  0  0  0  0  0
   28.7134  -22.0274  -18.1781 N   0  0  0  0  0  0  0  0  0  0  0  0
   26.4733  -21.1779  -18.4203 C   0  0  0  0  0  0  0  0  0  0  0  0
   26.1464  -21.1224  -19.6262 O   0  0  0  0  0  0  0  0  0  0  0  0
   20.9879  -22.7455  -16.2941 N   0  0  0  0  0  0  0  0  0  0  0  0
   22.0340  -22.9417  -17.2376 C   0  0  0  0  0  0  0  0  0  0  0  0
   21.7242  -23.3464  -18.3826 O   0  0  0  0  0  0  0  0  0  0  0  0
   23.4253  -22.6824  -16.8909 C   0  0  0  0  0  0  0  0  0  0  0  0
   24.1195  -21.7798  -17.8744 C   0  0  2  0  0  0  0  0  0  0  0  0
   25.5030  -21.5309  -17.4603 N   0  0  0  0  0  0  0  0  0  0  0  0
   23.3943  -20.5132  -17.9989 C   0  0  0  0  0  0  0  0  0  0  0  0
   22.4290  -20.2175  -18.9329 O   0  0  0  0  0  0  0  0  0  0  0  0
   23.6705  -19.5795  -17.1704 O   0  0  0  0  0  0  0  0  0  0  0  0
  1  2  1  0
  2  4  1  0
  3  2  2  0
  4  5  1  0
  5  6  1  0
  6  7  1  1
  8  6  1  0
  9  8  2  0
 11 10  1  6
 12 11  1  0
 13 11  1  0
 14 15  1  0
 14 13  1  6
 15  8  1  0
 16 14  1  0
 17 16  2  0
 19 18  1  0
 19 21  1  0
 20 19  2  0
 22 21  1  1
 22 23  1  0
 23 16  1  0
 24 25  1  0
 24 22  1  0
 26 24  2  0
M  END
$$$$
