QLN.pdb
     RDKit          3D

 26 25  0  0  1  0  0  0  0  0999 V2000
   23.2366  -19.5151  -19.1608 N   0  0  0  0  0  0  0  0  0  0  0  0
   24.4397  -18.7991  -19.3013 C   0  0  0  0  0  0  0  0  0  0  0  0
   24.8439  -18.4612  -20.4518 O   0  0  0  0  0  0  0  0  0  0  0  0
   25.2826  -18.4082  -18.1440 C   0  0  0  0  0  0  0  0  0  0  0  0
   24.6200  -18.7104  -16.8406 C   0  0  0  0  0  0  0  0  0  0  0  0
   25.5050  -19.6187  -16.0352 C   0  0  2  0  0  0  0  0  0  0  0  0
   26.3516  -20.3626  -16.9593 N   0  0  0  0  0  0  0  0  0  0  0  0
   24.7483  -20.5486  -15.1661 C   0  0  0  0  0  0  0  0  0  0  0  0
   24.4753  -21.6992  -15.5616 O   0  0  0  0  0  0  0  0  0  0  0  0
   25.7724  -20.3921   -9.8614 C   0  0  0  0  0  0  0  0  0  0  0  0
   25.4780  -20.7926  -11.2930 C   0  0  1  0  0  0  0  0  0  0  0  0
   25.9805  -22.2130  -11.5455 C   0  0  0  0  0  0  0  0  0  0  0  0
   24.0016  -20.6883  -11.5546 C   0  0  0  0  0  0  0  0  0  0  0  0
   23.6517  -20.9940  -12.9775 C   0  0  2  0  0  0  0  0  0  0  0  0
   24.3387  -20.1206  -13.8856 N   0  0  0  0  0  0  0  0  0  0  0  0
   22.1717  -20.9127  -13.1965 C   0  0  0  0  0  0  0  0  0  0  0  0
   21.3918  -21.5929  -12.4943 O   0  0  0  0  0  0  0  0  0  0  0  0
   17.5424  -20.0194  -15.3236 N   0  0  0  0  0  0  0  0  0  0  0  0
   18.4426  -19.0698  -15.8811 C   0  0  0  0  0  0  0  0  0  0  0  0
   17.9851  -18.2349  -16.6963 O   0  0  0  0  0  0  0  0  0  0  0  0
   19.8543  -19.0616  -15.5205 C   0  0  0  0  0  0  0  0  0  0  0  0
   20.2082  -20.1098  -14.5006 C   0  0  2  0  0  0  0  0  0  0  0  0
   21.6408  -20.0702  -14.1946 N   0  0  0  0  0  0  0  0  0  0  0  0
   19.8329  -21.4388  -14.9889 C   0  0  0  0  0  0  0  0  0  0  0  0
   18.6592  -22.1027  -14.7184 O   0  0  0  0  0  0  0  0  0  0  0  0
   20.6617  -22.0588  -15.7393 O   0  0  0  0  0  0  0  0  0  0  0  0
  1  2  1  0
  2  4  1  0
  3  2  2  0
  4  5  1  0
  5  6  1  0
  6  7  1  6
  8  6  1  0
  9  8  2  0
 11 10  1  1
 12 11  1  0
 13 11  1  0
 14 15  1  0
 14 13  1  1
 15  8  1  0
 16 14  1  0
 17 16  2  0
 19 18  1  0
 19 21  1  0
 20 19  2  0
 22 21  1  6
 22 23  1  0
 23 16  1  0
 24 25  1  0
 24 22  1  0
 26 24  2  0
M  END
$$$$
