QLN.pdb
     RDKit          3D

 26 25  0  0  1  0  0  0  0  0999 V2000
   18.3717  -13.3243  -19.7122 N   0  0  0  0  0  0  0  0  0  0  0  0
   18.4140  -14.4131  -18.8220 C   0  0  0  0  0  0  0  0  0  0  0  0
   18.1884  -15.5844  -19.2442 O   0  0  0  0  0  0  0  0  0  0  0  0
   18.7167  -14.2592  -17.3772 C   0  0  0  0  0  0  0  0  0  0  0  0
   18.8704  -12.8264  -16.9863 C   0  0  0  0  0  0  0  0  0  0  0  0
   20.2868  -12.3944  -17.2390 C   0  0  2  0  0  0  0  0  0  0  0  0
   21.1634  -13.5210  -16.9450 N   0  0  0  0  0  0  0  0  0  0  0  0
   20.6849  -11.2098  -16.4447 C   0  0  0  0  0  0  0  0  0  0  0  0
   19.9260  -10.7574  -15.5648 O   0  0  0  0  0  0  0  0  0  0  0  0
   26.0204  -10.1503  -15.2159 C   0  0  0  0  0  0  0  0  0  0  0  0
   24.5174  -10.3332  -15.1516 C   0  0  1  0  0  0  0  0  0  0  0  0
   24.0496  -10.2562  -13.6994 C   0  0  0  0  0  0  0  0  0  0  0  0
   23.8434   -9.2848  -15.9917 C   0  0  0  0  0  0  0  0  0  0  0  0
   22.3528   -9.4213  -15.9862 C   0  0  2  0  0  0  0  0  0  0  0  0
   21.9314  -10.5972  -16.6927 N   0  0  0  0  0  0  0  0  0  0  0  0
   21.6994   -8.2038  -16.5656 C   0  0  0  0  0  0  0  0  0  0  0  0
   21.7420   -7.9908  -17.7971 O   0  0  0  0  0  0  0  0  0  0  0  0
   19.0860   -3.7627  -17.1015 N   0  0  0  0  0  0  0  0  0  0  0  0
   18.3720   -4.7015  -16.3065 C   0  0  0  0  0  0  0  0  0  0  0  0
   17.1743   -4.4510  -16.0354 O   0  0  0  0  0  0  0  0  0  0  0  0
   19.0068   -5.9189  -15.8186 C   0  0  0  0  0  0  0  0  0  0  0  0
   20.4206   -6.0829  -16.3068 C   0  0  2  0  0  0  0  0  0  0  0  0
   21.0299   -7.2851  -15.7315 N   0  0  0  0  0  0  0  0  0  0  0  0
   21.2151   -4.9009  -15.9641 C   0  0  0  0  0  0  0  0  0  0  0  0
   22.3452   -4.8803  -15.1806 O   0  0  0  0  0  0  0  0  0  0  0  0
   20.8389   -3.7700  -16.4265 O   0  0  0  0  0  0  0  0  0  0  0  0
  1  2  1  0
  2  4  1  0
  3  2  2  0
  4  5  1  0
  5  6  1  0
  6  7  1  1
  8  6  1  0
  9  8  2  0
 11 10  1  1
 12 11  1  0
 13 11  1  0
 14 15  1  0
 14 13  1  6
 15  8  1  0
 16 14  1  0
 17 16  2  0
 19 18  1  0
 19 21  1  0
 20 19  2  0
 22 21  1  1
 22 23  1  0
 23 16  1  0
 24 25  1  0
 24 22  1  0
 26 24  2  0
M  END
$$$$
