QLN.pdb
     RDKit          3D

 26 25  0  0  1  0  0  0  0  0999 V2000
   27.3804  -23.3516  -17.7206 N   0  0  0  0  0  0  0  0  0  0  0  0
   27.9944  -22.0980  -17.8969 C   0  0  0  0  0  0  0  0  0  0  0  0
   28.2162  -21.6607  -19.0634 O   0  0  0  0  0  0  0  0  0  0  0  0
   28.4071  -21.2377  -16.7600 C   0  0  0  0  0  0  0  0  0  0  0  0
   28.0573  -21.8452  -15.4417 C   0  0  0  0  0  0  0  0  0  0  0  0
   26.7912  -21.2195  -14.9297 C   0  0  2  0  0  0  0  0  0  0  0  0
   26.9405  -19.7715  -15.0005 N   0  0  0  0  0  0  0  0  0  0  0  0
   26.4521  -21.6365  -13.5498 C   0  0  0  0  0  0  0  0  0  0  0  0
   26.1794  -22.8275  -13.3008 O   0  0  0  0  0  0  0  0  0  0  0  0
   26.7321  -21.1964   -7.9818 C   0  0  0  0  0  0  0  0  0  0  0  0
   25.8659  -20.2806   -8.8230 C   0  0  1  0  0  0  0  0  0  0  0  0
   25.6742  -18.9467   -8.1035 C   0  0  0  0  0  0  0  0  0  0  0  0
   26.5007  -20.0802  -10.1707 C   0  0  0  0  0  0  0  0  0  0  0  0
   25.8951  -20.9568  -11.2221 C   0  0  2  0  0  0  0  0  0  0  0  0
   26.4405  -20.6734  -12.5189 N   0  0  0  0  0  0  0  0  0  0  0  0
   24.4033  -20.8187  -11.2433 C   0  0  0  0  0  0  0  0  0  0  0  0
   23.7360  -21.0246  -10.2058 O   0  0  0  0  0  0  0  0  0  0  0  0
   19.6701  -19.3242  -14.5587 N   0  0  0  0  0  0  0  0  0  0  0  0
   20.3096  -19.1936  -13.2949 C   0  0  0  0  0  0  0  0  0  0  0  0
   19.5853  -19.0519  -12.2819 O   0  0  0  0  0  0  0  0  0  0  0  0
   21.7614  -19.2229  -13.1739 C   0  0  0  0  0  0  0  0  0  0  0  0
   22.2699  -20.4543  -12.4747 C   0  0  2  0  0  0  0  0  0  0  0  0
   23.7347  -20.4557  -12.4303 N   0  0  0  0  0  0  0  0  0  0  0  0
   21.7843  -21.6586  -13.1525 C   0  0  0  0  0  0  0  0  0  0  0  0
   22.4222  -22.3338  -14.1668 O   0  0  0  0  0  0  0  0  0  0  0  0
   20.6615  -22.1447  -12.7817 O   0  0  0  0  0  0  0  0  0  0  0  0
  1  2  1  0
  2  4  1  0
  3  2  2  0
  4  5  1  0
  5  6  1  0
  6  7  1  1
  8  6  1  0
  9  8  2  0
 11 10  1  1
 12 11  1  0
 13 11  1  0
 14 15  1  0
 14 13  1  1
 15  8  1  0
 16 14  1  0
 17 16  2  0
 19 18  1  0
 19 21  1  0
 20 19  2  0
 22 21  1  6
 22 23  1  0
 23 16  1  0
 24 25  1  0
 24 22  1  0
 26 24  2  0
M  END
$$$$
