QLN.pdb
     RDKit          3D

 26 25  0  0  1  0  0  0  0  0999 V2000
   21.4761  -13.1420  -22.6781 N   0  0  0  0  0  0  0  0  0  0  0  0
   20.5097  -12.1369  -22.4893 C   0  0  0  0  0  0  0  0  0  0  0  0
   20.5962  -11.0482  -23.1285 O   0  0  0  0  0  0  0  0  0  0  0  0
   19.3645  -12.2873  -21.5573 C   0  0  0  0  0  0  0  0  0  0  0  0
   19.5611  -11.5098  -20.2979 C   0  0  0  0  0  0  0  0  0  0  0  0
   20.1829  -12.3999  -19.2596 C   0  0  2  0  0  0  0  0  0  0  0  0
   19.2020  -13.4094  -18.8820 N   0  0  0  0  0  0  0  0  0  0  0  0
   20.6501  -11.6617  -18.0640 C   0  0  0  0  0  0  0  0  0  0  0  0
   19.8559  -11.3878  -17.1425 O   0  0  0  0  0  0  0  0  0  0  0  0
   23.8268  -10.3402  -14.2297 C   0  0  0  0  0  0  0  0  0  0  0  0
   24.5424   -9.9847  -15.5173 C   0  0  1  0  0  0  0  0  0  0  0  0
   26.0409  -10.2385  -15.3624 C   0  0  0  0  0  0  0  0  0  0  0  0
   23.9734  -10.7900  -16.6518 C   0  0  0  0  0  0  0  0  0  0  0  0
   22.5107  -10.5413  -16.8500 C   0  0  2  0  0  0  0  0  0  0  0  0
   22.0029  -11.2707  -17.9768 N   0  0  0  0  0  0  0  0  0  0  0  0
   22.2309   -9.0779  -17.0084 C   0  0  0  0  0  0  0  0  0  0  0  0
   22.6495   -8.4607  -18.0123 O   0  0  0  0  0  0  0  0  0  0  0  0
   18.0419   -4.9116  -16.7737 N   0  0  0  0  0  0  0  0  0  0  0  0
   19.3944   -5.3323  -16.6436 C   0  0  0  0  0  0  0  0  0  0  0  0
   20.2910   -4.4602  -16.7230 O   0  0  0  0  0  0  0  0  0  0  0  0
   19.7346   -6.7321  -16.4248 C   0  0  0  0  0  0  0  0  0  0  0  0
   21.2069   -6.9539  -16.2079 C   0  0  2  0  0  0  0  0  0  0  0  0
   21.4940   -8.3799  -16.0298 N   0  0  0  0  0  0  0  0  0  0  0  0
   21.6668   -6.1969  -15.0414 C   0  0  0  0  0  0  0  0  0  0  0  0
   22.3440   -5.0000  -15.0643 O   0  0  0  0  0  0  0  0  0  0  0  0
   21.4268   -6.6774  -13.8812 O   0  0  0  0  0  0  0  0  0  0  0  0
  1  2  1  0
  2  4  1  0
  3  2  2  0
  4  5  1  0
  5  6  1  0
  6  7  1  1
  8  6  1  0
  9  8  2  0
 11 10  1  1
 12 11  1  0
 13 11  1  0
 14 15  1  0
 14 13  1  6
 15  8  1  0
 16 14  1  0
 17 16  2  0
 19 18  1  0
 19 21  1  0
 20 19  2  0
 22 21  1  1
 22 23  1  0
 23 16  1  0
 24 25  1  0
 24 22  1  0
 26 24  2  0
M  END
$$$$
