QLN.pdb
     RDKit          3D

 26 25  0  0  1  0  0  0  0  0999 V2000
   27.1365  -21.9168  -18.5375 N   0  0  0  0  0  0  0  0  0  0  0  0
   28.2852  -21.1934  -18.1674 C   0  0  0  0  0  0  0  0  0  0  0  0
   28.9005  -20.4996  -19.0285 O   0  0  0  0  0  0  0  0  0  0  0  0
   28.8291  -21.1995  -16.7866 C   0  0  0  0  0  0  0  0  0  0  0  0
   27.8406  -21.7221  -15.7972 C   0  0  0  0  0  0  0  0  0  0  0  0
   26.8664  -20.6326  -15.4494 C   0  0  2  0  0  0  0  0  0  0  0  0
   27.6084  -19.5425  -14.8288 N   0  0  0  0  0  0  0  0  0  0  0  0
   25.7766  -21.0890  -14.5567 C   0  0  0  0  0  0  0  0  0  0  0  0
   25.0826  -22.0781  -14.8647 O   0  0  0  0  0  0  0  0  0  0  0  0
   26.2448  -20.0989   -9.1700 C   0  0  0  0  0  0  0  0  0  0  0  0
   25.9934  -20.7544  -10.5131 C   0  0  1  0  0  0  0  0  0  0  0  0
   25.9755  -22.2733  -10.3511 C   0  0  0  0  0  0  0  0  0  0  0  0
   24.6948  -20.2575  -11.0838 C   0  0  0  0  0  0  0  0  0  0  0  0
   24.4554  -20.7562  -12.4748 C   0  0  2  0  0  0  0  0  0  0  0  0
   25.5305  -20.3941  -13.3538 N   0  0  0  0  0  0  0  0  0  0  0  0
   23.1515  -20.2487  -13.0108 C   0  0  0  0  0  0  0  0  0  0  0  0
   23.0792  -19.1079  -13.5179 O   0  0  0  0  0  0  0  0  0  0  0  0
   19.9372  -19.9828  -16.8827 N   0  0  0  0  0  0  0  0  0  0  0  0
   20.1425  -21.2188  -16.2094 C   0  0  0  0  0  0  0  0  0  0  0  0
   19.3657  -22.1667  -16.4717 O   0  0  0  0  0  0  0  0  0  0  0  0
   21.2205  -21.3852  -15.2433 C   0  0  0  0  0  0  0  0  0  0  0  0
   20.8919  -20.8166  -13.8896 C   0  0  2  0  0  0  0  0  0  0  0  0
   21.9924  -21.0492  -12.9503 N   0  0  0  0  0  0  0  0  0  0  0  0
   19.6559  -21.4122  -13.3765 C   0  0  0  0  0  0  0  0  0  0  0  0
   18.3761  -20.9844  -13.6421 O   0  0  0  0  0  0  0  0  0  0  0  0
   19.7538  -22.4272  -12.6054 O   0  0  0  0  0  0  0  0  0  0  0  0
  1  2  1  0
  2  4  1  0
  3  2  2  0
  4  5  1  0
  5  6  1  0
  6  7  1  1
  8  6  1  0
  9  8  2  0
 11 10  1  1
 12 11  1  0
 13 11  1  0
 14 15  1  0
 14 13  1  1
 15  8  1  0
 16 14  1  0
 17 16  2  0
 19 18  1  0
 19 21  1  0
 20 19  2  0
 22 21  1  6
 22 23  1  0
 23 16  1  0
 24 25  1  0
 24 22  1  0
 26 24  2  0
M  END
$$$$
