LDH.pdb
     RDKit          3D

 27 27  0  0  1  0  0  0  0  0999 V2000
   26.5544  -14.3118  -20.3191 C   0  0  0  0  0  0  0  0  0  0  0  0
   25.1974  -14.1681  -19.7123 C   0  0  1  0  0  0  0  0  0  0  0  0
   25.0579  -15.1291  -18.5540 C   0  0  0  0  0  0  0  0  0  0  0  0
   24.8844  -12.7750  -19.2629 C   0  0  0  0  0  0  0  0  0  0  0  0
   23.5146  -12.6596  -18.6498 C   0  0  2  0  0  0  0  0  0  0  0  0
   22.5769  -13.3443  -19.5188 N   0  0  0  0  0  0  0  0  0  0  0  0
   23.0940  -11.2415  -18.5776 C   0  0  0  0  0  0  0  0  0  0  0  0
   23.7732  -10.4175  -17.9261 O   0  0  0  0  0  0  0  0  0  0  0  0
   21.9107  -10.7524  -19.2378 N   0  0  0  0  0  0  0  0  0  0  0  0
   21.5860   -9.3493  -19.2843 C   0  0  1  0  0  0  0  0  0  0  0  0
   20.6116   -8.9845  -20.3606 C   0  0  0  0  0  0  0  0  0  0  0  0
   21.1094   -9.2605  -21.7176 C   0  0  0  0  0  0  0  0  0  0  0  0
   20.4702  -10.0644  -22.4404 O   0  0  0  0  0  0  0  0  0  0  0  0
   21.1270   -8.8424  -17.9516 C   0  0  0  0  0  0  0  0  0  0  0  0
   20.3261   -9.5048  -17.2441 O   0  0  0  0  0  0  0  0  0  0  0  0
   22.2478   -8.6864  -22.2552 O   0  0  0  0  0  0  0  0  0  0  0  0
   21.5708   -7.5940  -17.4219 N   0  0  0  0  0  0  0  0  0  0  0  0
   21.1328   -7.1047  -16.1257 C   0  0  1  0  0  0  0  0  0  0  0  0
   22.2237   -7.4299  -15.1370 C   0  0  0  0  0  0  0  0  0  0  0  0
   22.2211   -8.8240  -14.6989 C   0  0  0  0  0  0  0  0  0  0  0  0
   21.3594   -9.8235  -15.0793 C   0  0  0  0  0  0  0  0  0  0  0  0
   21.7364  -10.9311  -14.4250 N   0  0  0  0  0  0  0  0  0  0  0  0
   22.7918  -10.6549  -13.6598 C   0  0  0  0  0  0  0  0  0  0  0  0
   23.0895   -9.3561  -13.8295 N   0  0  0  0  0  0  0  0  0  0  0  0
   20.8510   -5.6407  -16.1760 C   0  0  0  0  0  0  0  0  0  0  0  0
   20.3298   -4.9664  -15.0818 O   0  0  0  0  0  0  0  0  0  0  0  0
   21.0752   -4.9615  -17.2127 O   0  0  0  0  0  0  0  0  0  0  0  0
  2  1  1  1
  2  3  1  0
  4  5  1  0
  4  2  1  0
  5  6  1  6
  7  5  1  0
  7  8  2  0
  9  7  1  0
 10  9  1  0
 10 11  1  6
 12 11  1  0
 13 12  2  0
 14 10  1  0
 15 14  2  0
 16 12  1  0
 17 14  1  0
 18 17  1  0
 18 25  1  0
 18 19  1  1
 20 19  1  0
 21 20  2  0
 22 21  1  0
 23 22  1  0
 23 24  2  0
 24 20  1  0
 25 26  1  0
 27 25  2  0
M  END
$$$$
