LDH.pdb
     RDKit          3D

 27 27  0  0  1  0  0  0  0  0999 V2000
   24.6630  -13.6100  -20.2256 C   0  0  0  0  0  0  0  0  0  0  0  0
   23.6789  -13.1964  -19.1812 C   0  0  1  0  0  0  0  0  0  0  0  0
   23.9916  -13.9059  -17.8837 C   0  0  0  0  0  0  0  0  0  0  0  0
   23.6266  -11.7174  -18.9568 C   0  0  0  0  0  0  0  0  0  0  0  0
   22.6130  -11.3265  -17.9150 C   0  0  2  0  0  0  0  0  0  0  0  0
   21.5064  -12.2604  -17.9956 N   0  0  0  0  0  0  0  0  0  0  0  0
   22.0720   -9.9767  -18.1952 C   0  0  0  0  0  0  0  0  0  0  0  0
   22.8220   -8.9768  -18.1456 O   0  0  0  0  0  0  0  0  0  0  0  0
   20.6888   -9.7534  -18.5308 N   0  0  0  0  0  0  0  0  0  0  0  0
   20.1648   -8.4335  -18.7741 C   0  0  1  0  0  0  0  0  0  0  0  0
   18.9974   -8.4044  -19.7108 C   0  0  0  0  0  0  0  0  0  0  0  0
   19.3350   -8.8285  -21.0789 C   0  0  0  0  0  0  0  0  0  0  0  0
   20.2782   -8.2491  -21.6723 O   0  0  0  0  0  0  0  0  0  0  0  0
   19.8447   -7.7201  -17.4966 C   0  0  0  0  0  0  0  0  0  0  0  0
   18.8644   -8.0630  -16.7878 O   0  0  0  0  0  0  0  0  0  0  0  0
   18.6746   -9.8344  -21.7617 O   0  0  0  0  0  0  0  0  0  0  0  0
   20.6281   -6.6256  -17.0230 N   0  0  0  0  0  0  0  0  0  0  0  0
   20.3221   -5.9362  -15.7810 C   0  0  1  0  0  0  0  0  0  0  0  0
   21.4733   -6.1857  -14.8398 C   0  0  0  0  0  0  0  0  0  0  0  0
   21.5473   -7.5628  -14.3566 C   0  0  0  0  0  0  0  0  0  0  0  0
   20.7203   -8.6118  -14.6761 C   0  0  0  0  0  0  0  0  0  0  0  0
   21.1672   -9.6788  -13.9985 N   0  0  0  0  0  0  0  0  0  0  0  0
   22.2321   -9.3303  -13.2774 C   0  0  0  0  0  0  0  0  0  0  0  0
   22.4654   -8.0262  -13.4989 N   0  0  0  0  0  0  0  0  0  0  0  0
   20.1087   -4.4791  -16.0189 C   0  0  0  0  0  0  0  0  0  0  0  0
   19.7964   -3.6147  -14.9801 O   0  0  0  0  0  0  0  0  0  0  0  0
   20.2036   -3.9783  -17.1706 O   0  0  0  0  0  0  0  0  0  0  0  0
  2  1  1  6
  2  3  1  0
  4  5  1  0
  4  2  1  0
  5  6  1  6
  7  5  1  0
  7  8  2  0
  9  7  1  0
 10  9  1  0
 10 11  1  6
 12 11  1  0
 13 12  2  0
 14 10  1  0
 15 14  2  0
 16 12  1  0
 17 14  1  0
 18 17  1  0
 18 25  1  0
 18 19  1  1
 20 19  1  0
 21 20  2  0
 22 21  1  0
 23 22  1  0
 23 24  2  0
 24 20  1  0
 25 26  1  0
 27 25  2  0
M  END
$$$$
