LDH.pdb
     RDKit          3D

 27 27  0  0  1  0  0  0  0  0999 V2000
   17.3161  -14.8099  -16.1813 C   0  0  0  0  0  0  0  0  0  0  0  0
   18.6772  -14.6898  -16.7841 C   0  0  1  0  0  0  0  0  0  0  0  0
   18.5533  -14.5185  -18.2807 C   0  0  0  0  0  0  0  0  0  0  0  0
   19.4941  -13.5761  -16.2068 C   0  0  0  0  0  0  0  0  0  0  0  0
   20.8304  -13.4288  -16.8836 C   0  0  2  0  0  0  0  0  0  0  0  0
   21.7384  -14.3942  -16.2949 N   0  0  0  0  0  0  0  0  0  0  0  0
   21.3953  -12.0829  -16.6336 C   0  0  0  0  0  0  0  0  0  0  0  0
   21.6487  -11.7153  -15.4650 O   0  0  0  0  0  0  0  0  0  0  0  0
   21.6743  -11.1525  -17.6976 N   0  0  0  0  0  0  0  0  0  0  0  0
   22.1805   -9.8280  -17.4416 C   0  0  1  0  0  0  0  0  0  0  0  0
   23.2178   -9.3724  -18.4201 C   0  0  0  0  0  0  0  0  0  0  0  0
   23.7535   -8.0343  -18.1233 C   0  0  0  0  0  0  0  0  0  0  0  0
   24.5178   -7.8982  -17.1361 O   0  0  0  0  0  0  0  0  0  0  0  0
   21.0744   -8.8245  -17.3272 C   0  0  0  0  0  0  0  0  0  0  0  0
   20.0147   -8.9453  -17.9930 O   0  0  0  0  0  0  0  0  0  0  0  0
   23.4673   -6.9041  -18.8685 O   0  0  0  0  0  0  0  0  0  0  0  0
   21.1657   -7.6912  -16.4652 N   0  0  0  0  0  0  0  0  0  0  0  0
   20.0864   -6.7263  -16.3399 C   0  0  1  0  0  0  0  0  0  0  0  0
   18.8762   -7.4764  -15.8439 C   0  0  0  0  0  0  0  0  0  0  0  0
   17.7204   -6.6198  -15.5872 C   0  0  0  0  0  0  0  0  0  0  0  0
   17.6249   -5.2611  -15.7635 C   0  0  0  0  0  0  0  0  0  0  0  0
   16.3834   -4.9088  -15.4006 N   0  0  0  0  0  0  0  0  0  0  0  0
   15.7131   -5.9919  -15.0094 C   0  0  0  0  0  0  0  0  0  0  0  0
   16.5380   -7.0457  -15.1248 N   0  0  0  0  0  0  0  0  0  0  0  0
   20.4666   -5.6182  -15.4164 C   0  0  0  0  0  0  0  0  0  0  0  0
   19.6100   -4.5555  -15.1705 O   0  0  0  0  0  0  0  0  0  0  0  0
   21.5787   -5.6050  -14.8252 O   0  0  0  0  0  0  0  0  0  0  0  0
  2  1  1  1
  2  3  1  0
  4  5  1  0
  4  2  1  0
  5  6  1  1
  7  5  1  0
  7  8  2  0
  9  7  1  0
 10  9  1  0
 10 11  1  6
 12 11  1  0
 13 12  2  0
 14 10  1  0
 15 14  2  0
 16 12  1  0
 17 14  1  0
 18 17  1  0
 18 25  1  0
 18 19  1  1
 20 19  1  0
 21 20  2  0
 22 21  1  0
 23 22  1  0
 23 24  2  0
 24 20  1  0
 25 26  1  0
 27 25  2  0
M  END
$$$$
