LDH.pdb
     RDKit          3D

 27 27  0  0  1  0  0  0  0  0999 V2000
   27.2463  -19.4897   -3.9008 C   0  0  0  0  0  0  0  0  0  0  0  0
   27.9486  -19.6314   -5.2111 C   0  0  1  0  0  0  0  0  0  0  0  0
   29.1542  -20.5276   -5.0435 C   0  0  0  0  0  0  0  0  0  0  0  0
   27.0734  -20.1500   -6.3091 C   0  0  0  0  0  0  0  0  0  0  0  0
   27.8223  -20.3501   -7.5994 C   0  0  2  0  0  0  0  0  0  0  0  0
   28.9084  -19.3899   -7.6393 N   0  0  0  0  0  0  0  0  0  0  0  0
   26.9449  -20.0716   -8.7594 C   0  0  0  0  0  0  0  0  0  0  0  0
   26.3256  -18.9872   -8.8324 O   0  0  0  0  0  0  0  0  0  0  0  0
   26.7652  -21.0127   -9.8353 N   0  0  0  0  0  0  0  0  0  0  0  0
   25.9818  -20.6983  -11.0030 C   0  0  1  0  0  0  0  0  0  0  0  0
   26.5607  -21.2159  -12.2829 C   0  0  0  0  0  0  0  0  0  0  0  0
   27.8813  -20.6486  -12.5985 C   0  0  0  0  0  0  0  0  0  0  0  0
   27.9946  -19.4008  -12.6845 O   0  0  0  0  0  0  0  0  0  0  0  0
   24.5561  -21.1301  -10.8465 C   0  0  0  0  0  0  0  0  0  0  0  0
   24.0229  -21.2155   -9.7110 O   0  0  0  0  0  0  0  0  0  0  0  0
   29.0187  -21.4079  -12.8089 O   0  0  0  0  0  0  0  0  0  0  0  0
   23.7379  -21.4634  -11.9670 N   0  0  0  0  0  0  0  0  0  0  0  0
   22.3145  -21.1731  -11.9984 C   0  0  1  0  0  0  0  0  0  0  0  0
   22.1644  -19.6768  -11.8893 C   0  0  0  0  0  0  0  0  0  0  0  0
   20.7752  -19.2240  -11.9113 C   0  0  0  0  0  0  0  0  0  0  0  0
   19.6398  -19.9954  -11.9570 C   0  0  0  0  0  0  0  0  0  0  0  0
   18.5975  -19.1524  -11.9613 N   0  0  0  0  0  0  0  0  0  0  0  0
   19.0437  -17.8975  -11.9203 C   0  0  0  0  0  0  0  0  0  0  0  0
   20.3858  -17.9429  -11.8895 N   0  0  0  0  0  0  0  0  0  0  0  0
   21.6901  -21.7016  -13.2458 C   0  0  0  0  0  0  0  0  0  0  0  0
   22.2151  -21.4117  -14.4964 O   0  0  0  0  0  0  0  0  0  0  0  0
   20.6635  -22.4305  -13.2115 O   0  0  0  0  0  0  0  0  0  0  0  0
  2  1  1  1
  2  3  1  0
  4  5  1  0
  4  2  1  0
  5  6  1  1
  7  5  1  0
  7  8  2  0
  9  7  1  0
 10  9  1  0
 10 11  1  6
 12 11  1  0
 13 12  2  0
 14 10  1  0
 15 14  2  0
 16 12  1  0
 17 14  1  0
 18 17  1  0
 18 25  1  0
 18 19  1  6
 20 19  1  0
 21 20  2  0
 22 21  1  0
 23 22  1  0
 23 24  2  0
 24 20  1  0
 25 26  1  0
 27 25  2  0
M  END
$$$$
