LDH.pdb
     RDKit          3D

 27 27  0  0  1  0  0  0  0  0999 V2000
   20.0221  -15.4290  -14.5898 C   0  0  0  0  0  0  0  0  0  0  0  0
   19.0721  -14.9450  -15.6355 C   0  0  1  0  0  0  0  0  0  0  0  0
   17.6523  -15.1170  -15.1464 C   0  0  0  0  0  0  0  0  0  0  0  0
   19.3038  -13.5245  -16.0468 C   0  0  0  0  0  0  0  0  0  0  0  0
   18.3207  -13.0560  -17.0859 C   0  0  2  0  0  0  0  0  0  0  0  0
   18.6532  -13.7041  -18.3400 N   0  0  0  0  0  0  0  0  0  0  0  0
   18.4436  -11.5956  -17.2982 C   0  0  0  0  0  0  0  0  0  0  0  0
   19.3480  -11.1418  -18.0338 O   0  0  0  0  0  0  0  0  0  0  0  0
   17.5497  -10.6478  -16.6833 N   0  0  0  0  0  0  0  0  0  0  0  0
   17.7166   -9.2255  -16.8419 C   0  0  1  0  0  0  0  0  0  0  0  0
   16.4306   -8.4596  -16.8645 C   0  0  0  0  0  0  0  0  0  0  0  0
   15.5820   -8.7765  -18.0242 C   0  0  0  0  0  0  0  0  0  0  0  0
   16.1347   -9.0105  -19.1274 O   0  0  0  0  0  0  0  0  0  0  0  0
   18.6586   -8.6611  -15.8232 C   0  0  0  0  0  0  0  0  0  0  0  0
   18.4302   -8.7751  -14.5921 O   0  0  0  0  0  0  0  0  0  0  0  0
   14.2003   -8.8342  -17.9785 O   0  0  0  0  0  0  0  0  0  0  0  0
   19.8516   -7.9719  -16.1940 N   0  0  0  0  0  0  0  0  0  0  0  0
   20.7830   -7.4528  -15.2069 C   0  0  1  0  0  0  0  0  0  0  0  0
   22.1716   -7.6491  -15.7607 C   0  0  0  0  0  0  0  0  0  0  0  0
   22.6201   -9.0397  -15.7389 C   0  0  0  0  0  0  0  0  0  0  0  0
   21.9839  -10.1198  -15.1776 C   0  0  0  0  0  0  0  0  0  0  0  0
   22.7625  -11.1880  -15.4008 N   0  0  0  0  0  0  0  0  0  0  0  0
   23.8484  -10.8106  -16.0745 C   0  0  0  0  0  0  0  0  0  0  0  0
   23.7595   -9.4865  -16.2823 N   0  0  0  0  0  0  0  0  0  0  0  0
   20.5031   -6.0172  -14.9131 C   0  0  0  0  0  0  0  0  0  0  0  0
   20.9354   -5.4218  -13.7374 O   0  0  0  0  0  0  0  0  0  0  0  0
   19.8643   -5.2916  -15.7204 O   0  0  0  0  0  0  0  0  0  0  0  0
  2  1  1  1
  2  3  1  0
  4  5  1  0
  4  2  1  0
  5  6  1  6
  7  5  1  0
  7  8  2  0
  9  7  1  0
 10  9  1  0
 10 11  1  1
 12 11  1  0
 13 12  2  0
 14 10  1  0
 15 14  2  0
 16 12  1  0
 17 14  1  0
 18 17  1  0
 18 25  1  0
 18 19  1  6
 20 19  1  0
 21 20  2  0
 22 21  1  0
 23 22  1  0
 23 24  2  0
 24 20  1  0
 25 26  1  0
 27 25  2  0
M  END
$$$$
