LDH.pdb
     RDKit          3D

 27 27  0  0  1  0  0  0  0  0999 V2000
   24.7691  -31.7228   -7.3396 C   0  0  0  0  0  0  0  0  0  0  0  0
   25.6568  -32.9235   -7.3151 C   0  0  1  0  0  0  0  0  0  0  0  0
   26.9345  -32.6221   -8.0643 C   0  0  0  0  0  0  0  0  0  0  0  0
   25.9744  -33.4081   -5.9349 C   0  0  0  0  0  0  0  0  0  0  0  0
   26.8995  -34.5954   -5.9379 C   0  0  2  0  0  0  0  0  0  0  0  0
   26.1715  -35.7279   -6.4770 N   0  0  0  0  0  0  0  0  0  0  0  0
   27.3007  -34.9466   -4.5563 C   0  0  0  0  0  0  0  0  0  0  0  0
   26.4517  -35.3817   -3.7472 O   0  0  0  0  0  0  0  0  0  0  0  0
   28.6556  -34.8079   -4.0867 N   0  0  0  0  0  0  0  0  0  0  0  0
   29.0289  -35.1126   -2.7288 C   0  0  1  0  0  0  0  0  0  0  0  0
   30.5069  -35.1997   -2.5079 C   0  0  0  0  0  0  0  0  0  0  0  0
   30.8697  -35.7116   -1.1768 C   0  0  0  0  0  0  0  0  0  0  0  0
   29.9561  -36.1341   -0.4258 O   0  0  0  0  0  0  0  0  0  0  0  0
   28.3964  -34.1666   -1.7548 C   0  0  0  0  0  0  0  0  0  0  0  0
   28.0724  -33.0009   -2.0966 O   0  0  0  0  0  0  0  0  0  0  0  0
   32.1653  -35.7586   -0.6932 O   0  0  0  0  0  0  0  0  0  0  0  0
   28.1317  -34.5363   -0.4023 N   0  0  0  0  0  0  0  0  0  0  0  0
   27.4757  -33.6363    0.5309 C   0  0  1  0  0  0  0  0  0  0  0  0
   26.1408  -33.2721   -0.0680 C   0  0  0  0  0  0  0  0  0  0  0  0
   25.3247  -32.4196    0.7938 C   0  0  0  0  0  0  0  0  0  0  0  0
   25.7530  -31.5655    1.7805 C   0  0  0  0  0  0  0  0  0  0  0  0
   24.6578  -30.9953    2.3027 N   0  0  0  0  0  0  0  0  0  0  0  0
   23.5765  -31.4621    1.6795 C   0  0  0  0  0  0  0  0  0  0  0  0
   23.9887  -32.3397    0.7500 N   0  0  0  0  0  0  0  0  0  0  0  0
   27.3246  -34.2749    1.8706 C   0  0  0  0  0  0  0  0  0  0  0  0
   26.7512  -33.5956    2.9352 O   0  0  0  0  0  0  0  0  0  0  0  0
   27.7114  -35.4540    2.0862 O   0  0  0  0  0  0  0  0  0  0  0  0
  2  1  1  1
  2  3  1  0
  4  5  1  0
  4  2  1  0
  5  6  1  1
  7  5  1  0
  7  8  2  0
  9  7  1  0
 10  9  1  0
 10 11  1  6
 12 11  1  0
 13 12  2  0
 14 10  1  0
 15 14  2  0
 16 12  1  0
 17 14  1  0
 18 17  1  0
 18 25  1  0
 18 19  1  6
 20 19  1  0
 21 20  2  0
 22 21  1  0
 23 22  1  0
 23 24  2  0
 24 20  1  0
 25 26  1  0
 27 25  2  0
M  END
$$$$
