LDH.pdb
     RDKit          3D

 27 27  0  0  1  0  0  0  0  0999 V2000
   16.6833  -11.8021  -16.0939 C   0  0  0  0  0  0  0  0  0  0  0  0
   18.1327  -11.8272  -16.4530 C   0  0  1  0  0  0  0  0  0  0  0  0
   18.2799  -12.0133  -17.9457 C   0  0  0  0  0  0  0  0  0  0  0  0
   18.8823  -10.6088  -16.0122 C   0  0  0  0  0  0  0  0  0  0  0  0
   20.3337  -10.6481  -16.4090 C   0  0  2  0  0  0  0  0  0  0  0  0
   20.9863  -11.6718  -15.6157 N   0  0  0  0  0  0  0  0  0  0  0  0
   20.9943   -9.3602  -16.0962 C   0  0  0  0  0  0  0  0  0  0  0  0
   20.9743   -8.9113  -14.9288 O   0  0  0  0  0  0  0  0  0  0  0  0
   21.6762   -8.5791  -17.0965 N   0  0  0  0  0  0  0  0  0  0  0  0
   22.2804   -7.3070  -16.7921 C   0  0  1  0  0  0  0  0  0  0  0  0
   23.4704   -6.9791  -17.6390 C   0  0  0  0  0  0  0  0  0  0  0  0
   24.5470   -7.9780  -17.5459 C   0  0  0  0  0  0  0  0  0  0  0  0
   25.0871   -8.1773  -16.4297 O   0  0  0  0  0  0  0  0  0  0  0  0
   21.2771   -6.1952  -16.8243 C   0  0  0  0  0  0  0  0  0  0  0  0
   20.5104   -6.0388  -17.8085 O   0  0  0  0  0  0  0  0  0  0  0  0
   25.0082   -8.7201  -18.6188 O   0  0  0  0  0  0  0  0  0  0  0  0
   21.1414   -5.2656  -15.7503 N   0  0  0  0  0  0  0  0  0  0  0  0
   20.0634   -4.2924  -15.7018 C   0  0  1  0  0  0  0  0  0  0  0  0
   18.7684   -5.0647  -15.6985 C   0  0  0  0  0  0  0  0  0  0  0  0
   17.5803   -4.2162  -15.6366 C   0  0  0  0  0  0  0  0  0  0  0  0
   17.4932   -2.8706  -15.8976 C   0  0  0  0  0  0  0  0  0  0  0  0
   16.2120   -2.5215  -15.7138 N   0  0  0  0  0  0  0  0  0  0  0  0
   15.5092   -3.5941  -15.3515 C   0  0  0  0  0  0  0  0  0  0  0  0
   16.3534   -4.6378  -15.3042 N   0  0  0  0  0  0  0  0  0  0  0  0
   20.1885   -3.4180  -14.4997 C   0  0  0  0  0  0  0  0  0  0  0  0
   21.2153   -3.5904  -13.5835 O   0  0  0  0  0  0  0  0  0  0  0  0
   19.3675   -2.4906  -14.2708 O   0  0  0  0  0  0  0  0  0  0  0  0
  2  1  1  6
  2  3  1  0
  4  5  1  0
  4  2  1  0
  5  6  1  1
  7  5  1  0
  7  8  2  0
  9  7  1  0
 10  9  1  0
 10 11  1  6
 12 11  1  0
 13 12  2  0
 14 10  1  0
 15 14  2  0
 16 12  1  0
 17 14  1  0
 18 17  1  0
 18 25  1  0
 18 19  1  1
 20 19  1  0
 21 20  2  0
 22 21  1  0
 23 22  1  0
 23 24  2  0
 24 20  1  0
 25 26  1  0
 27 25  2  0
M  END
$$$$
