LDH.pdb
     RDKit          3D

 27 27  0  0  1  0  0  0  0  0999 V2000
   23.6360  -29.3529    5.6322 C   0  0  0  0  0  0  0  0  0  0  0  0
   23.5081  -30.5029    4.6881 C   0  0  1  0  0  0  0  0  0  0  0  0
   22.4466  -30.1943    3.6573 C   0  0  0  0  0  0  0  0  0  0  0  0
   24.7910  -30.8684    4.0088 C   0  0  0  0  0  0  0  0  0  0  0  0
   24.6148  -31.9646    2.9925 C   0  0  2  0  0  0  0  0  0  0  0  0
   23.9334  -33.0690    3.6399 N   0  0  0  0  0  0  0  0  0  0  0  0
   25.9306  -32.4663    2.5342 C   0  0  0  0  0  0  0  0  0  0  0  0
   26.7131  -31.7073    1.9205 O   0  0  0  0  0  0  0  0  0  0  0  0
   26.3644  -33.8203    2.7664 N   0  0  0  0  0  0  0  0  0  0  0  0
   27.6442  -34.3016    2.3119 C   0  0  1  0  0  0  0  0  0  0  0  0
   28.3491  -35.1818    3.2964 C   0  0  0  0  0  0  0  0  0  0  0  0
   29.0361  -34.4342    4.3616 C   0  0  0  0  0  0  0  0  0  0  0  0
   29.0258  -33.1791    4.3177 O   0  0  0  0  0  0  0  0  0  0  0  0
   27.5424  -34.9679    0.9743 C   0  0  0  0  0  0  0  0  0  0  0  0
   26.6392  -35.8086    0.7331 O   0  0  0  0  0  0  0  0  0  0  0  0
   29.6999  -35.0296    5.4196 O   0  0  0  0  0  0  0  0  0  0  0  0
   28.4562  -34.6855   -0.0845 N   0  0  0  0  0  0  0  0  0  0  0  0
   28.3845  -35.3617   -1.3687 C   0  0  1  0  0  0  0  0  0  0  0  0
   28.4466  -34.2973   -2.4347 C   0  0  0  0  0  0  0  0  0  0  0  0
   27.1726  -33.6177   -2.6593 C   0  0  0  0  0  0  0  0  0  0  0  0
   25.9676  -33.8666   -2.0491 C   0  0  0  0  0  0  0  0  0  0  0  0
   25.0839  -33.0022   -2.5677 N   0  0  0  0  0  0  0  0  0  0  0  0
   25.6940  -32.2338   -3.4693 C   0  0  0  0  0  0  0  0  0  0  0  0
   26.9810  -32.6140   -3.5249 N   0  0  0  0  0  0  0  0  0  0  0  0
   29.4905  -36.3525   -1.5119 C   0  0  0  0  0  0  0  0  0  0  0  0
   29.5518  -37.2164   -2.5951 O   0  0  0  0  0  0  0  0  0  0  0  0
   30.4099  -36.4424   -0.6558 O   0  0  0  0  0  0  0  0  0  0  0  0
  2  1  1  1
  2  3  1  0
  4  5  1  0
  4  2  1  0
  5  6  1  1
  7  5  1  0
  7  8  2  0
  9  7  1  0
 10  9  1  0
 10 11  1  1
 12 11  1  0
 13 12  2  0
 14 10  1  0
 15 14  2  0
 16 12  1  0
 17 14  1  0
 18 17  1  0
 18 25  1  0
 18 19  1  6
 20 19  1  0
 21 20  2  0
 22 21  1  0
 23 22  1  0
 23 24  2  0
 24 20  1  0
 25 26  1  0
 27 25  2  0
M  END
$$$$
