LDH.pdb
     RDKit          3D

 27 27  0  0  1  0  0  0  0  0999 V2000
   28.4663  -20.5566   -4.9655 C   0  0  0  0  0  0  0  0  0  0  0  0
   27.9385  -19.7726   -6.1218 C   0  0  1  0  0  0  0  0  0  0  0  0
   28.8807  -18.6317   -6.4305 C   0  0  0  0  0  0  0  0  0  0  0  0
   27.7098  -20.5951   -7.3514 C   0  0  0  0  0  0  0  0  0  0  0  0
   27.1825  -19.7803   -8.5019 C   0  0  2  0  0  0  0  0  0  0  0  0
   26.6261  -18.5542   -7.9632 N   0  0  0  0  0  0  0  0  0  0  0  0
   26.0842  -20.4984   -9.1885 C   0  0  0  0  0  0  0  0  0  0  0  0
   26.2715  -21.6510   -9.6370 O   0  0  0  0  0  0  0  0  0  0  0  0
   24.7775  -19.9194   -9.3696 N   0  0  0  0  0  0  0  0  0  0  0  0
   23.7701  -20.5468  -10.1866 C   0  0  1  0  0  0  0  0  0  0  0  0
   22.4087  -20.5706   -9.5646 C   0  0  0  0  0  0  0  0  0  0  0  0
   22.3983  -21.1272   -8.2024 C   0  0  0  0  0  0  0  0  0  0  0  0
   22.4368  -22.3747   -8.0625 O   0  0  0  0  0  0  0  0  0  0  0  0
   23.7212  -19.9518  -11.5604 C   0  0  0  0  0  0  0  0  0  0  0  0
   24.3237  -18.8811  -11.8277 O   0  0  0  0  0  0  0  0  0  0  0  0
   22.3482  -20.3582   -7.0532 O   0  0  0  0  0  0  0  0  0  0  0  0
   22.9954  -20.5635  -12.6257 N   0  0  0  0  0  0  0  0  0  0  0  0
   22.9807  -20.0098  -13.9691 C   0  0  1  0  0  0  0  0  0  0  0  0
   24.4137  -19.9271  -14.4305 C   0  0  0  0  0  0  0  0  0  0  0  0
   24.5619  -19.4253  -15.7950 C   0  0  0  0  0  0  0  0  0  0  0  0
   24.0310  -18.2779  -16.3315 C   0  0  0  0  0  0  0  0  0  0  0  0
   24.4298  -18.2266  -17.6103 N   0  0  0  0  0  0  0  0  0  0  0  0
   25.1821  -19.2923  -17.8819 C   0  0  0  0  0  0  0  0  0  0  0  0
   25.2628  -20.0303  -16.7625 N   0  0  0  0  0  0  0  0  0  0  0  0
   22.1534  -20.8500  -14.8829 C   0  0  0  0  0  0  0  0  0  0  0  0
   22.1622  -22.2343  -14.7988 O   0  0  0  0  0  0  0  0  0  0  0  0
   21.4161  -20.3353  -15.7648 O   0  0  0  0  0  0  0  0  0  0  0  0
  2  1  1  1
  2  3  1  0
  4  5  1  0
  4  2  1  0
  5  6  1  1
  7  5  1  0
  7  8  2  0
  9  7  1  0
 10  9  1  0
 10 11  1  1
 12 11  1  0
 13 12  2  0
 14 10  1  0
 15 14  2  0
 16 12  1  0
 17 14  1  0
 18 17  1  0
 18 25  1  0
 18 19  1  6
 20 19  1  0
 21 20  2  0
 22 21  1  0
 23 22  1  0
 23 24  2  0
 24 20  1  0
 25 26  1  0
 27 25  2  0
M  END
$$$$
