LDH.pdb
     RDKit          3D

 27 27  0  0  1  0  0  0  0  0999 V2000
   27.7529  -14.2856  -16.4513 C   0  0  0  0  0  0  0  0  0  0  0  0
   26.4538  -14.9337  -16.1013 C   0  0  1  0  0  0  0  0  0  0  0  0
   26.4377  -15.2689  -14.6275 C   0  0  0  0  0  0  0  0  0  0  0  0
   25.2560  -14.1072  -16.4519 C   0  0  0  0  0  0  0  0  0  0  0  0
   23.9607  -14.7895  -16.1023 C   0  0  2  0  0  0  0  0  0  0  0  0
   23.8478  -15.9808  -16.9216 N   0  0  0  0  0  0  0  0  0  0  0  0
   22.8085  -13.9186  -16.4295 C   0  0  0  0  0  0  0  0  0  0  0  0
   22.4869  -13.7245  -17.6227 O   0  0  0  0  0  0  0  0  0  0  0  0
   22.0199  -13.2674  -15.4148 N   0  0  0  0  0  0  0  0  0  0  0  0
   20.9342  -12.3790  -15.7435 C   0  0  1  0  0  0  0  0  0  0  0  0
   19.6879  -12.6200  -14.9501 C   0  0  0  0  0  0  0  0  0  0  0  0
   19.0587  -13.9203  -15.2309 C   0  0  0  0  0  0  0  0  0  0  0  0
   19.1116  -14.8160  -14.3521 O   0  0  0  0  0  0  0  0  0  0  0  0
   21.3505  -10.9423  -15.6641 C   0  0  0  0  0  0  0  0  0  0  0  0
   22.1198  -10.5369  -14.7560 O   0  0  0  0  0  0  0  0  0  0  0  0
   18.4055  -14.2241  -16.4122 O   0  0  0  0  0  0  0  0  0  0  0  0
   20.8998   -9.9697  -16.6058 N   0  0  0  0  0  0  0  0  0  0  0  0
   21.3136   -8.5784  -16.5381 C   0  0  1  0  0  0  0  0  0  0  0  0
   20.6952   -7.8737  -17.7189 C   0  0  0  0  0  0  0  0  0  0  0  0
   21.0521   -6.4596  -17.8102 C   0  0  0  0  0  0  0  0  0  0  0  0
   22.0698   -5.8053  -17.1601 C   0  0  0  0  0  0  0  0  0  0  0  0
   22.0175   -4.5232  -17.5482 N   0  0  0  0  0  0  0  0  0  0  0  0
   21.0124   -4.3623  -18.4080 C   0  0  0  0  0  0  0  0  0  0  0  0
   20.4182   -5.5561  -18.5687 N   0  0  0  0  0  0  0  0  0  0  0  0
   20.8970   -7.9607  -15.2457 C   0  0  0  0  0  0  0  0  0  0  0  0
   21.7404   -7.1116  -14.5447 O   0  0  0  0  0  0  0  0  0  0  0  0
   19.7648   -8.1861  -14.7419 O   0  0  0  0  0  0  0  0  0  0  0  0
  2  1  1  1
  2  3  1  0
  4  5  1  0
  4  2  1  0
  5  6  1  6
  7  5  1  0
  7  8  2  0
  9  7  1  0
 10  9  1  0
 10 11  1  1
 12 11  1  0
 13 12  2  0
 14 10  1  0
 15 14  2  0
 16 12  1  0
 17 14  1  0
 18 17  1  0
 18 25  1  0
 18 19  1  6
 20 19  1  0
 21 20  2  0
 22 21  1  0
 23 22  1  0
 23 24  2  0
 24 20  1  0
 25 26  1  0
 27 25  2  0
M  END
$$$$
