LDH.pdb
     RDKit          3D

 27 27  0  0  1  0  0  0  0  0999 V2000
   17.7770  -15.9705  -15.5620 C   0  0  0  0  0  0  0  0  0  0  0  0
   17.8758  -14.7840  -16.4636 C   0  0  1  0  0  0  0  0  0  0  0  0
   16.6136  -14.6693  -17.2872 C   0  0  0  0  0  0  0  0  0  0  0  0
   18.1340  -13.4992  -15.7401 C   0  0  0  0  0  0  0  0  0  0  0  0
   18.1978  -12.3161  -16.6683 C   0  0  2  0  0  0  0  0  0  0  0  0
   19.2886  -12.5361  -17.5984 N   0  0  0  0  0  0  0  0  0  0  0  0
   18.5041  -11.0786  -15.9146 C   0  0  0  0  0  0  0  0  0  0  0  0
   17.7284  -10.6818  -15.0170 O   0  0  0  0  0  0  0  0  0  0  0  0
   19.6818  -10.2895  -16.1712 N   0  0  0  0  0  0  0  0  0  0  0  0
   19.9153   -9.0289  -15.5137 C   0  0  1  0  0  0  0  0  0  0  0  0
   21.3405   -8.8047  -15.1141 C   0  0  0  0  0  0  0  0  0  0  0  0
   21.5392   -7.5824  -14.3192 C   0  0  0  0  0  0  0  0  0  0  0  0
   22.0472   -6.5784  -14.8773 O   0  0  0  0  0  0  0  0  0  0  0  0
   19.3981   -7.8784  -16.3215 C   0  0  0  0  0  0  0  0  0  0  0  0
   19.7434   -7.7173  -17.5197 O   0  0  0  0  0  0  0  0  0  0  0  0
   21.1996   -7.4652  -12.9830 O   0  0  0  0  0  0  0  0  0  0  0  0
   18.4959   -6.9159  -15.7780 N   0  0  0  0  0  0  0  0  0  0  0  0
   18.0060   -5.7902  -16.5554 C   0  0  1  0  0  0  0  0  0  0  0  0
   16.5062   -5.7651  -16.4032 C   0  0  0  0  0  0  0  0  0  0  0  0
   15.8238   -6.8206  -17.1487 C   0  0  0  0  0  0  0  0  0  0  0  0
   16.2612   -7.4713  -18.2763 C   0  0  0  0  0  0  0  0  0  0  0  0
   15.3104   -8.3567  -18.6071 N   0  0  0  0  0  0  0  0  0  0  0  0
   14.3089   -8.2775  -17.7317 C   0  0  0  0  0  0  0  0  0  0  0  0
   14.6264   -7.3307  -16.8335 N   0  0  0  0  0  0  0  0  0  0  0  0
   18.6294   -4.5146  -16.0974 C   0  0  0  0  0  0  0  0  0  0  0  0
   18.3114   -3.3010  -16.6887 O   0  0  0  0  0  0  0  0  0  0  0  0
   19.4672   -4.4906  -15.1573 O   0  0  0  0  0  0  0  0  0  0  0  0
  2  1  1  1
  2  3  1  0
  4  5  1  0
  4  2  1  0
  5  6  1  6
  7  5  1  0
  7  8  2  0
  9  7  1  0
 10  9  1  0
 10 11  1  6
 12 11  1  0
 13 12  2  0
 14 10  1  0
 15 14  2  0
 16 12  1  0
 17 14  1  0
 18 17  1  0
 18 25  1  0
 18 19  1  1
 20 19  1  0
 21 20  2  0
 22 21  1  0
 23 22  1  0
 23 24  2  0
 24 20  1  0
 25 26  1  0
 27 25  2  0
M  END
$$$$
