LDH.pdb
     RDKit          3D

 27 27  0  0  1  0  0  0  0  0999 V2000
   19.2034  -11.7539    4.2098 C   0  0  0  0  0  0  0  0  0  0  0  0
   18.1469  -12.7665    4.5073 C   0  0  1  0  0  0  0  0  0  0  0  0
   17.7261  -13.4486    3.2257 C   0  0  0  0  0  0  0  0  0  0  0  0
   18.5618  -13.7885    5.5192 C   0  0  0  0  0  0  0  0  0  0  0  0
   17.5129  -14.8460    5.7362 C   0  0  2  0  0  0  0  0  0  0  0  0
   16.3145  -14.1928    6.2266 N   0  0  0  0  0  0  0  0  0  0  0  0
   17.9485  -15.8061    6.7762 C   0  0  0  0  0  0  0  0  0  0  0  0
   18.8673  -16.6198    6.5343 O   0  0  0  0  0  0  0  0  0  0  0  0
   17.3504  -15.8498    8.0861 N   0  0  0  0  0  0  0  0  0  0  0  0
   17.9055  -16.6423    9.1537 C   0  0  1  0  0  0  0  0  0  0  0  0
   17.8185  -15.9961   10.5012 C   0  0  0  0  0  0  0  0  0  0  0  0
   18.4316  -16.7959   11.5736 C   0  0  0  0  0  0  0  0  0  0  0  0
   18.2458  -18.0379   11.5784 O   0  0  0  0  0  0  0  0  0  0  0  0
   17.3211  -18.0211    9.1819 C   0  0  0  0  0  0  0  0  0  0  0  0
   16.1191  -18.2248    8.8744 O   0  0  0  0  0  0  0  0  0  0  0  0
   19.2076  -16.2635   12.5880 O   0  0  0  0  0  0  0  0  0  0  0  0
   18.0908  -19.1630    9.5556 N   0  0  0  0  0  0  0  0  0  0  0  0
   17.6205  -20.5194    9.3314 C   0  0  1  0  0  0  0  0  0  0  0  0
   17.5113  -20.7102    7.8397 C   0  0  0  0  0  0  0  0  0  0  0  0
   16.1415  -20.9148    7.3737 C   0  0  0  0  0  0  0  0  0  0  0  0
   14.9886  -20.9028    8.1201 C   0  0  0  0  0  0  0  0  0  0  0  0
   13.9755  -21.1354    7.2735 N   0  0  0  0  0  0  0  0  0  0  0  0
   14.4564  -21.2894    6.0404 C   0  0  0  0  0  0  0  0  0  0  0  0
   15.7912  -21.1533    6.1034 N   0  0  0  0  0  0  0  0  0  0  0  0
   18.5455  -21.5133    9.9493 C   0  0  0  0  0  0  0  0  0  0  0  0
   18.1381  -22.8118   10.2169 O   0  0  0  0  0  0  0  0  0  0  0  0
   19.7305  -21.2120   10.2515 O   0  0  0  0  0  0  0  0  0  0  0  0
  2  1  1  6
  2  3  1  0
  4  5  1  0
  4  2  1  0
  5  6  1  1
  7  5  1  0
  7  8  2  0
  9  7  1  0
 10  9  1  0
 10 11  1  1
 12 11  1  0
 13 12  2  0
 14 10  1  0
 15 14  2  0
 16 12  1  0
 17 14  1  0
 18 17  1  0
 18 25  1  0
 18 19  1  6
 20 19  1  0
 21 20  2  0
 22 21  1  0
 23 22  1  0
 23 24  2  0
 24 20  1  0
 25 26  1  0
 27 25  2  0
M  END
$$$$
