LDH.pdb
     RDKit          3D

 27 27  0  0  1  0  0  0  0  0999 V2000
   27.7814  -14.6122  -17.7638 C   0  0  0  0  0  0  0  0  0  0  0  0
   27.2671  -13.5738  -16.8217 C   0  0  1  0  0  0  0  0  0  0  0  0
   28.4296  -12.8186  -16.2192 C   0  0  0  0  0  0  0  0  0  0  0  0
   26.3044  -12.6155  -17.4507 C   0  0  0  0  0  0  0  0  0  0  0  0
   25.7700  -11.6062  -16.4703 C   0  0  2  0  0  0  0  0  0  0  0  0
   25.3577  -12.3181  -15.2760 N   0  0  0  0  0  0  0  0  0  0  0  0
   24.5704  -10.9325  -17.0181 C   0  0  0  0  0  0  0  0  0  0  0  0
   24.6482  -10.2779  -18.0812 O   0  0  0  0  0  0  0  0  0  0  0  0
   23.2854  -10.9959  -16.3698 N   0  0  0  0  0  0  0  0  0  0  0  0
   22.0963  -10.4520  -16.9749 C   0  0  1  0  0  0  0  0  0  0  0  0
   20.8443  -11.2008  -16.6392 C   0  0  0  0  0  0  0  0  0  0  0  0
   20.9665  -12.6558  -16.8228 C   0  0  0  0  0  0  0  0  0  0  0  0
   21.0603  -13.3844  -15.8041 O   0  0  0  0  0  0  0  0  0  0  0  0
   21.9426   -8.9916  -16.6796 C   0  0  0  0  0  0  0  0  0  0  0  0
   21.0595   -8.3018  -17.2498 O   0  0  0  0  0  0  0  0  0  0  0  0
   20.9852  -13.2804  -18.0573 O   0  0  0  0  0  0  0  0  0  0  0  0
   22.7823   -8.3149  -15.7452 N   0  0  0  0  0  0  0  0  0  0  0  0
   22.6979   -6.8807  -15.5275 C   0  0  1  0  0  0  0  0  0  0  0  0
   22.0156   -6.2882  -16.7344 C   0  0  0  0  0  0  0  0  0  0  0  0
   21.8359   -4.8402  -16.6540 C   0  0  0  0  0  0  0  0  0  0  0  0
   20.8126   -4.1520  -16.0493 C   0  0  0  0  0  0  0  0  0  0  0  0
   21.0642   -2.8473  -16.2267 N   0  0  0  0  0  0  0  0  0  0  0  0
   22.1969   -2.7048  -16.9137 C   0  0  0  0  0  0  0  0  0  0  0  0
   22.6716   -3.9336  -17.1765 N   0  0  0  0  0  0  0  0  0  0  0  0
   21.9578   -6.5753  -14.2688 C   0  0  0  0  0  0  0  0  0  0  0  0
   21.9379   -5.2959  -13.7337 O   0  0  0  0  0  0  0  0  0  0  0  0
   21.3233   -7.4663  -13.6444 O   0  0  0  0  0  0  0  0  0  0  0  0
  2  1  1  6
  2  3  1  0
  4  5  1  0
  4  2  1  0
  5  6  1  1
  7  5  1  0
  7  8  2  0
  9  7  1  0
 10  9  1  0
 10 11  1  1
 12 11  1  0
 13 12  2  0
 14 10  1  0
 15 14  2  0
 16 12  1  0
 17 14  1  0
 18 17  1  0
 18 25  1  0
 18 19  1  6
 20 19  1  0
 21 20  2  0
 22 21  1  0
 23 22  1  0
 23 24  2  0
 24 20  1  0
 25 26  1  0
 27 25  2  0
M  END
$$$$
