LDH.pdb
     RDKit          3D

 27 27  0  0  1  0  0  0  0  0999 V2000
   25.3092  -14.1302  -15.4769 C   0  0  0  0  0  0  0  0  0  0  0  0
   24.2261  -14.9686  -16.0721 C   0  0  1  0  0  0  0  0  0  0  0  0
   24.7953  -15.8072  -17.1934 C   0  0  0  0  0  0  0  0  0  0  0  0
   23.5305  -15.8459  -15.0785 C   0  0  0  0  0  0  0  0  0  0  0  0
   22.3935  -16.6210  -15.6883 C   0  0  2  0  0  0  0  0  0  0  0  0
   22.3510  -16.3124  -17.1047 N   0  0  0  0  0  0  0  0  0  0  0  0
   21.1006  -16.1947  -15.1053 C   0  0  0  0  0  0  0  0  0  0  0  0
   20.8751  -16.3638  -13.8865 O   0  0  0  0  0  0  0  0  0  0  0  0
   20.0637  -15.5790  -15.8934 N   0  0  0  0  0  0  0  0  0  0  0  0
   18.7775  -15.2443  -15.3369 C   0  0  1  0  0  0  0  0  0  0  0  0
   18.3827  -13.8135  -15.5316 C   0  0  0  0  0  0  0  0  0  0  0  0
   17.1227  -13.4582  -14.8596 C   0  0  0  0  0  0  0  0  0  0  0  0
   16.8807  -13.9578  -13.7330 O   0  0  0  0  0  0  0  0  0  0  0  0
   17.7045  -16.1676  -15.8267 C   0  0  0  0  0  0  0  0  0  0  0  0
   17.7619  -16.6821  -16.9725 O   0  0  0  0  0  0  0  0  0  0  0  0
   16.1769  -12.6008  -15.3931 O   0  0  0  0  0  0  0  0  0  0  0  0
   16.5734  -16.5073  -15.0260 N   0  0  0  0  0  0  0  0  0  0  0  0
   15.5381  -17.4126  -15.4950 C   0  0  1  0  0  0  0  0  0  0  0  0
   16.2203  -18.6944  -15.9011 C   0  0  0  0  0  0  0  0  0  0  0  0
   15.3019  -19.7123  -16.4069 C   0  0  0  0  0  0  0  0  0  0  0  0
   14.0672  -19.5222  -16.9775 C   0  0  0  0  0  0  0  0  0  0  0  0
   13.5916  -20.7366  -17.2876 N   0  0  0  0  0  0  0  0  0  0  0  0
   14.4805  -21.6634  -16.9322 C   0  0  0  0  0  0  0  0  0  0  0  0
   15.5340  -21.0311  -16.3896 N   0  0  0  0  0  0  0  0  0  0  0  0
   14.5127  -17.6438  -14.4365 C   0  0  0  0  0  0  0  0  0  0  0  0
   14.8249  -17.5306  -13.0899 O   0  0  0  0  0  0  0  0  0  0  0  0
   13.3254  -17.9502  -14.7245 O   0  0  0  0  0  0  0  0  0  0  0  0
  2  1  1  1
  2  3  1  0
  4  5  1  0
  4  2  1  0
  5  6  1  6
  7  5  1  0
  7  8  2  0
  9  7  1  0
 10  9  1  0
 10 11  1  6
 12 11  1  0
 13 12  2  0
 14 10  1  0
 15 14  2  0
 16 12  1  0
 17 14  1  0
 18 17  1  0
 18 25  1  0
 18 19  1  1
 20 19  1  0
 21 20  2  0
 22 21  1  0
 23 22  1  0
 23 24  2  0
 24 20  1  0
 25 26  1  0
 27 25  2  0
M  END
$$$$
