LDH.pdb
     RDKit          3D

 27 27  0  0  1  0  0  0  0  0999 V2000
   29.1567  -19.0575   -6.3944 C   0  0  0  0  0  0  0  0  0  0  0  0
   28.2727  -20.1337   -6.9333 C   0  0  1  0  0  0  0  0  0  0  0  0
   27.4933  -20.7615   -5.8005 C   0  0  0  0  0  0  0  0  0  0  0  0
   27.3352  -19.6630   -8.0011 C   0  0  0  0  0  0  0  0  0  0  0  0
   26.5859  -20.7945   -8.6522 C   0  0  2  0  0  0  0  0  0  0  0  0
   27.5138  -21.8923   -8.8454 N   0  0  0  0  0  0  0  0  0  0  0  0
   26.0945  -20.3922   -9.9900 C   0  0  0  0  0  0  0  0  0  0  0  0
   25.7339  -19.2125  -10.1979 O   0  0  0  0  0  0  0  0  0  0  0  0
   26.0091  -21.3167  -11.0916 N   0  0  0  0  0  0  0  0  0  0  0  0
   25.5145  -20.9203  -12.3855 C   0  0  1  0  0  0  0  0  0  0  0  0
   25.9555  -21.8105  -13.5054 C   0  0  0  0  0  0  0  0  0  0  0  0
   25.5079  -21.3494  -14.8293 C   0  0  0  0  0  0  0  0  0  0  0  0
   24.8652  -22.1456  -15.5575 O   0  0  0  0  0  0  0  0  0  0  0  0
   24.0254  -20.7588  -12.3839 C   0  0  0  0  0  0  0  0  0  0  0  0
   23.2784  -21.6167  -11.8482 O   0  0  0  0  0  0  0  0  0  0  0  0
   25.7513  -20.0826  -15.3298 O   0  0  0  0  0  0  0  0  0  0  0  0
   23.3844  -19.6343  -12.9844 N   0  0  0  0  0  0  0  0  0  0  0  0
   21.9391  -19.4852  -12.9992 C   0  0  1  0  0  0  0  0  0  0  0  0
   21.6447  -18.0522  -13.3645 C   0  0  0  0  0  0  0  0  0  0  0  0
   20.2175  -17.7460  -13.4319 C   0  0  0  0  0  0  0  0  0  0  0  0
   19.1643  -18.5751  -13.1321 C   0  0  0  0  0  0  0  0  0  0  0  0
   18.0435  -17.8694  -13.3392 N   0  0  0  0  0  0  0  0  0  0  0  0
   18.3629  -16.6437  -13.7529 C   0  0  0  0  0  0  0  0  0  0  0  0
   19.7028  -16.5688  -13.8096 N   0  0  0  0  0  0  0  0  0  0  0  0
   21.3146  -20.4399  -13.9604 C   0  0  0  0  0  0  0  0  0  0  0  0
   20.0965  -21.0456  -13.6900 O   0  0  0  0  0  0  0  0  0  0  0  0
   21.8686  -20.7324  -15.0530 O   0  0  0  0  0  0  0  0  0  0  0  0
  2  1  1  1
  2  3  1  0
  4  5  1  0
  4  2  1  0
  5  6  1  6
  7  5  1  0
  7  8  2  0
  9  7  1  0
 10  9  1  0
 10 11  1  6
 12 11  1  0
 13 12  2  0
 14 10  1  0
 15 14  2  0
 16 12  1  0
 17 14  1  0
 18 17  1  0
 18 25  1  0
 18 19  1  6
 20 19  1  0
 21 20  2  0
 22 21  1  0
 23 22  1  0
 23 24  2  0
 24 20  1  0
 25 26  1  0
 27 25  2  0
M  END
$$$$
