TCC.pdb
     RDKit          3D

 20 19  0  0  1  0  0  0  0  0999 V2000
   21.0979  -11.6409  -17.1734 C   0  0  0  0  0  0  0  0  0  0  0  0
   19.8042  -11.9892  -17.9151 C   0  0  1  0  0  0  0  0  0  0  0  0
   19.9567  -13.3012  -18.3534 O   0  0  0  0  0  0  0  0  0  0  0  0
   18.6124  -11.8446  -16.9730 C   0  0  2  0  0  0  0  0  0  0  0  0
   17.3980  -12.3050  -17.5663 N   0  0  0  0  0  0  0  0  0  0  0  0
   18.5461  -10.3884  -16.6180 C   0  0  0  0  0  0  0  0  0  0  0  0
   18.2346   -9.5197  -17.4705 O   0  0  0  0  0  0  0  0  0  0  0  0
   18.8302   -9.9135  -15.3063 N   0  0  0  0  0  0  0  0  0  0  0  0
   18.7687   -8.5225  -14.9417 C   0  0  1  0  0  0  0  0  0  0  0  0
   17.8059   -8.2690  -13.7999 C   0  0  0  0  0  0  0  0  0  0  0  0
   18.4196   -9.1854  -12.3597 S   0  0  0  0  0  0  0  0  0  0  0  0
   20.1150   -7.9524  -14.6690 C   0  0  0  0  0  0  0  0  0  0  0  0
   21.0146   -8.6560  -14.1424 O   0  0  0  0  0  0  0  0  0  0  0  0
   20.4611   -6.6063  -14.9796 N   0  0  0  0  0  0  0  0  0  0  0  0
   21.7280   -6.0139  -14.6683 C   0  0  1  0  0  0  0  0  0  0  0  0
   22.4875   -5.6811  -15.9484 C   0  0  0  0  0  0  0  0  0  0  0  0
   23.9951   -4.7687  -15.6104 S   0  0  0  0  0  0  0  0  0  0  0  0
   21.6371   -4.8634  -13.7684 C   0  0  0  0  0  0  0  0  0  0  0  0
   22.6037   -4.5944  -12.7817 O   0  0  0  0  0  0  0  0  0  0  0  0
   20.6830   -4.0583  -13.8385 O   0  0  0  0  0  0  0  0  0  0  0  0
  2  4  1  0
  2  3  1  0
  2  1  1  1
  4  5  1  6
  6  8  1  0
  6  4  1  0
  7  6  2  0
  9 12  1  0
  9 10  1  1
  9  8  1  0
 11 10  1  0
 12 14  1  0
 13 12  2  0
 14 15  1  0
 15 16  1  6
 16 17  1  0
 18 19  1  0
 18 15  1  0
 20 18  2  0
M  END
$$$$
