TCC.pdb
     RDKit          3D

 20 19  0  0  1  0  0  0  0  0999 V2000
   21.5059   -7.7922  -20.4217 C   0  0  0  0  0  0  0  0  0  0  0  0
   21.0251   -9.2265  -20.1833 C   0  0  1  0  0  0  0  0  0  0  0  0
   21.5263   -9.9781  -21.2420 O   0  0  0  0  0  0  0  0  0  0  0  0
   21.5440   -9.7297  -18.8394 C   0  0  2  0  0  0  0  0  0  0  0  0
   21.2608  -11.1145  -18.6370 N   0  0  0  0  0  0  0  0  0  0  0  0
   20.8919   -8.8663  -17.8000 C   0  0  0  0  0  0  0  0  0  0  0  0
   19.6539   -8.9139  -17.5914 O   0  0  0  0  0  0  0  0  0  0  0  0
   21.6333   -7.9525  -16.9987 N   0  0  0  0  0  0  0  0  0  0  0  0
   21.0258   -7.0955  -16.0147 C   0  0  1  0  0  0  0  0  0  0  0  0
   21.7328   -7.1644  -14.6767 C   0  0  0  0  0  0  0  0  0  0  0  0
   21.3623   -8.7849  -13.9505 S   0  0  0  0  0  0  0  0  0  0  0  0
   20.8867   -5.6955  -16.4971 C   0  0  0  0  0  0  0  0  0  0  0  0
   21.8854   -5.0628  -16.9259 O   0  0  0  0  0  0  0  0  0  0  0  0
   19.6435   -5.0008  -16.5034 N   0  0  0  0  0  0  0  0  0  0  0  0
   19.4786   -3.6604  -16.9822 C   0  0  1  0  0  0  0  0  0  0  0  0
   18.6272   -3.6495  -18.2476 C   0  0  0  0  0  0  0  0  0  0  0  0
   19.2025   -4.8529  -19.4478 S   0  0  0  0  0  0  0  0  0  0  0  0
   18.9733   -2.7301  -15.9719 C   0  0  0  0  0  0  0  0  0  0  0  0
   18.9368   -1.3380  -16.1738 O   0  0  0  0  0  0  0  0  0  0  0  0
   18.5460   -3.1380  -14.8698 O   0  0  0  0  0  0  0  0  0  0  0  0
  2  4  1  0
  2  3  1  0
  2  1  1  6
  4  5  1  1
  6  8  1  0
  6  4  1  0
  7  6  2  0
  9 12  1  0
  9 10  1  1
  9  8  1  0
 11 10  1  0
 12 14  1  0
 13 12  2  0
 14 15  1  0
 15 16  1  6
 16 17  1  0
 18 19  1  0
 18 15  1  0
 20 18  2  0
M  END
$$$$
