TCC.pdb
     RDKit          3D

 20 19  0  0  1  0  0  0  0  0999 V2000
   16.5129  -23.5679   -6.8088 C   0  0  0  0  0  0  0  0  0  0  0  0
   17.1056  -24.4171   -7.9369 C   0  0  1  0  0  0  0  0  0  0  0  0
   17.5266  -23.5173   -8.9115 O   0  0  0  0  0  0  0  0  0  0  0  0
   18.2656  -25.2519   -7.4017 C   0  0  2  0  0  0  0  0  0  0  0  0
   18.9249  -25.9833   -8.4356 N   0  0  0  0  0  0  0  0  0  0  0  0
   17.6721  -26.1590   -6.3643 C   0  0  0  0  0  0  0  0  0  0  0  0
   16.8423  -27.0509   -6.6713 O   0  0  0  0  0  0  0  0  0  0  0  0
   18.0132  -26.0604   -4.9856 N   0  0  0  0  0  0  0  0  0  0  0  0
   17.4634  -26.9248   -3.9746 C   0  0  1  0  0  0  0  0  0  0  0  0
   18.5346  -27.5314   -3.0915 C   0  0  0  0  0  0  0  0  0  0  0  0
   19.5045  -26.1639   -2.3987 S   0  0  0  0  0  0  0  0  0  0  0  0
   16.4019  -26.2539   -3.1776 C   0  0  0  0  0  0  0  0  0  0  0  0
   16.4562  -25.0186   -2.9485 O   0  0  0  0  0  0  0  0  0  0  0  0
   15.2844  -26.9521   -2.6371 N   0  0  0  0  0  0  0  0  0  0  0  0
   14.2547  -26.3320   -1.8573 C   0  0  1  0  0  0  0  0  0  0  0  0
   12.9387  -27.0856   -2.0202 C   0  0  0  0  0  0  0  0  0  0  0  0
   13.0858  -28.8002   -1.5125 S   0  0  0  0  0  0  0  0  0  0  0  0
   14.6105  -26.1451   -0.4502 C   0  0  0  0  0  0  0  0  0  0  0  0
   13.9227  -25.2538    0.3939 O   0  0  0  0  0  0  0  0  0  0  0  0
   15.5547  -26.7787    0.0702 O   0  0  0  0  0  0  0  0  0  0  0  0
  2  4  1  0
  2  3  1  0
  2  1  1  1
  4  5  1  6
  6  8  1  0
  6  4  1  0
  7  6  2  0
  9 12  1  0
  9 10  1  1
  9  8  1  0
 11 10  1  0
 12 14  1  0
 13 12  2  0
 14 15  1  0
 15 16  1  1
 16 17  1  0
 18 19  1  0
 18 15  1  0
 20 18  2  0
M  END
$$$$
