TCC.pdb
     RDKit          3D

 20 19  0  0  1  0  0  0  0  0999 V2000
   32.8486  -14.5758  -19.1201 C   0  0  0  0  0  0  0  0  0  0  0  0
   31.9730  -13.3351  -19.3175 C   0  0  1  0  0  0  0  0  0  0  0  0
   31.8726  -13.1536  -20.6937 O   0  0  0  0  0  0  0  0  0  0  0  0
   30.6060  -13.5592  -18.6774 C   0  0  2  0  0  0  0  0  0  0  0  0
   29.8978  -14.6404  -19.2841 N   0  0  0  0  0  0  0  0  0  0  0  0
   29.8709  -12.2587  -18.8173 C   0  0  0  0  0  0  0  0  0  0  0  0
   29.0100  -12.0862  -19.7158 O   0  0  0  0  0  0  0  0  0  0  0  0
   30.1059  -11.1568  -17.9470 N   0  0  0  0  0  0  0  0  0  0  0  0
   29.3480   -9.9345  -18.0016 C   0  0  1  0  0  0  0  0  0  0  0  0
   28.1111   -9.9849  -17.1283 C   0  0  0  0  0  0  0  0  0  0  0  0
   27.9089  -11.7001  -16.5733 S   0  0  0  0  0  0  0  0  0  0  0  0
   30.1848   -8.7402  -17.7096 C   0  0  0  0  0  0  0  0  0  0  0  0
   30.8655   -8.6767  -16.6541 O   0  0  0  0  0  0  0  0  0  0  0  0
   30.2656   -7.6207  -18.5863 N   0  0  0  0  0  0  0  0  0  0  0  0
   31.1673   -6.5228  -18.4007 C   0  0  1  0  0  0  0  0  0  0  0  0
   32.3351   -6.6240  -19.3767 C   0  0  0  0  0  0  0  0  0  0  0  0
   33.5336   -5.3137  -19.1194 S   0  0  0  0  0  0  0  0  0  0  0  0
   30.5201   -5.2113  -18.4523 C   0  0  0  0  0  0  0  0  0  0  0  0
   30.9471   -4.1237  -17.6682 O   0  0  0  0  0  0  0  0  0  0  0  0
   29.5457   -4.9977  -19.2063 O   0  0  0  0  0  0  0  0  0  0  0  0
  2  4  1  0
  2  3  1  0
  2  1  1  6
  4  5  1  6
  6  8  1  0
  6  4  1  0
  7  6  2  0
  9 12  1  0
  9 10  1  1
  9  8  1  0
 11 10  1  0
 12 14  1  0
 13 12  2  0
 14 15  1  0
 15 16  1  6
 16 17  1  0
 18 19  1  0
 18 15  1  0
 20 18  2  0
M  END
$$$$
