TCC.pdb
     RDKit          3D

 20 19  0  0  1  0  0  0  0  0999 V2000
   21.5232  -10.8143  -18.9057 C   0  0  0  0  0  0  0  0  0  0  0  0
   21.1286   -9.5447  -18.1458 C   0  0  1  0  0  0  0  0  0  0  0  0
   19.8973   -9.1561  -18.6650 O   0  0  0  0  0  0  0  0  0  0  0  0
   21.0419   -9.8417  -16.6515 C   0  0  2  0  0  0  0  0  0  0  0  0
   20.0292  -10.8024  -16.3511 N   0  0  0  0  0  0  0  0  0  0  0  0
   20.7781   -8.5226  -15.9871 C   0  0  0  0  0  0  0  0  0  0  0  0
   19.6148   -8.1697  -15.6699 O   0  0  0  0  0  0  0  0  0  0  0  0
   21.8226   -7.6046  -15.6815 N   0  0  0  0  0  0  0  0  0  0  0  0
   21.6024   -6.3645  -14.9849 C   0  0  1  0  0  0  0  0  0  0  0  0
   22.7320   -6.0314  -14.0320 C   0  0  0  0  0  0  0  0  0  0  0  0
   22.3275   -4.4483  -13.2441 S   0  0  0  0  0  0  0  0  0  0  0  0
   21.3117   -5.2409  -15.9149 C   0  0  0  0  0  0  0  0  0  0  0  0
   22.1000   -4.9670  -16.8557 O   0  0  0  0  0  0  0  0  0  0  0  0
   20.1503   -4.4246  -15.8007 N   0  0  0  0  0  0  0  0  0  0  0  0
   19.8660   -3.3133  -16.6593 C   0  0  1  0  0  0  0  0  0  0  0  0
   18.4671   -3.4449  -17.2527 C   0  0  0  0  0  0  0  0  0  0  0  0
   18.0828   -2.0864  -18.3600 S   0  0  0  0  0  0  0  0  0  0  0  0
   20.0745   -2.0099  -16.0275 C   0  0  0  0  0  0  0  0  0  0  0  0
   20.2330   -0.8245  -16.7690 O   0  0  0  0  0  0  0  0  0  0  0  0
   20.1215   -1.8918  -14.7835 O   0  0  0  0  0  0  0  0  0  0  0  0
  2  4  1  0
  2  3  1  0
  2  1  1  6
  4  5  1  6
  6  8  1  0
  6  4  1  0
  7  6  2  0
  9 12  1  0
  9 10  1  6
  9  8  1  0
 11 10  1  0
 12 14  1  0
 13 12  2  0
 14 15  1  0
 15 16  1  1
 16 17  1  0
 18 19  1  0
 18 15  1  0
 20 18  2  0
M  END
$$$$
