TCC.pdb
     RDKit          3D

 20 19  0  0  1  0  0  0  0  0999 V2000
   18.0843   -9.7426  -17.8156 C   0  0  0  0  0  0  0  0  0  0  0  0
   17.7249  -10.8926  -16.8704 C   0  0  1  0  0  0  0  0  0  0  0  0
   16.7166  -11.6096  -17.5076 O   0  0  0  0  0  0  0  0  0  0  0  0
   18.9564  -11.7570  -16.6152 C   0  0  2  0  0  0  0  0  0  0  0  0
   18.6416  -12.9386  -15.8781 N   0  0  0  0  0  0  0  0  0  0  0  0
   19.9267  -10.8796  -15.8805 C   0  0  0  0  0  0  0  0  0  0  0  0
   19.6890  -10.4711  -14.7165 O   0  0  0  0  0  0  0  0  0  0  0  0
   21.1607  -10.4645  -16.4566 N   0  0  0  0  0  0  0  0  0  0  0  0
   22.1284   -9.6643  -15.7533 C   0  0  1  0  0  0  0  0  0  0  0  0
   23.5513  -10.0047  -16.1463 C   0  0  0  0  0  0  0  0  0  0  0  0
   24.1378  -11.2856  -15.0035 S   0  0  0  0  0  0  0  0  0  0  0  0
   21.8517   -8.2083  -15.8780 C   0  0  0  0  0  0  0  0  0  0  0  0
   21.5405   -7.7077  -16.9889 O   0  0  0  0  0  0  0  0  0  0  0  0
   21.9204   -7.3117  -14.7736 N   0  0  0  0  0  0  0  0  0  0  0  0
   21.6616   -5.9056  -14.8675 C   0  0  1  0  0  0  0  0  0  0  0  0
   21.1389   -5.3719  -13.5378 C   0  0  0  0  0  0  0  0  0  0  0  0
   20.8157   -3.6084  -13.6087 S   0  0  0  0  0  0  0  0  0  0  0  0
   22.7975   -5.1276  -15.3636 C   0  0  0  0  0  0  0  0  0  0  0  0
   22.6671   -4.1528  -16.3700 O   0  0  0  0  0  0  0  0  0  0  0  0
   23.9494   -5.2980  -14.9079 O   0  0  0  0  0  0  0  0  0  0  0  0
  2  4  1  0
  2  3  1  0
  2  1  1  6
  4  5  1  1
  6  8  1  0
  6  4  1  0
  7  6  2  0
  9 12  1  0
  9 10  1  6
  9  8  1  0
 11 10  1  0
 12 14  1  0
 13 12  2  0
 14 15  1  0
 15 16  1  1
 16 17  1  0
 18 19  1  0
 18 15  1  0
 20 18  2  0
M  END
$$$$
