TCC.pdb
     RDKit          3D

 20 19  0  0  1  0  0  0  0  0999 V2000
   27.1020  -11.4525  -15.1447 C   0  0  0  0  0  0  0  0  0  0  0  0
   26.0023  -10.4564  -15.5234 C   0  0  1  0  0  0  0  0  0  0  0  0
   26.6095   -9.5117  -16.3455 O   0  0  0  0  0  0  0  0  0  0  0  0
   24.8697  -11.1841  -16.2420 C   0  0  2  0  0  0  0  0  0  0  0  0
   25.2807  -11.7047  -17.5064 N   0  0  0  0  0  0  0  0  0  0  0  0
   23.7628  -10.1809  -16.3816 C   0  0  0  0  0  0  0  0  0  0  0  0
   23.7314   -9.3691  -17.3399 O   0  0  0  0  0  0  0  0  0  0  0  0
   22.6952  -10.0937  -15.4438 N   0  0  0  0  0  0  0  0  0  0  0  0
   21.5834   -9.1926  -15.5978 C   0  0  1  0  0  0  0  0  0  0  0  0
   20.2908   -9.7777  -15.0670 C   0  0  0  0  0  0  0  0  0  0  0  0
   19.9446  -11.2815  -16.0206 S   0  0  0  0  0  0  0  0  0  0  0  0
   21.8630   -7.8506  -15.0208 C   0  0  0  0  0  0  0  0  0  0  0  0
   22.2755   -7.7343  -13.8385 O   0  0  0  0  0  0  0  0  0  0  0  0
   21.6852   -6.6425  -15.7537 N   0  0  0  0  0  0  0  0  0  0  0  0
   22.0080   -5.3429  -15.2441 C   0  0  1  0  0  0  0  0  0  0  0  0
   22.9328   -4.6086  -16.2095 C   0  0  0  0  0  0  0  0  0  0  0  0
   23.3533   -2.9697  -15.6126 S   0  0  0  0  0  0  0  0  0  0  0  0
   20.8374   -4.5405  -14.8871 C   0  0  0  0  0  0  0  0  0  0  0  0
   20.8379   -3.6366  -13.8088 O   0  0  0  0  0  0  0  0  0  0  0  0
   19.7708   -4.6250  -15.5344 O   0  0  0  0  0  0  0  0  0  0  0  0
  2  4  1  0
  2  3  1  0
  2  1  1  6
  4  5  1  6
  6  8  1  0
  6  4  1  0
  7  6  2  0
  9 12  1  0
  9 10  1  1
  9  8  1  0
 11 10  1  0
 12 14  1  0
 13 12  2  0
 14 15  1  0
 15 16  1  6
 16 17  1  0
 18 19  1  0
 18 15  1  0
 20 18  2  0
M  END
$$$$
