TCC.pdb
     RDKit          3D

 20 19  0  0  1  0  0  0  0  0999 V2000
   27.6561  -12.6205  -15.2546 C   0  0  0  0  0  0  0  0  0  0  0  0
   26.6245  -11.7488  -15.9764 C   0  0  1  0  0  0  0  0  0  0  0  0
   27.0571  -11.6586  -17.2960 O   0  0  0  0  0  0  0  0  0  0  0  0
   25.2441  -12.3921  -15.8785 C   0  0  2  0  0  0  0  0  0  0  0  0
   25.1707  -13.6221  -16.6000 N   0  0  0  0  0  0  0  0  0  0  0  0
   24.2794  -11.3727  -16.4087 C   0  0  0  0  0  0  0  0  0  0  0  0
   24.1194  -11.2017  -17.6430 O   0  0  0  0  0  0  0  0  0  0  0  0
   23.4979  -10.5490  -15.5498 N   0  0  0  0  0  0  0  0  0  0  0  0
   22.5753   -9.5568  -16.0355 C   0  0  1  0  0  0  0  0  0  0  0  0
   21.1347  -10.0164  -15.9431 C   0  0  0  0  0  0  0  0  0  0  0  0
   21.1070  -11.5093  -14.9131 S   0  0  0  0  0  0  0  0  0  0  0  0
   22.7783   -8.2342  -15.3862 C   0  0  0  0  0  0  0  0  0  0  0  0
   23.1437   -8.1589  -14.1852 O   0  0  0  0  0  0  0  0  0  0  0  0
   22.5763   -7.0001  -16.0677 N   0  0  0  0  0  0  0  0  0  0  0  0
   22.9167   -5.7198  -15.5218 C   0  0  1  0  0  0  0  0  0  0  0  0
   23.6830   -4.8917  -16.5481 C   0  0  0  0  0  0  0  0  0  0  0  0
   24.1160   -3.2724  -15.9080 S   0  0  0  0  0  0  0  0  0  0  0  0
   21.7746   -4.9904  -14.9693 C   0  0  0  0  0  0  0  0  0  0  0  0
   21.8772   -4.1721  -13.8292 O   0  0  0  0  0  0  0  0  0  0  0  0
   20.6420   -5.0640  -15.4942 O   0  0  0  0  0  0  0  0  0  0  0  0
  2  4  1  0
  2  3  1  0
  2  1  1  1
  4  5  1  6
  6  8  1  0
  6  4  1  0
  7  6  2  0
  9 12  1  0
  9 10  1  1
  9  8  1  0
 11 10  1  0
 12 14  1  0
 13 12  2  0
 14 15  1  0
 15 16  1  6
 16 17  1  0
 18 19  1  0
 18 15  1  0
 20 18  2  0
M  END
$$$$
