TCC.pdb
     RDKit          3D

 20 19  0  0  1  0  0  0  0  0999 V2000
   19.4578  -12.2537  -19.1252 C   0  0  0  0  0  0  0  0  0  0  0  0
   19.2316  -10.9110  -18.4246 C   0  0  1  0  0  0  0  0  0  0  0  0
   17.9112  -10.5598  -18.6894 O   0  0  0  0  0  0  0  0  0  0  0  0
   19.4861  -11.0590  -16.9272 C   0  0  2  0  0  0  0  0  0  0  0  0
   18.5530  -11.9443  -16.3073 N   0  0  0  0  0  0  0  0  0  0  0  0
   19.4056   -9.6725  -16.3597 C   0  0  0  0  0  0  0  0  0  0  0  0
   18.3426   -9.0047  -16.4100 O   0  0  0  0  0  0  0  0  0  0  0  0
   20.5199   -9.0414  -15.7377 N   0  0  0  0  0  0  0  0  0  0  0  0
   20.4731   -7.7036  -15.2089 C   0  0  1  0  0  0  0  0  0  0  0  0
   21.3925   -7.5229  -14.0185 C   0  0  0  0  0  0  0  0  0  0  0  0
   20.6174   -8.3531  -12.6040 S   0  0  0  0  0  0  0  0  0  0  0  0
   20.7139   -6.6758  -16.2567 C   0  0  0  0  0  0  0  0  0  0  0  0
   21.4507   -6.9274  -17.2443 O   0  0  0  0  0  0  0  0  0  0  0  0
   20.1389   -5.3738  -16.2080 N   0  0  0  0  0  0  0  0  0  0  0  0
   20.2205   -4.4228  -17.2766 C   0  0  1  0  0  0  0  0  0  0  0  0
   19.1281   -4.6874  -18.3076 C   0  0  0  0  0  0  0  0  0  0  0  0
   19.2850   -3.6120  -19.7353 S   0  0  0  0  0  0  0  0  0  0  0  0
   20.2275   -3.0297  -16.8286 C   0  0  0  0  0  0  0  0  0  0  0  0
   20.9276   -2.0174  -17.5107 O   0  0  0  0  0  0  0  0  0  0  0  0
   19.6027   -2.6738  -15.8056 O   0  0  0  0  0  0  0  0  0  0  0  0
  2  4  1  0
  2  3  1  0
  2  1  1  6
  4  5  1  1
  6  8  1  0
  6  4  1  0
  7  6  2  0
  9 12  1  0
  9 10  1  1
  9  8  1  0
 11 10  1  0
 12 14  1  0
 13 12  2  0
 14 15  1  0
 15 16  1  6
 16 17  1  0
 18 19  1  0
 18 15  1  0
 20 18  2  0
M  END
$$$$
