TCC.pdb
     RDKit          3D

 20 19  0  0  1  0  0  0  0  0999 V2000
   17.8026   -9.4537  -18.1320 C   0  0  0  0  0  0  0  0  0  0  0  0
   17.4226  -10.7274  -17.3717 C   0  0  1  0  0  0  0  0  0  0  0  0
   16.4455  -11.3534  -18.1398 O   0  0  0  0  0  0  0  0  0  0  0  0
   18.6537  -11.6120  -17.1957 C   0  0  2  0  0  0  0  0  0  0  0  0
   18.3255  -12.8889  -16.6475 N   0  0  0  0  0  0  0  0  0  0  0  0
   19.5860  -10.8430  -16.3066 C   0  0  0  0  0  0  0  0  0  0  0  0
   19.3747  -10.7348  -15.0729 O   0  0  0  0  0  0  0  0  0  0  0  0
   20.7525  -10.1982  -16.8071 N   0  0  0  0  0  0  0  0  0  0  0  0
   21.6219   -9.3959  -15.9874 C   0  0  1  0  0  0  0  0  0  0  0  0
   23.0863   -9.6637  -16.2682 C   0  0  0  0  0  0  0  0  0  0  0  0
   24.0533   -8.5523  -15.2096 S   0  0  0  0  0  0  0  0  0  0  0  0
   21.2967   -7.9471  -16.0730 C   0  0  0  0  0  0  0  0  0  0  0  0
   21.2880   -7.3564  -17.1832 O   0  0  0  0  0  0  0  0  0  0  0  0
   20.9823   -7.1573  -14.9303 N   0  0  0  0  0  0  0  0  0  0  0  0
   20.7177   -5.7500  -14.9787 C   0  0  1  0  0  0  0  0  0  0  0  0
   19.4172   -5.4288  -14.2496 C   0  0  0  0  0  0  0  0  0  0  0  0
   19.0947   -3.6642  -14.2089 S   0  0  0  0  0  0  0  0  0  0  0  0
   21.8299   -4.9231  -14.5088 C   0  0  0  0  0  0  0  0  0  0  0  0
   22.1906   -3.7132  -15.1302 O   0  0  0  0  0  0  0  0  0  0  0  0
   22.5175   -5.2610  -13.5205 O   0  0  0  0  0  0  0  0  0  0  0  0
  2  4  1  0
  2  3  1  0
  2  1  1  6
  4  5  1  1
  6  8  1  0
  6  4  1  0
  7  6  2  0
  9 12  1  0
  9 10  1  6
  9  8  1  0
 11 10  1  0
 12 14  1  0
 13 12  2  0
 14 15  1  0
 15 16  1  1
 16 17  1  0
 18 19  1  0
 18 15  1  0
 20 18  2  0
M  END
$$$$
