TCC.pdb
     RDKit          3D

 20 19  0  0  1  0  0  0  0  0999 V2000
   16.9468   -9.7356  -18.0041 C   0  0  0  0  0  0  0  0  0  0  0  0
   16.6258  -10.7661  -16.9178 C   0  0  1  0  0  0  0  0  0  0  0  0
   16.1886  -11.9044  -17.5886 O   0  0  0  0  0  0  0  0  0  0  0  0
   17.8738  -11.0468  -16.0856 C   0  0  2  0  0  0  0  0  0  0  0  0
   17.6727  -12.1111  -15.1553 N   0  0  0  0  0  0  0  0  0  0  0  0
   18.2052   -9.7555  -15.3972 C   0  0  0  0  0  0  0  0  0  0  0  0
   17.4343   -9.2522  -14.5424 O   0  0  0  0  0  0  0  0  0  0  0  0
   19.4017   -9.0345  -15.6719 N   0  0  0  0  0  0  0  0  0  0  0  0
   19.7736   -7.8313  -14.9752 C   0  0  1  0  0  0  0  0  0  0  0  0
   21.2014   -7.8764  -14.4709 C   0  0  0  0  0  0  0  0  0  0  0  0
   21.1976   -8.8094  -12.9152 S   0  0  0  0  0  0  0  0  0  0  0  0
   19.5085   -6.6098  -15.7812 C   0  0  0  0  0  0  0  0  0  0  0  0
   20.0057   -6.4784  -16.9289 O   0  0  0  0  0  0  0  0  0  0  0  0
   18.6944   -5.5384  -15.3148 N   0  0  0  0  0  0  0  0  0  0  0  0
   18.5206   -4.3015  -16.0168 C   0  0  1  0  0  0  0  0  0  0  0  0
   17.2856   -3.5684  -15.5032 C   0  0  0  0  0  0  0  0  0  0  0  0
   15.8453   -4.6376  -15.4620 S   0  0  0  0  0  0  0  0  0  0  0  0
   19.7086   -3.4471  -16.0116 C   0  0  0  0  0  0  0  0  0  0  0  0
   20.8550   -3.7471  -15.2528 O   0  0  0  0  0  0  0  0  0  0  0  0
   19.7569   -2.3984  -16.6911 O   0  0  0  0  0  0  0  0  0  0  0  0
  2  4  1  0
  2  3  1  0
  2  1  1  6
  4  5  1  1
  6  8  1  0
  6  4  1  0
  7  6  2  0
  9 12  1  0
  9 10  1  6
  9  8  1  0
 11 10  1  0
 12 14  1  0
 13 12  2  0
 14 15  1  0
 15 16  1  1
 16 17  1  0
 18 19  1  0
 18 15  1  0
 20 18  2  0
M  END
$$$$
