EMQ.pdb
     RDKit          3D

 27 26  0  0  1  0  0  0  0  0999 V2000
    8.2961  -18.7947   18.6285 N   0  0  0  0  0  0  0  0  0  0  0  0
    9.6626  -18.4034   18.5124 C   0  0  1  0  0  0  0  0  0  0  0  0
   10.0623  -17.7974   17.2187 C   0  0  0  0  0  0  0  0  0  0  0  0
    9.0387  -17.8554   16.1339 C   0  0  0  0  0  0  0  0  0  0  0  0
    9.3933  -17.2417   14.8535 C   0  0  0  0  0  0  0  0  0  0  0  0
    8.9896  -16.1167   14.4825 O   0  0  0  0  0  0  0  0  0  0  0  0
   10.0058  -17.4896   19.6540 C   0  0  0  0  0  0  0  0  0  0  0  0
   11.1485  -17.0137   19.7553 O   0  0  0  0  0  0  0  0  0  0  0  0
   10.2427  -17.9175   13.9386 O   0  0  0  0  0  0  0  0  0  0  0  0
    7.2934  -11.6158   19.8151 C   0  0  0  0  0  0  0  0  0  0  0  0
    7.3727  -12.7727   21.1981 S   0  0  0  0  0  0  0  0  0  0  0  0
    8.4651  -14.1834   20.7954 C   0  0  0  0  0  0  0  0  0  0  0  0
    8.4240  -15.1796   21.9223 C   0  0  0  0  0  0  0  0  0  0  0  0
    9.3333  -16.3429   21.7503 C   0  0  2  0  0  0  0  0  0  0  0  0
    9.0249  -17.1697   20.6171 N   0  0  0  0  0  0  0  0  0  0  0  0
    9.5285  -17.1423   22.9944 C   0  0  0  0  0  0  0  0  0  0  0  0
    8.6653  -17.9990   23.3871 O   0  0  0  0  0  0  0  0  0  0  0  0
   14.7224  -20.9055   26.1900 N   0  0  0  0  0  0  0  0  0  0  0  0
   14.2444  -19.7317   25.5666 C   0  0  0  0  0  0  0  0  0  0  0  0
   14.9568  -19.1038   24.7549 O   0  0  0  0  0  0  0  0  0  0  0  0
   12.8550  -19.2501   25.8999 C   0  0  0  0  0  0  0  0  0  0  0  0
   12.3276  -18.3906   24.7965 C   0  0  0  0  0  0  0  0  0  0  0  0
   10.9544  -17.8484   24.9810 C   0  0  2  0  0  0  0  0  0  0  0  0
   10.6712  -17.0041   23.8110 N   0  0  0  0  0  0  0  0  0  0  0  0
   10.8175  -17.1076   26.2262 C   0  0  0  0  0  0  0  0  0  0  0  0
   10.7315  -15.8616   26.2227 O   0  0  0  0  0  0  0  0  0  0  0  0
   10.7818  -17.8019   27.4430 O   0  0  0  0  0  0  0  0  0  0  0  0
  2  1  1  6
  2  3  1  0
  4  3  1  0
  5  4  1  0
  5  6  2  0
  7  2  1  0
  8  7  2  0
  9  5  1  0
 11 10  1  0
 11 12  1  0
 12 13  1  0
 14 13  1  1
 14 15  1  0
 15  7  1  0
 16 24  1  0
 16 14  1  0
 17 16  2  0
 19 18  1  0
 19 21  1  0
 20 19  2  0
 22 21  1  0
 23 22  1  6
 23 24  1  0
 25 27  1  0
 25 23  1  0
 26 25  2  0
M  END
$$$$
