EMQ.pdb
     RDKit          3D

 27 26  0  0  1  0  0  0  0  0999 V2000
    8.9174  -17.3887   20.9498 N   0  0  0  0  0  0  0  0  0  0  0  0
   10.1863  -17.0321   21.4942 C   0  0  1  0  0  0  0  0  0  0  0  0
   11.1386  -16.3799   20.5624 C   0  0  0  0  0  0  0  0  0  0  0  0
   11.5029  -17.1722   19.3510 C   0  0  0  0  0  0  0  0  0  0  0  0
   12.9241  -17.2458   19.0091 C   0  0  0  0  0  0  0  0  0  0  0  0
   13.8262  -17.5278   19.8294 O   0  0  0  0  0  0  0  0  0  0  0  0
    9.9711  -16.1814   22.7132 C   0  0  0  0  0  0  0  0  0  0  0  0
   10.9418  -15.7267   23.3406 O   0  0  0  0  0  0  0  0  0  0  0  0
   13.3626  -16.9918   17.6830 O   0  0  0  0  0  0  0  0  0  0  0  0
    6.8269  -11.1755   27.0372 C   0  0  0  0  0  0  0  0  0  0  0  0
    7.4919  -12.1832   25.6958 S   0  0  0  0  0  0  0  0  0  0  0  0
    6.7314  -13.8468   25.7024 C   0  0  0  0  0  0  0  0  0  0  0  0
    7.0441  -14.5399   24.4041 C   0  0  0  0  0  0  0  0  0  0  0  0
    8.4174  -15.1029   24.3209 C   0  0  2  0  0  0  0  0  0  0  0  0
    8.6590  -15.8967   23.1486 N   0  0  0  0  0  0  0  0  0  0  0  0
    8.8618  -15.7902   25.5680 C   0  0  0  0  0  0  0  0  0  0  0  0
    8.8480  -15.2023   26.7027 O   0  0  0  0  0  0  0  0  0  0  0  0
   10.1966  -22.6894   27.5352 N   0  0  0  0  0  0  0  0  0  0  0  0
   10.7239  -21.5515   26.8856 C   0  0  0  0  0  0  0  0  0  0  0  0
   11.4205  -21.6694   25.8553 O   0  0  0  0  0  0  0  0  0  0  0  0
   10.4294  -20.1890   27.4603 C   0  0  0  0  0  0  0  0  0  0  0  0
    9.9974  -19.2538   26.3773 C   0  0  0  0  0  0  0  0  0  0  0  0
    9.7400  -17.8461   26.7846 C   0  0  2  0  0  0  0  0  0  0  0  0
    9.3224  -17.1241   25.5736 N   0  0  0  0  0  0  0  0  0  0  0  0
   10.9038  -17.2306   27.4049 C   0  0  0  0  0  0  0  0  0  0  0  0
   10.9949  -17.1433   28.6474 O   0  0  0  0  0  0  0  0  0  0  0  0
   11.9338  -16.7302   26.5970 O   0  0  0  0  0  0  0  0  0  0  0  0
  2  1  1  6
  2  3  1  0
  4  3  1  0
  5  4  1  0
  5  6  2  0
  7  2  1  0
  8  7  2  0
  9  5  1  0
 11 10  1  0
 11 12  1  0
 12 13  1  0
 14 13  1  1
 14 15  1  0
 15  7  1  0
 16 24  1  0
 16 14  1  0
 17 16  2  0
 19 18  1  0
 19 21  1  0
 20 19  2  0
 22 21  1  0
 23 22  1  6
 23 24  1  0
 25 27  1  0
 25 23  1  0
 26 25  2  0
M  END
$$$$
