EMQ.pdb
     RDKit          3D

 27 26  0  0  1  0  0  0  0  0999 V2000
    6.7391  -14.9076   20.6758 N   0  0  0  0  0  0  0  0  0  0  0  0
    8.1527  -14.7239   20.6333 C   0  0  1  0  0  0  0  0  0  0  0  0
    8.6424  -13.6044   19.7922 C   0  0  0  0  0  0  0  0  0  0  0  0
    7.9976  -13.4723   18.4525 C   0  0  0  0  0  0  0  0  0  0  0  0
    8.7673  -13.9357   17.2971 C   0  0  0  0  0  0  0  0  0  0  0  0
    9.9332  -14.3849   17.3691 O   0  0  0  0  0  0  0  0  0  0  0  0
    8.6693  -14.5966   22.0379 C   0  0  0  0  0  0  0  0  0  0  0  0
    9.8803  -14.4175   22.2474 O   0  0  0  0  0  0  0  0  0  0  0  0
    8.2080  -13.8963   15.9929 O   0  0  0  0  0  0  0  0  0  0  0  0
    6.8633  -11.9751   27.8508 C   0  0  0  0  0  0  0  0  0  0  0  0
    6.1798  -11.5937   26.2245 S   0  0  0  0  0  0  0  0  0  0  0  0
    7.0811  -12.5031   24.9181 C   0  0  0  0  0  0  0  0  0  0  0  0
    7.4255  -13.8792   25.4196 C   0  0  0  0  0  0  0  0  0  0  0  0
    8.2469  -14.6894   24.4822 C   0  0  2  0  0  0  0  0  0  0  0  0
    7.7743  -14.6809   23.1260 N   0  0  0  0  0  0  0  0  0  0  0  0
    8.5312  -16.0696   24.9711 C   0  0  0  0  0  0  0  0  0  0  0  0
    8.1352  -17.1047   24.3346 O   0  0  0  0  0  0  0  0  0  0  0  0
   13.3670  -17.7472   23.7546 N   0  0  0  0  0  0  0  0  0  0  0  0
   12.1855  -18.3455   23.2637 C   0  0  0  0  0  0  0  0  0  0  0  0
   12.1883  -18.9730   22.1835 O   0  0  0  0  0  0  0  0  0  0  0  0
   10.9184  -18.2124   24.0699 C   0  0  0  0  0  0  0  0  0  0  0  0
   11.1758  -17.4181   25.3097 C   0  0  0  0  0  0  0  0  0  0  0  0
   10.1273  -17.4809   26.3635 C   0  0  2  0  0  0  0  0  0  0  0  0
    9.2508  -16.3181   26.1593 N   0  0  0  0  0  0  0  0  0  0  0  0
   10.6941  -17.5000   27.7039 C   0  0  0  0  0  0  0  0  0  0  0  0
   11.3448  -18.4861   28.1089 O   0  0  0  0  0  0  0  0  0  0  0  0
   10.5067  -16.3980   28.5491 O   0  0  0  0  0  0  0  0  0  0  0  0
  2  1  1  1
  2  3  1  0
  4  3  1  0
  5  4  1  0
  5  6  2  0
  7  2  1  0
  8  7  2  0
  9  5  1  0
 11 10  1  0
 11 12  1  0
 12 13  1  0
 14 13  1  1
 14 15  1  0
 15  7  1  0
 16 24  1  0
 16 14  1  0
 17 16  2  0
 19 18  1  0
 19 21  1  0
 20 19  2  0
 22 21  1  0
 23 22  1  6
 23 24  1  0
 25 27  1  0
 25 23  1  0
 26 25  2  0
M  END
$$$$
