EMQ.pdb
     RDKit          3D

 27 26  0  0  1  0  0  0  0  0999 V2000
    7.6356  -16.2820   20.7673 N   0  0  0  0  0  0  0  0  0  0  0  0
    8.9541  -16.7029   21.1111 C   0  0  1  0  0  0  0  0  0  0  0  0
   10.0406  -16.2582   20.2043 C   0  0  0  0  0  0  0  0  0  0  0  0
   11.4054  -16.7650   20.5336 C   0  0  0  0  0  0  0  0  0  0  0  0
   12.4648  -16.4991   19.5594 C   0  0  0  0  0  0  0  0  0  0  0  0
   12.3349  -16.6590   18.3251 O   0  0  0  0  0  0  0  0  0  0  0  0
    9.2430  -16.2906   22.5262 C   0  0  0  0  0  0  0  0  0  0  0  0
   10.3959  -16.3724   22.9809 O   0  0  0  0  0  0  0  0  0  0  0  0
   13.7358  -16.0302   19.9836 O   0  0  0  0  0  0  0  0  0  0  0  0
    6.9129  -10.3367   25.5336 C   0  0  0  0  0  0  0  0  0  0  0  0
    6.6409  -12.0658   25.9735 S   0  0  0  0  0  0  0  0  0  0  0  0
    7.6173  -13.1675   24.8877 C   0  0  0  0  0  0  0  0  0  0  0  0
    7.4367  -14.5924   25.3361 C   0  0  0  0  0  0  0  0  0  0  0  0
    8.4041  -15.5526   24.7429 C   0  0  2  0  0  0  0  0  0  0  0  0
    8.1992  -15.8074   23.3443 N   0  0  0  0  0  0  0  0  0  0  0  0
    8.5596  -16.8114   25.5279 C   0  0  0  0  0  0  0  0  0  0  0  0
    7.8843  -17.8621   25.2571 O   0  0  0  0  0  0  0  0  0  0  0  0
   12.0868  -19.5918   23.6150 N   0  0  0  0  0  0  0  0  0  0  0  0
   12.4155  -20.2779   24.8049 C   0  0  0  0  0  0  0  0  0  0  0  0
   13.2541  -21.2038   24.7978 O   0  0  0  0  0  0  0  0  0  0  0  0
   11.7338  -19.8706   26.0867 C   0  0  0  0  0  0  0  0  0  0  0  0
   10.8876  -18.6595   25.8596 C   0  0  0  0  0  0  0  0  0  0  0  0
   10.0992  -18.1770   27.0255 C   0  0  2  0  0  0  0  0  0  0  0  0
    9.4564  -16.9209   26.6120 N   0  0  0  0  0  0  0  0  0  0  0  0
   10.9239  -17.9959   28.2110 C   0  0  0  0  0  0  0  0  0  0  0  0
   11.2361  -16.8523   28.6039 O   0  0  0  0  0  0  0  0  0  0  0  0
   11.3722  -19.1191   28.9190 O   0  0  0  0  0  0  0  0  0  0  0  0
  2  1  1  6
  2  3  1  0
  4  3  1  0
  5  4  1  0
  5  6  2  0
  7  2  1  0
  8  7  2  0
  9  5  1  0
 11 10  1  0
 11 12  1  0
 12 13  1  0
 14 13  1  1
 14 15  1  0
 15  7  1  0
 16 24  1  0
 16 14  1  0
 17 16  2  0
 19 18  1  0
 19 21  1  0
 20 19  2  0
 22 21  1  0
 23 22  1  6
 23 24  1  0
 25 27  1  0
 25 23  1  0
 26 25  2  0
M  END
$$$$
