EMQ.pdb
     RDKit          3D

 27 26  0  0  1  0  0  0  0  0999 V2000
    7.2721  -17.7648   20.7220 N   0  0  0  0  0  0  0  0  0  0  0  0
    8.5435  -17.3106   20.2627 C   0  0  1  0  0  0  0  0  0  0  0  0
    8.6338  -16.9629   18.8234 C   0  0  0  0  0  0  0  0  0  0  0  0
    7.5310  -17.4829   17.9624 C   0  0  0  0  0  0  0  0  0  0  0  0
    7.8504  -17.7377   16.5570 C   0  0  0  0  0  0  0  0  0  0  0  0
    7.7496  -16.8801   15.6512 O   0  0  0  0  0  0  0  0  0  0  0  0
    8.9847  -16.1555   21.1155 C   0  0  0  0  0  0  0  0  0  0  0  0
   10.0788  -15.6051   20.9093 O   0  0  0  0  0  0  0  0  0  0  0  0
    8.3063  -19.0157   16.1395 O   0  0  0  0  0  0  0  0  0  0  0  0
    6.5401  -13.1882   27.3576 C   0  0  0  0  0  0  0  0  0  0  0  0
    6.4724  -12.3776   25.7465 S   0  0  0  0  0  0  0  0  0  0  0  0
    7.8914  -12.8857   24.7101 C   0  0  0  0  0  0  0  0  0  0  0  0
    7.4607  -13.9950   23.7893 C   0  0  0  0  0  0  0  0  0  0  0  0
    8.5690  -14.6316   23.0303 C   0  0  2  0  0  0  0  0  0  0  0  0
    8.1520  -15.6927   22.1568 N   0  0  0  0  0  0  0  0  0  0  0  0
    9.7309  -15.0245   23.8792 C   0  0  0  0  0  0  0  0  0  0  0  0
   10.6601  -14.1980   24.1736 O   0  0  0  0  0  0  0  0  0  0  0  0
   10.0601  -14.0352   28.7984 N   0  0  0  0  0  0  0  0  0  0  0  0
   10.5264  -15.3376   29.0834 C   0  0  0  0  0  0  0  0  0  0  0  0
   10.4604  -15.8008   30.2417 O   0  0  0  0  0  0  0  0  0  0  0  0
   11.1066  -16.1601   27.9607 C   0  0  0  0  0  0  0  0  0  0  0  0
   10.3728  -15.8868   26.6874 C   0  0  0  0  0  0  0  0  0  0  0  0
   10.7992  -16.6725   25.4981 C   0  0  2  0  0  0  0  0  0  0  0  0
    9.8764  -16.3250   24.4074 N   0  0  0  0  0  0  0  0  0  0  0  0
   10.8106  -18.1043   25.7591 C   0  0  0  0  0  0  0  0  0  0  0  0
    9.8938  -18.8387   25.3351 O   0  0  0  0  0  0  0  0  0  0  0  0
   11.8636  -18.6641   26.4951 O   0  0  0  0  0  0  0  0  0  0  0  0
  2  1  1  1
  2  3  1  0
  4  3  1  0
  5  4  1  0
  5  6  2  0
  7  2  1  0
  8  7  2  0
  9  5  1  0
 11 10  1  0
 11 12  1  0
 12 13  1  0
 14 13  1  1
 14 15  1  0
 15  7  1  0
 16 24  1  0
 16 14  1  0
 17 16  2  0
 19 18  1  0
 19 21  1  0
 20 19  2  0
 22 21  1  0
 23 22  1  1
 23 24  1  0
 25 27  1  0
 25 23  1  0
 26 25  2  0
M  END
$$$$
