EMQ.pdb
     RDKit          3D

 27 26  0  0  1  0  0  0  0  0999 V2000
    8.6882  -16.4548   19.3158 N   0  0  0  0  0  0  0  0  0  0  0  0
    7.8753  -16.6546   20.4704 C   0  0  1  0  0  0  0  0  0  0  0  0
    7.6850  -18.0612   20.9016 C   0  0  0  0  0  0  0  0  0  0  0  0
    8.9350  -18.8569   21.0814 C   0  0  0  0  0  0  0  0  0  0  0  0
    8.7794  -20.2527   21.4931 C   0  0  0  0  0  0  0  0  0  0  0  0
    7.6737  -20.8267   21.6125 O   0  0  0  0  0  0  0  0  0  0  0  0
    8.4185  -15.8238   21.5976 C   0  0  0  0  0  0  0  0  0  0  0  0
    9.6039  -15.4531   21.5895 O   0  0  0  0  0  0  0  0  0  0  0  0
    9.9161  -21.0507   21.7871 O   0  0  0  0  0  0  0  0  0  0  0  0
    6.6345  -11.3525   27.9004 C   0  0  0  0  0  0  0  0  0  0  0  0
    6.1077  -12.1745   26.3825 S   0  0  0  0  0  0  0  0  0  0  0  0
    7.5231  -13.0071   25.5768 C   0  0  0  0  0  0  0  0  0  0  0  0
    7.0187  -13.8515   24.4381 C   0  0  0  0  0  0  0  0  0  0  0  0
    8.0638  -14.6664   23.7648 C   0  0  2  0  0  0  0  0  0  0  0  0
    7.5779  -15.4621   22.6722 N   0  0  0  0  0  0  0  0  0  0  0  0
    8.9082  -15.4577   24.7060 C   0  0  0  0  0  0  0  0  0  0  0  0
    8.4118  -16.0391   25.7301 O   0  0  0  0  0  0  0  0  0  0  0  0
    9.6504  -20.3600   24.5542 N   0  0  0  0  0  0  0  0  0  0  0  0
   10.7111  -20.3249   25.4861 C   0  0  0  0  0  0  0  0  0  0  0  0
   11.1368  -21.3762   26.0096 O   0  0  0  0  0  0  0  0  0  0  0  0
   11.3214  -18.9917   25.8376 C   0  0  0  0  0  0  0  0  0  0  0  0
   10.6357  -17.8956   25.0873 C   0  0  0  0  0  0  0  0  0  0  0  0
   11.1375  -16.5160   25.3290 C   0  0  2  0  0  0  0  0  0  0  0  0
   10.2992  -15.6133   24.5263 N   0  0  0  0  0  0  0  0  0  0  0  0
   12.5483  -16.3774   24.9991 C   0  0  0  0  0  0  0  0  0  0  0  0
   12.9104  -15.7105   24.0071 O   0  0  0  0  0  0  0  0  0  0  0  0
   13.5108  -17.0003   25.8050 O   0  0  0  0  0  0  0  0  0  0  0  0
  2  1  1  6
  2  3  1  0
  4  3  1  0
  5  4  1  0
  5  6  2  0
  7  2  1  0
  8  7  2  0
  9  5  1  0
 11 10  1  0
 11 12  1  0
 12 13  1  0
 14 13  1  1
 14 15  1  0
 15  7  1  0
 16 24  1  0
 16 14  1  0
 17 16  2  0
 19 18  1  0
 19 21  1  0
 20 19  2  0
 22 21  1  0
 23 22  1  6
 23 24  1  0
 25 27  1  0
 25 23  1  0
 26 25  2  0
M  END
$$$$
