EMQ.pdb
     RDKit          3D

 27 26  0  0  1  0  0  0  0  0999 V2000
    8.6402  -18.4664   18.8928 N   0  0  0  0  0  0  0  0  0  0  0  0
    8.9827  -18.6470   20.2654 C   0  0  1  0  0  0  0  0  0  0  0  0
    9.8818  -19.7865   20.5713 C   0  0  0  0  0  0  0  0  0  0  0  0
   10.7573  -20.2382   19.4499 C   0  0  0  0  0  0  0  0  0  0  0  0
   11.6149  -21.3969   19.7031 C   0  0  0  0  0  0  0  0  0  0  0  0
   11.2267  -22.4425   20.2708 O   0  0  0  0  0  0  0  0  0  0  0  0
    9.5539  -17.3637   20.7973 C   0  0  0  0  0  0  0  0  0  0  0  0
   10.7591  -17.1035   20.6474 O   0  0  0  0  0  0  0  0  0  0  0  0
   12.9768  -21.3896   19.3024 O   0  0  0  0  0  0  0  0  0  0  0  0
    7.2072  -11.2491   20.9209 C   0  0  0  0  0  0  0  0  0  0  0  0
    7.0368  -12.5085   19.6393 S   0  0  0  0  0  0  0  0  0  0  0  0
    8.1192  -13.9394   19.9951 C   0  0  0  0  0  0  0  0  0  0  0  0
    8.3640  -14.0193   21.4775 C   0  0  0  0  0  0  0  0  0  0  0  0
    9.2059  -15.1684   21.9023 C   0  0  2  0  0  0  0  0  0  0  0  0
    8.7173  -16.4484   21.4712 N   0  0  0  0  0  0  0  0  0  0  0  0
    9.5508  -15.1568   23.3535 C   0  0  0  0  0  0  0  0  0  0  0  0
   10.1339  -14.1592   23.8994 O   0  0  0  0  0  0  0  0  0  0  0  0
    6.2020  -13.7610   26.0182 N   0  0  0  0  0  0  0  0  0  0  0  0
    7.3503  -13.2527   26.6647 C   0  0  0  0  0  0  0  0  0  0  0  0
    7.3848  -12.0719   27.0709 O   0  0  0  0  0  0  0  0  0  0  0  0
    8.5359  -14.1644   26.8560 C   0  0  0  0  0  0  0  0  0  0  0  0
    8.2675  -15.4980   26.2366 C   0  0  0  0  0  0  0  0  0  0  0  0
    9.4433  -16.2105   25.6679 C   0  0  2  0  0  0  0  0  0  0  0  0
    9.2568  -16.2394   24.2097 N   0  0  0  0  0  0  0  0  0  0  0  0
    9.5956  -17.5490   26.2186 C   0  0  0  0  0  0  0  0  0  0  0  0
    9.4886  -18.5567   25.4886 O   0  0  0  0  0  0  0  0  0  0  0  0
    9.8653  -17.7076   27.5846 O   0  0  0  0  0  0  0  0  0  0  0  0
  2  1  1  6
  2  3  1  0
  4  3  1  0
  5  4  1  0
  5  6  2  0
  7  2  1  0
  8  7  2  0
  9  5  1  0
 11 10  1  0
 11 12  1  0
 12 13  1  0
 14 13  1  1
 14 15  1  0
 15  7  1  0
 16 24  1  0
 16 14  1  0
 17 16  2  0
 19 18  1  0
 19 21  1  0
 20 19  2  0
 22 21  1  0
 23 22  1  1
 23 24  1  0
 25 27  1  0
 25 23  1  0
 26 25  2  0
M  END
$$$$
