EMQ.pdb
     RDKit          3D

 27 26  0  0  1  0  0  0  0  0999 V2000
    6.0635  -16.1782   20.7609 N   0  0  0  0  0  0  0  0  0  0  0  0
    7.3177  -16.8289   20.9548 C   0  0  1  0  0  0  0  0  0  0  0  0
    8.0967  -17.1278   19.7283 C   0  0  0  0  0  0  0  0  0  0  0  0
    7.7494  -16.3124   18.5272 C   0  0  0  0  0  0  0  0  0  0  0  0
    8.4794  -16.6052   17.2929 C   0  0  0  0  0  0  0  0  0  0  0  0
    9.7150  -16.4573   17.1603 O   0  0  0  0  0  0  0  0  0  0  0  0
    8.1390  -16.0242   21.9212 C   0  0  0  0  0  0  0  0  0  0  0  0
    9.2186  -15.5251   21.5634 O   0  0  0  0  0  0  0  0  0  0  0  0
    7.7961  -17.0881   16.1462 O   0  0  0  0  0  0  0  0  0  0  0  0
    6.4257  -12.3611   27.2301 C   0  0  0  0  0  0  0  0  0  0  0  0
    7.0357  -11.5381   25.7442 S   0  0  0  0  0  0  0  0  0  0  0  0
    7.2757  -12.7461   24.3918 C   0  0  0  0  0  0  0  0  0  0  0  0
    7.5163  -14.1092   24.9817 C   0  0  0  0  0  0  0  0  0  0  0  0
    8.3912  -14.9895   24.1634 C   0  0  2  0  0  0  0  0  0  0  0  0
    7.6822  -15.8340   23.2430 N   0  0  0  0  0  0  0  0  0  0  0  0
    9.3976  -15.7470   24.9623 C   0  0  0  0  0  0  0  0  0  0  0  0
   10.1716  -15.1654   25.7964 O   0  0  0  0  0  0  0  0  0  0  0  0
   12.8603  -20.1214   23.9224 N   0  0  0  0  0  0  0  0  0  0  0  0
   13.4189  -19.7680   25.1706 C   0  0  0  0  0  0  0  0  0  0  0  0
   14.3297  -20.4543   25.6804 O   0  0  0  0  0  0  0  0  0  0  0  0
   12.8940  -18.5440   25.8775 C   0  0  0  0  0  0  0  0  0  0  0  0
   11.7869  -17.9253   25.0863 C   0  0  0  0  0  0  0  0  0  0  0  0
   10.4371  -17.9460   25.7118 C   0  0  2  0  0  0  0  0  0  0  0  0
    9.5574  -17.1445   24.8483 N   0  0  0  0  0  0  0  0  0  0  0  0
   10.4553  -17.4436   27.0777 C   0  0  0  0  0  0  0  0  0  0  0  0
   10.6663  -16.2351   27.3116 O   0  0  0  0  0  0  0  0  0  0  0  0
   10.2332  -18.3277   28.1421 O   0  0  0  0  0  0  0  0  0  0  0  0
  2  1  1  6
  2  3  1  0
  4  3  1  0
  5  4  1  0
  5  6  2  0
  7  2  1  0
  8  7  2  0
  9  5  1  0
 11 10  1  0
 11 12  1  0
 12 13  1  0
 14 13  1  1
 14 15  1  0
 15  7  1  0
 16 24  1  0
 16 14  1  0
 17 16  2  0
 19 18  1  0
 19 21  1  0
 20 19  2  0
 22 21  1  0
 23 22  1  6
 23 24  1  0
 25 27  1  0
 25 23  1  0
 26 25  2  0
M  END
$$$$
