EMQ.pdb
     RDKit          3D

 27 26  0  0  1  0  0  0  0  0999 V2000
    8.5213  -17.1513   20.7600 N   0  0  0  0  0  0  0  0  0  0  0  0
    9.8563  -17.1441   21.2614 C   0  0  1  0  0  0  0  0  0  0  0  0
   10.9160  -16.7610   20.2966 C   0  0  0  0  0  0  0  0  0  0  0  0
   10.5401  -16.8492   18.8548 C   0  0  0  0  0  0  0  0  0  0  0  0
   11.5775  -17.2976   17.9249 C   0  0  0  0  0  0  0  0  0  0  0  0
   12.7162  -17.6775   18.2791 O   0  0  0  0  0  0  0  0  0  0  0  0
    9.9124  -16.2728   22.4836 C   0  0  0  0  0  0  0  0  0  0  0  0
   11.0064  -15.9098   22.9460 O   0  0  0  0  0  0  0  0  0  0  0  0
   11.3328  -17.3241   16.5268 O   0  0  0  0  0  0  0  0  0  0  0  0
    6.6284  -11.0767   25.7997 C   0  0  0  0  0  0  0  0  0  0  0  0
    6.1716  -12.7352   26.3454 S   0  0  0  0  0  0  0  0  0  0  0  0
    7.5801  -13.8865   26.1542 C   0  0  0  0  0  0  0  0  0  0  0  0
    7.5645  -14.4621   24.7640 C   0  0  0  0  0  0  0  0  0  0  0  0
    8.7132  -15.3528   24.4527 C   0  0  2  0  0  0  0  0  0  0  0  0
    8.7157  -15.8641   23.1105 N   0  0  0  0  0  0  0  0  0  0  0  0
    8.9330  -16.4263   25.4648 C   0  0  0  0  0  0  0  0  0  0  0  0
    8.0732  -17.3506   25.6640 O   0  0  0  0  0  0  0  0  0  0  0  0
   14.0970  -19.2066   26.5177 N   0  0  0  0  0  0  0  0  0  0  0  0
   13.1922  -19.2832   25.4359 C   0  0  0  0  0  0  0  0  0  0  0  0
   13.5381  -19.7908   24.3482 O   0  0  0  0  0  0  0  0  0  0  0  0
   11.7978  -18.7397   25.6193 C   0  0  0  0  0  0  0  0  0  0  0  0
   11.6551  -18.1304   26.9768 C   0  0  0  0  0  0  0  0  0  0  0  0
   10.3378  -17.5128   27.2880 C   0  0  2  0  0  0  0  0  0  0  0  0
   10.0965  -16.4887   26.2609 N   0  0  0  0  0  0  0  0  0  0  0  0
   10.2962  -16.9507   28.6299 C   0  0  0  0  0  0  0  0  0  0  0  0
   10.1808  -15.7194   28.8040 O   0  0  0  0  0  0  0  0  0  0  0  0
   10.3871  -17.8026   29.7389 O   0  0  0  0  0  0  0  0  0  0  0  0
  2  1  1  6
  2  3  1  0
  4  3  1  0
  5  4  1  0
  5  6  2  0
  7  2  1  0
  8  7  2  0
  9  5  1  0
 11 10  1  0
 11 12  1  0
 12 13  1  0
 14 13  1  1
 14 15  1  0
 15  7  1  0
 16 24  1  0
 16 14  1  0
 17 16  2  0
 19 18  1  0
 19 21  1  0
 20 19  2  0
 22 21  1  0
 23 22  1  6
 23 24  1  0
 25 27  1  0
 25 23  1  0
 26 25  2  0
M  END
$$$$
