EMQ.pdb
     RDKit          3D

 27 26  0  0  1  0  0  0  0  0999 V2000
    7.7394  -17.4679   20.3459 N   0  0  0  0  0  0  0  0  0  0  0  0
    9.1284  -17.6721   20.5971 C   0  0  1  0  0  0  0  0  0  0  0  0
   10.0505  -17.3428   19.4826 C   0  0  0  0  0  0  0  0  0  0  0  0
    9.6463  -16.1868   18.6293 C   0  0  0  0  0  0  0  0  0  0  0  0
   10.5610  -15.8055   17.5522 C   0  0  0  0  0  0  0  0  0  0  0  0
   11.6048  -15.1374   17.7260 O   0  0  0  0  0  0  0  0  0  0  0  0
    9.5129  -16.9240   21.8415 C   0  0  0  0  0  0  0  0  0  0  0  0
   10.7096  -16.7572   22.1289 O   0  0  0  0  0  0  0  0  0  0  0  0
   10.2981  -16.1891   16.2109 O   0  0  0  0  0  0  0  0  0  0  0  0
    6.5961  -12.3613   26.0215 C   0  0  0  0  0  0  0  0  0  0  0  0
    6.1816  -12.6468   24.2883 S   0  0  0  0  0  0  0  0  0  0  0  0
    7.4306  -13.7235   23.4967 C   0  0  0  0  0  0  0  0  0  0  0  0
    7.7876  -14.8426   24.4369 C   0  0  0  0  0  0  0  0  0  0  0  0
    8.8393  -15.7625   23.9292 C   0  0  2  0  0  0  0  0  0  0  0  0
    8.5095  -16.4078   22.6892 N   0  0  0  0  0  0  0  0  0  0  0  0
    9.3380  -16.7277   24.9513 C   0  0  0  0  0  0  0  0  0  0  0  0
    9.1190  -17.9831   24.8558 O   0  0  0  0  0  0  0  0  0  0  0  0
   12.8412  -16.1296   31.2461 N   0  0  0  0  0  0  0  0  0  0  0  0
   11.5648  -16.0037   30.6548 C   0  0  0  0  0  0  0  0  0  0  0  0
   10.7973  -15.0743   30.9830 O   0  0  0  0  0  0  0  0  0  0  0  0
   11.1452  -17.0144   29.6175 C   0  0  0  0  0  0  0  0  0  0  0  0
   10.9103  -16.3401   28.3044 C   0  0  0  0  0  0  0  0  0  0  0  0
   10.4530  -17.2105   27.1878 C   0  0  2  0  0  0  0  0  0  0  0  0
   10.0785  -16.3182   26.0807 N   0  0  0  0  0  0  0  0  0  0  0  0
    9.3501  -18.0754   27.5798 C   0  0  0  0  0  0  0  0  0  0  0  0
    8.1823  -17.6363   27.6368 O   0  0  0  0  0  0  0  0  0  0  0  0
    9.6031  -19.4168   27.8971 O   0  0  0  0  0  0  0  0  0  0  0  0
  2  1  1  6
  2  3  1  0
  4  3  1  0
  5  4  1  0
  5  6  2  0
  7  2  1  0
  8  7  2  0
  9  5  1  0
 11 10  1  0
 11 12  1  0
 12 13  1  0
 14 13  1  1
 14 15  1  0
 15  7  1  0
 16 24  1  0
 16 14  1  0
 17 16  2  0
 19 18  1  0
 19 21  1  0
 20 19  2  0
 22 21  1  0
 23 22  1  1
 23 24  1  0
 25 27  1  0
 25 23  1  0
 26 25  2  0
M  END
$$$$
