EMQ.pdb
     RDKit          3D

 27 26  0  0  1  0  0  0  0  0999 V2000
    8.0256  -16.9961   20.8718 N   0  0  0  0  0  0  0  0  0  0  0  0
    9.3100  -17.1126   21.4807 C   0  0  1  0  0  0  0  0  0  0  0  0
   10.4701  -17.1622   20.5575 C   0  0  0  0  0  0  0  0  0  0  0  0
   10.1572  -17.5311   19.1454 C   0  0  0  0  0  0  0  0  0  0  0  0
   11.2903  -17.6721   18.2299 C   0  0  0  0  0  0  0  0  0  0  0  0
   11.1759  -17.9417   17.0132 O   0  0  0  0  0  0  0  0  0  0  0  0
    9.4763  -16.0050   22.4815 C   0  0  0  0  0  0  0  0  0  0  0  0
   10.6108  -15.6404   22.8314 O   0  0  0  0  0  0  0  0  0  0  0  0
   12.6209  -17.5037   18.6951 O   0  0  0  0  0  0  0  0  0  0  0  0
    6.1452  -10.7410   27.3760 C   0  0  0  0  0  0  0  0  0  0  0  0
    5.9752  -11.8068   25.9294 S   0  0  0  0  0  0  0  0  0  0  0  0
    7.4024  -12.9430   25.7957 C   0  0  0  0  0  0  0  0  0  0  0  0
    7.2831  -13.7413   24.5259 C   0  0  0  0  0  0  0  0  0  0  0  0
    8.3923  -14.7041   24.2965 C   0  0  2  0  0  0  0  0  0  0  0  0
    8.3376  -15.3748   23.0276 N   0  0  0  0  0  0  0  0  0  0  0  0
    8.6076  -15.6534   25.4267 C   0  0  0  0  0  0  0  0  0  0  0  0
    7.7527  -16.5571   25.7196 O   0  0  0  0  0  0  0  0  0  0  0  0
   12.7218  -19.2714   25.6261 N   0  0  0  0  0  0  0  0  0  0  0  0
   13.2569  -17.9816   25.8377 C   0  0  0  0  0  0  0  0  0  0  0  0
   14.4211  -17.7058   25.4780 O   0  0  0  0  0  0  0  0  0  0  0  0
   12.3946  -16.9415   26.5071 C   0  0  0  0  0  0  0  0  0  0  0  0
   11.0534  -17.5148   26.8338 C   0  0  0  0  0  0  0  0  0  0  0  0
   10.0303  -16.5573   27.3338 C   0  0  2  0  0  0  0  0  0  0  0  0
    9.7613  -15.6140   26.2384 N   0  0  0  0  0  0  0  0  0  0  0  0
   10.4622  -15.8710   28.5424 C   0  0  0  0  0  0  0  0  0  0  0  0
   11.0500  -16.4903   29.4538 O   0  0  0  0  0  0  0  0  0  0  0  0
   10.2147  -14.4989   28.6838 O   0  0  0  0  0  0  0  0  0  0  0  0
  2  1  1  6
  2  3  1  0
  4  3  1  0
  5  4  1  0
  5  6  2  0
  7  2  1  0
  8  7  2  0
  9  5  1  0
 11 10  1  0
 11 12  1  0
 12 13  1  0
 14 13  1  1
 14 15  1  0
 15  7  1  0
 16 24  1  0
 16 14  1  0
 17 16  2  0
 19 18  1  0
 19 21  1  0
 20 19  2  0
 22 21  1  0
 23 22  1  6
 23 24  1  0
 25 27  1  0
 25 23  1  0
 26 25  2  0
M  END
$$$$
