EMQ.pdb
     RDKit          3D

 27 26  0  0  1  0  0  0  0  0999 V2000
    6.4028  -15.9749   20.7073 N   0  0  0  0  0  0  0  0  0  0  0  0
    7.7741  -16.3659   20.6892 C   0  0  1  0  0  0  0  0  0  0  0  0
    8.5190  -16.0835   19.4378 C   0  0  0  0  0  0  0  0  0  0  0  0
    7.6943  -16.0184   18.1953 C   0  0  0  0  0  0  0  0  0  0  0  0
    8.4147  -15.9158   16.9254 C   0  0  0  0  0  0  0  0  0  0  0  0
    8.1832  -15.0423   16.0596 O   0  0  0  0  0  0  0  0  0  0  0  0
    8.4706  -15.7526   21.8701 C   0  0  0  0  0  0  0  0  0  0  0  0
    9.7064  -15.6287   21.8752 O   0  0  0  0  0  0  0  0  0  0  0  0
    9.4475  -16.8352   16.6039 O   0  0  0  0  0  0  0  0  0  0  0  0
    6.7868  -12.1531   27.2616 C   0  0  0  0  0  0  0  0  0  0  0  0
    6.4231  -11.6657   25.5623 S   0  0  0  0  0  0  0  0  0  0  0  0
    7.2333  -12.8017   24.3795 C   0  0  0  0  0  0  0  0  0  0  0  0
    7.6172  -14.0693   25.0934 C   0  0  0  0  0  0  0  0  0  0  0  0
    8.3388  -15.0578   24.2496 C   0  0  2  0  0  0  0  0  0  0  0  0
    7.7173  -15.3146   22.9804 N   0  0  0  0  0  0  0  0  0  0  0  0
    8.6936  -16.3159   24.9679 C   0  0  0  0  0  0  0  0  0  0  0  0
    7.8681  -17.2855   25.0763 O   0  0  0  0  0  0  0  0  0  0  0  0
   14.5473  -19.9454   25.3996 N   0  0  0  0  0  0  0  0  0  0  0  0
   13.1967  -20.0428   24.9981 C   0  0  0  0  0  0  0  0  0  0  0  0
   12.8944  -20.5135   23.8811 O   0  0  0  0  0  0  0  0  0  0  0  0
   12.1244  -19.5670   25.9453 C   0  0  0  0  0  0  0  0  0  0  0  0
   11.4756  -18.3304   25.4121 C   0  0  0  0  0  0  0  0  0  0  0  0
   10.3672  -17.7629   26.2263 C   0  0  2  0  0  0  0  0  0  0  0  0
    9.9549  -16.5138   25.5692 N   0  0  0  0  0  0  0  0  0  0  0  0
   10.7585  -17.5403   27.6103 C   0  0  0  0  0  0  0  0  0  0  0  0
   10.8682  -16.3824   28.0654 O   0  0  0  0  0  0  0  0  0  0  0  0
   11.0151  -18.6393   28.4412 O   0  0  0  0  0  0  0  0  0  0  0  0
  2  1  1  6
  2  3  1  0
  4  3  1  0
  5  4  1  0
  5  6  2  0
  7  2  1  0
  8  7  2  0
  9  5  1  0
 11 10  1  0
 11 12  1  0
 12 13  1  0
 14 13  1  1
 14 15  1  0
 15  7  1  0
 16 24  1  0
 16 14  1  0
 17 16  2  0
 19 18  1  0
 19 21  1  0
 20 19  2  0
 22 21  1  0
 23 22  1  6
 23 24  1  0
 25 27  1  0
 25 23  1  0
 26 25  2  0
M  END
$$$$
