GDC.pdb
     RDKit          3D

 19 18  0  0  1  0  0  0  0  0999 V2000
    6.3013  -16.6384   18.9684 N   0  0  0  0  0  0  0  0  0  0  0  0
    7.0293  -15.6150   19.6440 C   0  0  0  0  0  0  0  0  0  0  0  0
    7.3312  -15.9616   21.0573 C   0  0  0  0  0  0  0  0  0  0  0  0
    6.4650  -16.4535   21.8311 O   0  0  0  0  0  0  0  0  0  0  0  0
    8.6344  -15.7554   21.6234 N   0  0  0  0  0  0  0  0  0  0  0  0
    8.9753  -16.1174   22.9777 C   0  0  1  0  0  0  0  0  0  0  0  0
   10.3012  -16.8468   23.0628 C   0  0  0  0  0  0  0  0  0  0  0  0
   10.5860  -17.2638   24.4593 C   0  0  0  0  0  0  0  0  0  0  0  0
    9.6956  -17.5879   25.2715 O   0  0  0  0  0  0  0  0  0  0  0  0
    8.9285  -14.9066   23.8167 C   0  0  0  0  0  0  0  0  0  0  0  0
    9.7616  -13.9536   23.7242 O   0  0  0  0  0  0  0  0  0  0  0  0
   11.9106  -17.2869   24.8686 O   0  0  0  0  0  0  0  0  0  0  0  0
    7.8981  -14.7362   24.8221 N   0  0  0  0  0  0  0  0  0  0  0  0
    7.8497  -13.5985   25.6992 C   0  0  1  0  0  0  0  0  0  0  0  0
    6.4140  -13.1305   25.7569 C   0  0  0  0  0  0  0  0  0  0  0  0
    6.3462  -11.7222   26.9039 S   0  0  0  0  0  0  0  0  0  0  0  0
    8.2965  -13.9240   27.0833 C   0  0  0  0  0  0  0  0  0  0  0  0
    8.7205  -13.0090   28.0134 O   0  0  0  0  0  0  0  0  0  0  0  0
    8.2690  -15.1603   27.3903 O   0  0  0  0  0  0  0  0  0  0  0  0
  2  1  1  0
  3  5  1  0
  3  2  1  0
  4  3  2  0
  6  7  1  6
  6  5  1  0
  7  8  1  0
  8  9  2  0
  8 12  1  0
 10  6  1  0
 10 11  2  0
 13 10  1  0
 14 13  1  0
 14 15  1  1
 16 15  1  0
 17 14  1  0
 17 18  1  0
 19 17  2  0
M  END
$$$$
