GDC.pdb
     RDKit          3D

 19 18  0  0  1  0  0  0  0  0999 V2000
    7.1572  -18.6147   20.3264 N   0  0  0  0  0  0  0  0  0  0  0  0
    7.7957  -17.4116   20.7491 C   0  0  0  0  0  0  0  0  0  0  0  0
    8.7501  -17.6296   21.8673 C   0  0  0  0  0  0  0  0  0  0  0  0
    8.8116  -18.7197   22.4991 O   0  0  0  0  0  0  0  0  0  0  0  0
    9.6618  -16.6051   22.2923 N   0  0  0  0  0  0  0  0  0  0  0  0
   10.5865  -16.7730   23.3868 C   0  0  1  0  0  0  0  0  0  0  0  0
   12.0170  -16.9356   22.9128 C   0  0  0  0  0  0  0  0  0  0  0  0
   12.9046  -17.3273   24.0372 C   0  0  0  0  0  0  0  0  0  0  0  0
   13.0387  -18.5062   24.4242 O   0  0  0  0  0  0  0  0  0  0  0  0
   10.4148  -15.6511   24.3271 C   0  0  0  0  0  0  0  0  0  0  0  0
   10.5327  -14.4314   23.9965 O   0  0  0  0  0  0  0  0  0  0  0  0
   13.6113  -16.3233   24.6816 O   0  0  0  0  0  0  0  0  0  0  0  0
   10.0933  -15.8893   25.7205 N   0  0  0  0  0  0  0  0  0  0  0  0
   10.0362  -14.8345   26.6953 C   0  0  1  0  0  0  0  0  0  0  0  0
    8.6306  -14.2797   26.6820 C   0  0  0  0  0  0  0  0  0  0  0  0
    8.5598  -12.9469   27.9158 S   0  0  0  0  0  0  0  0  0  0  0  0
   10.3424  -15.3124   28.0735 C   0  0  0  0  0  0  0  0  0  0  0  0
   10.6411  -14.5058   29.1423 O   0  0  0  0  0  0  0  0  0  0  0  0
   10.3153  -16.5763   28.2327 O   0  0  0  0  0  0  0  0  0  0  0  0
  2  1  1  0
  3  5  1  0
  3  2  1  0
  4  3  2  0
  6  7  1  6
  6  5  1  0
  7  8  1  0
  8  9  2  0
  8 12  1  0
 10  6  1  0
 10 11  2  0
 13 10  1  0
 14 13  1  0
 14 15  1  1
 16 15  1  0
 17 14  1  0
 17 18  1  0
 19 17  2  0
M  END
$$$$
