GDC.pdb
     RDKit          3D

 19 18  0  0  1  0  0  0  0  0999 V2000
    7.4792  -12.9897   18.5531 N   0  0  0  0  0  0  0  0  0  0  0  0
    8.5722  -13.5421   19.2838 C   0  0  0  0  0  0  0  0  0  0  0  0
    8.1441  -14.2122   20.5394 C   0  0  0  0  0  0  0  0  0  0  0  0
    7.0034  -14.0302   21.0463 O   0  0  0  0  0  0  0  0  0  0  0  0
    9.0107  -15.1106   21.2490 N   0  0  0  0  0  0  0  0  0  0  0  0
    8.6374  -15.7627   22.4805 C   0  0  1  0  0  0  0  0  0  0  0  0
    9.4138  -17.0437   22.7125 C   0  0  0  0  0  0  0  0  0  0  0  0
    9.0227  -18.0840   21.7275 C   0  0  0  0  0  0  0  0  0  0  0  0
    8.4459  -17.8250   20.6515 O   0  0  0  0  0  0  0  0  0  0  0  0
    8.7731  -14.7980   23.5864 C   0  0  0  0  0  0  0  0  0  0  0  0
    9.8166  -14.1054   23.7920 O   0  0  0  0  0  0  0  0  0  0  0  0
    9.3166  -19.4044   22.0324 O   0  0  0  0  0  0  0  0  0  0  0  0
    7.6898  -14.5839   24.5256 N   0  0  0  0  0  0  0  0  0  0  0  0
    7.7790  -13.6491   25.6138 C   0  0  1  0  0  0  0  0  0  0  0  0
    6.4024  -13.0612   25.8213 C   0  0  0  0  0  0  0  0  0  0  0  0
    6.5155  -11.8842   27.2017 S   0  0  0  0  0  0  0  0  0  0  0  0
    8.2148  -14.2921   26.8858 C   0  0  0  0  0  0  0  0  0  0  0  0
    8.8698  -13.6560   27.9098 O   0  0  0  0  0  0  0  0  0  0  0  0
    7.9401  -15.5315   26.9941 O   0  0  0  0  0  0  0  0  0  0  0  0
  2  1  1  0
  3  5  1  0
  3  2  1  0
  4  3  2  0
  6  7  1  1
  6  5  1  0
  7  8  1  0
  8  9  2  0
  8 12  1  0
 10  6  1  0
 10 11  2  0
 13 10  1  0
 14 13  1  0
 14 15  1  1
 16 15  1  0
 17 14  1  0
 17 18  1  0
 19 17  2  0
M  END
$$$$
