GDC.pdb
     RDKit          3D

 19 18  0  0  1  0  0  0  0  0999 V2000
   11.6387  -14.8516   20.3018 N   0  0  0  0  0  0  0  0  0  0  0  0
   11.8567  -15.9657   21.1651 C   0  0  0  0  0  0  0  0  0  0  0  0
   11.0115  -15.9205   22.3866 C   0  0  0  0  0  0  0  0  0  0  0  0
   10.2567  -14.9445   22.6491 O   0  0  0  0  0  0  0  0  0  0  0  0
   11.0065  -16.9928   23.3414 N   0  0  0  0  0  0  0  0  0  0  0  0
   10.1008  -17.0496   24.4629 C   0  0  1  0  0  0  0  0  0  0  0  0
    9.7337  -18.4723   24.8355 C   0  0  0  0  0  0  0  0  0  0  0  0
    9.2518  -19.2218   23.6475 C   0  0  0  0  0  0  0  0  0  0  0  0
    8.2645  -18.8693   22.9705 O   0  0  0  0  0  0  0  0  0  0  0  0
   10.6878  -16.2933   25.5834 C   0  0  0  0  0  0  0  0  0  0  0  0
   11.9299  -16.2709   25.8433 O   0  0  0  0  0  0  0  0  0  0  0  0
    9.9405  -20.3696   23.2855 O   0  0  0  0  0  0  0  0  0  0  0  0
    9.8520  -15.5128   26.4744 N   0  0  0  0  0  0  0  0  0  0  0  0
   10.3707  -14.8370   27.6321 C   0  0  1  0  0  0  0  0  0  0  0  0
    9.3773  -13.7645   28.0148 C   0  0  0  0  0  0  0  0  0  0  0  0
    9.0447  -12.7747   26.5271 S   0  0  0  0  0  0  0  0  0  0  0  0
   10.5503  -15.7514   28.7954 C   0  0  0  0  0  0  0  0  0  0  0  0
   11.1623  -15.4174   29.9769 O   0  0  0  0  0  0  0  0  0  0  0  0
   10.0859  -16.9281   28.6428 O   0  0  0  0  0  0  0  0  0  0  0  0
  2  1  1  0
  3  5  1  0
  3  2  1  0
  4  3  2  0
  6  7  1  1
  6  5  1  0
  7  8  1  0
  8  9  2  0
  8 12  1  0
 10  6  1  0
 10 11  2  0
 13 10  1  0
 14 13  1  0
 14 15  1  1
 16 15  1  0
 17 14  1  0
 17 18  1  0
 19 17  2  0
M  END
$$$$
