GDC.pdb
     RDKit          3D

 19 18  0  0  1  0  0  0  0  0999 V2000
    7.3253  -13.0550   18.6477 N   0  0  0  0  0  0  0  0  0  0  0  0
    8.4654  -13.5478   19.3485 C   0  0  0  0  0  0  0  0  0  0  0  0
    8.1042  -14.2865   20.5865 C   0  0  0  0  0  0  0  0  0  0  0  0
    6.9353  -14.2779   21.0606 O   0  0  0  0  0  0  0  0  0  0  0  0
    9.0720  -15.0568   21.3155 N   0  0  0  0  0  0  0  0  0  0  0  0
    8.7570  -15.7903   22.5172 C   0  0  1  0  0  0  0  0  0  0  0  0
    9.6214  -17.0244   22.6823 C   0  0  0  0  0  0  0  0  0  0  0  0
    9.5359  -17.8936   21.4812 C   0  0  0  0  0  0  0  0  0  0  0  0
    8.5198  -18.5557   21.1869 O   0  0  0  0  0  0  0  0  0  0  0  0
    8.8382  -14.8715   23.6668 C   0  0  0  0  0  0  0  0  0  0  0  0
    9.8771  -14.2057   23.9635 O   0  0  0  0  0  0  0  0  0  0  0  0
   10.6481  -17.9659   20.6563 O   0  0  0  0  0  0  0  0  0  0  0  0
    7.7019  -14.6752   24.5454 N   0  0  0  0  0  0  0  0  0  0  0  0
    7.7413  -13.7943   25.6805 C   0  0  1  0  0  0  0  0  0  0  0  0
    6.3403  -13.2714   25.8981 C   0  0  0  0  0  0  0  0  0  0  0  0
    6.3969  -12.1373   27.3173 S   0  0  0  0  0  0  0  0  0  0  0  0
    8.1867  -14.4840   26.9244 C   0  0  0  0  0  0  0  0  0  0  0  0
    8.7805  -13.8718   27.9990 O   0  0  0  0  0  0  0  0  0  0  0  0
    7.9834  -15.7415   26.9552 O   0  0  0  0  0  0  0  0  0  0  0  0
  2  1  1  0
  3  5  1  0
  3  2  1  0
  4  3  2  0
  6  7  1  1
  6  5  1  0
  7  8  1  0
  8  9  2  0
  8 12  1  0
 10  6  1  0
 10 11  2  0
 13 10  1  0
 14 13  1  0
 14 15  1  1
 16 15  1  0
 17 14  1  0
 17 18  1  0
 19 17  2  0
M  END
$$$$
