GDC.pdb
     RDKit          3D

 19 18  0  0  1  0  0  0  0  0999 V2000
    7.2306  -17.2662   19.1188 N   0  0  0  0  0  0  0  0  0  0  0  0
    7.6591  -16.0842   19.7921 C   0  0  0  0  0  0  0  0  0  0  0  0
    7.7990  -16.2770   21.2590 C   0  0  0  0  0  0  0  0  0  0  0  0
    6.8035  -16.4433   22.0157 O   0  0  0  0  0  0  0  0  0  0  0  0
    9.0837  -16.2858   21.9002 N   0  0  0  0  0  0  0  0  0  0  0  0
    9.2530  -16.3026   23.3328 C   0  0  1  0  0  0  0  0  0  0  0  0
   10.6329  -16.7761   23.7443 C   0  0  0  0  0  0  0  0  0  0  0  0
   10.8124  -18.2164   23.4304 C   0  0  0  0  0  0  0  0  0  0  0  0
   11.8917  -18.7004   23.0324 O   0  0  0  0  0  0  0  0  0  0  0  0
    8.9189  -14.9690   23.8640 C   0  0  0  0  0  0  0  0  0  0  0  0
    9.4241  -13.8902   23.4262 O   0  0  0  0  0  0  0  0  0  0  0  0
    9.7180  -19.0529   23.5891 O   0  0  0  0  0  0  0  0  0  0  0  0
    7.9678  -14.8154   24.9472 N   0  0  0  0  0  0  0  0  0  0  0  0
    7.7515  -13.5630   25.6187 C   0  0  1  0  0  0  0  0  0  0  0  0
    6.2617  -13.4056   25.8169 C   0  0  0  0  0  0  0  0  0  0  0  0
    5.9925  -11.8405   26.7010 S   0  0  0  0  0  0  0  0  0  0  0  0
    8.4140  -13.5074   26.9526 C   0  0  0  0  0  0  0  0  0  0  0  0
    8.6741  -12.3607   27.6594 O   0  0  0  0  0  0  0  0  0  0  0  0
    8.7514  -14.6340   27.4430 O   0  0  0  0  0  0  0  0  0  0  0  0
  2  1  1  0
  3  5  1  0
  3  2  1  0
  4  3  2  0
  6  7  1  6
  6  5  1  0
  7  8  1  0
  8  9  2  0
  8 12  1  0
 10  6  1  0
 10 11  2  0
 13 10  1  0
 14 13  1  0
 14 15  1  1
 16 15  1  0
 17 14  1  0
 17 18  1  0
 19 17  2  0
M  END
$$$$
