GDC.pdb
     RDKit          3D

 19 18  0  0  1  0  0  0  0  0999 V2000
   12.0298  -14.4171   17.3423 N   0  0  0  0  0  0  0  0  0  0  0  0
   12.9671  -14.0204   18.3413 C   0  0  0  0  0  0  0  0  0  0  0  0
   13.3492  -15.1356   19.2463 C   0  0  0  0  0  0  0  0  0  0  0  0
   12.5128  -15.9827   19.6636 O   0  0  0  0  0  0  0  0  0  0  0  0
   14.7007  -15.3124   19.6977 N   0  0  0  0  0  0  0  0  0  0  0  0
   15.1009  -16.3585   20.6069 C   0  0  1  0  0  0  0  0  0  0  0  0
   16.5261  -16.8158   20.3675 C   0  0  0  0  0  0  0  0  0  0  0  0
   16.8590  -17.9793   21.2283 C   0  0  0  0  0  0  0  0  0  0  0  0
   17.6229  -17.9057   22.2125 O   0  0  0  0  0  0  0  0  0  0  0  0
   14.8669  -15.8997   21.9878 C   0  0  0  0  0  0  0  0  0  0  0  0
   15.4941  -14.9360   22.5251 O   0  0  0  0  0  0  0  0  0  0  0  0
   16.2882  -19.2021   20.9098 O   0  0  0  0  0  0  0  0  0  0  0  0
   13.8792  -16.5452   22.8301 N   0  0  0  0  0  0  0  0  0  0  0  0
   13.6232  -16.1321   24.1828 C   0  0  1  0  0  0  0  0  0  0  0  0
   12.1507  -15.8093   24.2880 C   0  0  0  0  0  0  0  0  0  0  0  0
   11.2307  -17.2948   23.7875 S   0  0  0  0  0  0  0  0  0  0  0  0
   13.9460  -17.1954   25.1762 C   0  0  0  0  0  0  0  0  0  0  0  0
   13.9674  -17.0259   26.5374 O   0  0  0  0  0  0  0  0  0  0  0  0
   14.2186  -18.3387   24.6844 O   0  0  0  0  0  0  0  0  0  0  0  0
  2  1  1  0
  3  5  1  0
  3  2  1  0
  4  3  2  0
  6  7  1  1
  6  5  1  0
  7  8  1  0
  8  9  2  0
  8 12  1  0
 10  6  1  0
 10 11  2  0
 13 10  1  0
 14 13  1  0
 14 15  1  6
 16 15  1  0
 17 14  1  0
 17 18  1  0
 19 17  2  0
M  END
$$$$
