GDC.pdb
     RDKit          3D

 19 18  0  0  1  0  0  0  0  0999 V2000
    6.7835  -16.7679   18.7400 N   0  0  0  0  0  0  0  0  0  0  0  0
    6.9938  -15.5418   19.4373 C   0  0  0  0  0  0  0  0  0  0  0  0
    7.2211  -15.7398   20.8926 C   0  0  0  0  0  0  0  0  0  0  0  0
    6.3127  -16.1449   21.6684 O   0  0  0  0  0  0  0  0  0  0  0  0
    8.4961  -15.4802   21.4997 N   0  0  0  0  0  0  0  0  0  0  0  0
    8.7879  -15.7705   22.8824 C   0  0  1  0  0  0  0  0  0  0  0  0
   10.1847  -16.3279   23.0717 C   0  0  0  0  0  0  0  0  0  0  0  0
   10.3347  -17.6272   22.3683 C   0  0  0  0  0  0  0  0  0  0  0  0
    9.5686  -18.5956   22.5494 O   0  0  0  0  0  0  0  0  0  0  0  0
    8.5374  -14.5587   23.6830 C   0  0  0  0  0  0  0  0  0  0  0  0
    8.6863  -13.3789   23.2394 O   0  0  0  0  0  0  0  0  0  0  0  0
   11.3835  -17.7579   21.4707 O   0  0  0  0  0  0  0  0  0  0  0  0
    8.0953  -14.6539   25.0603 N   0  0  0  0  0  0  0  0  0  0  0  0
    7.8927  -13.4994   25.8922 C   0  0  1  0  0  0  0  0  0  0  0  0
    6.4555  -13.0643   25.7227 C   0  0  0  0  0  0  0  0  0  0  0  0
    6.1988  -11.6090   26.7809 S   0  0  0  0  0  0  0  0  0  0  0  0
    8.1327  -13.7851   27.3353 C   0  0  0  0  0  0  0  0  0  0  0  0
    8.2355  -12.8381   28.3226 O   0  0  0  0  0  0  0  0  0  0  0  0
    8.2465  -15.0177   27.6371 O   0  0  0  0  0  0  0  0  0  0  0  0
  2  1  1  0
  3  5  1  0
  3  2  1  0
  4  3  2  0
  6  7  1  6
  6  5  1  0
  7  8  1  0
  8  9  2  0
  8 12  1  0
 10  6  1  0
 10 11  2  0
 13 10  1  0
 14 13  1  0
 14 15  1  1
 16 15  1  0
 17 14  1  0
 17 18  1  0
 19 17  2  0
M  END
$$$$
