GDC.pdb
     RDKit          3D

 19 18  0  0  1  0  0  0  0  0999 V2000
    6.2704  -16.9015   19.3513 N   0  0  0  0  0  0  0  0  0  0  0  0
    7.2561  -15.9609   19.7726 C   0  0  0  0  0  0  0  0  0  0  0  0
    7.6642  -16.1513   21.1888 C   0  0  0  0  0  0  0  0  0  0  0  0
    6.8962  -16.6616   22.0496 O   0  0  0  0  0  0  0  0  0  0  0  0
    8.9644  -15.7635   21.6585 N   0  0  0  0  0  0  0  0  0  0  0  0
    9.3417  -15.7848   23.0508 C   0  0  1  0  0  0  0  0  0  0  0  0
   10.8320  -15.9858   23.2408 C   0  0  0  0  0  0  0  0  0  0  0  0
   11.2962  -17.2023   22.5266 C   0  0  0  0  0  0  0  0  0  0  0  0
   10.8689  -18.3478   22.7775 O   0  0  0  0  0  0  0  0  0  0  0  0
    8.8385  -14.5589   23.6958 C   0  0  0  0  0  0  0  0  0  0  0  0
    9.0421  -13.3909   23.2430 O   0  0  0  0  0  0  0  0  0  0  0  0
   12.2538  -17.0436   21.5365 O   0  0  0  0  0  0  0  0  0  0  0  0
    8.0620  -14.6251   24.9182 N   0  0  0  0  0  0  0  0  0  0  0  0
    7.7911  -13.4699   25.7294 C   0  0  1  0  0  0  0  0  0  0  0  0
    6.2942  -13.2627   25.7389 C   0  0  0  0  0  0  0  0  0  0  0  0
    5.9462  -11.8569   26.8371 S   0  0  0  0  0  0  0  0  0  0  0  0
    8.2537  -13.6378   27.1363 C   0  0  0  0  0  0  0  0  0  0  0  0
    8.5048  -12.6137   28.0140 O   0  0  0  0  0  0  0  0  0  0  0  0
    8.4181  -14.8423   27.5179 O   0  0  0  0  0  0  0  0  0  0  0  0
  2  1  1  0
  3  5  1  0
  3  2  1  0
  4  3  2  0
  6  7  1  6
  6  5  1  0
  7  8  1  0
  8  9  2  0
  8 12  1  0
 10  6  1  0
 10 11  2  0
 13 10  1  0
 14 13  1  0
 14 15  1  1
 16 15  1  0
 17 14  1  0
 17 18  1  0
 19 17  2  0
M  END
$$$$
