GDC.pdb
     RDKit          3D

 19 18  0  0  1  0  0  0  0  0999 V2000
    7.4202  -13.2668   17.7961 N   0  0  0  0  0  0  0  0  0  0  0  0
    8.6780  -13.4554   18.4413 C   0  0  0  0  0  0  0  0  0  0  0  0
    8.6306  -14.4971   19.5001 C   0  0  0  0  0  0  0  0  0  0  0  0
    7.5465  -14.8916   20.0104 O   0  0  0  0  0  0  0  0  0  0  0  0
    9.8238  -15.1171   20.0033 N   0  0  0  0  0  0  0  0  0  0  0  0
    9.8108  -16.2311   20.9197 C   0  0  1  0  0  0  0  0  0  0  0  0
   10.8271  -17.2933   20.5501 C   0  0  0  0  0  0  0  0  0  0  0  0
   10.5263  -17.8702   19.2152 C   0  0  0  0  0  0  0  0  0  0  0  0
    9.5197  -18.5707   18.9837 O   0  0  0  0  0  0  0  0  0  0  0  0
    9.9857  -15.7180   22.2902 C   0  0  0  0  0  0  0  0  0  0  0  0
   11.0185  -15.0923   22.6810 O   0  0  0  0  0  0  0  0  0  0  0  0
   11.4176  -17.6122   18.1848 O   0  0  0  0  0  0  0  0  0  0  0  0
    8.9568  -15.9074   23.2937 N   0  0  0  0  0  0  0  0  0  0  0  0
    9.1268  -15.5103   24.6646 C   0  0  1  0  0  0  0  0  0  0  0  0
    7.7558  -15.2066   25.2228 C   0  0  0  0  0  0  0  0  0  0  0  0
    7.1088  -13.7657   24.3234 S   0  0  0  0  0  0  0  0  0  0  0  0
    9.7495  -16.5788   25.4965 C   0  0  0  0  0  0  0  0  0  0  0  0
   10.0879  -16.4544   26.8202 O   0  0  0  0  0  0  0  0  0  0  0  0
    9.9701  -17.6807   24.8959 O   0  0  0  0  0  0  0  0  0  0  0  0
  2  1  1  0
  3  5  1  0
  3  2  1  0
  4  3  2  0
  6  7  1  6
  6  5  1  0
  7  8  1  0
  8  9  2  0
  8 12  1  0
 10  6  1  0
 10 11  2  0
 13 10  1  0
 14 13  1  0
 14 15  1  1
 16 15  1  0
 17 14  1  0
 17 18  1  0
 19 17  2  0
M  END
$$$$
