GDC.pdb
     RDKit          3D

 19 18  0  0  1  0  0  0  0  0999 V2000
   12.1917  -20.5722   16.7609 N   0  0  0  0  0  0  0  0  0  0  0  0
   11.5559  -21.7796   17.1754 C   0  0  0  0  0  0  0  0  0  0  0  0
   11.0888  -21.7287   18.5853 C   0  0  0  0  0  0  0  0  0  0  0  0
   10.5546  -20.6997   19.0823 O   0  0  0  0  0  0  0  0  0  0  0  0
   11.2195  -22.8557   19.4652 N   0  0  0  0  0  0  0  0  0  0  0  0
   10.7729  -22.8448   20.8368 C   0  0  1  0  0  0  0  0  0  0  0  0
   10.2026  -24.1815   21.2677 C   0  0  0  0  0  0  0  0  0  0  0  0
    9.5886  -24.0838   22.6164 C   0  0  0  0  0  0  0  0  0  0  0  0
   10.2389  -23.8103   23.6459 O   0  0  0  0  0  0  0  0  0  0  0  0
   11.8834  -22.3892   21.6921 C   0  0  0  0  0  0  0  0  0  0  0  0
   13.0941  -22.7244   21.5115 O   0  0  0  0  0  0  0  0  0  0  0  0
    8.2252  -24.3126   22.7230 O   0  0  0  0  0  0  0  0  0  0  0  0
   11.6434  -21.5086   22.8184 N   0  0  0  0  0  0  0  0  0  0  0  0
   12.7057  -20.9723   23.6247 C   0  0  1  0  0  0  0  0  0  0  0  0
   12.3404  -19.5465   23.9669 C   0  0  0  0  0  0  0  0  0  0  0  0
   12.5435  -18.5551   22.4572 S   0  0  0  0  0  0  0  0  0  0  0  0
   12.8975  -21.7288   24.8946 C   0  0  0  0  0  0  0  0  0  0  0  0
   14.0676  -21.7933   25.6078 O   0  0  0  0  0  0  0  0  0  0  0  0
   11.8710  -22.3524   25.3200 O   0  0  0  0  0  0  0  0  0  0  0  0
  2  1  1  0
  3  5  1  0
  3  2  1  0
  4  3  2  0
  6  7  1  1
  6  5  1  0
  7  8  1  0
  8  9  2  0
  8 12  1  0
 10  6  1  0
 10 11  2  0
 13 10  1  0
 14 13  1  0
 14 15  1  1
 16 15  1  0
 17 14  1  0
 17 18  1  0
 19 17  2  0
M  END
$$$$
