GDC.pdb
     RDKit          3D

 19 18  0  0  1  0  0  0  0  0999 V2000
   10.8308  -17.3654   19.5991 N   0  0  0  0  0  0  0  0  0  0  0  0
   10.6660  -17.5253   21.0067 C   0  0  0  0  0  0  0  0  0  0  0  0
    9.4639  -16.8241   21.5281 C   0  0  0  0  0  0  0  0  0  0  0  0
    9.0749  -15.7170   21.0653 O   0  0  0  0  0  0  0  0  0  0  0  0
    8.6731  -17.3722   22.5938 N   0  0  0  0  0  0  0  0  0  0  0  0
    7.5490  -16.6837   23.1799 C   0  0  1  0  0  0  0  0  0  0  0  0
    6.5450  -17.6387   23.7944 C   0  0  0  0  0  0  0  0  0  0  0  0
    6.0344  -18.5938   22.7783 C   0  0  0  0  0  0  0  0  0  0  0  0
    5.4538  -18.2354   21.7334 O   0  0  0  0  0  0  0  0  0  0  0  0
    8.0542  -15.6836   24.1375 C   0  0  0  0  0  0  0  0  0  0  0  0
    9.1805  -15.7694   24.7161 O   0  0  0  0  0  0  0  0  0  0  0  0
    6.2160  -19.9477   23.0165 O   0  0  0  0  0  0  0  0  0  0  0  0
    7.2670  -14.5152   24.4793 N   0  0  0  0  0  0  0  0  0  0  0  0
    7.6113  -13.6373   25.5640 C   0  0  1  0  0  0  0  0  0  0  0  0
    6.4536  -12.6869   25.7639 C   0  0  0  0  0  0  0  0  0  0  0  0
    6.9461  -11.4896   27.0396 S   0  0  0  0  0  0  0  0  0  0  0  0
    7.8468  -14.3702   26.8403 C   0  0  0  0  0  0  0  0  0  0  0  0
    8.8595  -14.1078   27.7278 O   0  0  0  0  0  0  0  0  0  0  0  0
    7.0220  -15.3080   27.0925 O   0  0  0  0  0  0  0  0  0  0  0  0
  2  1  1  0
  3  5  1  0
  3  2  1  0
  4  3  2  0
  6  7  1  1
  6  5  1  0
  7  8  1  0
  8  9  2  0
  8 12  1  0
 10  6  1  0
 10 11  2  0
 13 10  1  0
 14 13  1  0
 14 15  1  1
 16 15  1  0
 17 14  1  0
 17 18  1  0
 19 17  2  0
M  END
$$$$
