GDC.pdb
     RDKit          3D

 19 18  0  0  1  0  0  0  0  0999 V2000
    7.9911  -17.6469   19.8539 N   0  0  0  0  0  0  0  0  0  0  0  0
    9.1280  -17.3693   20.6689 C   0  0  0  0  0  0  0  0  0  0  0  0
    8.7745  -17.1634   22.0977 C   0  0  0  0  0  0  0  0  0  0  0  0
    7.5833  -17.2033   22.5106 O   0  0  0  0  0  0  0  0  0  0  0  0
    9.7762  -16.9071   23.0939 N   0  0  0  0  0  0  0  0  0  0  0  0
    9.4693  -16.6841   24.4857 C   0  0  1  0  0  0  0  0  0  0  0  0
   10.5960  -17.1199   25.4012 C   0  0  0  0  0  0  0  0  0  0  0  0
   10.3880  -18.5143   25.8679 C   0  0  0  0  0  0  0  0  0  0  0  0
    9.8887  -19.4075   25.1534 O   0  0  0  0  0  0  0  0  0  0  0  0
    9.0938  -15.2704   24.6665 C   0  0  0  0  0  0  0  0  0  0  0  0
    9.8744  -14.2987   24.4272 O   0  0  0  0  0  0  0  0  0  0  0  0
   10.7692  -18.8247   27.1644 O   0  0  0  0  0  0  0  0  0  0  0  0
    7.7739  -14.9051   25.1419 N   0  0  0  0  0  0  0  0  0  0  0  0
    7.4504  -13.5789   25.5922 C   0  0  1  0  0  0  0  0  0  0  0  0
    5.9616  -13.5366   25.8474 C   0  0  0  0  0  0  0  0  0  0  0  0
    5.5495  -11.8507   26.3871 S   0  0  0  0  0  0  0  0  0  0  0  0
    8.1565  -13.2150   26.8533 C   0  0  0  0  0  0  0  0  0  0  0  0
    8.4246  -11.9353   27.2688 O   0  0  0  0  0  0  0  0  0  0  0  0
    8.5253  -14.1971   27.5765 O   0  0  0  0  0  0  0  0  0  0  0  0
  2  1  1  0
  3  5  1  0
  3  2  1  0
  4  3  2  0
  6  7  1  1
  6  5  1  0
  7  8  1  0
  8  9  2  0
  8 12  1  0
 10  6  1  0
 10 11  2  0
 13 10  1  0
 14 13  1  0
 14 15  1  1
 16 15  1  0
 17 14  1  0
 17 18  1  0
 19 17  2  0
M  END
$$$$
