REW.pdb
     RDKit          3D

 35 36  0  0  1  0  0  0  0  0999 V2000
   29.5940  -23.8218  -17.3033 N   0  0  0  0  0  0  0  0  0  0  0  0
   29.8633  -22.9767  -18.4132 C   0  0  0  0  0  0  0  0  0  0  0  0
   30.4356  -23.4736  -19.4527 N   0  0  0  0  0  0  0  0  0  0  0  0
   29.5056  -21.5998  -18.3749 N   0  0  0  0  0  0  0  0  0  0  0  0
   28.6259  -21.0585  -17.3353 C   0  0  0  0  0  0  0  0  0  0  0  0
   27.3513  -20.5988  -17.9724 C   0  0  0  0  0  0  0  0  0  0  0  0
   26.4315  -19.9381  -17.0230 C   0  0  0  0  0  0  0  0  0  0  0  0
   26.0021  -20.7868  -15.8935 C   0  0  2  0  0  0  0  0  0  0  0  0
   26.3626  -22.1692  -15.9862 N   0  0  0  0  0  0  0  0  0  0  0  0
   24.5241  -20.6716  -15.7066 C   0  0  0  0  0  0  0  0  0  0  0  0
   23.7196  -21.1127  -16.5929 O   0  0  0  0  0  0  0  0  0  0  0  0
   30.6992  -22.8502  -20.2274 N   0  0  0  0  0  0  0  0  0  0  0  0
   23.9546  -20.0857  -14.5749 C   0  0  1  0  0  0  0  0  0  0  0  0
   22.4961  -19.9555  -14.4302 C   0  0  0  0  0  0  0  0  0  0  0  0
   22.1037  -20.0430  -13.0177 C   0  0  0  0  0  0  0  0  0  0  0  0
   20.6772  -19.8646  -12.6439 C   0  0  0  0  0  0  0  0  0  0  0  0
   20.4167  -20.0537  -11.2104 O   0  0  0  0  0  0  0  0  0  0  0  0
   20.6492  -21.1167  -10.6017 C   0  0  0  0  0  0  0  0  0  0  0  0
   22.1362  -18.7409  -15.1703 O   0  0  0  0  0  0  0  0  0  0  0  0
   22.8455  -17.6745  -15.1806 O   0  0  0  0  0  0  0  0  0  0  0  0
   19.8829  -18.9829  -10.4901 N   0  0  0  0  0  0  0  0  0  0  0  0
   20.9432  -18.6372  -15.9614 C   0  0  2  0  0  0  0  0  0  0  0  0
   20.5430  -17.3663  -16.5976 C   0  0  0  0  0  0  0  0  0  0  0  0
   21.1705  -17.2921  -17.9607 C   0  0  0  0  0  0  0  0  0  0  0  0
   20.8741  -16.0509  -18.6631 C   0  0  0  0  0  0  0  0  0  0  0  0
   21.5394  -14.8242  -18.4920 N   0  0  0  0  0  0  0  0  0  0  0  0
   20.9733  -13.8897  -19.2624 C   0  0  0  0  0  0  0  0  0  0  0  0
   19.9480  -14.4143  -19.9590 C   0  0  0  0  0  0  0  0  0  0  0  0
   19.0797  -13.8692  -20.8891 C   0  0  0  0  0  0  0  0  0  0  0  0
   18.1416  -14.7132  -21.4432 C   0  0  0  0  0  0  0  0  0  0  0  0
   18.0527  -16.0330  -21.1054 C   0  0  0  0  0  0  0  0  0  0  0  0
   18.9296  -16.5450  -20.1764 C   0  0  0  0  0  0  0  0  0  0  0  0
   19.8871  -15.7527  -19.5877 C   0  0  0  0  0  0  0  0  0  0  0  0
   19.1078  -17.1620  -16.6362 O   0  0  0  0  0  0  0  0  0  0  0  0
   18.1725  -18.1685  -16.5832 O   0  0  0  0  0  0  0  0  0  0  0  0
  2  3  2  0
  2  1  1  0
  4  2  1  0
  5  4  1  0
  6  5  1  0
  7  6  1  0
  8  7  1  0
  8  9  1  6
 10  8  1  0
 10 11  2  0
 12 10  1  0
 13 12  1  0
 13 18  1  0
 13 14  1  6
 15 14  1  0
 16 17  2  0
 16 15  1  0
 18 21  1  0
 18 19  2  0
 20 16  1  0
 21 22  1  0
 22 23  1  6
 23 24  1  0
 24 32  1  0
 25 26  1  0
 25 24  2  0
 26 27  1  0
 27 32  2  0
 27 28  1  0
 28 29  2  0
 29 30  1  0
 31 30  2  0
 32 31  1  0
 33 22  1  0
 33 34  1  0
 35 33  2  0
M  END
$$$$
