REW.pdb
     RDKit          3D

 35 36  0  0  1  0  0  0  0  0999 V2000
   31.0444  -24.0576  -18.9471 N   0  0  0  0  0  0  0  0  0  0  0  0
   30.9050  -24.8199  -17.7563 C   0  0  0  0  0  0  0  0  0  0  0  0
   31.7190  -25.7917  -17.5375 N   0  0  0  0  0  0  0  0  0  0  0  0
   29.8789  -24.5128  -16.8193 N   0  0  0  0  0  0  0  0  0  0  0  0
   28.9767  -23.3733  -17.0071 C   0  0  0  0  0  0  0  0  0  0  0  0
   29.7542  -22.1067  -16.8256 C   0  0  0  0  0  0  0  0  0  0  0  0
   29.1648  -21.2016  -15.8169 C   0  0  0  0  0  0  0  0  0  0  0  0
   27.6885  -21.1827  -15.7977 C   0  0  2  0  0  0  0  0  0  0  0  0
   27.0621  -20.5989  -16.9450 N   0  0  0  0  0  0  0  0  0  0  0  0
   27.2068  -20.4904  -14.5641 C   0  0  0  0  0  0  0  0  0  0  0  0
   27.4083  -19.2418  -14.3977 O   0  0  0  0  0  0  0  0  0  0  0  0
   31.6257  -26.3401  -16.6721 N   0  0  0  0  0  0  0  0  0  0  0  0
   26.5245  -21.1593  -13.5466 C   0  0  2  0  0  0  0  0  0  0  0  0
   25.9445  -20.4330  -12.4059 C   0  0  0  0  0  0  0  0  0  0  0  0
   24.6500  -19.8423  -12.7695 C   0  0  0  0  0  0  0  0  0  0  0  0
   23.5185  -20.7323  -13.1357 C   0  0  0  0  0  0  0  0  0  0  0  0
   22.2724  -20.0102  -13.4263 O   0  0  0  0  0  0  0  0  0  0  0  0
   22.1512  -19.1917  -14.3589 C   0  0  0  0  0  0  0  0  0  0  0  0
   25.9793  -21.3762  -11.2827 O   0  0  0  0  0  0  0  0  0  0  0  0
   25.7271  -22.6271  -11.3926 O   0  0  0  0  0  0  0  0  0  0  0  0
   21.1625  -20.2572  -12.6153 N   0  0  0  0  0  0  0  0  0  0  0  0
   26.3051  -20.9780   -9.9428 C   0  0  2  0  0  0  0  0  0  0  0  0
   25.7456  -21.6769   -8.7687 C   0  0  0  0  0  0  0  0  0  0  0  0
   26.7545  -21.6323   -7.6562 C   0  0  0  0  0  0  0  0  0  0  0  0
   27.0439  -20.2807   -7.1968 C   0  0  0  0  0  0  0  0  0  0  0  0
   26.5960  -19.0898   -7.7950 N   0  0  0  0  0  0  0  0  0  0  0  0
   27.0917  -18.0371   -7.1366 C   0  0  0  0  0  0  0  0  0  0  0  0
   27.8606  -18.4455   -6.1102 C   0  0  0  0  0  0  0  0  0  0  0  0
   28.5628  -17.7513   -5.1400 C   0  0  0  0  0  0  0  0  0  0  0  0
   29.2381  -18.4975   -4.1984 C   0  0  0  0  0  0  0  0  0  0  0  0
   29.2301  -19.8626   -4.2016 C   0  0  0  0  0  0  0  0  0  0  0  0
   28.5234  -20.5239   -5.1801 C   0  0  0  0  0  0  0  0  0  0  0  0
   27.8304  -19.8350   -6.1477 C   0  0  0  0  0  0  0  0  0  0  0  0
   24.4468  -21.1783   -8.3596 O   0  0  0  0  0  0  0  0  0  0  0  0
   23.6188  -21.8012   -7.4558 O   0  0  0  0  0  0  0  0  0  0  0  0
  2  3  2  0
  2  1  1  0
  4  2  1  0
  5  4  1  0
  6  5  1  0
  7  6  1  0
  8  7  1  0
  8  9  1  6
 10  8  1  0
 10 11  2  0
 12 10  1  0
 13 12  1  0
 13 18  1  0
 13 14  1  6
 15 14  1  0
 16 17  2  0
 16 15  1  0
 18 21  1  0
 18 19  2  0
 20 16  1  0
 21 22  1  0
 22 23  1  6
 23 24  1  0
 24 32  1  0
 25 26  1  0
 25 24  2  0
 26 27  1  0
 27 32  2  0
 27 28  1  0
 28 29  2  0
 29 30  1  0
 31 30  2  0
 32 31  1  0
 33 22  1  0
 33 34  1  0
 35 33  2  0
M  END
$$$$
