REW.pdb
     RDKit          3D

 35 36  0  0  1  0  0  0  0  0999 V2000
   27.4181  -26.4000  -16.4663 N   0  0  0  0  0  0  0  0  0  0  0  0
   28.3550  -27.0660  -17.3014 C   0  0  0  0  0  0  0  0  0  0  0  0
   27.9377  -27.9823  -18.1021 N   0  0  0  0  0  0  0  0  0  0  0  0
   29.7356  -26.7245  -17.2519 N   0  0  0  0  0  0  0  0  0  0  0  0
   30.2130  -25.5377  -16.5368 C   0  0  0  0  0  0  0  0  0  0  0  0
   30.6286  -24.5051  -17.5382 C   0  0  0  0  0  0  0  0  0  0  0  0
   30.2963  -23.1260  -17.1239 C   0  0  0  0  0  0  0  0  0  0  0  0
   28.9021  -22.7227  -17.3960 C   0  0  2  0  0  0  0  0  0  0  0  0
   28.6485  -22.2227  -18.7133 N   0  0  0  0  0  0  0  0  0  0  0  0
   28.4617  -21.7108  -16.3886 C   0  0  0  0  0  0  0  0  0  0  0  0
   29.2245  -20.7415  -16.0632 O   0  0  0  0  0  0  0  0  0  0  0  0
   28.6239  -28.5573  -18.6088 N   0  0  0  0  0  0  0  0  0  0  0  0
   27.2165  -21.7705  -15.7606 C   0  0  2  0  0  0  0  0  0  0  0  0
   26.8106  -20.7657  -14.7652 C   0  0  0  0  0  0  0  0  0  0  0  0
   25.9397  -19.7523  -15.3746 C   0  0  0  0  0  0  0  0  0  0  0  0
   24.6268  -20.1606  -15.9365 C   0  0  0  0  0  0  0  0  0  0  0  0
   23.8701  -19.0500  -16.5305 O   0  0  0  0  0  0  0  0  0  0  0  0
   24.1886  -18.4926  -17.5993 C   0  0  0  0  0  0  0  0  0  0  0  0
   26.2857  -21.5305  -13.6285 O   0  0  0  0  0  0  0  0  0  0  0  0
   25.7200  -22.6744  -13.7378 O   0  0  0  0  0  0  0  0  0  0  0  0
   22.7302  -18.5970  -15.8629 N   0  0  0  0  0  0  0  0  0  0  0  0
   26.3615  -21.0614  -12.2743 C   0  0  2  0  0  0  0  0  0  0  0  0
   25.5174  -21.6344  -11.2070 C   0  0  0  0  0  0  0  0  0  0  0  0
   26.3963  -22.0105  -10.0479 C   0  0  0  0  0  0  0  0  0  0  0  0
   26.6311  -20.9094   -9.1238 C   0  0  0  0  0  0  0  0  0  0  0  0
   25.8235  -19.7682   -8.9742 N   0  0  0  0  0  0  0  0  0  0  0  0
   26.3651  -18.9444   -8.0713 C   0  0  0  0  0  0  0  0  0  0  0  0
   27.5093  -19.4640   -7.5890 C   0  0  0  0  0  0  0  0  0  0  0  0
   28.4083  -19.0121   -6.6384 C   0  0  0  0  0  0  0  0  0  0  0  0
   29.4853  -19.8243   -6.3559 C   0  0  0  0  0  0  0  0  0  0  0  0
   29.6788  -21.0263   -6.9735 C   0  0  0  0  0  0  0  0  0  0  0  0
   28.7678  -21.4475   -7.9153 C   0  0  0  0  0  0  0  0  0  0  0  0
   27.6734  -20.6810   -8.2410 C   0  0  0  0  0  0  0  0  0  0  0  0
   24.4166  -20.7766  -10.8126 O   0  0  0  0  0  0  0  0  0  0  0  0
   23.3683  -21.1668  -10.0130 O   0  0  0  0  0  0  0  0  0  0  0  0
  2  3  2  0
  2  1  1  0
  4  2  1  0
  5  4  1  0
  6  5  1  0
  7  6  1  0
  8  7  1  0
  8  9  1  6
 10  8  1  0
 10 11  2  0
 12 10  1  0
 13 12  1  0
 13 18  1  0
 13 14  1  6
 15 14  1  0
 16 17  2  0
 16 15  1  0
 18 21  1  0
 18 19  2  0
 20 16  1  0
 21 22  1  0
 22 23  1  6
 23 24  1  0
 24 32  1  0
 25 26  1  0
 25 24  2  0
 26 27  1  0
 27 32  2  0
 27 28  1  0
 28 29  2  0
 29 30  1  0
 31 30  2  0
 32 31  1  0
 33 22  1  0
 33 34  1  0
 35 33  2  0
M  END
$$$$
