REW.pdb
     RDKit          3D

 35 36  0  0  1  0  0  0  0  0999 V2000
   13.1342  -21.0423  -16.1306 N   0  0  0  0  0  0  0  0  0  0  0  0
   11.9916  -20.2178  -16.3128 C   0  0  0  0  0  0  0  0  0  0  0  0
   10.8576  -20.6098  -15.8489 N   0  0  0  0  0  0  0  0  0  0  0  0
   12.1004  -18.9760  -16.9995 N   0  0  0  0  0  0  0  0  0  0  0  0
   13.4007  -18.3949  -17.3444 C   0  0  0  0  0  0  0  0  0  0  0  0
   13.5930  -17.1380  -16.5537 C   0  0  0  0  0  0  0  0  0  0  0  0
   14.8511  -16.4335  -16.8777 C   0  0  0  0  0  0  0  0  0  0  0  0
   15.9458  -17.3121  -17.3359 C   0  0  2  0  0  0  0  0  0  0  0  0
   16.0934  -18.5422  -16.6185 N   0  0  0  0  0  0  0  0  0  0  0  0
   17.2396  -16.5649  -17.3099 C   0  0  0  0  0  0  0  0  0  0  0  0
   17.7149  -16.1245  -16.2111 O   0  0  0  0  0  0  0  0  0  0  0  0
   10.0236  -20.0274  -16.0022 N   0  0  0  0  0  0  0  0  0  0  0  0
   17.9832  -16.3125  -18.4639 C   0  0  1  0  0  0  0  0  0  0  0  0
   19.1823  -15.4603  -18.4325 C   0  0  0  0  0  0  0  0  0  0  0  0
   20.3292  -16.1538  -19.0330 C   0  0  0  0  0  0  0  0  0  0  0  0
   21.6146  -15.4286  -19.2009 C   0  0  0  0  0  0  0  0  0  0  0  0
   22.5923  -15.7115  -18.1413 O   0  0  0  0  0  0  0  0  0  0  0  0
   22.7206  -16.8282  -17.6018 C   0  0  0  0  0  0  0  0  0  0  0  0
   18.7684  -14.1805  -19.0183 O   0  0  0  0  0  0  0  0  0  0  0  0
   17.7274  -14.0335  -19.7499 O   0  0  0  0  0  0  0  0  0  0  0  0
   23.4254  -14.6735  -17.7183 N   0  0  0  0  0  0  0  0  0  0  0  0
   19.5003  -12.9618  -18.8205 C   0  0  1  0  0  0  0  0  0  0  0  0
   19.0886  -11.6975  -19.4623 C   0  0  0  0  0  0  0  0  0  0  0  0
   18.5018  -12.0104  -20.8096 C   0  0  0  0  0  0  0  0  0  0  0  0
   18.1057  -10.8227  -21.5539 C   0  0  0  0  0  0  0  0  0  0  0  0
   18.9094   -9.6964  -21.8034 N   0  0  0  0  0  0  0  0  0  0  0  0
   18.2073   -8.7777  -22.4745 C   0  0  0  0  0  0  0  0  0  0  0  0
   16.9556   -9.2176  -22.7014 C   0  0  0  0  0  0  0  0  0  0  0  0
   15.8768   -8.6545  -23.3611 C   0  0  0  0  0  0  0  0  0  0  0  0
   14.7239   -9.4059  -23.4356 C   0  0  0  0  0  0  0  0  0  0  0  0
   14.6256  -10.6536  -22.8902 C   0  0  0  0  0  0  0  0  0  0  0  0
   15.7154  -11.1856  -22.2395 C   0  0  0  0  0  0  0  0  0  0  0  0
   16.8933  -10.4842  -22.1313 C   0  0  0  0  0  0  0  0  0  0  0  0
   18.2017  -10.8923  -18.6448 O   0  0  0  0  0  0  0  0  0  0  0  0
   17.6526  -11.2991  -17.4518 O   0  0  0  0  0  0  0  0  0  0  0  0
  2  3  2  0
  2  1  1  0
  4  2  1  0
  5  4  1  0
  6  5  1  0
  7  6  1  0
  8  7  1  0
  8  9  1  1
 10  8  1  0
 10 11  2  0
 12 10  1  0
 13 12  1  0
 13 18  1  0
 13 14  1  1
 15 14  1  0
 16 17  2  0
 16 15  1  0
 18 21  1  0
 18 19  2  0
 20 16  1  0
 21 22  1  0
 22 23  1  1
 23 24  1  0
 24 32  1  0
 25 26  1  0
 25 24  2  0
 26 27  1  0
 27 32  2  0
 27 28  1  0
 28 29  2  0
 29 30  1  0
 31 30  2  0
 32 31  1  0
 33 22  1  0
 33 34  1  0
 35 33  2  0
M  END
$$$$
