REW.pdb
     RDKit          3D

 35 36  0  0  1  0  0  0  0  0999 V2000
   18.5598  -18.4073  -17.7831 N   0  0  0  0  0  0  0  0  0  0  0  0
   19.0781  -18.1307  -19.0767 C   0  0  0  0  0  0  0  0  0  0  0  0
   18.7458  -18.8921  -20.0590 N   0  0  0  0  0  0  0  0  0  0  0  0
   19.9529  -17.0273  -19.2825 N   0  0  0  0  0  0  0  0  0  0  0  0
   21.1500  -16.8266  -18.4614 C   0  0  0  0  0  0  0  0  0  0  0  0
   20.7377  -16.2676  -17.1349 C   0  0  0  0  0  0  0  0  0  0  0  0
   21.7841  -15.4373  -16.5027 C   0  0  0  0  0  0  0  0  0  0  0  0
   23.0787  -16.1216  -16.3127 C   0  0  2  0  0  0  0  0  0  0  0  0
   23.5941  -16.8010  -17.4627 N   0  0  0  0  0  0  0  0  0  0  0  0
   22.9814  -17.0820  -15.1721 C   0  0  0  0  0  0  0  0  0  0  0  0
   22.6070  -16.6867  -14.0184 O   0  0  0  0  0  0  0  0  0  0  0  0
   19.0968  -18.6777  -21.0019 N   0  0  0  0  0  0  0  0  0  0  0  0
   23.2897  -18.4369  -15.3040 C   0  0  2  0  0  0  0  0  0  0  0  0
   23.2727  -19.3438  -14.1455 C   0  0  0  0  0  0  0  0  0  0  0  0
   22.1893  -20.3274  -14.2707 C   0  0  0  0  0  0  0  0  0  0  0  0
   20.9080  -20.0971  -13.5555 C   0  0  0  0  0  0  0  0  0  0  0  0
   20.8645  -20.7017  -12.2171 O   0  0  0  0  0  0  0  0  0  0  0  0
   21.0311  -20.0566  -11.1633 C   0  0  0  0  0  0  0  0  0  0  0  0
   24.6459  -19.8449  -14.0203 O   0  0  0  0  0  0  0  0  0  0  0  0
   25.5298  -19.7433  -14.9417 O   0  0  0  0  0  0  0  0  0  0  0  0
   20.6197  -22.0734  -12.1207 N   0  0  0  0  0  0  0  0  0  0  0  0
   25.1298  -20.5005  -12.8388 C   0  0  2  0  0  0  0  0  0  0  0  0
   26.3210  -21.3724  -12.8688 C   0  0  0  0  0  0  0  0  0  0  0  0
   26.5489  -21.9233  -11.4897 C   0  0  0  0  0  0  0  0  0  0  0  0
   27.6140  -21.2413  -10.7672 C   0  0  0  0  0  0  0  0  0  0  0  0
   28.9159  -21.0042  -11.2421 N   0  0  0  0  0  0  0  0  0  0  0  0
   29.6401  -20.3968  -10.2967 C   0  0  0  0  0  0  0  0  0  0  0  0
   28.8984  -20.2021   -9.1905 C   0  0  0  0  0  0  0  0  0  0  0  0
   29.1818  -19.6070   -7.9732 C   0  0  0  0  0  0  0  0  0  0  0  0
   28.1605  -19.5485   -7.0496 C   0  0  0  0  0  0  0  0  0  0  0  0
   26.9154  -20.0489   -7.3008 C   0  0  0  0  0  0  0  0  0  0  0  0
   26.6652  -20.6357   -8.5203 C   0  0  0  0  0  0  0  0  0  0  0  0
   27.6437  -20.7249   -9.4825 C   0  0  0  0  0  0  0  0  0  0  0  0
   26.2550  -22.4124  -13.8774 O   0  0  0  0  0  0  0  0  0  0  0  0
   25.0920  -22.8897  -14.4342 O   0  0  0  0  0  0  0  0  0  0  0  0
  2  3  2  0
  2  1  1  0
  4  2  1  0
  5  4  1  0
  6  5  1  0
  7  6  1  0
  8  7  1  0
  8  9  1  6
 10  8  1  0
 10 11  2  0
 12 10  1  0
 13 12  1  0
 13 18  1  0
 13 14  1  1
 15 14  1  0
 16 17  2  0
 16 15  1  0
 18 21  1  0
 18 19  2  0
 20 16  1  0
 21 22  1  0
 22 23  1  1
 23 24  1  0
 24 32  1  0
 25 26  1  0
 25 24  2  0
 26 27  1  0
 27 32  2  0
 27 28  1  0
 28 29  2  0
 29 30  1  0
 31 30  2  0
 32 31  1  0
 33 22  1  0
 33 34  1  0
 35 33  2  0
M  END
$$$$
