REW.pdb
     RDKit          3D

 35 36  0  0  1  0  0  0  0  0999 V2000
   16.6916  -25.5770   -3.3875 N   0  0  0  0  0  0  0  0  0  0  0  0
   17.3508  -25.9357   -2.1810 C   0  0  0  0  0  0  0  0  0  0  0  0
   18.5902  -26.2776   -2.2239 N   0  0  0  0  0  0  0  0  0  0  0  0
   16.6494  -25.9173   -0.9430 N   0  0  0  0  0  0  0  0  0  0  0  0
   15.2222  -25.5931   -0.8680 C   0  0  0  0  0  0  0  0  0  0  0  0
   15.0714  -24.1131   -0.6986 C   0  0  0  0  0  0  0  0  0  0  0  0
   14.2363  -23.7424    0.4629 C   0  0  0  0  0  0  0  0  0  0  0  0
   13.3176  -22.6117    0.2221 C   0  0  2  0  0  0  0  0  0  0  0  0
   12.8856  -22.4431   -1.1323 N   0  0  0  0  0  0  0  0  0  0  0  0
   13.9396  -21.3420    0.7056 C   0  0  0  0  0  0  0  0  0  0  0  0
   14.7723  -20.7066   -0.0225 O   0  0  0  0  0  0  0  0  0  0  0  0
   19.0492  -26.6117   -1.3661 N   0  0  0  0  0  0  0  0  0  0  0  0
   13.6496  -20.7934    1.9559 C   0  0  2  0  0  0  0  0  0  0  0  0
   14.0813  -19.4335    2.3156 C   0  0  0  0  0  0  0  0  0  0  0  0
   12.9687  -18.6714    2.8974 C   0  0  0  0  0  0  0  0  0  0  0  0
   13.2364  -17.3507    3.5221 C   0  0  0  0  0  0  0  0  0  0  0  0
   12.0425  -16.7224    4.1039 O   0  0  0  0  0  0  0  0  0  0  0  0
   11.1602  -17.3546    4.7173 C   0  0  0  0  0  0  0  0  0  0  0  0
   15.2927  -19.6084    3.1245 O   0  0  0  0  0  0  0  0  0  0  0  0
   15.4704  -20.5764    3.9441 O   0  0  0  0  0  0  0  0  0  0  0  0
   11.8901  -15.3410    3.9651 N   0  0  0  0  0  0  0  0  0  0  0  0
   16.4030  -18.7007    3.0683 C   0  0  2  0  0  0  0  0  0  0  0  0
   17.5041  -18.7610    4.0501 C   0  0  0  0  0  0  0  0  0  0  0  0
   18.5243  -17.7172    3.6938 C   0  0  0  0  0  0  0  0  0  0  0  0
   18.2873  -16.4360    4.3449 C   0  0  0  0  0  0  0  0  0  0  0  0
   17.7746  -16.2487    5.6406 N   0  0  0  0  0  0  0  0  0  0  0  0
   17.6444  -14.9422    5.8924 C   0  0  0  0  0  0  0  0  0  0  0  0
   18.0445  -14.2178    4.8309 C   0  0  0  0  0  0  0  0  0  0  0  0
   18.1211  -12.8532    4.6114 C   0  0  0  0  0  0  0  0  0  0  0  0
   18.6155  -12.4396    3.3932 C   0  0  0  0  0  0  0  0  0  0  0  0
   19.0183  -13.3182    2.4291 C   0  0  0  0  0  0  0  0  0  0  0  0
   18.9286  -14.6690    2.6771 C   0  0  0  0  0  0  0  0  0  0  0  0
   18.4428  -15.1433    3.8730 C   0  0  0  0  0  0  0  0  0  0  0  0
   17.0616  -18.6565    5.4272 O   0  0  0  0  0  0  0  0  0  0  0  0
   17.7245  -19.1946    6.5050 O   0  0  0  0  0  0  0  0  0  0  0  0
  2  3  2  0
  2  1  1  0
  4  2  1  0
  5  4  1  0
  6  5  1  0
  7  6  1  0
  8  7  1  0
  8  9  1  6
 10  8  1  0
 10 11  2  0
 12 10  1  0
 13 12  1  0
 13 18  1  0
 13 14  1  1
 15 14  1  0
 16 17  2  0
 16 15  1  0
 18 21  1  0
 18 19  2  0
 20 16  1  0
 21 22  1  0
 22 23  1  6
 23 24  1  0
 24 32  1  0
 25 26  1  0
 25 24  2  0
 26 27  1  0
 27 32  2  0
 27 28  1  0
 28 29  2  0
 29 30  1  0
 31 30  2  0
 32 31  1  0
 33 22  1  0
 33 34  1  0
 35 33  2  0
M  END
$$$$
