REW.pdb
     RDKit          3D

 35 36  0  0  1  0  0  0  0  0999 V2000
   27.8367  -18.2177  -21.2386 N   0  0  0  0  0  0  0  0  0  0  0  0
   27.7008  -19.4734  -20.5878 C   0  0  0  0  0  0  0  0  0  0  0  0
   28.3960  -20.4720  -21.0053 N   0  0  0  0  0  0  0  0  0  0  0  0
   26.8077  -19.6240  -19.4902 N   0  0  0  0  0  0  0  0  0  0  0  0
   25.9348  -18.5327  -19.0488 C   0  0  0  0  0  0  0  0  0  0  0  0
   26.6269  -17.7702  -17.9618 C   0  0  0  0  0  0  0  0  0  0  0  0
   25.9876  -17.9324  -16.6394 C   0  0  0  0  0  0  0  0  0  0  0  0
   26.1641  -19.2666  -16.0321 C   0  0  2  0  0  0  0  0  0  0  0  0
   25.7545  -20.3740  -16.8417 N   0  0  0  0  0  0  0  0  0  0  0  0
   25.4536  -19.3234  -14.7187 C   0  0  0  0  0  0  0  0  0  0  0  0
   25.5419  -18.3587  -13.8887 O   0  0  0  0  0  0  0  0  0  0  0  0
   28.2961  -21.3836  -20.5392 N   0  0  0  0  0  0  0  0  0  0  0  0
   24.6709  -20.4139  -14.3359 C   0  0  2  0  0  0  0  0  0  0  0  0
   23.8760  -20.3905  -13.0980 C   0  0  0  0  0  0  0  0  0  0  0  0
   22.6325  -21.1542  -13.2638 C   0  0  0  0  0  0  0  0  0  0  0  0
   21.5858  -20.6525  -14.1907 C   0  0  0  0  0  0  0  0  0  0  0  0
   21.0393  -21.6890  -15.0771 O   0  0  0  0  0  0  0  0  0  0  0  0
   20.9557  -21.5638  -16.3148 C   0  0  0  0  0  0  0  0  0  0  0  0
   24.7980  -20.8000  -12.0328 O   0  0  0  0  0  0  0  0  0  0  0  0
   25.2546  -21.9895  -11.9019 O   0  0  0  0  0  0  0  0  0  0  0  0
   20.5924  -22.8805  -14.5016 N   0  0  0  0  0  0  0  0  0  0  0  0
   25.2797  -19.8932  -11.0301 C   0  0  1  0  0  0  0  0  0  0  0  0
   26.0152  -20.3705   -9.8422 C   0  0  0  0  0  0  0  0  0  0  0  0
   27.1791  -19.4528   -9.5959 C   0  0  0  0  0  0  0  0  0  0  0  0
   27.8278  -19.6792   -8.3116 C   0  0  0  0  0  0  0  0  0  0  0  0
   27.4485  -19.1132   -7.0818 N   0  0  0  0  0  0  0  0  0  0  0  0
   28.2948  -19.5025   -6.1228 C   0  0  0  0  0  0  0  0  0  0  0  0
   29.2409  -20.3125   -6.6330 C   0  0  0  0  0  0  0  0  0  0  0  0
   30.3070  -20.9784   -6.0530 C   0  0  0  0  0  0  0  0  0  0  0  0
   31.0797  -21.7663   -6.8785 C   0  0  0  0  0  0  0  0  0  0  0  0
   30.8251  -21.9001   -8.2130 C   0  0  0  0  0  0  0  0  0  0  0  0
   29.7584  -21.2241   -8.7603 C   0  0  0  0  0  0  0  0  0  0  0  0
   28.9511  -20.4219   -7.9883 C   0  0  0  0  0  0  0  0  0  0  0  0
   25.1800  -20.5341   -8.6680 O   0  0  0  0  0  0  0  0  0  0  0  0
   25.4304  -21.4203   -7.6470 O   0  0  0  0  0  0  0  0  0  0  0  0
  2  3  2  0
  2  1  1  0
  4  2  1  0
  5  4  1  0
  6  5  1  0
  7  6  1  0
  8  7  1  0
  8  9  1  6
 10  8  1  0
 10 11  2  0
 12 10  1  0
 13 12  1  0
 13 18  1  0
 13 14  1  6
 15 14  1  0
 16 17  2  0
 16 15  1  0
 18 21  1  0
 18 19  2  0
 20 16  1  0
 21 22  1  0
 22 23  1  1
 23 24  1  0
 24 32  1  0
 25 26  1  0
 25 24  2  0
 26 27  1  0
 27 32  2  0
 27 28  1  0
 28 29  2  0
 29 30  1  0
 31 30  2  0
 32 31  1  0
 33 22  1  0
 33 34  1  0
 35 33  2  0
M  END
$$$$
