REW.pdb
     RDKit          3D

 35 36  0  0  1  0  0  0  0  0999 V2000
   31.3770  -24.4471  -17.8993 N   0  0  0  0  0  0  0  0  0  0  0  0
   30.7070  -24.9024  -16.7320 C   0  0  0  0  0  0  0  0  0  0  0  0
   31.2506  -25.8252  -16.0193 N   0  0  0  0  0  0  0  0  0  0  0  0
   29.4521  -24.3458  -16.3573 N   0  0  0  0  0  0  0  0  0  0  0  0
   28.8727  -23.2003  -17.0641 C   0  0  0  0  0  0  0  0  0  0  0  0
   29.3748  -21.9389  -16.4327 C   0  0  0  0  0  0  0  0  0  0  0  0
   28.5078  -21.4499  -15.3404 C   0  0  0  0  0  0  0  0  0  0  0  0
   27.1360  -21.0967  -15.7573 C   0  0  2  0  0  0  0  0  0  0  0  0
   27.0384  -20.2232  -16.8873 N   0  0  0  0  0  0  0  0  0  0  0  0
   26.3940  -20.5012  -14.6051 C   0  0  0  0  0  0  0  0  0  0  0  0
   26.7330  -19.3676  -14.1284 O   0  0  0  0  0  0  0  0  0  0  0  0
   30.7518  -26.1813  -15.1931 N   0  0  0  0  0  0  0  0  0  0  0  0
   25.3114  -21.1409  -13.9991 C   0  0  2  0  0  0  0  0  0  0  0  0
   24.6119  -20.5430  -12.8510 C   0  0  0  0  0  0  0  0  0  0  0  0
   23.1644  -20.7724  -12.9468 C   0  0  0  0  0  0  0  0  0  0  0  0
   22.2913  -20.4163  -11.7991 C   0  0  0  0  0  0  0  0  0  0  0  0
   20.8917  -20.8272  -11.9752 O   0  0  0  0  0  0  0  0  0  0  0  0
   19.9700  -20.4811  -11.2102 C   0  0  0  0  0  0  0  0  0  0  0  0
   25.3107  -21.0443  -11.6624 O   0  0  0  0  0  0  0  0  0  0  0  0
   25.6291  -22.2724  -11.4862 O   0  0  0  0  0  0  0  0  0  0  0  0
   20.5766  -21.6472  -13.0610 N   0  0  0  0  0  0  0  0  0  0  0  0
   25.7077  -20.1933  -10.5770 C   0  0  2  0  0  0  0  0  0  0  0  0
   26.3629  -20.7327   -9.3687 C   0  0  0  0  0  0  0  0  0  0  0  0
   27.4385  -19.7765   -8.9372 C   0  0  0  0  0  0  0  0  0  0  0  0
   28.2264  -20.2665   -7.8144 C   0  0  0  0  0  0  0  0  0  0  0  0
   28.9460  -21.4737   -7.7728 N   0  0  0  0  0  0  0  0  0  0  0  0
   29.5114  -21.6236   -6.5707 C   0  0  0  0  0  0  0  0  0  0  0  0
   29.2168  -20.5751   -5.7798 C   0  0  0  0  0  0  0  0  0  0  0  0
   29.5763  -20.2597   -4.4808 C   0  0  0  0  0  0  0  0  0  0  0  0
   29.1129  -19.0652   -3.9731 C   0  0  0  0  0  0  0  0  0  0  0  0
   28.3318  -18.2135   -4.7000 C   0  0  0  0  0  0  0  0  0  0  0  0
   27.9905  -18.5560   -5.9885 C   0  0  0  0  0  0  0  0  0  0  0  0
   28.4213  -19.7349   -6.5506 C   0  0  0  0  0  0  0  0  0  0  0  0
   25.4380  -21.0471   -8.2970 O   0  0  0  0  0  0  0  0  0  0  0  0
   25.6432  -22.0193   -7.3465 O   0  0  0  0  0  0  0  0  0  0  0  0
  2  3  2  0
  2  1  1  0
  4  2  1  0
  5  4  1  0
  6  5  1  0
  7  6  1  0
  8  7  1  0
  8  9  1  6
 10  8  1  0
 10 11  2  0
 12 10  1  0
 13 12  1  0
 13 18  1  0
 13 14  1  6
 15 14  1  0
 16 17  2  0
 16 15  1  0
 18 21  1  0
 18 19  2  0
 20 16  1  0
 21 22  1  0
 22 23  1  1
 23 24  1  0
 24 32  1  0
 25 26  1  0
 25 24  2  0
 26 27  1  0
 27 32  2  0
 27 28  1  0
 28 29  2  0
 29 30  1  0
 31 30  2  0
 32 31  1  0
 33 22  1  0
 33 34  1  0
 35 33  2  0
M  END
$$$$
