FCL.pdb
     RDKit          3D

 26 26  0  0  1  0  0  0  0  0999 V2000
    7.8395  -15.6061   19.6027 N   0  0  0  0  0  0  0  0  0  0  0  0
    8.0404  -15.0785   20.9336 C   0  0  1  0  0  0  0  0  0  0  0  0
    6.8327  -14.2309   21.2940 C   0  0  0  0  0  0  0  0  0  0  0  0
    6.9607  -13.7122   22.6736 C   0  0  0  0  0  0  0  0  0  0  0  0
    7.6192  -12.5091   22.9315 C   0  0  0  0  0  0  0  0  0  0  0  0
    7.7181  -12.0628   24.2151 C   0  0  0  0  0  0  0  0  0  0  0  0
    7.1779  -12.7802   25.2668 C   0  0  0  0  0  0  0  0  0  0  0  0
    6.5268  -13.9678   25.0213 C   0  0  0  0  0  0  0  0  0  0  0  0
    6.4310  -14.4103   23.7298 C   0  0  0  0  0  0  0  0  0  0  0  0
    8.2730  -16.1843   21.8610 C   0  0  0  0  0  0  0  0  0  0  0  0
    7.4804  -17.1888   21.9156 O   0  0  0  0  0  0  0  0  0  0  0  0
    9.4025  -16.1517   22.7254 N   0  0  0  0  0  0  0  0  0  0  0  0
    9.6447  -17.2100   23.6854 C   0  0  1  0  0  0  0  0  0  0  0  0
   10.4324  -18.3528   23.0536 C   0  0  0  0  0  0  0  0  0  0  0  0
   10.5985  -19.6673   24.2909 S   0  0  0  0  0  0  0  0  0  0  0  0
   10.4484  -16.7314   24.8375 C   0  0  0  0  0  0  0  0  0  0  0  0
   11.5723  -16.2029   24.6344 O   0  0  0  0  0  0  0  0  0  0  0  0
   11.2985  -13.5144   27.3673 C   0  0  0  0  0  0  0  0  0  0  0  0
    9.9620  -14.1781   27.7210 C   0  0  2  0  0  0  0  0  0  0  0  0
    9.2268  -13.2860   28.6614 C   0  0  0  0  0  0  0  0  0  0  0  0
   10.2383  -15.5388   28.2435 C   0  0  0  0  0  0  0  0  0  0  0  0
   10.9120  -16.4821   27.3135 C   0  0  2  0  0  0  0  0  0  0  0  0
   10.0275  -16.8309   26.1845 N   0  0  0  0  0  0  0  0  0  0  0  0
   11.2461  -17.7391   27.9863 C   0  0  0  0  0  0  0  0  0  0  0  0
   10.5059  -18.7344   27.8735 O   0  0  0  0  0  0  0  0  0  0  0  0
   12.3845  -17.8452   28.7564 O   0  0  0  0  0  0  0  0  0  0  0  0
  2  1  1  6
  2 10  1  0
  3  2  1  0
  3  4  1  0
  4  9  2  0
  5  4  1  0
  5  6  2  0
  6  7  1  0
  7  8  2  0
  9  8  1  0
 10 11  2  0
 12 13  1  0
 12 10  1  0
 13 16  1  0
 13 14  1  6
 15 14  1  0
 16 23  1  0
 16 17  2  0
 19 18  1  1
 19 20  1  0
 21 19  1  0
 22 21  1  1
 22 24  1  0
 23 22  1  0
 24 25  2  0
 24 26  1  0
M  END
$$$$
