FCL.pdb
     RDKit          3D

 26 26  0  0  1  0  0  0  0  0999 V2000
   41.8390  -64.8918   23.8701 N   0  0  0  0  0  0  0  0  0  0  0  0
   41.0671  -65.4209   22.7683 C   0  0  1  0  0  0  0  0  0  0  0  0
   40.0926  -66.4460   23.3222 C   0  0  0  0  0  0  0  0  0  0  0  0
   39.4025  -65.9084   24.5152 C   0  0  0  0  0  0  0  0  0  0  0  0
   39.9250  -64.8234   25.2205 C   0  0  0  0  0  0  0  0  0  0  0  0
   39.2619  -64.3556   26.3151 C   0  0  0  0  0  0  0  0  0  0  0  0
   38.0809  -64.9364   26.7398 C   0  0  0  0  0  0  0  0  0  0  0  0
   37.5587  -66.0069   26.0500 C   0  0  0  0  0  0  0  0  0  0  0  0
   38.2296  -66.4717   24.9515 C   0  0  0  0  0  0  0  0  0  0  0  0
   40.4145  -64.3192   22.0633 C   0  0  0  0  0  0  0  0  0  0  0  0
   40.2465  -63.1770   22.6179 O   0  0  0  0  0  0  0  0  0  0  0  0
   39.9530  -64.5115   20.7314 N   0  0  0  0  0  0  0  0  0  0  0  0
   38.9760  -63.6202   20.1387 C   0  0  1  0  0  0  0  0  0  0  0  0
   39.4949  -63.0298   18.8319 C   0  0  0  0  0  0  0  0  0  0  0  0
   41.1056  -62.2671   19.1644 S   0  0  0  0  0  0  0  0  0  0  0  0
   37.7155  -64.3304   19.8083 C   0  0  0  0  0  0  0  0  0  0  0  0
   37.7653  -65.4653   19.2669 O   0  0  0  0  0  0  0  0  0  0  0  0
   33.0294  -61.2660   19.7168 C   0  0  0  0  0  0  0  0  0  0  0  0
   33.9701  -62.4357   20.0312 C   0  0  2  0  0  0  0  0  0  0  0  0
   33.1725  -63.5264   20.6595 C   0  0  0  0  0  0  0  0  0  0  0  0
   35.0891  -61.9269   20.8619 C   0  0  0  0  0  0  0  0  0  0  0  0
   36.1589  -62.9011   21.2015 C   0  0  2  0  0  0  0  0  0  0  0  0
   36.4273  -63.8059   20.0667 N   0  0  0  0  0  0  0  0  0  0  0  0
   35.7626  -63.7494   22.3275 C   0  0  0  0  0  0  0  0  0  0  0  0
   34.9334  -64.6652   22.1698 O   0  0  0  0  0  0  0  0  0  0  0  0
   36.2989  -63.5512   23.5819 O   0  0  0  0  0  0  0  0  0  0  0  0
  2  1  1  1
  2 10  1  0
  3  2  1  0
  3  4  1  0
  4  9  2  0
  5  4  1  0
  5  6  2  0
  6  7  1  0
  7  8  2  0
  9  8  1  0
 10 11  2  0
 12 13  1  0
 12 10  1  0
 13 16  1  0
 13 14  1  6
 15 14  1  0
 16 23  1  0
 16 17  2  0
 19 18  1  1
 19 20  1  0
 21 19  1  0
 22 21  1  6
 22 24  1  0
 23 22  1  0
 24 25  2  0
 24 26  1  0
M  END
$$$$
