FCL.pdb
     RDKit          3D

 26 26  0  0  1  0  0  0  0  0999 V2000
    9.6529  -15.9273   20.9645 N   0  0  0  0  0  0  0  0  0  0  0  0
    8.8034  -15.3835   22.0001 C   0  0  1  0  0  0  0  0  0  0  0  0
    7.3873  -15.3025   21.4568 C   0  0  0  0  0  0  0  0  0  0  0  0
    7.3314  -14.3821   20.3000 C   0  0  0  0  0  0  0  0  0  0  0  0
    7.6287  -13.0263   20.4445 C   0  0  0  0  0  0  0  0  0  0  0  0
    7.5661  -12.2083   19.3565 C   0  0  0  0  0  0  0  0  0  0  0  0
    7.2134  -12.6972   18.1119 C   0  0  0  0  0  0  0  0  0  0  0  0
    6.9186  -14.0332   17.9605 C   0  0  0  0  0  0  0  0  0  0  0  0
    6.9833  -14.8491   19.0573 C   0  0  0  0  0  0  0  0  0  0  0  0
    8.9195  -16.2078   23.2018 C   0  0  0  0  0  0  0  0  0  0  0  0
    8.0911  -16.0954   24.1721 O   0  0  0  0  0  0  0  0  0  0  0  0
    9.9731  -17.1583   23.3036 N   0  0  0  0  0  0  0  0  0  0  0  0
   10.1093  -18.0068   24.4706 C   0  0  1  0  0  0  0  0  0  0  0  0
   11.0329  -19.1863   24.1855 C   0  0  0  0  0  0  0  0  0  0  0  0
   12.5044  -18.5511   23.3381 S   0  0  0  0  0  0  0  0  0  0  0  0
   10.7047  -17.2733   25.6151 C   0  0  0  0  0  0  0  0  0  0  0  0
   11.8105  -16.6901   25.4718 O   0  0  0  0  0  0  0  0  0  0  0  0
   11.4511  -13.5819   27.6247 C   0  0  0  0  0  0  0  0  0  0  0  0
   10.0688  -14.2458   27.6441 C   0  0  2  0  0  0  0  0  0  0  0  0
    9.0547  -13.2129   27.9983 C   0  0  0  0  0  0  0  0  0  0  0  0
   10.1198  -15.4076   28.5653 C   0  0  0  0  0  0  0  0  0  0  0  0
   10.8066  -16.6248   28.0598 C   0  0  2  0  0  0  0  0  0  0  0  0
   10.0990  -17.1818   26.8903 N   0  0  0  0  0  0  0  0  0  0  0  0
   10.8288  -17.6791   29.0758 C   0  0  0  0  0  0  0  0  0  0  0  0
   10.0846  -18.6727   28.9744 O   0  0  0  0  0  0  0  0  0  0  0  0
   11.6726  -17.5927   30.1625 O   0  0  0  0  0  0  0  0  0  0  0  0
  2  1  1  6
  2 10  1  0
  3  2  1  0
  3  4  1  0
  4  9  2  0
  5  4  1  0
  5  6  2  0
  6  7  1  0
  7  8  2  0
  9  8  1  0
 10 11  2  0
 12 13  1  0
 12 10  1  0
 13 16  1  0
 13 14  1  6
 15 14  1  0
 16 23  1  0
 16 17  2  0
 19 18  1  1
 19 20  1  0
 21 19  1  0
 22 21  1  1
 22 24  1  0
 23 22  1  0
 24 25  2  0
 24 26  1  0
M  END
$$$$
