FCL.pdb
     RDKit          3D

 26 26  0  0  1  0  0  0  0  0999 V2000
    6.1628  -18.2950   24.3873 N   0  0  0  0  0  0  0  0  0  0  0  0
    6.8910  -17.8514   23.2199 C   0  0  1  0  0  0  0  0  0  0  0  0
    6.3021  -16.5254   22.7703 C   0  0  0  0  0  0  0  0  0  0  0  0
    6.5229  -15.4877   23.8013 C   0  0  0  0  0  0  0  0  0  0  0  0
    7.2568  -14.3354   23.5164 C   0  0  0  0  0  0  0  0  0  0  0  0
    7.4401  -13.4014   24.4914 C   0  0  0  0  0  0  0  0  0  0  0  0
    6.9123  -13.5744   25.7578 C   0  0  0  0  0  0  0  0  0  0  0  0
    6.1871  -14.7080   26.0473 C   0  0  0  0  0  0  0  0  0  0  0  0
    6.0068  -15.6421   25.0635 C   0  0  0  0  0  0  0  0  0  0  0  0
    8.3156  -17.7770   23.5393 C   0  0  0  0  0  0  0  0  0  0  0  0
    8.8037  -18.3757   24.5609 O   0  0  0  0  0  0  0  0  0  0  0  0
    9.1858  -17.0250   22.7021 N   0  0  0  0  0  0  0  0  0  0  0  0
   10.6251  -17.1701   22.7910 C   0  0  1  0  0  0  0  0  0  0  0  0
   11.3266  -16.3367   21.7239 C   0  0  0  0  0  0  0  0  0  0  0  0
   10.5886  -14.6809   21.7339 S   0  0  0  0  0  0  0  0  0  0  0  0
   11.1435  -16.7005   24.0999 C   0  0  0  0  0  0  0  0  0  0  0  0
   12.3786  -16.5098   24.2467 O   0  0  0  0  0  0  0  0  0  0  0  0
   11.0392  -15.1261   29.0866 C   0  0  0  0  0  0  0  0  0  0  0  0
   10.5135  -14.0273   28.1549 C   0  0  2  0  0  0  0  0  0  0  0  0
    9.4137  -13.3035   28.8531 C   0  0  0  0  0  0  0  0  0  0  0  0
   10.1260  -14.6514   26.8660 C   0  0  0  0  0  0  0  0  0  0  0  0
   10.8603  -15.8842   26.4791 C   0  0  2  0  0  0  0  0  0  0  0  0
   10.3233  -16.4455   25.2240 N   0  0  0  0  0  0  0  0  0  0  0  0
   10.7166  -16.9263   27.4979 C   0  0  0  0  0  0  0  0  0  0  0  0
   11.4337  -16.9200   28.5162 O   0  0  0  0  0  0  0  0  0  0  0  0
    9.7863  -17.9328   27.3500 O   0  0  0  0  0  0  0  0  0  0  0  0
  2  1  1  1
  2 10  1  0
  3  2  1  0
  3  4  1  0
  4  9  2  0
  5  4  1  0
  5  6  2  0
  6  7  1  0
  7  8  2  0
  9  8  1  0
 10 11  2  0
 12 13  1  0
 12 10  1  0
 13 16  1  0
 13 14  1  6
 15 14  1  0
 16 23  1  0
 16 17  2  0
 19 18  1  1
 19 20  1  0
 21 19  1  0
 22 21  1  1
 22 24  1  0
 23 22  1  0
 24 25  2  0
 24 26  1  0
M  END
$$$$
