FCL.pdb
     RDKit          3D

 26 26  0  0  1  0  0  0  0  0999 V2000
    8.7788  -18.3852   20.5148 N   0  0  0  0  0  0  0  0  0  0  0  0
    8.7815  -16.9563   20.7336 C   0  0  1  0  0  0  0  0  0  0  0  0
    7.8745  -16.3168   19.6964 C   0  0  0  0  0  0  0  0  0  0  0  0
    7.9357  -14.8422   19.7978 C   0  0  0  0  0  0  0  0  0  0  0  0
    8.9518  -14.1197   19.1709 C   0  0  0  0  0  0  0  0  0  0  0  0
    8.9764  -12.7622   19.2867 C   0  0  0  0  0  0  0  0  0  0  0  0
    8.0128  -12.0876   20.0139 C   0  0  0  0  0  0  0  0  0  0  0  0
    7.0071  -12.7925   20.6354 C   0  0  0  0  0  0  0  0  0  0  0  0
    6.9883  -14.1556   20.5151 C   0  0  0  0  0  0  0  0  0  0  0  0
    8.3774  -16.6782   22.1106 C   0  0  0  0  0  0  0  0  0  0  0  0
    8.2219  -15.4790   22.5325 O   0  0  0  0  0  0  0  0  0  0  0  0
    8.1499  -17.7580   23.0086 N   0  0  0  0  0  0  0  0  0  0  0  0
    7.6423  -17.5284   24.3465 C   0  0  1  0  0  0  0  0  0  0  0  0
    7.3808  -18.8468   25.0668 C   0  0  0  0  0  0  0  0  0  0  0  0
    8.9751  -19.6732   25.3152 S   0  0  0  0  0  0  0  0  0  0  0  0
    8.6145  -16.7789   25.1805 C   0  0  0  0  0  0  0  0  0  0  0  0
    9.8321  -16.7744   24.8627 O   0  0  0  0  0  0  0  0  0  0  0  0
    8.0684  -12.6011   26.1987 C   0  0  0  0  0  0  0  0  0  0  0  0
    7.4599  -13.4579   27.3155 C   0  0  2  0  0  0  0  0  0  0  0  0
    6.7122  -12.5623   28.2427 C   0  0  0  0  0  0  0  0  0  0  0  0
    8.5479  -14.2410   27.9510 C   0  0  0  0  0  0  0  0  0  0  0  0
    9.2356  -15.2393   27.0913 C   0  0  2  0  0  0  0  0  0  0  0  0
    8.2578  -16.0496   26.3390 N   0  0  0  0  0  0  0  0  0  0  0  0
   10.0234  -16.1758   27.8956 C   0  0  0  0  0  0  0  0  0  0  0  0
   11.1146  -15.8282   28.3852 O   0  0  0  0  0  0  0  0  0  0  0  0
    9.5732  -17.4581   28.1264 O   0  0  0  0  0  0  0  0  0  0  0  0
  2  1  1  6
  2 10  1  0
  3  2  1  0
  3  4  1  0
  4  9  2  0
  5  4  1  0
  5  6  2  0
  6  7  1  0
  7  8  2  0
  9  8  1  0
 10 11  2  0
 12 13  1  0
 12 10  1  0
 13 16  1  0
 13 14  1  1
 15 14  1  0
 16 23  1  0
 16 17  2  0
 19 18  1  6
 19 20  1  0
 21 19  1  0
 22 21  1  1
 22 24  1  0
 23 22  1  0
 24 25  2  0
 24 26  1  0
M  END
$$$$
