FCL.pdb
     RDKit          3D

 26 26  0  0  1  0  0  0  0  0999 V2000
    7.9465  -16.4862   19.5643 N   0  0  0  0  0  0  0  0  0  0  0  0
    8.1296  -15.7109   20.7706 C   0  0  1  0  0  0  0  0  0  0  0  0
    6.9124  -14.8202   20.9502 C   0  0  0  0  0  0  0  0  0  0  0  0
    7.0227  -14.0443   22.2050 C   0  0  0  0  0  0  0  0  0  0  0  0
    6.4971  -14.5335   23.4017 C   0  0  0  0  0  0  0  0  0  0  0  0
    6.6170  -13.7907   24.5377 C   0  0  0  0  0  0  0  0  0  0  0  0
    7.2498  -12.5612   24.5264 C   0  0  0  0  0  0  0  0  0  0  0  0
    7.7710  -12.0713   23.3504 C   0  0  0  0  0  0  0  0  0  0  0  0
    7.6472  -12.8223   22.2131 C   0  0  0  0  0  0  0  0  0  0  0  0
    8.3598  -16.6157   21.8954 C   0  0  0  0  0  0  0  0  0  0  0  0
    7.5944  -17.6193   22.1134 O   0  0  0  0  0  0  0  0  0  0  0  0
    9.4558  -16.3835   22.7721 N   0  0  0  0  0  0  0  0  0  0  0  0
    9.7619  -17.3007   23.8517 C   0  0  1  0  0  0  0  0  0  0  0  0
   10.7628  -18.3601   23.4030 C   0  0  0  0  0  0  0  0  0  0  0  0
   11.9954  -17.5523   22.3473 S   0  0  0  0  0  0  0  0  0  0  0  0
   10.3784  -16.6017   25.0066 C   0  0  0  0  0  0  0  0  0  0  0  0
   11.3272  -15.7982   24.8123 O   0  0  0  0  0  0  0  0  0  0  0  0
   10.4244  -13.2570   27.2036 C   0  0  0  0  0  0  0  0  0  0  0  0
    9.2926  -14.1871   27.6575 C   0  0  2  0  0  0  0  0  0  0  0  0
    8.3463  -13.4021   28.4994 C   0  0  0  0  0  0  0  0  0  0  0  0
    9.8947  -15.3635   28.3317 C   0  0  0  0  0  0  0  0  0  0  0  0
   10.7348  -16.2531   27.4882 C   0  0  2  0  0  0  0  0  0  0  0  0
    9.9621  -16.7809   26.3467 N   0  0  0  0  0  0  0  0  0  0  0  0
   11.2030  -17.4140   28.2483 C   0  0  0  0  0  0  0  0  0  0  0  0
   10.6723  -18.5298   28.0918 O   0  0  0  0  0  0  0  0  0  0  0  0
   12.2387  -17.2946   29.1502 O   0  0  0  0  0  0  0  0  0  0  0  0
  2  1  1  6
  2 10  1  0
  3  2  1  0
  3  4  1  0
  4  9  2  0
  5  4  1  0
  5  6  2  0
  6  7  1  0
  7  8  2  0
  9  8  1  0
 10 11  2  0
 12 13  1  0
 12 10  1  0
 13 16  1  0
 13 14  1  6
 15 14  1  0
 16 23  1  0
 16 17  2  0
 19 18  1  1
 19 20  1  0
 21 19  1  0
 22 21  1  1
 22 24  1  0
 23 22  1  0
 24 25  2  0
 24 26  1  0
M  END
$$$$
