FCL.pdb
     RDKit          3D

 26 26  0  0  1  0  0  0  0  0999 V2000
   11.1569  -16.2907   20.8323 N   0  0  0  0  0  0  0  0  0  0  0  0
   10.0098  -15.5372   21.2866 C   0  0  1  0  0  0  0  0  0  0  0  0
    8.7712  -16.1151   20.6239 C   0  0  0  0  0  0  0  0  0  0  0  0
    7.9930  -15.0439   19.9640 C   0  0  0  0  0  0  0  0  0  0  0  0
    6.8684  -14.4898   20.5770 C   0  0  0  0  0  0  0  0  0  0  0  0
    6.1759  -13.5050   19.9388 C   0  0  0  0  0  0  0  0  0  0  0  0
    6.5671  -13.0448   18.6948 C   0  0  0  0  0  0  0  0  0  0  0  0
    7.6751  -13.5858   18.0830 C   0  0  0  0  0  0  0  0  0  0  0  0
    8.3661  -14.5745   18.7295 C   0  0  0  0  0  0  0  0  0  0  0  0
    9.9579  -15.5710   22.7471 C   0  0  0  0  0  0  0  0  0  0  0  0
   10.9311  -16.0324   23.4401 O   0  0  0  0  0  0  0  0  0  0  0  0
    8.8043  -15.0826   23.4214 N   0  0  0  0  0  0  0  0  0  0  0  0
    8.8290  -14.7972   24.8420 C   0  0  1  0  0  0  0  0  0  0  0  0
    7.4345  -14.4559   25.3564 C   0  0  0  0  0  0  0  0  0  0  0  0
    6.3693  -15.8965   25.0800 S   0  0  0  0  0  0  0  0  0  0  0  0
    9.2927  -15.9674   25.6282 C   0  0  0  0  0  0  0  0  0  0  0  0
    9.5113  -17.0607   25.0448 O   0  0  0  0  0  0  0  0  0  0  0  0
   10.7153  -14.6983   30.6813 C   0  0  0  0  0  0  0  0  0  0  0  0
   11.0718  -15.1607   29.2632 C   0  0  2  0  0  0  0  0  0  0  0  0
   10.4744  -14.2025   28.2907 C   0  0  0  0  0  0  0  0  0  0  0  0
   10.6266  -16.5668   29.1030 C   0  0  0  0  0  0  0  0  0  0  0  0
   10.2666  -16.9955   27.7262 C   0  0  2  0  0  0  0  0  0  0  0  0
    9.5117  -15.9382   27.0255 N   0  0  0  0  0  0  0  0  0  0  0  0
    9.4042  -18.1788   27.7500 C   0  0  0  0  0  0  0  0  0  0  0  0
    8.2157  -18.1040   27.3851 O   0  0  0  0  0  0  0  0  0  0  0  0
    9.8902  -19.3964   28.1758 O   0  0  0  0  0  0  0  0  0  0  0  0
  2  1  1  6
  2 10  1  0
  3  2  1  0
  3  4  1  0
  4  9  2  0
  5  4  1  0
  5  6  2  0
  6  7  1  0
  7  8  2  0
  9  8  1  0
 10 11  2  0
 12 13  1  0
 12 10  1  0
 13 16  1  0
 13 14  1  1
 15 14  1  0
 16 23  1  0
 16 17  2  0
 19 18  1  1
 19 20  1  0
 21 19  1  0
 22 21  1  1
 22 24  1  0
 23 22  1  0
 24 25  2  0
 24 26  1  0
M  END
$$$$
