FCL.pdb
     RDKit          3D

 26 26  0  0  1  0  0  0  0  0999 V2000
   10.9223  -18.9016   28.2349 N   0  0  0  0  0  0  0  0  0  0  0  0
    9.5649  -19.1747   27.8194 C   0  0  1  0  0  0  0  0  0  0  0  0
    8.6480  -18.1850   28.5173 C   0  0  0  0  0  0  0  0  0  0  0  0
    9.0983  -16.7988   28.2640 C   0  0  0  0  0  0  0  0  0  0  0  0
    8.3869  -15.9564   27.4085 C   0  0  0  0  0  0  0  0  0  0  0  0
    8.8321  -14.6858   27.1988 C   0  0  0  0  0  0  0  0  0  0  0  0
    9.9758  -14.2159   27.8181 C   0  0  0  0  0  0  0  0  0  0  0  0
   10.6835  -15.0401   28.6633 C   0  0  0  0  0  0  0  0  0  0  0  0
   10.2309  -16.3151   28.8696 C   0  0  0  0  0  0  0  0  0  0  0  0
    9.4851  -19.1135   26.3611 C   0  0  0  0  0  0  0  0  0  0  0  0
   10.5393  -19.0657   25.6354 O   0  0  0  0  0  0  0  0  0  0  0  0
    8.2121  -19.1065   25.7260 N   0  0  0  0  0  0  0  0  0  0  0  0
    8.0896  -18.9516   24.2902 C   0  0  1  0  0  0  0  0  0  0  0  0
    6.6733  -19.2709   23.8237 C   0  0  0  0  0  0  0  0  0  0  0  0
    5.5874  -19.2414   25.2751 S   0  0  0  0  0  0  0  0  0  0  0  0
    8.3689  -17.5579   23.8635 C   0  0  0  0  0  0  0  0  0  0  0  0
    8.3320  -17.2633   22.6407 O   0  0  0  0  0  0  0  0  0  0  0  0
    6.9016  -12.9479   26.5062 C   0  0  0  0  0  0  0  0  0  0  0  0
    7.4836  -13.3130   25.1352 C   0  0  2  0  0  0  0  0  0  0  0  0
    6.4148  -13.9664   24.3281 C   0  0  0  0  0  0  0  0  0  0  0  0
    8.6965  -14.1410   25.3462 C   0  0  0  0  0  0  0  0  0  0  0  0
    9.0041  -15.1460   24.2956 C   0  0  2  0  0  0  0  0  0  0  0  0
    8.6823  -16.5095   24.7602 N   0  0  0  0  0  0  0  0  0  0  0  0
   10.4305  -15.1435   23.9637 C   0  0  0  0  0  0  0  0  0  0  0  0
   10.9679  -14.1271   23.4849 O   0  0  0  0  0  0  0  0  0  0  0  0
   11.2049  -16.2643   24.1747 O   0  0  0  0  0  0  0  0  0  0  0  0
  2  1  1  6
  2 10  1  0
  3  2  1  0
  3  4  1  0
  4  9  2  0
  5  4  1  0
  5  6  2  0
  6  7  1  0
  7  8  2  0
  9  8  1  0
 10 11  2  0
 12 13  1  0
 12 10  1  0
 13 16  1  0
 13 14  1  1
 15 14  1  0
 16 23  1  0
 16 17  2  0
 19 18  1  1
 19 20  1  0
 21 19  1  0
 22 21  1  1
 22 24  1  0
 23 22  1  0
 24 25  2  0
 24 26  1  0
M  END
$$$$
