FCL.pdb
     RDKit          3D

 26 26  0  0  1  0  0  0  0  0999 V2000
    7.6921  -17.9287   18.7943 N   0  0  0  0  0  0  0  0  0  0  0  0
    7.9741  -16.7842   19.6313 C   0  0  1  0  0  0  0  0  0  0  0  0
    7.0281  -15.6637   19.2353 C   0  0  0  0  0  0  0  0  0  0  0  0
    7.2695  -14.4666   20.0704 C   0  0  0  0  0  0  0  0  0  0  0  0
    6.6879  -14.3410   21.3327 C   0  0  0  0  0  0  0  0  0  0  0  0
    6.9324  -13.2238   22.0734 C   0  0  0  0  0  0  0  0  0  0  0  0
    7.7464  -12.2124   21.5972 C   0  0  0  0  0  0  0  0  0  0  0  0
    8.3240  -12.3281   20.3532 C   0  0  0  0  0  0  0  0  0  0  0  0
    8.0743  -13.4527   19.6144 C   0  0  0  0  0  0  0  0  0  0  0  0
    7.8595  -17.1734   21.0356 C   0  0  0  0  0  0  0  0  0  0  0  0
    6.8034  -17.7390   21.4885 O   0  0  0  0  0  0  0  0  0  0  0  0
    8.9405  -16.9220   21.9256 N   0  0  0  0  0  0  0  0  0  0  0  0
    8.8487  -17.2568   23.3327 C   0  0  1  0  0  0  0  0  0  0  0  0
    9.7399  -18.4469   23.6718 C   0  0  0  0  0  0  0  0  0  0  0  0
    9.7462  -19.5644   22.2443 S   0  0  0  0  0  0  0  0  0  0  0  0
    9.2993  -16.1350   24.1935 C   0  0  0  0  0  0  0  0  0  0  0  0
   10.3861  -15.5540   23.9388 O   0  0  0  0  0  0  0  0  0  0  0  0
    8.3043  -11.8157   25.3156 C   0  0  0  0  0  0  0  0  0  0  0  0
    7.3166  -12.8919   25.7825 C   0  0  2  0  0  0  0  0  0  0  0  0
    6.0990  -12.2161   26.3131 C   0  0  0  0  0  0  0  0  0  0  0  0
    8.0095  -13.7748   26.7527 C   0  0  0  0  0  0  0  0  0  0  0  0
    9.1051  -14.6217   26.2133 C   0  0  2  0  0  0  0  0  0  0  0  0
    8.5722  -15.6609   25.3106 N   0  0  0  0  0  0  0  0  0  0  0  0
    9.8088  -15.3234   27.2889 C   0  0  0  0  0  0  0  0  0  0  0  0
   10.5697  -14.7053   28.0571 O   0  0  0  0  0  0  0  0  0  0  0  0
    9.6428  -16.6796   27.4720 O   0  0  0  0  0  0  0  0  0  0  0  0
  2  1  1  6
  2 10  1  0
  3  2  1  0
  3  4  1  0
  4  9  2  0
  5  4  1  0
  5  6  2  0
  6  7  1  0
  7  8  2  0
  9  8  1  0
 10 11  2  0
 12 13  1  0
 12 10  1  0
 13 16  1  0
 13 14  1  6
 15 14  1  0
 16 23  1  0
 16 17  2  0
 19 18  1  1
 19 20  1  0
 21 19  1  0
 22 21  1  1
 22 24  1  0
 23 22  1  0
 24 25  2  0
 24 26  1  0
M  END
$$$$
