FCL.pdb
     RDKit          3D

 26 26  0  0  1  0  0  0  0  0999 V2000
    7.8234  -15.6271   19.7646 N   0  0  0  0  0  0  0  0  0  0  0  0
    7.9633  -15.0750   21.0933 C   0  0  1  0  0  0  0  0  0  0  0  0
    6.7429  -14.2175   21.3805 C   0  0  0  0  0  0  0  0  0  0  0  0
    6.8183  -13.6556   22.7470 C   0  0  0  0  0  0  0  0  0  0  0  0
    6.3635  -14.3809   23.8491 C   0  0  0  0  0  0  0  0  0  0  0  0
    6.4484  -13.8309   25.0928 C   0  0  0  0  0  0  0  0  0  0  0  0
    6.9771  -12.5672   25.2828 C   0  0  0  0  0  0  0  0  0  0  0  0
    7.4280  -11.8450   24.2013 C   0  0  0  0  0  0  0  0  0  0  0  0
    7.3398  -12.4033   22.9550 C   0  0  0  0  0  0  0  0  0  0  0  0
    8.1481  -16.1637   22.0512 C   0  0  0  0  0  0  0  0  0  0  0  0
    7.4424  -17.2310   21.9943 O   0  0  0  0  0  0  0  0  0  0  0  0
    9.1313  -16.0429   23.0723 N   0  0  0  0  0  0  0  0  0  0  0  0
    9.4648  -17.1622   23.9304 C   0  0  1  0  0  0  0  0  0  0  0  0
   10.1300  -18.2816   23.1367 C   0  0  0  0  0  0  0  0  0  0  0  0
   10.4795  -19.6448   24.2795 S   0  0  0  0  0  0  0  0  0  0  0  0
   10.4248  -16.7715   24.9925 C   0  0  0  0  0  0  0  0  0  0  0  0
   11.6105  -16.4848   24.6836 O   0  0  0  0  0  0  0  0  0  0  0  0
   11.0675  -13.4605   27.2412 C   0  0  0  0  0  0  0  0  0  0  0  0
    9.9835  -14.2641   27.9699 C   0  0  2  0  0  0  0  0  0  0  0  0
    9.3985  -13.4058   29.0384 C   0  0  0  0  0  0  0  0  0  0  0  0
   10.5844  -15.5323   28.4514 C   0  0  0  0  0  0  0  0  0  0  0  0
   11.1043  -16.4568   27.4105 C   0  0  2  0  0  0  0  0  0  0  0  0
   10.0903  -16.6971   26.3651 N   0  0  0  0  0  0  0  0  0  0  0  0
   11.4332  -17.7644   27.9820 C   0  0  0  0  0  0  0  0  0  0  0  0
   12.4239  -17.9003   28.7245 O   0  0  0  0  0  0  0  0  0  0  0  0
   10.6540  -18.8685   27.7097 O   0  0  0  0  0  0  0  0  0  0  0  0
  2  1  1  6
  2 10  1  0
  3  2  1  0
  3  4  1  0
  4  9  2  0
  5  4  1  0
  5  6  2  0
  6  7  1  0
  7  8  2  0
  9  8  1  0
 10 11  2  0
 12 13  1  0
 12 10  1  0
 13 16  1  0
 13 14  1  6
 15 14  1  0
 16 23  1  0
 16 17  2  0
 19 18  1  1
 19 20  1  0
 21 19  1  0
 22 21  1  1
 22 24  1  0
 23 22  1  0
 24 25  2  0
 24 26  1  0
M  END
$$$$
