FCL.pdb
     RDKit          3D

 26 26  0  0  1  0  0  0  0  0999 V2000
    6.3970  -19.6075   23.0094 N   0  0  0  0  0  0  0  0  0  0  0  0
    6.4925  -18.2789   23.5712 C   0  0  1  0  0  0  0  0  0  0  0  0
    6.0259  -18.3408   25.0153 C   0  0  0  0  0  0  0  0  0  0  0  0
    6.0994  -17.0010   25.6383 C   0  0  0  0  0  0  0  0  0  0  0  0
    7.0104  -16.7321   26.6606 C   0  0  0  0  0  0  0  0  0  0  0  0
    7.0493  -15.4863   27.2111 C   0  0  0  0  0  0  0  0  0  0  0  0
    6.2025  -14.4837   26.7752 C   0  0  0  0  0  0  0  0  0  0  0  0
    5.3009  -14.7403   25.7673 C   0  0  0  0  0  0  0  0  0  0  0  0
    5.2671  -15.9937   25.2188 C   0  0  0  0  0  0  0  0  0  0  0  0
    7.8619  -17.7895   23.4225 C   0  0  0  0  0  0  0  0  0  0  0  0
    8.8703  -18.5504   23.6336 O   0  0  0  0  0  0  0  0  0  0  0  0
    8.0883  -16.4394   23.0353 N   0  0  0  0  0  0  0  0  0  0  0  0
    9.4286  -15.9383   22.8058 C   0  0  1  0  0  0  0  0  0  0  0  0
    9.3993  -14.6476   21.9941 C   0  0  0  0  0  0  0  0  0  0  0  0
    8.0244  -13.6356   22.6039 S   0  0  0  0  0  0  0  0  0  0  0  0
   10.1199  -15.6186   24.0795 C   0  0  0  0  0  0  0  0  0  0  0  0
   10.5400  -14.4499   24.2821 O   0  0  0  0  0  0  0  0  0  0  0  0
   11.2654  -13.4271   27.6580 C   0  0  0  0  0  0  0  0  0  0  0  0
    9.9423  -13.9107   27.0521 C   0  0  2  0  0  0  0  0  0  0  0  0
    8.8262  -13.1681   27.7030 C   0  0  0  0  0  0  0  0  0  0  0  0
    9.8730  -15.3858   27.1943 C   0  0  0  0  0  0  0  0  0  0  0  0
   10.8757  -16.1733   26.4307 C   0  0  2  0  0  0  0  0  0  0  0  0
   10.3452  -16.5620   25.1093 N   0  0  0  0  0  0  0  0  0  0  0  0
   11.2131  -17.4163   27.1276 C   0  0  0  0  0  0  0  0  0  0  0  0
   11.8663  -17.3912   28.1878 O   0  0  0  0  0  0  0  0  0  0  0  0
   10.8147  -18.6365   26.6247 O   0  0  0  0  0  0  0  0  0  0  0  0
  2  1  1  1
  2 10  1  0
  3  2  1  0
  3  4  1  0
  4  9  2  0
  5  4  1  0
  5  6  2  0
  6  7  1  0
  7  8  2  0
  9  8  1  0
 10 11  2  0
 12 13  1  0
 12 10  1  0
 13 16  1  0
 13 14  1  6
 15 14  1  0
 16 23  1  0
 16 17  2  0
 19 18  1  1
 19 20  1  0
 21 19  1  0
 22 21  1  1
 22 24  1  0
 23 22  1  0
 24 25  2  0
 24 26  1  0
M  END
$$$$
