FCL.pdb
     RDKit          3D

 26 26  0  0  1  0  0  0  0  0999 V2000
    9.7363  -15.9480   21.0163 N   0  0  0  0  0  0  0  0  0  0  0  0
    9.1191  -15.3065   22.1553 C   0  0  1  0  0  0  0  0  0  0  0  0
    7.6750  -14.9978   21.7998 C   0  0  0  0  0  0  0  0  0  0  0  0
    7.6142  -14.1032   20.6231 C   0  0  0  0  0  0  0  0  0  0  0  0
    8.1206  -12.8041   20.6803 C   0  0  0  0  0  0  0  0  0  0  0  0
    8.0467  -12.0084   19.5766 C   0  0  0  0  0  0  0  0  0  0  0  0
    7.4792  -12.4648   18.4010 C   0  0  0  0  0  0  0  0  0  0  0  0
    6.9773  -13.7448   18.3359 C   0  0  0  0  0  0  0  0  0  0  0  0
    7.0547  -14.5387   19.4480 C   0  0  0  0  0  0  0  0  0  0  0  0
    9.2583  -16.1678   23.3282 C   0  0  0  0  0  0  0  0  0  0  0  0
    8.5399  -15.9940   24.3742 O   0  0  0  0  0  0  0  0  0  0  0  0
   10.2105  -17.2247   23.3157 N   0  0  0  0  0  0  0  0  0  0  0  0
   10.3632  -18.1119   24.4515 C   0  0  1  0  0  0  0  0  0  0  0  0
   11.3444  -19.2369   24.1397 C   0  0  0  0  0  0  0  0  0  0  0  0
   10.5425  -20.3700   22.9737 S   0  0  0  0  0  0  0  0  0  0  0  0
   10.9035  -17.3985   25.6355 C   0  0  0  0  0  0  0  0  0  0  0  0
   12.0816  -16.9569   25.6107 O   0  0  0  0  0  0  0  0  0  0  0  0
   10.8643  -13.4376   27.4899 C   0  0  0  0  0  0  0  0  0  0  0  0
    9.6296  -14.3434   27.5720 C   0  0  2  0  0  0  0  0  0  0  0  0
    8.4515  -13.5033   27.9282 C   0  0  0  0  0  0  0  0  0  0  0  0
    9.9182  -15.4440   28.5240 C   0  0  0  0  0  0  0  0  0  0  0  0
   10.7681  -16.5529   28.0175 C   0  0  2  0  0  0  0  0  0  0  0  0
   10.1660  -17.1746   26.8218 N   0  0  0  0  0  0  0  0  0  0  0  0
   10.9027  -17.6144   29.0173 C   0  0  0  0  0  0  0  0  0  0  0  0
   11.5964  -17.4402   30.0369 O   0  0  0  0  0  0  0  0  0  0  0  0
   10.2651  -18.8251   28.8498 O   0  0  0  0  0  0  0  0  0  0  0  0
  2  1  1  6
  2 10  1  0
  3  2  1  0
  3  4  1  0
  4  9  2  0
  5  4  1  0
  5  6  2  0
  6  7  1  0
  7  8  2  0
  9  8  1  0
 10 11  2  0
 12 13  1  0
 12 10  1  0
 13 16  1  0
 13 14  1  6
 15 14  1  0
 16 23  1  0
 16 17  2  0
 19 18  1  1
 19 20  1  0
 21 19  1  0
 22 21  1  1
 22 24  1  0
 23 22  1  0
 24 25  2  0
 24 26  1  0
M  END
$$$$
