FCL.pdb
     RDKit          3D

 26 26  0  0  1  0  0  0  0  0999 V2000
    7.4092  -16.8160   26.3563 N   0  0  0  0  0  0  0  0  0  0  0  0
    6.7557  -16.3091   25.1706 C   0  0  1  0  0  0  0  0  0  0  0  0
    7.4202  -14.9981   24.7876 C   0  0  0  0  0  0  0  0  0  0  0  0
    7.2354  -13.9948   25.8590 C   0  0  0  0  0  0  0  0  0  0  0  0
    8.3120  -13.5663   26.6368 C   0  0  0  0  0  0  0  0  0  0  0  0
    8.1037  -12.6411   27.6151 C   0  0  0  0  0  0  0  0  0  0  0  0
    6.8452  -12.1190   27.8513 C   0  0  0  0  0  0  0  0  0  0  0  0
    5.7778  -12.5360   27.0888 C   0  0  0  0  0  0  0  0  0  0  0  0
    5.9939  -13.4655   26.1079 C   0  0  0  0  0  0  0  0  0  0  0  0
    6.8148  -17.3210   24.1173 C   0  0  0  0  0  0  0  0  0  0  0  0
    7.6201  -18.3144   24.1891 O   0  0  0  0  0  0  0  0  0  0  0  0
    5.9625  -17.2072   22.9839 N   0  0  0  0  0  0  0  0  0  0  0  0
    6.1871  -18.0007   21.7922 C   0  0  1  0  0  0  0  0  0  0  0  0
    4.9089  -18.7093   21.3570 C   0  0  0  0  0  0  0  0  0  0  0  0
    3.7427  -18.6593   22.7441 S   0  0  0  0  0  0  0  0  0  0  0  0
    6.6130  -17.1596   20.6460 C   0  0  0  0  0  0  0  0  0  0  0  0
    5.8121  -16.3190   20.1607 O   0  0  0  0  0  0  0  0  0  0  0  0
    9.6789  -13.3219   20.1120 C   0  0  0  0  0  0  0  0  0  0  0  0
    8.3966  -13.5422   19.3002 C   0  0  2  0  0  0  0  0  0  0  0  0
    7.5237  -12.3456   19.4637 C   0  0  0  0  0  0  0  0  0  0  0  0
    7.7829  -14.8223   19.7316 C   0  0  0  0  0  0  0  0  0  0  0  0
    8.6149  -16.0433   19.5720 C   0  0  2  0  0  0  0  0  0  0  0  0
    7.8912  -17.2397   20.0450 N   0  0  0  0  0  0  0  0  0  0  0  0
    9.8410  -15.9548   20.3679 C   0  0  0  0  0  0  0  0  0  0  0  0
    9.8128  -16.1456   21.5984 O   0  0  0  0  0  0  0  0  0  0  0  0
   11.0482  -15.6592   19.7717 O   0  0  0  0  0  0  0  0  0  0  0  0
  2  1  1  1
  2 10  1  0
  3  2  1  0
  3  4  1  0
  4  9  2  0
  5  4  1  0
  5  6  2  0
  6  7  1  0
  7  8  2  0
  9  8  1  0
 10 11  2  0
 12 13  1  0
 12 10  1  0
 13 16  1  0
 13 14  1  6
 15 14  1  0
 16 23  1  0
 16 17  2  0
 19 18  1  1
 19 20  1  0
 21 19  1  0
 22 21  1  1
 22 24  1  0
 23 22  1  0
 24 25  2  0
 24 26  1  0
M  END
$$$$
