FCL.pdb
     RDKit          3D

 26 26  0  0  1  0  0  0  0  0999 V2000
    7.5113  -16.6033   20.1851 N   0  0  0  0  0  0  0  0  0  0  0  0
    7.7427  -15.9302   21.4434 C   0  0  1  0  0  0  0  0  0  0  0  0
    6.4054  -15.4396   21.9707 C   0  0  0  0  0  0  0  0  0  0  0  0
    6.5811  -14.7721   23.2792 C   0  0  0  0  0  0  0  0  0  0  0  0
    7.1226  -13.4888   23.3651 C   0  0  0  0  0  0  0  0  0  0  0  0
    7.2701  -12.9058   24.5878 C   0  0  0  0  0  0  0  0  0  0  0  0
    6.8930  -13.5625   25.7449 C   0  0  0  0  0  0  0  0  0  0  0  0
    6.3582  -14.8285   25.6692 C   0  0  0  0  0  0  0  0  0  0  0  0
    6.2128  -15.4083   24.4381 C   0  0  0  0  0  0  0  0  0  0  0  0
    8.4304  -16.8399   22.3579 C   0  0  0  0  0  0  0  0  0  0  0  0
    7.9166  -17.9637   22.6950 O   0  0  0  0  0  0  0  0  0  0  0  0
    9.6989  -16.4766   22.8897 N   0  0  0  0  0  0  0  0  0  0  0  0
   10.4501  -17.3875   23.7302 C   0  0  1  0  0  0  0  0  0  0  0  0
   11.7235  -17.8529   23.0321 C   0  0  0  0  0  0  0  0  0  0  0  0
   12.5455  -16.3934   22.3387 S   0  0  0  0  0  0  0  0  0  0  0  0
   10.8765  -16.7402   24.9957 C   0  0  0  0  0  0  0  0  0  0  0  0
   11.8772  -15.9773   24.9970 O   0  0  0  0  0  0  0  0  0  0  0  0
   10.0726  -12.9232   28.6128 C   0  0  0  0  0  0  0  0  0  0  0  0
   10.9804  -14.0870   28.1967 C   0  0  2  0  0  0  0  0  0  0  0  0
   11.7191  -13.6915   26.9644 C   0  0  0  0  0  0  0  0  0  0  0  0
   10.1457  -15.3055   28.0564 C   0  0  0  0  0  0  0  0  0  0  0  0
   10.8219  -16.5137   27.5163 C   0  0  2  0  0  0  0  0  0  0  0  0
   10.2183  -16.9264   26.2340 N   0  0  0  0  0  0  0  0  0  0  0  0
   10.6814  -17.6501   28.4291 C   0  0  0  0  0  0  0  0  0  0  0  0
    9.6909  -18.4018   28.3574 O   0  0  0  0  0  0  0  0  0  0  0  0
   11.6412  -17.9096   29.3840 O   0  0  0  0  0  0  0  0  0  0  0  0
  2  1  1  6
  2 10  1  0
  3  2  1  0
  3  4  1  0
  4  9  2  0
  5  4  1  0
  5  6  2  0
  6  7  1  0
  7  8  2  0
  9  8  1  0
 10 11  2  0
 12 13  1  0
 12 10  1  0
 13 16  1  0
 13 14  1  6
 15 14  1  0
 16 23  1  0
 16 17  2  0
 19 18  1  6
 19 20  1  0
 21 19  1  0
 22 21  1  1
 22 24  1  0
 23 22  1  0
 24 25  2  0
 24 26  1  0
M  END
$$$$
