FCL.pdb
     RDKit          3D

 26 26  0  0  1  0  0  0  0  0999 V2000
    7.5112  -17.3815   20.6840 N   0  0  0  0  0  0  0  0  0  0  0  0
    8.4790  -16.5668   21.3835 C   0  0  1  0  0  0  0  0  0  0  0  0
    7.7483  -15.3839   21.9950 C   0  0  0  0  0  0  0  0  0  0  0  0
    7.6192  -14.2911   21.0062 C   0  0  0  0  0  0  0  0  0  0  0  0
    6.5695  -14.2734   20.0867 C   0  0  0  0  0  0  0  0  0  0  0  0
    6.4831  -13.2508   19.1902 C   0  0  0  0  0  0  0  0  0  0  0  0
    7.4165  -12.2306   19.1750 C   0  0  0  0  0  0  0  0  0  0  0  0
    8.4549  -12.2403   20.0784 C   0  0  0  0  0  0  0  0  0  0  0  0
    8.5358  -13.2702   20.9760 C   0  0  0  0  0  0  0  0  0  0  0  0
    9.1808  -17.3891   22.3674 C   0  0  0  0  0  0  0  0  0  0  0  0
    8.5616  -18.2578   23.0762 O   0  0  0  0  0  0  0  0  0  0  0  0
   10.5826  -17.2273   22.5479 N   0  0  0  0  0  0  0  0  0  0  0  0
   11.2695  -17.8274   23.6741 C   0  0  1  0  0  0  0  0  0  0  0  0
   12.6603  -18.3084   23.2744 C   0  0  0  0  0  0  0  0  0  0  0  0
   13.0674  -17.5686   21.6702 S   0  0  0  0  0  0  0  0  0  0  0  0
   11.4618  -16.8562   24.7797 C   0  0  0  0  0  0  0  0  0  0  0  0
   11.9155  -15.7098   24.5277 O   0  0  0  0  0  0  0  0  0  0  0  0
   10.2182  -14.3568   29.0334 C   0  0  0  0  0  0  0  0  0  0  0  0
    9.5977  -14.0275   27.6701 C   0  0  2  0  0  0  0  0  0  0  0  0
    8.1483  -13.7432   27.8681 C   0  0  0  0  0  0  0  0  0  0  0  0
    9.8899  -15.1457   26.7399 C   0  0  0  0  0  0  0  0  0  0  0  0
   10.9828  -16.0709   27.1379 C   0  0  2  0  0  0  0  0  0  0  0  0
   11.1623  -17.1374   26.1334 N   0  0  0  0  0  0  0  0  0  0  0  0
   10.6751  -16.7377   28.4048 C   0  0  0  0  0  0  0  0  0  0  0  0
    9.7686  -17.5894   28.4688 O   0  0  0  0  0  0  0  0  0  0  0  0
   11.3817  -16.4363   29.5495 O   0  0  0  0  0  0  0  0  0  0  0  0
  2  1  1  1
  2 10  1  0
  3  2  1  0
  3  4  1  0
  4  9  2  0
  5  4  1  0
  5  6  2  0
  6  7  1  0
  7  8  2  0
  9  8  1  0
 10 11  2  0
 12 13  1  0
 12 10  1  0
 13 16  1  0
 13 14  1  6
 15 14  1  0
 16 23  1  0
 16 17  2  0
 19 18  1  1
 19 20  1  0
 21 19  1  0
 22 21  1  6
 22 24  1  0
 23 22  1  0
 24 25  2  0
 24 26  1  0
M  END
$$$$
