RSN.pdb
     RDKit          3D

 26 25  0  0  1  0  0  0  0  0999 V2000
   17.9742  -24.3007   -8.9227 N   0  0  0  0  0  0  0  0  0  0  0  0
   17.2289  -24.9368   -9.9719 C   0  0  0  0  0  0  0  0  0  0  0  0
   16.4268  -25.8718   -9.6380 N   0  0  0  0  0  0  0  0  0  0  0  0
   17.3643  -24.5548  -11.3266 N   0  0  0  0  0  0  0  0  0  0  0  0
   17.4017  -23.1812  -11.7673 C   0  0  0  0  0  0  0  0  0  0  0  0
   18.6951  -22.8778  -12.4613 C   0  0  0  0  0  0  0  0  0  0  0  0
   18.5537  -22.9637  -13.9801 C   0  0  0  0  0  0  0  0  0  0  0  0
   19.9551  -22.6998  -14.5255 C   0  0  2  0  0  0  0  0  0  0  0  0
   20.9544  -23.2514  -13.6569 N   0  0  0  0  0  0  0  0  0  0  0  0
   20.1058  -21.2327  -14.6611 C   0  0  0  0  0  0  0  0  0  0  0  0
   20.3297  -20.5459  -13.6419 O   0  0  0  0  0  0  0  0  0  0  0  0
   15.8792  -26.4502  -10.3038 O   0  0  0  0  0  0  0  0  0  0  0  0
   20.0119  -19.6276  -18.5533 C   0  0  0  0  0  0  0  0  0  0  0  0
   20.7773  -19.0815  -17.5445 C   0  0  1  0  0  0  0  0  0  0  0  0
   20.1713  -19.2353  -16.1744 N   0  0  0  0  0  0  0  0  0  0  0  0
   19.9877  -20.6676  -15.9555 C   0  0  0  0  0  0  0  0  0  0  0  0
   18.8509  -18.6082  -16.0479 O   0  0  0  0  0  0  0  0  0  0  0  0
   17.8670  -19.3525  -15.8185 N   0  0  0  0  0  0  0  0  0  0  0  0
   15.0127  -15.5422  -13.6286 C   0  0  0  0  0  0  0  0  0  0  0  0
   15.3409  -16.4564  -14.6456 O   0  0  0  0  0  0  0  0  0  0  0  0
   14.4778  -16.7766  -15.4893 C   0  0  0  0  0  0  0  0  0  0  0  0
   16.6908  -17.0377  -14.7235 C   0  0  2  0  0  0  0  0  0  0  0  0
   17.2941  -16.6912  -16.0676 N   0  0  0  0  0  0  0  0  0  0  0  0
   18.6379  -17.2207  -16.1706 C   0  0  0  0  0  0  0  0  0  0  0  0
   17.3121  -15.2373  -16.3452 O   0  0  0  0  0  0  0  0  0  0  0  0
   16.6465  -14.6681  -17.2337 O   0  0  0  0  0  0  0  0  0  0  0  0
  2  1  1  0
  2  4  1  0
  3  2  2  0
  5  4  1  0
  5  6  1  0
  6  7  1  0
  7  8  1  0
  8  9  1  1
 10 11  2  0
 10  8  1  0
 12 13  1  0
 14 13  1  1
 14 15  1  0
 14 16  1  0
 15 10  1  0
 16 23  1  0
 17 16  2  0
 19 18  1  0
 20 19  2  0
 21 19  1  0
 22 21  1  6
 22 24  1  0
 23 22  1  0
 24 25  2  0
 24 26  1  0
M  END
$$$$
