RSN.pdb
     RDKit          3D

 26 25  0  0  1  0  0  0  0  0999 V2000
   17.6043  -19.6565  -13.9901 N   0  0  0  0  0  0  0  0  0  0  0  0
   16.8137  -20.7982  -14.3539 C   0  0  0  0  0  0  0  0  0  0  0  0
   15.5798  -20.7852  -14.0279 N   0  0  0  0  0  0  0  0  0  0  0  0
   17.3632  -21.9014  -15.0470 N   0  0  0  0  0  0  0  0  0  0  0  0
   18.7443  -22.3046  -14.9361 C   0  0  0  0  0  0  0  0  0  0  0  0
   19.5696  -21.2188  -14.3145 C   0  0  0  0  0  0  0  0  0  0  0  0
   21.0590  -21.5584  -14.3390 C   0  0  0  0  0  0  0  0  0  0  0  0
   21.4656  -21.6705  -12.8716 C   0  0  2  0  0  0  0  0  0  0  0  0
   20.3730  -21.3222  -12.0100 N   0  0  0  0  0  0  0  0  0  0  0  0
   22.6249  -20.7720  -12.6660 C   0  0  0  0  0  0  0  0  0  0  0  0
   22.5620  -19.5925  -13.0728 O   0  0  0  0  0  0  0  0  0  0  0  0
   14.9010  -21.5409  -14.2427 O   0  0  0  0  0  0  0  0  0  0  0  0
   25.7533  -22.3393  -10.4787 C   0  0  0  0  0  0  0  0  0  0  0  0
   25.6078  -20.9693  -10.5382 C   0  0  1  0  0  0  0  0  0  0  0  0
   24.9633  -20.4841  -11.8099 N   0  0  0  0  0  0  0  0  0  0  0  0
   23.7663  -21.2967  -12.0099 C   0  0  0  0  0  0  0  0  0  0  0  0
   25.8078  -20.6633  -12.9962 O   0  0  0  0  0  0  0  0  0  0  0  0
   25.9491  -21.8262  -13.4461 N   0  0  0  0  0  0  0  0  0  0  0  0
   29.1010  -22.6857  -16.3926 C   0  0  0  0  0  0  0  0  0  0  0  0
   28.6508  -21.3991  -16.0469 O   0  0  0  0  0  0  0  0  0  0  0  0
   28.8632  -20.4425  -16.8209 C   0  0  0  0  0  0  0  0  0  0  0  0
   27.9327  -21.1712  -14.7825 C   0  0  2  0  0  0  0  0  0  0  0  0
   27.1953  -19.8525  -14.8714 N   0  0  0  0  0  0  0  0  0  0  0  0
   26.4621  -19.5994  -13.6486 C   0  0  0  0  0  0  0  0  0  0  0  0
   26.2737  -19.7725  -16.0269 O   0  0  0  0  0  0  0  0  0  0  0  0
   25.3691  -20.5931  -16.2816 O   0  0  0  0  0  0  0  0  0  0  0  0
  2  1  1  0
  2  4  1  0
  3  2  2  0
  5  4  1  0
  5  6  1  0
  6  7  1  0
  7  8  1  0
  8  9  1  1
 10 11  2  0
 10  8  1  0
 12 13  1  0
 14 13  1  1
 14 15  1  0
 14 16  1  0
 15 10  1  0
 16 23  1  0
 17 16  2  0
 19 18  1  0
 20 19  2  0
 21 19  1  0
 22 21  1  1
 22 24  1  0
 23 22  1  0
 24 25  2  0
 24 26  1  0
M  END
$$$$
