RSN.pdb
     RDKit          3D

 26 25  0  0  1  0  0  0  0  0999 V2000
   22.2142  -28.2632  -14.7292 N   0  0  0  0  0  0  0  0  0  0  0  0
   20.8929  -28.7767  -14.9555 C   0  0  0  0  0  0  0  0  0  0  0  0
   20.6250  -29.9336  -14.4876 N   0  0  0  0  0  0  0  0  0  0  0  0
   19.9141  -28.0434  -15.6651 N   0  0  0  0  0  0  0  0  0  0  0  0
   20.0013  -26.6232  -15.9057 C   0  0  0  0  0  0  0  0  0  0  0  0
   19.8842  -25.8559  -14.6235 C   0  0  0  0  0  0  0  0  0  0  0  0
   19.8099  -24.3503  -14.8720 C   0  0  0  0  0  0  0  0  0  0  0  0
   19.6617  -23.7254  -13.4869 C   0  0  2  0  0  0  0  0  0  0  0  0
   18.4198  -24.1113  -12.8818 N   0  0  0  0  0  0  0  0  0  0  0  0
   19.7486  -22.2564  -13.6551 C   0  0  0  0  0  0  0  0  0  0  0  0
   18.7344  -21.6230  -14.0168 O   0  0  0  0  0  0  0  0  0  0  0  0
   19.7196  -30.4273  -14.6072 O   0  0  0  0  0  0  0  0  0  0  0  0
   23.4567  -20.6070  -12.9386 C   0  0  0  0  0  0  0  0  0  0  0  0
   22.3596  -19.7985  -12.7278 C   0  0  1  0  0  0  0  0  0  0  0  0
   21.1566  -20.1853  -13.5472 N   0  0  0  0  0  0  0  0  0  0  0  0
   20.9923  -21.6286  -13.3953 C   0  0  0  0  0  0  0  0  0  0  0  0
   21.3185  -19.9195  -14.9810 O   0  0  0  0  0  0  0  0  0  0  0  0
   21.8052  -20.8290  -15.6955 N   0  0  0  0  0  0  0  0  0  0  0  0
   17.9947  -16.7218  -16.7761 C   0  0  0  0  0  0  0  0  0  0  0  0
   18.8706  -17.7031  -17.2735 O   0  0  0  0  0  0  0  0  0  0  0  0
   18.4415  -18.8528  -17.5048 C   0  0  0  0  0  0  0  0  0  0  0  0
   20.2862  -17.3868  -17.5231 C   0  0  2  0  0  0  0  0  0  0  0  0
   21.1381  -18.5296  -17.0145 N   0  0  0  0  0  0  0  0  0  0  0  0
   20.9558  -18.7006  -15.5881 C   0  0  0  0  0  0  0  0  0  0  0  0
   22.5785  -18.3658  -17.3133 O   0  0  0  0  0  0  0  0  0  0  0  0
   23.2015  -18.9808  -18.2022 O   0  0  0  0  0  0  0  0  0  0  0  0
  2  1  1  0
  2  4  1  0
  3  2  2  0
  5  4  1  0
  5  6  1  0
  6  7  1  0
  7  8  1  0
  8  9  1  6
 10 11  2  0
 10  8  1  0
 12 13  1  0
 14 13  1  1
 14 15  1  0
 14 16  1  0
 15 10  1  0
 16 23  1  0
 17 16  2  0
 19 18  1  0
 20 19  2  0
 21 19  1  0
 22 21  1  6
 22 24  1  0
 23 22  1  0
 24 25  2  0
 24 26  1  0
M  END
$$$$
