RSN.pdb
     RDKit          3D

 26 25  0  0  1  0  0  0  0  0999 V2000
   25.2195  -20.8719  -10.3646 N   0  0  0  0  0  0  0  0  0  0  0  0
   25.7631  -21.9735  -11.1074 C   0  0  0  0  0  0  0  0  0  0  0  0
   25.1014  -23.0650  -11.1067 N   0  0  0  0  0  0  0  0  0  0  0  0
   26.9809  -21.8710  -11.8185 N   0  0  0  0  0  0  0  0  0  0  0  0
   27.5521  -20.6160  -12.2440 C   0  0  0  0  0  0  0  0  0  0  0  0
   26.6484  -19.9200  -13.2164 C   0  0  0  0  0  0  0  0  0  0  0  0
   27.2126  -18.5649  -13.6400 C   0  0  0  0  0  0  0  0  0  0  0  0
   26.2307  -18.0332  -14.6814 C   0  0  2  0  0  0  0  0  0  0  0  0
   25.1429  -18.9482  -14.8728 N   0  0  0  0  0  0  0  0  0  0  0  0
   26.9897  -17.8244  -15.9359 C   0  0  0  0  0  0  0  0  0  0  0  0
   27.9069  -16.9766  -15.9599 O   0  0  0  0  0  0  0  0  0  0  0  0
   25.3919  -23.9356  -11.5920 O   0  0  0  0  0  0  0  0  0  0  0  0
   25.7367  -20.0815  -19.1444 C   0  0  0  0  0  0  0  0  0  0  0  0
   27.0376  -19.6251  -19.1779 C   0  0  1  0  0  0  0  0  0  0  0  0
   27.2617  -18.3767  -18.3659 N   0  0  0  0  0  0  0  0  0  0  0  0
   26.6372  -18.6045  -17.0655 C   0  0  0  0  0  0  0  0  0  0  0  0
   26.6301  -17.1850  -18.9435 O   0  0  0  0  0  0  0  0  0  0  0  0
   25.6861  -16.6550  -18.3090 N   0  0  0  0  0  0  0  0  0  0  0  0
   24.6254  -12.6495  -20.1425 C   0  0  0  0  0  0  0  0  0  0  0  0
   25.9602  -13.0695  -20.2823 O   0  0  0  0  0  0  0  0  0  0  0  0
   26.7574  -12.3787  -20.9506 C   0  0  0  0  0  0  0  0  0  0  0  0
   26.4242  -14.3142  -19.6487 C   0  0  1  0  0  0  0  0  0  0  0  0
   26.3498  -15.4348  -20.6632 N   0  0  0  0  0  0  0  0  0  0  0  0
   27.0309  -16.6125  -20.1671 C   0  0  0  0  0  0  0  0  0  0  0  0
   26.9000  -15.0654  -21.9868 O   0  0  0  0  0  0  0  0  0  0  0  0
   28.0351  -15.3727  -22.4033 O   0  0  0  0  0  0  0  0  0  0  0  0
  2  1  1  0
  2  4  1  0
  3  2  2  0
  5  4  1  0
  5  6  1  0
  6  7  1  0
  7  8  1  0
  8  9  1  6
 10 11  2  0
 10  8  1  0
 12 13  1  0
 14 13  1  1
 14 15  1  0
 14 16  1  0
 15 10  1  0
 16 23  1  0
 17 16  2  0
 19 18  1  0
 20 19  2  0
 21 19  1  0
 22 21  1  1
 22 24  1  0
 23 22  1  0
 24 25  2  0
 24 26  1  0
M  END
$$$$
