RSN.pdb
     RDKit          3D

 26 25  0  0  1  0  0  0  0  0999 V2000
   21.1293  -27.0787  -11.8178 N   0  0  0  0  0  0  0  0  0  0  0  0
   19.7563  -27.3596  -12.1292 C   0  0  0  0  0  0  0  0  0  0  0  0
   19.5248  -28.1137  -13.1326 N   0  0  0  0  0  0  0  0  0  0  0  0
   18.6903  -26.8317  -11.3648 N   0  0  0  0  0  0  0  0  0  0  0  0
   18.8793  -26.0557  -10.1630 C   0  0  0  0  0  0  0  0  0  0  0  0
   19.1226  -26.9481   -8.9836 C   0  0  0  0  0  0  0  0  0  0  0  0
   17.9433  -26.9331   -8.0123 C   0  0  0  0  0  0  0  0  0  0  0  0
   18.3012  -27.9556   -6.9364 C   0  0  2  0  0  0  0  0  0  0  0  0
   18.1714  -29.2929   -7.4383 N   0  0  0  0  0  0  0  0  0  0  0  0
   17.3984  -27.7189   -5.7864 C   0  0  0  0  0  0  0  0  0  0  0  0
   16.1770  -27.9494   -5.9124 O   0  0  0  0  0  0  0  0  0  0  0  0
   18.5796  -28.3821  -13.4679 O   0  0  0  0  0  0  0  0  0  0  0  0
   17.4041  -25.8543   -1.2654 C   0  0  0  0  0  0  0  0  0  0  0  0
   18.0345  -26.4571   -2.3335 C   0  0  1  0  0  0  0  0  0  0  0  0
   17.1292  -26.6983   -3.5127 N   0  0  0  0  0  0  0  0  0  0  0  0
   17.9670  -27.2359   -4.5814 C   0  0  0  0  0  0  0  0  0  0  0  0
   16.5065  -25.4742   -4.0290 O   0  0  0  0  0  0  0  0  0  0  0  0
   17.0060  -24.9483   -5.0530 N   0  0  0  0  0  0  0  0  0  0  0  0
   13.3486  -22.8441   -7.4276 C   0  0  0  0  0  0  0  0  0  0  0  0
   13.8326  -22.8112   -6.1076 O   0  0  0  0  0  0  0  0  0  0  0  0
   13.7112  -21.7680   -5.4320 C   0  0  0  0  0  0  0  0  0  0  0  0
   14.4798  -23.9938   -5.5172 C   0  0  2  0  0  0  0  0  0  0  0  0
   14.7788  -23.7099   -4.0609 N   0  0  0  0  0  0  0  0  0  0  0  0
   15.3831  -24.8668   -3.4336 C   0  0  0  0  0  0  0  0  0  0  0  0
   13.5871  -23.2934   -3.2878 O   0  0  0  0  0  0  0  0  0  0  0  0
   12.8506  -24.0607   -2.6356 O   0  0  0  0  0  0  0  0  0  0  0  0
  2  1  1  0
  2  4  1  0
  3  2  2  0
  5  4  1  0
  5  6  1  0
  6  7  1  0
  7  8  1  0
  8  9  1  6
 10 11  2  0
 10  8  1  0
 12 13  1  0
 14 13  1  1
 14 15  1  0
 14 16  1  0
 15 10  1  0
 16 23  1  0
 17 16  2  0
 19 18  1  0
 20 19  2  0
 21 19  1  0
 22 21  1  6
 22 24  1  0
 23 22  1  0
 24 25  2  0
 24 26  1  0
M  END
$$$$
