RSN.pdb
     RDKit          3D

 26 25  0  0  1  0  0  0  0  0999 V2000
   15.6205  -15.1399  -10.6735 N   0  0  0  0  0  0  0  0  0  0  0  0
   14.3533  -14.4667  -10.6308 C   0  0  0  0  0  0  0  0  0  0  0  0
   13.5739  -14.7445   -9.6589 N   0  0  0  0  0  0  0  0  0  0  0  0
   13.9679  -13.5292  -11.6166 N   0  0  0  0  0  0  0  0  0  0  0  0
   14.5918  -12.2378  -11.7756 C   0  0  0  0  0  0  0  0  0  0  0  0
   14.2982  -11.3544  -10.6009 C   0  0  0  0  0  0  0  0  0  0  0  0
   14.7719   -9.9218  -10.8403 C   0  0  0  0  0  0  0  0  0  0  0  0
   14.4478   -9.1746   -9.5490 C   0  0  2  0  0  0  0  0  0  0  0  0
   13.0767   -9.3695   -9.1756 N   0  0  0  0  0  0  0  0  0  0  0  0
   14.7473   -7.7429   -9.7816 C   0  0  0  0  0  0  0  0  0  0  0  0
   14.0424   -7.0950  -10.5842 O   0  0  0  0  0  0  0  0  0  0  0  0
   12.6366  -14.3234   -9.5105 O   0  0  0  0  0  0  0  0  0  0  0  0
   16.6930   -3.7941   -8.0409 C   0  0  0  0  0  0  0  0  0  0  0  0
   16.1311   -5.0532   -8.0214 C   0  0  1  0  0  0  0  0  0  0  0  0
   16.2529   -5.7904   -9.3290 N   0  0  0  0  0  0  0  0  0  0  0  0
   15.8322   -7.1659   -9.0756 C   0  0  0  0  0  0  0  0  0  0  0  0
   17.6273   -5.8481   -9.8393 O   0  0  0  0  0  0  0  0  0  0  0  0
   18.4941   -6.4125   -9.1288 N   0  0  0  0  0  0  0  0  0  0  0  0
   21.9223   -5.6012  -12.3880 C   0  0  0  0  0  0  0  0  0  0  0  0
   21.1461   -6.7732  -12.4273 O   0  0  0  0  0  0  0  0  0  0  0  0
   21.6403   -7.8254  -12.8834 C   0  0  0  0  0  0  0  0  0  0  0  0
   19.7586   -6.7698  -11.9364 C   0  0  1  0  0  0  0  0  0  0  0  0
   19.4044   -5.3690  -11.4859 N   0  0  0  0  0  0  0  0  0  0  0  0
   18.0159   -5.3041  -11.0797 C   0  0  0  0  0  0  0  0  0  0  0  0
   19.6680   -4.3377  -12.5145 O   0  0  0  0  0  0  0  0  0  0  0  0
   18.8055   -3.8303  -13.2596 O   0  0  0  0  0  0  0  0  0  0  0  0
  2  1  1  0
  2  4  1  0
  3  2  2  0
  5  4  1  0
  5  6  1  0
  6  7  1  0
  7  8  1  0
  8  9  1  6
 10 11  2  0
 10  8  1  0
 12 13  1  0
 14 13  1  6
 14 15  1  0
 14 16  1  0
 15 10  1  0
 16 23  1  0
 17 16  2  0
 19 18  1  0
 20 19  2  0
 21 19  1  0
 22 21  1  1
 22 24  1  0
 23 22  1  0
 24 25  2  0
 24 26  1  0
M  END
$$$$
