RSN.pdb
     RDKit          3D

 26 25  0  0  1  0  0  0  0  0999 V2000
   15.1162  -11.0042  -15.7586 N   0  0  0  0  0  0  0  0  0  0  0  0
   15.0401  -12.4080  -16.0492 C   0  0  0  0  0  0  0  0  0  0  0  0
   13.9680  -12.8371  -16.5929 N   0  0  0  0  0  0  0  0  0  0  0  0
   16.1012  -13.2943  -15.7530 N   0  0  0  0  0  0  0  0  0  0  0  0
   17.3595  -12.8703  -15.1880 C   0  0  0  0  0  0  0  0  0  0  0  0
   18.3288  -12.4911  -16.2665 C   0  0  0  0  0  0  0  0  0  0  0  0
   19.6540  -11.9996  -15.6865 C   0  0  0  0  0  0  0  0  0  0  0  0
   20.5378  -11.7158  -16.8986 C   0  0  2  0  0  0  0  0  0  0  0  0
   20.9835  -12.9374  -17.5040 N   0  0  0  0  0  0  0  0  0  0  0  0
   21.6789  -10.8964  -16.4294 C   0  0  0  0  0  0  0  0  0  0  0  0
   22.7116  -11.4672  -16.0189 O   0  0  0  0  0  0  0  0  0  0  0  0
   13.7799  -13.8297  -16.8322 O   0  0  0  0  0  0  0  0  0  0  0  0
   24.8168   -7.9587  -16.8791 C   0  0  0  0  0  0  0  0  0  0  0  0
   23.7668   -8.8400  -17.0294 C   0  0  1  0  0  0  0  0  0  0  0  0
   22.6417   -8.6125  -16.0546 N   0  0  0  0  0  0  0  0  0  0  0  0
   21.5463   -9.4859  -16.4673 C   0  0  0  0  0  0  0  0  0  0  0  0
   22.1259   -7.2390  -16.0706 O   0  0  0  0  0  0  0  0  0  0  0  0
   21.4564   -6.8748  -17.0675 N   0  0  0  0  0  0  0  0  0  0  0  0
   19.7272   -3.1507  -14.5862 C   0  0  0  0  0  0  0  0  0  0  0  0
   19.1801   -4.4448  -14.5255 O   0  0  0  0  0  0  0  0  0  0  0  0
   17.9607   -4.5889  -14.2980 C   0  0  0  0  0  0  0  0  0  0  0  0
   20.0314   -5.6283  -14.7272 C   0  0  1  0  0  0  0  0  0  0  0  0
   21.4668   -5.1751  -14.8852 N   0  0  0  0  0  0  0  0  0  0  0  0
   22.3452   -6.3176  -15.0273 C   0  0  0  0  0  0  0  0  0  0  0  0
   21.9390   -4.3231  -13.7707 O   0  0  0  0  0  0  0  0  0  0  0  0
   22.4405   -4.7436  -12.7086 O   0  0  0  0  0  0  0  0  0  0  0  0
  2  1  1  0
  2  4  1  0
  3  2  2  0
  5  4  1  0
  5  6  1  0
  6  7  1  0
  7  8  1  0
  8  9  1  1
 10 11  2  0
 10  8  1  0
 12 13  1  0
 14 13  1  1
 14 15  1  0
 14 16  1  0
 15 10  1  0
 16 23  1  0
 17 16  2  0
 19 18  1  0
 20 19  2  0
 21 19  1  0
 22 21  1  6
 22 24  1  0
 23 22  1  0
 24 25  2  0
 24 26  1  0
M  END
$$$$
