RSN.pdb
     RDKit          3D

 26 25  0  0  1  0  0  0  0  0999 V2000
   24.6168  -20.0023  -10.1508 N   0  0  0  0  0  0  0  0  0  0  0  0
   25.5996  -20.8727   -9.5698 C   0  0  0  0  0  0  0  0  0  0  0  0
   25.2149  -21.6491   -8.6326 N   0  0  0  0  0  0  0  0  0  0  0  0
   26.9443  -20.8837  -10.0067 N   0  0  0  0  0  0  0  0  0  0  0  0
   27.4353  -20.0734  -11.0951 C   0  0  0  0  0  0  0  0  0  0  0  0
   27.3043  -20.7969  -12.4012 C   0  0  0  0  0  0  0  0  0  0  0  0
   26.1046  -20.2975  -13.2047 C   0  0  0  0  0  0  0  0  0  0  0  0
   26.1411  -21.0909  -14.5086 C   0  0  2  0  0  0  0  0  0  0  0  0
   27.4666  -21.1141  -15.0563 N   0  0  0  0  0  0  0  0  0  0  0  0
   25.1818  -20.4527  -15.4393 C   0  0  0  0  0  0  0  0  0  0  0  0
   25.5641  -19.4988  -16.1496 O   0  0  0  0  0  0  0  0  0  0  0  0
   24.2386  -21.7249   -8.2877 O   0  0  0  0  0  0  0  0  0  0  0  0
   23.3957  -22.0089  -18.1280 C   0  0  0  0  0  0  0  0  0  0  0  0
   22.4135  -21.5375  -17.2826 C   0  0  2  0  0  0  0  0  0  0  0  0
   22.8672  -20.4042  -16.4006 N   0  0  0  0  0  0  0  0  0  0  0  0
   23.8586  -20.9585  -15.4824 C   0  0  0  0  0  0  0  0  0  0  0  0
   21.7908  -19.8377  -15.5802 O   0  0  0  0  0  0  0  0  0  0  0  0
   21.7587  -20.1407  -14.3629 N   0  0  0  0  0  0  0  0  0  0  0  0
   18.9132  -15.8873  -13.1287 C   0  0  0  0  0  0  0  0  0  0  0  0
   18.7348  -16.3816  -14.4332 O   0  0  0  0  0  0  0  0  0  0  0  0
   17.5966  -16.3707  -14.9466 C   0  0  0  0  0  0  0  0  0  0  0  0
   19.8765  -16.9107  -15.1965 C   0  0  1  0  0  0  0  0  0  0  0  0
   19.8032  -18.4224  -15.1982 N   0  0  0  0  0  0  0  0  0  0  0  0
   20.7997  -18.9762  -16.0913 C   0  0  0  0  0  0  0  0  0  0  0  0
   18.4670  -18.9445  -15.5626 O   0  0  0  0  0  0  0  0  0  0  0  0
   18.0818  -19.1819  -16.7253 O   0  0  0  0  0  0  0  0  0  0  0  0
  2  1  1  0
  2  4  1  0
  3  2  2  0
  5  4  1  0
  5  6  1  0
  6  7  1  0
  7  8  1  0
  8  9  1  6
 10 11  2  0
 10  8  1  0
 12 13  1  0
 14 13  1  6
 14 15  1  0
 14 16  1  0
 15 10  1  0
 16 23  1  0
 17 16  2  0
 19 18  1  0
 20 19  2  0
 21 19  1  0
 22 21  1  1
 22 24  1  0
 23 22  1  0
 24 25  2  0
 24 26  1  0
M  END
$$$$
