RSN.pdb
     RDKit          3D

 26 25  0  0  1  0  0  0  0  0999 V2000
    8.3755  -22.6356   -5.4920 N   0  0  0  0  0  0  0  0  0  0  0  0
    9.0464  -23.8966   -5.6355 C   0  0  0  0  0  0  0  0  0  0  0  0
    8.8856  -24.5248   -6.7348 N   0  0  0  0  0  0  0  0  0  0  0  0
    9.8581  -24.4357   -4.6109 N   0  0  0  0  0  0  0  0  0  0  0  0
   10.2856  -23.6852   -3.4549 C   0  0  0  0  0  0  0  0  0  0  0  0
   11.6659  -23.1362   -3.6549 C   0  0  0  0  0  0  0  0  0  0  0  0
   12.1521  -22.3711   -2.4250 C   0  0  0  0  0  0  0  0  0  0  0  0
   13.5260  -21.8287   -2.8115 C   0  0  2  0  0  0  0  0  0  0  0  0
   14.0260  -22.4897   -3.9822 N   0  0  0  0  0  0  0  0  0  0  0  0
   14.4224  -22.0324   -1.6503 C   0  0  0  0  0  0  0  0  0  0  0  0
   15.4688  -22.6988   -1.7971 O   0  0  0  0  0  0  0  0  0  0  0  0
    9.3480  -25.4216   -6.9792 O   0  0  0  0  0  0  0  0  0  0  0  0
   15.2811  -20.3004    2.8106 C   0  0  0  0  0  0  0  0  0  0  0  0
   14.5313  -20.3791    1.6560 C   0  0  1  0  0  0  0  0  0  0  0  0
   14.9382  -21.5082    0.7462 N   0  0  0  0  0  0  0  0  0  0  0  0
   14.0484  -21.4558   -0.4108 C   0  0  0  0  0  0  0  0  0  0  0  0
   14.7756  -22.8336    1.3541 O   0  0  0  0  0  0  0  0  0  0  0  0
   13.6533  -23.3876    1.2631 N   0  0  0  0  0  0  0  0  0  0  0  0
   15.0378  -27.2231    3.6574 C   0  0  0  0  0  0  0  0  0  0  0  0
   16.1122  -27.1355    2.7543 O   0  0  0  0  0  0  0  0  0  0  0  0
   16.7689  -28.1604    2.4756 C   0  0  0  0  0  0  0  0  0  0  0  0
   16.4684  -25.8482    2.1362 C   0  0  2  0  0  0  0  0  0  0  0  0
   15.5412  -24.7778    2.6704 N   0  0  0  0  0  0  0  0  0  0  0  0
   15.8122  -23.5079    2.0296 C   0  0  0  0  0  0  0  0  0  0  0  0
   15.6161  -24.6168    4.1399 O   0  0  0  0  0  0  0  0  0  0  0  0
   16.4361  -23.8944    4.7419 O   0  0  0  0  0  0  0  0  0  0  0  0
  2  1  1  0
  2  4  1  0
  3  2  2  0
  5  4  1  0
  5  6  1  0
  6  7  1  0
  7  8  1  0
  8  9  1  6
 10 11  2  0
 10  8  1  0
 12 13  1  0
 14 13  1  6
 14 15  1  0
 14 16  1  0
 15 10  1  0
 16 23  1  0
 17 16  2  0
 19 18  1  0
 20 19  2  0
 21 19  1  0
 22 21  1  6
 22 24  1  0
 23 22  1  0
 24 25  2  0
 24 26  1  0
M  END
$$$$
