RSN.pdb
     RDKit          3D

 26 25  0  0  1  0  0  0  0  0999 V2000
   22.2783  -20.7178  -10.0792 N   0  0  0  0  0  0  0  0  0  0  0  0
   23.4760  -20.8513   -9.2992 C   0  0  0  0  0  0  0  0  0  0  0  0
   23.3665  -20.7405   -8.0324 N   0  0  0  0  0  0  0  0  0  0  0  0
   24.7352  -21.0971   -9.8936 N   0  0  0  0  0  0  0  0  0  0  0  0
   24.9013  -21.5141  -11.2650 C   0  0  0  0  0  0  0  0  0  0  0  0
   24.2097  -20.5672  -12.1988 C   0  0  0  0  0  0  0  0  0  0  0  0
   24.4354  -20.9511  -13.6603 C   0  0  0  0  0  0  0  0  0  0  0  0
   23.8127  -19.8165  -14.4702 C   0  0  2  0  0  0  0  0  0  0  0  0
   22.5152  -20.1873  -14.9565 N   0  0  0  0  0  0  0  0  0  0  0  0
   24.7404  -19.5091  -15.5830 C   0  0  0  0  0  0  0  0  0  0  0  0
   24.3717  -19.7145  -16.7588 O   0  0  0  0  0  0  0  0  0  0  0  0
   24.1317  -20.9149   -7.3528 O   0  0  0  0  0  0  0  0  0  0  0  0
   28.8973  -17.2007  -16.5721 C   0  0  0  0  0  0  0  0  0  0  0  0
   27.8373  -17.5369  -15.7567 C   0  0  1  0  0  0  0  0  0  0  0  0
   26.9818  -18.6489  -16.3042 N   0  0  0  0  0  0  0  0  0  0  0  0
   26.0192  -18.9903  -15.2602 C   0  0  0  0  0  0  0  0  0  0  0  0
   27.7373  -19.8694  -16.6083 O   0  0  0  0  0  0  0  0  0  0  0  0
   27.8484  -20.7318  -15.7036 N   0  0  0  0  0  0  0  0  0  0  0  0
   27.4490  -23.6405  -15.8057 C   0  0  0  0  0  0  0  0  0  0  0  0
   28.3717  -23.3625  -16.8299 O   0  0  0  0  0  0  0  0  0  0  0  0
   29.5259  -23.8348  -16.7652 C   0  0  0  0  0  0  0  0  0  0  0  0
   27.9890  -22.5210  -17.9751 C   0  0  2  0  0  0  0  0  0  0  0  0
   28.9852  -21.3888  -18.1027 N   0  0  0  0  0  0  0  0  0  0  0  0
   28.3388  -20.1162  -17.8585 C   0  0  0  0  0  0  0  0  0  0  0  0
   29.6681  -21.3534  -19.4155 O   0  0  0  0  0  0  0  0  0  0  0  0
   29.5802  -20.4260  -20.2454 O   0  0  0  0  0  0  0  0  0  0  0  0
  2  1  1  0
  2  4  1  0
  3  2  2  0
  5  4  1  0
  5  6  1  0
  6  7  1  0
  7  8  1  0
  8  9  1  6
 10 11  2  0
 10  8  1  0
 12 13  1  0
 14 13  1  6
 14 15  1  0
 14 16  1  0
 15 10  1  0
 16 23  1  0
 17 16  2  0
 19 18  1  0
 20 19  2  0
 21 19  1  0
 22 21  1  1
 22 24  1  0
 23 22  1  0
 24 25  2  0
 24 26  1  0
M  END
$$$$
