RSN.pdb
     RDKit          3D

 26 25  0  0  1  0  0  0  0  0999 V2000
   12.6963  -23.8024   -4.5195 N   0  0  0  0  0  0  0  0  0  0  0  0
   13.8041  -23.2614   -3.7839 C   0  0  0  0  0  0  0  0  0  0  0  0
   13.6452  -23.0845   -2.5299 N   0  0  0  0  0  0  0  0  0  0  0  0
   15.0302  -22.9333   -4.4071 N   0  0  0  0  0  0  0  0  0  0  0  0
   15.4184  -23.4214   -5.7084 C   0  0  0  0  0  0  0  0  0  0  0  0
   15.8471  -24.8558   -5.6349 C   0  0  0  0  0  0  0  0  0  0  0  0
   16.3169  -25.3743   -6.9931 C   0  0  0  0  0  0  0  0  0  0  0  0
   17.7670  -25.8000   -6.7765 C   0  0  2  0  0  0  0  0  0  0  0  0
   18.2876  -25.2428   -5.5617 N   0  0  0  0  0  0  0  0  0  0  0  0
   18.5400  -25.3460   -7.9554 C   0  0  0  0  0  0  0  0  0  0  0  0
   19.5683  -24.6580   -7.7822 O   0  0  0  0  0  0  0  0  0  0  0  0
   14.3650  -22.6985   -1.8890 O   0  0  0  0  0  0  0  0  0  0  0  0
   17.3748  -26.9998  -11.5322 C   0  0  0  0  0  0  0  0  0  0  0  0
   18.6889  -26.6214  -11.3545 C   0  0  1  0  0  0  0  0  0  0  0  0
   18.8590  -25.4368  -10.4401 N   0  0  0  0  0  0  0  0  0  0  0  0
   18.0731  -25.7164   -9.2412 C   0  0  0  0  0  0  0  0  0  0  0  0
   18.3468  -24.1845  -11.0077 O   0  0  0  0  0  0  0  0  0  0  0  0
   17.7601  -23.3871  -10.2366 N   0  0  0  0  0  0  0  0  0  0  0  0
   19.2881  -19.9349  -13.4568 C   0  0  0  0  0  0  0  0  0  0  0  0
   20.2419  -20.5821  -12.6513 O   0  0  0  0  0  0  0  0  0  0  0  0
   21.2582  -19.9599  -12.2779 C   0  0  0  0  0  0  0  0  0  0  0  0
   20.0526  -21.9842  -12.2457 C   0  0  2  0  0  0  0  0  0  0  0  0
   18.6997  -22.4547  -12.7345 N   0  0  0  0  0  0  0  0  0  0  0  0
   18.4821  -23.8383  -12.3669 C   0  0  0  0  0  0  0  0  0  0  0  0
   18.5157  -22.2955  -14.1946 O   0  0  0  0  0  0  0  0  0  0  0  0
   18.7217  -23.1848  -15.0451 O   0  0  0  0  0  0  0  0  0  0  0  0
  2  1  1  0
  2  4  1  0
  3  2  2  0
  5  4  1  0
  5  6  1  0
  6  7  1  0
  7  8  1  0
  8  9  1  1
 10 11  2  0
 10  8  1  0
 12 13  1  0
 14 13  1  1
 14 15  1  0
 14 16  1  0
 15 10  1  0
 16 23  1  0
 17 16  2  0
 19 18  1  0
 20 19  2  0
 21 19  1  0
 22 21  1  1
 22 24  1  0
 23 22  1  0
 24 25  2  0
 24 26  1  0
M  END
$$$$
