RSN.pdb
     RDKit          3D

 26 25  0  0  1  0  0  0  0  0999 V2000
   20.0667  -16.5643  -18.5318 N   0  0  0  0  0  0  0  0  0  0  0  0
   18.7422  -16.0236  -18.6507 C   0  0  0  0  0  0  0  0  0  0  0  0
   17.7768  -16.8526  -18.7496 N   0  0  0  0  0  0  0  0  0  0  0  0
   18.4981  -14.6309  -18.6583 N   0  0  0  0  0  0  0  0  0  0  0  0
   19.4858  -13.6466  -18.2868 C   0  0  0  0  0  0  0  0  0  0  0  0
   19.7241  -12.6796  -19.4069 C   0  0  0  0  0  0  0  0  0  0  0  0
   19.2957  -11.2626  -19.0293 C   0  0  0  0  0  0  0  0  0  0  0  0
   20.4806  -10.6799  -18.2627 C   0  0  2  0  0  0  0  0  0  0  0  0
   21.0777  -11.6701  -17.4141 N   0  0  0  0  0  0  0  0  0  0  0  0
   19.9751   -9.5291  -17.4793 C   0  0  0  0  0  0  0  0  0  0  0  0
   19.4353   -8.5743  -18.0773 O   0  0  0  0  0  0  0  0  0  0  0  0
   16.7765  -16.5907  -18.8428 O   0  0  0  0  0  0  0  0  0  0  0  0
   20.6507   -9.4360  -13.2388 C   0  0  0  0  0  0  0  0  0  0  0  0
   19.5205   -8.9417  -13.8553 C   0  0  1  0  0  0  0  0  0  0  0  0
   19.7704   -8.4140  -15.2436 N   0  0  0  0  0  0  0  0  0  0  0  0
   20.1286   -9.5631  -16.0708 C   0  0  0  0  0  0  0  0  0  0  0  0
   20.8895   -7.4677  -15.3143 O   0  0  0  0  0  0  0  0  0  0  0  0
   21.9276   -7.8302  -15.9189 N   0  0  0  0  0  0  0  0  0  0  0  0
   24.5006   -4.2236  -16.9858 C   0  0  0  0  0  0  0  0  0  0  0  0
   23.1993   -3.9423  -16.5329 O   0  0  0  0  0  0  0  0  0  0  0  0
   22.8866   -2.7680  -16.2454 C   0  0  0  0  0  0  0  0  0  0  0  0
   22.2049   -5.0186  -16.3951 C   0  0  1  0  0  0  0  0  0  0  0  0
   21.9748   -5.2842  -14.9230 N   0  0  0  0  0  0  0  0  0  0  0  0
   20.8530   -6.1815  -14.7400 C   0  0  0  0  0  0  0  0  0  0  0  0
   21.7577   -4.0523  -14.1315 O   0  0  0  0  0  0  0  0  0  0  0  0
   20.6455   -3.5415  -13.8895 O   0  0  0  0  0  0  0  0  0  0  0  0
  2  1  1  0
  2  4  1  0
  3  2  2  0
  5  4  1  0
  5  6  1  0
  6  7  1  0
  7  8  1  0
  8  9  1  1
 10 11  2  0
 10  8  1  0
 12 13  1  0
 14 13  1  6
 14 15  1  0
 14 16  1  0
 15 10  1  0
 16 23  1  0
 17 16  2  0
 19 18  1  0
 20 19  2  0
 21 19  1  0
 22 21  1  6
 22 24  1  0
 23 22  1  0
 24 25  2  0
 24 26  1  0
M  END
$$$$
