RSN.pdb
     RDKit          3D

 26 25  0  0  1  0  0  0  0  0999 V2000
   10.4336   -9.7216   -9.8063 N   0  0  0  0  0  0  0  0  0  0  0  0
   10.4953   -9.2418   -8.4547 C   0  0  0  0  0  0  0  0  0  0  0  0
    9.5395   -9.5655   -7.6731 N   0  0  0  0  0  0  0  0  0  0  0  0
   11.5652   -8.4426   -7.9901 N   0  0  0  0  0  0  0  0  0  0  0  0
   12.5892   -7.9027   -8.8517 C   0  0  0  0  0  0  0  0  0  0  0  0
   13.5153   -8.9830   -9.3227 C   0  0  0  0  0  0  0  0  0  0  0  0
   14.5619   -8.4436  -10.2963 C   0  0  0  0  0  0  0  0  0  0  0  0
   15.3674   -9.6655  -10.7315 C   0  0  2  0  0  0  0  0  0  0  0  0
   15.3650  -10.6707   -9.7083 N   0  0  0  0  0  0  0  0  0  0  0  0
   16.7417   -9.2026  -11.0324 C   0  0  0  0  0  0  0  0  0  0  0  0
   17.5431   -9.0192  -10.0917 O   0  0  0  0  0  0  0  0  0  0  0  0
    9.4239   -9.2188   -6.7014 O   0  0  0  0  0  0  0  0  0  0  0  0
   18.3347  -10.4024  -14.3715 C   0  0  0  0  0  0  0  0  0  0  0  0
   19.0893   -9.8153  -13.3778 C   0  0  1  0  0  0  0  0  0  0  0  0
   18.4454   -8.5976  -12.7688 N   0  0  0  0  0  0  0  0  0  0  0  0
   17.0896   -8.9858  -12.3890 C   0  0  0  0  0  0  0  0  0  0  0  0
   18.3248   -7.4733  -13.7038 O   0  0  0  0  0  0  0  0  0  0  0  0
   17.2592   -7.3650  -14.3575 N   0  0  0  0  0  0  0  0  0  0  0  0
   19.1411   -3.6093  -16.8258 C   0  0  0  0  0  0  0  0  0  0  0  0
   19.4190   -3.1771  -15.5167 O   0  0  0  0  0  0  0  0  0  0  0  0
   19.5871   -1.9604  -15.2915 C   0  0  0  0  0  0  0  0  0  0  0  0
   19.5134   -4.1452  -14.4122 C   0  0  1  0  0  0  0  0  0  0  0  0
   19.1988   -5.5260  -14.9461 N   0  0  0  0  0  0  0  0  0  0  0  0
   19.3413   -6.5173  -13.9001 C   0  0  0  0  0  0  0  0  0  0  0  0
   20.0316   -5.9094  -16.1082 O   0  0  0  0  0  0  0  0  0  0  0  0
   20.9759   -6.7241  -16.0769 O   0  0  0  0  0  0  0  0  0  0  0  0
  2  1  1  0
  2  4  1  0
  3  2  2  0
  5  4  1  0
  5  6  1  0
  6  7  1  0
  7  8  1  0
  8  9  1  1
 10 11  2  0
 10  8  1  0
 12 13  1  0
 14 13  1  1
 14 15  1  0
 14 16  1  0
 15 10  1  0
 16 23  1  0
 17 16  2  0
 19 18  1  0
 20 19  2  0
 21 19  1  0
 22 21  1  1
 22 24  1  0
 23 22  1  0
 24 25  2  0
 24 26  1  0
M  END
$$$$
