RSN.pdb
     RDKit          3D

 26 25  0  0  1  0  0  0  0  0999 V2000
   21.1913  -14.4195  -20.3184 N   0  0  0  0  0  0  0  0  0  0  0  0
   20.4425  -13.9276  -21.4401 C   0  0  0  0  0  0  0  0  0  0  0  0
   19.8338  -14.7868  -22.1614 N   0  0  0  0  0  0  0  0  0  0  0  0
   20.3699  -12.5494  -21.7476 N   0  0  0  0  0  0  0  0  0  0  0  0
   20.5687  -11.5039  -20.7730 C   0  0  0  0  0  0  0  0  0  0  0  0
   22.0090  -11.4190  -20.3669 C   0  0  0  0  0  0  0  0  0  0  0  0
   22.2796  -10.1886  -19.5025 C   0  0  0  0  0  0  0  0  0  0  0  0
   22.2130  -10.6917  -18.0625 C   0  0  2  0  0  0  0  0  0  0  0  0
   21.6549  -12.0118  -18.0072 N   0  0  0  0  0  0  0  0  0  0  0  0
   21.3936   -9.7250  -17.2959 C   0  0  0  0  0  0  0  0  0  0  0  0
   20.2953  -10.0927  -16.8279 O   0  0  0  0  0  0  0  0  0  0  0  0
   19.2132  -14.5574  -22.9614 O   0  0  0  0  0  0  0  0  0  0  0  0
   20.5812   -7.0548  -14.0228 C   0  0  0  0  0  0  0  0  0  0  0  0
   21.1031   -7.9525  -14.9302 C   0  0  1  0  0  0  0  0  0  0  0  0
   21.1725   -7.4194  -16.3370 N   0  0  0  0  0  0  0  0  0  0  0  0
   21.8981   -8.4115  -17.1260 C   0  0  0  0  0  0  0  0  0  0  0  0
   21.9135   -6.1577  -16.4460 O   0  0  0  0  0  0  0  0  0  0  0  0
   23.1353   -6.2167  -16.7261 N   0  0  0  0  0  0  0  0  0  0  0  0
   24.2350   -2.3812  -19.3194 C   0  0  0  0  0  0  0  0  0  0  0  0
   23.5626   -2.5835  -18.1010 O   0  0  0  0  0  0  0  0  0  0  0  0
   23.6839   -1.7457  -17.1830 C   0  0  0  0  0  0  0  0  0  0  0  0
   22.7187   -3.7724  -17.8993 C   0  0  2  0  0  0  0  0  0  0  0  0
   22.0887   -3.6956  -16.5253 N   0  0  0  0  0  0  0  0  0  0  0  0
   21.3220   -4.8935  -16.2527 C   0  0  0  0  0  0  0  0  0  0  0  0
   21.2293   -2.5048  -16.3397 O   0  0  0  0  0  0  0  0  0  0  0  0
   20.0489   -2.4036  -16.7307 O   0  0  0  0  0  0  0  0  0  0  0  0
  2  1  1  0
  2  4  1  0
  3  2  2  0
  5  4  1  0
  5  6  1  0
  6  7  1  0
  7  8  1  0
  8  9  1  6
 10 11  2  0
 10  8  1  0
 12 13  1  0
 14 13  1  6
 14 15  1  0
 14 16  1  0
 15 10  1  0
 16 23  1  0
 17 16  2  0
 19 18  1  0
 20 19  2  0
 21 19  1  0
 22 21  1  1
 22 24  1  0
 23 22  1  0
 24 25  2  0
 24 26  1  0
M  END
$$$$
