FKG.pdb
     RDKit          3D

 25 25  0  0  1  0  0  0  0  0999 V2000
    7.3008  -16.7922   26.2764 N   0  0  0  0  0  0  0  0  0  0  0  0
    7.5022  -15.9251   25.1262 C   0  0  1  0  0  0  0  0  0  0  0  0
    8.3905  -14.7876   25.5821 C   0  0  0  0  0  0  0  0  0  0  0  0
    7.5615  -13.6783   26.1212 C   0  0  0  0  0  0  0  0  0  0  0  0
    7.9094  -12.9949   27.2819 C   0  0  0  0  0  0  0  0  0  0  0  0
    7.1196  -11.9600   27.7688 C   0  0  0  0  0  0  0  0  0  0  0  0
    5.9682  -11.6007   27.0915 C   0  0  0  0  0  0  0  0  0  0  0  0
    5.6039  -12.2560   25.9490 C   0  0  0  0  0  0  0  0  0  0  0  0
    6.4098  -13.2943   25.4734 C   0  0  0  0  0  0  0  0  0  0  0  0
    8.0838  -16.6758   24.0003 C   0  0  0  0  0  0  0  0  0  0  0  0
    8.9312  -17.5682   24.2132 O   0  0  0  0  0  0  0  0  0  0  0  0
    7.6993  -16.4049   22.6692 N   0  0  0  0  0  0  0  0  0  0  0  0
    8.3282  -17.0147   21.5008 C   0  0  1  0  0  0  0  0  0  0  0  0
    7.5301  -16.8259   20.2706 C   0  0  0  0  0  0  0  0  0  0  0  0
    7.4273  -18.0720   19.4371 C   0  0  0  0  0  0  0  0  0  0  0  0
    5.9820  -18.4684   19.1823 C   0  0  0  0  0  0  0  0  0  0  0  0
    5.9006  -19.6006   18.1802 C   0  0  0  0  0  0  0  0  0  0  0  0
    4.5109  -19.8320   17.8883 N   0  0  0  0  0  0  0  0  0  0  0  0
    9.7100  -16.5346   21.4805 C   0  0  0  0  0  0  0  0  0  0  0  0
    9.9947  -15.3964   21.9215 O   0  0  0  0  0  0  0  0  0  0  0  0
   10.8046  -17.2954   20.9756 N   0  0  0  0  0  0  0  0  0  0  0  0
   12.1334  -16.7920   20.8414 C   0  0  0  0  0  0  0  0  0  0  0  0
   13.0125  -17.8856   20.3542 C   0  0  0  0  0  0  0  0  0  0  0  0
   12.6205  -19.1005   20.3728 O   0  0  0  0  0  0  0  0  0  0  0  0
   14.2890  -17.6763   19.8563 O   0  0  0  0  0  0  0  0  0  0  0  0
  2  1  1  1
  3  2  1  0
  4  9  2  0
  4  3  1  0
  5  4  1  0
  6  5  2  0
  6  7  1  0
  7  8  2  0
  8  9  1  0
 10 11  2  0
 10  2  1  0
 12 10  1  0
 13 12  1  0
 13 14  1  6
 14 15  1  0
 15 16  1  0
 17 16  1  0
 17 18  1  0
 19 13  1  0
 20 19  2  0
 21 19  1  0
 22 21  1  0
 23 22  1  0
 23 25  1  0
 24 23  2  0
M  END
$$$$
