FKG.pdb
     RDKit          3D

 25 25  0  0  1  0  0  0  0  0999 V2000
    8.3362  -15.8641   26.2784 N   0  0  0  0  0  0  0  0  0  0  0  0
    7.2605  -16.2640   25.3849 C   0  0  1  0  0  0  0  0  0  0  0  0
    6.0681  -15.3915   25.7129 C   0  0  0  0  0  0  0  0  0  0  0  0
    6.5227  -14.1185   26.3304 C   0  0  0  0  0  0  0  0  0  0  0  0
    6.3785  -12.8940   25.6861 C   0  0  0  0  0  0  0  0  0  0  0  0
    6.8107  -11.7149   26.2819 C   0  0  0  0  0  0  0  0  0  0  0  0
    7.3941  -11.7553   27.5355 C   0  0  0  0  0  0  0  0  0  0  0  0
    7.5476  -12.9452   28.1899 C   0  0  0  0  0  0  0  0  0  0  0  0
    7.1073  -14.1212   27.5760 C   0  0  0  0  0  0  0  0  0  0  0  0
    7.6764  -16.1413   23.9773 C   0  0  0  0  0  0  0  0  0  0  0  0
    6.9123  -16.5160   23.0631 O   0  0  0  0  0  0  0  0  0  0  0  0
    8.9356  -15.6027   23.6349 N   0  0  0  0  0  0  0  0  0  0  0  0
    9.4374  -15.5140   22.2665 C   0  0  1  0  0  0  0  0  0  0  0  0
    9.1486  -14.2034   21.6461 C   0  0  0  0  0  0  0  0  0  0  0  0
    8.1222  -14.2822   20.5514 C   0  0  0  0  0  0  0  0  0  0  0  0
    8.5332  -13.4803   19.3271 C   0  0  0  0  0  0  0  0  0  0  0  0
    7.5275  -13.6488   18.2079 C   0  0  0  0  0  0  0  0  0  0  0  0
    7.9881  -12.8806   17.0819 N   0  0  0  0  0  0  0  0  0  0  0  0
   10.8374  -15.9361   22.3140 C   0  0  0  0  0  0  0  0  0  0  0  0
   11.2795  -16.7683   21.4876 O   0  0  0  0  0  0  0  0  0  0  0  0
   11.7776  -15.4524   23.2700 N   0  0  0  0  0  0  0  0  0  0  0  0
   12.8016  -16.2529   23.8597 C   0  0  0  0  0  0  0  0  0  0  0  0
   14.0131  -16.1877   23.0028 C   0  0  0  0  0  0  0  0  0  0  0  0
   14.0521  -16.7845   21.8749 O   0  0  0  0  0  0  0  0  0  0  0  0
   15.1607  -15.4937   23.3526 O   0  0  0  0  0  0  0  0  0  0  0  0
  2  1  1  1
  3  2  1  0
  4  9  2  0
  4  3  1  0
  5  4  1  0
  6  5  2  0
  6  7  1  0
  7  8  2  0
  8  9  1  0
 10 11  2  0
 10  2  1  0
 12 10  1  0
 13 12  1  0
 13 14  1  1
 14 15  1  0
 15 16  1  0
 17 16  1  0
 17 18  1  0
 19 13  1  0
 20 19  2  0
 21 19  1  0
 22 21  1  0
 23 22  1  0
 23 25  1  0
 24 23  2  0
M  END
$$$$
