FKG.pdb
     RDKit          3D

 25 25  0  0  1  0  0  0  0  0999 V2000
    5.8726  -17.6177   25.5314 N   0  0  0  0  0  0  0  0  0  0  0  0
    6.3582  -16.2778   25.2415 C   0  0  1  0  0  0  0  0  0  0  0  0
    6.9417  -15.7328   26.5273 C   0  0  0  0  0  0  0  0  0  0  0  0
    6.9707  -14.2477   26.4844 C   0  0  0  0  0  0  0  0  0  0  0  0
    6.1700  -13.4705   27.3152 C   0  0  0  0  0  0  0  0  0  0  0  0
    6.2129  -12.0824   27.2588 C   0  0  0  0  0  0  0  0  0  0  0  0
    7.0639  -11.4596   26.3636 C   0  0  0  0  0  0  0  0  0  0  0  0
    7.8609  -12.1999   25.5363 C   0  0  0  0  0  0  0  0  0  0  0  0
    7.8051  -13.5947   25.6064 C   0  0  0  0  0  0  0  0  0  0  0  0
    7.3410  -16.3032   24.1448 C   0  0  0  0  0  0  0  0  0  0  0  0
    8.2355  -17.1747   24.1249 O   0  0  0  0  0  0  0  0  0  0  0  0
    7.2932  -15.3520   23.1026 N   0  0  0  0  0  0  0  0  0  0  0  0
    8.2003  -15.3530   21.9583 C   0  0  1  0  0  0  0  0  0  0  0  0
    7.7218  -14.4849   20.8613 C   0  0  0  0  0  0  0  0  0  0  0  0
    8.6248  -14.4999   19.6603 C   0  0  0  0  0  0  0  0  0  0  0  0
    8.0179  -13.7545   18.4827 C   0  0  0  0  0  0  0  0  0  0  0  0
    8.8949  -13.8782   17.2546 C   0  0  0  0  0  0  0  0  0  0  0  0
    8.3797  -12.9830   16.2530 N   0  0  0  0  0  0  0  0  0  0  0  0
    9.5350  -15.0802   22.4918 C   0  0  0  0  0  0  0  0  0  0  0  0
    9.6936  -14.2459   23.4136 O   0  0  0  0  0  0  0  0  0  0  0  0
   10.7202  -15.7186   22.0229 N   0  0  0  0  0  0  0  0  0  0  0  0
   12.0380  -15.3634   22.4405 C   0  0  0  0  0  0  0  0  0  0  0  0
   13.0182  -16.1685   21.6675 C   0  0  0  0  0  0  0  0  0  0  0  0
   12.6302  -17.0926   20.8768 O   0  0  0  0  0  0  0  0  0  0  0  0
   14.3896  -15.9829   21.7438 O   0  0  0  0  0  0  0  0  0  0  0  0
  2  1  1  1
  3  2  1  0
  4  9  2  0
  4  3  1  0
  5  4  1  0
  6  5  2  0
  6  7  1  0
  7  8  2  0
  8  9  1  0
 10 11  2  0
 10  2  1  0
 12 10  1  0
 13 12  1  0
 13 14  1  6
 14 15  1  0
 15 16  1  0
 17 16  1  0
 17 18  1  0
 19 13  1  0
 20 19  2  0
 21 19  1  0
 22 21  1  0
 23 22  1  0
 23 25  1  0
 24 23  2  0
M  END
$$$$
