FKG.pdb
     RDKit          3D

 25 25  0  0  1  0  0  0  0  0999 V2000
    6.7599  -17.3374   25.4441 N   0  0  0  0  0  0  0  0  0  0  0  0
    6.9369  -16.0084   24.8804 C   0  0  1  0  0  0  0  0  0  0  0  0
    7.9158  -15.2777   25.7740 C   0  0  0  0  0  0  0  0  0  0  0  0
    7.3017  -14.0245   26.2847 C   0  0  0  0  0  0  0  0  0  0  0  0
    7.7959  -13.3650   27.4055 C   0  0  0  0  0  0  0  0  0  0  0  0
    7.2064  -12.1937   27.8664 C   0  0  0  0  0  0  0  0  0  0  0  0
    6.1105  -11.6720   27.2029 C   0  0  0  0  0  0  0  0  0  0  0  0
    5.6054  -12.3002   26.0994 C   0  0  0  0  0  0  0  0  0  0  0  0
    6.2106  -13.4771   25.6496 C   0  0  0  0  0  0  0  0  0  0  0  0
    7.4022  -16.0894   23.4852 C   0  0  0  0  0  0  0  0  0  0  0  0
    8.1166  -17.0456   23.1173 O   0  0  0  0  0  0  0  0  0  0  0  0
    7.0537  -15.0973   22.5432 N   0  0  0  0  0  0  0  0  0  0  0  0
    7.7720  -14.8765   21.2912 C   0  0  1  0  0  0  0  0  0  0  0  0
    7.4380  -13.5752   20.6738 C   0  0  0  0  0  0  0  0  0  0  0  0
    7.3624  -13.6357   19.1743 C   0  0  0  0  0  0  0  0  0  0  0  0
    8.6664  -14.1156   18.5577 C   0  0  0  0  0  0  0  0  0  0  0  0
    8.5580  -14.1842   17.0490 C   0  0  0  0  0  0  0  0  0  0  0  0
    9.8245  -14.6346   16.5360 N   0  0  0  0  0  0  0  0  0  0  0  0
    9.1831  -15.1380   21.5753 C   0  0  0  0  0  0  0  0  0  0  0  0
    9.7165  -14.6881   22.6165 O   0  0  0  0  0  0  0  0  0  0  0  0
   10.0344  -15.8984   20.7215 N   0  0  0  0  0  0  0  0  0  0  0  0
   11.4255  -16.1090   20.9617 C   0  0  0  0  0  0  0  0  0  0  0  0
   12.0132  -16.8070   19.7897 C   0  0  0  0  0  0  0  0  0  0  0  0
   12.9600  -16.2769   19.1169 O   0  0  0  0  0  0  0  0  0  0  0  0
   11.5905  -18.0515   19.3498 O   0  0  0  0  0  0  0  0  0  0  0  0
  2  1  1  1
  3  2  1  0
  4  9  2  0
  4  3  1  0
  5  4  1  0
  6  5  2  0
  6  7  1  0
  7  8  2  0
  8  9  1  0
 10 11  2  0
 10  2  1  0
 12 10  1  0
 13 12  1  0
 13 14  1  1
 14 15  1  0
 15 16  1  0
 17 16  1  0
 17 18  1  0
 19 13  1  0
 20 19  2  0
 21 19  1  0
 22 21  1  0
 23 22  1  0
 23 25  1  0
 24 23  2  0
M  END
$$$$
