FKG.pdb
     RDKit          3D

 25 25  0  0  1  0  0  0  0  0999 V2000
    7.0904  -17.5714   26.2387 N   0  0  0  0  0  0  0  0  0  0  0  0
    7.1487  -16.2795   25.5731 C   0  0  1  0  0  0  0  0  0  0  0  0
    8.0007  -15.3762   26.4384 C   0  0  0  0  0  0  0  0  0  0  0  0
    7.3308  -14.0617   26.6170 C   0  0  0  0  0  0  0  0  0  0  0  0
    6.0960  -13.7796   26.0417 C   0  0  0  0  0  0  0  0  0  0  0  0
    5.4868  -12.5432   26.2215 C   0  0  0  0  0  0  0  0  0  0  0  0
    6.1150  -11.5750   26.9840 C   0  0  0  0  0  0  0  0  0  0  0  0
    7.3284  -11.8267   27.5602 C   0  0  0  0  0  0  0  0  0  0  0  0
    7.9267  -13.0754   27.3690 C   0  0  0  0  0  0  0  0  0  0  0  0
    7.6838  -16.4179   24.2078 C   0  0  0  0  0  0  0  0  0  0  0  0
    8.1645  -17.5071   23.8305 O   0  0  0  0  0  0  0  0  0  0  0  0
    7.6647  -15.3324   23.3053 N   0  0  0  0  0  0  0  0  0  0  0  0
    7.9942  -15.4476   21.8874 C   0  0  1  0  0  0  0  0  0  0  0  0
    7.3738  -14.3774   21.0777 C   0  0  0  0  0  0  0  0  0  0  0  0
    7.5619  -14.5717   19.5996 C   0  0  0  0  0  0  0  0  0  0  0  0
    8.1941  -13.3557   18.9417 C   0  0  0  0  0  0  0  0  0  0  0  0
    8.2982  -13.5448   17.4430 C   0  0  0  0  0  0  0  0  0  0  0  0
    8.9526  -12.3857   16.8969 N   0  0  0  0  0  0  0  0  0  0  0  0
    9.4490  -15.5827   21.8133 C   0  0  0  0  0  0  0  0  0  0  0  0
   10.0106  -15.8256   20.7194 O   0  0  0  0  0  0  0  0  0  0  0  0
   10.3140  -15.4536   22.9390 N   0  0  0  0  0  0  0  0  0  0  0  0
   11.7295  -15.2959   22.8453 C   0  0  0  0  0  0  0  0  0  0  0  0
   12.3640  -16.6384   22.8839 C   0  0  0  0  0  0  0  0  0  0  0  0
   13.6339  -16.7633   22.9235 O   0  0  0  0  0  0  0  0  0  0  0  0
   11.6460  -17.8239   22.8799 O   0  0  0  0  0  0  0  0  0  0  0  0
  2  1  1  1
  3  2  1  0
  4  9  2  0
  4  3  1  0
  5  4  1  0
  6  5  2  0
  6  7  1  0
  7  8  2  0
  8  9  1  0
 10 11  2  0
 10  2  1  0
 12 10  1  0
 13 12  1  0
 13 14  1  6
 14 15  1  0
 15 16  1  0
 17 16  1  0
 17 18  1  0
 19 13  1  0
 20 19  2  0
 21 19  1  0
 22 21  1  0
 23 22  1  0
 23 25  1  0
 24 23  2  0
M  END
$$$$
