FKG.pdb
     RDKit          3D

 25 25  0  0  1  0  0  0  0  0999 V2000
    5.9695  -17.8373   25.3142 N   0  0  0  0  0  0  0  0  0  0  0  0
    6.4015  -16.4597   25.1385 C   0  0  1  0  0  0  0  0  0  0  0  0
    7.2210  -16.0960   26.3579 C   0  0  0  0  0  0  0  0  0  0  0  0
    7.2143  -14.6231   26.5555 C   0  0  0  0  0  0  0  0  0  0  0  0
    8.3794  -13.9093   26.8168 C   0  0  0  0  0  0  0  0  0  0  0  0
    8.3507  -12.5315   26.9984 C   0  0  0  0  0  0  0  0  0  0  0  0
    7.1465  -11.8555   26.9188 C   0  0  0  0  0  0  0  0  0  0  0  0
    5.9876  -12.5331   26.6632 C   0  0  0  0  0  0  0  0  0  0  0  0
    6.0347  -13.9184   26.4832 C   0  0  0  0  0  0  0  0  0  0  0  0
    7.1598  -16.3048   23.8853 C   0  0  0  0  0  0  0  0  0  0  0  0
    7.6046  -17.3107   23.2935 O   0  0  0  0  0  0  0  0  0  0  0  0
    7.3976  -15.0280   23.3318 N   0  0  0  0  0  0  0  0  0  0  0  0
    7.9853  -14.8099   22.0129 C   0  0  1  0  0  0  0  0  0  0  0  0
    7.7394  -13.4424   21.5074 C   0  0  0  0  0  0  0  0  0  0  0  0
    8.4096  -13.1710   20.1902 C   0  0  0  0  0  0  0  0  0  0  0  0
    7.7028  -13.8665   19.0380 C   0  0  0  0  0  0  0  0  0  0  0  0
    8.4364  -13.6337   17.7341 C   0  0  0  0  0  0  0  0  0  0  0  0
    7.6975  -14.2909   16.6891 N   0  0  0  0  0  0  0  0  0  0  0  0
    9.3785  -15.2466   22.1066 C   0  0  0  0  0  0  0  0  0  0  0  0
   10.0070  -15.5937   21.0793 O   0  0  0  0  0  0  0  0  0  0  0  0
   10.1071  -15.3101   23.3302 N   0  0  0  0  0  0  0  0  0  0  0  0
   11.3210  -16.0414   23.5004 C   0  0  0  0  0  0  0  0  0  0  0  0
   12.3025  -15.5826   22.4843 C   0  0  0  0  0  0  0  0  0  0  0  0
   12.0819  -15.7468   21.2376 O   0  0  0  0  0  0  0  0  0  0  0  0
   13.4985  -14.9590   22.8033 O   0  0  0  0  0  0  0  0  0  0  0  0
  2  1  1  1
  3  2  1  0
  4  9  2  0
  4  3  1  0
  5  4  1  0
  6  5  2  0
  6  7  1  0
  7  8  2  0
  8  9  1  0
 10 11  2  0
 10  2  1  0
 12 10  1  0
 13 12  1  0
 13 14  1  1
 14 15  1  0
 15 16  1  0
 17 16  1  0
 17 18  1  0
 19 13  1  0
 20 19  2  0
 21 19  1  0
 22 21  1  0
 23 22  1  0
 23 25  1  0
 24 23  2  0
M  END
$$$$
