FKG.pdb
     RDKit          3D

 25 25  0  0  1  0  0  0  0  0999 V2000
    6.4000  -17.4914   25.9785 N   0  0  0  0  0  0  0  0  0  0  0  0
    6.7889  -16.2153   25.3993 C   0  0  1  0  0  0  0  0  0  0  0  0
    7.6157  -15.4924   26.4408 C   0  0  0  0  0  0  0  0  0  0  0  0
    7.1457  -14.0896   26.5806 C   0  0  0  0  0  0  0  0  0  0  0  0
    6.3930  -13.4624   25.5929 C   0  0  0  0  0  0  0  0  0  0  0  0
    5.9635  -12.1492   25.7440 C   0  0  0  0  0  0  0  0  0  0  0  0
    6.2875  -11.4510   26.8934 C   0  0  0  0  0  0  0  0  0  0  0  0
    7.0258  -12.0438   27.8788 C   0  0  0  0  0  0  0  0  0  0  0  0
    7.4494  -13.3651   27.7104 C   0  0  0  0  0  0  0  0  0  0  0  0
    7.5233  -16.4150   24.1382 C   0  0  0  0  0  0  0  0  0  0  0  0
    8.1353  -17.4840   23.9320 O   0  0  0  0  0  0  0  0  0  0  0  0
    7.5507  -15.4117   23.1454 N   0  0  0  0  0  0  0  0  0  0  0  0
    8.2959  -15.5251   21.8948 C   0  0  1  0  0  0  0  0  0  0  0  0
    7.8930  -14.5025   20.9059 C   0  0  0  0  0  0  0  0  0  0  0  0
    8.6048  -14.6416   19.5899 C   0  0  0  0  0  0  0  0  0  0  0  0
    8.1024  -13.6401   18.5625 C   0  0  0  0  0  0  0  0  0  0  0  0
    8.7138  -13.9072   17.2033 C   0  0  0  0  0  0  0  0  0  0  0  0
    8.1979  -12.9250   16.2872 N   0  0  0  0  0  0  0  0  0  0  0  0
    9.7109  -15.5768   22.2630 C   0  0  0  0  0  0  0  0  0  0  0  0
   10.1924  -14.7368   23.0589 O   0  0  0  0  0  0  0  0  0  0  0  0
   10.6232  -16.5518   21.7639 N   0  0  0  0  0  0  0  0  0  0  0  0
   11.9807  -16.6680   22.1895 C   0  0  0  0  0  0  0  0  0  0  0  0
   12.8636  -16.1235   21.1264 C   0  0  0  0  0  0  0  0  0  0  0  0
   12.4467  -16.0005   19.9260 O   0  0  0  0  0  0  0  0  0  0  0  0
   14.1703  -15.7190   21.3504 O   0  0  0  0  0  0  0  0  0  0  0  0
  2  1  1  1
  3  2  1  0
  4  9  2  0
  4  3  1  0
  5  4  1  0
  6  5  2  0
  6  7  1  0
  7  8  2  0
  8  9  1  0
 10 11  2  0
 10  2  1  0
 12 10  1  0
 13 12  1  0
 13 14  1  6
 14 15  1  0
 15 16  1  0
 17 16  1  0
 17 18  1  0
 19 13  1  0
 20 19  2  0
 21 19  1  0
 22 21  1  0
 23 22  1  0
 23 25  1  0
 24 23  2  0
M  END
$$$$
