FKG.pdb
     RDKit          3D

 25 25  0  0  1  0  0  0  0  0999 V2000
    6.2364  -18.0242   25.8208 N   0  0  0  0  0  0  0  0  0  0  0  0
    6.5567  -16.6345   25.5353 C   0  0  1  0  0  0  0  0  0  0  0  0
    7.2940  -16.0954   26.7422 C   0  0  0  0  0  0  0  0  0  0  0  0
    7.1588  -14.6168   26.8033 C   0  0  0  0  0  0  0  0  0  0  0  0
    5.9176  -13.9887   26.7863 C   0  0  0  0  0  0  0  0  0  0  0  0
    5.8138  -12.6039   26.8444 C   0  0  0  0  0  0  0  0  0  0  0  0
    6.9606  -11.8341   26.9204 C   0  0  0  0  0  0  0  0  0  0  0  0
    8.1921  -12.4262   26.9386 C   0  0  0  0  0  0  0  0  0  0  0  0
    8.2781  -13.8200   26.8795 C   0  0  0  0  0  0  0  0  0  0  0  0
    7.3477  -16.5233   24.2978 C   0  0  0  0  0  0  0  0  0  0  0  0
    8.0841  -17.4657   23.9379 O   0  0  0  0  0  0  0  0  0  0  0  0
    7.2908  -15.3600   23.4999 N   0  0  0  0  0  0  0  0  0  0  0  0
    7.9951  -15.2097   22.2296 C   0  0  1  0  0  0  0  0  0  0  0  0
    7.4474  -14.1073   21.4106 C   0  0  0  0  0  0  0  0  0  0  0  0
    7.3236  -14.4591   19.9549 C   0  0  0  0  0  0  0  0  0  0  0  0
    8.2666  -13.6393   19.0891 C   0  0  0  0  0  0  0  0  0  0  0  0
    7.9587  -13.8347   17.6196 C   0  0  0  0  0  0  0  0  0  0  0  0
    8.8169  -12.9571   16.8689 N   0  0  0  0  0  0  0  0  0  0  0  0
    9.4206  -15.1560   22.5540 C   0  0  0  0  0  0  0  0  0  0  0  0
    9.9454  -14.0852   22.9400 O   0  0  0  0  0  0  0  0  0  0  0  0
   10.2961  -16.2770   22.4605 N   0  0  0  0  0  0  0  0  0  0  0  0
   10.7106  -16.8669   21.2287 C   0  0  0  0  0  0  0  0  0  0  0  0
   12.1416  -16.5413   20.9997 C   0  0  0  0  0  0  0  0  0  0  0  0
   13.0667  -17.3021   21.4416 O   0  0  0  0  0  0  0  0  0  0  0  0
   12.5692  -15.4185   20.3087 O   0  0  0  0  0  0  0  0  0  0  0  0
  2  1  1  1
  3  2  1  0
  4  9  2  0
  4  3  1  0
  5  4  1  0
  6  5  2  0
  6  7  1  0
  7  8  2  0
  8  9  1  0
 10 11  2  0
 10  2  1  0
 12 10  1  0
 13 12  1  0
 13 14  1  1
 14 15  1  0
 15 16  1  0
 17 16  1  0
 17 18  1  0
 19 13  1  0
 20 19  2  0
 21 19  1  0
 22 21  1  0
 23 22  1  0
 23 25  1  0
 24 23  2  0
M  END
$$$$
