FKG.pdb
     RDKit          3D

 25 25  0  0  1  0  0  0  0  0999 V2000
    6.0380  -16.9198   25.5543 N   0  0  0  0  0  0  0  0  0  0  0  0
    6.8690  -15.8506   25.0236 C   0  0  1  0  0  0  0  0  0  0  0  0
    7.5438  -15.1890   26.2057 C   0  0  0  0  0  0  0  0  0  0  0  0
    7.1110  -13.7713   26.3117 C   0  0  0  0  0  0  0  0  0  0  0  0
    7.9438  -12.7173   25.9501 C   0  0  0  0  0  0  0  0  0  0  0  0
    7.5188  -11.3982   26.0571 C   0  0  0  0  0  0  0  0  0  0  0  0
    6.2481  -11.1248   26.5304 C   0  0  0  0  0  0  0  0  0  0  0  0
    5.4102  -12.1418   26.8924 C   0  0  0  0  0  0  0  0  0  0  0  0
    5.8538  -13.4624   26.7783 C   0  0  0  0  0  0  0  0  0  0  0  0
    7.8370  -16.3763   24.0458 C   0  0  0  0  0  0  0  0  0  0  0  0
    8.0805  -17.6005   24.0011 O   0  0  0  0  0  0  0  0  0  0  0  0
    8.5036  -15.5157   23.1469 N   0  0  0  0  0  0  0  0  0  0  0  0
    9.2693  -15.9795   21.9933 C   0  0  1  0  0  0  0  0  0  0  0  0
    9.4250  -14.9300   20.9636 C   0  0  0  0  0  0  0  0  0  0  0  0
    8.1672  -14.6814   20.1798 C   0  0  0  0  0  0  0  0  0  0  0  0
    8.3820  -13.6706   19.0648 C   0  0  0  0  0  0  0  0  0  0  0  0
    7.1207  -13.4924   18.2463 C   0  0  0  0  0  0  0  0  0  0  0  0
    7.3727  -12.4711   17.2647 N   0  0  0  0  0  0  0  0  0  0  0  0
   10.4929  -16.5787   22.5262 C   0  0  0  0  0  0  0  0  0  0  0  0
   11.0753  -17.4973   21.9032 O   0  0  0  0  0  0  0  0  0  0  0  0
   11.0997  -16.1802   23.7530 N   0  0  0  0  0  0  0  0  0  0  0  0
   12.3158  -16.7303   24.2589 C   0  0  0  0  0  0  0  0  0  0  0  0
   13.4487  -16.2094   23.4517 C   0  0  0  0  0  0  0  0  0  0  0  0
   13.2419  -15.4835   22.4220 O   0  0  0  0  0  0  0  0  0  0  0  0
   14.7787  -16.4645   23.7467 O   0  0  0  0  0  0  0  0  0  0  0  0
  2  1  1  1
  3  2  1  0
  4  9  2  0
  4  3  1  0
  5  4  1  0
  6  5  2  0
  6  7  1  0
  7  8  2  0
  8  9  1  0
 10 11  2  0
 10  2  1  0
 12 10  1  0
 13 12  1  0
 13 14  1  6
 14 15  1  0
 15 16  1  0
 17 16  1  0
 17 18  1  0
 19 13  1  0
 20 19  2  0
 21 19  1  0
 22 21  1  0
 23 22  1  0
 23 25  1  0
 24 23  2  0
M  END
$$$$
