FKG.pdb
     RDKit          3D

 25 25  0  0  1  0  0  0  0  0999 V2000
    5.9444  -17.9050   25.4460 N   0  0  0  0  0  0  0  0  0  0  0  0
    6.3554  -16.5215   25.2662 C   0  0  1  0  0  0  0  0  0  0  0  0
    6.9484  -16.0636   26.5812 C   0  0  0  0  0  0  0  0  0  0  0  0
    6.9612  -14.5790   26.6449 C   0  0  0  0  0  0  0  0  0  0  0  0
    8.1393  -13.8585   26.8132 C   0  0  0  0  0  0  0  0  0  0  0  0
    8.1287  -12.4698   26.8701 C   0  0  0  0  0  0  0  0  0  0  0  0
    6.9296  -11.7892   26.7581 C   0  0  0  0  0  0  0  0  0  0  0  0
    5.7581  -12.4731   26.5922 C   0  0  0  0  0  0  0  0  0  0  0  0
    5.7871  -13.8694   26.5371 C   0  0  0  0  0  0  0  0  0  0  0  0
    7.3064  -16.3992   24.1480 C   0  0  0  0  0  0  0  0  0  0  0  0
    8.2029  -17.2545   23.9914 O   0  0  0  0  0  0  0  0  0  0  0  0
    7.2254  -15.3226   23.2384 N   0  0  0  0  0  0  0  0  0  0  0  0
    8.1194  -15.1538   22.0963 C   0  0  1  0  0  0  0  0  0  0  0  0
    7.6983  -14.0461   21.2121 C   0  0  0  0  0  0  0  0  0  0  0  0
    8.6686  -13.7809   20.0957 C   0  0  0  0  0  0  0  0  0  0  0  0
    8.0000  -13.8500   18.7322 C   0  0  0  0  0  0  0  0  0  0  0  0
    9.0180  -13.6941   17.6223 C   0  0  0  0  0  0  0  0  0  0  0  0
    8.3016  -13.5795   16.3799 N   0  0  0  0  0  0  0  0  0  0  0  0
    9.4757  -15.0941   22.6415 C   0  0  0  0  0  0  0  0  0  0  0  0
    9.6997  -14.5107   23.7280 O   0  0  0  0  0  0  0  0  0  0  0  0
   10.6110  -15.6740   22.0037 N   0  0  0  0  0  0  0  0  0  0  0  0
   11.9561  -15.4899   22.4444 C   0  0  0  0  0  0  0  0  0  0  0  0
   12.8755  -16.0554   21.4241 C   0  0  0  0  0  0  0  0  0  0  0  0
   14.1418  -15.9625   21.5581 O   0  0  0  0  0  0  0  0  0  0  0  0
   12.4411  -16.7086   20.2815 O   0  0  0  0  0  0  0  0  0  0  0  0
  2  1  1  1
  3  2  1  0
  4  9  2  0
  4  3  1  0
  5  4  1  0
  6  5  2  0
  6  7  1  0
  7  8  2  0
  8  9  1  0
 10 11  2  0
 10  2  1  0
 12 10  1  0
 13 12  1  0
 13 14  1  1
 14 15  1  0
 15 16  1  0
 17 16  1  0
 17 18  1  0
 19 13  1  0
 20 19  2  0
 21 19  1  0
 22 21  1  0
 23 22  1  0
 23 25  1  0
 24 23  2  0
M  END
$$$$
