FKG.pdb
     RDKit          3D

 25 25  0  0  1  0  0  0  0  0999 V2000
    5.9575  -17.7546   24.9055 N   0  0  0  0  0  0  0  0  0  0  0  0
    6.3787  -16.3628   24.8778 C   0  0  1  0  0  0  0  0  0  0  0  0
    7.0007  -16.0639   26.2248 C   0  0  0  0  0  0  0  0  0  0  0  0
    6.9874  -14.5997   26.4785 C   0  0  0  0  0  0  0  0  0  0  0  0
    8.1606  -13.8615   26.5970 C   0  0  0  0  0  0  0  0  0  0  0  0
    8.1255  -12.4924   26.8343 C   0  0  0  0  0  0  0  0  0  0  0  0
    6.9065  -11.8497   26.9552 C   0  0  0  0  0  0  0  0  0  0  0  0
    5.7394  -12.5516   26.8429 C   0  0  0  0  0  0  0  0  0  0  0  0
    5.7932  -13.9278   26.6042 C   0  0  0  0  0  0  0  0  0  0  0  0
    7.3097  -16.1199   23.7626 C   0  0  0  0  0  0  0  0  0  0  0  0
    8.2116  -16.9455   23.5079 O   0  0  0  0  0  0  0  0  0  0  0  0
    7.2032  -14.9596   22.9654 N   0  0  0  0  0  0  0  0  0  0  0  0
    8.0999  -14.6505   21.8552 C   0  0  1  0  0  0  0  0  0  0  0  0
    7.8098  -13.3337   21.2486 C   0  0  0  0  0  0  0  0  0  0  0  0
    7.2929  -13.4334   19.8411 C   0  0  0  0  0  0  0  0  0  0  0  0
    8.3906  -13.8037   18.8567 C   0  0  0  0  0  0  0  0  0  0  0  0
    7.8777  -13.7580   17.4329 C   0  0  0  0  0  0  0  0  0  0  0  0
    8.9076  -14.2828   16.5762 N   0  0  0  0  0  0  0  0  0  0  0  0
    9.4585  -14.8728   22.3501 C   0  0  0  0  0  0  0  0  0  0  0  0
    9.7844  -14.5029   23.5025 O   0  0  0  0  0  0  0  0  0  0  0  0
   10.4843  -15.5054   21.5889 N   0  0  0  0  0  0  0  0  0  0  0  0
   11.8429  -15.6138   22.0130 C   0  0  0  0  0  0  0  0  0  0  0  0
   12.6436  -16.2011   20.9084 C   0  0  0  0  0  0  0  0  0  0  0  0
   13.9163  -16.2680   20.9840 O   0  0  0  0  0  0  0  0  0  0  0  0
   12.0858  -16.7066   19.7446 O   0  0  0  0  0  0  0  0  0  0  0  0
  2  1  1  1
  3  2  1  0
  4  9  2  0
  4  3  1  0
  5  4  1  0
  6  5  2  0
  6  7  1  0
  7  8  2  0
  8  9  1  0
 10 11  2  0
 10  2  1  0
 12 10  1  0
 13 12  1  0
 13 14  1  1
 14 15  1  0
 15 16  1  0
 17 16  1  0
 17 18  1  0
 19 13  1  0
 20 19  2  0
 21 19  1  0
 22 21  1  0
 23 22  1  0
 23 25  1  0
 24 23  2  0
M  END
$$$$
