MDI.pdb
     RDKit          3D

 25 24  0  0  1  0  0  0  0  0999 V2000
   32.1365  -21.2060   -9.7787 C   0  0  0  0  0  0  0  0  0  0  0  0
   32.6309  -22.2431  -11.1862 S   0  0  0  0  0  0  0  0  0  0  0  0
   31.5546  -21.8911  -12.6316 C   0  0  0  0  0  0  0  0  0  0  0  0
   30.3071  -21.2763  -12.1000 C   0  0  0  0  0  0  0  0  0  0  0  0
   29.3207  -20.8122  -13.1115 C   0  0  2  0  0  0  0  0  0  0  0  0
   29.9307  -19.8870  -14.0426 N   0  0  0  0  0  0  0  0  0  0  0  0
   28.0435  -20.3064  -12.5699 C   0  0  0  0  0  0  0  0  0  0  0  0
   27.9574  -19.1027  -12.2153 O   0  0  0  0  0  0  0  0  0  0  0  0
   26.8844  -21.1134  -12.4212 N   0  0  0  0  0  0  0  0  0  0  0  0
   25.7808  -20.8024  -11.5616 C   0  0  1  0  0  0  0  0  0  0  0  0
   24.4445  -21.2121  -12.0729 C   0  0  0  0  0  0  0  0  0  0  0  0
   24.1680  -20.5513  -13.3609 C   0  0  0  0  0  0  0  0  0  0  0  0
   24.0225  -19.3100  -13.3923 O   0  0  0  0  0  0  0  0  0  0  0  0
   26.0148  -21.3042  -10.1627 C   0  0  0  0  0  0  0  0  0  0  0  0
   26.2282  -22.5287  -10.0296 O   0  0  0  0  0  0  0  0  0  0  0  0
   24.0603  -21.2512  -14.5541 O   0  0  0  0  0  0  0  0  0  0  0  0
   28.3278  -19.9110   -4.7242 C   0  0  0  0  0  0  0  0  0  0  0  0
   27.2879  -20.6756   -5.5010 C   0  0  0  0  0  0  0  0  0  0  0  0
   27.1045  -20.1460   -6.9059 C   0  0  2  0  0  0  0  0  0  0  0  0
   26.8950  -18.6773   -6.9015 C   0  0  0  0  0  0  0  0  0  0  0  0
   26.1013  -20.9482   -7.6628 C   0  0  2  0  0  0  0  0  0  0  0  0
   26.0039  -20.4788   -9.0331 N   0  0  0  0  0  0  0  0  0  0  0  0
   24.7766  -21.0195   -7.0144 C   0  0  0  0  0  0  0  0  0  0  0  0
   24.7162  -21.5971   -5.8849 O   0  0  0  0  0  0  0  0  0  0  0  0
   23.6131  -20.5229   -7.5154 O   0  0  0  0  0  0  0  0  0  0  0  0
  2  3  1  0
  2  1  1  0
  4  5  1  0
  4  3  1  0
  5  7  1  0
  5  6  1  1
  7  8  2  0
  9 10  1  0
  9  7  1  0
 10 11  1  6
 12 11  1  0
 13 12  2  0
 14 10  1  0
 14 15  2  0
 16 12  1  0
 18 17  1  0
 19 18  1  0
 19 20  1  1
 21 22  1  6
 21 19  1  0
 22 14  1  0
 23 21  1  0
 24 23  2  0
 25 23  1  0
M  END
$$$$
