MDI.pdb
     RDKit          3D

 25 24  0  0  1  0  0  0  0  0999 V2000
   19.4146  -22.3544  -11.9555 C   0  0  0  0  0  0  0  0  0  0  0  0
   19.0930  -20.6308  -12.4315 S   0  0  0  0  0  0  0  0  0  0  0  0
   20.6157  -19.6275  -12.2163 C   0  0  0  0  0  0  0  0  0  0  0  0
   21.6263  -20.5113  -11.5725 C   0  0  0  0  0  0  0  0  0  0  0  0
   22.9037  -20.6953  -12.3111 C   0  0  2  0  0  0  0  0  0  0  0  0
   22.7086  -21.5193  -13.4850 N   0  0  0  0  0  0  0  0  0  0  0  0
   24.0522  -21.1391  -11.4961 C   0  0  0  0  0  0  0  0  0  0  0  0
   24.0879  -22.3233  -11.0736 O   0  0  0  0  0  0  0  0  0  0  0  0
   25.1394  -20.2924  -11.1526 N   0  0  0  0  0  0  0  0  0  0  0  0
   26.2846  -20.7043  -10.3961 C   0  0  1  0  0  0  0  0  0  0  0  0
   27.6002  -20.3494  -10.9946 C   0  0  0  0  0  0  0  0  0  0  0  0
   27.6678  -20.8191  -12.3899 C   0  0  0  0  0  0  0  0  0  0  0  0
   27.6663  -19.9813  -13.3178 O   0  0  0  0  0  0  0  0  0  0  0  0
   26.1892  -20.2529   -8.9641 C   0  0  0  0  0  0  0  0  0  0  0  0
   25.3411  -19.3721   -8.7042 O   0  0  0  0  0  0  0  0  0  0  0  0
   27.7335  -22.1639  -12.7253 O   0  0  0  0  0  0  0  0  0  0  0  0
   29.6021  -20.9244   -3.8058 C   0  0  0  0  0  0  0  0  0  0  0  0
   28.5365  -20.1970   -4.5835 C   0  0  0  0  0  0  0  0  0  0  0  0
   28.0359  -20.9921   -5.7689 C   0  0  2  0  0  0  0  0  0  0  0  0
   29.1566  -21.6507   -6.4839 C   0  0  0  0  0  0  0  0  0  0  0  0
   27.1058  -20.1862   -6.6106 C   0  0  2  0  0  0  0  0  0  0  0  0
   26.9897  -20.7645   -7.9371 N   0  0  0  0  0  0  0  0  0  0  0  0
   27.4407  -18.7493   -6.6685 C   0  0  0  0  0  0  0  0  0  0  0  0
   28.0204  -18.3326   -7.7189 O   0  0  0  0  0  0  0  0  0  0  0  0
   27.1854  -17.8289   -5.6994 O   0  0  0  0  0  0  0  0  0  0  0  0
  2  3  1  0
  2  1  1  0
  4  5  1  0
  4  3  1  0
  5  7  1  0
  5  6  1  6
  7  8  2  0
  9 10  1  0
  9  7  1  0
 10 11  1  6
 12 11  1  0
 13 12  2  0
 14 10  1  0
 14 15  2  0
 16 12  1  0
 18 17  1  0
 19 18  1  0
 19 20  1  6
 21 22  1  6
 21 19  1  0
 22 14  1  0
 23 21  1  0
 24 23  2  0
 25 23  1  0
M  END
$$$$
