MDI.pdb
     RDKit          3D

 25 24  0  0  1  0  0  0  0  0999 V2000
   16.6186  -18.4395  -13.2721 C   0  0  0  0  0  0  0  0  0  0  0  0
   18.3465  -17.8784  -13.2542 S   0  0  0  0  0  0  0  0  0  0  0  0
   19.4688  -19.3147  -13.0331 C   0  0  0  0  0  0  0  0  0  0  0  0
   20.8354  -18.7643  -12.8182 C   0  0  0  0  0  0  0  0  0  0  0  0
   21.9341  -19.7599  -12.7042 C   0  0  2  0  0  0  0  0  0  0  0  0
   22.2732  -20.3071  -14.0006 N   0  0  0  0  0  0  0  0  0  0  0  0
   21.7393  -20.8089  -11.6834 C   0  0  0  0  0  0  0  0  0  0  0  0
   21.0163  -21.8029  -11.9506 O   0  0  0  0  0  0  0  0  0  0  0  0
   22.3295  -20.7614  -10.3926 N   0  0  0  0  0  0  0  0  0  0  0  0
   22.2696  -21.8218   -9.4305 C   0  0  1  0  0  0  0  0  0  0  0  0
   23.4892  -21.9876   -8.5938 C   0  0  0  0  0  0  0  0  0  0  0  0
   23.8160  -20.7214   -7.9143 C   0  0  0  0  0  0  0  0  0  0  0  0
   23.9447  -19.6790   -8.5925 O   0  0  0  0  0  0  0  0  0  0  0  0
   21.0283  -21.7283   -8.5856 C   0  0  0  0  0  0  0  0  0  0  0  0
   20.5744  -20.5833   -8.3723 O   0  0  0  0  0  0  0  0  0  0  0  0
   23.9897  -20.6314   -6.5406 O   0  0  0  0  0  0  0  0  0  0  0  0
   15.6360  -23.6279   -9.1416 C   0  0  0  0  0  0  0  0  0  0  0  0
   16.6322  -23.2196   -8.0878 C   0  0  0  0  0  0  0  0  0  0  0  0
   18.0575  -23.2441   -8.5935 C   0  0  2  0  0  0  0  0  0  0  0  0
   18.3570  -24.5194   -9.2898 C   0  0  0  0  0  0  0  0  0  0  0  0
   19.0192  -22.8377   -7.5291 C   0  0  2  0  0  0  0  0  0  0  0  0
   20.3772  -22.8410   -8.0422 N   0  0  0  0  0  0  0  0  0  0  0  0
   18.9037  -23.6230   -6.2839 C   0  0  0  0  0  0  0  0  0  0  0  0
   17.8321  -23.4919   -5.6150 O   0  0  0  0  0  0  0  0  0  0  0  0
   19.8403  -24.4753   -5.7862 O   0  0  0  0  0  0  0  0  0  0  0  0
  2  3  1  0
  2  1  1  0
  4  5  1  0
  4  3  1  0
  5  7  1  0
  5  6  1  6
  7  8  2  0
  9 10  1  0
  9  7  1  0
 10 11  1  1
 12 11  1  0
 13 12  2  0
 14 10  1  0
 14 15  2  0
 16 12  1  0
 18 17  1  0
 19 18  1  0
 19 20  1  1
 21 22  1  6
 21 19  1  0
 22 14  1  0
 23 21  1  0
 24 23  2  0
 25 23  1  0
M  END
$$$$
