MDI.pdb
     RDKit          3D

 25 24  0  0  1  0  0  0  0  0999 V2000
   25.5884  -19.8838   -8.5960 C   0  0  0  0  0  0  0  0  0  0  0  0
   26.4443  -21.4573   -8.8997 S   0  0  0  0  0  0  0  0  0  0  0  0
   27.0991  -21.4929  -10.6148 C   0  0  0  0  0  0  0  0  0  0  0  0
   25.9484  -21.2247  -11.5207 C   0  0  0  0  0  0  0  0  0  0  0  0
   26.2496  -21.2036  -12.9768 C   0  0  2  0  0  0  0  0  0  0  0  0
   27.4715  -20.4745  -13.2419 N   0  0  0  0  0  0  0  0  0  0  0  0
   25.1384  -20.7774  -13.8508 C   0  0  0  0  0  0  0  0  0  0  0  0
   24.9706  -19.5525  -14.0822 O   0  0  0  0  0  0  0  0  0  0  0  0
   24.2291  -21.6849  -14.4563 N   0  0  0  0  0  0  0  0  0  0  0  0
   23.1470  -21.3021  -15.3143 C   0  0  1  0  0  0  0  0  0  0  0  0
   23.0767  -22.0322  -16.6093 C   0  0  0  0  0  0  0  0  0  0  0  0
   24.1827  -21.6148  -17.4894 C   0  0  0  0  0  0  0  0  0  0  0  0
   25.1270  -22.4061  -17.7017 O   0  0  0  0  0  0  0  0  0  0  0  0
   21.8301  -21.3376  -14.5877 C   0  0  0  0  0  0  0  0  0  0  0  0
   21.5339  -22.4036  -14.0058 O   0  0  0  0  0  0  0  0  0  0  0  0
   24.2250  -20.3697  -18.1002 O   0  0  0  0  0  0  0  0  0  0  0  0
   18.0147  -17.5433  -11.6484 C   0  0  0  0  0  0  0  0  0  0  0  0
   18.2211  -18.8636  -12.3439 C   0  0  0  0  0  0  0  0  0  0  0  0
   19.4818  -18.8907  -13.1793 C   0  0  2  0  0  0  0  0  0  0  0  0
   19.5310  -17.7381  -14.1121 C   0  0  0  0  0  0  0  0  0  0  0  0
   19.7030  -20.2343  -13.7865 C   0  0  2  0  0  0  0  0  0  0  0  0
   20.9454  -20.2550  -14.5372 N   0  0  0  0  0  0  0  0  0  0  0  0
   18.5679  -20.7221  -14.5951 C   0  0  0  0  0  0  0  0  0  0  0  0
   18.6186  -20.5146  -15.8471 O   0  0  0  0  0  0  0  0  0  0  0  0
   17.4712  -21.3743  -14.1226 O   0  0  0  0  0  0  0  0  0  0  0  0
  2  3  1  0
  2  1  1  0
  4  5  1  0
  4  3  1  0
  5  7  1  0
  5  6  1  1
  7  8  2  0
  9 10  1  0
  9  7  1  0
 10 11  1  6
 12 11  1  0
 13 12  2  0
 14 10  1  0
 14 15  2  0
 16 12  1  0
 18 17  1  0
 19 18  1  0
 19 20  1  6
 21 22  1  6
 21 19  1  0
 22 14  1  0
 23 21  1  0
 24 23  2  0
 25 23  1  0
M  END
$$$$
