MDI.pdb
     RDKit          3D

 25 24  0  0  1  0  0  0  0  0999 V2000
   11.6029  -10.2403  -14.4337 C   0  0  0  0  0  0  0  0  0  0  0  0
   11.8314  -10.8643  -16.1246 S   0  0  0  0  0  0  0  0  0  0  0  0
   13.5933  -11.3037  -16.3969 C   0  0  0  0  0  0  0  0  0  0  0  0
   14.3328  -10.8984  -15.1698 C   0  0  0  0  0  0  0  0  0  0  0  0
   15.8097  -11.0676  -15.2068 C   0  0  2  0  0  0  0  0  0  0  0  0
   16.1675  -12.4643  -15.3342 N   0  0  0  0  0  0  0  0  0  0  0  0
   16.5553  -10.3914  -14.1264 C   0  0  0  0  0  0  0  0  0  0  0  0
   16.6237  -10.9314  -12.9925 O   0  0  0  0  0  0  0  0  0  0  0  0
   17.2113   -9.1430  -14.2935 N   0  0  0  0  0  0  0  0  0  0  0  0
   17.8996   -8.4392  -13.2521 C   0  0  1  0  0  0  0  0  0  0  0  0
   19.1100   -7.6901  -13.6865 C   0  0  0  0  0  0  0  0  0  0  0  0
   19.8094   -7.1305  -12.5161 C   0  0  0  0  0  0  0  0  0  0  0  0
   19.9268   -7.8260  -11.4839 O   0  0  0  0  0  0  0  0  0  0  0  0
   16.9610   -7.5646  -12.4661 C   0  0  0  0  0  0  0  0  0  0  0  0
   16.3407   -6.6857  -13.1026 O   0  0  0  0  0  0  0  0  0  0  0  0
   20.3496   -5.8526  -12.5067 O   0  0  0  0  0  0  0  0  0  0  0  0
   12.5411   -7.3163   -8.5652 C   0  0  0  0  0  0  0  0  0  0  0  0
   13.8071   -6.6293   -9.0064 C   0  0  0  0  0  0  0  0  0  0  0  0
   14.7183   -7.5406   -9.7983 C   0  0  2  0  0  0  0  0  0  0  0  0
   14.9747   -8.8069   -9.0691 C   0  0  0  0  0  0  0  0  0  0  0  0
   15.9231   -6.8121  -10.2889 C   0  0  2  0  0  0  0  0  0  0  0  0
   16.7586   -7.6906  -11.0875 N   0  0  0  0  0  0  0  0  0  0  0  0
   16.6958   -6.1433   -9.2231 C   0  0  0  0  0  0  0  0  0  0  0  0
   16.1280   -5.1864   -8.6109 O   0  0  0  0  0  0  0  0  0  0  0  0
   17.9616   -6.4579   -8.8354 O   0  0  0  0  0  0  0  0  0  0  0  0
  2  3  1  0
  2  1  1  0
  4  5  1  0
  4  3  1  0
  5  7  1  0
  5  6  1  1
  7  8  2  0
  9 10  1  0
  9  7  1  0
 10 11  1  6
 12 11  1  0
 13 12  2  0
 14 10  1  0
 14 15  2  0
 16 12  1  0
 18 17  1  0
 19 18  1  0
 19 20  1  1
 21 22  1  1
 21 19  1  0
 22 14  1  0
 23 21  1  0
 24 23  2  0
 25 23  1  0
M  END
$$$$
