MDI.pdb
     RDKit          3D

 25 24  0  0  1  0  0  0  0  0999 V2000
   29.0951  -16.0710  -16.6638 C   0  0  0  0  0  0  0  0  0  0  0  0
   29.2415  -17.5829  -17.6607 S   0  0  0  0  0  0  0  0  0  0  0  0
   28.3008  -18.9474  -16.8702 C   0  0  0  0  0  0  0  0  0  0  0  0
   28.0328  -18.5290  -15.4666 C   0  0  0  0  0  0  0  0  0  0  0  0
   27.9739  -19.6185  -14.4563 C   0  0  2  0  0  0  0  0  0  0  0  0
   27.8554  -20.9115  -15.0959 N   0  0  0  0  0  0  0  0  0  0  0  0
   26.9852  -19.4318  -13.3756 C   0  0  0  0  0  0  0  0  0  0  0  0
   26.6349  -18.2673  -13.0543 O   0  0  0  0  0  0  0  0  0  0  0  0
   26.3956  -20.5091  -12.6623 N   0  0  0  0  0  0  0  0  0  0  0  0
   25.3958  -20.3623  -11.6462 C   0  0  1  0  0  0  0  0  0  0  0  0
   24.0373  -20.8415  -12.0202 C   0  0  0  0  0  0  0  0  0  0  0  0
   23.0717  -20.5150  -10.9558 C   0  0  0  0  0  0  0  0  0  0  0  0
   23.2038  -19.4488  -10.3165 O   0  0  0  0  0  0  0  0  0  0  0  0
   25.8495  -20.9526  -10.3388 C   0  0  0  0  0  0  0  0  0  0  0  0
   25.8799  -22.1999  -10.2619 O   0  0  0  0  0  0  0  0  0  0  0  0
   22.0105  -21.3460  -10.6264 O   0  0  0  0  0  0  0  0  0  0  0  0
   28.9001  -19.5200   -5.1465 C   0  0  0  0  0  0  0  0  0  0  0  0
   27.9687  -20.4260   -5.9088 C   0  0  0  0  0  0  0  0  0  0  0  0
   27.4768  -19.8044   -7.1971 C   0  0  2  0  0  0  0  0  0  0  0  0
   26.9865  -18.4224   -6.9719 C   0  0  0  0  0  0  0  0  0  0  0  0
   26.5486  -20.7184   -7.9222 C   0  0  2  0  0  0  0  0  0  0  0  0
   26.2292  -20.1836   -9.2335 N   0  0  0  0  0  0  0  0  0  0  0  0
   25.3310  -21.0645   -7.1619 C   0  0  0  0  0  0  0  0  0  0  0  0
   25.4931  -21.6407   -6.0418 O   0  0  0  0  0  0  0  0  0  0  0  0
   24.0497  -20.8228   -7.5507 O   0  0  0  0  0  0  0  0  0  0  0  0
  2  3  1  0
  2  1  1  0
  4  5  1  0
  4  3  1  0
  5  7  1  0
  5  6  1  6
  7  8  2  0
  9 10  1  0
  9  7  1  0
 10 11  1  6
 12 11  1  0
 13 12  2  0
 14 10  1  0
 14 15  2  0
 16 12  1  0
 18 17  1  0
 19 18  1  0
 19 20  1  1
 21 22  1  6
 21 19  1  0
 22 14  1  0
 23 21  1  0
 24 23  2  0
 25 23  1  0
M  END
$$$$
