MDI.pdb
     RDKit          3D

 25 24  0  0  1  0  0  0  0  0999 V2000
   29.6684  -23.2308  -14.5147 C   0  0  0  0  0  0  0  0  0  0  0  0
   29.8906  -23.1565  -16.3163 S   0  0  0  0  0  0  0  0  0  0  0  0
   29.3412  -21.5223  -16.9478 C   0  0  0  0  0  0  0  0  0  0  0  0
   28.6300  -20.8450  -15.8287 C   0  0  0  0  0  0  0  0  0  0  0  0
   27.1495  -20.9826  -15.8124 C   0  0  2  0  0  0  0  0  0  0  0  0
   26.5660  -20.4402  -17.0208 N   0  0  0  0  0  0  0  0  0  0  0  0
   26.4778  -20.4910  -14.5927 C   0  0  0  0  0  0  0  0  0  0  0  0
   26.5569  -19.2719  -14.2937 O   0  0  0  0  0  0  0  0  0  0  0  0
   25.7345  -21.3286  -13.7193 N   0  0  0  0  0  0  0  0  0  0  0  0
   24.9936  -20.8665  -12.5830 C   0  0  1  0  0  0  0  0  0  0  0  0
   23.5416  -21.1927  -12.5983 C   0  0  0  0  0  0  0  0  0  0  0  0
   22.8513  -20.3934  -13.6261 C   0  0  0  0  0  0  0  0  0  0  0  0
   22.6876  -19.1680  -13.4398 O   0  0  0  0  0  0  0  0  0  0  0  0
   25.6420  -21.2917  -11.2937 C   0  0  0  0  0  0  0  0  0  0  0  0
   25.9874  -22.4896  -11.2027 O   0  0  0  0  0  0  0  0  0  0  0  0
   22.3689  -20.9442  -14.8047 O   0  0  0  0  0  0  0  0  0  0  0  0
   28.6557  -19.3802   -6.2914 C   0  0  0  0  0  0  0  0  0  0  0  0
   27.7071  -20.3552   -6.9385 C   0  0  0  0  0  0  0  0  0  0  0  0
   27.1872  -19.8643   -8.2714 C   0  0  2  0  0  0  0  0  0  0  0  0
   26.7030  -18.4653   -8.1751 C   0  0  0  0  0  0  0  0  0  0  0  0
   26.2425  -20.8436   -8.8807 C   0  0  2  0  0  0  0  0  0  0  0  0
   25.8687  -20.4245  -10.2195 N   0  0  0  0  0  0  0  0  0  0  0  0
   25.0579  -21.1331   -8.0482 C   0  0  0  0  0  0  0  0  0  0  0  0
   23.9725  -20.5554   -8.3664 O   0  0  0  0  0  0  0  0  0  0  0  0
   25.0213  -21.9627   -6.9703 O   0  0  0  0  0  0  0  0  0  0  0  0
  2  3  1  0
  2  1  1  0
  4  5  1  0
  4  3  1  0
  5  7  1  0
  5  6  1  6
  7  8  2  0
  9 10  1  0
  9  7  1  0
 10 11  1  6
 12 11  1  0
 13 12  2  0
 14 10  1  0
 14 15  2  0
 16 12  1  0
 18 17  1  0
 19 18  1  0
 19 20  1  1
 21 22  1  6
 21 19  1  0
 22 14  1  0
 23 21  1  0
 24 23  2  0
 25 23  1  0
M  END
$$$$
