MDI.pdb
     RDKit          3D

 25 24  0  0  1  0  0  0  0  0999 V2000
   29.5487  -15.7510  -16.5310 C   0  0  0  0  0  0  0  0  0  0  0  0
   29.1201  -16.7093  -18.0139 S   0  0  0  0  0  0  0  0  0  0  0  0
   28.3213  -18.2897  -17.5285 C   0  0  0  0  0  0  0  0  0  0  0  0
   28.1222  -18.2366  -16.0539 C   0  0  0  0  0  0  0  0  0  0  0  0
   27.7459  -19.5156  -15.3954 C   0  0  2  0  0  0  0  0  0  0  0  0
   27.2078  -20.4541  -16.3570 N   0  0  0  0  0  0  0  0  0  0  0  0
   26.8943  -19.3876  -14.1959 C   0  0  0  0  0  0  0  0  0  0  0  0
   27.2008  -18.5510  -13.3081 O   0  0  0  0  0  0  0  0  0  0  0  0
   25.7281  -20.1687  -13.9795 N   0  0  0  0  0  0  0  0  0  0  0  0
   24.8517  -20.0286  -12.8543 C   0  0  1  0  0  0  0  0  0  0  0  0
   23.4160  -20.3065  -13.1311 C   0  0  0  0  0  0  0  0  0  0  0  0
   23.0952  -19.9789  -14.5318 C   0  0  0  0  0  0  0  0  0  0  0  0
   22.8588  -20.9050  -15.3376 O   0  0  0  0  0  0  0  0  0  0  0  0
   25.3479  -20.8124  -11.6698 C   0  0  0  0  0  0  0  0  0  0  0  0
   25.7894  -21.9597  -11.8959 O   0  0  0  0  0  0  0  0  0  0  0  0
   23.0430  -18.6749  -15.0031 O   0  0  0  0  0  0  0  0  0  0  0  0
   27.4928  -18.8088   -6.7790 C   0  0  0  0  0  0  0  0  0  0  0  0
   26.4583  -19.2359   -7.7873 C   0  0  0  0  0  0  0  0  0  0  0  0
   26.7970  -20.5547   -8.4461 C   0  0  2  0  0  0  0  0  0  0  0  0
   28.0603  -20.4589   -9.2180 C   0  0  0  0  0  0  0  0  0  0  0  0
   25.6241  -21.1147   -9.1766 C   0  0  2  0  0  0  0  0  0  0  0  0
   25.3361  -20.3232  -10.3591 N   0  0  0  0  0  0  0  0  0  0  0  0
   24.4241  -21.2971   -8.3358 C   0  0  0  0  0  0  0  0  0  0  0  0
   23.3749  -20.6709   -8.6820 O   0  0  0  0  0  0  0  0  0  0  0  0
   24.3382  -22.0752   -7.2228 O   0  0  0  0  0  0  0  0  0  0  0  0
  2  3  1  0
  2  1  1  0
  4  5  1  0
  4  3  1  0
  5  7  1  0
  5  6  1  6
  7  8  2  0
  9 10  1  0
  9  7  1  0
 10 11  1  6
 12 11  1  0
 13 12  2  0
 14 10  1  0
 14 15  2  0
 16 12  1  0
 18 17  1  0
 19 18  1  0
 19 20  1  6
 21 22  1  6
 21 19  1  0
 22 14  1  0
 23 21  1  0
 24 23  2  0
 25 23  1  0
M  END
$$$$
