MDI.pdb
     RDKit          3D

 25 24  0  0  1  0  0  0  0  0999 V2000
   18.0530  -18.0119  -16.0345 C   0  0  0  0  0  0  0  0  0  0  0  0
   18.3368  -16.2327  -16.2685 S   0  0  0  0  0  0  0  0  0  0  0  0
   18.3735  -15.8351  -18.0607 C   0  0  0  0  0  0  0  0  0  0  0  0
   18.6143  -14.3699  -18.1720 C   0  0  0  0  0  0  0  0  0  0  0  0
   17.6820  -13.4918  -17.4164 C   0  0  2  0  0  0  0  0  0  0  0  0
   16.3372  -13.5905  -17.9427 N   0  0  0  0  0  0  0  0  0  0  0  0
   18.1203  -12.0916  -17.2498 C   0  0  0  0  0  0  0  0  0  0  0  0
   19.2870  -11.7660  -17.5888 O   0  0  0  0  0  0  0  0  0  0  0  0
   17.2881  -11.0710  -16.7181 N   0  0  0  0  0  0  0  0  0  0  0  0
   17.6524   -9.6880  -16.6282 C   0  0  1  0  0  0  0  0  0  0  0  0
   16.5306   -8.7552  -16.3346 C   0  0  0  0  0  0  0  0  0  0  0  0
   17.0167   -7.3640  -16.3183 C   0  0  0  0  0  0  0  0  0  0  0  0
   17.1126   -6.7626  -15.2264 O   0  0  0  0  0  0  0  0  0  0  0  0
   18.8037   -9.4830  -15.6815 C   0  0  0  0  0  0  0  0  0  0  0  0
   18.6503   -9.8878  -14.5088 O   0  0  0  0  0  0  0  0  0  0  0  0
   17.3769   -6.6827  -17.4721 O   0  0  0  0  0  0  0  0  0  0  0  0
   23.3130  -10.5497  -13.6851 C   0  0  0  0  0  0  0  0  0  0  0  0
   23.4795   -9.4931  -14.7459 C   0  0  0  0  0  0  0  0  0  0  0  0
   22.3300   -9.4686  -15.7287 C   0  0  2  0  0  0  0  0  0  0  0  0
   22.7880   -9.0577  -17.0786 C   0  0  0  0  0  0  0  0  0  0  0  0
   21.1607   -8.7243  -15.1793 C   0  0  2  0  0  0  0  0  0  0  0  0
   20.0082   -8.8738  -16.0493 N   0  0  0  0  0  0  0  0  0  0  0  0
   21.4389   -7.3053  -14.8800 C   0  0  0  0  0  0  0  0  0  0  0  0
   21.9879   -7.0467  -13.7644 O   0  0  0  0  0  0  0  0  0  0  0  0
   21.1613   -6.2478  -15.6900 O   0  0  0  0  0  0  0  0  0  0  0  0
  2  3  1  0
  2  1  1  0
  4  5  1  0
  4  3  1  0
  5  7  1  0
  5  6  1  6
  7  8  2  0
  9 10  1  0
  9  7  1  0
 10 11  1  1
 12 11  1  0
 13 12  2  0
 14 10  1  0
 14 15  2  0
 16 12  1  0
 18 17  1  0
 19 18  1  0
 19 20  1  6
 21 22  1  6
 21 19  1  0
 22 14  1  0
 23 21  1  0
 24 23  2  0
 25 23  1  0
M  END
$$$$
