MDI.pdb
     RDKit          3D

 25 24  0  0  1  0  0  0  0  0999 V2000
   24.5512  -20.1889   -8.5138 C   0  0  0  0  0  0  0  0  0  0  0  0
   26.2491  -20.6097   -9.0046 S   0  0  0  0  0  0  0  0  0  0  0  0
   26.2253  -21.6215  -10.5366 C   0  0  0  0  0  0  0  0  0  0  0  0
   25.0431  -21.1793  -11.3264 C   0  0  0  0  0  0  0  0  0  0  0  0
   24.8199  -21.8762  -12.6209 C   0  0  2  0  0  0  0  0  0  0  0  0
   25.9964  -21.7979  -13.4604 N   0  0  0  0  0  0  0  0  0  0  0  0
   23.5873  -21.5005  -13.3420 C   0  0  0  0  0  0  0  0  0  0  0  0
   23.6723  -21.0314  -14.5060 O   0  0  0  0  0  0  0  0  0  0  0  0
   22.2865  -21.6382  -12.7891 N   0  0  0  0  0  0  0  0  0  0  0  0
   21.0677  -21.4694  -13.5235 C   0  0  1  0  0  0  0  0  0  0  0  0
   19.8433  -21.9727  -12.8434 C   0  0  0  0  0  0  0  0  0  0  0  0
   19.8889  -23.4418  -12.7353 C   0  0  0  0  0  0  0  0  0  0  0  0
   19.3975  -23.9963  -11.7283 O   0  0  0  0  0  0  0  0  0  0  0  0
   20.8974  -20.0483  -13.9875 C   0  0  0  0  0  0  0  0  0  0  0  0
   20.7955  -19.1727  -13.1013 O   0  0  0  0  0  0  0  0  0  0  0  0
   20.4586  -24.2475  -13.7107 O   0  0  0  0  0  0  0  0  0  0  0  0
   21.9530  -18.5708  -19.4275 C   0  0  0  0  0  0  0  0  0  0  0  0
   21.1136  -18.8359  -18.2049 C   0  0  0  0  0  0  0  0  0  0  0  0
   21.6007  -18.0793  -16.9891 C   0  0  2  0  0  0  0  0  0  0  0  0
   23.0505  -18.3008  -16.7658 C   0  0  0  0  0  0  0  0  0  0  0  0
   20.7141  -18.3113  -15.8131 C   0  0  2  0  0  0  0  0  0  0  0  0
   20.8496  -19.6754  -15.3351 N   0  0  0  0  0  0  0  0  0  0  0  0
   19.3010  -17.9520  -16.0462 C   0  0  0  0  0  0  0  0  0  0  0  0
   19.0460  -16.7297  -16.2781 O   0  0  0  0  0  0  0  0  0  0  0  0
   18.2453  -18.8104  -16.0357 O   0  0  0  0  0  0  0  0  0  0  0  0
  2  3  1  0
  2  1  1  0
  4  5  1  0
  4  3  1  0
  5  7  1  0
  5  6  1  6
  7  8  2  0
  9 10  1  0
  9  7  1  0
 10 11  1  1
 12 11  1  0
 13 12  2  0
 14 10  1  0
 14 15  2  0
 16 12  1  0
 18 17  1  0
 19 18  1  0
 19 20  1  1
 21 22  1  6
 21 19  1  0
 22 14  1  0
 23 21  1  0
 24 23  2  0
 25 23  1  0
M  END
$$$$
