MDI.pdb
     RDKit          3D

 25 24  0  0  1  0  0  0  0  0999 V2000
   19.4555  -16.3609  -13.3918 C   0  0  0  0  0  0  0  0  0  0  0  0
   20.8003  -16.7283  -14.5570 S   0  0  0  0  0  0  0  0  0  0  0  0
   20.5901  -15.7369  -16.0882 C   0  0  0  0  0  0  0  0  0  0  0  0
   19.1695  -15.2924  -16.1218 C   0  0  0  0  0  0  0  0  0  0  0  0
   18.7641  -14.4766  -17.2970 C   0  0  2  0  0  0  0  0  0  0  0  0
   19.2481  -15.0653  -18.5275 N   0  0  0  0  0  0  0  0  0  0  0  0
   19.0666  -13.0341  -17.2057 C   0  0  0  0  0  0  0  0  0  0  0  0
   20.1828  -12.6116  -17.6026 O   0  0  0  0  0  0  0  0  0  0  0  0
   18.1558  -12.0769  -16.6851 N   0  0  0  0  0  0  0  0  0  0  0  0
   18.4086  -10.6682  -16.6124 C   0  0  1  0  0  0  0  0  0  0  0  0
   17.2049   -9.8185  -16.4024 C   0  0  0  0  0  0  0  0  0  0  0  0
   16.2658   -9.9800  -17.5266 C   0  0  0  0  0  0  0  0  0  0  0  0
   15.2014  -10.6111  -17.3484 O   0  0  0  0  0  0  0  0  0  0  0  0
   19.4880  -10.3541  -15.6123 C   0  0  0  0  0  0  0  0  0  0  0  0
   19.2802  -10.6994  -14.4291 O   0  0  0  0  0  0  0  0  0  0  0  0
   16.5111   -9.4580  -18.7886 O   0  0  0  0  0  0  0  0  0  0  0  0
   25.2908  -10.8848  -14.6472 C   0  0  0  0  0  0  0  0  0  0  0  0
   24.0821  -10.0335  -14.3578 C   0  0  0  0  0  0  0  0  0  0  0  0
   22.9704  -10.2402  -15.3623 C   0  0  2  0  0  0  0  0  0  0  0  0
   23.4697  -10.0933  -16.7516 C   0  0  0  0  0  0  0  0  0  0  0  0
   21.7643   -9.4370  -15.0116 C   0  0  2  0  0  0  0  0  0  0  0  0
   20.6841   -9.7081  -15.9429 N   0  0  0  0  0  0  0  0  0  0  0  0
   22.0238   -7.9891  -14.8826 C   0  0  0  0  0  0  0  0  0  0  0  0
   22.6710   -7.6068  -13.8589 O   0  0  0  0  0  0  0  0  0  0  0  0
   21.6334   -7.0253  -15.7601 O   0  0  0  0  0  0  0  0  0  0  0  0
  2  3  1  0
  2  1  1  0
  4  5  1  0
  4  3  1  0
  5  7  1  0
  5  6  1  6
  7  8  2  0
  9 10  1  0
  9  7  1  0
 10 11  1  1
 12 11  1  0
 13 12  2  0
 14 10  1  0
 14 15  2  0
 16 12  1  0
 18 17  1  0
 19 18  1  0
 19 20  1  6
 21 22  1  6
 21 19  1  0
 22 14  1  0
 23 21  1  0
 24 23  2  0
 25 23  1  0
M  END
$$$$
