MDI.pdb
     RDKit          3D

 25 24  0  0  1  0  0  0  0  0999 V2000
   20.9335  -16.7473  -14.3393 C   0  0  0  0  0  0  0  0  0  0  0  0
   19.2803  -17.3632  -14.7736 S   0  0  0  0  0  0  0  0  0  0  0  0
   18.7273  -16.6102  -16.3543 C   0  0  0  0  0  0  0  0  0  0  0  0
   19.1366  -15.1792  -16.3161 C   0  0  0  0  0  0  0  0  0  0  0  0
   18.8435  -14.3793  -17.5349 C   0  0  2  0  0  0  0  0  0  0  0  0
   19.5812  -14.8826  -18.6740 N   0  0  0  0  0  0  0  0  0  0  0  0
   18.9720  -12.9162  -17.3824 C   0  0  0  0  0  0  0  0  0  0  0  0
   20.0378  -12.3503  -17.7372 O   0  0  0  0  0  0  0  0  0  0  0  0
   17.9451  -12.0938  -16.8475 N   0  0  0  0  0  0  0  0  0  0  0  0
   18.0425  -10.6737  -16.6826 C   0  0  1  0  0  0  0  0  0  0  0  0
   16.7456   -9.9668  -16.4996 C   0  0  0  0  0  0  0  0  0  0  0  0
   15.8898  -10.1591  -17.6839 C   0  0  0  0  0  0  0  0  0  0  0  0
   14.9126  -10.9356  -17.6124 O   0  0  0  0  0  0  0  0  0  0  0  0
   19.0263  -10.3116  -15.6034 C   0  0  0  0  0  0  0  0  0  0  0  0
   18.7091  -10.6002  -14.4292 O   0  0  0  0  0  0  0  0  0  0  0  0
   16.1212   -9.5109  -18.8887 O   0  0  0  0  0  0  0  0  0  0  0  0
   24.6150  -10.7740  -13.8487 C   0  0  0  0  0  0  0  0  0  0  0  0
   23.3938   -9.8933  -13.7981 C   0  0  0  0  0  0  0  0  0  0  0  0
   22.4401  -10.1541  -14.9429 C   0  0  2  0  0  0  0  0  0  0  0  0
   23.1450  -10.1111  -16.2476 C   0  0  0  0  0  0  0  0  0  0  0  0
   21.2149   -9.3119  -14.8326 C   0  0  2  0  0  0  0  0  0  0  0  0
   20.2501   -9.6813  -15.8526 N   0  0  0  0  0  0  0  0  0  0  0  0
   21.4823   -7.8597  -14.8338 C   0  0  0  0  0  0  0  0  0  0  0  0
   21.3863   -7.2552  -15.9467 O   0  0  0  0  0  0  0  0  0  0  0  0
   21.8223   -7.1082  -13.7517 O   0  0  0  0  0  0  0  0  0  0  0  0
  2  3  1  0
  2  1  1  0
  4  5  1  0
  4  3  1  0
  5  7  1  0
  5  6  1  6
  7  8  2  0
  9 10  1  0
  9  7  1  0
 10 11  1  1
 12 11  1  0
 13 12  2  0
 14 10  1  0
 14 15  2  0
 16 12  1  0
 18 17  1  0
 19 18  1  0
 19 20  1  6
 21 22  1  6
 21 19  1  0
 22 14  1  0
 23 21  1  0
 24 23  2  0
 25 23  1  0
M  END
$$$$
