MDI.pdb
     RDKit          3D

 25 24  0  0  1  0  0  0  0  0999 V2000
   30.5930  -20.4390  -11.7386 C   0  0  0  0  0  0  0  0  0  0  0  0
   31.3319  -21.9954  -12.3151 S   0  0  0  0  0  0  0  0  0  0  0  0
   30.9346  -22.2578  -14.0884 C   0  0  0  0  0  0  0  0  0  0  0  0
   29.5892  -21.6638  -14.3208 C   0  0  0  0  0  0  0  0  0  0  0  0
   29.0570  -21.7644  -15.7057 C   0  0  2  0  0  0  0  0  0  0  0  0
   29.9418  -21.1141  -16.6486 N   0  0  0  0  0  0  0  0  0  0  0  0
   27.6494  -21.3529  -15.8782 C   0  0  0  0  0  0  0  0  0  0  0  0
   27.3580  -20.1294  -15.8630 O   0  0  0  0  0  0  0  0  0  0  0  0
   26.5838  -22.2735  -16.0625 N   0  0  0  0  0  0  0  0  0  0  0  0
   25.1958  -21.9545  -15.9042 C   0  0  1  0  0  0  0  0  0  0  0  0
   24.2778  -22.6267  -16.8636 C   0  0  0  0  0  0  0  0  0  0  0  0
   22.9023  -22.1285  -16.6857 C   0  0  0  0  0  0  0  0  0  0  0  0
   22.7192  -21.0238  -16.1297 O   0  0  0  0  0  0  0  0  0  0  0  0
   24.7459  -22.1473  -14.4815 C   0  0  0  0  0  0  0  0  0  0  0  0
   24.7599  -23.3157  -14.0376 O   0  0  0  0  0  0  0  0  0  0  0  0
   21.7879  -22.8370  -17.1117 O   0  0  0  0  0  0  0  0  0  0  0  0
   25.5793  -20.7347   -8.9023 C   0  0  0  0  0  0  0  0  0  0  0  0
   24.5179  -21.1262   -9.8971 C   0  0  0  0  0  0  0  0  0  0  0  0
   24.9442  -20.8857  -11.3283 C   0  0  2  0  0  0  0  0  0  0  0  0
   25.5242  -19.5303  -11.4938 C   0  0  0  0  0  0  0  0  0  0  0  0
   23.8647  -21.2575  -12.2871 C   0  0  2  0  0  0  0  0  0  0  0  0
   24.3234  -21.1002  -13.6555 N   0  0  0  0  0  0  0  0  0  0  0  0
   22.5871  -20.5546  -12.0549 C   0  0  0  0  0  0  0  0  0  0  0  0
   21.8880  -20.9375  -11.0661 O   0  0  0  0  0  0  0  0  0  0  0  0
   22.0888  -19.5332  -12.8031 O   0  0  0  0  0  0  0  0  0  0  0  0
  2  3  1  0
  2  1  1  0
  4  5  1  0
  4  3  1  0
  5  7  1  0
  5  6  1  6
  7  8  2  0
  9 10  1  0
  9  7  1  0
 10 11  1  6
 12 11  1  0
 13 12  2  0
 14 10  1  0
 14 15  2  0
 16 12  1  0
 18 17  1  0
 19 18  1  0
 19 20  1  1
 21 22  1  6
 21 19  1  0
 22 14  1  0
 23 21  1  0
 24 23  2  0
 25 23  1  0
M  END
$$$$
