MDI.pdb
     RDKit          3D

 25 24  0  0  1  0  0  0  0  0999 V2000
   15.3963  -29.1436   -7.6738 C   0  0  0  0  0  0  0  0  0  0  0  0
   16.2151  -29.3117   -6.0607 S   0  0  0  0  0  0  0  0  0  0  0  0
   17.7376  -28.2860   -6.0218 C   0  0  0  0  0  0  0  0  0  0  0  0
   17.4541  -27.0638   -6.8234 C   0  0  0  0  0  0  0  0  0  0  0  0
   18.5666  -26.0845   -6.9439 C   0  0  2  0  0  0  0  0  0  0  0  0
   18.8656  -25.4808   -5.6628 N   0  0  0  0  0  0  0  0  0  0  0  0
   18.4190  -25.0821   -8.0181 C   0  0  0  0  0  0  0  0  0  0  0  0
   18.1483  -23.8912   -7.7176 O   0  0  0  0  0  0  0  0  0  0  0  0
   18.5657  -25.3884   -9.3971 N   0  0  0  0  0  0  0  0  0  0  0  0
   18.3797  -24.4496  -10.4637 C   0  0  1  0  0  0  0  0  0  0  0  0
   19.2723  -24.6412  -11.6391 C   0  0  0  0  0  0  0  0  0  0  0  0
   19.7972  -23.3423  -12.0965 C   0  0  0  0  0  0  0  0  0  0  0  0
   20.0426  -22.4513  -11.2546 O   0  0  0  0  0  0  0  0  0  0  0  0
   16.9351  -24.3637  -10.8751 C   0  0  0  0  0  0  0  0  0  0  0  0
   16.3414  -25.4438  -11.0836 O   0  0  0  0  0  0  0  0  0  0  0  0
   20.0342  -23.0590  -13.4340 O   0  0  0  0  0  0  0  0  0  0  0  0
   11.6892  -23.0192  -10.2137 C   0  0  0  0  0  0  0  0  0  0  0  0
   12.6119  -22.1768  -11.0554 C   0  0  0  0  0  0  0  0  0  0  0  0
   14.0495  -22.2453  -10.5899 C   0  0  2  0  0  0  0  0  0  0  0  0
   14.5610  -20.8996  -10.2313 C   0  0  0  0  0  0  0  0  0  0  0  0
   14.8900  -23.0348  -11.5349 C   0  0  2  0  0  0  0  0  0  0  0  0
   16.2458  -23.1562  -11.0302 N   0  0  0  0  0  0  0  0  0  0  0  0
   14.8668  -22.5320  -12.9230 C   0  0  0  0  0  0  0  0  0  0  0  0
   13.8191  -22.7608  -13.6034 O   0  0  0  0  0  0  0  0  0  0  0  0
   15.8653  -21.8451  -13.5416 O   0  0  0  0  0  0  0  0  0  0  0  0
  2  3  1  0
  2  1  1  0
  4  5  1  0
  4  3  1  0
  5  7  1  0
  5  6  1  1
  7  8  2  0
  9 10  1  0
  9  7  1  0
 10 11  1  6
 12 11  1  0
 13 12  2  0
 14 10  1  0
 14 15  2  0
 16 12  1  0
 18 17  1  0
 19 18  1  0
 19 20  1  6
 21 22  1  1
 21 19  1  0
 22 14  1  0
 23 21  1  0
 24 23  2  0
 25 23  1  0
M  END
$$$$
