MDI.pdb
     RDKit          3D

 25 24  0  0  1  0  0  0  0  0999 V2000
   27.3041  -15.1818  -14.3184 C   0  0  0  0  0  0  0  0  0  0  0  0
   27.5205  -15.7706  -16.0235 S   0  0  0  0  0  0  0  0  0  0  0  0
   27.5834  -17.6054  -16.0489 C   0  0  0  0  0  0  0  0  0  0  0  0
   27.1886  -18.0687  -14.6901 C   0  0  0  0  0  0  0  0  0  0  0  0
   27.3166  -19.5272  -14.4303 C   0  0  2  0  0  0  0  0  0  0  0  0
   27.7897  -20.2230  -15.6080 N   0  0  0  0  0  0  0  0  0  0  0  0
   26.1314  -20.1738  -13.8321 C   0  0  0  0  0  0  0  0  0  0  0  0
   25.4428  -20.9637  -14.5277 O   0  0  0  0  0  0  0  0  0  0  0  0
   25.7135  -19.9519  -12.4931 N   0  0  0  0  0  0  0  0  0  0  0  0
   24.6395  -20.6490  -11.8494 C   0  0  1  0  0  0  0  0  0  0  0  0
   24.6861  -20.6495  -10.3619 C   0  0  0  0  0  0  0  0  0  0  0  0
   26.0190  -21.0707   -9.8948 C   0  0  0  0  0  0  0  0  0  0  0  0
   26.8110  -21.6009  -10.7038 O   0  0  0  0  0  0  0  0  0  0  0  0
   23.3011  -20.1892  -12.3602 C   0  0  0  0  0  0  0  0  0  0  0  0
   23.0170  -18.9831  -12.1953 O   0  0  0  0  0  0  0  0  0  0  0  0
   26.4404  -20.9042   -8.5833 O   0  0  0  0  0  0  0  0  0  0  0  0
   19.8661  -20.4721  -17.1929 C   0  0  0  0  0  0  0  0  0  0  0  0
   19.8615  -20.3165  -15.6945 C   0  0  0  0  0  0  0  0  0  0  0  0
   21.1220  -20.8492  -15.0500 C   0  0  2  0  0  0  0  0  0  0  0  0
   21.3938  -22.2437  -15.4772 C   0  0  0  0  0  0  0  0  0  0  0  0
   21.1272  -20.6021  -13.5797 C   0  0  2  0  0  0  0  0  0  0  0  0
   22.3844  -21.0335  -12.9958 N   0  0  0  0  0  0  0  0  0  0  0  0
   19.9684  -21.1795  -12.8696 C   0  0  0  0  0  0  0  0  0  0  0  0
   18.8331  -20.6571  -13.0954 O   0  0  0  0  0  0  0  0  0  0  0  0
   20.0044  -22.2210  -11.9947 O   0  0  0  0  0  0  0  0  0  0  0  0
  2  3  1  0
  2  1  1  0
  4  5  1  0
  4  3  1  0
  5  7  1  0
  5  6  1  6
  7  8  2  0
  9 10  1  0
  9  7  1  0
 10 11  1  1
 12 11  1  0
 13 12  2  0
 14 10  1  0
 14 15  2  0
 16 12  1  0
 18 17  1  0
 19 18  1  0
 19 20  1  1
 21 22  1  1
 21 19  1  0
 22 14  1  0
 23 21  1  0
 24 23  2  0
 25 23  1  0
M  END
$$$$
