VFD.pdb
     RDKit          3D

 27 27  0  0  1  0  0  0  0  0999 V2000
   19.9422  -27.5207  -17.2332 C   0  0  0  0  0  0  0  0  0  0  0  0
   20.5742  -26.3506  -16.5575 C   0  0  1  0  0  0  0  0  0  0  0  0
   19.5679  -25.2368  -16.4064 C   0  0  0  0  0  0  0  0  0  0  0  0
   21.2021  -26.7111  -15.2276 C   0  0  2  0  0  0  0  0  0  0  0  0
   20.2144  -27.2398  -14.3057 N   0  0  0  0  0  0  0  0  0  0  0  0
   21.8651  -25.5701  -14.5894 C   0  0  0  0  0  0  0  0  0  0  0  0
   21.2552  -24.9054  -13.6812 O   0  0  0  0  0  0  0  0  0  0  0  0
   23.1628  -25.1158  -14.8919 N   0  0  0  0  0  0  0  0  0  0  0  0
   23.8058  -23.9724  -14.2155 C   0  0  1  0  0  0  0  0  0  0  0  0
   25.2705  -24.1895  -14.1235 C   0  0  0  0  0  0  0  0  0  0  0  0
   26.0934  -23.0720  -13.6483 C   0  0  0  0  0  0  0  0  0  0  0  0
   26.8442  -22.2915  -14.5225 C   0  0  0  0  0  0  0  0  0  0  0  0
   27.6243  -21.2366  -14.0872 C   0  0  0  0  0  0  0  0  0  0  0  0
   27.6824  -20.9217  -12.7535 C   0  0  0  0  0  0  0  0  0  0  0  0
   26.9570  -21.6692  -11.8730 C   0  0  0  0  0  0  0  0  0  0  0  0
   26.1877  -22.7130  -12.3215 C   0  0  0  0  0  0  0  0  0  0  0  0
   23.3968  -22.7976  -15.0047 C   0  0  0  0  0  0  0  0  0  0  0  0
   23.2986  -22.8543  -16.2875 O   0  0  0  0  0  0  0  0  0  0  0  0
   23.0663  -21.5116  -14.4744 N   0  0  0  0  0  0  0  0  0  0  0  0
   22.7184  -20.4068  -15.3631 C   0  0  1  0  0  0  0  0  0  0  0  0
   22.0402  -19.2872  -14.5723 C   0  0  0  0  0  0  0  0  0  0  0  0
   20.9430  -19.7744  -13.7324 C   0  0  0  0  0  0  0  0  0  0  0  0
   20.7980  -19.4350  -12.5479 O   0  0  0  0  0  0  0  0  0  0  0  0
   23.8607  -19.8758  -16.1233 C   0  0  0  0  0  0  0  0  0  0  0  0
   23.7204  -19.4264  -17.4481 O   0  0  0  0  0  0  0  0  0  0  0  0
   20.0149  -20.6557  -14.2690 O   0  0  0  0  0  0  0  0  0  0  0  0
   25.0075  -19.7953  -15.6392 O   0  0  0  0  0  0  0  0  0  0  0  0
  2  1  1  1
  2  3  1  0
  4  2  1  0
  4  5  1  1
  6  7  2  0
  6  4  1  0
  8  6  1  0
  9 10  1  6
  9  8  1  0
 11 10  1  0
 11 12  2  0
 13 12  1  0
 14 13  2  0
 15 16  2  0
 15 14  1  0
 16 11  1  0
 17  9  1  0
 18 17  2  0
 19 17  1  0
 20 24  1  0
 20 19  1  0
 20 21  1  1
 22 23  2  0
 22 21  1  0
 24 25  1  0
 26 22  1  0
 27 24  2  0
M  END
$$$$
