VFD.pdb
     RDKit          3D

 27 27  0  0  1  0  0  0  0  0999 V2000
   28.0624  -18.7367  -15.1632 C   0  0  0  0  0  0  0  0  0  0  0  0
   27.4906  -19.3115  -13.9112 C   0  0  1  0  0  0  0  0  0  0  0  0
   26.1109  -19.8602  -14.1788 C   0  0  0  0  0  0  0  0  0  0  0  0
   28.3880  -20.3572  -13.2835 C   0  0  2  0  0  0  0  0  0  0  0  0
   28.4955  -21.5328  -14.1269 N   0  0  0  0  0  0  0  0  0  0  0  0
   27.9212  -20.7797  -11.9598 C   0  0  0  0  0  0  0  0  0  0  0  0
   27.2730  -21.8762  -11.8332 O   0  0  0  0  0  0  0  0  0  0  0  0
   28.1259  -20.0656  -10.7640 N   0  0  0  0  0  0  0  0  0  0  0  0
   27.7233  -20.5662   -9.4351 C   0  0  1  0  0  0  0  0  0  0  0  0
   28.5877  -19.9776   -8.3828 C   0  0  0  0  0  0  0  0  0  0  0  0
   28.1633  -20.1385   -6.9880 C   0  0  0  0  0  0  0  0  0  0  0  0
   28.5736  -21.2228   -6.2178 C   0  0  0  0  0  0  0  0  0  0  0  0
   28.1799  -21.3864   -4.9028 C   0  0  0  0  0  0  0  0  0  0  0  0
   27.3563  -20.4659   -4.3062 C   0  0  0  0  0  0  0  0  0  0  0  0
   26.9381  -19.3927   -5.0366 C   0  0  0  0  0  0  0  0  0  0  0  0
   27.3381  -19.2451   -6.3406 C   0  0  0  0  0  0  0  0  0  0  0  0
   26.2932  -20.2285   -9.3300 C   0  0  0  0  0  0  0  0  0  0  0  0
   25.8520  -19.0694   -9.6766 O   0  0  0  0  0  0  0  0  0  0  0  0
   25.2632  -21.1019   -8.8605 N   0  0  0  0  0  0  0  0  0  0  0  0
   23.8582  -20.7184   -8.9621 C   0  0  1  0  0  0  0  0  0  0  0  0
   23.2762  -21.1955  -10.2934 C   0  0  0  0  0  0  0  0  0  0  0  0
   21.8472  -20.8991  -10.4231 C   0  0  0  0  0  0  0  0  0  0  0  0
   21.3978  -19.7430  -10.4524 O   0  0  0  0  0  0  0  0  0  0  0  0
   23.0314  -21.1957   -7.8427 C   0  0  0  0  0  0  0  0  0  0  0  0
   21.7407  -20.6890   -7.6102 O   0  0  0  0  0  0  0  0  0  0  0  0
   20.9411  -21.9459  -10.5186 O   0  0  0  0  0  0  0  0  0  0  0  0
   23.4258  -22.0691   -7.0440 O   0  0  0  0  0  0  0  0  0  0  0  0
  2  1  1  6
  2  3  1  0
  4  2  1  0
  4  5  1  6
  6  7  2  0
  6  4  1  0
  8  6  1  0
  9 10  1  1
  9  8  1  0
 11 10  1  0
 11 12  2  0
 13 12  1  0
 14 13  2  0
 15 16  2  0
 15 14  1  0
 16 11  1  0
 17  9  1  0
 18 17  2  0
 19 17  1  0
 20 24  1  0
 20 19  1  0
 20 21  1  6
 22 23  2  0
 22 21  1  0
 24 25  1  0
 26 22  1  0
 27 24  2  0
M  END
$$$$
