VFD.pdb
     RDKit          3D

 27 27  0  0  1  0  0  0  0  0999 V2000
   26.4423  -18.7674  -13.4587 C   0  0  0  0  0  0  0  0  0  0  0  0
   27.1353  -19.8064  -14.2743 C   0  0  1  0  0  0  0  0  0  0  0  0
   27.4801  -19.2499  -15.6336 C   0  0  0  0  0  0  0  0  0  0  0  0
   28.3578  -20.3737  -13.5841 C   0  0  2  0  0  0  0  0  0  0  0  0
   28.9056  -21.4959  -14.3227 N   0  0  0  0  0  0  0  0  0  0  0  0
   28.0783  -20.8147  -12.2145 C   0  0  0  0  0  0  0  0  0  0  0  0
   27.5467  -21.9612  -12.0105 O   0  0  0  0  0  0  0  0  0  0  0  0
   28.3495  -20.0672  -11.0527 N   0  0  0  0  0  0  0  0  0  0  0  0
   27.9900  -20.5133   -9.6925 C   0  0  1  0  0  0  0  0  0  0  0  0
   28.8489  -19.8385   -8.6886 C   0  0  0  0  0  0  0  0  0  0  0  0
   28.4281  -19.9002   -7.2847 C   0  0  0  0  0  0  0  0  0  0  0  0
   28.8568  -20.9163   -6.4355 C   0  0  0  0  0  0  0  0  0  0  0  0
   28.4666  -20.9862   -5.1112 C   0  0  0  0  0  0  0  0  0  0  0  0
   27.6284  -20.0369   -4.5844 C   0  0  0  0  0  0  0  0  0  0  0  0
   27.1920  -19.0290   -5.3931 C   0  0  0  0  0  0  0  0  0  0  0  0
   27.5887  -18.9741   -6.7053 C   0  0  0  0  0  0  0  0  0  0  0  0
   26.5499  -20.2255   -9.5771 C   0  0  0  0  0  0  0  0  0  0  0  0
   26.0853  -19.0421   -9.7823 O   0  0  0  0  0  0  0  0  0  0  0  0
   25.5342  -21.1758   -9.2464 N   0  0  0  0  0  0  0  0  0  0  0  0
   24.1356  -20.7679   -9.1506 C   0  0  1  0  0  0  0  0  0  0  0  0
   23.3080  -21.4635  -10.2322 C   0  0  0  0  0  0  0  0  0  0  0  0
   22.6688  -20.5168  -11.1498 C   0  0  0  0  0  0  0  0  0  0  0  0
   22.7656  -19.2862  -11.0250 O   0  0  0  0  0  0  0  0  0  0  0  0
   23.5408  -20.9984   -7.8248 C   0  0  0  0  0  0  0  0  0  0  0  0
   22.4475  -20.2431   -7.3653 O   0  0  0  0  0  0  0  0  0  0  0  0
   21.9176  -21.0002  -12.2118 O   0  0  0  0  0  0  0  0  0  0  0  0
   23.9693  -21.8691   -7.0411 O   0  0  0  0  0  0  0  0  0  0  0  0
  2  1  1  1
  2  3  1  0
  4  2  1  0
  4  5  1  6
  6  7  2  0
  6  4  1  0
  8  6  1  0
  9 10  1  1
  9  8  1  0
 11 10  1  0
 11 12  2  0
 13 12  1  0
 14 13  2  0
 15 16  2  0
 15 14  1  0
 16 11  1  0
 17  9  1  0
 18 17  2  0
 19 17  1  0
 20 24  1  0
 20 19  1  0
 20 21  1  6
 22 23  2  0
 22 21  1  0
 24 25  1  0
 26 22  1  0
 27 24  2  0
M  END
$$$$
