VFD.pdb
     RDKit          3D

 27 27  0  0  1  0  0  0  0  0999 V2000
   27.6554  -19.8027  -18.1949 C   0  0  0  0  0  0  0  0  0  0  0  0
   26.8413  -20.1277  -16.9879 C   0  0  1  0  0  0  0  0  0  0  0  0
   25.4536  -20.5520  -17.4008 C   0  0  0  0  0  0  0  0  0  0  0  0
   27.4957  -21.1672  -16.1025 C   0  0  2  0  0  0  0  0  0  0  0  0
   27.5792  -22.4514  -16.7725 N   0  0  0  0  0  0  0  0  0  0  0  0
   26.7865  -21.3539  -14.8333 C   0  0  0  0  0  0  0  0  0  0  0  0
   26.0914  -22.4115  -14.6417 O   0  0  0  0  0  0  0  0  0  0  0  0
   26.7966  -20.4434  -13.7596 N   0  0  0  0  0  0  0  0  0  0  0  0
   26.1327  -20.6989  -12.4664 C   0  0  1  0  0  0  0  0  0  0  0  0
   27.0844  -20.4785  -11.3499 C   0  0  0  0  0  0  0  0  0  0  0  0
   26.5485  -20.5139   -9.9848 C   0  0  0  0  0  0  0  0  0  0  0  0
   25.3580  -21.1684   -9.6819 C   0  0  0  0  0  0  0  0  0  0  0  0
   24.8421  -21.2080   -8.4001 C   0  0  0  0  0  0  0  0  0  0  0  0
   25.5017  -20.5909   -7.3679 C   0  0  0  0  0  0  0  0  0  0  0  0
   26.6711  -19.9416   -7.6348 C   0  0  0  0  0  0  0  0  0  0  0  0
   27.1696  -19.9116   -8.9126 C   0  0  0  0  0  0  0  0  0  0  0  0
   24.9584  -19.8094  -12.4711 C   0  0  0  0  0  0  0  0  0  0  0  0
   24.7349  -18.9909  -11.5023 O   0  0  0  0  0  0  0  0  0  0  0  0
   23.9706  -19.7391  -13.5023 N   0  0  0  0  0  0  0  0  0  0  0  0
   22.6735  -20.3884  -13.3363 C   0  0  1  0  0  0  0  0  0  0  0  0
   22.8133  -21.9003  -13.5185 C   0  0  0  0  0  0  0  0  0  0  0  0
   22.1731  -22.3824  -14.7451 C   0  0  0  0  0  0  0  0  0  0  0  0
   22.6290  -22.1585  -15.8771 O   0  0  0  0  0  0  0  0  0  0  0  0
   22.0200  -20.0868  -12.0531 C   0  0  0  0  0  0  0  0  0  0  0  0
   21.9619  -21.0326  -11.0144 O   0  0  0  0  0  0  0  0  0  0  0  0
   21.0036  -23.1243  -14.6558 O   0  0  0  0  0  0  0  0  0  0  0  0
   21.4855  -18.9847  -11.8168 O   0  0  0  0  0  0  0  0  0  0  0  0
  2  1  1  6
  2  3  1  0
  4  2  1  0
  4  5  1  6
  6  7  2  0
  6  4  1  0
  8  6  1  0
  9 10  1  1
  9  8  1  0
 11 10  1  0
 11 12  2  0
 13 12  1  0
 14 13  2  0
 15 16  2  0
 15 14  1  0
 16 11  1  0
 17  9  1  0
 18 17  2  0
 19 17  1  0
 20 24  1  0
 20 19  1  0
 20 21  1  1
 22 23  2  0
 22 21  1  0
 24 25  1  0
 26 22  1  0
 27 24  2  0
M  END
$$$$
