VFD.pdb
     RDKit          3D

 27 27  0  0  1  0  0  0  0  0999 V2000
   25.6010  -20.4379  -17.5666 C   0  0  0  0  0  0  0  0  0  0  0  0
   26.5892  -21.4960  -17.9255 C   0  0  1  0  0  0  0  0  0  0  0  0
   27.1467  -21.2351  -19.3030 C   0  0  0  0  0  0  0  0  0  0  0  0
   27.6947  -21.6369  -16.9005 C   0  0  2  0  0  0  0  0  0  0  0  0
   28.5795  -22.7388  -17.2291 N   0  0  0  0  0  0  0  0  0  0  0  0
   27.1819  -21.8455  -15.5432 C   0  0  0  0  0  0  0  0  0  0  0  0
   26.6794  -22.9774  -15.2193 O   0  0  0  0  0  0  0  0  0  0  0  0
   27.1891  -20.8802  -14.5185 N   0  0  0  0  0  0  0  0  0  0  0  0
   26.7113  -21.1422  -13.1468 C   0  0  1  0  0  0  0  0  0  0  0  0
   27.5092  -20.3624  -12.1690 C   0  0  0  0  0  0  0  0  0  0  0  0
   27.0339  -20.3252  -10.7818 C   0  0  0  0  0  0  0  0  0  0  0  0
   25.9971  -19.4857  -10.3848 C   0  0  0  0  0  0  0  0  0  0  0  0
   25.5409  -19.4406   -9.0807 C   0  0  0  0  0  0  0  0  0  0  0  0
   26.1082  -20.2383   -8.1199 C   0  0  0  0  0  0  0  0  0  0  0  0
   27.1264  -21.0714   -8.4796 C   0  0  0  0  0  0  0  0  0  0  0  0
   27.5675  -21.1041   -9.7783 C   0  0  0  0  0  0  0  0  0  0  0  0
   25.2758  -20.8132  -13.1857 C   0  0  0  0  0  0  0  0  0  0  0  0
   24.8547  -19.7162  -13.7124 O   0  0  0  0  0  0  0  0  0  0  0  0
   24.2196  -21.6312  -12.6763 N   0  0  0  0  0  0  0  0  0  0  0  0
   22.8348  -21.1706  -12.7187 C   0  0  1  0  0  0  0  0  0  0  0  0
   21.9204  -22.2932  -13.2112 C   0  0  0  0  0  0  0  0  0  0  0  0
   20.5142  -21.8875  -13.2773 C   0  0  0  0  0  0  0  0  0  0  0  0
   20.1575  -20.7326  -13.5575 O   0  0  0  0  0  0  0  0  0  0  0  0
   22.3473  -20.6404  -11.4358 C   0  0  0  0  0  0  0  0  0  0  0  0
   21.3374  -19.6639  -11.3770 O   0  0  0  0  0  0  0  0  0  0  0  0
   19.5230  -22.8235  -13.0179 O   0  0  0  0  0  0  0  0  0  0  0  0
   22.7987  -21.0241  -10.3380 O   0  0  0  0  0  0  0  0  0  0  0  0
  2  1  1  1
  2  3  1  0
  4  2  1  0
  4  5  1  6
  6  7  2  0
  6  4  1  0
  8  6  1  0
  9 10  1  1
  9  8  1  0
 11 10  1  0
 11 12  2  0
 13 12  1  0
 14 13  2  0
 15 16  2  0
 15 14  1  0
 16 11  1  0
 17  9  1  0
 18 17  2  0
 19 17  1  0
 20 24  1  0
 20 19  1  0
 20 21  1  1
 22 23  2  0
 22 21  1  0
 24 25  1  0
 26 22  1  0
 27 24  2  0
M  END
$$$$
