VFD.pdb
     RDKit          3D

 27 27  0  0  1  0  0  0  0  0999 V2000
   24.0759  -21.1737  -17.0614 C   0  0  0  0  0  0  0  0  0  0  0  0
   25.1165  -22.1278  -17.5429 C   0  0  1  0  0  0  0  0  0  0  0  0
   25.3447  -21.9386  -19.0222 C   0  0  0  0  0  0  0  0  0  0  0  0
   26.4123  -22.0220  -16.7668 C   0  0  2  0  0  0  0  0  0  0  0  0
   27.3626  -23.0337  -17.1892 N   0  0  0  0  0  0  0  0  0  0  0  0
   26.2149  -22.1495  -15.3199 C   0  0  0  0  0  0  0  0  0  0  0  0
   26.0115  -23.3033  -14.8041 O   0  0  0  0  0  0  0  0  0  0  0  0
   26.2280  -21.0801  -14.4044 N   0  0  0  0  0  0  0  0  0  0  0  0
   26.0245  -21.2463  -12.9520 C   0  0  1  0  0  0  0  0  0  0  0  0
   26.9349  -20.3473  -12.2012 C   0  0  0  0  0  0  0  0  0  0  0  0
   26.7703  -20.2772  -10.7453 C   0  0  0  0  0  0  0  0  0  0  0  0
   27.4802  -21.1115   -9.8867 C   0  0  0  0  0  0  0  0  0  0  0  0
   27.3332  -21.0559   -8.5133 C   0  0  0  0  0  0  0  0  0  0  0  0
   26.4656  -20.1585   -7.9448 C   0  0  0  0  0  0  0  0  0  0  0  0
   25.7562  -19.3279   -8.7614 C   0  0  0  0  0  0  0  0  0  0  0  0
   25.9137  -19.3958  -10.1226 C   0  0  0  0  0  0  0  0  0  0  0  0
   24.5877  -20.9925  -12.7481 C   0  0  0  0  0  0  0  0  0  0  0  0
   23.9653  -20.0895  -13.4230 O   0  0  0  0  0  0  0  0  0  0  0  0
   23.7417  -21.6854  -11.8271 N   0  0  0  0  0  0  0  0  0  0  0  0
   22.3338  -21.3231  -11.6919 C   0  0  1  0  0  0  0  0  0  0  0  0
   21.6547  -22.2223  -10.6580 C   0  0  0  0  0  0  0  0  0  0  0  0
   20.1986  -22.0615  -10.6401 C   0  0  0  0  0  0  0  0  0  0  0  0
   19.5941  -21.3010  -11.4119 O   0  0  0  0  0  0  0  0  0  0  0  0
   22.1161  -19.9067  -11.3588 C   0  0  0  0  0  0  0  0  0  0  0  0
   22.7997  -19.2844  -10.2995 O   0  0  0  0  0  0  0  0  0  0  0  0
   19.4454  -22.7843   -9.7256 O   0  0  0  0  0  0  0  0  0  0  0  0
   21.3198  -19.1849  -11.9920 O   0  0  0  0  0  0  0  0  0  0  0  0
  2  1  1  1
  2  3  1  0
  4  2  1  0
  4  5  1  6
  6  7  2  0
  6  4  1  0
  8  6  1  0
  9 10  1  1
  9  8  1  0
 11 10  1  0
 11 12  2  0
 13 12  1  0
 14 13  2  0
 15 16  2  0
 15 14  1  0
 16 11  1  0
 17  9  1  0
 18 17  2  0
 19 17  1  0
 20 24  1  0
 20 19  1  0
 20 21  1  1
 22 23  2  0
 22 21  1  0
 24 25  1  0
 26 22  1  0
 27 24  2  0
M  END
$$$$
