VFD.pdb
     RDKit          3D

 27 27  0  0  1  0  0  0  0  0999 V2000
   25.3708  -17.3111  -18.4022 C   0  0  0  0  0  0  0  0  0  0  0  0
   26.5220  -17.9703  -19.0842 C   0  0  1  0  0  0  0  0  0  0  0  0
   27.0139  -17.1052  -20.2180 C   0  0  0  0  0  0  0  0  0  0  0  0
   27.6447  -18.3214  -18.1308 C   0  0  2  0  0  0  0  0  0  0  0  0
   28.7400  -18.9723  -18.8248 N   0  0  0  0  0  0  0  0  0  0  0  0
   27.2051  -19.1957  -17.0395 C   0  0  0  0  0  0  0  0  0  0  0  0
   27.1259  -20.4593  -17.2283 O   0  0  0  0  0  0  0  0  0  0  0  0
   26.8464  -18.7612  -15.7493 N   0  0  0  0  0  0  0  0  0  0  0  0
   26.4147  -19.6725  -14.6716 C   0  0  1  0  0  0  0  0  0  0  0  0
   27.1393  -19.3595  -13.4155 C   0  0  0  0  0  0  0  0  0  0  0  0
   26.6819  -20.0173  -12.1867 C   0  0  0  0  0  0  0  0  0  0  0  0
   25.9122  -19.3474  -11.2400 C   0  0  0  0  0  0  0  0  0  0  0  0
   25.4760  -19.9556  -10.0779 C   0  0  0  0  0  0  0  0  0  0  0  0
   25.7955  -21.2640   -9.8182 C   0  0  0  0  0  0  0  0  0  0  0  0
   26.5487  -21.9460  -10.7280 C   0  0  0  0  0  0  0  0  0  0  0  0
   26.9737  -21.3276  -11.8766 C   0  0  0  0  0  0  0  0  0  0  0  0
   24.9525  -19.5042  -14.6080 C   0  0  0  0  0  0  0  0  0  0  0  0
   24.4204  -18.3522  -14.3887 O   0  0  0  0  0  0  0  0  0  0  0  0
   23.9860  -20.5436  -14.7799 N   0  0  0  0  0  0  0  0  0  0  0  0
   22.5729  -20.2989  -14.5061 C   0  0  1  0  0  0  0  0  0  0  0  0
   21.7065  -20.9439  -15.5887 C   0  0  0  0  0  0  0  0  0  0  0  0
   20.2832  -20.6337  -15.4315 C   0  0  0  0  0  0  0  0  0  0  0  0
   19.8557  -19.8404  -14.5787 O   0  0  0  0  0  0  0  0  0  0  0  0
   22.1418  -20.7467  -13.1726 C   0  0  0  0  0  0  0  0  0  0  0  0
   21.3218  -19.9485  -12.3556 O   0  0  0  0  0  0  0  0  0  0  0  0
   19.3574  -21.2454  -16.2649 O   0  0  0  0  0  0  0  0  0  0  0  0
   22.4766  -21.8500  -12.6962 O   0  0  0  0  0  0  0  0  0  0  0  0
  2  1  1  1
  2  3  1  0
  4  2  1  0
  4  5  1  6
  6  7  2  0
  6  4  1  0
  8  6  1  0
  9 10  1  1
  9  8  1  0
 11 10  1  0
 11 12  2  0
 13 12  1  0
 14 13  2  0
 15 16  2  0
 15 14  1  0
 16 11  1  0
 17  9  1  0
 18 17  2  0
 19 17  1  0
 20 24  1  0
 20 19  1  0
 20 21  1  6
 22 23  2  0
 22 21  1  0
 24 25  1  0
 26 22  1  0
 27 24  2  0
M  END
$$$$
