VFD.pdb
     RDKit          3D

 27 27  0  0  1  0  0  0  0  0999 V2000
   24.1666  -12.7906  -15.2008 C   0  0  0  0  0  0  0  0  0  0  0  0
   23.2829  -11.6787  -15.6566 C   0  0  1  0  0  0  0  0  0  0  0  0
   24.0342  -10.7790  -16.6065 C   0  0  0  0  0  0  0  0  0  0  0  0
   21.9898  -12.1723  -16.2705 C   0  0  2  0  0  0  0  0  0  0  0  0
   22.2424  -12.9934  -17.4396 N   0  0  0  0  0  0  0  0  0  0  0  0
   21.0964  -11.0773  -16.6598 C   0  0  0  0  0  0  0  0  0  0  0  0
   21.1401  -10.6128  -17.8517 O   0  0  0  0  0  0  0  0  0  0  0  0
   20.1552  -10.4614  -15.8131 N   0  0  0  0  0  0  0  0  0  0  0  0
   19.3068   -9.3260  -16.2247 C   0  0  1  0  0  0  0  0  0  0  0  0
   17.8731   -9.6867  -16.1005 C   0  0  0  0  0  0  0  0  0  0  0  0
   17.2621  -10.4292  -17.2083 C   0  0  0  0  0  0  0  0  0  0  0  0
   15.9588  -10.9123  -17.1357 C   0  0  0  0  0  0  0  0  0  0  0  0
   15.3721  -11.6142  -18.1720 C   0  0  0  0  0  0  0  0  0  0  0  0
   16.0715  -11.8602  -19.3260 C   0  0  0  0  0  0  0  0  0  0  0  0
   17.3511  -11.3988  -19.4258 C   0  0  0  0  0  0  0  0  0  0  0  0
   17.9187  -10.7038  -18.3880 C   0  0  0  0  0  0  0  0  0  0  0  0
   19.7458   -8.2077  -15.3722 C   0  0  0  0  0  0  0  0  0  0  0  0
   20.2693   -8.4145  -14.2139 O   0  0  0  0  0  0  0  0  0  0  0  0
   19.6580   -6.8205  -15.7070 N   0  0  0  0  0  0  0  0  0  0  0  0
   20.1640   -5.8005  -14.7931 C   0  0  1  0  0  0  0  0  0  0  0  0
   21.6431   -6.0477  -14.4935 C   0  0  0  0  0  0  0  0  0  0  0  0
   22.2420   -4.9799  -13.6887 C   0  0  0  0  0  0  0  0  0  0  0  0
   22.0679   -4.8791  -12.4644 O   0  0  0  0  0  0  0  0  0  0  0  0
   19.9628   -4.4239  -15.2717 C   0  0  0  0  0  0  0  0  0  0  0  0
   19.4781   -4.1556  -16.5639 O   0  0  0  0  0  0  0  0  0  0  0  0
   23.0428   -4.0297  -14.3067 O   0  0  0  0  0  0  0  0  0  0  0  0
   20.2087   -3.4265  -14.5640 O   0  0  0  0  0  0  0  0  0  0  0  0
  2  1  1  6
  2  3  1  0
  4  2  1  0
  4  5  1  6
  6  7  2  0
  6  4  1  0
  8  6  1  0
  9 10  1  1
  9  8  1  0
 11 10  1  0
 11 12  2  0
 13 12  1  0
 14 13  2  0
 15 16  2  0
 15 14  1  0
 16 11  1  0
 17  9  1  0
 18 17  2  0
 19 17  1  0
 20 24  1  0
 20 19  1  0
 20 21  1  6
 22 23  2  0
 22 21  1  0
 24 25  1  0
 26 22  1  0
 27 24  2  0
M  END
$$$$
