VFD.pdb
     RDKit          3D

 27 27  0  0  1  0  0  0  0  0999 V2000
   33.3562   -0.3516    9.9178 C   0  0  0  0  0  0  0  0  0  0  0  0
   32.0529   -1.0700    9.8159 C   0  0  1  0  0  0  0  0  0  0  0  0
   31.2331   -0.8300   11.0595 C   0  0  0  0  0  0  0  0  0  0  0  0
   31.2794   -0.7056    8.5663 C   0  0  2  0  0  0  0  0  0  0  0  0
   30.8608    0.6832    8.5930 N   0  0  0  0  0  0  0  0  0  0  0  0
   30.0911   -1.5423    8.3746 C   0  0  0  0  0  0  0  0  0  0  0  0
   28.9784   -1.1997    8.9066 O   0  0  0  0  0  0  0  0  0  0  0  0
   30.0544   -2.7368    7.6305 N   0  0  0  0  0  0  0  0  0  0  0  0
   28.8162   -3.4944    7.3633 C   0  0  1  0  0  0  0  0  0  0  0  0
   28.4428   -3.3771    5.9323 C   0  0  0  0  0  0  0  0  0  0  0  0
   27.5391   -2.2852    5.5545 C   0  0  0  0  0  0  0  0  0  0  0  0
   28.0027   -1.1378    4.9173 C   0  0  0  0  0  0  0  0  0  0  0  0
   27.1616   -0.1016    4.5572 C   0  0  0  0  0  0  0  0  0  0  0  0
   25.8180   -0.1752    4.8226 C   0  0  0  0  0  0  0  0  0  0  0  0
   25.3348   -1.2878    5.4462 C   0  0  0  0  0  0  0  0  0  0  0  0
   26.1831   -2.3074    5.7971 C   0  0  0  0  0  0  0  0  0  0  0  0
   29.1133   -4.8627    7.8213 C   0  0  0  0  0  0  0  0  0  0  0  0
   30.2862   -5.3755    7.6810 O   0  0  0  0  0  0  0  0  0  0  0  0
   28.1871   -5.7490    8.4543 N   0  0  0  0  0  0  0  0  0  0  0  0
   28.6217   -7.0534    8.9457 C   0  0  1  0  0  0  0  0  0  0  0  0
   29.7248   -6.8823    9.9909 C   0  0  0  0  0  0  0  0  0  0  0  0
   30.1287   -8.1531   10.5981 C   0  0  0  0  0  0  0  0  0  0  0  0
   29.6310   -8.5874   11.6484 O   0  0  0  0  0  0  0  0  0  0  0  0
   27.5290   -7.8769    9.4861 C   0  0  0  0  0  0  0  0  0  0  0  0
   27.5584   -9.2808    9.4148 O   0  0  0  0  0  0  0  0  0  0  0  0
   31.1105   -8.9186    9.9849 O   0  0  0  0  0  0  0  0  0  0  0  0
   26.5239   -7.3802   10.0331 O   0  0  0  0  0  0  0  0  0  0  0  0
  2  1  1  1
  2  3  1  0
  4  2  1  0
  4  5  1  1
  6  7  2  0
  6  4  1  0
  8  6  1  0
  9 10  1  6
  9  8  1  0
 11 10  1  0
 11 12  2  0
 13 12  1  0
 14 13  2  0
 15 16  2  0
 15 14  1  0
 16 11  1  0
 17  9  1  0
 18 17  2  0
 19 17  1  0
 20 24  1  0
 20 19  1  0
 20 21  1  1
 22 23  2  0
 22 21  1  0
 24 25  1  0
 26 22  1  0
 27 24  2  0
M  END
$$$$
