VFD.pdb
     RDKit          3D

 27 27  0  0  1  0  0  0  0  0999 V2000
   16.4794   -9.9932  -18.3632 C   0  0  0  0  0  0  0  0  0  0  0  0
   16.7884   -9.0775  -17.2270 C   0  0  1  0  0  0  0  0  0  0  0  0
   15.7629   -7.9729  -17.1613 C   0  0  0  0  0  0  0  0  0  0  0  0
   16.9023   -9.8041  -15.9035 C   0  0  2  0  0  0  0  0  0  0  0  0
   15.6556  -10.4587  -15.5538 N   0  0  0  0  0  0  0  0  0  0  0  0
   17.2809   -8.9138  -14.8022 C   0  0  0  0  0  0  0  0  0  0  0  0
   16.3733   -8.3740  -14.0789 O   0  0  0  0  0  0  0  0  0  0  0  0
   18.6025   -8.5813  -14.4488 N   0  0  0  0  0  0  0  0  0  0  0  0
   18.9449   -7.6080  -13.3934 C   0  0  1  0  0  0  0  0  0  0  0  0
   19.9357   -8.1945  -12.4579 C   0  0  0  0  0  0  0  0  0  0  0  0
   20.4647   -7.3278  -11.3992 C   0  0  0  0  0  0  0  0  0  0  0  0
   21.7000   -6.6975  -11.5174 C   0  0  0  0  0  0  0  0  0  0  0  0
   22.2099   -5.8795  -10.5266 C   0  0  0  0  0  0  0  0  0  0  0  0
   21.4989   -5.6604   -9.3743 C   0  0  0  0  0  0  0  0  0  0  0  0
   20.2848   -6.2650   -9.2305 C   0  0  0  0  0  0  0  0  0  0  0  0
   19.7929   -7.0740  -10.2234 C   0  0  0  0  0  0  0  0  0  0  0  0
   19.4063   -6.4155  -14.1252 C   0  0  0  0  0  0  0  0  0  0  0  0
   20.1858   -6.5163  -15.1453 O   0  0  0  0  0  0  0  0  0  0  0  0
   19.0599   -5.0631  -13.8170 N   0  0  0  0  0  0  0  0  0  0  0  0
   19.6464   -3.9552  -14.5655 C   0  0  1  0  0  0  0  0  0  0  0  0
   18.6544   -2.7948  -14.6542 C   0  0  0  0  0  0  0  0  0  0  0  0
   17.4148   -3.1635  -15.3427 C   0  0  0  0  0  0  0  0  0  0  0  0
   17.3943   -3.8633  -16.3670 O   0  0  0  0  0  0  0  0  0  0  0  0
   20.9317   -3.4883  -14.0227 C   0  0  0  0  0  0  0  0  0  0  0  0
   21.4605   -4.0081  -12.8281 O   0  0  0  0  0  0  0  0  0  0  0  0
   16.1996   -2.7191  -14.8408 O   0  0  0  0  0  0  0  0  0  0  0  0
   21.6182   -2.6128  -14.5869 O   0  0  0  0  0  0  0  0  0  0  0  0
  2  1  1  6
  2  3  1  0
  4  2  1  0
  4  5  1  1
  6  7  2  0
  6  4  1  0
  8  6  1  0
  9 10  1  1
  9  8  1  0
 11 10  1  0
 11 12  2  0
 13 12  1  0
 14 13  2  0
 15 16  2  0
 15 14  1  0
 16 11  1  0
 17  9  1  0
 18 17  2  0
 19 17  1  0
 20 24  1  0
 20 19  1  0
 20 21  1  1
 22 23  2  0
 22 21  1  0
 24 25  1  0
 26 22  1  0
 27 24  2  0
M  END
$$$$
