VFD.pdb
     RDKit          3D

 27 27  0  0  1  0  0  0  0  0999 V2000
   25.5873  -16.6960  -17.6095 C   0  0  0  0  0  0  0  0  0  0  0  0
   26.4719  -17.4769  -18.5219 C   0  0  1  0  0  0  0  0  0  0  0  0
   27.0439  -16.5721  -19.5850 C   0  0  0  0  0  0  0  0  0  0  0  0
   27.5651  -18.2201  -17.7834 C   0  0  2  0  0  0  0  0  0  0  0  0
   28.3482  -19.0398  -18.6889 N   0  0  0  0  0  0  0  0  0  0  0  0
   27.0416  -19.0801  -16.7179 C   0  0  0  0  0  0  0  0  0  0  0  0
   26.5129  -20.2082  -17.0120 O   0  0  0  0  0  0  0  0  0  0  0  0
   27.0654  -18.7717  -15.3445 N   0  0  0  0  0  0  0  0  0  0  0  0
   26.5482  -19.6731  -14.2964 C   0  0  1  0  0  0  0  0  0  0  0  0
   27.2661  -19.4386  -13.0195 C   0  0  0  0  0  0  0  0  0  0  0  0
   26.7149  -20.0557  -11.8083 C   0  0  0  0  0  0  0  0  0  0  0  0
   26.0790  -19.3016  -10.8263 C   0  0  0  0  0  0  0  0  0  0  0  0
   25.5564  -19.8709   -9.6801 C   0  0  0  0  0  0  0  0  0  0  0  0
   25.6511  -21.2234   -9.4727 C   0  0  0  0  0  0  0  0  0  0  0  0
   26.2691  -21.9881  -10.4181 C   0  0  0  0  0  0  0  0  0  0  0  0
   26.7825  -21.4074  -11.5501 C   0  0  0  0  0  0  0  0  0  0  0  0
   25.1004  -19.4035  -14.2578 C   0  0  0  0  0  0  0  0  0  0  0  0
   24.6459  -18.2060  -14.1245 O   0  0  0  0  0  0  0  0  0  0  0  0
   24.0669  -20.3857  -14.3649 N   0  0  0  0  0  0  0  0  0  0  0  0
   22.6739  -20.0316  -14.1084 C   0  0  1  0  0  0  0  0  0  0  0  0
   21.8773  -20.0451  -15.4137 C   0  0  0  0  0  0  0  0  0  0  0  0
   20.4624  -19.7209  -15.2146 C   0  0  0  0  0  0  0  0  0  0  0  0
   19.5569  -20.1895  -15.9216 O   0  0  0  0  0  0  0  0  0  0  0  0
   22.0215  -20.8847  -13.1028 C   0  0  0  0  0  0  0  0  0  0  0  0
   21.0180  -20.3876  -12.2527 O   0  0  0  0  0  0  0  0  0  0  0  0
   20.1003  -18.8526  -14.1944 O   0  0  0  0  0  0  0  0  0  0  0  0
   22.3193  -22.0863  -12.9496 O   0  0  0  0  0  0  0  0  0  0  0  0
  2  1  1  1
  2  3  1  0
  4  2  1  0
  4  5  1  6
  6  7  2  0
  6  4  1  0
  8  6  1  0
  9 10  1  1
  9  8  1  0
 11 10  1  0
 11 12  2  0
 13 12  1  0
 14 13  2  0
 15 16  2  0
 15 14  1  0
 16 11  1  0
 17  9  1  0
 18 17  2  0
 19 17  1  0
 20 24  1  0
 20 19  1  0
 20 21  1  6
 22 23  2  0
 22 21  1  0
 24 25  1  0
 26 22  1  0
 27 24  2  0
M  END
$$$$
