FPA.pdb
     RDKit          3D

 24 25  0  0  1  0  0  0  0  0999 V2000
    9.8588  -14.7514   21.6987 N   0  0  0  0  0  0  0  0  0  0  0  0
    8.9820  -14.2494   22.6970 C   0  0  1  0  0  0  0  0  0  0  0  0
    7.5199  -14.4660   22.3786 C   0  0  0  0  0  0  0  0  0  0  0  0
    7.1761  -14.0262   21.0113 C   0  0  0  0  0  0  0  0  0  0  0  0
    7.1411  -12.6817   20.7210 C   0  0  0  0  0  0  0  0  0  0  0  0
    6.8164  -12.2358   19.4332 C   0  0  0  0  0  0  0  0  0  0  0  0
    6.5278  -13.1265   18.4389 C   0  0  0  0  0  0  0  0  0  0  0  0
    6.5609  -14.4805   18.7227 C   0  0  0  0  0  0  0  0  0  0  0  0
    6.8817  -14.9083   19.9937 C   0  0  0  0  0  0  0  0  0  0  0  0
    9.3486  -14.7828   24.0215 C   0  0  0  0  0  0  0  0  0  0  0  0
   10.3711  -15.5682   24.0918 O   0  0  0  0  0  0  0  0  0  0  0  0
    8.6869  -14.5212   25.2459 N   0  0  0  0  0  0  0  0  0  0  0  0
    7.3111  -14.2473   25.5553 C   0  0  0  0  0  0  0  0  0  0  0  0
    7.3628  -13.4043   26.8248 C   0  0  0  0  0  0  0  0  0  0  0  0
    8.8444  -13.2208   27.1157 C   0  0  0  0  0  0  0  0  0  0  0  0
    9.3785  -14.5075   26.5216 C   0  0  1  0  0  0  0  0  0  0  0  0
    8.9561  -15.6566   27.3721 C   0  0  0  0  0  0  0  0  0  0  0  0
    7.7820  -16.0591   27.4693 O   0  0  0  0  0  0  0  0  0  0  0  0
   11.0326  -18.4864   27.8081 C   0  0  0  0  0  0  0  0  0  0  0  0
    9.8572  -17.7358   28.4093 C   0  0  2  0  0  0  0  0  0  0  0  0
    9.9663  -16.3248   28.1122 N   0  0  0  0  0  0  0  0  0  0  0  0
    9.8629  -17.9135   29.8791 C   0  0  0  0  0  0  0  0  0  0  0  0
   10.0158  -16.9284   30.6449 O   0  0  0  0  0  0  0  0  0  0  0  0
    9.7025  -19.1552   30.4793 O   0  0  0  0  0  0  0  0  0  0  0  0
  2  1  1  6
  2 10  1  0
  3  2  1  0
  4  3  1  0
  5  4  2  0
  6  5  1  0
  7  6  2  0
  7  8  1  0
  8  9  2  0
  9  4  1  0
 10 12  1  0
 11 10  2  0
 12 13  1  0
 12 16  1  0
 13 14  1  0
 15 14  1  0
 16 15  1  0
 17 21  1  0
 16 17  1  1
 18 17  2  0
 20 19  1  6
 20 22  1  0
 20 21  1  0
 22 24  1  0
 23 22  2  0
M  END
$$$$
