FPA.pdb
     RDKit          3D

 24 25  0  0  1  0  0  0  0  0999 V2000
    5.5562  -17.5141   25.3866 N   0  0  0  0  0  0  0  0  0  0  0  0
    6.3548  -16.3760   25.0962 C   0  0  1  0  0  0  0  0  0  0  0  0
    7.1417  -15.8732   26.2853 C   0  0  0  0  0  0  0  0  0  0  0  0
    7.0037  -14.4143   26.4686 C   0  0  0  0  0  0  0  0  0  0  0  0
    5.7482  -13.8595   26.5644 C   0  0  0  0  0  0  0  0  0  0  0  0
    5.5873  -12.4785   26.7367 C   0  0  0  0  0  0  0  0  0  0  0  0
    6.6734  -11.6540   26.8133 C   0  0  0  0  0  0  0  0  0  0  0  0
    7.9396  -12.2042   26.7179 C   0  0  0  0  0  0  0  0  0  0  0  0
    8.0863  -13.5647   26.5483 C   0  0  0  0  0  0  0  0  0  0  0  0
    7.2154  -16.6339   23.9275 C   0  0  0  0  0  0  0  0  0  0  0  0
    7.3606  -17.8589   23.5459 O   0  0  0  0  0  0  0  0  0  0  0  0
    7.9122  -15.6643   23.1660 N   0  0  0  0  0  0  0  0  0  0  0  0
    8.0948  -14.2508   23.3456 C   0  0  0  0  0  0  0  0  0  0  0  0
    8.2941  -13.7065   21.9353 C   0  0  0  0  0  0  0  0  0  0  0  0
    8.1513  -14.9148   21.0228 C   0  0  0  0  0  0  0  0  0  0  0  0
    8.6465  -15.9971   21.9593 C   0  0  1  0  0  0  0  0  0  0  0  0
   10.1144  -15.8384   22.1649 C   0  0  0  0  0  0  0  0  0  0  0  0
   10.6238  -15.0521   22.9849 O   0  0  0  0  0  0  0  0  0  0  0  0
   12.5198  -18.4888   21.0627 C   0  0  0  0  0  0  0  0  0  0  0  0
   12.0922  -17.3407   21.9601 C   0  0  2  0  0  0  0  0  0  0  0  0
   10.9738  -16.6401   21.3690 N   0  0  0  0  0  0  0  0  0  0  0  0
   13.2193  -16.3929   22.1130 C   0  0  0  0  0  0  0  0  0  0  0  0
   14.2300  -16.7009   22.7938 O   0  0  0  0  0  0  0  0  0  0  0  0
   13.2199  -15.1359   21.5233 O   0  0  0  0  0  0  0  0  0  0  0  0
  2  1  1  1
  2 10  1  0
  3  2  1  0
  4  3  1  0
  5  4  2  0
  6  5  1  0
  7  6  2  0
  7  8  1  0
  8  9  2  0
  9  4  1  0
 10 12  1  0
 11 10  2  0
 12 13  1  0
 12 16  1  0
 13 14  1  0
 15 14  1  0
 16 15  1  0
 17 21  1  0
 16 17  1  1
 18 17  2  0
 20 19  1  6
 20 22  1  0
 20 21  1  0
 22 24  1  0
 23 22  2  0
M  END
$$$$
