FPA.pdb
     RDKit          3D

 24 25  0  0  1  0  0  0  0  0999 V2000
    6.1515  -16.5891   25.6417 N   0  0  0  0  0  0  0  0  0  0  0  0
    6.6213  -15.5337   24.8155 C   0  0  1  0  0  0  0  0  0  0  0  0
    7.7059  -14.7009   25.4606 C   0  0  0  0  0  0  0  0  0  0  0  0
    7.1533  -13.5940   26.2672 C   0  0  0  0  0  0  0  0  0  0  0  0
    7.9860  -12.8795   27.0972 C   0  0  0  0  0  0  0  0  0  0  0  0
    7.4889  -11.8256   27.8751 C   0  0  0  0  0  0  0  0  0  0  0  0
    6.1670  -11.4855   27.8255 C   0  0  0  0  0  0  0  0  0  0  0  0
    5.3229  -12.1992   26.9931 C   0  0  0  0  0  0  0  0  0  0  0  0
    5.8230  -13.2346   26.2319 C   0  0  0  0  0  0  0  0  0  0  0  0
    7.0274  -16.0522   23.4966 C   0  0  0  0  0  0  0  0  0  0  0  0
    6.6667  -17.2523   23.1850 O   0  0  0  0  0  0  0  0  0  0  0  0
    7.7845  -15.3625   22.5186 N   0  0  0  0  0  0  0  0  0  0  0  0
    8.3416  -14.0387   22.4920 C   0  0  0  0  0  0  0  0  0  0  0  0
    8.3977  -13.6747   21.0123 C   0  0  0  0  0  0  0  0  0  0  0  0
    7.7900  -14.8673   20.2900 C   0  0  0  0  0  0  0  0  0  0  0  0
    8.1708  -15.9682   21.2578 C   0  0  1  0  0  0  0  0  0  0  0  0
    9.6439  -16.1894   21.1990 C   0  0  0  0  0  0  0  0  0  0  0  0
   10.2702  -16.4468   20.1542 O   0  0  0  0  0  0  0  0  0  0  0  0
   12.4691  -15.3430   23.3698 C   0  0  0  0  0  0  0  0  0  0  0  0
   11.7888  -16.3488   22.4578 C   0  0  2  0  0  0  0  0  0  0  0  0
   10.3652  -16.0977   22.4179 N   0  0  0  0  0  0  0  0  0  0  0  0
   12.0156  -17.7153   22.9805 C   0  0  0  0  0  0  0  0  0  0  0  0
   13.1767  -18.1916   23.0517 O   0  0  0  0  0  0  0  0  0  0  0  0
   10.9766  -18.5290   23.4120 O   0  0  0  0  0  0  0  0  0  0  0  0
  2  1  1  1
  2 10  1  0
  3  2  1  0
  4  3  1  0
  5  4  2  0
  6  5  1  0
  7  6  2  0
  7  8  1  0
  8  9  2  0
  9  4  1  0
 10 12  1  0
 11 10  2  0
 12 13  1  0
 12 16  1  0
 13 14  1  0
 15 14  1  0
 16 15  1  0
 17 21  1  0
 16 17  1  1
 18 17  2  0
 20 19  1  1
 20 22  1  0
 20 21  1  0
 22 24  1  0
 23 22  2  0
M  END
$$$$
