FPA.pdb
     RDKit          3D

 24 25  0  0  1  0  0  0  0  0999 V2000
    5.5455  -17.9116   25.5490 N   0  0  0  0  0  0  0  0  0  0  0  0
    6.2206  -16.6742   25.3750 C   0  0  1  0  0  0  0  0  0  0  0  0
    6.7790  -16.1067   26.6604 C   0  0  0  0  0  0  0  0  0  0  0  0
    6.8983  -14.6355   26.6146 C   0  0  0  0  0  0  0  0  0  0  0  0
    5.7606  -13.8624   26.6434 C   0  0  0  0  0  0  0  0  0  0  0  0
    5.8438  -12.4646   26.5994 C   0  0  0  0  0  0  0  0  0  0  0  0
    7.0563  -11.8400   26.5271 C   0  0  0  0  0  0  0  0  0  0  0  0
    8.2054  -12.6104   26.4979 C   0  0  0  0  0  0  0  0  0  0  0  0
    8.1118  -13.9855   26.5416 C   0  0  0  0  0  0  0  0  0  0  0  0
    7.2485  -16.7904   24.3246 C   0  0  0  0  0  0  0  0  0  0  0  0
    7.8315  -17.9331   24.1771 O   0  0  0  0  0  0  0  0  0  0  0  0
    7.6721  -15.7642   23.4455 N   0  0  0  0  0  0  0  0  0  0  0  0
    7.3367  -14.3698   23.3635 C   0  0  0  0  0  0  0  0  0  0  0  0
    7.5316  -14.0130   21.8939 C   0  0  0  0  0  0  0  0  0  0  0  0
    7.9353  -15.3165   21.2223 C   0  0  0  0  0  0  0  0  0  0  0  0
    8.6347  -15.9916   22.3837 C   0  0  1  0  0  0  0  0  0  0  0  0
    9.9180  -15.2868   22.6642 C   0  0  0  0  0  0  0  0  0  0  0  0
   10.0289  -14.3214   23.4425 O   0  0  0  0  0  0  0  0  0  0  0  0
   11.9253  -16.5705   24.1217 C   0  0  0  0  0  0  0  0  0  0  0  0
   12.2819  -16.0731   22.7318 C   0  0  2  0  0  0  0  0  0  0  0  0
   11.0785  -15.7563   21.9952 N   0  0  0  0  0  0  0  0  0  0  0  0
   13.0178  -17.1332   22.0062 C   0  0  0  0  0  0  0  0  0  0  0  0
   12.3997  -18.0419   21.3959 O   0  0  0  0  0  0  0  0  0  0  0  0
   14.4047  -17.1796   21.9619 O   0  0  0  0  0  0  0  0  0  0  0  0
  2  1  1  1
  2 10  1  0
  3  2  1  0
  4  3  1  0
  5  4  2  0
  6  5  1  0
  7  6  2  0
  7  8  1  0
  8  9  2  0
  9  4  1  0
 10 12  1  0
 11 10  2  0
 12 13  1  0
 12 16  1  0
 13 14  1  0
 15 14  1  0
 16 15  1  0
 17 21  1  0
 16 17  1  1
 18 17  2  0
 20 19  1  1
 20 22  1  0
 20 21  1  0
 22 24  1  0
 23 22  2  0
M  END
$$$$
