FPA.pdb
     RDKit          3D

 24 25  0  0  1  0  0  0  0  0999 V2000
    6.8331  -16.7331   26.1790 N   0  0  0  0  0  0  0  0  0  0  0  0
    6.2119  -16.4064   24.9441 C   0  0  1  0  0  0  0  0  0  0  0  0
    5.7085  -14.9821   24.8814 C   0  0  0  0  0  0  0  0  0  0  0  0
    6.5020  -14.0725   25.7324 C   0  0  0  0  0  0  0  0  0  0  0  0
    5.9510  -12.8831   26.1503 C   0  0  0  0  0  0  0  0  0  0  0  0
    6.6812  -12.0002   26.9566 C   0  0  0  0  0  0  0  0  0  0  0  0
    7.9554  -12.3018   27.3447 C   0  0  0  0  0  0  0  0  0  0  0  0
    8.5169  -13.4962   26.9286 C   0  0  0  0  0  0  0  0  0  0  0  0
    7.7891  -14.3577   26.1351 C   0  0  0  0  0  0  0  0  0  0  0  0
    7.1031  -16.7324   23.8159 C   0  0  0  0  0  0  0  0  0  0  0  0
    7.3239  -17.9796   23.5647 O   0  0  0  0  0  0  0  0  0  0  0  0
    7.7543  -15.8073   22.9642 N   0  0  0  0  0  0  0  0  0  0  0  0
    7.8804  -14.3773   23.0161 C   0  0  0  0  0  0  0  0  0  0  0  0
    8.0473  -13.9528   21.5611 C   0  0  0  0  0  0  0  0  0  0  0  0
    7.9473  -15.2422   20.7607 C   0  0  0  0  0  0  0  0  0  0  0  0
    8.4929  -16.2163   21.7839 C   0  0  1  0  0  0  0  0  0  0  0  0
    9.9546  -15.9814   21.9588 C   0  0  0  0  0  0  0  0  0  0  0  0
   10.4391  -14.9767   22.5117 O   0  0  0  0  0  0  0  0  0  0  0  0
   12.1942  -18.8519   22.1900 C   0  0  0  0  0  0  0  0  0  0  0  0
   12.0294  -17.3422   22.1907 C   0  0  2  0  0  0  0  0  0  0  0  0
   10.8379  -16.9736   21.4589 N   0  0  0  0  0  0  0  0  0  0  0  0
   13.2018  -16.7215   21.5331 C   0  0  0  0  0  0  0  0  0  0  0  0
   14.3479  -16.8157   22.0408 O   0  0  0  0  0  0  0  0  0  0  0  0
   13.0997  -16.0151   20.3421 O   0  0  0  0  0  0  0  0  0  0  0  0
  2  1  1  1
  2 10  1  0
  3  2  1  0
  4  3  1  0
  5  4  2  0
  6  5  1  0
  7  6  2  0
  7  8  1  0
  8  9  2  0
  9  4  1  0
 10 12  1  0
 11 10  2  0
 12 13  1  0
 12 16  1  0
 13 14  1  0
 15 14  1  0
 16 15  1  0
 17 21  1  0
 16 17  1  1
 18 17  2  0
 20 19  1  6
 20 22  1  0
 20 21  1  0
 22 24  1  0
 23 22  2  0
M  END
$$$$
