FPA.pdb
     RDKit          3D

 24 25  0  0  1  0  0  0  0  0999 V2000
    5.2911  -17.7516   25.3053 N   0  0  0  0  0  0  0  0  0  0  0  0
    6.0950  -16.5845   25.2113 C   0  0  1  0  0  0  0  0  0  0  0  0
    6.6673  -16.1388   26.5379 C   0  0  0  0  0  0  0  0  0  0  0  0
    6.9551  -14.6905   26.5625 C   0  0  0  0  0  0  0  0  0  0  0  0
    5.9151  -13.7948   26.6578 C   0  0  0  0  0  0  0  0  0  0  0  0
    6.1585  -12.4153   26.6814 C   0  0  0  0  0  0  0  0  0  0  0  0
    7.4335  -11.9309   26.6105 C   0  0  0  0  0  0  0  0  0  0  0  0
    8.4851  -12.8252   26.5146 C   0  0  0  0  0  0  0  0  0  0  0  0
    8.2340  -14.1809   26.4921 C   0  0  0  0  0  0  0  0  0  0  0  0
    7.1385  -16.7579   24.1845 C   0  0  0  0  0  0  0  0  0  0  0  0
    7.4974  -17.9626   23.8890 O   0  0  0  0  0  0  0  0  0  0  0  0
    7.8010  -15.7260   23.4762 N   0  0  0  0  0  0  0  0  0  0  0  0
    7.7958  -14.2978   23.6306 C   0  0  0  0  0  0  0  0  0  0  0  0
    8.0921  -13.7591   22.2352 C   0  0  0  0  0  0  0  0  0  0  0  0
    8.1974  -14.9921   21.3510 C   0  0  0  0  0  0  0  0  0  0  0  0
    8.7036  -15.9905   22.3711 C   0  0  1  0  0  0  0  0  0  0  0  0
   10.1094  -15.6540   22.7357 C   0  0  0  0  0  0  0  0  0  0  0  0
   10.4358  -14.6694   23.4242 O   0  0  0  0  0  0  0  0  0  0  0  0
   12.7546  -18.2260   22.8517 C   0  0  0  0  0  0  0  0  0  0  0  0
   12.3026  -16.7916   23.0623 C   0  0  2  0  0  0  0  0  0  0  0  0
   11.1299  -16.5190   22.2613 N   0  0  0  0  0  0  0  0  0  0  0  0
   13.3856  -15.8711   22.6475 C   0  0  0  0  0  0  0  0  0  0  0  0
   13.3186  -15.2504   21.5565 O   0  0  0  0  0  0  0  0  0  0  0  0
   14.5125  -15.6485   23.4273 O   0  0  0  0  0  0  0  0  0  0  0  0
  2  1  1  1
  2 10  1  0
  3  2  1  0
  4  3  1  0
  5  4  2  0
  6  5  1  0
  7  6  2  0
  7  8  1  0
  8  9  2  0
  9  4  1  0
 10 12  1  0
 11 10  2  0
 12 13  1  0
 12 16  1  0
 13 14  1  0
 15 14  1  0
 16 15  1  0
 17 21  1  0
 16 17  1  1
 18 17  2  0
 20 19  1  6
 20 22  1  0
 20 21  1  0
 22 24  1  0
 23 22  2  0
M  END
$$$$
