FPA.pdb
     RDKit          3D

 24 25  0  0  1  0  0  0  0  0999 V2000
    5.1680  -17.8753   25.0518 N   0  0  0  0  0  0  0  0  0  0  0  0
    5.9178  -16.6695   25.0864 C   0  0  1  0  0  0  0  0  0  0  0  0
    6.2556  -16.2103   26.4868 C   0  0  0  0  0  0  0  0  0  0  0  0
    6.6380  -14.7844   26.5288 C   0  0  0  0  0  0  0  0  0  0  0  0
    5.6566  -13.8202   26.5412 C   0  0  0  0  0  0  0  0  0  0  0  0
    5.9901  -12.4600   26.5791 C   0  0  0  0  0  0  0  0  0  0  0  0
    7.2966  -12.0628   26.6046 C   0  0  0  0  0  0  0  0  0  0  0  0
    8.2897  -13.0264   26.5925 C   0  0  0  0  0  0  0  0  0  0  0  0
    7.9500  -14.3624   26.5551 C   0  0  0  0  0  0  0  0  0  0  0  0
    7.1145  -16.7812   24.2329 C   0  0  0  0  0  0  0  0  0  0  0  0
    7.6144  -17.9574   24.0487 O   0  0  0  0  0  0  0  0  0  0  0  0
    7.7860  -15.7172   23.5828 N   0  0  0  0  0  0  0  0  0  0  0  0
    7.7407  -14.2939   23.7719 C   0  0  0  0  0  0  0  0  0  0  0  0
    8.0903  -13.7131   22.4061 C   0  0  0  0  0  0  0  0  0  0  0  0
    8.2656  -14.9204   21.4978 C   0  0  0  0  0  0  0  0  0  0  0  0
    8.7457  -15.9335   22.5160 C   0  0  1  0  0  0  0  0  0  0  0  0
   10.1246  -15.5761   22.9557 C   0  0  0  0  0  0  0  0  0  0  0  0
   10.4019  -14.5722   23.6378 O   0  0  0  0  0  0  0  0  0  0  0  0
   12.7501  -18.0365   23.5101 C   0  0  0  0  0  0  0  0  0  0  0  0
   12.3705  -16.5725   23.3727 C   0  0  2  0  0  0  0  0  0  0  0  0
   11.1779  -16.4436   22.5651 N   0  0  0  0  0  0  0  0  0  0  0  0
   13.4741  -15.8406   22.7104 C   0  0  0  0  0  0  0  0  0  0  0  0
   14.5768  -15.6778   23.2915 O   0  0  0  0  0  0  0  0  0  0  0  0
   13.3521  -15.3048   21.4354 O   0  0  0  0  0  0  0  0  0  0  0  0
  2  1  1  1
  2 10  1  0
  3  2  1  0
  4  3  1  0
  5  4  2  0
  6  5  1  0
  7  6  2  0
  7  8  1  0
  8  9  2  0
  9  4  1  0
 10 12  1  0
 11 10  2  0
 12 13  1  0
 12 16  1  0
 13 14  1  0
 15 14  1  0
 16 15  1  0
 17 21  1  0
 16 17  1  1
 18 17  2  0
 20 19  1  6
 20 22  1  0
 20 21  1  0
 22 24  1  0
 23 22  2  0
M  END
$$$$
