FPA.pdb
     RDKit          3D

 24 25  0  0  1  0  0  0  0  0999 V2000
    5.5634  -17.6524   25.5071 N   0  0  0  0  0  0  0  0  0  0  0  0
    6.3203  -16.5066   25.1443 C   0  0  1  0  0  0  0  0  0  0  0  0
    7.1382  -15.9398   26.2827 C   0  0  0  0  0  0  0  0  0  0  0  0
    6.9849  -14.4760   26.4044 C   0  0  0  0  0  0  0  0  0  0  0  0
    8.0983  -13.6926   26.6028 C   0  0  0  0  0  0  0  0  0  0  0  0
    7.9824  -12.3016   26.7236 C   0  0  0  0  0  0  0  0  0  0  0  0
    6.7615  -11.6943   26.6468 C   0  0  0  0  0  0  0  0  0  0  0  0
    5.6367  -12.4752   26.4473 C   0  0  0  0  0  0  0  0  0  0  0  0
    5.7624  -13.8434   26.3299 C   0  0  0  0  0  0  0  0  0  0  0  0
    7.1426  -16.7871   23.9534 C   0  0  0  0  0  0  0  0  0  0  0  0
    7.2185  -18.0112   23.5494 O   0  0  0  0  0  0  0  0  0  0  0  0
    7.8711  -15.8405   23.1925 N   0  0  0  0  0  0  0  0  0  0  0  0
    8.1871  -14.4587   23.4255 C   0  0  0  0  0  0  0  0  0  0  0  0
    8.3427  -13.8595   22.0320 C   0  0  0  0  0  0  0  0  0  0  0  0
    8.0373  -15.0020   21.0756 C   0  0  0  0  0  0  0  0  0  0  0  0
    8.4952  -16.1697   21.9245 C   0  0  1  0  0  0  0  0  0  0  0  0
    9.9815  -16.1454   22.0368 C   0  0  0  0  0  0  0  0  0  0  0  0
   10.6104  -15.4148   22.8246 O   0  0  0  0  0  0  0  0  0  0  0  0
   12.1220  -18.9667   20.8587 C   0  0  0  0  0  0  0  0  0  0  0  0
   11.8935  -17.6997   21.6642 C   0  0  2  0  0  0  0  0  0  0  0  0
   10.7130  -17.0149   21.1862 N   0  0  0  0  0  0  0  0  0  0  0  0
   13.0602  -16.8019   21.5061 C   0  0  0  0  0  0  0  0  0  0  0  0
   12.9708  -15.7450   20.8316 O   0  0  0  0  0  0  0  0  0  0  0  0
   14.2929  -17.0746   22.0839 O   0  0  0  0  0  0  0  0  0  0  0  0
  2  1  1  1
  2 10  1  0
  3  2  1  0
  4  3  1  0
  5  4  2  0
  6  5  1  0
  7  6  2  0
  7  8  1  0
  8  9  2  0
  9  4  1  0
 10 12  1  0
 11 10  2  0
 12 13  1  0
 12 16  1  0
 13 14  1  0
 15 14  1  0
 16 15  1  0
 17 21  1  0
 16 17  1  1
 18 17  2  0
 20 19  1  6
 20 22  1  0
 20 21  1  0
 22 24  1  0
 23 22  2  0
M  END
$$$$
