FPA.pdb
     RDKit          3D

 24 25  0  0  1  0  0  0  0  0999 V2000
    5.3176  -17.6848   25.4641 N   0  0  0  0  0  0  0  0  0  0  0  0
    6.1319  -16.5425   25.2420 C   0  0  1  0  0  0  0  0  0  0  0  0
    6.8420  -16.0581   26.4859 C   0  0  0  0  0  0  0  0  0  0  0  0
    6.9996  -14.5898   26.5016 C   0  0  0  0  0  0  0  0  0  0  0  0
    8.2619  -14.0436   26.4642 C   0  0  0  0  0  0  0  0  0  0  0  0
    8.4413  -12.6542   26.4797 C   0  0  0  0  0  0  0  0  0  0  0  0
    7.3667  -11.8128   26.5322 C   0  0  0  0  0  0  0  0  0  0  0  0
    6.0938  -12.3542   26.5700 C   0  0  0  0  0  0  0  0  0  0  0  0
    5.9289  -13.7232   26.5543 C   0  0  0  0  0  0  0  0  0  0  0  0
    7.0646  -16.7827   24.1260 C   0  0  0  0  0  0  0  0  0  0  0  0
    7.3415  -18.0078   23.8264 O   0  0  0  0  0  0  0  0  0  0  0  0
    7.7006  -15.7956   23.3343 N   0  0  0  0  0  0  0  0  0  0  0  0
    7.7382  -14.3629   23.4318 C   0  0  0  0  0  0  0  0  0  0  0  0
    7.9510  -13.8854   21.9994 C   0  0  0  0  0  0  0  0  0  0  0  0
    7.9681  -15.1535   21.1598 C   0  0  0  0  0  0  0  0  0  0  0  0
    8.5198  -16.1248   22.1826 C   0  0  1  0  0  0  0  0  0  0  0  0
    9.9544  -15.8103   22.4383 C   0  0  0  0  0  0  0  0  0  0  0  0
   10.3494  -14.8030   23.0543 O   0  0  0  0  0  0  0  0  0  0  0  0
   12.6173  -18.4193   22.3311 C   0  0  0  0  0  0  0  0  0  0  0  0
   12.1041  -17.0412   22.7103 C   0  0  2  0  0  0  0  0  0  0  0  0
   10.9198  -16.7252   21.9430 N   0  0  0  0  0  0  0  0  0  0  0  0
   13.1459  -16.0320   22.4132 C   0  0  0  0  0  0  0  0  0  0  0  0
   13.0319  -15.2623   21.4260 O   0  0  0  0  0  0  0  0  0  0  0  0
   14.2838  -15.8846   23.1950 O   0  0  0  0  0  0  0  0  0  0  0  0
  2  1  1  1
  2 10  1  0
  3  2  1  0
  4  3  1  0
  5  4  2  0
  6  5  1  0
  7  6  2  0
  7  8  1  0
  8  9  2  0
  9  4  1  0
 10 12  1  0
 11 10  2  0
 12 13  1  0
 12 16  1  0
 13 14  1  0
 15 14  1  0
 16 15  1  0
 17 21  1  0
 16 17  1  1
 18 17  2  0
 20 19  1  6
 20 22  1  0
 20 21  1  0
 22 24  1  0
 23 22  2  0
M  END
$$$$
