FPA.pdb
     RDKit          3D

 24 25  0  0  1  0  0  0  0  0999 V2000
    5.1631  -17.5778   25.1490 N   0  0  0  0  0  0  0  0  0  0  0  0
    6.0466  -16.4657   25.1485 C   0  0  1  0  0  0  0  0  0  0  0  0
    6.5778  -16.1178   26.5206 C   0  0  0  0  0  0  0  0  0  0  0  0
    7.0164  -14.7103   26.6082 C   0  0  0  0  0  0  0  0  0  0  0  0
    8.3516  -14.4073   26.4730 C   0  0  0  0  0  0  0  0  0  0  0  0
    8.7963  -13.0812   26.5533 C   0  0  0  0  0  0  0  0  0  0  0  0
    7.9134  -12.0613   26.7675 C   0  0  0  0  0  0  0  0  0  0  0  0
    6.5687  -12.3577   26.9044 C   0  0  0  0  0  0  0  0  0  0  0  0
    6.1421  -13.6665   26.8236 C   0  0  0  0  0  0  0  0  0  0  0  0
    7.1281  -16.6663   24.1669 C   0  0  0  0  0  0  0  0  0  0  0  0
    7.5569  -17.8701   23.9819 O   0  0  0  0  0  0  0  0  0  0  0  0
    7.7579  -15.6617   23.3926 N   0  0  0  0  0  0  0  0  0  0  0  0
    7.7373  -14.2279   23.4785 C   0  0  0  0  0  0  0  0  0  0  0  0
    7.9899  -13.7534   22.0515 C   0  0  0  0  0  0  0  0  0  0  0  0
    8.0889  -15.0263   21.2249 C   0  0  0  0  0  0  0  0  0  0  0  0
    8.6350  -15.9680   22.2778 C   0  0  1  0  0  0  0  0  0  0  0  0
   10.0451  -15.5971   22.5882 C   0  0  0  0  0  0  0  0  0  0  0  0
   10.3717  -14.6410   23.3156 O   0  0  0  0  0  0  0  0  0  0  0  0
   12.6388  -18.2125   22.3683 C   0  0  0  0  0  0  0  0  0  0  0  0
   12.2057  -16.8214   22.7968 C   0  0  2  0  0  0  0  0  0  0  0  0
   11.0695  -16.3925   22.0117 N   0  0  0  0  0  0  0  0  0  0  0  0
   13.3204  -15.8721   22.5770 C   0  0  0  0  0  0  0  0  0  0  0  0
   13.3111  -15.0861   21.5961 O   0  0  0  0  0  0  0  0  0  0  0  0
   14.4158  -15.8007   23.4272 O   0  0  0  0  0  0  0  0  0  0  0  0
  2  1  1  1
  2 10  1  0
  3  2  1  0
  4  3  1  0
  5  4  2  0
  6  5  1  0
  7  6  2  0
  7  8  1  0
  8  9  2  0
  9  4  1  0
 10 12  1  0
 11 10  2  0
 12 13  1  0
 12 16  1  0
 13 14  1  0
 15 14  1  0
 16 15  1  0
 17 21  1  0
 16 17  1  1
 18 17  2  0
 20 19  1  6
 20 22  1  0
 20 21  1  0
 22 24  1  0
 23 22  2  0
M  END
$$$$
