FPA.pdb
     RDKit          3D

 24 25  0  0  1  0  0  0  0  0999 V2000
    6.7334  -17.5160   26.8481 N   0  0  0  0  0  0  0  0  0  0  0  0
    6.5335  -16.5126   25.8629 C   0  0  1  0  0  0  0  0  0  0  0  0
    6.6346  -15.1056   26.4071 C   0  0  0  0  0  0  0  0  0  0  0  0
    7.9239  -14.8613   27.0846 C   0  0  0  0  0  0  0  0  0  0  0  0
    8.5856  -15.9104   27.6800 C   0  0  0  0  0  0  0  0  0  0  0  0
    9.8094  -15.7076   28.3312 C   0  0  0  0  0  0  0  0  0  0  0  0
   10.3712  -14.4641   28.3886 C   0  0  0  0  0  0  0  0  0  0  0  0
    9.7120  -13.4036   27.7922 C   0  0  0  0  0  0  0  0  0  0  0  0
    8.5080  -13.6146   27.1539 C   0  0  0  0  0  0  0  0  0  0  0  0
    7.4309  -16.7313   24.7140 C   0  0  0  0  0  0  0  0  0  0  0  0
    7.7880  -17.9442   24.4520 O   0  0  0  0  0  0  0  0  0  0  0  0
    7.9523  -15.7354   23.8527 N   0  0  0  0  0  0  0  0  0  0  0  0
    7.9210  -14.3005   23.9128 C   0  0  0  0  0  0  0  0  0  0  0  0
    8.0000  -13.8527   22.4574 C   0  0  0  0  0  0  0  0  0  0  0  0
    8.0212  -15.1412   21.6495 C   0  0  0  0  0  0  0  0  0  0  0  0
    8.6989  -16.0542   22.6499 C   0  0  1  0  0  0  0  0  0  0  0  0
   10.1300  -15.6598   22.7876 C   0  0  0  0  0  0  0  0  0  0  0  0
   10.5276  -14.7048   23.4804 O   0  0  0  0  0  0  0  0  0  0  0  0
   12.3215  -18.4098   22.7591 C   0  0  0  0  0  0  0  0  0  0  0  0
   12.2955  -16.8917   22.7284 C   0  0  2  0  0  0  0  0  0  0  0  0
   11.0887  -16.4301   22.0790 N   0  0  0  0  0  0  0  0  0  0  0  0
   13.4642  -16.3973   21.9656 C   0  0  0  0  0  0  0  0  0  0  0  0
   14.6257  -16.4913   22.4372 O   0  0  0  0  0  0  0  0  0  0  0  0
   13.3420  -15.8141   20.7116 O   0  0  0  0  0  0  0  0  0  0  0  0
  2  1  1  1
  2 10  1  0
  3  2  1  0
  4  3  1  0
  5  4  2  0
  6  5  1  0
  7  6  2  0
  7  8  1  0
  8  9  2  0
  9  4  1  0
 10 12  1  0
 11 10  2  0
 12 13  1  0
 12 16  1  0
 13 14  1  0
 15 14  1  0
 16 15  1  0
 17 21  1  0
 16 17  1  1
 18 17  2  0
 20 19  1  6
 20 22  1  0
 20 21  1  0
 22 24  1  0
 23 22  2  0
M  END
$$$$
