FPA.pdb
     RDKit          3D

 24 25  0  0  1  0  0  0  0  0999 V2000
    5.4160  -17.5723   25.3780 N   0  0  0  0  0  0  0  0  0  0  0  0
    6.2287  -16.4286   25.1570 C   0  0  1  0  0  0  0  0  0  0  0  0
    6.9214  -15.9315   26.4057 C   0  0  0  0  0  0  0  0  0  0  0  0
    6.9035  -14.4580   26.5039 C   0  0  0  0  0  0  0  0  0  0  0  0
    8.0917  -13.7644   26.4978 C   0  0  0  0  0  0  0  0  0  0  0  0
    8.1049  -12.3666   26.5914 C   0  0  0  0  0  0  0  0  0  0  0  0
    6.9384  -11.6632   26.6905 C   0  0  0  0  0  0  0  0  0  0  0  0
    5.7391  -12.3534   26.6973 C   0  0  0  0  0  0  0  0  0  0  0  0
    5.7378  -13.7293   26.6046 C   0  0  0  0  0  0  0  0  0  0  0  0
    7.1762  -16.6739   24.0546 C   0  0  0  0  0  0  0  0  0  0  0  0
    7.4213  -17.9004   23.7337 O   0  0  0  0  0  0  0  0  0  0  0  0
    7.8583  -15.6906   23.2975 N   0  0  0  0  0  0  0  0  0  0  0  0
    7.9410  -14.2625   23.4294 C   0  0  0  0  0  0  0  0  0  0  0  0
    8.1951  -13.7595   22.0125 C   0  0  0  0  0  0  0  0  0  0  0  0
    8.1858  -15.0078   21.1437 C   0  0  0  0  0  0  0  0  0  0  0  0
    8.6869  -16.0201   22.1527 C   0  0  1  0  0  0  0  0  0  0  0  0
   10.1262  -15.7593   22.4405 C   0  0  0  0  0  0  0  0  0  0  0  0
   10.5403  -14.7999   23.1173 O   0  0  0  0  0  0  0  0  0  0  0  0
   12.5757  -18.5306   22.3292 C   0  0  0  0  0  0  0  0  0  0  0  0
   12.2143  -17.0982   22.6810 C   0  0  2  0  0  0  0  0  0  0  0  0
   11.0730  -16.6699   21.9030 N   0  0  0  0  0  0  0  0  0  0  0  0
   13.3601  -16.2136   22.3700 C   0  0  0  0  0  0  0  0  0  0  0  0
   14.4108  -16.2571   23.0587 O   0  0  0  0  0  0  0  0  0  0  0  0
   13.3357  -15.3053   21.3202 O   0  0  0  0  0  0  0  0  0  0  0  0
  2  1  1  1
  2 10  1  0
  3  2  1  0
  4  3  1  0
  5  4  2  0
  6  5  1  0
  7  6  2  0
  7  8  1  0
  8  9  2  0
  9  4  1  0
 10 12  1  0
 11 10  2  0
 12 13  1  0
 12 16  1  0
 13 14  1  0
 15 14  1  0
 16 15  1  0
 17 21  1  0
 16 17  1  1
 18 17  2  0
 20 19  1  6
 20 22  1  0
 20 21  1  0
 22 24  1  0
 23 22  2  0
M  END
$$$$
