FPA.pdb
     RDKit          3D

 24 25  0  0  1  0  0  0  0  0999 V2000
    5.4688  -17.2967   25.3518 N   0  0  0  0  0  0  0  0  0  0  0  0
    6.3287  -16.2241   24.9950 C   0  0  1  0  0  0  0  0  0  0  0  0
    7.1285  -15.6811   26.1576 C   0  0  0  0  0  0  0  0  0  0  0  0
    6.9819  -14.2185   26.3001 C   0  0  0  0  0  0  0  0  0  0  0  0
    5.9620  -13.7120   27.0722 C   0  0  0  0  0  0  0  0  0  0  0  0
    5.7980  -12.3289   27.2237 C   0  0  0  0  0  0  0  0  0  0  0  0
    6.6474  -11.4544   26.6080 C   0  0  0  0  0  0  0  0  0  0  0  0
    7.6758  -11.9557   25.8297 C   0  0  0  0  0  0  0  0  0  0  0  0
    7.8279  -13.3188   25.6875 C   0  0  0  0  0  0  0  0  0  0  0  0
    7.1868  -16.6065   23.8589 C   0  0  0  0  0  0  0  0  0  0  0  0
    7.3381  -17.8658   23.6164 O   0  0  0  0  0  0  0  0  0  0  0  0
    7.8751  -15.7246   22.9907 N   0  0  0  0  0  0  0  0  0  0  0  0
    8.0699  -14.3017   23.0231 C   0  0  0  0  0  0  0  0  0  0  0  0
    8.2458  -13.9041   21.5616 C   0  0  0  0  0  0  0  0  0  0  0  0
    8.0780  -15.1972   20.7787 C   0  0  0  0  0  0  0  0  0  0  0  0
    8.5842  -16.1834   21.8106 C   0  0  1  0  0  0  0  0  0  0  0  0
   10.0567  -16.0167   21.9722 C   0  0  0  0  0  0  0  0  0  0  0  0
   10.5895  -15.0745   22.5873 O   0  0  0  0  0  0  0  0  0  0  0  0
   12.4906  -18.8249   21.5267 C   0  0  0  0  0  0  0  0  0  0  0  0
   12.0866  -17.4601   22.0561 C   0  0  2  0  0  0  0  0  0  0  0  0
   10.8920  -17.0012   21.3826 N   0  0  0  0  0  0  0  0  0  0  0  0
   13.1778  -16.4928   21.7996 C   0  0  0  0  0  0  0  0  0  0  0  0
   14.2676  -16.5740   22.4207 O   0  0  0  0  0  0  0  0  0  0  0  0
   13.0577  -15.4630   20.8761 O   0  0  0  0  0  0  0  0  0  0  0  0
  2  1  1  1
  2 10  1  0
  3  2  1  0
  4  3  1  0
  5  4  2  0
  6  5  1  0
  7  6  2  0
  7  8  1  0
  8  9  2  0
  9  4  1  0
 10 12  1  0
 11 10  2  0
 12 13  1  0
 12 16  1  0
 13 14  1  0
 15 14  1  0
 16 15  1  0
 17 21  1  0
 16 17  1  1
 18 17  2  0
 20 19  1  6
 20 22  1  0
 20 21  1  0
 22 24  1  0
 23 22  2  0
M  END
$$$$
