EAG.pdb
     RDKit          3D

 19 18  0  0  1  0  0  0  0  0999 V2000
    8.1150  -17.1729   16.6587 N   0  0  0  0  0  0  0  0  0  0  0  0
    8.8585  -17.1848   17.9245 C   0  0  1  0  0  0  0  0  0  0  0  0
   10.3147  -17.1125   17.5533 C   0  0  0  0  0  0  0  0  0  0  0  0
   11.1459  -18.2413   18.0558 C   0  0  0  0  0  0  0  0  0  0  0  0
   12.5797  -18.1661   17.7392 C   0  0  0  0  0  0  0  0  0  0  0  0
   13.2903  -17.3008   18.3069 O   0  0  0  0  0  0  0  0  0  0  0  0
    8.4156  -16.0653   18.7772 C   0  0  0  0  0  0  0  0  0  0  0  0
    8.5784  -14.8691   18.4465 O   0  0  0  0  0  0  0  0  0  0  0  0
   13.1664  -19.0526   16.8067 O   0  0  0  0  0  0  0  0  0  0  0  0
    5.9622  -15.4583   21.4772 C   0  0  0  0  0  0  0  0  0  0  0  0
    7.3316  -15.1951   20.8874 C   0  0  2  0  0  0  0  0  0  0  0  0
    7.7702  -16.2755   20.0396 N   0  0  0  0  0  0  0  0  0  0  0  0
    8.2903  -14.9085   21.9761 C   0  0  0  0  0  0  0  0  0  0  0  0
    8.0739  -14.0136   22.8010 O   0  0  0  0  0  0  0  0  0  0  0  0
    9.4776  -15.6826   22.0646 N   0  0  0  0  0  0  0  0  0  0  0  0
   10.4641  -15.5024   23.0926 C   0  0  0  0  0  0  0  0  0  0  0  0
   10.5113  -16.5943   24.0616 C   0  0  0  0  0  0  0  0  0  0  0  0
    9.6770  -17.5215   24.0128 O   0  0  0  0  0  0  0  0  0  0  0  0
   11.4758  -16.6200   25.0450 O   0  0  0  0  0  0  0  0  0  0  0  0
  2  1  1  6
  3  2  1  0
  4  3  1  0
  5  6  2  0
  5  4  1  0
  7  2  1  0
  8  7  2  0
  9  5  1  0
 11 10  1  1
 11 12  1  0
 12  7  1  0
 13 11  1  0
 14 13  2  0
 15 13  1  0
 16 15  1  0
 17 16  1  0
 17 19  1  0
 18 17  2  0
M  END
$$$$
