EAG.pdb
     RDKit          3D

 19 18  0  0  1  0  0  0  0  0999 V2000
    9.4005  -26.0440   31.3461 N   0  0  0  0  0  0  0  0  0  0  0  0
   10.8670  -26.0018   31.2953 C   0  0  1  0  0  0  0  0  0  0  0  0
   11.2252  -24.6674   30.7000 C   0  0  0  0  0  0  0  0  0  0  0  0
   10.3268  -24.2089   29.6045 C   0  0  0  0  0  0  0  0  0  0  0  0
   10.9953  -23.5926   28.4490 C   0  0  0  0  0  0  0  0  0  0  0  0
   11.2837  -22.3713   28.4848 O   0  0  0  0  0  0  0  0  0  0  0  0
   11.4220  -26.2076   32.6467 C   0  0  0  0  0  0  0  0  0  0  0  0
   10.7101  -26.5584   33.6146 O   0  0  0  0  0  0  0  0  0  0  0  0
   11.3161  -24.3549   27.3021 O   0  0  0  0  0  0  0  0  0  0  0  0
   13.9577  -27.8208   34.1406 C   0  0  0  0  0  0  0  0  0  0  0  0
   13.4132  -26.4089   34.1895 C   0  0  2  0  0  0  0  0  0  0  0  0
   12.8127  -26.0190   32.9382 N   0  0  0  0  0  0  0  0  0  0  0  0
   14.4844  -25.4818   34.6133 C   0  0  0  0  0  0  0  0  0  0  0  0
   14.9857  -25.5550   35.7408 O   0  0  0  0  0  0  0  0  0  0  0  0
   14.9366  -24.4938   33.6989 N   0  0  0  0  0  0  0  0  0  0  0  0
   15.2110  -23.1353   34.0747 C   0  0  0  0  0  0  0  0  0  0  0  0
   14.1975  -22.1838   33.6263 C   0  0  0  0  0  0  0  0  0  0  0  0
   13.2408  -22.5629   32.9197 O   0  0  0  0  0  0  0  0  0  0  0  0
   14.2794  -20.8534   33.9747 O   0  0  0  0  0  0  0  0  0  0  0  0
  2  1  1  1
  3  2  1  0
  4  3  1  0
  5  6  2  0
  5  4  1  0
  7  2  1  0
  8  7  2  0
  9  5  1  0
 11 10  1  6
 11 12  1  0
 12  7  1  0
 13 11  1  0
 14 13  2  0
 15 13  1  0
 16 15  1  0
 17 16  1  0
 17 19  1  0
 18 17  2  0
M  END
$$$$
