EAG.pdb
     RDKit          3D

 19 18  0  0  1  0  0  0  0  0999 V2000
    8.0209  -13.3130   18.2518 N   0  0  0  0  0  0  0  0  0  0  0  0
    7.8934  -14.3591   19.2738 C   0  0  1  0  0  0  0  0  0  0  0  0
    8.7626  -15.4982   18.8151 C   0  0  0  0  0  0  0  0  0  0  0  0
    8.3712  -16.0983   17.5097 C   0  0  0  0  0  0  0  0  0  0  0  0
    9.2356  -17.1838   17.0235 C   0  0  0  0  0  0  0  0  0  0  0  0
   10.1078  -17.6645   17.7877 O   0  0  0  0  0  0  0  0  0  0  0  0
    8.2800  -13.8221   20.5924 C   0  0  0  0  0  0  0  0  0  0  0  0
    9.1629  -12.9446   20.7233 O   0  0  0  0  0  0  0  0  0  0  0  0
    9.0975  -17.6914   15.7109 O   0  0  0  0  0  0  0  0  0  0  0  0
    6.7462  -13.6229   23.9841 C   0  0  0  0  0  0  0  0  0  0  0  0
    7.9711  -13.6992   23.0974 C   0  0  2  0  0  0  0  0  0  0  0  0
    7.6692  -14.2710   21.8090 N   0  0  0  0  0  0  0  0  0  0  0  0
    9.0445  -14.4327   23.8018 C   0  0  0  0  0  0  0  0  0  0  0  0
    9.3274  -14.1801   24.9783 O   0  0  0  0  0  0  0  0  0  0  0  0
    9.7560  -15.4435   23.1026 N   0  0  0  0  0  0  0  0  0  0  0  0
   10.6638  -16.3559   23.7397 C   0  0  0  0  0  0  0  0  0  0  0  0
   11.2089  -17.3690   22.8397 C   0  0  0  0  0  0  0  0  0  0  0  0
   10.8288  -17.4327   21.6524 O   0  0  0  0  0  0  0  0  0  0  0  0
   12.1505  -18.2710   23.2848 O   0  0  0  0  0  0  0  0  0  0  0  0
  2  1  1  6
  3  2  1  0
  4  3  1  0
  5  6  2  0
  5  4  1  0
  7  2  1  0
  8  7  2  0
  9  5  1  0
 11 10  1  1
 11 12  1  0
 12  7  1  0
 13 11  1  0
 14 13  2  0
 15 13  1  0
 16 15  1  0
 17 16  1  0
 17 19  1  0
 18 17  2  0
M  END
$$$$
