EAG.pdb
     RDKit          3D

 19 18  0  0  1  0  0  0  0  0999 V2000
    7.1611  -19.6793   22.6860 N   0  0  0  0  0  0  0  0  0  0  0  0
    8.0170  -19.5672   21.4986 C   0  0  1  0  0  0  0  0  0  0  0  0
    7.2191  -20.1316   20.3548 C   0  0  0  0  0  0  0  0  0  0  0  0
    5.7646  -19.8142   20.3891 C   0  0  0  0  0  0  0  0  0  0  0  0
    5.1823  -19.3589   19.1180 C   0  0  0  0  0  0  0  0  0  0  0  0
    5.9226  -19.2357   18.1117 O   0  0  0  0  0  0  0  0  0  0  0  0
    8.4141  -18.1607   21.2973 C   0  0  0  0  0  0  0  0  0  0  0  0
    9.2506  -17.8205   20.4306 O   0  0  0  0  0  0  0  0  0  0  0  0
    3.8043  -19.0591   19.0150 O   0  0  0  0  0  0  0  0  0  0  0  0
    7.0860  -14.7721   22.1671 C   0  0  0  0  0  0  0  0  0  0  0  0
    8.2420  -15.7126   21.8999 C   0  0  2  0  0  0  0  0  0  0  0  0
    7.8672  -17.0928   22.0816 N   0  0  0  0  0  0  0  0  0  0  0  0
    9.3957  -15.3268   22.7405 C   0  0  0  0  0  0  0  0  0  0  0  0
    9.8643  -14.1837   22.6992 O   0  0  0  0  0  0  0  0  0  0  0  0
    9.9667  -16.2966   23.6067 N   0  0  0  0  0  0  0  0  0  0  0  0
   10.9773  -15.9899   24.5798 C   0  0  0  0  0  0  0  0  0  0  0  0
   11.3527  -17.1263   25.4172 C   0  0  0  0  0  0  0  0  0  0  0  0
   10.8322  -18.2464   25.2362 O   0  0  0  0  0  0  0  0  0  0  0  0
   12.2863  -16.9823   26.4201 O   0  0  0  0  0  0  0  0  0  0  0  0
  2  1  1  1
  3  2  1  0
  4  3  1  0
  5  6  2  0
  5  4  1  0
  7  2  1  0
  8  7  2  0
  9  5  1  0
 11 10  1  1
 11 12  1  0
 12  7  1  0
 13 11  1  0
 14 13  2  0
 15 13  1  0
 16 15  1  0
 17 16  1  0
 17 19  1  0
 18 17  2  0
M  END
$$$$
