EAG.pdb
     RDKit          3D

 19 18  0  0  1  0  0  0  0  0999 V2000
    8.1303  -14.9956   14.5992 N   0  0  0  0  0  0  0  0  0  0  0  0
    7.8737  -15.3571   15.9987 C   0  0  1  0  0  0  0  0  0  0  0  0
    8.4210  -16.7471   16.1773 C   0  0  0  0  0  0  0  0  0  0  0  0
    7.7699  -17.7894   15.3364 C   0  0  0  0  0  0  0  0  0  0  0  0
    8.2564  -19.1626   15.5346 C   0  0  0  0  0  0  0  0  0  0  0  0
    9.4924  -19.3753   15.5887 O   0  0  0  0  0  0  0  0  0  0  0  0
    8.4949  -14.3639   16.8955 C   0  0  0  0  0  0  0  0  0  0  0  0
    9.5825  -13.8071   16.6240 O   0  0  0  0  0  0  0  0  0  0  0  0
    7.3533  -20.2429   15.6644 O   0  0  0  0  0  0  0  0  0  0  0  0
    7.4343  -12.3654   19.9276 C   0  0  0  0  0  0  0  0  0  0  0  0
    8.4696  -12.9840   19.0123 C   0  0  2  0  0  0  0  0  0  0  0  0
    7.8925  -13.9726   18.1359 N   0  0  0  0  0  0  0  0  0  0  0  0
    9.5807  -13.5287   19.8218 C   0  0  0  0  0  0  0  0  0  0  0  0
   10.2232  -12.8086   20.5943 O   0  0  0  0  0  0  0  0  0  0  0  0
    9.9056  -14.9058   19.7003 N   0  0  0  0  0  0  0  0  0  0  0  0
   10.9169  -15.5520   20.4890 C   0  0  0  0  0  0  0  0  0  0  0  0
   10.4413  -16.0187   21.7889 C   0  0  0  0  0  0  0  0  0  0  0  0
    9.2534  -15.8431   22.1295 O   0  0  0  0  0  0  0  0  0  0  0  0
   11.2942  -16.6599   22.6604 O   0  0  0  0  0  0  0  0  0  0  0  0
  2  1  1  6
  3  2  1  0
  4  3  1  0
  5  6  2  0
  5  4  1  0
  7  2  1  0
  8  7  2  0
  9  5  1  0
 11 10  1  1
 11 12  1  0
 12  7  1  0
 13 11  1  0
 14 13  2  0
 15 13  1  0
 16 15  1  0
 17 16  1  0
 17 19  1  0
 18 17  2  0
M  END
$$$$
