EAG.pdb
     RDKit          3D

 19 18  0  0  1  0  0  0  0  0999 V2000
    9.5279  -16.1570   15.5904 N   0  0  0  0  0  0  0  0  0  0  0  0
    8.5851  -15.9553   16.6974 C   0  0  1  0  0  0  0  0  0  0  0  0
    8.4952  -17.2751   17.4141 C   0  0  0  0  0  0  0  0  0  0  0  0
    9.2692  -18.3820   16.7873 C   0  0  0  0  0  0  0  0  0  0  0  0
    9.1947  -19.6797   17.4747 C   0  0  0  0  0  0  0  0  0  0  0  0
    9.8803  -20.6413   17.0491 O   0  0  0  0  0  0  0  0  0  0  0  0
    9.0513  -14.8521   17.5589 C   0  0  0  0  0  0  0  0  0  0  0  0
   10.2516  -14.4998   17.6017 O   0  0  0  0  0  0  0  0  0  0  0  0
    8.3636  -19.8578   18.6048 O   0  0  0  0  0  0  0  0  0  0  0  0
    7.4381  -12.2019   19.7564 C   0  0  0  0  0  0  0  0  0  0  0  0
    8.5974  -13.0400   19.2607 C   0  0  2  0  0  0  0  0  0  0  0  0
    8.1593  -14.1125   18.4027 N   0  0  0  0  0  0  0  0  0  0  0  0
    9.3826  -13.5271   20.4151 C   0  0  0  0  0  0  0  0  0  0  0  0
    9.8751  -12.7410   21.2321 O   0  0  0  0  0  0  0  0  0  0  0  0
    9.5671  -14.9259   20.5768 N   0  0  0  0  0  0  0  0  0  0  0  0
   10.1618  -15.5152   21.7436 C   0  0  0  0  0  0  0  0  0  0  0  0
   10.2352  -16.9732   21.6946 C   0  0  0  0  0  0  0  0  0  0  0  0
    9.1943  -17.6582   21.6207 O   0  0  0  0  0  0  0  0  0  0  0  0
   11.4528  -17.6171   21.7292 O   0  0  0  0  0  0  0  0  0  0  0  0
  2  1  1  6
  3  2  1  0
  4  3  1  0
  5  6  2  0
  5  4  1  0
  7  2  1  0
  8  7  2  0
  9  5  1  0
 11 10  1  1
 11 12  1  0
 12  7  1  0
 13 11  1  0
 14 13  2  0
 15 13  1  0
 16 15  1  0
 17 16  1  0
 17 19  1  0
 18 17  2  0
M  END
$$$$
