EAG.pdb
     RDKit          3D

 19 18  0  0  1  0  0  0  0  0999 V2000
    7.6941  -14.9487   21.4351 N   0  0  0  0  0  0  0  0  0  0  0  0
    7.4712  -15.2447   22.8556 C   0  0  1  0  0  0  0  0  0  0  0  0
    8.3824  -16.3943   23.1898 C   0  0  0  0  0  0  0  0  0  0  0  0
    9.5337  -16.5711   22.2620 C   0  0  0  0  0  0  0  0  0  0  0  0
   10.7824  -17.0413   22.8796 C   0  0  0  0  0  0  0  0  0  0  0  0
   11.3840  -18.0231   22.3795 O   0  0  0  0  0  0  0  0  0  0  0  0
    7.7289  -14.0391   23.6659 C   0  0  0  0  0  0  0  0  0  0  0  0
    8.5414  -13.1561   23.3095 O   0  0  0  0  0  0  0  0  0  0  0  0
   11.3125  -16.4043   24.0253 O   0  0  0  0  0  0  0  0  0  0  0  0
    6.0778  -12.2026   26.4865 C   0  0  0  0  0  0  0  0  0  0  0  0
    7.3133  -12.6365   25.7264 C   0  0  2  0  0  0  0  0  0  0  0  0
    7.0651  -13.8012   24.9138 N   0  0  0  0  0  0  0  0  0  0  0  0
    8.4297  -12.8385   26.6746 C   0  0  0  0  0  0  0  0  0  0  0  0
    8.7743  -11.9464   27.4577 O   0  0  0  0  0  0  0  0  0  0  0  0
    9.1105  -14.0849   26.6755 N   0  0  0  0  0  0  0  0  0  0  0  0
   10.1628  -14.4102   27.5970 C   0  0  0  0  0  0  0  0  0  0  0  0
    9.9442  -15.6581   28.3240 C   0  0  0  0  0  0  0  0  0  0  0  0
   10.7426  -16.0227   29.2117 O   0  0  0  0  0  0  0  0  0  0  0  0
    8.8549  -16.4535   28.0433 O   0  0  0  0  0  0  0  0  0  0  0  0
  2  1  1  6
  3  2  1  0
  4  3  1  0
  5  6  2  0
  5  4  1  0
  7  2  1  0
  8  7  2  0
  9  5  1  0
 11 10  1  1
 11 12  1  0
 12  7  1  0
 13 11  1  0
 14 13  2  0
 15 13  1  0
 16 15  1  0
 17 16  1  0
 17 19  1  0
 18 17  2  0
M  END
$$$$
