EAG.pdb
     RDKit          3D

 19 18  0  0  1  0  0  0  0  0999 V2000
    8.1457  -13.3043   17.0628 N   0  0  0  0  0  0  0  0  0  0  0  0
    8.6956  -14.3983   17.8726 C   0  0  1  0  0  0  0  0  0  0  0  0
   10.0324  -14.7327   17.2687 C   0  0  0  0  0  0  0  0  0  0  0  0
   10.1925  -16.1525   16.8493 C   0  0  0  0  0  0  0  0  0  0  0  0
   11.4984  -16.5020   16.2710 C   0  0  0  0  0  0  0  0  0  0  0  0
   11.9334  -15.8457   15.2933 O   0  0  0  0  0  0  0  0  0  0  0  0
    8.7793  -13.9834   19.2859 C   0  0  0  0  0  0  0  0  0  0  0  0
    9.5952  -13.1205   19.6813 O   0  0  0  0  0  0  0  0  0  0  0  0
   12.2677  -17.5640   16.8000 O   0  0  0  0  0  0  0  0  0  0  0  0
    6.6358  -14.1091   22.3316 C   0  0  0  0  0  0  0  0  0  0  0  0
    8.0039  -14.1565   21.6847 C   0  0  2  0  0  0  0  0  0  0  0  0
    7.9312  -14.5421   20.2975 N   0  0  0  0  0  0  0  0  0  0  0  0
    8.8899  -15.0424   22.4700 C   0  0  0  0  0  0  0  0  0  0  0  0
    8.9901  -14.9241   23.6963 O   0  0  0  0  0  0  0  0  0  0  0  0
    9.6341  -16.0433   21.7908 N   0  0  0  0  0  0  0  0  0  0  0  0
   10.4877  -16.9844   22.4601 C   0  0  0  0  0  0  0  0  0  0  0  0
   11.7877  -16.4357   22.8376 C   0  0  0  0  0  0  0  0  0  0  0  0
   12.0711  -15.2464   22.5856 O   0  0  0  0  0  0  0  0  0  0  0  0
   12.7226  -17.2199   23.4772 O   0  0  0  0  0  0  0  0  0  0  0  0
  2  1  1  6
  3  2  1  0
  4  3  1  0
  5  6  2  0
  5  4  1  0
  7  2  1  0
  8  7  2  0
  9  5  1  0
 11 10  1  1
 11 12  1  0
 12  7  1  0
 13 11  1  0
 14 13  2  0
 15 13  1  0
 16 15  1  0
 17 16  1  0
 17 19  1  0
 18 17  2  0
M  END
$$$$
