EAG.pdb
     RDKit          3D

 19 18  0  0  1  0  0  0  0  0999 V2000
    8.2540  -13.7891   15.6712 N   0  0  0  0  0  0  0  0  0  0  0  0
    8.3629  -14.8412   16.6893 C   0  0  1  0  0  0  0  0  0  0  0  0
    9.5201  -15.7071   16.2718 C   0  0  0  0  0  0  0  0  0  0  0  0
    9.7947  -16.8618   17.1711 C   0  0  0  0  0  0  0  0  0  0  0  0
   10.9537  -17.6903   16.8075 C   0  0  0  0  0  0  0  0  0  0  0  0
   12.0013  -17.1351   16.3951 O   0  0  0  0  0  0  0  0  0  0  0  0
    8.5377  -14.2334   18.0222 C   0  0  0  0  0  0  0  0  0  0  0  0
    9.3780  -13.3316   18.2398 O   0  0  0  0  0  0  0  0  0  0  0  0
   10.9035  -19.0993   16.9158 O   0  0  0  0  0  0  0  0  0  0  0  0
    6.5129  -13.8150   21.0989 C   0  0  0  0  0  0  0  0  0  0  0  0
    7.8658  -14.0105   20.4480 C   0  0  2  0  0  0  0  0  0  0  0  0
    7.7562  -14.6367   19.1541 N   0  0  0  0  0  0  0  0  0  0  0  0
    8.7498  -14.7622   21.3645 C   0  0  0  0  0  0  0  0  0  0  0  0
    8.9524  -14.3743   22.5206 O   0  0  0  0  0  0  0  0  0  0  0  0
    9.3715  -15.9499   20.8958 N   0  0  0  0  0  0  0  0  0  0  0  0
   10.1057  -16.8458   21.7447 C   0  0  0  0  0  0  0  0  0  0  0  0
   11.5382  -16.5653   21.7981 C   0  0  0  0  0  0  0  0  0  0  0  0
   12.3011  -17.2888   22.4710 O   0  0  0  0  0  0  0  0  0  0  0  0
   12.0717  -15.4989   21.1080 O   0  0  0  0  0  0  0  0  0  0  0  0
  2  1  1  6
  3  2  1  0
  4  3  1  0
  5  6  2  0
  5  4  1  0
  7  2  1  0
  8  7  2  0
  9  5  1  0
 11 10  1  1
 11 12  1  0
 12  7  1  0
 13 11  1  0
 14 13  2  0
 15 13  1  0
 16 15  1  0
 17 16  1  0
 17 19  1  0
 18 17  2  0
M  END
$$$$
