EAG.pdb
     RDKit          3D

 19 18  0  0  1  0  0  0  0  0999 V2000
   11.3772  -16.3025   17.6048 N   0  0  0  0  0  0  0  0  0  0  0  0
   12.1759  -16.6450   18.7879 C   0  0  1  0  0  0  0  0  0  0  0  0
   13.6146  -16.4656   18.3858 C   0  0  0  0  0  0  0  0  0  0  0  0
   13.9806  -17.0783   17.0789 C   0  0  0  0  0  0  0  0  0  0  0  0
   15.3782  -16.8967   16.6599 C   0  0  0  0  0  0  0  0  0  0  0  0
   16.1766  -16.3007   17.4236 O   0  0  0  0  0  0  0  0  0  0  0  0
   11.7762  -15.7957   19.9261 C   0  0  0  0  0  0  0  0  0  0  0  0
   11.9443  -14.5554   19.9252 O   0  0  0  0  0  0  0  0  0  0  0  0
   15.8328  -17.3828   15.4123 O   0  0  0  0  0  0  0  0  0  0  0  0
    9.3642  -15.8797   22.6990 C   0  0  0  0  0  0  0  0  0  0  0  0
   10.7557  -15.5216   22.2216 C   0  0  2  0  0  0  0  0  0  0  0  0
   11.1695  -16.3367   21.1068 N   0  0  0  0  0  0  0  0  0  0  0  0
   11.7008  -15.5973   23.3562 C   0  0  0  0  0  0  0  0  0  0  0  0
   11.3165  -15.4447   24.5211 O   0  0  0  0  0  0  0  0  0  0  0  0
   13.0725  -15.8502   23.0893 N   0  0  0  0  0  0  0  0  0  0  0  0
   14.0803  -15.9014   24.1111 C   0  0  0  0  0  0  0  0  0  0  0  0
   15.4342  -16.0849   23.5944 C   0  0  0  0  0  0  0  0  0  0  0  0
   15.6402  -16.1481   22.3649 O   0  0  0  0  0  0  0  0  0  0  0  0
   16.5059  -16.1915   24.4536 O   0  0  0  0  0  0  0  0  0  0  0  0
  2  1  1  6
  3  2  1  0
  4  3  1  0
  5  6  2  0
  5  4  1  0
  7  2  1  0
  8  7  2  0
  9  5  1  0
 11 10  1  1
 11 12  1  0
 12  7  1  0
 13 11  1  0
 14 13  2  0
 15 13  1  0
 16 15  1  0
 17 16  1  0
 17 19  1  0
 18 17  2  0
M  END
$$$$
