IAF.pdb
     RDKit          3D

 25 25  0  0  1  0  0  0  0  0999 V2000
    6.2996  -21.7510   24.3193 C   0  0  0  0  0  0  0  0  0  0  0  0
    5.9052  -20.9616   23.1095 C   0  0  0  0  0  0  0  0  0  0  0  0
    6.6662  -19.6362   23.1655 C   0  0  2  0  0  0  0  0  0  0  0  0
    6.3127  -18.9334   24.4311 C   0  0  0  0  0  0  0  0  0  0  0  0
    6.2807  -18.7701   21.9781 C   0  0  2  0  0  0  0  0  0  0  0  0
    6.5380  -19.5431   20.7404 N   0  0  0  0  0  0  0  0  0  0  0  0
    7.1999  -17.6192   21.9318 C   0  0  0  0  0  0  0  0  0  0  0  0
    8.4329  -17.8222   21.7435 O   0  0  0  0  0  0  0  0  0  0  0  0
    6.8380  -13.9023   21.9138 C   0  0  0  0  0  0  0  0  0  0  0  0
    7.7059  -15.1553   21.9975 C   0  0  2  0  0  0  0  0  0  0  0  0
    6.7910  -16.2821   22.0835 N   0  0  0  0  0  0  0  0  0  0  0  0
    8.5385  -15.0255   23.2068 C   0  0  0  0  0  0  0  0  0  0  0  0
    9.5421  -14.2335   23.2424 O   0  0  0  0  0  0  0  0  0  0  0  0
    8.3032  -15.7497   24.4035 N   0  0  0  0  0  0  0  0  0  0  0  0
    9.1491  -15.6563   25.5772 C   0  0  1  0  0  0  0  0  0  0  0  0
    8.2754  -15.1960   26.7245 C   0  0  0  0  0  0  0  0  0  0  0  0
    7.9106  -13.7700   26.6342 C   0  0  0  0  0  0  0  0  0  0  0  0
    6.5939  -13.3968   26.4747 C   0  0  0  0  0  0  0  0  0  0  0  0
    6.2156  -12.0638   26.3861 C   0  0  0  0  0  0  0  0  0  0  0  0
    7.1685  -11.0818   26.4579 C   0  0  0  0  0  0  0  0  0  0  0  0
    8.5117  -11.4271   26.6195 C   0  0  0  0  0  0  0  0  0  0  0  0
    8.8533  -12.7671   26.7042 C   0  0  0  0  0  0  0  0  0  0  0  0
    9.8631  -16.8993   25.8688 C   0  0  0  0  0  0  0  0  0  0  0  0
   10.7459  -17.0589   26.9286 O   0  0  0  0  0  0  0  0  0  0  0  0
    9.6789  -17.8965   25.1245 O   0  0  0  0  0  0  0  0  0  0  0  0
  1  2  1  0
  2  3  1  0
  3  4  1  1
  3  5  1  0
  5  6  1  6
  5  7  1  0
  7  8  2  0
 10  9  1  1
 11  7  1  0
 11 10  1  0
 12 10  1  0
 12 13  2  0
 14 12  1  0
 15 14  1  0
 15 16  1  1
 17 18  2  0
 17 16  1  0
 19 18  1  0
 20 19  2  0
 21 20  1  0
 21 22  2  0
 22 17  1  0
 23 15  1  0
 24 23  1  0
 25 23  2  0
M  END
$$$$
