IAF.pdb
     RDKit          3D

 25 25  0  0  1  0  0  0  0  0999 V2000
    6.9352  -12.4764   19.0380 C   0  0  0  0  0  0  0  0  0  0  0  0
    7.2543  -13.8964   19.3905 C   0  0  0  0  0  0  0  0  0  0  0  0
    8.7712  -13.9911   19.5606 C   0  0  2  0  0  0  0  0  0  0  0  0
    9.4214  -13.6497   18.2639 C   0  0  0  0  0  0  0  0  0  0  0  0
    9.1570  -15.4036   19.9665 C   0  0  2  0  0  0  0  0  0  0  0  0
    8.4248  -16.3508   19.0933 N   0  0  0  0  0  0  0  0  0  0  0  0
    8.6536  -15.6429   21.3306 C   0  0  0  0  0  0  0  0  0  0  0  0
    8.9989  -14.8607   22.2611 O   0  0  0  0  0  0  0  0  0  0  0  0
    7.0267  -18.4939   23.0519 C   0  0  0  0  0  0  0  0  0  0  0  0
    7.4402  -17.0244   23.0482 C   0  0  2  0  0  0  0  0  0  0  0  0
    7.7955  -16.7025   21.6756 N   0  0  0  0  0  0  0  0  0  0  0  0
    8.5898  -16.8957   23.9617 C   0  0  0  0  0  0  0  0  0  0  0  0
    9.7796  -17.1633   23.5764 O   0  0  0  0  0  0  0  0  0  0  0  0
    8.4768  -16.4746   25.3114 N   0  0  0  0  0  0  0  0  0  0  0  0
    9.6114  -16.3165   26.2001 C   0  0  1  0  0  0  0  0  0  0  0  0
    9.8444  -14.8304   26.3701 C   0  0  0  0  0  0  0  0  0  0  0  0
    8.6152  -14.0902   26.7103 C   0  0  0  0  0  0  0  0  0  0  0  0
    8.5511  -13.3397   27.8641 C   0  0  0  0  0  0  0  0  0  0  0  0
    7.4099  -12.6308   28.2147 C   0  0  0  0  0  0  0  0  0  0  0  0
    6.3095  -12.6700   27.3993 C   0  0  0  0  0  0  0  0  0  0  0  0
    6.3424  -13.4213   26.2229 C   0  0  0  0  0  0  0  0  0  0  0  0
    7.4978  -14.1164   25.9041 C   0  0  0  0  0  0  0  0  0  0  0  0
    9.4428  -17.0155   27.4739 C   0  0  0  0  0  0  0  0  0  0  0  0
    8.2987  -17.7167   27.8307 O   0  0  0  0  0  0  0  0  0  0  0  0
   10.3815  -16.9913   28.3110 O   0  0  0  0  0  0  0  0  0  0  0  0
  1  2  1  0
  2  3  1  0
  3  4  1  6
  3  5  1  0
  5  6  1  6
  5  7  1  0
  7  8  2  0
 10  9  1  6
 11  7  1  0
 11 10  1  0
 12 10  1  0
 12 13  2  0
 14 12  1  0
 15 14  1  0
 15 16  1  1
 17 18  2  0
 17 16  1  0
 19 18  1  0
 20 19  2  0
 21 20  1  0
 21 22  2  0
 22 17  1  0
 23 15  1  0
 24 23  1  0
 25 23  2  0
M  END
$$$$
