IAF.pdb
     RDKit          3D

 25 25  0  0  1  0  0  0  0  0999 V2000
    7.7563  -12.4723   19.0924 C   0  0  0  0  0  0  0  0  0  0  0  0
    7.4292  -13.9335   19.0782 C   0  0  0  0  0  0  0  0  0  0  0  0
    7.4498  -14.4164   20.5292 C   0  0  2  0  0  0  0  0  0  0  0  0
    8.8236  -14.2319   21.0765 C   0  0  0  0  0  0  0  0  0  0  0  0
    7.0722  -15.8870   20.5882 C   0  0  2  0  0  0  0  0  0  0  0  0
    5.7286  -16.0430   19.9833 N   0  0  0  0  0  0  0  0  0  0  0  0
    6.9222  -16.2659   22.0044 C   0  0  0  0  0  0  0  0  0  0  0  0
    6.2437  -15.5259   22.7719 O   0  0  0  0  0  0  0  0  0  0  0  0
    7.6504  -19.1918   24.1626 C   0  0  0  0  0  0  0  0  0  0  0  0
    7.5012  -17.6809   24.0027 C   0  0  2  0  0  0  0  0  0  0  0  0
    7.4917  -17.4195   22.5725 N   0  0  0  0  0  0  0  0  0  0  0  0
    8.6581  -17.0584   24.6710 C   0  0  0  0  0  0  0  0  0  0  0  0
    9.7507  -16.8390   24.0436 O   0  0  0  0  0  0  0  0  0  0  0  0
    8.6576  -16.6599   26.0322 N   0  0  0  0  0  0  0  0  0  0  0  0
    9.8217  -16.1268   26.7125 C   0  0  1  0  0  0  0  0  0  0  0  0
    9.9094  -14.6558   26.3659 C   0  0  0  0  0  0  0  0  0  0  0  0
    8.7313  -13.8884   26.8106 C   0  0  0  0  0  0  0  0  0  0  0  0
    7.5890  -13.8578   26.0407 C   0  0  0  0  0  0  0  0  0  0  0  0
    6.4622  -13.1457   26.4293 C   0  0  0  0  0  0  0  0  0  0  0  0
    6.4731  -12.4493   27.6092 C   0  0  0  0  0  0  0  0  0  0  0  0
    7.6152  -12.4601   28.4122 C   0  0  0  0  0  0  0  0  0  0  0  0
    8.7216  -13.1814   27.9936 C   0  0  0  0  0  0  0  0  0  0  0  0
    9.8043  -16.3717   28.1545 C   0  0  0  0  0  0  0  0  0  0  0  0
    8.8109  -17.0870   28.8100 O   0  0  0  0  0  0  0  0  0  0  0  0
   10.7385  -15.9137   28.8615 O   0  0  0  0  0  0  0  0  0  0  0  0
  1  2  1  0
  2  3  1  0
  3  4  1  6
  3  5  1  0
  5  6  1  6
  5  7  1  0
  7  8  2  0
 10  9  1  6
 11  7  1  0
 11 10  1  0
 12 10  1  0
 12 13  2  0
 14 12  1  0
 15 14  1  0
 15 16  1  1
 17 18  2  0
 17 16  1  0
 19 18  1  0
 20 19  2  0
 21 20  1  0
 21 22  2  0
 22 17  1  0
 23 15  1  0
 24 23  1  0
 25 23  2  0
M  END
$$$$
