IAF.pdb
     RDKit          3D

 25 25  0  0  1  0  0  0  0  0999 V2000
    8.1319  -12.7010   20.0565 C   0  0  0  0  0  0  0  0  0  0  0  0
    8.0568  -13.6953   21.1736 C   0  0  0  0  0  0  0  0  0  0  0  0
    7.6164  -15.0277   20.5655 C   0  0  2  0  0  0  0  0  0  0  0  0
    6.2232  -14.8850   20.0563 C   0  0  0  0  0  0  0  0  0  0  0  0
    7.6621  -16.1172   21.6235 C   0  0  2  0  0  0  0  0  0  0  0  0
    6.9137  -15.6398   22.8100 N   0  0  0  0  0  0  0  0  0  0  0  0
    9.0598  -16.2706   22.0645 C   0  0  0  0  0  0  0  0  0  0  0  0
    9.8685  -16.9141   21.3373 O   0  0  0  0  0  0  0  0  0  0  0  0
   11.7610  -14.7975   23.2663 C   0  0  0  0  0  0  0  0  0  0  0  0
   10.9209  -15.9835   23.7333 C   0  0  2  0  0  0  0  0  0  0  0  0
    9.5674  -15.7370   23.2626 N   0  0  0  0  0  0  0  0  0  0  0  0
   10.9973  -16.0156   25.2049 C   0  0  0  0  0  0  0  0  0  0  0  0
   12.1195  -15.9512   25.8149 O   0  0  0  0  0  0  0  0  0  0  0  0
    9.8613  -16.1182   26.0480 N   0  0  0  0  0  0  0  0  0  0  0  0
    9.9395  -16.1920   27.4938 C   0  0  1  0  0  0  0  0  0  0  0  0
    8.5973  -15.7523   28.0387 C   0  0  0  0  0  0  0  0  0  0  0  0
    8.1295  -14.4796   27.4590 C   0  0  0  0  0  0  0  0  0  0  0  0
    7.0584  -14.4611   26.5925 C   0  0  0  0  0  0  0  0  0  0  0  0
    6.5922  -13.2810   26.0287 C   0  0  0  0  0  0  0  0  0  0  0  0
    7.2054  -12.0945   26.3342 C   0  0  0  0  0  0  0  0  0  0  0  0
    8.2934  -12.0793   27.2091 C   0  0  0  0  0  0  0  0  0  0  0  0
    8.7321  -13.2756   27.7532 C   0  0  0  0  0  0  0  0  0  0  0  0
   10.3461  -17.5108   27.9787 C   0  0  0  0  0  0  0  0  0  0  0  0
   10.4747  -18.6315   27.1689 O   0  0  0  0  0  0  0  0  0  0  0  0
   10.5993  -17.6587   29.2020 O   0  0  0  0  0  0  0  0  0  0  0  0
  1  2  1  0
  2  3  1  0
  3  4  1  1
  3  5  1  0
  5  6  1  1
  5  7  1  0
  7  8  2  0
 10  9  1  1
 11  7  1  0
 11 10  1  0
 12 10  1  0
 12 13  2  0
 14 12  1  0
 15 14  1  0
 15 16  1  1
 17 18  2  0
 17 16  1  0
 19 18  1  0
 20 19  2  0
 21 20  1  0
 21 22  2  0
 22 17  1  0
 23 15  1  0
 24 23  1  0
 25 23  2  0
M  END
$$$$
