IAF.pdb
     RDKit          3D

 25 25  0  0  1  0  0  0  0  0999 V2000
    7.5893  -11.3936   20.3103 C   0  0  0  0  0  0  0  0  0  0  0  0
    7.4095  -12.8206   19.8938 C   0  0  0  0  0  0  0  0  0  0  0  0
    7.7104  -13.6905   21.1151 C   0  0  2  0  0  0  0  0  0  0  0  0
    9.1313  -13.4828   21.5134 C   0  0  0  0  0  0  0  0  0  0  0  0
    7.4869  -15.1540   20.7732 C   0  0  2  0  0  0  0  0  0  0  0  0
    6.0783  -15.3173   20.3431 N   0  0  0  0  0  0  0  0  0  0  0  0
    7.6230  -15.9407   22.0118 C   0  0  0  0  0  0  0  0  0  0  0  0
    6.7563  -15.8116   22.9224 O   0  0  0  0  0  0  0  0  0  0  0  0
    9.7605  -18.7430   23.2090 C   0  0  0  0  0  0  0  0  0  0  0  0
    8.8168  -17.5794   23.5020 C   0  0  2  0  0  0  0  0  0  0  0  0
    8.6713  -16.8463   22.2548 N   0  0  0  0  0  0  0  0  0  0  0  0
    9.4497  -16.7625   24.5530 C   0  0  0  0  0  0  0  0  0  0  0  0
   10.4756  -16.0395   24.3070 O   0  0  0  0  0  0  0  0  0  0  0  0
    8.9864  -16.7104   25.8926 N   0  0  0  0  0  0  0  0  0  0  0  0
    9.6691  -15.9908   26.9500 C   0  0  1  0  0  0  0  0  0  0  0  0
    8.6122  -15.2584   27.7490 C   0  0  0  0  0  0  0  0  0  0  0  0
    8.0142  -14.1289   27.0135 C   0  0  0  0  0  0  0  0  0  0  0  0
    6.7844  -14.2656   26.4074 C   0  0  0  0  0  0  0  0  0  0  0  0
    6.1926  -13.2229   25.7071 C   0  0  0  0  0  0  0  0  0  0  0  0
    6.8389  -12.0188   25.6083 C   0  0  0  0  0  0  0  0  0  0  0  0
    8.0866  -11.8481   26.2113 C   0  0  0  0  0  0  0  0  0  0  0  0
    8.6476  -12.9099   26.9022 C   0  0  0  0  0  0  0  0  0  0  0  0
   10.5122  -16.8533   27.7777 C   0  0  0  0  0  0  0  0  0  0  0  0
   11.5254  -16.3878   28.6052 O   0  0  0  0  0  0  0  0  0  0  0  0
   10.3227  -18.0966   27.7517 O   0  0  0  0  0  0  0  0  0  0  0  0
  1  2  1  0
  2  3  1  0
  3  4  1  6
  3  5  1  0
  5  6  1  1
  5  7  1  0
  7  8  2  0
 10  9  1  6
 11  7  1  0
 11 10  1  0
 12 10  1  0
 12 13  2  0
 14 12  1  0
 15 14  1  0
 15 16  1  1
 17 18  2  0
 17 16  1  0
 19 18  1  0
 20 19  2  0
 21 20  1  0
 21 22  2  0
 22 17  1  0
 23 15  1  0
 24 23  1  0
 25 23  2  0
M  END
$$$$
