IAF.pdb
     RDKit          3D

 25 25  0  0  1  0  0  0  0  0999 V2000
    8.7569  -11.7227   20.4708 C   0  0  0  0  0  0  0  0  0  0  0  0
    9.0990  -13.1791   20.5361 C   0  0  0  0  0  0  0  0  0  0  0  0
    7.9670  -13.9417   19.8462 C   0  0  2  0  0  0  0  0  0  0  0  0
    6.7276  -13.8012   20.6616 C   0  0  0  0  0  0  0  0  0  0  0  0
    8.3335  -15.4114   19.7271 C   0  0  2  0  0  0  0  0  0  0  0  0
    7.2948  -16.0811   18.9095 N   0  0  0  0  0  0  0  0  0  0  0  0
    8.2428  -16.0172   21.0674 C   0  0  0  0  0  0  0  0  0  0  0  0
    7.1371  -15.9980   21.6790 O   0  0  0  0  0  0  0  0  0  0  0  0
   10.1749  -18.5054   22.9317 C   0  0  0  0  0  0  0  0  0  0  0  0
    9.1876  -17.3424   22.9863 C   0  0  2  0  0  0  0  0  0  0  0  0
    9.3237  -16.6303   21.7260 N   0  0  0  0  0  0  0  0  0  0  0  0
    9.5678  -16.5052   24.1383 C   0  0  0  0  0  0  0  0  0  0  0  0
   10.5206  -15.6557   24.0584 O   0  0  0  0  0  0  0  0  0  0  0  0
    8.9256  -16.5691   25.4013 N   0  0  0  0  0  0  0  0  0  0  0  0
    9.3973  -15.8652   26.5778 C   0  0  1  0  0  0  0  0  0  0  0  0
    8.1768  -15.4413   27.3665 C   0  0  0  0  0  0  0  0  0  0  0  0
    7.4892  -14.2757   26.7809 C   0  0  0  0  0  0  0  0  0  0  0  0
    6.2650  -14.4254   26.1666 C   0  0  0  0  0  0  0  0  0  0  0  0
    5.5903  -13.3496   25.6050 C   0  0  0  0  0  0  0  0  0  0  0  0
    6.1464  -12.0984   25.6563 C   0  0  0  0  0  0  0  0  0  0  0  0
    7.3858  -11.9133   26.2718 C   0  0  0  0  0  0  0  0  0  0  0  0
    8.0310  -13.0091   26.8217 C   0  0  0  0  0  0  0  0  0  0  0  0
   10.3444  -16.6477   27.3717 C   0  0  0  0  0  0  0  0  0  0  0  0
   10.6177  -17.9917   27.1542 O   0  0  0  0  0  0  0  0  0  0  0  0
   10.9592  -16.0859   28.3145 O   0  0  0  0  0  0  0  0  0  0  0  0
  1  2  1  0
  2  3  1  0
  3  4  1  1
  3  5  1  0
  5  6  1  6
  5  7  1  0
  7  8  2  0
 10  9  1  6
 11  7  1  0
 11 10  1  0
 12 10  1  0
 12 13  2  0
 14 12  1  0
 15 14  1  0
 15 16  1  1
 17 18  2  0
 17 16  1  0
 19 18  1  0
 20 19  2  0
 21 20  1  0
 21 22  2  0
 22 17  1  0
 23 15  1  0
 24 23  1  0
 25 23  2  0
M  END
$$$$
