IAF.pdb
     RDKit          3D

 25 25  0  0  1  0  0  0  0  0999 V2000
    7.8283  -11.5511   19.8366 C   0  0  0  0  0  0  0  0  0  0  0  0
    7.8610  -12.9874   19.4147 C   0  0  0  0  0  0  0  0  0  0  0  0
    7.7254  -13.8347   20.6806 C   0  0  2  0  0  0  0  0  0  0  0  0
    8.8647  -13.5242   21.5897 C   0  0  0  0  0  0  0  0  0  0  0  0
    7.7514  -15.3102   20.3185 C   0  0  2  0  0  0  0  0  0  0  0  0
    6.5512  -15.6057   19.5012 N   0  0  0  0  0  0  0  0  0  0  0  0
    7.5953  -16.0901   21.5590 C   0  0  0  0  0  0  0  0  0  0  0  0
    6.4902  -16.0598   22.1713 O   0  0  0  0  0  0  0  0  0  0  0  0
    9.1389  -18.9559   23.1804 C   0  0  0  0  0  0  0  0  0  0  0  0
    8.4599  -17.6025   23.3745 C   0  0  2  0  0  0  0  0  0  0  0  0
    8.6116  -16.8846   22.1193 N   0  0  0  0  0  0  0  0  0  0  0  0
    9.1526  -16.9258   24.4858 C   0  0  0  0  0  0  0  0  0  0  0  0
   10.2908  -16.3669   24.3191 O   0  0  0  0  0  0  0  0  0  0  0  0
    8.6288  -16.8394   25.8011 N   0  0  0  0  0  0  0  0  0  0  0  0
    9.3195  -16.1910   26.8986 C   0  0  1  0  0  0  0  0  0  0  0  0
    8.2827  -15.4218   27.6892 C   0  0  0  0  0  0  0  0  0  0  0  0
    7.8131  -14.2085   26.9952 C   0  0  0  0  0  0  0  0  0  0  0  0
    6.5416  -14.1564   26.4669 C   0  0  0  0  0  0  0  0  0  0  0  0
    6.0674  -13.0303   25.8075 C   0  0  0  0  0  0  0  0  0  0  0  0
    6.8764  -11.9329   25.6713 C   0  0  0  0  0  0  0  0  0  0  0  0
    8.1703  -11.9538   26.1956 C   0  0  0  0  0  0  0  0  0  0  0  0
    8.6106  -13.0942   26.8475 C   0  0  0  0  0  0  0  0  0  0  0  0
   10.0870  -17.1240   27.7232 C   0  0  0  0  0  0  0  0  0  0  0  0
   11.1090  -16.7431   28.5826 O   0  0  0  0  0  0  0  0  0  0  0  0
    9.8193  -18.3517   27.6639 O   0  0  0  0  0  0  0  0  0  0  0  0
  1  2  1  0
  2  3  1  0
  3  4  1  1
  3  5  1  0
  5  6  1  6
  5  7  1  0
  7  8  2  0
 10  9  1  6
 11  7  1  0
 11 10  1  0
 12 10  1  0
 12 13  2  0
 14 12  1  0
 15 14  1  0
 15 16  1  1
 17 18  2  0
 17 16  1  0
 19 18  1  0
 20 19  2  0
 21 20  1  0
 21 22  2  0
 22 17  1  0
 23 15  1  0
 24 23  1  0
 25 23  2  0
M  END
$$$$
