IAF.pdb
     RDKit          3D

 25 25  0  0  1  0  0  0  0  0999 V2000
    8.2969  -12.2212   19.0230 C   0  0  0  0  0  0  0  0  0  0  0  0
    7.8429  -13.6439   18.9127 C   0  0  0  0  0  0  0  0  0  0  0  0
    7.9171  -14.2531   20.3136 C   0  0  2  0  0  0  0  0  0  0  0  0
    9.3253  -14.1776   20.7953 C   0  0  0  0  0  0  0  0  0  0  0  0
    7.4723  -15.7052   20.2684 C   0  0  2  0  0  0  0  0  0  0  0  0
    6.0388  -15.7372   19.8945 N   0  0  0  0  0  0  0  0  0  0  0  0
    7.5435  -16.2499   21.6358 C   0  0  0  0  0  0  0  0  0  0  0  0
    6.8302  -15.7343   22.5426 O   0  0  0  0  0  0  0  0  0  0  0  0
    8.9764  -19.2559   23.2760 C   0  0  0  0  0  0  0  0  0  0  0  0
    8.4598  -17.8227   23.3729 C   0  0  2  0  0  0  0  0  0  0  0  0
    8.3658  -17.3282   22.0089 N   0  0  0  0  0  0  0  0  0  0  0  0
    9.4388  -17.0624   24.1705 C   0  0  0  0  0  0  0  0  0  0  0  0
   10.5644  -16.7055   23.6792 O   0  0  0  0  0  0  0  0  0  0  0  0
    9.2211  -16.6720   25.5166 N   0  0  0  0  0  0  0  0  0  0  0  0
   10.2292  -16.0331   26.3396 C   0  0  1  0  0  0  0  0  0  0  0  0
   10.1115  -14.5406   26.1154 C   0  0  0  0  0  0  0  0  0  0  0  0
    8.8151  -13.9928   26.5557 C   0  0  0  0  0  0  0  0  0  0  0  0
    8.7470  -13.1596   27.6510 C   0  0  0  0  0  0  0  0  0  0  0  0
    7.5435  -12.6264   28.0926 C   0  0  0  0  0  0  0  0  0  0  0  0
    6.3833  -12.9293   27.4296 C   0  0  0  0  0  0  0  0  0  0  0  0
    6.4185  -13.7707   26.3159 C   0  0  0  0  0  0  0  0  0  0  0  0
    7.6370  -14.2848   25.9030 C   0  0  0  0  0  0  0  0  0  0  0  0
   10.1364  -16.4055   27.7511 C   0  0  0  0  0  0  0  0  0  0  0  0
   11.0174  -15.9671   28.7308 O   0  0  0  0  0  0  0  0  0  0  0  0
    9.2076  -17.1697   28.1197 O   0  0  0  0  0  0  0  0  0  0  0  0
  1  2  1  0
  2  3  1  0
  3  4  1  6
  3  5  1  0
  5  6  1  1
  5  7  1  0
  7  8  2  0
 10  9  1  6
 11  7  1  0
 11 10  1  0
 12 10  1  0
 12 13  2  0
 14 12  1  0
 15 14  1  0
 15 16  1  1
 17 18  2  0
 17 16  1  0
 19 18  1  0
 20 19  2  0
 21 20  1  0
 21 22  2  0
 22 17  1  0
 23 15  1  0
 24 23  1  0
 25 23  2  0
M  END
$$$$
