IAF.pdb
     RDKit          3D

 25 25  0  0  1  0  0  0  0  0999 V2000
    7.3456  -11.7490   20.0079 C   0  0  0  0  0  0  0  0  0  0  0  0
    7.5912  -13.1738   19.6181 C   0  0  0  0  0  0  0  0  0  0  0  0
    7.8023  -13.9667   20.9088 C   0  0  2  0  0  0  0  0  0  0  0  0
    9.0076  -13.4357   21.6059 C   0  0  0  0  0  0  0  0  0  0  0  0
    8.0095  -15.4362   20.5828 C   0  0  2  0  0  0  0  0  0  0  0  0
    6.7806  -15.9409   19.9265 N   0  0  0  0  0  0  0  0  0  0  0  0
    8.1207  -16.1766   21.8520 C   0  0  0  0  0  0  0  0  0  0  0  0
    7.1094  -16.2655   22.6045 O   0  0  0  0  0  0  0  0  0  0  0  0
   10.4907  -18.5963   23.3268 C   0  0  0  0  0  0  0  0  0  0  0  0
    9.3797  -17.5688   23.5277 C   0  0  2  0  0  0  0  0  0  0  0  0
    9.2986  -16.8067   22.2921 N   0  0  0  0  0  0  0  0  0  0  0  0
    9.7706  -16.7265   24.6723 C   0  0  0  0  0  0  0  0  0  0  0  0
   10.6383  -15.7951   24.5480 O   0  0  0  0  0  0  0  0  0  0  0  0
    9.2313  -16.8737   25.9759 N   0  0  0  0  0  0  0  0  0  0  0  0
    9.7174  -16.1463   27.1320 C   0  0  1  0  0  0  0  0  0  0  0  0
    8.5135  -15.5339   27.8155 C   0  0  0  0  0  0  0  0  0  0  0  0
    7.9876  -14.3530   27.1061 C   0  0  0  0  0  0  0  0  0  0  0  0
    6.7625  -14.4064   26.4778 C   0  0  0  0  0  0  0  0  0  0  0  0
    6.2376  -13.3135   25.8010 C   0  0  0  0  0  0  0  0  0  0  0  0
    6.9476  -12.1428   25.7488 C   0  0  0  0  0  0  0  0  0  0  0  0
    8.1924  -12.0562   26.3754 C   0  0  0  0  0  0  0  0  0  0  0  0
    8.6856  -13.1663   27.0417 C   0  0  0  0  0  0  0  0  0  0  0  0
   10.5230  -16.9725   28.0310 C   0  0  0  0  0  0  0  0  0  0  0  0
   10.5916  -18.3576   27.9622 O   0  0  0  0  0  0  0  0  0  0  0  0
   11.2028  -16.4115   28.9285 O   0  0  0  0  0  0  0  0  0  0  0  0
  1  2  1  0
  2  3  1  0
  3  4  1  6
  3  5  1  0
  5  6  1  1
  5  7  1  0
  7  8  2  0
 10  9  1  6
 11  7  1  0
 11 10  1  0
 12 10  1  0
 12 13  2  0
 14 12  1  0
 15 14  1  0
 15 16  1  1
 17 18  2  0
 17 16  1  0
 19 18  1  0
 20 19  2  0
 21 20  1  0
 21 22  2  0
 22 17  1  0
 23 15  1  0
 24 23  1  0
 25 23  2  0
M  END
$$$$
