IAF.pdb
     RDKit          3D

 25 25  0  0  1  0  0  0  0  0999 V2000
    7.5874  -11.5210   19.6634 C   0  0  0  0  0  0  0  0  0  0  0  0
    7.8601  -12.9298   19.2354 C   0  0  0  0  0  0  0  0  0  0  0  0
    7.8937  -13.7891   20.5001 C   0  0  2  0  0  0  0  0  0  0  0  0
    8.9866  -13.2967   21.3854 C   0  0  0  0  0  0  0  0  0  0  0  0
    8.1532  -15.2399   20.1307 C   0  0  2  0  0  0  0  0  0  0  0  0
    7.0209  -15.7143   19.3009 N   0  0  0  0  0  0  0  0  0  0  0  0
    8.1109  -16.0427   21.3657 C   0  0  0  0  0  0  0  0  0  0  0  0
    7.0329  -16.1076   22.0221 O   0  0  0  0  0  0  0  0  0  0  0  0
   10.1042  -18.7565   22.8243 C   0  0  0  0  0  0  0  0  0  0  0  0
    9.1318  -17.6026   23.0555 C   0  0  2  0  0  0  0  0  0  0  0  0
    9.2095  -16.7588   21.8740 N   0  0  0  0  0  0  0  0  0  0  0  0
    9.5785  -16.8964   24.2697 C   0  0  0  0  0  0  0  0  0  0  0  0
   10.5464  -16.0612   24.2362 O   0  0  0  0  0  0  0  0  0  0  0  0
    8.9876  -17.0788   25.5462 N   0  0  0  0  0  0  0  0  0  0  0  0
    9.4664  -16.4311   26.7518 C   0  0  1  0  0  0  0  0  0  0  0  0
    8.2591  -15.8579   27.4629 C   0  0  0  0  0  0  0  0  0  0  0  0
    7.7872  -14.5937   26.8682 C   0  0  0  0  0  0  0  0  0  0  0  0
    8.4624  -13.4168   27.1077 C   0  0  0  0  0  0  0  0  0  0  0  0
    8.0457  -12.2091   26.5639 C   0  0  0  0  0  0  0  0  0  0  0  0
    6.9332  -12.1727   25.7649 C   0  0  0  0  0  0  0  0  0  0  0  0
    6.2268  -13.3481   25.5028 C   0  0  0  0  0  0  0  0  0  0  0  0
    6.6710  -14.5354   26.0620 C   0  0  0  0  0  0  0  0  0  0  0  0
   10.2595  -17.3186   27.6021 C   0  0  0  0  0  0  0  0  0  0  0  0
   11.0891  -16.8789   28.6252 O   0  0  0  0  0  0  0  0  0  0  0  0
   10.1995  -18.5603   27.4101 O   0  0  0  0  0  0  0  0  0  0  0  0
  1  2  1  0
  2  3  1  0
  3  4  1  1
  3  5  1  0
  5  6  1  6
  5  7  1  0
  7  8  2  0
 10  9  1  6
 11  7  1  0
 11 10  1  0
 12 10  1  0
 12 13  2  0
 14 12  1  0
 15 14  1  0
 15 16  1  1
 17 18  2  0
 17 16  1  0
 19 18  1  0
 20 19  2  0
 21 20  1  0
 21 22  2  0
 22 17  1  0
 23 15  1  0
 24 23  1  0
 25 23  2  0
M  END
$$$$
