IAF.pdb
     RDKit          3D

 25 25  0  0  1  0  0  0  0  0999 V2000
    5.5216  -21.2781   22.9135 C   0  0  0  0  0  0  0  0  0  0  0  0
    5.3619  -20.3225   21.7718 C   0  0  0  0  0  0  0  0  0  0  0  0
    6.3122  -19.1513   22.0249 C   0  0  2  0  0  0  0  0  0  0  0  0
    5.8415  -18.4026   23.2244 C   0  0  0  0  0  0  0  0  0  0  0  0
    6.3224  -18.2261   20.8197 C   0  0  2  0  0  0  0  0  0  0  0  0
    6.7366  -19.0153   19.6359 N   0  0  0  0  0  0  0  0  0  0  0  0
    7.3798  -17.2199   21.0224 C   0  0  0  0  0  0  0  0  0  0  0  0
    8.5904  -17.5774   20.9631 O   0  0  0  0  0  0  0  0  0  0  0  0
    7.5683  -13.5202   21.4432 C   0  0  0  0  0  0  0  0  0  0  0  0
    8.1752  -14.9094   21.6221 C   0  0  2  0  0  0  0  0  0  0  0  0
    7.1297  -15.8601   21.2802 N   0  0  0  0  0  0  0  0  0  0  0  0
    8.5869  -15.0238   23.0328 C   0  0  0  0  0  0  0  0  0  0  0  0
    9.6246  -14.4208   23.4746 O   0  0  0  0  0  0  0  0  0  0  0  0
    7.8847  -15.7929   23.9957 N   0  0  0  0  0  0  0  0  0  0  0  0
    8.3151  -15.9423   25.3720 C   0  0  1  0  0  0  0  0  0  0  0  0
    7.1846  -15.4520   26.2514 C   0  0  0  0  0  0  0  0  0  0  0  0
    7.1544  -13.9838   26.3850 C   0  0  0  0  0  0  0  0  0  0  0  0
    8.2884  -13.2948   26.7563 C   0  0  0  0  0  0  0  0  0  0  0  0
    8.2951  -11.9130   26.8915 C   0  0  0  0  0  0  0  0  0  0  0  0
    7.1484  -11.2022   26.6519 C   0  0  0  0  0  0  0  0  0  0  0  0
    5.9824  -11.8708   26.2740 C   0  0  0  0  0  0  0  0  0  0  0  0
    6.0118  -13.2502   26.1488 C   0  0  0  0  0  0  0  0  0  0  0  0
    8.7376  -17.3049   25.6952 C   0  0  0  0  0  0  0  0  0  0  0  0
    9.4222  -17.6532   26.8520 O   0  0  0  0  0  0  0  0  0  0  0  0
    8.4734  -18.2323   24.8874 O   0  0  0  0  0  0  0  0  0  0  0  0
  1  2  1  0
  2  3  1  0
  3  4  1  1
  3  5  1  0
  5  6  1  6
  5  7  1  0
  7  8  2  0
 10  9  1  1
 11  7  1  0
 11 10  1  0
 12 10  1  0
 12 13  2  0
 14 12  1  0
 15 14  1  0
 15 16  1  1
 17 18  2  0
 17 16  1  0
 19 18  1  0
 20 19  2  0
 21 20  1  0
 21 22  2  0
 22 17  1  0
 23 15  1  0
 24 23  1  0
 25 23  2  0
M  END
$$$$
