IAF.pdb
     RDKit          3D

 25 25  0  0  1  0  0  0  0  0999 V2000
    7.1203  -12.4349   22.1407 C   0  0  0  0  0  0  0  0  0  0  0  0
    7.1456  -13.9082   21.8743 C   0  0  0  0  0  0  0  0  0  0  0  0
    7.9463  -14.1225   20.5889 C   0  0  2  0  0  0  0  0  0  0  0  0
    7.2081  -13.4987   19.4546 C   0  0  0  0  0  0  0  0  0  0  0  0
    8.1152  -15.6100   20.3290 C   0  0  2  0  0  0  0  0  0  0  0  0
    6.7702  -16.2317   20.3158 N   0  0  0  0  0  0  0  0  0  0  0  0
    8.8197  -16.2001   21.4810 C   0  0  0  0  0  0  0  0  0  0  0  0
    8.3343  -17.2229   22.0425 O   0  0  0  0  0  0  0  0  0  0  0  0
   12.2639  -15.7270   22.8241 C   0  0  0  0  0  0  0  0  0  0  0  0
   10.9463  -16.4973   22.7926 C   0  0  2  0  0  0  0  0  0  0  0  0
   10.0216  -15.6948   22.0084 N   0  0  0  0  0  0  0  0  0  0  0  0
   10.4998  -16.6490   24.1891 C   0  0  0  0  0  0  0  0  0  0  0  0
   11.2529  -17.1822   25.0747 O   0  0  0  0  0  0  0  0  0  0  0  0
    9.2292  -16.2271   24.6573 N   0  0  0  0  0  0  0  0  0  0  0  0
    8.7479  -16.4726   26.0028 C   0  0  1  0  0  0  0  0  0  0  0  0
    7.3333  -15.9389   26.0777 C   0  0  0  0  0  0  0  0  0  0  0  0
    7.2757  -14.4664   26.1321 C   0  0  0  0  0  0  0  0  0  0  0  0
    6.7606  -13.7500   25.0738 C   0  0  0  0  0  0  0  0  0  0  0  0
    6.6915  -12.3634   25.0919 C   0  0  0  0  0  0  0  0  0  0  0  0
    7.1448  -11.6757   26.1868 C   0  0  0  0  0  0  0  0  0  0  0  0
    7.6726  -12.3722   27.2757 C   0  0  0  0  0  0  0  0  0  0  0  0
    7.7263  -13.7557   27.2236 C   0  0  0  0  0  0  0  0  0  0  0  0
    8.8480  -17.8771   26.3992 C   0  0  0  0  0  0  0  0  0  0  0  0
    8.9439  -18.9333   25.5029 O   0  0  0  0  0  0  0  0  0  0  0  0
    8.8488  -18.1659   27.6235 O   0  0  0  0  0  0  0  0  0  0  0  0
  1  2  1  0
  2  3  1  0
  3  4  1  6
  3  5  1  0
  5  6  1  1
  5  7  1  0
  7  8  2  0
 10  9  1  1
 11  7  1  0
 11 10  1  0
 12 10  1  0
 12 13  2  0
 14 12  1  0
 15 14  1  0
 15 16  1  6
 17 18  2  0
 17 16  1  0
 19 18  1  0
 20 19  2  0
 21 20  1  0
 21 22  2  0
 22 17  1  0
 23 15  1  0
 24 23  1  0
 25 23  2  0
M  END
$$$$
