IAF.pdb
     RDKit          3D

 25 25  0  0  1  0  0  0  0  0999 V2000
    6.9411  -11.9492   27.3252 C   0  0  0  0  0  0  0  0  0  0  0  0
    6.1976  -12.8730   26.4109 C   0  0  0  0  0  0  0  0  0  0  0  0
    7.2224  -13.8339   25.8064 C   0  0  2  0  0  0  0  0  0  0  0  0
    8.2111  -13.0462   25.0173 C   0  0  0  0  0  0  0  0  0  0  0  0
    6.5219  -14.8286   24.8961 C   0  0  2  0  0  0  0  0  0  0  0  0
    5.4730  -15.5165   25.6850 N   0  0  0  0  0  0  0  0  0  0  0  0
    7.4933  -15.8719   24.5225 C   0  0  0  0  0  0  0  0  0  0  0  0
    7.7939  -16.7645   25.3650 O   0  0  0  0  0  0  0  0  0  0  0  0
    9.4457  -16.7534   21.4530 C   0  0  0  0  0  0  0  0  0  0  0  0
    9.1082  -16.9579   22.9277 C   0  0  2  0  0  0  0  0  0  0  0  0
    8.1204  -15.9461   23.2658 N   0  0  0  0  0  0  0  0  0  0  0  0
   10.3598  -16.7842   23.6865 C   0  0  0  0  0  0  0  0  0  0  0  0
   11.3218  -16.0751   23.2309 O   0  0  0  0  0  0  0  0  0  0  0  0
   10.5976  -17.3738   24.9544 N   0  0  0  0  0  0  0  0  0  0  0  0
   11.8615  -17.2800   25.6584 C   0  0  1  0  0  0  0  0  0  0  0  0
   12.1596  -15.8084   25.8511 C   0  0  0  0  0  0  0  0  0  0  0  0
   11.2574  -15.1604   26.8209 C   0  0  0  0  0  0  0  0  0  0  0  0
   11.2618  -15.5484   28.1430 C   0  0  0  0  0  0  0  0  0  0  0  0
   10.4257  -14.9597   29.0823 C   0  0  0  0  0  0  0  0  0  0  0  0
    9.5673  -13.9637   28.6970 C   0  0  0  0  0  0  0  0  0  0  0  0
    9.5386  -13.5477   27.3645 C   0  0  0  0  0  0  0  0  0  0  0  0
   10.3866  -14.1571   26.4541 C   0  0  0  0  0  0  0  0  0  0  0  0
   11.8754  -18.0324   26.9128 C   0  0  0  0  0  0  0  0  0  0  0  0
   13.0030  -18.2029   27.7050 O   0  0  0  0  0  0  0  0  0  0  0  0
   10.8094  -18.5654   27.3153 O   0  0  0  0  0  0  0  0  0  0  0  0
  1  2  1  0
  2  3  1  0
  3  4  1  6
  3  5  1  0
  5  6  1  1
  5  7  1  0
  7  8  2  0
 10  9  1  6
 11  7  1  0
 11 10  1  0
 12 10  1  0
 12 13  2  0
 14 12  1  0
 15 14  1  0
 15 16  1  1
 17 18  2  0
 17 16  1  0
 19 18  1  0
 20 19  2  0
 21 20  1  0
 21 22  2  0
 22 17  1  0
 23 15  1  0
 24 23  1  0
 25 23  2  0
M  END
$$$$
