IAF.pdb
     RDKit          3D

 25 25  0  0  1  0  0  0  0  0999 V2000
    7.7545  -11.8438   19.1063 C   0  0  0  0  0  0  0  0  0  0  0  0
    7.9544  -13.2111   18.5294 C   0  0  0  0  0  0  0  0  0  0  0  0
    8.2736  -14.1514   19.6926 C   0  0  2  0  0  0  0  0  0  0  0  0
    9.5468  -13.7109   20.3297 C   0  0  0  0  0  0  0  0  0  0  0  0
    8.4274  -15.5730   19.1788 C   0  0  2  0  0  0  0  0  0  0  0  0
    7.1355  -15.9915   18.5859 N   0  0  0  0  0  0  0  0  0  0  0  0
    8.6443  -16.4586   20.3365 C   0  0  0  0  0  0  0  0  0  0  0  0
    7.7500  -16.5410   21.2256 O   0  0  0  0  0  0  0  0  0  0  0  0
   11.2097  -18.9526   21.3982 C   0  0  0  0  0  0  0  0  0  0  0  0
   10.0522  -18.0130   21.7267 C   0  0  2  0  0  0  0  0  0  0  0  0
    9.8009  -17.2367   20.5233 N   0  0  0  0  0  0  0  0  0  0  0  0
   10.4884  -17.1650   22.8506 C   0  0  0  0  0  0  0  0  0  0  0  0
   11.2844  -16.1801   22.6719 O   0  0  0  0  0  0  0  0  0  0  0  0
   10.0727  -17.3644   24.1920 N   0  0  0  0  0  0  0  0  0  0  0  0
   10.5141  -16.5396   25.2997 C   0  0  1  0  0  0  0  0  0  0  0  0
    9.3098  -16.2930   26.1831 C   0  0  0  0  0  0  0  0  0  0  0  0
    9.6066  -15.4128   27.3285 C   0  0  0  0  0  0  0  0  0  0  0  0
    9.4255  -14.0508   27.2254 C   0  0  0  0  0  0  0  0  0  0  0  0
    9.6951  -13.1935   28.2837 C   0  0  0  0  0  0  0  0  0  0  0  0
   10.1546  -13.7031   29.4697 C   0  0  0  0  0  0  0  0  0  0  0  0
   10.3486  -15.0790   29.6063 C   0  0  0  0  0  0  0  0  0  0  0  0
   10.0695  -15.9051   28.5297 C   0  0  0  0  0  0  0  0  0  0  0  0
   11.6450  -17.1153   26.0271 C   0  0  0  0  0  0  0  0  0  0  0  0
   12.7309  -16.3805   26.4844 O   0  0  0  0  0  0  0  0  0  0  0  0
   11.6525  -18.3510   26.2626 O   0  0  0  0  0  0  0  0  0  0  0  0
  1  2  1  0
  2  3  1  0
  3  4  1  6
  3  5  1  0
  5  6  1  1
  5  7  1  0
  7  8  2  0
 10  9  1  6
 11  7  1  0
 11 10  1  0
 12 10  1  0
 12 13  2  0
 14 12  1  0
 15 14  1  0
 15 16  1  1
 17 18  2  0
 17 16  1  0
 19 18  1  0
 20 19  2  0
 21 20  1  0
 21 22  2  0
 22 17  1  0
 23 15  1  0
 24 23  1  0
 25 23  2  0
M  END
$$$$
