IAF.pdb
     RDKit          3D

 25 25  0  0  1  0  0  0  0  0999 V2000
    7.8931  -11.8514   19.7720 C   0  0  0  0  0  0  0  0  0  0  0  0
    7.8079  -13.3292   19.5465 C   0  0  0  0  0  0  0  0  0  0  0  0
    8.0509  -14.0081   20.8952 C   0  0  2  0  0  0  0  0  0  0  0  0
    9.4284  -13.6773   21.3573 C   0  0  0  0  0  0  0  0  0  0  0  0
    7.9123  -15.5139   20.7466 C   0  0  2  0  0  0  0  0  0  0  0  0
    6.5252  -15.8094   20.3175 N   0  0  0  0  0  0  0  0  0  0  0  0
    8.0588  -16.1222   22.0808 C   0  0  0  0  0  0  0  0  0  0  0  0
    7.0947  -16.0611   22.8954 O   0  0  0  0  0  0  0  0  0  0  0  0
   10.2835  -18.6313   23.5895 C   0  0  0  0  0  0  0  0  0  0  0  0
    9.3112  -17.4726   23.7952 C   0  0  2  0  0  0  0  0  0  0  0  0
    9.2210  -16.7823   22.5188 N   0  0  0  0  0  0  0  0  0  0  0  0
    9.8786  -16.6131   24.8497 C   0  0  0  0  0  0  0  0  0  0  0  0
   10.8555  -15.8231   24.6109 O   0  0  0  0  0  0  0  0  0  0  0  0
    9.4012  -16.5901   26.1852 N   0  0  0  0  0  0  0  0  0  0  0  0
    9.9914  -15.7818   27.2342 C   0  0  1  0  0  0  0  0  0  0  0  0
    8.8536  -15.1486   28.0064 C   0  0  0  0  0  0  0  0  0  0  0  0
    8.1064  -14.1521   27.2171 C   0  0  0  0  0  0  0  0  0  0  0  0
    8.6334  -12.8975   27.0010 C   0  0  0  0  0  0  0  0  0  0  0  0
    7.9570  -11.9356   26.2628 C   0  0  0  0  0  0  0  0  0  0  0  0
    6.7299  -12.2292   25.7285 C   0  0  0  0  0  0  0  0  0  0  0  0
    6.1683  -13.4916   25.9293 C   0  0  0  0  0  0  0  0  0  0  0  0
    6.8712  -14.4271   26.6711 C   0  0  0  0  0  0  0  0  0  0  0  0
   10.9097  -16.5342   28.0886 C   0  0  0  0  0  0  0  0  0  0  0  0
   11.8411  -15.9479   28.9354 O   0  0  0  0  0  0  0  0  0  0  0  0
   10.8684  -17.7913   28.0689 O   0  0  0  0  0  0  0  0  0  0  0  0
  1  2  1  0
  2  3  1  0
  3  4  1  6
  3  5  1  0
  5  6  1  1
  5  7  1  0
  7  8  2  0
 10  9  1  6
 11  7  1  0
 11 10  1  0
 12 10  1  0
 12 13  2  0
 14 12  1  0
 15 14  1  0
 15 16  1  1
 17 18  2  0
 17 16  1  0
 19 18  1  0
 20 19  2  0
 21 20  1  0
 21 22  2  0
 22 17  1  0
 23 15  1  0
 24 23  1  0
 25 23  2  0
M  END
$$$$
