EQV.pdb
     RDKit          3D

 26 25  0  0  1  0  0  0  0  0999 V2000
    6.4274  -15.2032   19.6610 N   0  0  0  0  0  0  0  0  0  0  0  0
    7.4084  -15.9206   20.4631 C   0  0  1  0  0  0  0  0  0  0  0  0
    8.7667  -15.4234   20.0813 C   0  0  0  0  0  0  0  0  0  0  0  0
    8.7983  -14.0994   19.3944 C   0  0  0  0  0  0  0  0  0  0  0  0
   10.2270  -13.7777   19.0768 C   0  0  0  0  0  0  0  0  0  0  0  0
   10.5328  -13.2392   17.9872 O   0  0  0  0  0  0  0  0  0  0  0  0
    7.0991  -15.7635   21.9180 C   0  0  0  0  0  0  0  0  0  0  0  0
    6.4168  -14.7938   22.2951 O   0  0  0  0  0  0  0  0  0  0  0  0
   11.2514  -14.0634   19.9723 O   0  0  0  0  0  0  0  0  0  0  0  0
    7.5972  -20.6123   26.1862 N   0  0  0  0  0  0  0  0  0  0  0  0
    7.2290  -19.4732   26.9450 C   0  0  0  0  0  0  0  0  0  0  0  0
    7.0583  -19.6157   28.1771 O   0  0  0  0  0  0  0  0  0  0  0  0
    7.0370  -18.1259   26.3517 C   0  0  0  0  0  0  0  0  0  0  0  0
    7.3036  -18.1599   24.8789 C   0  0  0  0  0  0  0  0  0  0  0  0
    7.2554  -16.7923   24.2563 C   0  0  2  0  0  0  0  0  0  0  0  0
    7.5482  -16.6692   22.8851 N   0  0  0  0  0  0  0  0  0  0  0  0
    7.9270  -15.7616   25.0569 C   0  0  0  0  0  0  0  0  0  0  0  0
    9.2083  -15.6869   24.9971 O   0  0  0  0  0  0  0  0  0  0  0  0
    6.5582  -12.0377   25.6336 C   0  0  0  0  0  0  0  0  0  0  0  0
    7.0413  -12.6165   26.9416 C   0  0  1  0  0  0  0  0  0  0  0  0
    5.7811  -13.0022   27.7244 C   0  0  0  0  0  0  0  0  0  0  0  0
    7.9078  -13.7891   26.6739 C   0  0  2  0  0  0  0  0  0  0  0  0
    7.2874  -14.8271   25.9008 N   0  0  0  0  0  0  0  0  0  0  0  0
    8.5882  -14.2472   27.9010 C   0  0  0  0  0  0  0  0  0  0  0  0
    8.4791  -15.5575   28.3092 O   0  0  0  0  0  0  0  0  0  0  0  0
    9.2682  -13.4652   28.5860 O   0  0  0  0  0  0  0  0  0  0  0  0
  2  1  1  6
  2  3  1  0
  3  4  1  0
  4  5  1  0
  5  9  1  0
  5  6  2  0
  7  8  2  0
  7  2  1  0
 10 11  1  0
 11 12  2  0
 13 11  1  0
 13 14  1  0
 15 14  1  1
 15 16  1  0
 15 17  1  0
 16  7  1  0
 17 23  1  0
 17 18  2  0
 20 19  1  6
 20 22  1  0
 21 20  1  0
 22 24  1  0
 22 23  1  1
 24 26  2  0
 24 25  1  0
M  END
$$$$
