EQV.pdb
     RDKit          3D

 26 25  0  0  1  0  0  0  0  0999 V2000
    9.4539  -18.1509   21.0555 N   0  0  0  0  0  0  0  0  0  0  0  0
    8.5469  -17.1560   20.5007 C   0  0  1  0  0  0  0  0  0  0  0  0
    7.7657  -17.8071   19.4034 C   0  0  0  0  0  0  0  0  0  0  0  0
    7.8935  -17.1740   18.0586 C   0  0  0  0  0  0  0  0  0  0  0  0
    7.0935  -17.9874   17.0872 C   0  0  0  0  0  0  0  0  0  0  0  0
    6.5308  -19.0461   17.4527 O   0  0  0  0  0  0  0  0  0  0  0  0
    7.6925  -16.5767   21.5832 C   0  0  0  0  0  0  0  0  0  0  0  0
    6.8780  -15.6790   21.3024 O   0  0  0  0  0  0  0  0  0  0  0  0
    6.9501  -17.5983   15.7602 O   0  0  0  0  0  0  0  0  0  0  0  0
    7.1112  -18.9915   27.3824 N   0  0  0  0  0  0  0  0  0  0  0  0
    7.4952  -19.5784   26.1507 C   0  0  0  0  0  0  0  0  0  0  0  0
    8.0893  -20.6801   26.1825 O   0  0  0  0  0  0  0  0  0  0  0  0
    7.2279  -18.9525   24.8313 C   0  0  0  0  0  0  0  0  0  0  0  0
    6.5525  -17.6281   25.0076 C   0  0  0  0  0  0  0  0  0  0  0  0
    7.0890  -16.5821   24.0703 C   0  0  2  0  0  0  0  0  0  0  0  0
    7.7694  -17.0045   22.9129 N   0  0  0  0  0  0  0  0  0  0  0  0
    7.7921  -15.4900   24.7541 C   0  0  0  0  0  0  0  0  0  0  0  0
    9.0746  -15.4572   24.6839 O   0  0  0  0  0  0  0  0  0  0  0  0
    6.4332  -11.6895   25.0629 C   0  0  0  0  0  0  0  0  0  0  0  0
    6.9785  -12.1738   26.3847 C   0  0  1  0  0  0  0  0  0  0  0  0
    5.7573  -12.5024   27.2511 C   0  0  0  0  0  0  0  0  0  0  0  0
    7.8349  -13.3629   26.1608 C   0  0  2  0  0  0  0  0  0  0  0  0
    7.1820  -14.4533   25.4939 N   0  0  0  0  0  0  0  0  0  0  0  0
    8.5737  -13.7324   27.3841 C   0  0  0  0  0  0  0  0  0  0  0  0
    9.4007  -12.8201   27.9997 O   0  0  0  0  0  0  0  0  0  0  0  0
    8.4652  -14.8664   27.8795 O   0  0  0  0  0  0  0  0  0  0  0  0
  2  1  1  1
  2  3  1  0
  3  4  1  0
  4  5  1  0
  5  9  1  0
  5  6  2  0
  7  8  2  0
  7  2  1  0
 10 11  1  0
 11 12  2  0
 13 11  1  0
 13 14  1  0
 15 14  1  1
 15 16  1  0
 15 17  1  0
 16  7  1  0
 17 23  1  0
 17 18  2  0
 20 19  1  6
 20 22  1  0
 21 20  1  0
 22 24  1  0
 22 23  1  1
 24 26  2  0
 24 25  1  0
M  END
$$$$
