EQV.pdb
     RDKit          3D

 26 25  0  0  1  0  0  0  0  0999 V2000
    9.1793  -17.2559   20.5059 N   0  0  0  0  0  0  0  0  0  0  0  0
    7.8233  -16.8207   20.2024 C   0  0  1  0  0  0  0  0  0  0  0  0
    7.1752  -17.8818   19.3704 C   0  0  0  0  0  0  0  0  0  0  0  0
    7.2559  -19.2676   19.9169 C   0  0  0  0  0  0  0  0  0  0  0  0
    6.5278  -20.1785   18.9758 C   0  0  0  0  0  0  0  0  0  0  0  0
    5.3407  -20.5118   19.2008 O   0  0  0  0  0  0  0  0  0  0  0  0
    7.0847  -16.5152   21.4667 C   0  0  0  0  0  0  0  0  0  0  0  0
    5.9073  -16.1181   21.4043 O   0  0  0  0  0  0  0  0  0  0  0  0
    7.1394  -20.6794   17.8322 O   0  0  0  0  0  0  0  0  0  0  0  0
    6.4034  -20.0263   26.3247 N   0  0  0  0  0  0  0  0  0  0  0  0
    7.7308  -19.6906   25.9582 C   0  0  0  0  0  0  0  0  0  0  0  0
    8.6549  -20.4489   26.3308 O   0  0  0  0  0  0  0  0  0  0  0  0
    8.0762  -18.4890   25.1577 C   0  0  0  0  0  0  0  0  0  0  0  0
    6.8469  -17.6888   24.8580 C   0  0  0  0  0  0  0  0  0  0  0  0
    7.1437  -16.4729   24.0250 C   0  0  2  0  0  0  0  0  0  0  0  0
    7.6660  -16.6577   22.7312 N   0  0  0  0  0  0  0  0  0  0  0  0
    7.8548  -15.4202   24.7602 C   0  0  0  0  0  0  0  0  0  0  0  0
    9.1363  -15.3820   24.6759 O   0  0  0  0  0  0  0  0  0  0  0  0
    6.7596  -11.6738   25.1355 C   0  0  0  0  0  0  0  0  0  0  0  0
    7.1849  -12.1580   26.5008 C   0  0  1  0  0  0  0  0  0  0  0  0
    5.8949  -12.3201   27.3128 C   0  0  0  0  0  0  0  0  0  0  0  0
    7.9187  -13.4388   26.3652 C   0  0  2  0  0  0  0  0  0  0  0  0
    7.2536  -14.4273   25.5648 N   0  0  0  0  0  0  0  0  0  0  0  0
    8.4077  -13.9203   27.6719 C   0  0  0  0  0  0  0  0  0  0  0  0
    9.2440  -13.1358   28.4339 O   0  0  0  0  0  0  0  0  0  0  0  0
    8.0773  -15.0356   28.1078 O   0  0  0  0  0  0  0  0  0  0  0  0
  2  1  1  1
  2  3  1  0
  3  4  1  0
  4  5  1  0
  5  9  1  0
  5  6  2  0
  7  8  2  0
  7  2  1  0
 10 11  1  0
 11 12  2  0
 13 11  1  0
 13 14  1  0
 15 14  1  1
 15 16  1  0
 15 17  1  0
 16  7  1  0
 17 23  1  0
 17 18  2  0
 20 19  1  6
 20 22  1  0
 21 20  1  0
 22 24  1  0
 22 23  1  1
 24 26  2  0
 24 25  1  0
M  END
$$$$
