EQV.pdb
     RDKit          3D

 26 25  0  0  1  0  0  0  0  0999 V2000
    8.0264  -19.1540   20.4670 N   0  0  0  0  0  0  0  0  0  0  0  0
    8.1581  -17.7047   20.5173 C   0  0  1  0  0  0  0  0  0  0  0  0
    7.5967  -17.1476   19.2474 C   0  0  0  0  0  0  0  0  0  0  0  0
    8.6021  -16.7319   18.2266 C   0  0  0  0  0  0  0  0  0  0  0  0
    7.8615  -16.3072   16.9951 C   0  0  0  0  0  0  0  0  0  0  0  0
    8.3019  -15.3823   16.2729 O   0  0  0  0  0  0  0  0  0  0  0  0
    7.5003  -17.1698   21.7495 C   0  0  0  0  0  0  0  0  0  0  0  0
    6.3033  -16.8333   21.7046 O   0  0  0  0  0  0  0  0  0  0  0  0
    6.6721  -16.9193   16.6163 O   0  0  0  0  0  0  0  0  0  0  0  0
    7.5814  -20.1033   26.9481 N   0  0  0  0  0  0  0  0  0  0  0  0
    6.7206  -20.0664   25.8227 C   0  0  0  0  0  0  0  0  0  0  0  0
    5.9095  -21.0079   25.6700 O   0  0  0  0  0  0  0  0  0  0  0  0
    6.7346  -18.9704   24.8214 C   0  0  0  0  0  0  0  0  0  0  0  0
    7.6531  -17.8726   25.2602 C   0  0  0  0  0  0  0  0  0  0  0  0
    7.7184  -16.7480   24.2645 C   0  0  2  0  0  0  0  0  0  0  0  0
    8.1792  -17.0293   22.9647 N   0  0  0  0  0  0  0  0  0  0  0  0
    8.3153  -15.5214   24.8064 C   0  0  0  0  0  0  0  0  0  0  0  0
    9.5888  -15.3763   24.7166 O   0  0  0  0  0  0  0  0  0  0  0  0
    6.8004  -11.6687   25.1261 C   0  0  0  0  0  0  0  0  0  0  0  0
    7.2297  -12.2646   26.4452 C   0  0  1  0  0  0  0  0  0  0  0  0
    5.9435  -12.7275   27.1387 C   0  0  0  0  0  0  0  0  0  0  0  0
    8.1625  -13.3903   26.1994 C   0  0  2  0  0  0  0  0  0  0  0  0
    7.6104  -14.4668   25.4271 N   0  0  0  0  0  0  0  0  0  0  0  0
    8.8496  -13.8008   27.4396 C   0  0  0  0  0  0  0  0  0  0  0  0
    8.7897  -15.1077   27.8681 O   0  0  0  0  0  0  0  0  0  0  0  0
    9.4912  -12.9811   28.1175 O   0  0  0  0  0  0  0  0  0  0  0  0
  2  1  1  6
  2  3  1  0
  3  4  1  0
  4  5  1  0
  5  9  1  0
  5  6  2  0
  7  8  2  0
  7  2  1  0
 10 11  1  0
 11 12  2  0
 13 11  1  0
 13 14  1  0
 15 14  1  1
 15 16  1  0
 15 17  1  0
 16  7  1  0
 17 23  1  0
 17 18  2  0
 20 19  1  6
 20 22  1  0
 21 20  1  0
 22 24  1  0
 22 23  1  1
 24 26  2  0
 24 25  1  0
M  END
$$$$
