EQV.pdb
     RDKit          3D

 26 25  0  0  1  0  0  0  0  0999 V2000
    9.9344  -17.2362   18.5052 N   0  0  0  0  0  0  0  0  0  0  0  0
   10.8269  -18.3713   18.6934 C   0  0  1  0  0  0  0  0  0  0  0  0
   11.1962  -18.8950   17.3416 C   0  0  0  0  0  0  0  0  0  0  0  0
   11.5306  -17.8609   16.3196 C   0  0  0  0  0  0  0  0  0  0  0  0
   12.0027  -18.5671   15.0851 C   0  0  0  0  0  0  0  0  0  0  0  0
   11.2019  -19.2258   14.3811 O   0  0  0  0  0  0  0  0  0  0  0  0
   12.0047  -17.9691   19.5232 C   0  0  0  0  0  0  0  0  0  0  0  0
   12.8850  -18.8098   19.7804 O   0  0  0  0  0  0  0  0  0  0  0  0
   13.3327  -18.5156   14.6835 O   0  0  0  0  0  0  0  0  0  0  0  0
   16.1333  -13.6469   19.2415 N   0  0  0  0  0  0  0  0  0  0  0  0
   15.1167  -14.1140   18.3713 C   0  0  0  0  0  0  0  0  0  0  0  0
   15.2669  -13.9371   17.1409 O   0  0  0  0  0  0  0  0  0  0  0  0
   13.8886  -14.7994   18.8464 C   0  0  0  0  0  0  0  0  0  0  0  0
   13.8820  -14.8848   20.3411 C   0  0  0  0  0  0  0  0  0  0  0  0
   13.1596  -16.1044   20.8421 C   0  0  2  0  0  0  0  0  0  0  0  0
   12.1622  -16.6742   20.0288 N   0  0  0  0  0  0  0  0  0  0  0  0
   12.7329  -15.9970   22.2424 C   0  0  0  0  0  0  0  0  0  0  0  0
   13.5445  -15.4646   23.0841 O   0  0  0  0  0  0  0  0  0  0  0  0
    9.6151  -14.4141   23.5187 C   0  0  0  0  0  0  0  0  0  0  0  0
    9.6761  -15.7292   24.2577 C   0  0  1  0  0  0  0  0  0  0  0  0
    8.5985  -16.6188   23.6276 C   0  0  0  0  0  0  0  0  0  0  0  0
   11.0306  -16.3145   24.1151 C   0  0  2  0  0  0  0  0  0  0  0  0
   11.4928  -16.4300   22.7612 N   0  0  0  0  0  0  0  0  0  0  0  0
   11.1782  -17.5357   24.9308 C   0  0  0  0  0  0  0  0  0  0  0  0
   10.9912  -17.4887   26.2940 O   0  0  0  0  0  0  0  0  0  0  0  0
   11.4723  -18.6234   24.4078 O   0  0  0  0  0  0  0  0  0  0  0  0
  2  1  1  6
  2  3  1  0
  3  4  1  0
  4  5  1  0
  5  9  1  0
  5  6  2  0
  7  8  2  0
  7  2  1  0
 10 11  1  0
 11 12  2  0
 13 11  1  0
 13 14  1  0
 15 14  1  6
 15 16  1  0
 15 17  1  0
 16  7  1  0
 17 23  1  0
 17 18  2  0
 20 19  1  6
 20 22  1  0
 21 20  1  0
 22 24  1  0
 22 23  1  6
 24 26  2  0
 24 25  1  0
M  END
$$$$
