EQV.pdb
     RDKit          3D

 26 25  0  0  1  0  0  0  0  0999 V2000
    9.9043  -16.0075   19.6573 N   0  0  0  0  0  0  0  0  0  0  0  0
    8.5524  -15.4736   19.5701 C   0  0  1  0  0  0  0  0  0  0  0  0
    7.8270  -16.2310   18.5032 C   0  0  0  0  0  0  0  0  0  0  0  0
    7.9955  -17.7130   18.5375 C   0  0  0  0  0  0  0  0  0  0  0  0
    7.1025  -18.3038   17.4891 C   0  0  0  0  0  0  0  0  0  0  0  0
    6.0119  -18.8346   17.8051 O   0  0  0  0  0  0  0  0  0  0  0  0
    7.8864  -15.5354   20.9080 C   0  0  0  0  0  0  0  0  0  0  0  0
    6.7160  -15.1301   21.0257 O   0  0  0  0  0  0  0  0  0  0  0  0
    7.4510  -18.2830   16.1434 O   0  0  0  0  0  0  0  0  0  0  0  0
    8.8218  -20.5367   24.1473 N   0  0  0  0  0  0  0  0  0  0  0  0
    9.7067  -19.5203   23.7082 C   0  0  0  0  0  0  0  0  0  0  0  0
   10.6485  -19.8458   22.9501 O   0  0  0  0  0  0  0  0  0  0  0  0
    9.5711  -18.0954   24.1023 C   0  0  0  0  0  0  0  0  0  0  0  0
    8.1562  -17.6374   23.9302 C   0  0  0  0  0  0  0  0  0  0  0  0
    8.0687  -16.2494   23.3589 C   0  0  2  0  0  0  0  0  0  0  0  0
    8.5286  -16.0346   22.0462 N   0  0  0  0  0  0  0  0  0  0  0  0
    8.5331  -15.2071   24.2821 C   0  0  0  0  0  0  0  0  0  0  0  0
    9.7778  -14.8890   24.2604 O   0  0  0  0  0  0  0  0  0  0  0  0
    7.0395  -11.6865   24.9545 C   0  0  0  0  0  0  0  0  0  0  0  0
    7.2206  -12.3633   26.2918 C   0  0  1  0  0  0  0  0  0  0  0  0
    5.8229  -12.8150   26.7299 C   0  0  0  0  0  0  0  0  0  0  0  0
    8.1519  -13.5074   26.1452 C   0  0  2  0  0  0  0  0  0  0  0  0
    7.7275  -14.5077   25.2075 N   0  0  0  0  0  0  0  0  0  0  0  0
    8.5791  -14.0257   27.4595 C   0  0  0  0  0  0  0  0  0  0  0  0
    9.1794  -13.1909   28.3749 O   0  0  0  0  0  0  0  0  0  0  0  0
    8.4071  -15.2177   27.7644 O   0  0  0  0  0  0  0  0  0  0  0  0
  2  1  1  1
  2  3  1  0
  3  4  1  0
  4  5  1  0
  5  9  1  0
  5  6  2  0
  7  8  2  0
  7  2  1  0
 10 11  1  0
 11 12  2  0
 13 11  1  0
 13 14  1  0
 15 14  1  1
 15 16  1  0
 15 17  1  0
 16  7  1  0
 17 23  1  0
 17 18  2  0
 20 19  1  6
 20 22  1  0
 21 20  1  0
 22 24  1  0
 22 23  1  1
 24 26  2  0
 24 25  1  0
M  END
$$$$
