EQV.pdb
     RDKit          3D

 26 25  0  0  1  0  0  0  0  0999 V2000
    8.5086  -18.1748   19.9634 N   0  0  0  0  0  0  0  0  0  0  0  0
    8.8903  -18.5033   21.3296 C   0  0  1  0  0  0  0  0  0  0  0  0
   10.3594  -18.2572   21.4684 C   0  0  0  0  0  0  0  0  0  0  0  0
   11.0043  -17.5476   20.3255 C   0  0  0  0  0  0  0  0  0  0  0  0
   12.4678  -17.4260   20.6239 C   0  0  0  0  0  0  0  0  0  0  0  0
   12.9363  -17.8537   21.7048 O   0  0  0  0  0  0  0  0  0  0  0  0
    8.0576  -17.7257   22.2987 C   0  0  0  0  0  0  0  0  0  0  0  0
    7.3827  -16.7643   21.8886 O   0  0  0  0  0  0  0  0  0  0  0  0
   13.3464  -16.8400   19.7197 O   0  0  0  0  0  0  0  0  0  0  0  0
    6.1621  -20.2615   27.8045 N   0  0  0  0  0  0  0  0  0  0  0  0
    7.3993  -19.5743   27.8816 C   0  0  0  0  0  0  0  0  0  0  0  0
    8.1175  -19.7647   28.8894 O   0  0  0  0  0  0  0  0  0  0  0  0
    7.8819  -18.6441   26.8300 C   0  0  0  0  0  0  0  0  0  0  0  0
    6.8010  -18.3807   25.8282 C   0  0  0  0  0  0  0  0  0  0  0  0
    7.2576  -17.4767   24.7171 C   0  0  2  0  0  0  0  0  0  0  0  0
    8.0032  -18.0351   23.6620 N   0  0  0  0  0  0  0  0  0  0  0  0
    7.8361  -16.2138   25.1913 C   0  0  0  0  0  0  0  0  0  0  0  0
    9.1142  -16.1341   25.2957 O   0  0  0  0  0  0  0  0  0  0  0  0
    5.7674  -12.8943   27.2327 C   0  0  0  0  0  0  0  0  0  0  0  0
    6.6408  -12.6926   26.0179 C   0  0  1  0  0  0  0  0  0  0  0  0
    7.3016  -11.3209   26.1952 C   0  0  0  0  0  0  0  0  0  0  0  0
    7.6414  -13.7837   25.9413 C   0  0  2  0  0  0  0  0  0  0  0  0
    7.1085  -15.0575   25.5492 N   0  0  0  0  0  0  0  0  0  0  0  0
    8.5023  -13.8100   27.1399 C   0  0  0  0  0  0  0  0  0  0  0  0
    9.3799  -12.7789   27.3888 O   0  0  0  0  0  0  0  0  0  0  0  0
    8.4533  -14.7566   27.9428 O   0  0  0  0  0  0  0  0  0  0  0  0
  2  1  1  6
  2  3  1  0
  3  4  1  0
  4  5  1  0
  5  9  1  0
  5  6  2  0
  7  8  2  0
  7  2  1  0
 10 11  1  0
 11 12  2  0
 13 11  1  0
 13 14  1  0
 15 14  1  1
 15 16  1  0
 15 17  1  0
 16  7  1  0
 17 23  1  0
 17 18  2  0
 20 19  1  1
 20 22  1  0
 21 20  1  0
 22 24  1  0
 22 23  1  1
 24 26  2  0
 24 25  1  0
M  END
$$$$
