EQV.pdb
     RDKit          3D

 26 25  0  0  1  0  0  0  0  0999 V2000
   11.0149  -18.8260   17.8652 N   0  0  0  0  0  0  0  0  0  0  0  0
    9.6598  -18.2936   17.8909 C   0  0  1  0  0  0  0  0  0  0  0  0
    8.7140  -19.4484   17.9918 C   0  0  0  0  0  0  0  0  0  0  0  0
    9.3107  -20.7299   18.4685 C   0  0  0  0  0  0  0  0  0  0  0  0
    8.5018  -21.8559   17.8999 C   0  0  0  0  0  0  0  0  0  0  0  0
    7.5479  -21.6258   17.1201 O   0  0  0  0  0  0  0  0  0  0  0  0
    9.5165  -17.3020   19.0015 C   0  0  0  0  0  0  0  0  0  0  0  0
   10.4245  -17.1961   19.8454 O   0  0  0  0  0  0  0  0  0  0  0  0
    8.7801  -23.1809   18.2155 O   0  0  0  0  0  0  0  0  0  0  0  0
    8.8618  -12.3414   19.6326 N   0  0  0  0  0  0  0  0  0  0  0  0
    7.9073  -12.3732   20.6799 C   0  0  0  0  0  0  0  0  0  0  0  0
    7.9407  -11.4601   21.5359 O   0  0  0  0  0  0  0  0  0  0  0  0
    6.8750  -13.4322   20.8098 C   0  0  0  0  0  0  0  0  0  0  0  0
    7.0422  -14.4607   19.7349 C   0  0  0  0  0  0  0  0  0  0  0  0
    8.0546  -15.5107   20.0991 C   0  0  2  0  0  0  0  0  0  0  0  0
    8.3934  -16.4784   19.1349 N   0  0  0  0  0  0  0  0  0  0  0  0
    7.8286  -16.1070   21.4211 C   0  0  0  0  0  0  0  0  0  0  0  0
    7.0113  -17.0945   21.5089 O   0  0  0  0  0  0  0  0  0  0  0  0
   10.6644  -16.3158   24.2789 C   0  0  0  0  0  0  0  0  0  0  0  0
    9.3333  -15.9611   24.8967 C   0  0  1  0  0  0  0  0  0  0  0  0
    9.4088  -14.4681   25.2357 C   0  0  0  0  0  0  0  0  0  0  0  0
    8.2462  -16.2560   23.9329 C   0  0  2  0  0  0  0  0  0  0  0  0
    8.4354  -15.6916   22.6268 N   0  0  0  0  0  0  0  0  0  0  0  0
    6.9177  -16.0160   24.5297 C   0  0  0  0  0  0  0  0  0  0  0  0
    6.0769  -15.0654   23.9961 O   0  0  0  0  0  0  0  0  0  0  0  0
    6.5340  -16.6620   25.5189 O   0  0  0  0  0  0  0  0  0  0  0  0
  2  1  1  1
  2  3  1  0
  3  4  1  0
  4  5  1  0
  5  9  1  0
  5  6  2  0
  7  8  2  0
  7  2  1  0
 10 11  1  0
 11 12  2  0
 13 11  1  0
 13 14  1  0
 15 14  1  6
 15 16  1  0
 15 17  1  0
 16  7  1  0
 17 23  1  0
 17 18  2  0
 20 19  1  6
 20 22  1  0
 21 20  1  0
 22 24  1  0
 22 23  1  6
 24 26  2  0
 24 25  1  0
M  END
$$$$
