EQV.pdb
     RDKit          3D

 26 25  0  0  1  0  0  0  0  0999 V2000
   12.0552  -14.6821   18.5360 N   0  0  0  0  0  0  0  0  0  0  0  0
   11.8367  -15.2559   19.8564 C   0  0  1  0  0  0  0  0  0  0  0  0
   13.1705  -15.4144   20.5153 C   0  0  0  0  0  0  0  0  0  0  0  0
   13.9873  -14.1707   20.6233 C   0  0  0  0  0  0  0  0  0  0  0  0
   15.2467  -14.5079   21.3622 C   0  0  0  0  0  0  0  0  0  0  0  0
   16.2869  -14.8244   20.7388 O   0  0  0  0  0  0  0  0  0  0  0  0
   10.8800  -14.4094   20.6345 C   0  0  0  0  0  0  0  0  0  0  0  0
   11.1345  -13.2040   20.8081 O   0  0  0  0  0  0  0  0  0  0  0  0
   15.3024  -14.4812   22.7511 O   0  0  0  0  0  0  0  0  0  0  0  0
    8.2085  -12.7807   18.1429 N   0  0  0  0  0  0  0  0  0  0  0  0
    7.5851  -13.6973   19.0262 C   0  0  0  0  0  0  0  0  0  0  0  0
    7.5203  -14.8987   18.6798 O   0  0  0  0  0  0  0  0  0  0  0  0
    7.0081  -13.3029   20.3360 C   0  0  0  0  0  0  0  0  0  0  0  0
    7.2657  -14.3626   21.3617 C   0  0  0  0  0  0  0  0  0  0  0  0
    8.6641  -14.3010   21.9104 C   0  0  2  0  0  0  0  0  0  0  0  0
    9.6979  -14.9190   21.1823 N   0  0  0  0  0  0  0  0  0  0  0  0
    8.7432  -14.6051   23.3442 C   0  0  0  0  0  0  0  0  0  0  0  0
    9.3392  -15.6854   23.7026 O   0  0  0  0  0  0  0  0  0  0  0  0
    8.4357  -11.7840   26.3979 C   0  0  0  0  0  0  0  0  0  0  0  0
    7.6464  -13.0463   26.6489 C   0  0  1  0  0  0  0  0  0  0  0  0
    6.1870  -12.7031   26.3296 C   0  0  0  0  0  0  0  0  0  0  0  0
    8.1623  -14.1330   25.7825 C   0  0  2  0  0  0  0  0  0  0  0  0
    8.2181  -13.8085   24.3855 N   0  0  0  0  0  0  0  0  0  0  0  0
    7.5200  -15.4239   26.0979 C   0  0  0  0  0  0  0  0  0  0  0  0
    7.7424  -16.0334   27.3121 O   0  0  0  0  0  0  0  0  0  0  0  0
    6.7710  -15.9832   25.2796 O   0  0  0  0  0  0  0  0  0  0  0  0
  2  1  1  6
  2  3  1  0
  3  4  1  0
  4  5  1  0
  5  9  1  0
  5  6  2  0
  7  8  2  0
  7  2  1  0
 10 11  1  0
 11 12  2  0
 13 11  1  0
 13 14  1  0
 15 14  1  6
 15 16  1  0
 15 17  1  0
 16  7  1  0
 17 23  1  0
 17 18  2  0
 20 19  1  6
 20 22  1  0
 21 20  1  0
 22 24  1  0
 22 23  1  6
 24 26  2  0
 24 25  1  0
M  END
$$$$
