EQV.pdb
     RDKit          3D

 26 25  0  0  1  0  0  0  0  0999 V2000
    8.3366  -20.1278   20.7602 N   0  0  0  0  0  0  0  0  0  0  0  0
    9.1364  -19.0541   21.3328 C   0  0  1  0  0  0  0  0  0  0  0  0
    9.5220  -18.1265   20.2242 C   0  0  0  0  0  0  0  0  0  0  0  0
    9.1283  -18.5630   18.8530 C   0  0  0  0  0  0  0  0  0  0  0  0
    9.6708  -17.5640   17.8766 C   0  0  0  0  0  0  0  0  0  0  0  0
   10.9007  -17.5034   17.6427 O   0  0  0  0  0  0  0  0  0  0  0  0
    8.3851  -18.3857   22.4401 C   0  0  0  0  0  0  0  0  0  0  0  0
    7.2742  -17.8779   22.2035 O   0  0  0  0  0  0  0  0  0  0  0  0
    8.8355  -16.6793   17.2040 O   0  0  0  0  0  0  0  0  0  0  0  0
    5.9546  -19.4629   27.0556 N   0  0  0  0  0  0  0  0  0  0  0  0
    6.8442  -20.3814   26.4442 C   0  0  0  0  0  0  0  0  0  0  0  0
    6.4538  -21.5597   26.2798 O   0  0  0  0  0  0  0  0  0  0  0  0
    8.2100  -20.0152   25.9918 C   0  0  0  0  0  0  0  0  0  0  0  0
    8.4548  -18.5527   26.1978 C   0  0  0  0  0  0  0  0  0  0  0  0
    8.3305  -17.7659   24.9227 C   0  0  2  0  0  0  0  0  0  0  0  0
    8.8819  -18.3054   23.7455 N   0  0  0  0  0  0  0  0  0  0  0  0
    8.6544  -16.3429   25.0800 C   0  0  0  0  0  0  0  0  0  0  0  0
    9.8882  -15.9910   25.0112 O   0  0  0  0  0  0  0  0  0  0  0  0
    5.7155  -13.3044   26.2386 C   0  0  0  0  0  0  0  0  0  0  0  0
    6.9210  -12.9858   25.3874 C   0  0  1  0  0  0  0  0  0  0  0  0
    7.3205  -11.5488   25.7412 C   0  0  0  0  0  0  0  0  0  0  0  0
    8.0058  -13.9514   25.6846 C   0  0  2  0  0  0  0  0  0  0  0  0
    7.7223  -15.3057   25.3028 N   0  0  0  0  0  0  0  0  0  0  0  0
    8.5131  -13.7846   27.0606 C   0  0  0  0  0  0  0  0  0  0  0  0
    9.2094  -12.6503   27.4127 O   0  0  0  0  0  0  0  0  0  0  0  0
    8.3239  -14.6583   27.9232 O   0  0  0  0  0  0  0  0  0  0  0  0
  2  1  1  6
  2  3  1  0
  3  4  1  0
  4  5  1  0
  5  9  1  0
  5  6  2  0
  7  8  2  0
  7  2  1  0
 10 11  1  0
 11 12  2  0
 13 11  1  0
 13 14  1  0
 15 14  1  1
 15 16  1  0
 15 17  1  0
 16  7  1  0
 17 23  1  0
 17 18  2  0
 20 19  1  1
 20 22  1  0
 21 20  1  0
 22 24  1  0
 22 23  1  1
 24 26  2  0
 24 25  1  0
M  END
$$$$
