EQV.pdb
     RDKit          3D

 26 25  0  0  1  0  0  0  0  0999 V2000
    8.7291  -17.7774   19.3051 N   0  0  0  0  0  0  0  0  0  0  0  0
    9.3495  -17.7110   20.6208 C   0  0  1  0  0  0  0  0  0  0  0  0
   10.6679  -17.0196   20.4731 C   0  0  0  0  0  0  0  0  0  0  0  0
   11.3235  -17.1608   19.1405 C   0  0  0  0  0  0  0  0  0  0  0  0
   12.5717  -16.3316   19.1495 C   0  0  0  0  0  0  0  0  0  0  0  0
   12.9138  -15.7047   20.1794 O   0  0  0  0  0  0  0  0  0  0  0  0
    8.4281  -17.0444   21.5923 C   0  0  0  0  0  0  0  0  0  0  0  0
    7.4093  -16.4686   21.1697 O   0  0  0  0  0  0  0  0  0  0  0  0
   13.3842  -16.2312   18.0258 O   0  0  0  0  0  0  0  0  0  0  0  0
    6.0351  -19.9994   26.1823 N   0  0  0  0  0  0  0  0  0  0  0  0
    5.8571  -19.8886   24.7805 C   0  0  0  0  0  0  0  0  0  0  0  0
    5.1661  -20.7588   24.2035 O   0  0  0  0  0  0  0  0  0  0  0  0
    6.4477  -18.7956   23.9678 C   0  0  0  0  0  0  0  0  0  0  0  0
    7.2114  -17.8487   24.8404 C   0  0  0  0  0  0  0  0  0  0  0  0
    7.8297  -16.7223   24.0598 C   0  0  2  0  0  0  0  0  0  0  0  0
    8.6637  -17.0395   22.9713 N   0  0  0  0  0  0  0  0  0  0  0  0
    8.4066  -15.6717   24.9071 C   0  0  0  0  0  0  0  0  0  0  0  0
    9.6239  -15.8067   25.2955 O   0  0  0  0  0  0  0  0  0  0  0  0
    7.1902  -11.7424   25.0789 C   0  0  0  0  0  0  0  0  0  0  0  0
    7.3607  -12.3475   26.4516 C   0  0  1  0  0  0  0  0  0  0  0  0
    5.9456  -12.6362   26.9652 C   0  0  0  0  0  0  0  0  0  0  0  0
    8.1758  -13.5815   26.3505 C   0  0  2  0  0  0  0  0  0  0  0  0
    7.7395  -14.5057   25.3427 N   0  0  0  0  0  0  0  0  0  0  0  0
    8.4190  -14.1765   27.6792 C   0  0  0  0  0  0  0  0  0  0  0  0
    9.1282  -13.4821   28.6332 O   0  0  0  0  0  0  0  0  0  0  0  0
    7.9920  -15.3083   27.9618 O   0  0  0  0  0  0  0  0  0  0  0  0
  2  1  1  6
  2  3  1  0
  3  4  1  0
  4  5  1  0
  5  9  1  0
  5  6  2  0
  7  8  2  0
  7  2  1  0
 10 11  1  0
 11 12  2  0
 13 11  1  0
 13 14  1  0
 15 14  1  1
 15 16  1  0
 15 17  1  0
 16  7  1  0
 17 23  1  0
 17 18  2  0
 20 19  1  6
 20 22  1  0
 21 20  1  0
 22 24  1  0
 22 23  1  6
 24 26  2  0
 24 25  1  0
M  END
$$$$
