EQV.pdb
     RDKit          3D

 26 25  0  0  1  0  0  0  0  0999 V2000
   12.4645  -17.1027   15.5453 N   0  0  0  0  0  0  0  0  0  0  0  0
   11.3691  -17.5973   16.3674 C   0  0  1  0  0  0  0  0  0  0  0  0
   11.5028  -19.0841   16.4654 C   0  0  0  0  0  0  0  0  0  0  0  0
   12.4792  -19.5775   17.4798 C   0  0  0  0  0  0  0  0  0  0  0  0
   12.5510  -21.0698   17.3642 C   0  0  0  0  0  0  0  0  0  0  0  0
   13.4368  -21.6136   16.6637 O   0  0  0  0  0  0  0  0  0  0  0  0
   11.3673  -16.9064   17.6940 C   0  0  0  0  0  0  0  0  0  0  0  0
   12.4449  -16.7271   18.2895 O   0  0  0  0  0  0  0  0  0  0  0  0
   11.6458  -21.8931   18.0240 O   0  0  0  0  0  0  0  0  0  0  0  0
    6.3722  -13.4041   19.7130 N   0  0  0  0  0  0  0  0  0  0  0  0
    7.2471  -13.2401   18.6100 C   0  0  0  0  0  0  0  0  0  0  0  0
    6.9298  -12.4147   17.7236 O   0  0  0  0  0  0  0  0  0  0  0  0
    8.5154  -13.9963   18.4563 C   0  0  0  0  0  0  0  0  0  0  0  0
    8.7219  -14.9141   19.6209 C   0  0  0  0  0  0  0  0  0  0  0  0
    9.9792  -15.7283   19.4928 C   0  0  2  0  0  0  0  0  0  0  0  0
   10.1940  -16.4473   18.3020 N   0  0  0  0  0  0  0  0  0  0  0  0
   10.2780  -16.5335   20.6831 C   0  0  0  0  0  0  0  0  0  0  0  0
    9.9029  -17.7623   20.6934 O   0  0  0  0  0  0  0  0  0  0  0  0
   12.8072  -17.4304   24.8049 C   0  0  0  0  0  0  0  0  0  0  0  0
   12.4973  -16.4357   23.7123 C   0  0  1  0  0  0  0  0  0  0  0  0
   13.7023  -16.4588   22.7651 C   0  0  0  0  0  0  0  0  0  0  0  0
   11.2446  -16.8302   23.0247 C   0  0  2  0  0  0  0  0  0  0  0  0
   10.9512  -16.0781   21.8380 N   0  0  0  0  0  0  0  0  0  0  0  0
   10.1239  -16.9549   23.9771 C   0  0  0  0  0  0  0  0  0  0  0  0
   10.1381  -17.9352   24.9437 O   0  0  0  0  0  0  0  0  0  0  0  0
    9.1516  -16.1835   23.9263 O   0  0  0  0  0  0  0  0  0  0  0  0
  2  1  1  6
  2  3  1  0
  3  4  1  0
  4  5  1  0
  5  9  1  0
  5  6  2  0
  7  8  2  0
  7  2  1  0
 10 11  1  0
 11 12  2  0
 13 11  1  0
 13 14  1  0
 15 14  1  1
 15 16  1  0
 15 17  1  0
 16  7  1  0
 17 23  1  0
 17 18  2  0
 20 19  1  1
 20 22  1  0
 21 20  1  0
 22 24  1  0
 22 23  1  6
 24 26  2  0
 24 25  1  0
M  END
$$$$
