EQV.pdb
     RDKit          3D

 26 25  0  0  1  0  0  0  0  0999 V2000
    6.0663  -16.9734   19.6873 N   0  0  0  0  0  0  0  0  0  0  0  0
    6.9472  -17.6843   20.6032 C   0  0  1  0  0  0  0  0  0  0  0  0
    8.3372  -17.6102   20.0549 C   0  0  0  0  0  0  0  0  0  0  0  0
    9.0868  -16.3586   20.3668 C   0  0  0  0  0  0  0  0  0  0  0  0
   10.4105  -16.4266   19.6679 C   0  0  0  0  0  0  0  0  0  0  0  0
   10.4692  -16.4954   18.4178 O   0  0  0  0  0  0  0  0  0  0  0  0
    6.8163  -17.1238   21.9838 C   0  0  0  0  0  0  0  0  0  0  0  0
    6.2054  -16.0530   22.1517 O   0  0  0  0  0  0  0  0  0  0  0  0
   11.6066  -16.4158   20.3764 O   0  0  0  0  0  0  0  0  0  0  0  0
    7.5262  -20.8039   27.2595 N   0  0  0  0  0  0  0  0  0  0  0  0
    7.1590  -19.5177   27.7283 C   0  0  0  0  0  0  0  0  0  0  0  0
    6.8983  -19.3864   28.9459 O   0  0  0  0  0  0  0  0  0  0  0  0
    7.0692  -18.3247   26.8493 C   0  0  0  0  0  0  0  0  0  0  0  0
    7.2440  -18.7172   25.4151 C   0  0  0  0  0  0  0  0  0  0  0  0
    7.1659  -17.5385   24.4850 C   0  0  2  0  0  0  0  0  0  0  0  0
    7.3568  -17.7575   23.1079 N   0  0  0  0  0  0  0  0  0  0  0  0
    7.9078  -16.3660   24.9637 C   0  0  0  0  0  0  0  0  0  0  0  0
    9.1870  -16.3678   24.8438 O   0  0  0  0  0  0  0  0  0  0  0  0
    5.7790  -13.1691   26.0642 C   0  0  0  0  0  0  0  0  0  0  0  0
    7.2478  -12.8495   26.2048 C   0  0  1  0  0  0  0  0  0  0  0  0
    7.4010  -12.1531   27.5617 C   0  0  0  0  0  0  0  0  0  0  0  0
    8.0360  -14.1030   26.1333 C   0  0  2  0  0  0  0  0  0  0  0  0
    7.3390  -15.2155   25.5531 N   0  0  0  0  0  0  0  0  0  0  0  0
    8.7101  -14.3890   27.4148 C   0  0  0  0  0  0  0  0  0  0  0  0
    9.6529  -13.5189   27.9144 O   0  0  0  0  0  0  0  0  0  0  0  0
    8.4427  -15.4137   28.0642 O   0  0  0  0  0  0  0  0  0  0  0  0
  2  1  1  6
  2  3  1  0
  3  4  1  0
  4  5  1  0
  5  9  1  0
  5  6  2  0
  7  8  2  0
  7  2  1  0
 10 11  1  0
 11 12  2  0
 13 11  1  0
 13 14  1  0
 15 14  1  1
 15 16  1  0
 15 17  1  0
 16  7  1  0
 17 23  1  0
 17 18  2  0
 20 19  1  1
 20 22  1  0
 21 20  1  0
 22 24  1  0
 22 23  1  1
 24 26  2  0
 24 25  1  0
M  END
$$$$
