EQV.pdb
     RDKit          3D

 26 25  0  0  1  0  0  0  0  0999 V2000
   10.2129  -18.1817   20.9616 N   0  0  0  0  0  0  0  0  0  0  0  0
    9.4308  -17.1333   20.3216 C   0  0  1  0  0  0  0  0  0  0  0  0
    9.0523  -17.6111   18.9554 C   0  0  0  0  0  0  0  0  0  0  0  0
    9.8929  -18.7127   18.4025 C   0  0  0  0  0  0  0  0  0  0  0  0
    9.3361  -19.0914   17.0638 C   0  0  0  0  0  0  0  0  0  0  0  0
    8.5706  -20.0769   16.9467 O   0  0  0  0  0  0  0  0  0  0  0  0
    8.2582  -16.7702   21.1763 C   0  0  0  0  0  0  0  0  0  0  0  0
    7.1074  -16.9927   20.7591 O   0  0  0  0  0  0  0  0  0  0  0  0
    9.6473  -18.3686   15.9177 O   0  0  0  0  0  0  0  0  0  0  0  0
    7.7524  -20.6673   25.0193 N   0  0  0  0  0  0  0  0  0  0  0  0
    7.6338  -19.5958   25.9395 C   0  0  0  0  0  0  0  0  0  0  0  0
    7.6816  -19.8609   27.1623 O   0  0  0  0  0  0  0  0  0  0  0  0
    7.4564  -18.1813   25.5250 C   0  0  0  0  0  0  0  0  0  0  0  0
    7.9934  -17.9696   24.1437 C   0  0  0  0  0  0  0  0  0  0  0  0
    7.8761  -16.5390   23.6964 C   0  0  2  0  0  0  0  0  0  0  0  0
    8.3997  -16.1847   22.4390 N   0  0  0  0  0  0  0  0  0  0  0  0
    8.2398  -15.5696   24.7368 C   0  0  0  0  0  0  0  0  0  0  0  0
    9.4574  -15.5483   25.1464 O   0  0  0  0  0  0  0  0  0  0  0  0
    7.1957  -11.4126   27.2504 C   0  0  0  0  0  0  0  0  0  0  0  0
    6.6589  -12.5453   26.4089 C   0  0  1  0  0  0  0  0  0  0  0  0
    6.2449  -11.9196   25.0721 C   0  0  0  0  0  0  0  0  0  0  0  0
    7.7111  -13.5751   26.2361 C   0  0  2  0  0  0  0  0  0  0  0  0
    7.3632  -14.6412   25.3403 N   0  0  0  0  0  0  0  0  0  0  0  0
    8.2603  -14.0071   27.5362 C   0  0  0  0  0  0  0  0  0  0  0  0
    9.0579  -13.1588   28.2709 O   0  0  0  0  0  0  0  0  0  0  0  0
    8.0162  -15.1371   27.9908 O   0  0  0  0  0  0  0  0  0  0  0  0
  2  1  1  1
  2  3  1  0
  3  4  1  0
  4  5  1  0
  5  9  1  0
  5  6  2  0
  7  8  2  0
  7  2  1  0
 10 11  1  0
 11 12  2  0
 13 11  1  0
 13 14  1  0
 15 14  1  1
 15 16  1  0
 15 17  1  0
 16  7  1  0
 17 23  1  0
 17 18  2  0
 20 19  1  1
 20 22  1  0
 21 20  1  0
 22 24  1  0
 22 23  1  1
 24 26  2  0
 24 25  1  0
M  END
$$$$
