EQV.pdb
     RDKit          3D

 26 25  0  0  1  0  0  0  0  0999 V2000
    7.2948  -20.1761   20.7014 N   0  0  0  0  0  0  0  0  0  0  0  0
    7.8987  -18.9238   21.1342 C   0  0  1  0  0  0  0  0  0  0  0  0
    8.0789  -18.0589   19.9269 C   0  0  0  0  0  0  0  0  0  0  0  0
    8.6970  -18.7251   18.7438 C   0  0  0  0  0  0  0  0  0  0  0  0
    9.4685  -17.6907   17.9819 C   0  0  0  0  0  0  0  0  0  0  0  0
   10.7198  -17.6538   18.0442 O   0  0  0  0  0  0  0  0  0  0  0  0
    7.0666  -18.2932   22.2052 C   0  0  0  0  0  0  0  0  0  0  0  0
    5.8291  -18.2652   22.0788 O   0  0  0  0  0  0  0  0  0  0  0  0
    8.8278  -16.7463   17.1879 O   0  0  0  0  0  0  0  0  0  0  0  0
    6.4072  -20.1180   27.6708 N   0  0  0  0  0  0  0  0  0  0  0  0
    7.6854  -19.5285   27.5042 C   0  0  0  0  0  0  0  0  0  0  0  0
    8.5978  -19.8669   28.2921 O   0  0  0  0  0  0  0  0  0  0  0  0
    7.9927  -18.5341   26.4456 C   0  0  0  0  0  0  0  0  0  0  0  0
    6.7628  -18.2166   25.6531 C   0  0  0  0  0  0  0  0  0  0  0  0
    7.0343  -17.2439   24.5393 C   0  0  2  0  0  0  0  0  0  0  0  0
    7.6244  -17.7268   23.3564 N   0  0  0  0  0  0  0  0  0  0  0  0
    7.6553  -15.9938   24.9934 C   0  0  0  0  0  0  0  0  0  0  0  0
    8.9381  -15.9214   24.9985 O   0  0  0  0  0  0  0  0  0  0  0  0
    5.6326  -12.7245   27.1302 C   0  0  0  0  0  0  0  0  0  0  0  0
    6.5762  -12.4799   25.9773 C   0  0  1  0  0  0  0  0  0  0  0  0
    7.2784  -11.1513   26.2800 C   0  0  0  0  0  0  0  0  0  0  0  0
    7.5372  -13.6042   25.8773 C   0  0  2  0  0  0  0  0  0  0  0  0
    6.9646  -14.8427   25.4320 N   0  0  0  0  0  0  0  0  0  0  0  0
    8.3763  -13.7045   27.0874 C   0  0  0  0  0  0  0  0  0  0  0  0
    9.2746  -12.7078   27.3957 O   0  0  0  0  0  0  0  0  0  0  0  0
    8.2901  -14.6836   27.8471 O   0  0  0  0  0  0  0  0  0  0  0  0
  2  1  1  6
  2  3  1  0
  3  4  1  0
  4  5  1  0
  5  9  1  0
  5  6  2  0
  7  8  2  0
  7  2  1  0
 10 11  1  0
 11 12  2  0
 13 11  1  0
 13 14  1  0
 15 14  1  1
 15 16  1  0
 15 17  1  0
 16  7  1  0
 17 23  1  0
 17 18  2  0
 20 19  1  1
 20 22  1  0
 21 20  1  0
 22 24  1  0
 22 23  1  1
 24 26  2  0
 24 25  1  0
M  END
$$$$
