EQV.pdb
     RDKit          3D

 26 25  0  0  1  0  0  0  0  0999 V2000
    9.7971  -17.6960   20.2812 N   0  0  0  0  0  0  0  0  0  0  0  0
    8.8500  -16.6874   19.8273 C   0  0  1  0  0  0  0  0  0  0  0  0
    8.1614  -17.2182   18.6099 C   0  0  0  0  0  0  0  0  0  0  0  0
    8.2830  -18.6889   18.3908 C   0  0  0  0  0  0  0  0  0  0  0  0
    8.4912  -18.9219   16.9252 C   0  0  0  0  0  0  0  0  0  0  0  0
    7.5116  -19.0600   16.1556 O   0  0  0  0  0  0  0  0  0  0  0  0
    7.9136  -16.3237   20.9356 C   0  0  0  0  0  0  0  0  0  0  0  0
    7.0083  -15.4973   20.7224 O   0  0  0  0  0  0  0  0  0  0  0  0
    9.7662  -18.9921   16.3756 O   0  0  0  0  0  0  0  0  0  0  0  0
    5.9913  -20.1896   25.4695 N   0  0  0  0  0  0  0  0  0  0  0  0
    7.3188  -19.7204   25.6325 C   0  0  0  0  0  0  0  0  0  0  0  0
    8.0863  -20.3700   26.3786 O   0  0  0  0  0  0  0  0  0  0  0  0
    7.8402  -18.5015   24.9642 C   0  0  0  0  0  0  0  0  0  0  0  0
    6.7636  -17.8470   24.1556 C   0  0  0  0  0  0  0  0  0  0  0  0
    7.2668  -16.6552   23.3896 C   0  0  2  0  0  0  0  0  0  0  0  0
    8.0116  -16.8781   22.2163 N   0  0  0  0  0  0  0  0  0  0  0  0
    7.8771  -15.6278   24.2418 C   0  0  0  0  0  0  0  0  0  0  0  0
    9.1468  -15.6748   24.4331 O   0  0  0  0  0  0  0  0  0  0  0  0
    5.7004  -12.6347   26.6712 C   0  0  0  0  0  0  0  0  0  0  0  0
    6.9194  -12.3264   25.8355 C   0  0  1  0  0  0  0  0  0  0  0  0
    7.6586  -11.1993   26.5655 C   0  0  0  0  0  0  0  0  0  0  0  0
    7.7538  -13.5452   25.7092 C   0  0  2  0  0  0  0  0  0  0  0  0
    7.1894  -14.5734   24.8819 N   0  0  0  0  0  0  0  0  0  0  0  0
    8.2430  -14.0015   27.0248 C   0  0  0  0  0  0  0  0  0  0  0  0
    9.2887  -13.3524   27.6417 O   0  0  0  0  0  0  0  0  0  0  0  0
    7.7250  -14.9741   27.5984 O   0  0  0  0  0  0  0  0  0  0  0  0
  2  1  1  1
  2  3  1  0
  3  4  1  0
  4  5  1  0
  5  9  1  0
  5  6  2  0
  7  8  2  0
  7  2  1  0
 10 11  1  0
 11 12  2  0
 13 11  1  0
 13 14  1  0
 15 14  1  1
 15 16  1  0
 15 17  1  0
 16  7  1  0
 17 23  1  0
 17 18  2  0
 20 19  1  1
 20 22  1  0
 21 20  1  0
 22 24  1  0
 22 23  1  1
 24 26  2  0
 24 25  1  0
M  END
$$$$
