NSC.pdb
     RDKit          3D

 21 20  0  0  1  0  0  0  0  0999 V2000
    8.8650  -12.4796   17.9506 N   0  0  0  0  0  0  0  0  0  0  0  0
    8.0315  -13.6298   17.8621 C   0  0  0  0  0  0  0  0  0  0  0  0
    7.8137  -14.2016   16.7809 O   0  0  0  0  0  0  0  0  0  0  0  0
    7.4303  -14.1203   19.1224 C   0  0  0  0  0  0  0  0  0  0  0  0
    8.4402  -14.9342   19.8875 C   0  0  2  0  0  0  0  0  0  0  0  0
    8.7154  -16.1593   19.1960 N   0  0  0  0  0  0  0  0  0  0  0  0
    7.8792  -15.2794   21.2282 C   0  0  0  0  0  0  0  0  0  0  0  0
    6.6054  -15.3819   21.2738 O   0  0  0  0  0  0  0  0  0  0  0  0
    9.5554  -17.7210   23.8604 O   0  0  0  0  0  0  0  0  0  0  0  0
    8.2520  -17.2879   23.8666 C   0  0  0  0  0  0  0  0  0  0  0  0
    8.0898  -15.8007   23.6326 C   0  0  2  0  0  0  0  0  0  0  0  0
    8.6987  -15.4800   22.3718 N   0  0  0  0  0  0  0  0  0  0  0  0
    8.7319  -15.0358   24.7564 C   0  0  0  0  0  0  0  0  0  0  0  0
    9.9847  -14.9597   24.8333 O   0  0  0  0  0  0  0  0  0  0  0  0
    7.9927  -14.3766   25.7628 N   0  0  0  0  0  0  0  0  0  0  0  0
    8.5929  -13.7112   26.8921 C   0  0  1  0  0  0  0  0  0  0  0  0
    7.6490  -12.7960   27.6174 C   0  0  0  0  0  0  0  0  0  0  0  0
    6.7082  -11.7463   26.4741 S   0  0  0  0  0  0  0  0  0  0  0  0
    9.2220  -14.6325   27.8507 C   0  0  0  0  0  0  0  0  0  0  0  0
    9.1359  -15.8814   27.7399 O   0  0  0  0  0  0  0  0  0  0  0  0
    9.9297  -14.1117   28.9061 O   0  0  0  0  0  0  0  0  0  0  0  0
  2  4  1  0
  2  1  1  0
  3  2  2  0
  5  6  1  6
  5  4  1  0
  7  5  1  0
  8  7  2  0
  9 10  1  0
 11 10  1  1
 11 12  1  0
 11 13  1  0
 12  7  1  0
 13 14  2  0
 13 15  1  0
 15 16  1  0
 16 17  1  1
 16 19  1  0
 17 18  1  0
 19 21  1  0
 20 19  2  0
M  END
$$$$
