NSC.pdb
     RDKit          3D

 21 20  0  0  1  0  0  0  0  0999 V2000
   13.7535  -15.2638   18.4002 N   0  0  0  0  0  0  0  0  0  0  0  0
   13.9381  -14.3272   19.4557 C   0  0  0  0  0  0  0  0  0  0  0  0
   14.8558  -13.4900   19.4380 O   0  0  0  0  0  0  0  0  0  0  0  0
   12.9831  -14.3926   20.5845 C   0  0  0  0  0  0  0  0  0  0  0  0
   12.0199  -15.5308   20.3736 C   0  0  2  0  0  0  0  0  0  0  0  0
   11.1026  -15.2143   19.3185 N   0  0  0  0  0  0  0  0  0  0  0  0
   11.2282  -15.7425   21.6225 C   0  0  0  0  0  0  0  0  0  0  0  0
   10.2220  -14.9665   21.7658 O   0  0  0  0  0  0  0  0  0  0  0  0
   11.8933  -18.9716   24.3755 O   0  0  0  0  0  0  0  0  0  0  0  0
   10.6831  -18.4863   23.9438 C   0  0  0  0  0  0  0  0  0  0  0  0
   10.6705  -16.9961   23.6755 C   0  0  2  0  0  0  0  0  0  0  0  0
   11.5661  -16.7333   22.5837 N   0  0  0  0  0  0  0  0  0  0  0  0
   11.0898  -16.2528   24.9133 C   0  0  0  0  0  0  0  0  0  0  0  0
   12.2228  -15.7104   24.9705 O   0  0  0  0  0  0  0  0  0  0  0  0
   10.2647  -16.1215   26.0515 N   0  0  0  0  0  0  0  0  0  0  0  0
   10.6674  -15.4454   27.2595 C   0  0  1  0  0  0  0  0  0  0  0  0
    9.7909  -14.2780   27.6115 C   0  0  0  0  0  0  0  0  0  0  0  0
   10.2055  -13.5834   29.2362 S   0  0  0  0  0  0  0  0  0  0  0  0
   10.7889  -16.3398   28.4209 C   0  0  0  0  0  0  0  0  0  0  0  0
   10.1750  -17.4339   28.4951 O   0  0  0  0  0  0  0  0  0  0  0  0
   11.6018  -15.9681   29.4634 O   0  0  0  0  0  0  0  0  0  0  0  0
  2  4  1  0
  2  1  1  0
  3  2  2  0
  5  6  1  6
  5  4  1  0
  7  5  1  0
  8  7  2  0
  9 10  1  0
 11 10  1  1
 11 12  1  0
 11 13  1  0
 12  7  1  0
 13 14  2  0
 13 15  1  0
 15 16  1  0
 16 17  1  1
 16 19  1  0
 17 18  1  0
 19 21  1  0
 20 19  2  0
M  END
$$$$
