NSC.pdb
     RDKit          3D

 21 20  0  0  1  0  0  0  0  0999 V2000
   -6.0877  -25.8780   22.8082 N   0  0  0  0  0  0  0  0  0  0  0  0
   -5.9336  -24.8399   23.7694 C   0  0  0  0  0  0  0  0  0  0  0  0
   -5.5751  -23.6948   23.4478 O   0  0  0  0  0  0  0  0  0  0  0  0
   -6.2206  -25.1845   25.1798 C   0  0  0  0  0  0  0  0  0  0  0  0
   -6.1805  -23.9409   26.0281 C   0  0  2  0  0  0  0  0  0  0  0  0
   -4.8242  -23.5249   26.2334 N   0  0  0  0  0  0  0  0  0  0  0  0
   -6.7772  -24.2382   27.3649 C   0  0  0  0  0  0  0  0  0  0  0  0
   -6.7718  -25.4724   27.6996 O   0  0  0  0  0  0  0  0  0  0  0  0
   -9.3060  -21.6421   29.4673 O   0  0  0  0  0  0  0  0  0  0  0  0
   -8.3312  -22.3137   30.1639 C   0  0  0  0  0  0  0  0  0  0  0  0
   -7.8470  -23.5808   29.4910 C   0  0  2  0  0  0  0  0  0  0  0  0
   -7.3129  -23.2256   28.2058 N   0  0  0  0  0  0  0  0  0  0  0  0
   -8.9864  -24.5525   29.3563 C   0  0  0  0  0  0  0  0  0  0  0  0
   -9.7395  -24.5067   28.3504 O   0  0  0  0  0  0  0  0  0  0  0  0
   -9.2724  -25.5449   30.3191 N   0  0  0  0  0  0  0  0  0  0  0  0
  -10.4228  -26.4117   30.2590 C   0  0  1  0  0  0  0  0  0  0  0  0
  -10.0953  -27.8097   29.8193 C   0  0  0  0  0  0  0  0  0  0  0  0
  -11.5380  -28.9068   29.9144 S   0  0  0  0  0  0  0  0  0  0  0  0
  -11.1918  -26.4554   31.5121 C   0  0  0  0  0  0  0  0  0  0  0  0
  -12.4474  -26.4075   31.5333 O   0  0  0  0  0  0  0  0  0  0  0  0
  -10.5157  -26.5520   32.7035 O   0  0  0  0  0  0  0  0  0  0  0  0
  2  4  1  0
  2  1  1  0
  3  2  2  0
  5  6  1  1
  5  4  1  0
  7  5  1  0
  8  7  2  0
  9 10  1  0
 11 10  1  6
 11 12  1  0
 11 13  1  0
 12  7  1  0
 13 14  2  0
 13 15  1  0
 15 16  1  0
 16 17  1  1
 16 19  1  0
 17 18  1  0
 19 21  1  0
 20 19  2  0
M  END
$$$$
