NSC.pdb
     RDKit          3D

 21 20  0  0  1  0  0  0  0  0999 V2000
   13.2331  -17.4254   18.0833 N   0  0  0  0  0  0  0  0  0  0  0  0
   12.4336  -17.7052   19.2269 C   0  0  0  0  0  0  0  0  0  0  0  0
   12.4909  -18.7966   19.8174 O   0  0  0  0  0  0  0  0  0  0  0  0
   11.5237  -16.6325   19.6872 C   0  0  0  0  0  0  0  0  0  0  0  0
   10.1381  -17.1880   19.8855 C   0  0  2  0  0  0  0  0  0  0  0  0
    9.4528  -17.2697   18.6291 N   0  0  0  0  0  0  0  0  0  0  0  0
    9.3628  -16.2698   20.7728 C   0  0  0  0  0  0  0  0  0  0  0  0
    9.1028  -15.1221   20.2724 O   0  0  0  0  0  0  0  0  0  0  0  0
    6.9590  -17.6199   23.7226 O   0  0  0  0  0  0  0  0  0  0  0  0
    6.8614  -16.3488   23.2114 C   0  0  0  0  0  0  0  0  0  0  0  0
    8.1924  -15.7104   22.8738 C   0  0  2  0  0  0  0  0  0  0  0  0
    8.9432  -16.6415   22.0788 N   0  0  0  0  0  0  0  0  0  0  0  0
    8.9250  -15.3620   24.1397 C   0  0  0  0  0  0  0  0  0  0  0  0
    9.8930  -16.0671   24.5232 O   0  0  0  0  0  0  0  0  0  0  0  0
    8.5833  -14.2576   24.9503 N   0  0  0  0  0  0  0  0  0  0  0  0
    9.1044  -14.0462   26.2777 C   0  0  1  0  0  0  0  0  0  0  0  0
    8.5423  -12.8288   26.9536 C   0  0  0  0  0  0  0  0  0  0  0  0
    6.7595  -12.6530   26.6624 S   0  0  0  0  0  0  0  0  0  0  0  0
    8.9563  -15.2137   27.1600 C   0  0  0  0  0  0  0  0  0  0  0  0
    8.2173  -16.1878   26.8692 O   0  0  0  0  0  0  0  0  0  0  0  0
    9.6494  -15.2430   28.3452 O   0  0  0  0  0  0  0  0  0  0  0  0
  2  4  1  0
  2  1  1  0
  3  2  2  0
  5  6  1  6
  5  4  1  0
  7  5  1  0
  8  7  2  0
  9 10  1  0
 11 10  1  1
 11 12  1  0
 11 13  1  0
 12  7  1  0
 13 14  2  0
 13 15  1  0
 15 16  1  0
 16 17  1  1
 16 19  1  0
 17 18  1  0
 19 21  1  0
 20 19  2  0
M  END
$$$$
