NSC.pdb
     RDKit          3D

 21 20  0  0  1  0  0  0  0  0999 V2000
   14.1794  -19.4560   14.6973 N   0  0  0  0  0  0  0  0  0  0  0  0
   13.0978  -19.5540   15.6170 C   0  0  0  0  0  0  0  0  0  0  0  0
   12.2417  -20.4500   15.5312 O   0  0  0  0  0  0  0  0  0  0  0  0
   13.0351  -18.5353   16.6888 C   0  0  0  0  0  0  0  0  0  0  0  0
   11.6581  -18.5188   17.2982 C   0  0  2  0  0  0  0  0  0  0  0  0
   10.7044  -18.0160   16.3535 N   0  0  0  0  0  0  0  0  0  0  0  0
   11.6556  -17.6083   18.4824 C   0  0  0  0  0  0  0  0  0  0  0  0
   12.7252  -16.9267   18.6457 O   0  0  0  0  0  0  0  0  0  0  0  0
    8.4752  -17.4644   21.2623 O   0  0  0  0  0  0  0  0  0  0  0  0
    9.2233  -16.3473   20.9813 C   0  0  0  0  0  0  0  0  0  0  0  0
   10.6321  -16.6441   20.5122 C   0  0  2  0  0  0  0  0  0  0  0  0
   10.5469  -17.5048   19.3654 N   0  0  0  0  0  0  0  0  0  0  0  0
   11.4116  -17.2931   21.6220 C   0  0  0  0  0  0  0  0  0  0  0  0
   11.5517  -18.5424   21.6483 O   0  0  0  0  0  0  0  0  0  0  0  0
   12.0156  -16.5642   22.6697 N   0  0  0  0  0  0  0  0  0  0  0  0
   12.6423  -17.1766   23.8145 C   0  0  1  0  0  0  0  0  0  0  0  0
   13.5865  -16.2616   24.5398 C   0  0  0  0  0  0  0  0  0  0  0  0
   14.7559  -15.4574   23.4085 S   0  0  0  0  0  0  0  0  0  0  0  0
   11.6846  -17.7557   24.7690 C   0  0  0  0  0  0  0  0  0  0  0  0
   10.4506  -17.5257   24.7078 O   0  0  0  0  0  0  0  0  0  0  0  0
   12.1533  -18.5776   25.7643 O   0  0  0  0  0  0  0  0  0  0  0  0
  2  4  1  0
  2  1  1  0
  3  2  2  0
  5  6  1  6
  5  4  1  0
  7  5  1  0
  8  7  2  0
  9 10  1  0
 11 10  1  1
 11 12  1  0
 11 13  1  0
 12  7  1  0
 13 14  2  0
 13 15  1  0
 15 16  1  0
 16 17  1  1
 16 19  1  0
 17 18  1  0
 19 21  1  0
 20 19  2  0
M  END
$$$$
