NSC.pdb
     RDKit          3D

 21 20  0  0  1  0  0  0  0  0999 V2000
   12.0141  -17.4428   17.8571 N   0  0  0  0  0  0  0  0  0  0  0  0
   12.2867  -17.0087   19.1847 C   0  0  0  0  0  0  0  0  0  0  0  0
   13.4453  -16.9350   19.6269 O   0  0  0  0  0  0  0  0  0  0  0  0
   11.1226  -16.6454   20.0234 C   0  0  0  0  0  0  0  0  0  0  0  0
   11.1901  -17.3793   21.3366 C   0  0  2  0  0  0  0  0  0  0  0  0
   10.7531  -18.7343   21.1698 N   0  0  0  0  0  0  0  0  0  0  0  0
   10.2758  -16.7190   22.3162 C   0  0  0  0  0  0  0  0  0  0  0  0
    9.9058  -15.5361   22.0016 O   0  0  0  0  0  0  0  0  0  0  0  0
    8.4828  -18.6773   25.6353 O   0  0  0  0  0  0  0  0  0  0  0  0
    7.9752  -17.5836   24.9775 C   0  0  0  0  0  0  0  0  0  0  0  0
    9.0278  -16.6342   24.4451 C   0  0  2  0  0  0  0  0  0  0  0  0
    9.8466  -17.3563   23.5117 N   0  0  0  0  0  0  0  0  0  0  0  0
    9.8482  -16.0943   25.5834 C   0  0  0  0  0  0  0  0  0  0  0  0
   11.0051  -16.5394   25.7945 O   0  0  0  0  0  0  0  0  0  0  0  0
    9.3862  -15.0864   26.4578 N   0  0  0  0  0  0  0  0  0  0  0  0
   10.1066  -14.6480   27.6271 C   0  0  1  0  0  0  0  0  0  0  0  0
    9.5359  -13.4067   28.2502 C   0  0  0  0  0  0  0  0  0  0  0  0
    8.7616  -12.3227   27.0175 S   0  0  0  0  0  0  0  0  0  0  0  0
   10.2542  -15.6923   28.6523 C   0  0  0  0  0  0  0  0  0  0  0  0
    9.6696  -16.8019   28.5719 O   0  0  0  0  0  0  0  0  0  0  0  0
   11.0591  -15.4485   29.7379 O   0  0  0  0  0  0  0  0  0  0  0  0
  2  4  1  0
  2  1  1  0
  3  2  2  0
  5  6  1  6
  5  4  1  0
  7  5  1  0
  8  7  2  0
  9 10  1  0
 11 10  1  1
 11 12  1  0
 11 13  1  0
 12  7  1  0
 13 14  2  0
 13 15  1  0
 15 16  1  0
 16 17  1  1
 16 19  1  0
 17 18  1  0
 19 21  1  0
 20 19  2  0
M  END
$$$$
