NSC.pdb
     RDKit          3D

 21 20  0  0  1  0  0  0  0  0999 V2000
    7.3732  -16.4760   13.8906 N   0  0  0  0  0  0  0  0  0  0  0  0
    8.5805  -16.5796   14.6371 C   0  0  0  0  0  0  0  0  0  0  0  0
    9.6775  -16.7751   14.0881 O   0  0  0  0  0  0  0  0  0  0  0  0
    8.4733  -16.4435   16.1070 C   0  0  0  0  0  0  0  0  0  0  0  0
    9.4267  -17.3959   16.7791 C   0  0  2  0  0  0  0  0  0  0  0  0
    8.9845  -18.7477   16.6007 N   0  0  0  0  0  0  0  0  0  0  0  0
    9.4538  -17.1111   18.2453 C   0  0  0  0  0  0  0  0  0  0  0  0
   10.0305  -16.0187   18.5758 O   0  0  0  0  0  0  0  0  0  0  0  0
    7.9512  -19.8264   21.0902 O   0  0  0  0  0  0  0  0  0  0  0  0
    8.0121  -18.4838   21.3739 C   0  0  0  0  0  0  0  0  0  0  0  0
    9.0793  -17.7335   20.6052 C   0  0  2  0  0  0  0  0  0  0  0  0
    8.8813  -17.9884   19.2056 N   0  0  0  0  0  0  0  0  0  0  0  0
   10.4414  -18.1862   21.0527 C   0  0  0  0  0  0  0  0  0  0  0  0
   11.0486  -19.0848   20.4163 O   0  0  0  0  0  0  0  0  0  0  0  0
   11.1025  -17.6480   22.1783 N   0  0  0  0  0  0  0  0  0  0  0  0
   12.3693  -18.1296   22.6698 C   0  0  1  0  0  0  0  0  0  0  0  0
   13.5225  -17.2286   22.3335 C   0  0  0  0  0  0  0  0  0  0  0  0
   13.2748  -15.5448   22.9641 S   0  0  0  0  0  0  0  0  0  0  0  0
   12.3699  -18.4149   24.1127 C   0  0  0  0  0  0  0  0  0  0  0  0
   13.3295  -18.9904   24.6847 O   0  0  0  0  0  0  0  0  0  0  0  0
   11.2835  -18.0400   24.8645 O   0  0  0  0  0  0  0  0  0  0  0  0
  2  4  1  0
  2  1  1  0
  3  2  2  0
  5  6  1  1
  5  4  1  0
  7  5  1  0
  8  7  2  0
  9 10  1  0
 11 10  1  1
 11 12  1  0
 11 13  1  0
 12  7  1  0
 13 14  2  0
 13 15  1  0
 15 16  1  0
 16 17  1  1
 16 19  1  0
 17 18  1  0
 19 21  1  0
 20 19  2  0
M  END
$$$$
