NSC.pdb
     RDKit          3D

 21 20  0  0  1  0  0  0  0  0999 V2000
   14.0889  -19.4941   21.0939 N   0  0  0  0  0  0  0  0  0  0  0  0
   14.6561  -18.2363   21.4424 C   0  0  0  0  0  0  0  0  0  0  0  0
   15.8286  -18.1318   21.8394 O   0  0  0  0  0  0  0  0  0  0  0  0
   13.7836  -17.0480   21.3109 C   0  0  0  0  0  0  0  0  0  0  0  0
   12.4118  -17.4695   20.8544 C   0  0  2  0  0  0  0  0  0  0  0  0
   12.2383  -17.1681   19.4637 N   0  0  0  0  0  0  0  0  0  0  0  0
   11.3824  -16.7061   21.6218 C   0  0  0  0  0  0  0  0  0  0  0  0
   11.3061  -15.4615   21.3386 O   0  0  0  0  0  0  0  0  0  0  0  0
    8.5658  -18.5753   24.1514 O   0  0  0  0  0  0  0  0  0  0  0  0
    8.3113  -17.4363   23.4272 C   0  0  0  0  0  0  0  0  0  0  0  0
    9.5171  -16.5415   23.2314 C   0  0  2  0  0  0  0  0  0  0  0  0
   10.5470  -17.3157   22.5966 N   0  0  0  0  0  0  0  0  0  0  0  0
    9.9776  -16.0104   24.5604 C   0  0  0  0  0  0  0  0  0  0  0  0
   10.9651  -16.5301   25.1400 O   0  0  0  0  0  0  0  0  0  0  0  0
    9.3507  -14.9302   25.2191 N   0  0  0  0  0  0  0  0  0  0  0  0
    9.6073  -14.5708   26.5915 C   0  0  1  0  0  0  0  0  0  0  0  0
    8.7095  -13.4805   27.1016 C   0  0  0  0  0  0  0  0  0  0  0  0
    9.1320  -12.9910   28.7974 S   0  0  0  0  0  0  0  0  0  0  0  0
    9.5694  -15.7146   27.5155 C   0  0  0  0  0  0  0  0  0  0  0  0
    8.6500  -16.5710   27.4892 O   0  0  0  0  0  0  0  0  0  0  0  0
   10.5738  -15.8541   28.4416 O   0  0  0  0  0  0  0  0  0  0  0  0
  2  4  1  0
  2  1  1  0
  3  2  2  0
  5  6  1  6
  5  4  1  0
  7  5  1  0
  8  7  2  0
  9 10  1  0
 11 10  1  1
 11 12  1  0
 11 13  1  0
 12  7  1  0
 13 14  2  0
 13 15  1  0
 15 16  1  0
 16 17  1  1
 16 19  1  0
 17 18  1  0
 19 21  1  0
 20 19  2  0
M  END
$$$$
