NSC.pdb
     RDKit          3D

 21 20  0  0  1  0  0  0  0  0999 V2000
    7.0728  -19.0463   15.3159 N   0  0  0  0  0  0  0  0  0  0  0  0
    8.3880  -19.1690   15.8454 C   0  0  0  0  0  0  0  0  0  0  0  0
    9.2621  -19.8485   15.2822 O   0  0  0  0  0  0  0  0  0  0  0  0
    8.6732  -18.4469   17.1055 C   0  0  0  0  0  0  0  0  0  0  0  0
    8.8969  -16.9857   16.8177 C   0  0  2  0  0  0  0  0  0  0  0  0
   10.0578  -16.8151   15.9944 N   0  0  0  0  0  0  0  0  0  0  0  0
    9.1348  -16.2625   18.1030 C   0  0  0  0  0  0  0  0  0  0  0  0
   10.3044  -15.7632   18.2367 O   0  0  0  0  0  0  0  0  0  0  0  0
    6.2789  -16.0603   21.2304 O   0  0  0  0  0  0  0  0  0  0  0  0
    7.1174  -15.0096   20.9484 C   0  0  0  0  0  0  0  0  0  0  0  0
    8.4305  -15.4150   20.3127 C   0  0  2  0  0  0  0  0  0  0  0  0
    8.1362  -16.1369   19.1063 N   0  0  0  0  0  0  0  0  0  0  0  0
    9.2209  -16.2600   21.2726 C   0  0  0  0  0  0  0  0  0  0  0  0
    9.2443  -17.5104   21.1414 O   0  0  0  0  0  0  0  0  0  0  0  0
    9.9624  -15.7202   22.3462 N   0  0  0  0  0  0  0  0  0  0  0  0
   10.5982  -16.5201   23.3631 C   0  0  1  0  0  0  0  0  0  0  0  0
   11.9135  -15.9631   23.8262 C   0  0  0  0  0  0  0  0  0  0  0  0
   13.0672  -17.2721   24.3256 S   0  0  0  0  0  0  0  0  0  0  0  0
    9.7373  -16.7853   24.5259 C   0  0  0  0  0  0  0  0  0  0  0  0
    8.7315  -16.0809   24.7934 O   0  0  0  0  0  0  0  0  0  0  0  0
   10.0415  -17.8401   25.3510 O   0  0  0  0  0  0  0  0  0  0  0  0
  2  4  1  0
  2  1  1  0
  3  2  2  0
  5  6  1  6
  5  4  1  0
  7  5  1  0
  8  7  2  0
  9 10  1  0
 11 10  1  1
 11 12  1  0
 11 13  1  0
 12  7  1  0
 13 14  2  0
 13 15  1  0
 15 16  1  0
 16 17  1  1
 16 19  1  0
 17 18  1  0
 19 21  1  0
 20 19  2  0
M  END
$$$$
