NSC.pdb
     RDKit          3D

 21 20  0  0  1  0  0  0  0  0999 V2000
    8.1172  -12.6407   15.7219 N   0  0  0  0  0  0  0  0  0  0  0  0
    8.2431  -14.0464   15.5387 C   0  0  0  0  0  0  0  0  0  0  0  0
    8.7623  -14.5322   14.5201 O   0  0  0  0  0  0  0  0  0  0  0  0
    7.7254  -14.9124   16.6215 C   0  0  0  0  0  0  0  0  0  0  0  0
    8.5686  -16.1555   16.7289 C   0  0  2  0  0  0  0  0  0  0  0  0
    8.1675  -17.1130   15.7404 N   0  0  0  0  0  0  0  0  0  0  0  0
    8.3662  -16.7719   18.0744 C   0  0  0  0  0  0  0  0  0  0  0  0
    7.4099  -17.6179   18.1459 O   0  0  0  0  0  0  0  0  0  0  0  0
    9.5354  -19.5172   21.1048 O   0  0  0  0  0  0  0  0  0  0  0  0
    9.5257  -18.6505   20.0393 C   0  0  0  0  0  0  0  0  0  0  0  0
    9.0924  -17.2420   20.3871 C   0  0  2  0  0  0  0  0  0  0  0  0
    9.1755  -16.4442   19.1957 N   0  0  0  0  0  0  0  0  0  0  0  0
    9.9753  -16.6916   21.4725 C   0  0  0  0  0  0  0  0  0  0  0  0
   11.1614  -16.3627   21.2152 O   0  0  0  0  0  0  0  0  0  0  0  0
    9.5420  -16.5152   22.8047 N   0  0  0  0  0  0  0  0  0  0  0  0
   10.3688  -15.9655   23.8500 C   0  0  1  0  0  0  0  0  0  0  0  0
    9.5990  -15.5802   25.0805 C   0  0  0  0  0  0  0  0  0  0  0  0
    8.1165  -14.6134   24.6788 S   0  0  0  0  0  0  0  0  0  0  0  0
   11.4966  -16.8324   24.2243 C   0  0  0  0  0  0  0  0  0  0  0  0
   11.6112  -18.0093   23.7987 O   0  0  0  0  0  0  0  0  0  0  0  0
   12.4608  -16.3403   25.0693 O   0  0  0  0  0  0  0  0  0  0  0  0
  2  4  1  0
  2  1  1  0
  3  2  2  0
  5  6  1  6
  5  4  1  0
  7  5  1  0
  8  7  2  0
  9 10  1  0
 11 10  1  6
 11 12  1  0
 11 13  1  0
 12  7  1  0
 13 14  2  0
 13 15  1  0
 15 16  1  0
 16 17  1  1
 16 19  1  0
 17 18  1  0
 19 21  1  0
 20 19  2  0
M  END
$$$$
