NSC.pdb
     RDKit          3D

 21 20  0  0  1  0  0  0  0  0999 V2000
    7.1704  -12.8805   19.3439 N   0  0  0  0  0  0  0  0  0  0  0  0
    8.0529  -13.6014   18.4914 C   0  0  0  0  0  0  0  0  0  0  0  0
    7.6973  -14.0127   17.3745 O   0  0  0  0  0  0  0  0  0  0  0  0
    9.4235  -13.8425   18.9953 C   0  0  0  0  0  0  0  0  0  0  0  0
    9.5686  -15.2822   19.4126 C   0  0  2  0  0  0  0  0  0  0  0  0
    9.0006  -16.1455   18.4191 N   0  0  0  0  0  0  0  0  0  0  0  0
    8.8258  -15.5009   20.6900 C   0  0  0  0  0  0  0  0  0  0  0  0
    7.5543  -15.5708   20.5738 O   0  0  0  0  0  0  0  0  0  0  0  0
   10.4202  -17.3824   23.9078 O   0  0  0  0  0  0  0  0  0  0  0  0
    9.0764  -17.2140   23.6788 C   0  0  0  0  0  0  0  0  0  0  0  0
    8.7048  -15.8521   23.1312 C   0  0  2  0  0  0  0  0  0  0  0  0
    9.4816  -15.6227   21.9450 N   0  0  0  0  0  0  0  0  0  0  0  0
    8.9718  -14.7967   24.1682 C   0  0  0  0  0  0  0  0  0  0  0  0
   10.0424  -14.1379   24.1373 O   0  0  0  0  0  0  0  0  0  0  0  0
    8.0666  -14.4892   25.2073 N   0  0  0  0  0  0  0  0  0  0  0  0
    8.3826  -13.6219   26.3147 C   0  0  1  0  0  0  0  0  0  0  0  0
    7.4075  -12.4930   26.4869 C   0  0  0  0  0  0  0  0  0  0  0  0
    5.6876  -13.0523   26.3345 S   0  0  0  0  0  0  0  0  0  0  0  0
    8.5442  -14.3342   27.5915 C   0  0  0  0  0  0  0  0  0  0  0  0
    8.9021  -13.7523   28.6463 O   0  0  0  0  0  0  0  0  0  0  0  0
    8.2956  -15.6841   27.6352 O   0  0  0  0  0  0  0  0  0  0  0  0
  2  4  1  0
  2  1  1  0
  3  2  2  0
  5  6  1  6
  5  4  1  0
  7  5  1  0
  8  7  2  0
  9 10  1  0
 11 10  1  1
 11 12  1  0
 11 13  1  0
 12  7  1  0
 13 14  2  0
 13 15  1  0
 15 16  1  0
 16 17  1  1
 16 19  1  0
 17 18  1  0
 19 21  1  0
 20 19  2  0
M  END
$$$$
