NSC.pdb
     RDKit          3D

 21 20  0  0  1  0  0  0  0  0999 V2000
   14.8572  -13.5946   18.1416 N   0  0  0  0  0  0  0  0  0  0  0  0
   14.6703  -14.4503   19.2633 C   0  0  0  0  0  0  0  0  0  0  0  0
   15.5126  -15.3048   19.5852 O   0  0  0  0  0  0  0  0  0  0  0  0
   13.4202  -14.2781   20.0367 C   0  0  0  0  0  0  0  0  0  0  0  0
   12.8520  -15.6256   20.3963 C   0  0  2  0  0  0  0  0  0  0  0  0
   12.1941  -16.2044   19.2618 N   0  0  0  0  0  0  0  0  0  0  0  0
   11.8373  -15.4579   21.4797 C   0  0  0  0  0  0  0  0  0  0  0  0
   11.2553  -14.3197   21.5072 O   0  0  0  0  0  0  0  0  0  0  0  0
   10.4583  -18.6935   23.7714 O   0  0  0  0  0  0  0  0  0  0  0  0
    9.6921  -17.6040   23.4360 C   0  0  0  0  0  0  0  0  0  0  0  0
   10.4638  -16.3041   23.3490 C   0  0  2  0  0  0  0  0  0  0  0  0
   11.5383  -16.4866   22.4135 N   0  0  0  0  0  0  0  0  0  0  0  0
   10.9848  -15.9299   24.7088 C   0  0  0  0  0  0  0  0  0  0  0  0
   12.1492  -16.2587   25.0511 O   0  0  0  0  0  0  0  0  0  0  0  0
   10.2243  -15.2092   25.6553 N   0  0  0  0  0  0  0  0  0  0  0  0
   10.6149  -15.0353   27.0321 C   0  0  1  0  0  0  0  0  0  0  0  0
    9.8964  -13.9101   27.7196 C   0  0  0  0  0  0  0  0  0  0  0  0
   10.4135  -13.7312   29.4501 S   0  0  0  0  0  0  0  0  0  0  0  0
   10.4963  -16.2613   27.8360 C   0  0  0  0  0  0  0  0  0  0  0  0
    9.5065  -17.0308   27.7482 O   0  0  0  0  0  0  0  0  0  0  0  0
   11.5022  -16.5791   28.7153 O   0  0  0  0  0  0  0  0  0  0  0  0
  2  4  1  0
  2  1  1  0
  3  2  2  0
  5  6  1  6
  5  4  1  0
  7  5  1  0
  8  7  2  0
  9 10  1  0
 11 10  1  1
 11 12  1  0
 11 13  1  0
 12  7  1  0
 13 14  2  0
 13 15  1  0
 15 16  1  0
 16 17  1  1
 16 19  1  0
 17 18  1  0
 19 21  1  0
 20 19  2  0
M  END
$$$$
