CTP.pdb
     RDKit          3D

 21 21  0  0  1  0  0  0  0  0999 V2000
   15.4805  -22.6578    0.6723 N   0  0  0  0  0  0  0  0  0  0  0  0
   15.5799  -22.3898    2.0813 C   0  0  1  0  0  0  0  0  0  0  0  0
   15.8547  -23.7087    2.7769 C   0  0  0  0  0  0  0  0  0  0  0  0
   14.6350  -24.9187    2.1486 S   0  0  0  0  0  0  0  0  0  0  0  0
   16.6363  -21.3842    2.3840 C   0  0  0  0  0  0  0  0  0  0  0  0
   17.5913  -21.2025    1.6139 O   0  0  0  0  0  0  0  0  0  0  0  0
   16.3570  -17.9740    2.3982 C   0  0  0  0  0  0  0  0  0  0  0  0
   16.6504  -18.3099    3.8413 C   0  0  1  0  0  0  0  0  0  0  0  0
   15.5060  -18.3398    4.5629 O   0  0  0  0  0  0  0  0  0  0  0  0
   17.5104  -19.5800    3.9313 C   0  0  2  0  0  0  0  0  0  0  0  0
   16.5269  -20.6365    3.5752 N   0  0  0  0  0  0  0  0  0  0  0  0
   17.9407  -19.8450    5.3132 C   0  0  0  0  0  0  0  0  0  0  0  0
   17.2080  -20.6901    5.9663 O   0  0  0  0  0  0  0  0  0  0  0  0
   19.0359  -19.2972    5.9898 N   0  0  0  0  0  0  0  0  0  0  0  0
   19.9958  -18.3866    5.4393 C   0  0  0  0  0  0  0  0  0  0  0  0
   21.2806  -18.8053    6.1237 C   0  0  0  0  0  0  0  0  0  0  0  0
   20.8852  -19.8372    7.1872 C   0  0  0  0  0  0  0  0  0  0  0  0
   19.3956  -19.4872    7.3531 C   0  0  1  0  0  0  0  0  0  0  0  0
   19.2355  -18.2766    8.1837 C   0  0  0  0  0  0  0  0  0  0  0  0
   19.4170  -18.3453    9.5462 O   0  0  0  0  0  0  0  0  0  0  0  0
   18.9367  -17.1956    7.6512 O   0  0  0  0  0  0  0  0  0  0  0  0
  2  1  1  6
  3  2  1  0
  4  3  1  0
  5 11  1  0
  5  2  1  0
  6  5  2  0
  8  7  1  6
  8 10  1  0
  9  8  1  0
 10 12  1  0
 10 11  1  1
 12 14  1  0
 13 12  2  0
 14 15  1  0
 14 18  1  0
 15 16  1  0
 16 17  1  0
 18 19  1  1
 18 17  1  0
 19 20  1  0
 21 19  2  0
M  END
$$$$
