CTP.pdb
     RDKit          3D

 21 21  0  0  1  0  0  0  0  0999 V2000
   19.1348  -15.4020  -19.5532 N   0  0  0  0  0  0  0  0  0  0  0  0
   18.9472  -14.5440  -18.4149 C   0  0  1  0  0  0  0  0  0  0  0  0
   18.5021  -15.4157  -17.2568 C   0  0  0  0  0  0  0  0  0  0  0  0
   18.2023  -14.3113  -15.8296 S   0  0  0  0  0  0  0  0  0  0  0  0
   20.1839  -13.7841  -18.0802 C   0  0  0  0  0  0  0  0  0  0  0  0
   21.2823  -14.3520  -17.9854 O   0  0  0  0  0  0  0  0  0  0  0  0
   21.6463  -11.1326  -20.0384 C   0  0  0  0  0  0  0  0  0  0  0  0
   21.1895  -10.5176  -18.7366 C   0  0  1  0  0  0  0  0  0  0  0  0
   19.9815   -9.9272  -18.8897 O   0  0  0  0  0  0  0  0  0  0  0  0
   21.2714  -11.5480  -17.5998 C   0  0  2  0  0  0  0  0  0  0  0  0
   20.0786  -12.3929  -17.8716 N   0  0  0  0  0  0  0  0  0  0  0  0
   21.0605  -10.9211  -16.2855 C   0  0  0  0  0  0  0  0  0  0  0  0
   19.8447  -10.9675  -15.8412 O   0  0  0  0  0  0  0  0  0  0  0  0
   22.0105  -10.2922  -15.4735 N   0  0  0  0  0  0  0  0  0  0  0  0
   23.3863  -10.0682  -15.8064 C   0  0  0  0  0  0  0  0  0  0  0  0
   24.0818  -10.2339  -14.4710 C   0  0  0  0  0  0  0  0  0  0  0  0
   22.9717  -10.3573  -13.4200 C   0  0  0  0  0  0  0  0  0  0  0  0
   21.8062   -9.7120  -14.1906 C   0  0  1  0  0  0  0  0  0  0  0  0
   21.9266   -8.2402  -14.1787 C   0  0  0  0  0  0  0  0  0  0  0  0
   22.2984   -7.5687  -15.3212 O   0  0  0  0  0  0  0  0  0  0  0  0
   21.6920   -7.6083  -13.1361 O   0  0  0  0  0  0  0  0  0  0  0  0
  2  1  1  6
  3  2  1  0
  4  3  1  0
  5 11  1  0
  5  2  1  0
  6  5  2  0
  8  7  1  6
  8 10  1  0
  9  8  1  0
 10 12  1  0
 10 11  1  6
 12 14  1  0
 13 12  2  0
 14 15  1  0
 14 18  1  0
 15 16  1  0
 16 17  1  0
 18 19  1  6
 18 17  1  0
 19 20  1  0
 21 19  2  0
M  END
$$$$
