CTP.pdb
     RDKit          3D

 21 21  0  0  1  0  0  0  0  0999 V2000
   24.9649  -21.0870   -8.9353 N   0  0  0  0  0  0  0  0  0  0  0  0
   24.4456  -20.7380  -10.2298 C   0  0  1  0  0  0  0  0  0  0  0  0
   23.1557  -19.9716  -10.0110 C   0  0  0  0  0  0  0  0  0  0  0  0
   21.8661  -21.1927   -9.5724 S   0  0  0  0  0  0  0  0  0  0  0  0
   25.4223  -19.9439  -11.0262 C   0  0  0  0  0  0  0  0  0  0  0  0
   26.0763  -19.0247  -10.5111 O   0  0  0  0  0  0  0  0  0  0  0  0
   28.3839  -21.0893  -12.7509 C   0  0  0  0  0  0  0  0  0  0  0  0
   27.4180  -20.6210  -13.8136 C   0  0  1  0  0  0  0  0  0  0  0  0
   26.7588  -21.6733  -14.3514 O   0  0  0  0  0  0  0  0  0  0  0  0
   26.5202  -19.5013  -13.2650 C   0  0  2  0  0  0  0  0  0  0  0  0
   25.5891  -20.2620  -12.3904 N   0  0  0  0  0  0  0  0  0  0  0  0
   25.7057  -18.8915  -14.3280 C   0  0  0  0  0  0  0  0  0  0  0  0
   24.5149  -19.3834  -14.4610 O   0  0  0  0  0  0  0  0  0  0  0  0
   26.0662  -17.8554  -15.1963 N   0  0  0  0  0  0  0  0  0  0  0  0
   27.3649  -17.2587  -15.3012 C   0  0  0  0  0  0  0  0  0  0  0  0
   27.0407  -15.8085  -15.5951 C   0  0  0  0  0  0  0  0  0  0  0  0
   25.5260  -15.7445  -15.8265 C   0  0  0  0  0  0  0  0  0  0  0  0
   25.2495  -17.2186  -16.1719 C   0  0  1  0  0  0  0  0  0  0  0  0
   25.6496  -17.5105  -17.5631 C   0  0  0  0  0  0  0  0  0  0  0  0
   26.7078  -18.3539  -17.8146 O   0  0  0  0  0  0  0  0  0  0  0  0
   25.0300  -16.9940  -18.5068 O   0  0  0  0  0  0  0  0  0  0  0  0
  2  1  1  1
  3  2  1  0
  4  3  1  0
  5 11  1  0
  5  2  1  0
  6  5  2  0
  8  7  1  1
  8 10  1  0
  9  8  1  0
 10 12  1  0
 10 11  1  1
 12 14  1  0
 13 12  2  0
 14 15  1  0
 14 18  1  0
 15 16  1  0
 16 17  1  0
 18 19  1  6
 18 17  1  0
 19 20  1  0
 21 19  2  0
M  END
$$$$
