CTP.pdb
     RDKit          3D

 21 21  0  0  1  0  0  0  0  0999 V2000
   21.2086  -12.1749  -20.6636 N   0  0  0  0  0  0  0  0  0  0  0  0
   21.4813  -10.8214  -20.2625 C   0  0  1  0  0  0  0  0  0  0  0  0
   20.4003   -9.9429  -20.8615 C   0  0  0  0  0  0  0  0  0  0  0  0
   20.8117   -8.2112  -20.4393 S   0  0  0  0  0  0  0  0  0  0  0  0
   21.5383  -10.6803  -18.7807 C   0  0  0  0  0  0  0  0  0  0  0  0
   20.8076  -11.3566  -18.0413 O   0  0  0  0  0  0  0  0  0  0  0  0
   24.3221   -9.5698  -15.0437 C   0  0  0  0  0  0  0  0  0  0  0  0
   23.8972  -10.0504  -16.4111 C   0  0  1  0  0  0  0  0  0  0  0  0
   24.0099  -11.3962  -16.4965 O   0  0  0  0  0  0  0  0  0  0  0  0
   22.5127   -9.4887  -16.7697 C   0  0  2  0  0  0  0  0  0  0  0  0
   22.4488   -9.7533  -18.2313 N   0  0  0  0  0  0  0  0  0  0  0  0
   22.4603   -8.0284  -16.5972 C   0  0  0  0  0  0  0  0  0  0  0  0
   23.1942   -7.3492  -17.4206 O   0  0  0  0  0  0  0  0  0  0  0  0
   21.7174   -7.3021  -15.6602 N   0  0  0  0  0  0  0  0  0  0  0  0
   20.9133   -7.8564  -14.6114 C   0  0  0  0  0  0  0  0  0  0  0  0
   19.7547   -6.8839  -14.5327 C   0  0  0  0  0  0  0  0  0  0  0  0
   20.1133   -5.7117  -15.4543 C   0  0  0  0  0  0  0  0  0  0  0  0
   21.6407   -5.8881  -15.5231 C   0  0  1  0  0  0  0  0  0  0  0  0
   22.2791   -5.3753  -14.2941 C   0  0  0  0  0  0  0  0  0  0  0  0
   22.8770   -6.2461  -13.4118 O   0  0  0  0  0  0  0  0  0  0  0  0
   22.2761   -4.1567  -14.0571 O   0  0  0  0  0  0  0  0  0  0  0  0
  2  1  1  1
  3  2  1  0
  4  3  1  0
  5 11  1  0
  5  2  1  0
  6  5  2  0
  8  7  1  1
  8 10  1  0
  9  8  1  0
 10 12  1  0
 10 11  1  6
 12 14  1  0
 13 12  2  0
 14 15  1  0
 14 18  1  0
 15 16  1  0
 16 17  1  0
 18 19  1  1
 18 17  1  0
 19 20  1  0
 21 19  2  0
M  END
$$$$
