CTP.pdb
     RDKit          3D

 21 21  0  0  1  0  0  0  0  0999 V2000
   17.7134   -9.1939  -20.8588 N   0  0  0  0  0  0  0  0  0  0  0  0
   18.1106   -8.0730  -20.0508 C   0  0  1  0  0  0  0  0  0  0  0  0
   16.8469   -7.3643  -19.6035 C   0  0  0  0  0  0  0  0  0  0  0  0
   17.3594   -5.8602  -18.6972 S   0  0  0  0  0  0  0  0  0  0  0  0
   18.9409   -8.4914  -18.8871 C   0  0  0  0  0  0  0  0  0  0  0  0
   18.6697   -9.5120  -18.2368 O   0  0  0  0  0  0  0  0  0  0  0  0
   22.5769   -9.1645  -18.9923 C   0  0  0  0  0  0  0  0  0  0  0  0
   22.3400   -7.9679  -18.1015 C   0  0  1  0  0  0  0  0  0  0  0  0
   22.5616   -6.8194  -18.7820 O   0  0  0  0  0  0  0  0  0  0  0  0
   20.9645   -8.0686  -17.4243 C   0  0  2  0  0  0  0  0  0  0  0  0
   20.0519   -7.6956  -18.5371 N   0  0  0  0  0  0  0  0  0  0  0  0
   20.8012   -7.0476  -16.3773 C   0  0  0  0  0  0  0  0  0  0  0  0
   20.2053   -5.9613  -16.7548 O   0  0  0  0  0  0  0  0  0  0  0  0
   21.2088   -7.1176  -15.0408 N   0  0  0  0  0  0  0  0  0  0  0  0
   21.9664   -8.1790  -14.4465 C   0  0  0  0  0  0  0  0  0  0  0  0
   21.3911   -8.2537  -13.0472 C   0  0  0  0  0  0  0  0  0  0  0  0
   20.4477   -7.0530  -12.9051 C   0  0  0  0  0  0  0  0  0  0  0  0
   21.0024   -6.1485  -14.0199 C   0  0  1  0  0  0  0  0  0  0  0  0
   22.2421   -5.4789  -13.5775 C   0  0  0  0  0  0  0  0  0  0  0  0
   23.4515   -5.8273  -14.1346 O   0  0  0  0  0  0  0  0  0  0  0  0
   22.1925   -4.6004  -12.7017 O   0  0  0  0  0  0  0  0  0  0  0  0
  2  1  1  1
  3  2  1  0
  4  3  1  0
  5 11  1  0
  5  2  1  0
  6  5  2  0
  8  7  1  6
  8 10  1  0
  9  8  1  0
 10 12  1  0
 10 11  1  6
 12 14  1  0
 13 12  2  0
 14 15  1  0
 14 18  1  0
 15 16  1  0
 16 17  1  0
 18 19  1  1
 18 17  1  0
 19 20  1  0
 21 19  2  0
M  END
$$$$
