CTP.pdb
     RDKit          3D

 21 21  0  0  1  0  0  0  0  0999 V2000
   21.1055  -12.6274  -17.5034 N   0  0  0  0  0  0  0  0  0  0  0  0
   21.4490  -11.7102  -16.4508 C   0  0  1  0  0  0  0  0  0  0  0  0
   22.7286  -12.2115  -15.8103 C   0  0  0  0  0  0  0  0  0  0  0  0
   22.2545  -13.1620  -14.3210 S   0  0  0  0  0  0  0  0  0  0  0  0
   21.6018  -10.3166  -16.9540 C   0  0  0  0  0  0  0  0  0  0  0  0
   22.3692  -10.0515  -17.8915 O   0  0  0  0  0  0  0  0  0  0  0  0
   19.5853   -8.3987  -18.8728 C   0  0  0  0  0  0  0  0  0  0  0  0
   19.5452   -7.7418  -17.5132 C   0  0  1  0  0  0  0  0  0  0  0  0
   18.4805   -8.1841  -16.8046 O   0  0  0  0  0  0  0  0  0  0  0  0
   20.9026   -7.8869  -16.8082 C   0  0  2  0  0  0  0  0  0  0  0  0
   20.8488   -9.2958  -16.3366 N   0  0  0  0  0  0  0  0  0  0  0  0
   20.9828   -7.0378  -15.6092 C   0  0  0  0  0  0  0  0  0  0  0  0
   20.5307   -7.5759  -14.5212 O   0  0  0  0  0  0  0  0  0  0  0  0
   21.4861   -5.7359  -15.5130 N   0  0  0  0  0  0  0  0  0  0  0  0
   21.9291   -4.9219  -16.6061 C   0  0  0  0  0  0  0  0  0  0  0  0
   23.0850   -4.1532  -15.9998 C   0  0  0  0  0  0  0  0  0  0  0  0
   23.0763   -4.4748  -14.5002 C   0  0  0  0  0  0  0  0  0  0  0  0
   21.6189   -4.9427  -14.3394 C   0  0  1  0  0  0  0  0  0  0  0  0
   20.7028   -3.7852  -14.2983 C   0  0  0  0  0  0  0  0  0  0  0  0
   19.9004   -3.5011  -15.3799 O   0  0  0  0  0  0  0  0  0  0  0  0
   20.6568   -3.0677  -13.2862 O   0  0  0  0  0  0  0  0  0  0  0  0
  2  1  1  6
  3  2  1  0
  4  3  1  0
  5 11  1  0
  5  2  1  0
  6  5  2  0
  8  7  1  6
  8 10  1  0
  9  8  1  0
 10 12  1  0
 10 11  1  1
 12 14  1  0
 13 12  2  0
 14 15  1  0
 14 18  1  0
 15 16  1  0
 16 17  1  0
 18 19  1  6
 18 17  1  0
 19 20  1  0
 21 19  2  0
M  END
$$$$
