CTP.pdb
     RDKit          3D

 21 21  0  0  1  0  0  0  0  0999 V2000
   22.3594  -24.5695  -14.4799 N   0  0  0  0  0  0  0  0  0  0  0  0
   23.7523  -24.2156  -14.4415 C   0  0  1  0  0  0  0  0  0  0  0  0
   24.3624  -24.6249  -15.7679 C   0  0  0  0  0  0  0  0  0  0  0  0
   24.5447  -26.4450  -15.7432 S   0  0  0  0  0  0  0  0  0  0  0  0
   23.9511  -22.7634  -14.1760 C   0  0  0  0  0  0  0  0  0  0  0  0
   23.0372  -21.9450  -14.3579 O   0  0  0  0  0  0  0  0  0  0  0  0
   26.2955  -21.3278  -11.1995 C   0  0  0  0  0  0  0  0  0  0  0  0
   26.7432  -20.9541  -12.5928 C   0  0  1  0  0  0  0  0  0  0  0  0
   27.7538  -21.7580  -12.9973 O   0  0  0  0  0  0  0  0  0  0  0  0
   25.5382  -20.8938  -13.5442 C   0  0  2  0  0  0  0  0  0  0  0  0
   25.2114  -22.3348  -13.7093 N   0  0  0  0  0  0  0  0  0  0  0  0
   25.9221  -20.3880  -14.8716 C   0  0  0  0  0  0  0  0  0  0  0  0
   25.9779  -21.2819  -15.8073 O   0  0  0  0  0  0  0  0  0  0  0  0
   26.2268  -19.0709  -15.2317 N   0  0  0  0  0  0  0  0  0  0  0  0
   26.4685  -17.9856  -14.3276 C   0  0  0  0  0  0  0  0  0  0  0  0
   25.8723  -16.8028  -15.0624 C   0  0  0  0  0  0  0  0  0  0  0  0
   25.4963  -17.3096  -16.4603 C   0  0  0  0  0  0  0  0  0  0  0  0
   26.4036  -18.5500  -16.5438 C   0  0  1  0  0  0  0  0  0  0  0  0
   27.7951  -18.1570  -16.8440 C   0  0  0  0  0  0  0  0  0  0  0  0
   28.1102  -17.6142  -18.0689 O   0  0  0  0  0  0  0  0  0  0  0  0
   28.6816  -18.3168  -15.9897 O   0  0  0  0  0  0  0  0  0  0  0  0
  2  1  1  6
  3  2  1  0
  4  3  1  0
  5 11  1  0
  5  2  1  0
  6  5  2  0
  8  7  1  1
  8 10  1  0
  9  8  1  0
 10 12  1  0
 10 11  1  6
 12 14  1  0
 13 12  2  0
 14 15  1  0
 14 18  1  0
 15 16  1  0
 16 17  1  0
 18 19  1  1
 18 17  1  0
 19 20  1  0
 21 19  2  0
M  END
$$$$
