CTP.pdb
     RDKit          3D

 21 21  0  0  1  0  0  0  0  0999 V2000
   17.4157  -12.8255  -15.6036 N   0  0  0  0  0  0  0  0  0  0  0  0
   17.3324  -11.3905  -15.6348 C   0  0  1  0  0  0  0  0  0  0  0  0
   16.4102  -10.9639  -14.5093 C   0  0  0  0  0  0  0  0  0  0  0  0
   14.7063  -11.4080  -15.0053 S   0  0  0  0  0  0  0  0  0  0  0  0
   18.6724  -10.7517  -15.5122 C   0  0  0  0  0  0  0  0  0  0  0  0
   19.5397  -11.2156  -14.7568 O   0  0  0  0  0  0  0  0  0  0  0  0
   21.2368  -10.0855  -18.0955 C   0  0  0  0  0  0  0  0  0  0  0  0
   20.6597   -8.7672  -17.6364 C   0  0  1  0  0  0  0  0  0  0  0  0
   19.7038   -8.3437  -18.4955 O   0  0  0  0  0  0  0  0  0  0  0  0
   20.2209   -8.8577  -16.1668 C   0  0  2  0  0  0  0  0  0  0  0  0
   18.9367   -9.5982  -16.2801 N   0  0  0  0  0  0  0  0  0  0  0  0
   19.9021   -7.5314  -15.6150 C   0  0  0  0  0  0  0  0  0  0  0  0
   18.6496   -7.2037  -15.6560 O   0  0  0  0  0  0  0  0  0  0  0  0
   20.7850   -6.6000  -15.0580 N   0  0  0  0  0  0  0  0  0  0  0  0
   22.2101   -6.7316  -14.9829 C   0  0  0  0  0  0  0  0  0  0  0  0
   22.5350   -6.0688  -13.6602 C   0  0  0  0  0  0  0  0  0  0  0  0
   21.2318   -5.4263  -13.1692 C   0  0  0  0  0  0  0  0  0  0  0  0
   20.4672   -5.3299  -14.5014 C   0  0  1  0  0  0  0  0  0  0  0  0
   20.9594   -4.1908  -15.3020 C   0  0  0  0  0  0  0  0  0  0  0  0
   20.6144   -2.9039  -14.9566 O   0  0  0  0  0  0  0  0  0  0  0  0
   21.6855   -4.3950  -16.2881 O   0  0  0  0  0  0  0  0  0  0  0  0
  2  1  1  1
  3  2  1  0
  4  3  1  0
  5 11  1  0
  5  2  1  0
  6  5  2  0
  8  7  1  6
  8 10  1  0
  9  8  1  0
 10 12  1  0
 10 11  1  6
 12 14  1  0
 13 12  2  0
 14 15  1  0
 14 18  1  0
 15 16  1  0
 16 17  1  0
 18 19  1  6
 18 17  1  0
 19 20  1  0
 21 19  2  0
M  END
$$$$
