CTP.pdb
     RDKit          3D

 21 21  0  0  1  0  0  0  0  0999 V2000
   19.6857  -15.5679  -16.7439 N   0  0  0  0  0  0  0  0  0  0  0  0
   19.8226  -14.1443  -16.5961 C   0  0  1  0  0  0  0  0  0  0  0  0
   19.1376  -13.7535  -15.3011 C   0  0  0  0  0  0  0  0  0  0  0  0
   17.3369  -13.7354  -15.6232 S   0  0  0  0  0  0  0  0  0  0  0  0
   21.2498  -13.7178  -16.6072 C   0  0  0  0  0  0  0  0  0  0  0  0
   22.1210  -14.3700  -16.0125 O   0  0  0  0  0  0  0  0  0  0  0  0
   23.1952  -12.8770  -19.8064 C   0  0  0  0  0  0  0  0  0  0  0  0
   23.0626  -11.6650  -18.9148 C   0  0  1  0  0  0  0  0  0  0  0  0
   22.0396  -10.8819  -19.3288 O   0  0  0  0  0  0  0  0  0  0  0  0
   23.0020  -12.0897  -17.4394 C   0  0  2  0  0  0  0  0  0  0  0  0
   21.5926  -12.5463  -17.3143 N   0  0  0  0  0  0  0  0  0  0  0  0
   23.1594  -10.9374  -16.5381 C   0  0  0  0  0  0  0  0  0  0  0  0
   22.0614  -10.4934  -16.0138 O   0  0  0  0  0  0  0  0  0  0  0  0
   24.3430  -10.2790  -16.1874 N   0  0  0  0  0  0  0  0  0  0  0  0
   25.6445  -10.5435  -16.7257 C   0  0  0  0  0  0  0  0  0  0  0  0
   26.5496  -10.3136  -15.5330 C   0  0  0  0  0  0  0  0  0  0  0  0
   25.6625   -9.7321  -14.4253 C   0  0  0  0  0  0  0  0  0  0  0  0
   24.4957   -9.1979  -15.2752 C   0  0  1  0  0  0  0  0  0  0  0  0
   24.8649   -7.9228  -15.9221 C   0  0  0  0  0  0  0  0  0  0  0  0
   24.9258   -6.7648  -15.1807 O   0  0  0  0  0  0  0  0  0  0  0  0
   25.1208   -7.8961  -17.1366 O   0  0  0  0  0  0  0  0  0  0  0  0
  2  1  1  1
  3  2  1  0
  4  3  1  0
  5 11  1  0
  5  2  1  0
  6  5  2  0
  8  7  1  6
  8 10  1  0
  9  8  1  0
 10 12  1  0
 10 11  1  6
 12 14  1  0
 13 12  2  0
 14 15  1  0
 14 18  1  0
 15 16  1  0
 16 17  1  0
 18 19  1  6
 18 17  1  0
 19 20  1  0
 21 19  2  0
M  END
$$$$
