CTP.pdb
     RDKit          3D

 21 21  0  0  1  0  0  0  0  0999 V2000
   26.0162  -22.1356  -10.8032 N   0  0  0  0  0  0  0  0  0  0  0  0
   25.1966  -21.1425  -11.4427 C   0  0  1  0  0  0  0  0  0  0  0  0
   24.2278  -20.6140  -10.4029 C   0  0  0  0  0  0  0  0  0  0  0  0
   22.8833  -21.8436  -10.2386 S   0  0  0  0  0  0  0  0  0  0  0  0
   26.0112  -20.0452  -12.0352 C   0  0  0  0  0  0  0  0  0  0  0  0
   27.0317  -19.6242  -11.4702 O   0  0  0  0  0  0  0  0  0  0  0  0
   28.4390  -20.0256  -13.4615 C   0  0  0  0  0  0  0  0  0  0  0  0
   27.5299  -19.5821  -14.5833 C   0  0  1  0  0  0  0  0  0  0  0  0
   27.0345  -20.6544  -15.2436 O   0  0  0  0  0  0  0  0  0  0  0  0
   26.4751  -18.5954  -14.0592 C   0  0  2  0  0  0  0  0  0  0  0  0
   25.5940  -19.4900  -13.2631 N   0  0  0  0  0  0  0  0  0  0  0  0
   25.6547  -18.0499  -15.1521 C   0  0  0  0  0  0  0  0  0  0  0  0
   24.6585  -18.7927  -15.5175 O   0  0  0  0  0  0  0  0  0  0  0  0
   25.8256  -16.8375  -15.8291 N   0  0  0  0  0  0  0  0  0  0  0  0
   27.0153  -16.0386  -15.8375 C   0  0  0  0  0  0  0  0  0  0  0  0
   26.4666  -14.6271  -15.8720 C   0  0  0  0  0  0  0  0  0  0  0  0
   24.9526  -14.7589  -16.0783 C   0  0  0  0  0  0  0  0  0  0  0  0
   24.8900  -16.1770  -16.6732 C   0  0  1  0  0  0  0  0  0  0  0  0
   25.2825  -16.1613  -18.0968 C   0  0  0  0  0  0  0  0  0  0  0  0
   24.4990  -15.5096  -19.0218 O   0  0  0  0  0  0  0  0  0  0  0  0
   26.3211  -16.7371  -18.4589 O   0  0  0  0  0  0  0  0  0  0  0  0
  2  1  1  1
  3  2  1  0
  4  3  1  0
  5 11  1  0
  5  2  1  0
  6  5  2  0
  8  7  1  1
  8 10  1  0
  9  8  1  0
 10 12  1  0
 10 11  1  1
 12 14  1  0
 13 12  2  0
 14 15  1  0
 14 18  1  0
 15 16  1  0
 16 17  1  0
 18 19  1  6
 18 17  1  0
 19 20  1  0
 21 19  2  0
M  END
$$$$
