CTP.pdb
     RDKit          3D

 21 21  0  0  1  0  0  0  0  0999 V2000
   27.6438  -24.5909  -17.9782 N   0  0  0  0  0  0  0  0  0  0  0  0
   26.4987  -24.0565  -17.2923 C   0  0  1  0  0  0  0  0  0  0  0  0
   25.6638  -25.2302  -16.8183 C   0  0  0  0  0  0  0  0  0  0  0  0
   24.2734  -24.5494  -15.8438 S   0  0  0  0  0  0  0  0  0  0  0  0
   26.8904  -23.1738  -16.1581 C   0  0  0  0  0  0  0  0  0  0  0  0
   27.6822  -23.5606  -15.2855 O   0  0  0  0  0  0  0  0  0  0  0  0
   26.4814  -18.5194  -14.5296 C   0  0  0  0  0  0  0  0  0  0  0  0
   26.5578  -19.6007  -15.5816 C   0  0  1  0  0  0  0  0  0  0  0  0
   27.5930  -19.3713  -16.4224 O   0  0  0  0  0  0  0  0  0  0  0  0
   26.5484  -20.9892  -14.9238 C   0  0  2  0  0  0  0  0  0  0  0  0
   26.3370  -21.8777  -16.0969 N   0  0  0  0  0  0  0  0  0  0  0  0
   25.3834  -21.1618  -14.0417 C   0  0  0  0  0  0  0  0  0  0  0  0
   24.3546  -21.7255  -14.5909 O   0  0  0  0  0  0  0  0  0  0  0  0
   25.2641  -20.7933  -12.6973 N   0  0  0  0  0  0  0  0  0  0  0  0
   26.2052  -20.0099  -11.9527 C   0  0  0  0  0  0  0  0  0  0  0  0
   26.1282  -20.6247  -10.5705 C   0  0  0  0  0  0  0  0  0  0  0  0
   24.9641  -21.6226  -10.6075 C   0  0  0  0  0  0  0  0  0  0  0  0
   24.1838  -21.0726  -11.8147 C   0  0  1  0  0  0  0  0  0  0  0  0
   23.4067  -19.8770  -11.4305 C   0  0  0  0  0  0  0  0  0  0  0  0
   23.8012  -18.6301  -11.8594 O   0  0  0  0  0  0  0  0  0  0  0  0
   22.3961  -19.9976  -10.7196 O   0  0  0  0  0  0  0  0  0  0  0  0
  2  1  1  1
  3  2  1  0
  4  3  1  0
  5 11  1  0
  5  2  1  0
  6  5  2  0
  8  7  1  1
  8 10  1  0
  9  8  1  0
 10 12  1  0
 10 11  1  6
 12 14  1  0
 13 12  2  0
 14 15  1  0
 14 18  1  0
 15 16  1  0
 16 17  1  0
 18 19  1  1
 18 17  1  0
 19 20  1  0
 21 19  2  0
M  END
$$$$
