LDS.pdb
     RDKit          3D

 23 22  0  0  1  0  0  0  0  0999 V2000
   17.0092  -12.3085  -15.8914 C   0  0  0  0  0  0  0  0  0  0  0  0
   15.9129  -11.9433  -14.9225 C   0  0  2  0  0  0  0  0  0  0  0  0
   14.5664  -12.4550  -15.3951 C   0  0  0  0  0  0  0  0  0  0  0  0
   15.8897  -10.5359  -14.4819 C   0  0  0  0  0  0  0  0  0  0  0  0
   17.1460   -9.9143  -14.0091 C   0  0  2  0  0  0  0  0  0  0  0  0
   17.7394  -10.4908  -12.8397 N   0  0  0  0  0  0  0  0  0  0  0  0
   16.8413   -8.4706  -13.6812 C   0  0  0  0  0  0  0  0  0  0  0  0
   16.1409   -7.7504  -14.4374 O   0  0  0  0  0  0  0  0  0  0  0  0
   17.3305   -7.8461  -12.4975 N   0  0  0  0  0  0  0  0  0  0  0  0
   17.1173   -6.4679  -12.1769 C   0  0  1  0  0  0  0  0  0  0  0  0
   17.4010   -6.2283  -10.7139 C   0  0  0  0  0  0  0  0  0  0  0  0
   16.3284   -6.6277   -9.8063 C   0  0  0  0  0  0  0  0  0  0  0  0
   15.2343   -7.0685  -10.2235 O   0  0  0  0  0  0  0  0  0  0  0  0
   17.8952   -5.5406  -13.0327 C   0  0  0  0  0  0  0  0  0  0  0  0
   19.1480   -5.6478  -13.0715 O   0  0  0  0  0  0  0  0  0  0  0  0
   16.5056   -6.5241   -8.4380 O   0  0  0  0  0  0  0  0  0  0  0  0
   18.7325   -3.3120  -16.9861 O   0  0  0  0  0  0  0  0  0  0  0  0
   18.0173   -4.1503  -16.1515 C   0  0  0  0  0  0  0  0  0  0  0  0
   18.0091   -3.6636  -14.7213 C   0  0  2  0  0  0  0  0  0  0  0  0
   17.3083   -4.5181  -13.8281 N   0  0  0  0  0  0  0  0  0  0  0  0
   17.5462   -2.2717  -14.7213 C   0  0  0  0  0  0  0  0  0  0  0  0
   16.3189   -2.0466  -14.5801 O   0  0  0  0  0  0  0  0  0  0  0  0
   18.3826   -1.1787  -14.8684 O   0  0  0  0  0  0  0  0  0  0  0  0
  2  1  1  6
  2  3  1  0
  4  2  1  0
  4  5  1  0
  5  6  1  1
  5  7  1  0
  7  9  1  0
  8  7  2  0
  9 10  1  0
 10 14  1  0
 10 11  1  1
 12 13  2  0
 12 11  1  0
 14 15  2  0
 16 12  1  0
 17 18  1  0
 19 18  1  6
 19 21  1  0
 20 19  1  0
 20 14  1  0
 21 23  1  0
 22 21  2  0
M  END
$$$$
