LDS.pdb
     RDKit          3D

 23 22  0  0  1  0  0  0  0  0999 V2000
   27.3831  -17.1646  -18.3195 C   0  0  0  0  0  0  0  0  0  0  0  0
   27.0574  -16.1179  -17.2839 C   0  0  2  0  0  0  0  0  0  0  0  0
   28.3035  -15.3808  -16.8343 C   0  0  0  0  0  0  0  0  0  0  0  0
   26.1992  -16.5636  -16.1702 C   0  0  0  0  0  0  0  0  0  0  0  0
   25.0595  -17.4608  -16.4610 C   0  0  2  0  0  0  0  0  0  0  0  0
   23.9409  -16.8697  -17.1327 N   0  0  0  0  0  0  0  0  0  0  0  0
   24.5501  -17.9884  -15.1394 C   0  0  0  0  0  0  0  0  0  0  0  0
   24.4200  -17.2462  -14.1328 O   0  0  0  0  0  0  0  0  0  0  0  0
   24.1892  -19.3553  -14.9611 N   0  0  0  0  0  0  0  0  0  0  0  0
   23.6871  -19.8937  -13.7341 C   0  0  1  0  0  0  0  0  0  0  0  0
   22.5556  -20.8523  -14.0155 C   0  0  0  0  0  0  0  0  0  0  0  0
   21.3947  -20.2571  -14.6725 C   0  0  0  0  0  0  0  0  0  0  0  0
   20.6644  -19.4181  -14.0998 O   0  0  0  0  0  0  0  0  0  0  0  0
   24.7352  -20.5310  -12.9019 C   0  0  0  0  0  0  0  0  0  0  0  0
   25.0286  -21.7374  -13.1040 O   0  0  0  0  0  0  0  0  0  0  0  0
   21.0734  -20.6176  -15.9691 O   0  0  0  0  0  0  0  0  0  0  0  0
   26.8333  -20.0024   -8.4849 O   0  0  0  0  0  0  0  0  0  0  0  0
   26.2521  -19.4140   -9.5926 C   0  0  0  0  0  0  0  0  0  0  0  0
   25.8458  -20.4304  -10.6339 C   0  0  2  0  0  0  0  0  0  0  0  0
   25.4449  -19.8565  -11.8705 N   0  0  0  0  0  0  0  0  0  0  0  0
   24.8538  -21.3249  -10.0279 C   0  0  0  0  0  0  0  0  0  0  0  0
   25.2520  -22.3871   -9.4894 O   0  0  0  0  0  0  0  0  0  0  0  0
   23.4931  -21.0720  -10.0105 O   0  0  0  0  0  0  0  0  0  0  0  0
  2  1  1  1
  2  3  1  0
  4  2  1  0
  4  5  1  0
  5  6  1  1
  5  7  1  0
  7  9  1  0
  8  7  2  0
  9 10  1  0
 10 14  1  0
 10 11  1  6
 12 13  2  0
 12 11  1  0
 14 15  2  0
 16 12  1  0
 17 18  1  0
 19 18  1  1
 19 21  1  0
 20 19  1  0
 20 14  1  0
 21 23  1  0
 22 21  2  0
M  END
$$$$
