LDS.pdb
     RDKit          3D

 23 22  0  0  1  0  0  0  0  0999 V2000
   17.9096  -15.3063  -16.5370 C   0  0  0  0  0  0  0  0  0  0  0  0
   17.1001  -14.2270  -17.2108 C   0  0  2  0  0  0  0  0  0  0  0  0
   16.6292  -14.6667  -18.5831 C   0  0  0  0  0  0  0  0  0  0  0  0
   17.6925  -12.8763  -17.1930 C   0  0  0  0  0  0  0  0  0  0  0  0
   18.1362  -12.3075  -15.9015 C   0  0  2  0  0  0  0  0  0  0  0  0
   17.2011  -12.3833  -14.8191 N   0  0  0  0  0  0  0  0  0  0  0  0
   18.4277  -10.8419  -16.1287 C   0  0  0  0  0  0  0  0  0  0  0  0
   19.1958  -10.4508  -17.0442 O   0  0  0  0  0  0  0  0  0  0  0  0
   17.8486   -9.8228  -15.3184 N   0  0  0  0  0  0  0  0  0  0  0  0
   18.1193   -8.4269  -15.4789 C   0  0  1  0  0  0  0  0  0  0  0  0
   16.8787   -7.6223  -15.1756 C   0  0  0  0  0  0  0  0  0  0  0  0
   17.0414   -6.1752  -15.2896 C   0  0  0  0  0  0  0  0  0  0  0  0
   17.6540   -5.6484  -16.2449 O   0  0  0  0  0  0  0  0  0  0  0  0
   19.2725   -7.9578  -14.6743 C   0  0  0  0  0  0  0  0  0  0  0  0
   19.3540   -8.2954  -13.4653 O   0  0  0  0  0  0  0  0  0  0  0  0
   16.5098   -5.3410  -14.3222 O   0  0  0  0  0  0  0  0  0  0  0  0
   22.8865   -8.4908  -15.2619 O   0  0  0  0  0  0  0  0  0  0  0  0
   22.7689   -7.1204  -15.1235 C   0  0  0  0  0  0  0  0  0  0  0  0
   21.4668   -6.7205  -14.4701 C   0  0  2  0  0  0  0  0  0  0  0  0
   20.3130   -7.1356  -15.1881 N   0  0  0  0  0  0  0  0  0  0  0  0
   21.5254   -5.2816  -14.1913 C   0  0  0  0  0  0  0  0  0  0  0  0
   20.6739   -4.5304  -14.7275 O   0  0  0  0  0  0  0  0  0  0  0  0
   22.4679   -4.6915  -13.3672 O   0  0  0  0  0  0  0  0  0  0  0  0
  2  1  1  6
  2  3  1  0
  4  2  1  0
  4  5  1  0
  5  6  1  1
  5  7  1  0
  7  9  1  0
  8  7  2  0
  9 10  1  0
 10 14  1  0
 10 11  1  1
 12 13  2  0
 12 11  1  0
 14 15  2  0
 16 12  1  0
 17 18  1  0
 19 18  1  6
 19 21  1  0
 20 19  1  0
 20 14  1  0
 21 23  1  0
 22 21  2  0
M  END
$$$$
