LDS.pdb
     RDKit          3D

 23 22  0  0  1  0  0  0  0  0999 V2000
   18.5055  -10.8096  -17.7694 C   0  0  0  0  0  0  0  0  0  0  0  0
   18.7364  -11.6186  -16.5180 C   0  0  2  0  0  0  0  0  0  0  0  0
   17.4924  -12.3893  -16.1223 C   0  0  0  0  0  0  0  0  0  0  0  0
   19.3679  -10.8981  -15.3966 C   0  0  0  0  0  0  0  0  0  0  0  0
   20.5803  -10.0916  -15.6574 C   0  0  2  0  0  0  0  0  0  0  0  0
   21.8183  -10.8090  -15.7245 N   0  0  0  0  0  0  0  0  0  0  0  0
   20.7113   -9.0934  -14.5300 C   0  0  0  0  0  0  0  0  0  0  0  0
   21.0282   -9.4442  -13.3648 O   0  0  0  0  0  0  0  0  0  0  0  0
   20.4830   -7.7005  -14.7250 N   0  0  0  0  0  0  0  0  0  0  0  0
   20.6618   -6.7130  -13.7050 C   0  0  1  0  0  0  0  0  0  0  0  0
   21.2669   -5.4632  -14.2967 C   0  0  0  0  0  0  0  0  0  0  0  0
   21.5533   -4.4033  -13.3333 C   0  0  0  0  0  0  0  0  0  0  0  0
   21.5639   -3.1950  -13.6580 O   0  0  0  0  0  0  0  0  0  0  0  0
   19.4161   -6.4058  -12.9625 C   0  0  0  0  0  0  0  0  0  0  0  0
   18.3493   -6.2247  -13.6040 O   0  0  0  0  0  0  0  0  0  0  0  0
   21.8244   -4.7219  -12.0145 O   0  0  0  0  0  0  0  0  0  0  0  0
   17.2320   -5.6861   -8.6135 O   0  0  0  0  0  0  0  0  0  0  0  0
   18.4008   -5.9387   -9.3070 C   0  0  0  0  0  0  0  0  0  0  0  0
   18.1922   -5.9291  -10.8033 C   0  0  2  0  0  0  0  0  0  0  0  0
   19.3454   -6.3003  -11.5460 N   0  0  0  0  0  0  0  0  0  0  0  0
   17.6240   -4.6278  -11.1711 C   0  0  0  0  0  0  0  0  0  0  0  0
   18.4071   -3.6949  -11.4767 O   0  0  0  0  0  0  0  0  0  0  0  0
   16.2668   -4.3580  -11.2035 O   0  0  0  0  0  0  0  0  0  0  0  0
  2  1  1  6
  2  3  1  0
  4  2  1  0
  4  5  1  0
  5  6  1  1
  5  7  1  0
  7  9  1  0
  8  7  2  0
  9 10  1  0
 10 14  1  0
 10 11  1  6
 12 13  2  0
 12 11  1  0
 14 15  2  0
 16 12  1  0
 17 18  1  0
 19 18  1  1
 19 21  1  0
 20 19  1  0
 20 14  1  0
 21 23  1  0
 22 21  2  0
M  END
$$$$
