LDS.pdb
     RDKit          3D

 23 22  0  0  1  0  0  0  0  0999 V2000
   28.5452  -21.6855  -11.1992 C   0  0  0  0  0  0  0  0  0  0  0  0
   28.2525  -20.8098  -12.3914 C   0  0  2  0  0  0  0  0  0  0  0  0
   29.3102  -19.7370  -12.5604 C   0  0  0  0  0  0  0  0  0  0  0  0
   26.8718  -20.3002  -12.4886 C   0  0  0  0  0  0  0  0  0  0  0  0
   25.7472  -21.2462  -12.3192 C   0  0  2  0  0  0  0  0  0  0  0  0
   25.8627  -22.4994  -13.0034 N   0  0  0  0  0  0  0  0  0  0  0  0
   24.5032  -20.5699  -12.8479 C   0  0  0  0  0  0  0  0  0  0  0  0
   24.0242  -19.5413  -12.3059 O   0  0  0  0  0  0  0  0  0  0  0  0
   23.8047  -21.0600  -13.9891 N   0  0  0  0  0  0  0  0  0  0  0  0
   22.6472  -20.4299  -14.5466 C   0  0  1  0  0  0  0  0  0  0  0  0
   22.8607  -20.1667  -16.0175 C   0  0  0  0  0  0  0  0  0  0  0  0
   24.0494  -19.3795  -16.3350 C   0  0  0  0  0  0  0  0  0  0  0  0
   24.1300  -18.1599  -16.0673 O   0  0  0  0  0  0  0  0  0  0  0  0
   21.3968  -21.1913  -14.3142 C   0  0  0  0  0  0  0  0  0  0  0  0
   21.3589  -22.4129  -14.6123 O   0  0  0  0  0  0  0  0  0  0  0  0
   25.1328  -19.9803  -16.9512 O   0  0  0  0  0  0  0  0  0  0  0  0
   18.0996  -20.1965  -11.6176 O   0  0  0  0  0  0  0  0  0  0  0  0
   18.5850  -21.3979  -12.0991 C   0  0  0  0  0  0  0  0  0  0  0  0
   18.9902  -21.3107  -13.5519 C   0  0  2  0  0  0  0  0  0  0  0  0
   20.2145  -20.6220  -13.7661 N   0  0  0  0  0  0  0  0  0  0  0  0
   17.8512  -20.7767  -14.3064 C   0  0  0  0  0  0  0  0  0  0  0  0
   17.9856  -19.6786  -14.9005 O   0  0  0  0  0  0  0  0  0  0  0  0
   16.6250  -21.4109  -14.4074 O   0  0  0  0  0  0  0  0  0  0  0  0
  2  1  1  1
  2  3  1  0
  4  2  1  0
  4  5  1  0
  5  6  1  6
  5  7  1  0
  7  9  1  0
  8  7  2  0
  9 10  1  0
 10 14  1  0
 10 11  1  6
 12 13  2  0
 12 11  1  0
 14 15  2  0
 16 12  1  0
 17 18  1  0
 19 18  1  1
 19 21  1  0
 20 19  1  0
 20 14  1  0
 21 23  1  0
 22 21  2  0
M  END
$$$$
