LDS.pdb
     RDKit          3D

 23 22  0  0  1  0  0  0  0  0999 V2000
   29.1397  -18.7513   -5.4601 C   0  0  0  0  0  0  0  0  0  0  0  0
   28.0629  -19.7953   -5.3032 C   0  0  2  0  0  0  0  0  0  0  0  0
   28.4024  -20.7758   -4.1980 C   0  0  0  0  0  0  0  0  0  0  0  0
   27.6106  -20.4416   -6.5495 C   0  0  0  0  0  0  0  0  0  0  0  0
   27.3742  -19.6025   -7.7447 C   0  0  2  0  0  0  0  0  0  0  0  0
   26.5275  -18.4616   -7.5626 N   0  0  0  0  0  0  0  0  0  0  0  0
   26.7164  -20.4760   -8.7881 C   0  0  0  0  0  0  0  0  0  0  0  0
   27.1466  -21.6258   -9.0600 O   0  0  0  0  0  0  0  0  0  0  0  0
   25.5728  -20.0452   -9.5211 N   0  0  0  0  0  0  0  0  0  0  0  0
   24.9956  -20.7821  -10.6034 C   0  0  1  0  0  0  0  0  0  0  0  0
   23.4911  -20.6684  -10.5610 C   0  0  0  0  0  0  0  0  0  0  0  0
   22.7932  -21.3319  -11.6593 C   0  0  0  0  0  0  0  0  0  0  0  0
   23.2827  -22.3134  -12.2613 O   0  0  0  0  0  0  0  0  0  0  0  0
   25.5260  -20.3864  -11.9298 C   0  0  0  0  0  0  0  0  0  0  0  0
   25.4314  -19.1862  -12.2944 O   0  0  0  0  0  0  0  0  0  0  0  0
   21.5504  -20.8779  -12.0638 O   0  0  0  0  0  0  0  0  0  0  0  0
   28.8086  -22.0090  -13.8611 O   0  0  0  0  0  0  0  0  0  0  0  0
   27.6729  -21.9431  -14.6464 C   0  0  0  0  0  0  0  0  0  0  0  0
   26.6652  -20.9515  -14.1139 C   0  0  2  0  0  0  0  0  0  0  0  0
   26.1467  -21.2907  -12.8351 N   0  0  0  0  0  0  0  0  0  0  0  0
   25.6463  -20.7443  -15.1485 C   0  0  0  0  0  0  0  0  0  0  0  0
   24.5253  -21.2918  -15.0061 O   0  0  0  0  0  0  0  0  0  0  0  0
   25.8419  -19.9767  -16.2836 O   0  0  0  0  0  0  0  0  0  0  0  0
  2  1  1  6
  2  3  1  0
  4  2  1  0
  4  5  1  0
  5  6  1  1
  5  7  1  0
  7  9  1  0
  8  7  2  0
  9 10  1  0
 10 14  1  0
 10 11  1  6
 12 13  2  0
 12 11  1  0
 14 15  2  0
 16 12  1  0
 17 18  1  0
 19 18  1  6
 19 21  1  0
 20 19  1  0
 20 14  1  0
 21 23  1  0
 22 21  2  0
M  END
$$$$
