LDS.pdb
     RDKit          3D

 23 22  0  0  1  0  0  0  0  0999 V2000
   22.6104  -14.4082  -14.4006 C   0  0  0  0  0  0  0  0  0  0  0  0
   23.2828  -13.9670  -15.6762 C   0  0  2  0  0  0  0  0  0  0  0  0
   24.7839  -13.8538  -15.4975 C   0  0  0  0  0  0  0  0  0  0  0  0
   22.6775  -12.8030  -16.3502 C   0  0  0  0  0  0  0  0  0  0  0  0
   21.2063  -12.7451  -16.4930 C   0  0  2  0  0  0  0  0  0  0  0  0
   20.6200  -13.6747  -17.4117 N   0  0  0  0  0  0  0  0  0  0  0  0
   20.8533  -11.3599  -16.9840 C   0  0  0  0  0  0  0  0  0  0  0  0
   20.9953  -11.0248  -18.1876 O   0  0  0  0  0  0  0  0  0  0  0  0
   20.3402  -10.3576  -16.1107 N   0  0  0  0  0  0  0  0  0  0  0  0
   19.9864   -9.0371  -16.5335 C   0  0  1  0  0  0  0  0  0  0  0  0
   18.5137   -8.9765  -16.8590 C   0  0  0  0  0  0  0  0  0  0  0  0
   18.0477   -7.6866  -17.3613 C   0  0  0  0  0  0  0  0  0  0  0  0
   18.6258   -7.0892  -18.2963 O   0  0  0  0  0  0  0  0  0  0  0  0
   20.3629   -7.9886  -15.5558 C   0  0  0  0  0  0  0  0  0  0  0  0
   20.1694   -8.1957  -14.3302 O   0  0  0  0  0  0  0  0  0  0  0  0
   16.9337   -7.0874  -16.8006 O   0  0  0  0  0  0  0  0  0  0  0  0
   23.0744   -4.1680  -14.4085 O   0  0  0  0  0  0  0  0  0  0  0  0
   22.6756   -5.0963  -15.3520 C   0  0  0  0  0  0  0  0  0  0  0  0
   21.3448   -5.7246  -15.0103 C   0  0  2  0  0  0  0  0  0  0  0  0
   20.9395   -6.7400  -15.9179 N   0  0  0  0  0  0  0  0  0  0  0  0
   20.3692   -4.6442  -14.8300 C   0  0  0  0  0  0  0  0  0  0  0  0
   19.7491   -4.2203  -15.8363 O   0  0  0  0  0  0  0  0  0  0  0  0
   20.0843   -4.0552  -13.6102 O   0  0  0  0  0  0  0  0  0  0  0  0
  2  1  1  1
  2  3  1  0
  4  2  1  0
  4  5  1  0
  5  6  1  6
  5  7  1  0
  7  9  1  0
  8  7  2  0
  9 10  1  0
 10 14  1  0
 10 11  1  1
 12 13  2  0
 12 11  1  0
 14 15  2  0
 16 12  1  0
 17 18  1  0
 19 18  1  6
 19 21  1  0
 20 19  1  0
 20 14  1  0
 21 23  1  0
 22 21  2  0
M  END
$$$$
