LDS.pdb
     RDKit          3D

 23 22  0  0  1  0  0  0  0  0999 V2000
   21.4280  -13.8882  -14.9643 C   0  0  0  0  0  0  0  0  0  0  0  0
   22.4912  -12.9117  -15.4002 C   0  0  2  0  0  0  0  0  0  0  0  0
   23.6415  -12.8723  -14.4136 C   0  0  0  0  0  0  0  0  0  0  0  0
   22.0094  -11.5765  -15.8011 C   0  0  0  0  0  0  0  0  0  0  0  0
   20.9036  -11.4798  -16.7790 C   0  0  2  0  0  0  0  0  0  0  0  0
   21.2106  -11.8612  -18.1252 N   0  0  0  0  0  0  0  0  0  0  0  0
   20.4620  -10.0349  -16.8214 C   0  0  0  0  0  0  0  0  0  0  0  0
   21.0729   -9.1725  -17.5028 O   0  0  0  0  0  0  0  0  0  0  0  0
   19.3295   -9.5700  -16.0921 N   0  0  0  0  0  0  0  0  0  0  0  0
   18.8824   -8.2108  -16.0951 C   0  0  1  0  0  0  0  0  0  0  0  0
   17.3835   -8.1599  -15.9249 C   0  0  0  0  0  0  0  0  0  0  0  0
   16.8017   -6.8220  -15.9961 C   0  0  0  0  0  0  0  0  0  0  0  0
   15.9567   -6.4196  -15.1658 O   0  0  0  0  0  0  0  0  0  0  0  0
   19.5655   -7.3673  -15.0856 C   0  0  0  0  0  0  0  0  0  0  0  0
   19.7355   -7.8187  -13.9238 O   0  0  0  0  0  0  0  0  0  0  0  0
   17.1822   -5.9550  -17.0050 O   0  0  0  0  0  0  0  0  0  0  0  0
   22.9784   -4.7345  -13.5769 O   0  0  0  0  0  0  0  0  0  0  0  0
   22.2763   -5.5651  -14.4301 C   0  0  0  0  0  0  0  0  0  0  0  0
   20.7974   -5.2567  -14.4412 C   0  0  2  0  0  0  0  0  0  0  0  0
   20.0510   -6.0566  -15.3480 N   0  0  0  0  0  0  0  0  0  0  0  0
   20.6397   -3.8111  -14.6326 C   0  0  0  0  0  0  0  0  0  0  0  0
   20.2006   -3.3949  -15.7330 O   0  0  0  0  0  0  0  0  0  0  0  0
   20.9466   -2.8655  -13.6694 O   0  0  0  0  0  0  0  0  0  0  0  0
  2  1  1  1
  2  3  1  0
  4  2  1  0
  4  5  1  0
  5  6  1  6
  5  7  1  0
  7  9  1  0
  8  7  2  0
  9 10  1  0
 10 14  1  0
 10 11  1  1
 12 13  2  0
 12 11  1  0
 14 15  2  0
 16 12  1  0
 17 18  1  0
 19 18  1  6
 19 21  1  0
 20 19  1  0
 20 14  1  0
 21 23  1  0
 22 21  2  0
M  END
$$$$
