LDS.pdb
     RDKit          3D

 23 22  0  0  1  0  0  0  0  0999 V2000
   28.8869  -21.8582  -10.1298 C   0  0  0  0  0  0  0  0  0  0  0  0
   28.8202  -21.1496  -11.4593 C   0  0  2  0  0  0  0  0  0  0  0  0
   30.1033  -20.3952  -11.7468 C   0  0  0  0  0  0  0  0  0  0  0  0
   27.6003  -20.3570  -11.7025 C   0  0  0  0  0  0  0  0  0  0  0  0
   26.2836  -20.9627  -11.4065 C   0  0  2  0  0  0  0  0  0  0  0  0
   26.1181  -22.3362  -11.7781 N   0  0  0  0  0  0  0  0  0  0  0  0
   25.2414  -20.1735  -12.1651 C   0  0  0  0  0  0  0  0  0  0  0  0
   25.0954  -18.9354  -12.0012 O   0  0  0  0  0  0  0  0  0  0  0  0
   24.3672  -20.7884  -13.1075 N   0  0  0  0  0  0  0  0  0  0  0  0
   23.3696  -20.0801  -13.8495 C   0  0  1  0  0  0  0  0  0  0  0  0
   23.7537  -20.0241  -15.3081 C   0  0  0  0  0  0  0  0  0  0  0  0
   23.0046  -19.0555  -16.1044 C   0  0  0  0  0  0  0  0  0  0  0  0
   22.1126  -18.3333  -15.6061 O   0  0  0  0  0  0  0  0  0  0  0  0
   22.0061  -20.6348  -13.6751 C   0  0  0  0  0  0  0  0  0  0  0  0
   21.8284  -21.8740  -13.7980 O   0  0  0  0  0  0  0  0  0  0  0  0
   23.2727  -18.9148  -17.4545 O   0  0  0  0  0  0  0  0  0  0  0  0
   18.8151  -18.2541  -12.2290 O   0  0  0  0  0  0  0  0  0  0  0  0
   18.7858  -19.6280  -12.0787 C   0  0  0  0  0  0  0  0  0  0  0  0
   19.5468  -20.3400  -13.1725 C   0  0  2  0  0  0  0  0  0  0  0  0
   20.8634  -19.8441  -13.3721 N   0  0  0  0  0  0  0  0  0  0  0  0
   18.7086  -20.3435  -14.3762 C   0  0  0  0  0  0  0  0  0  0  0  0
   19.1145  -19.7285  -15.3930 O   0  0  0  0  0  0  0  0  0  0  0  0
   17.4864  -20.9871  -14.4655 O   0  0  0  0  0  0  0  0  0  0  0  0
  2  1  1  1
  2  3  1  0
  4  2  1  0
  4  5  1  0
  5  6  1  6
  5  7  1  0
  7  9  1  0
  8  7  2  0
  9 10  1  0
 10 14  1  0
 10 11  1  6
 12 13  2  0
 12 11  1  0
 14 15  2  0
 16 12  1  0
 17 18  1  0
 19 18  1  1
 19 21  1  0
 20 19  1  0
 20 14  1  0
 21 23  1  0
 22 21  2  0
M  END
$$$$
