LDS.pdb
     RDKit          3D

 23 22  0  0  1  0  0  0  0  0999 V2000
   15.5654  -11.3926  -18.0934 C   0  0  0  0  0  0  0  0  0  0  0  0
   15.1249  -11.5231  -16.6571 C   0  0  2  0  0  0  0  0  0  0  0  0
   13.6248  -11.3507  -16.5227 C   0  0  0  0  0  0  0  0  0  0  0  0
   15.9008  -10.7421  -15.6754 C   0  0  0  0  0  0  0  0  0  0  0  0
   17.3775  -10.8248  -15.7029 C   0  0  2  0  0  0  0  0  0  0  0  0
   17.9614  -11.9715  -15.0735 N   0  0  0  0  0  0  0  0  0  0  0  0
   17.9125   -9.6082  -14.9831 C   0  0  0  0  0  0  0  0  0  0  0  0
   17.7282   -9.4292  -13.7522 O   0  0  0  0  0  0  0  0  0  0  0  0
   18.6549   -8.5971  -15.6592 N   0  0  0  0  0  0  0  0  0  0  0  0
   19.0929   -7.3826  -15.0420 C   0  0  1  0  0  0  0  0  0  0  0  0
   20.5903   -7.2471  -15.1745 C   0  0  0  0  0  0  0  0  0  0  0  0
   21.3666   -8.1282  -14.3058 C   0  0  0  0  0  0  0  0  0  0  0  0
   21.2711   -8.0850  -13.0590 O   0  0  0  0  0  0  0  0  0  0  0  0
   18.3980   -6.1795  -15.5586 C   0  0  0  0  0  0  0  0  0  0  0  0
   18.4128   -5.9467  -16.7947 O   0  0  0  0  0  0  0  0  0  0  0  0
   22.2414   -9.0476  -14.8569 O   0  0  0  0  0  0  0  0  0  0  0  0
   16.3014   -3.5767  -12.9499 O   0  0  0  0  0  0  0  0  0  0  0  0
   15.8226   -3.7516  -14.2349 C   0  0  0  0  0  0  0  0  0  0  0  0
   16.9083   -4.1699  -15.1985 C   0  0  2  0  0  0  0  0  0  0  0  0
   17.7020   -5.2531  -14.7340 N   0  0  0  0  0  0  0  0  0  0  0  0
   17.6696   -2.9718  -15.5678 C   0  0  0  0  0  0  0  0  0  0  0  0
   18.9151   -2.9784  -15.4085 O   0  0  0  0  0  0  0  0  0  0  0  0
   17.0988   -1.8221  -16.0859 O   0  0  0  0  0  0  0  0  0  0  0  0
  2  1  1  6
  2  3  1  0
  4  2  1  0
  4  5  1  0
  5  6  1  1
  5  7  1  0
  7  9  1  0
  8  7  2  0
  9 10  1  0
 10 14  1  0
 10 11  1  6
 12 13  2  0
 12 11  1  0
 14 15  2  0
 16 12  1  0
 17 18  1  0
 19 18  1  1
 19 21  1  0
 20 19  1  0
 20 14  1  0
 21 23  1  0
 22 21  2  0
M  END
$$$$
