LDS.pdb
     RDKit          3D

 23 22  0  0  1  0  0  0  0  0999 V2000
   19.1293  -15.8327  -16.8076 C   0  0  0  0  0  0  0  0  0  0  0  0
   18.4868  -14.8520  -17.7560 C   0  0  2  0  0  0  0  0  0  0  0  0
   18.6570  -15.2874  -19.1981 C   0  0  0  0  0  0  0  0  0  0  0  0
   18.8094  -13.4315  -17.5245 C   0  0  0  0  0  0  0  0  0  0  0  0
   18.6813  -12.8833  -16.1566 C   0  0  2  0  0  0  0  0  0  0  0  0
   17.4216  -13.0871  -15.5058 N   0  0  0  0  0  0  0  0  0  0  0  0
   18.8931  -11.3894  -16.2460 C   0  0  0  0  0  0  0  0  0  0  0  0
   19.9159  -10.8938  -16.7840 O   0  0  0  0  0  0  0  0  0  0  0  0
   17.9461  -10.4604  -15.7258 N   0  0  0  0  0  0  0  0  0  0  0  0
   18.0502   -9.0422  -15.8855 C   0  0  1  0  0  0  0  0  0  0  0  0
   16.7043   -8.3971  -15.6603 C   0  0  0  0  0  0  0  0  0  0  0  0
   16.6796   -6.9477  -15.8392 C   0  0  0  0  0  0  0  0  0  0  0  0
   17.3892   -6.3711  -16.6933 O   0  0  0  0  0  0  0  0  0  0  0  0
   19.0889   -8.4304  -15.0229 C   0  0  0  0  0  0  0  0  0  0  0  0
   19.0792   -8.6704  -13.7881 O   0  0  0  0  0  0  0  0  0  0  0  0
   15.8529   -6.1673  -15.0505 O   0  0  0  0  0  0  0  0  0  0  0  0
   22.8546   -7.3355  -16.5151 O   0  0  0  0  0  0  0  0  0  0  0  0
   22.5519   -7.6908  -15.2140 C   0  0  0  0  0  0  0  0  0  0  0  0
   21.2316   -7.1170  -14.7561 C   0  0  2  0  0  0  0  0  0  0  0  0
   20.1155   -7.5739  -15.5076 N   0  0  0  0  0  0  0  0  0  0  0  0
   21.3700   -5.6579  -14.6977 C   0  0  0  0  0  0  0  0  0  0  0  0
   20.6511   -4.9554  -15.4504 O   0  0  0  0  0  0  0  0  0  0  0  0
   22.2506   -4.9977  -13.8584 O   0  0  0  0  0  0  0  0  0  0  0  0
  2  1  1  1
  2  3  1  0
  4  2  1  0
  4  5  1  0
  5  6  1  6
  5  7  1  0
  7  9  1  0
  8  7  2  0
  9 10  1  0
 10 14  1  0
 10 11  1  1
 12 13  2  0
 12 11  1  0
 14 15  2  0
 16 12  1  0
 17 18  1  0
 19 18  1  6
 19 21  1  0
 20 19  1  0
 20 14  1  0
 21 23  1  0
 22 21  2  0
M  END
$$$$
