LDS.pdb
     RDKit          3D

 23 22  0  0  1  0  0  0  0  0999 V2000
   21.3777  -14.4597  -19.1555 C   0  0  0  0  0  0  0  0  0  0  0  0
   19.9740  -13.9754  -18.8924 C   0  0  2  0  0  0  0  0  0  0  0  0
   19.0059  -14.4986  -19.9350 C   0  0  0  0  0  0  0  0  0  0  0  0
   19.8337  -12.5315  -18.6261 C   0  0  0  0  0  0  0  0  0  0  0  0
   20.7594  -11.8881  -17.6682 C   0  0  2  0  0  0  0  0  0  0  0  0
   20.7840  -12.4340  -16.3441 N   0  0  0  0  0  0  0  0  0  0  0  0
   20.3435  -10.4408  -17.5393 C   0  0  0  0  0  0  0  0  0  0  0  0
   20.2859   -9.6743  -18.5345 O   0  0  0  0  0  0  0  0  0  0  0  0
   19.9939   -9.8649  -16.2836 N   0  0  0  0  0  0  0  0  0  0  0  0
   19.6334   -8.4912  -16.1094 C   0  0  1  0  0  0  0  0  0  0  0  0
   18.3350   -8.3909  -15.3461 C   0  0  0  0  0  0  0  0  0  0  0  0
   17.8817   -7.0280  -15.0806 C   0  0  0  0  0  0  0  0  0  0  0  0
   17.7798   -6.5760  -13.9184 O   0  0  0  0  0  0  0  0  0  0  0  0
   20.6971   -7.6837  -15.4662 C   0  0  0  0  0  0  0  0  0  0  0  0
   21.1474   -8.0428  -14.3478 O   0  0  0  0  0  0  0  0  0  0  0  0
   17.5489   -6.1925  -16.1320 O   0  0  0  0  0  0  0  0  0  0  0  0
   23.8948   -3.9703  -15.8715 O   0  0  0  0  0  0  0  0  0  0  0  0
   22.7785   -4.6108  -16.3761 C   0  0  0  0  0  0  0  0  0  0  0  0
   22.3249   -5.7505  -15.4942 C   0  0  2  0  0  0  0  0  0  0  0  0
   21.2533   -6.5074  -16.0403 N   0  0  0  0  0  0  0  0  0  0  0  0
   22.0679   -5.2098  -14.1551 C   0  0  0  0  0  0  0  0  0  0  0  0
   20.9961   -4.5873  -13.9539 O   0  0  0  0  0  0  0  0  0  0  0  0
   22.9389   -5.3423  -13.0876 O   0  0  0  0  0  0  0  0  0  0  0  0
  2  1  1  6
  2  3  1  0
  4  2  1  0
  4  5  1  0
  5  6  1  1
  5  7  1  0
  7  9  1  0
  8  7  2  0
  9 10  1  0
 10 14  1  0
 10 11  1  1
 12 13  2  0
 12 11  1  0
 14 15  2  0
 16 12  1  0
 17 18  1  0
 19 18  1  6
 19 21  1  0
 20 19  1  0
 20 14  1  0
 21 23  1  0
 22 21  2  0
M  END
$$$$
