MMK.pdb
     RDKit          3D

 26 25  0  0  1  0  0  0  0  0999 V2000
   25.6969  -18.7601  -18.7299 C   0  0  0  0  0  0  0  0  0  0  0  0
   27.4577  -19.0433  -19.0514 S   0  0  0  0  0  0  0  0  0  0  0  0
   28.2065  -20.0911  -17.7907 C   0  0  0  0  0  0  0  0  0  0  0  0
   27.1150  -20.5600  -16.8552 C   0  0  0  0  0  0  0  0  0  0  0  0
   27.7052  -21.3707  -15.7009 C   0  0  2  0  0  0  0  0  0  0  0  0
   28.0730  -22.6555  -16.3139 N   0  0  0  0  0  0  0  0  0  0  0  0
   26.6719  -21.6566  -14.6820 C   0  0  0  0  0  0  0  0  0  0  0  0
   25.8931  -22.6169  -14.8129 O   0  0  0  0  0  0  0  0  0  0  0  0
   23.9412  -20.7807   -7.2261 C   0  0  0  0  0  0  0  0  0  0  0  0
   25.2702  -20.4481   -8.4185 S   0  0  0  0  0  0  0  0  0  0  0  0
   24.8006  -20.8413  -10.1003 C   0  0  0  0  0  0  0  0  0  0  0  0
   25.8533  -20.6566  -11.1243 C   0  0  0  0  0  0  0  0  0  0  0  0
   25.5228  -21.0741  -12.5180 C   0  0  2  0  0  0  0  0  0  0  0  0
   26.5257  -20.8388  -13.5009 N   0  0  0  0  0  0  0  0  0  0  0  0
   24.1762  -20.5657  -12.9447 C   0  0  0  0  0  0  0  0  0  0  0  0
   24.0079  -19.3632  -13.2764 O   0  0  0  0  0  0  0  0  0  0  0  0
   23.0307  -21.3999  -12.9984 N   0  0  0  0  0  0  0  0  0  0  0  0
   21.7309  -20.9327  -13.4789 C   0  0  1  0  0  0  0  0  0  0  0  0
   20.9683  -22.0239  -14.1363 C   0  0  0  0  0  0  0  0  0  0  0  0
   21.8548  -22.8310  -15.0419 C   0  0  0  0  0  0  0  0  0  0  0  0
   21.0344  -23.9910  -15.6463 C   0  0  0  0  0  0  0  0  0  0  0  0
   21.9867  -24.8324  -16.4669 C   0  0  0  0  0  0  0  0  0  0  0  0
   21.3302  -25.9907  -17.0075 N   0  0  0  0  0  0  0  0  0  0  0  0
   20.9905  -20.4198  -12.3086 C   0  0  0  0  0  0  0  0  0  0  0  0
   19.8644  -19.6000  -12.5348 O   0  0  0  0  0  0  0  0  0  0  0  0
   21.2514  -20.6322  -11.1122 O   0  0  0  0  0  0  0  0  0  0  0  0
  2  1  1  0
  3  2  1  0
  4  3  1  0
  4  5  1  0
  5  7  1  0
  5  6  1  6
  7 14  1  0
  8  7  2  0
 10  9  1  0
 11 10  1  0
 13 12  1  1
 12 11  1  0
 14 13  1  0
 15 17  1  0
 15 13  1  0
 16 15  2  0
 18 17  1  0
 18 24  1  0
 18 19  1  1
 20 19  1  0
 21 20  1  0
 22 21  1  0
 23 22  1  0
 24 25  1  0
 26 24  2  0
M  END
$$$$
