MMK.pdb
     RDKit          3D

 26 25  0  0  1  0  0  0  0  0999 V2000
   28.1723  -19.0858  -21.8843 C   0  0  0  0  0  0  0  0  0  0  0  0
   27.3955  -20.6582  -22.3406 S   0  0  0  0  0  0  0  0  0  0  0  0
   27.8757  -21.9889  -21.2239 C   0  0  0  0  0  0  0  0  0  0  0  0
   27.0732  -21.8506  -19.9498 C   0  0  0  0  0  0  0  0  0  0  0  0
   27.6992  -20.8024  -19.0291 C   0  0  2  0  0  0  0  0  0  0  0  0
   28.8627  -21.4851  -18.4444 N   0  0  0  0  0  0  0  0  0  0  0  0
   26.7841  -20.4737  -17.9146 C   0  0  0  0  0  0  0  0  0  0  0  0
   26.6631  -21.2366  -16.9403 O   0  0  0  0  0  0  0  0  0  0  0  0
   25.6922  -14.6959  -14.5985 C   0  0  0  0  0  0  0  0  0  0  0  0
   27.1209  -15.4023  -15.4696 S   0  0  0  0  0  0  0  0  0  0  0  0
   26.8535  -17.1010  -15.9663 C   0  0  0  0  0  0  0  0  0  0  0  0
   25.4570  -17.4652  -16.2947 C   0  0  0  0  0  0  0  0  0  0  0  0
   25.2181  -18.8508  -16.7937 C   0  0  2  0  0  0  0  0  0  0  0  0
   25.9993  -19.2616  -17.9109 N   0  0  0  0  0  0  0  0  0  0  0  0
   23.7551  -19.1253  -16.9894 C   0  0  0  0  0  0  0  0  0  0  0  0
   23.1676  -18.8029  -18.0549 O   0  0  0  0  0  0  0  0  0  0  0  0
   22.9607  -19.7558  -15.9983 N   0  0  0  0  0  0  0  0  0  0  0  0
   21.5176  -19.9456  -16.1406 C   0  0  1  0  0  0  0  0  0  0  0  0
   21.0622  -21.1881  -15.4673 C   0  0  0  0  0  0  0  0  0  0  0  0
   19.6049  -21.4408  -15.7314 C   0  0  0  0  0  0  0  0  0  0  0  0
   19.1805  -22.7389  -15.0110 C   0  0  0  0  0  0  0  0  0  0  0  0
   18.1560  -23.4232  -15.8887 C   0  0  0  0  0  0  0  0  0  0  0  0
   18.4689  -24.8134  -16.0735 N   0  0  0  0  0  0  0  0  0  0  0  0
   20.8604  -18.7657  -15.5434 C   0  0  0  0  0  0  0  0  0  0  0  0
   19.5643  -18.4252  -15.9858 O   0  0  0  0  0  0  0  0  0  0  0  0
   21.3295  -18.0154  -14.6709 O   0  0  0  0  0  0  0  0  0  0  0  0
  2  1  1  0
  3  2  1  0
  4  3  1  0
  4  5  1  0
  5  7  1  0
  5  6  1  1
  7 14  1  0
  8  7  2  0
 10  9  1  0
 11 10  1  0
 13 12  1  6
 12 11  1  0
 14 13  1  0
 15 17  1  0
 15 13  1  0
 16 15  2  0
 18 17  1  0
 18 24  1  0
 18 19  1  1
 20 19  1  0
 21 20  1  0
 22 21  1  0
 23 22  1  0
 24 25  1  0
 26 24  2  0
M  END
$$$$
