MMK.pdb
     RDKit          3D

 26 25  0  0  1  0  0  0  0  0999 V2000
   27.4370  -16.5986  -16.1237 C   0  0  0  0  0  0  0  0  0  0  0  0
   28.6808  -17.9136  -16.2128 S   0  0  0  0  0  0  0  0  0  0  0  0
   28.1252  -19.2899  -17.2352 C   0  0  0  0  0  0  0  0  0  0  0  0
   27.1683  -20.1297  -16.4194 C   0  0  0  0  0  0  0  0  0  0  0  0
   27.9280  -20.9643  -15.3878 C   0  0  2  0  0  0  0  0  0  0  0  0
   28.2642  -22.2038  -16.1038 N   0  0  0  0  0  0  0  0  0  0  0  0
   27.0413  -21.3394  -14.2649 C   0  0  0  0  0  0  0  0  0  0  0  0
   26.2211  -22.2667  -14.3799 O   0  0  0  0  0  0  0  0  0  0  0  0
   25.0688  -20.8739   -6.5222 C   0  0  0  0  0  0  0  0  0  0  0  0
   26.2541  -20.4240   -7.8227 S   0  0  0  0  0  0  0  0  0  0  0  0
   25.7033  -20.9105   -9.4547 C   0  0  0  0  0  0  0  0  0  0  0  0
   26.6563  -20.6596  -10.5591 C   0  0  0  0  0  0  0  0  0  0  0  0
   26.1623  -20.8967  -11.9467 C   0  0  2  0  0  0  0  0  0  0  0  0
   27.0912  -20.6499  -12.9971 N   0  0  0  0  0  0  0  0  0  0  0  0
   24.8398  -20.2276  -12.1865 C   0  0  0  0  0  0  0  0  0  0  0  0
   24.7427  -18.9737  -12.2367 O   0  0  0  0  0  0  0  0  0  0  0  0
   23.6393  -20.9600  -12.3684 N   0  0  0  0  0  0  0  0  0  0  0  0
   22.3867  -20.3370  -12.7945 C   0  0  1  0  0  0  0  0  0  0  0  0
   22.4154  -19.9860  -14.2369 C   0  0  0  0  0  0  0  0  0  0  0  0
   22.6622  -21.2030  -15.0828 C   0  0  0  0  0  0  0  0  0  0  0  0
   22.6599  -20.7907  -16.5707 C   0  0  0  0  0  0  0  0  0  0  0  0
   22.7867  -22.0582  -17.3864 C   0  0  0  0  0  0  0  0  0  0  0  0
   22.7407  -21.7816  -18.7957 N   0  0  0  0  0  0  0  0  0  0  0  0
   21.3029  -21.3022  -12.5209 C   0  0  0  0  0  0  0  0  0  0  0  0
   21.6541  -22.6010  -12.0952 O   0  0  0  0  0  0  0  0  0  0  0  0
   20.0815  -21.0979  -12.6250 O   0  0  0  0  0  0  0  0  0  0  0  0
  2  1  1  0
  3  2  1  0
  4  3  1  0
  4  5  1  0
  5  7  1  0
  5  6  1  6
  7 14  1  0
  8  7  2  0
 10  9  1  0
 11 10  1  0
 13 12  1  1
 12 11  1  0
 14 13  1  0
 15 17  1  0
 15 13  1  0
 16 15  2  0
 18 17  1  0
 18 24  1  0
 18 19  1  6
 20 19  1  0
 21 20  1  0
 22 21  1  0
 23 22  1  0
 24 25  1  0
 26 24  2  0
M  END
$$$$
