MMK.pdb
     RDKit          3D

 26 25  0  0  1  0  0  0  0  0999 V2000
   27.2267  -15.7616  -15.1771 C   0  0  0  0  0  0  0  0  0  0  0  0
   28.5189  -17.0261  -15.3010 S   0  0  0  0  0  0  0  0  0  0  0  0
   28.1075  -18.2833  -16.5251 C   0  0  0  0  0  0  0  0  0  0  0  0
   27.1351  -19.2559  -15.8967 C   0  0  0  0  0  0  0  0  0  0  0  0
   27.8129  -20.0507  -14.7801 C   0  0  2  0  0  0  0  0  0  0  0  0
   28.5761  -21.0887  -15.4886 N   0  0  0  0  0  0  0  0  0  0  0  0
   26.8060  -20.7449  -13.9483 C   0  0  0  0  0  0  0  0  0  0  0  0
   26.2048  -21.7463  -14.3746 O   0  0  0  0  0  0  0  0  0  0  0  0
   26.1303  -19.7782   -7.3609 C   0  0  0  0  0  0  0  0  0  0  0  0
   26.9887  -21.2597   -7.9667 S   0  0  0  0  0  0  0  0  0  0  0  0
   26.7485  -21.5261   -9.7202 C   0  0  0  0  0  0  0  0  0  0  0  0
   25.6331  -20.7762  -10.3401 C   0  0  0  0  0  0  0  0  0  0  0  0
   25.4719  -20.9014  -11.8180 C   0  0  2  0  0  0  0  0  0  0  0  0
   26.4817  -20.2925  -12.6160 N   0  0  0  0  0  0  0  0  0  0  0  0
   24.0888  -20.5188  -12.2594 C   0  0  0  0  0  0  0  0  0  0  0  0
   23.7315  -19.3131  -12.3141 O   0  0  0  0  0  0  0  0  0  0  0  0
   23.1175  -21.4810  -12.6359 N   0  0  0  0  0  0  0  0  0  0  0  0
   21.8583  -21.1239  -13.2882 C   0  0  1  0  0  0  0  0  0  0  0  0
   21.4482  -22.1496  -14.2803 C   0  0  0  0  0  0  0  0  0  0  0  0
   20.1162  -21.8102  -14.8870 C   0  0  0  0  0  0  0  0  0  0  0  0
   19.7035  -22.9374  -15.8580 C   0  0  0  0  0  0  0  0  0  0  0  0
   18.4033  -22.5159  -16.5061 C   0  0  0  0  0  0  0  0  0  0  0  0
   17.8281  -23.5867  -17.2724 N   0  0  0  0  0  0  0  0  0  0  0  0
   20.8378  -20.9955  -12.2285 C   0  0  0  0  0  0  0  0  0  0  0  0
   21.0194  -21.7213  -11.0320 O   0  0  0  0  0  0  0  0  0  0  0  0
   19.8072  -20.3023  -12.2688 O   0  0  0  0  0  0  0  0  0  0  0  0
  2  1  1  0
  3  2  1  0
  4  3  1  0
  4  5  1  0
  5  7  1  0
  5  6  1  6
  7 14  1  0
  8  7  2  0
 10  9  1  0
 11 10  1  0
 13 12  1  1
 12 11  1  0
 14 13  1  0
 15 17  1  0
 15 13  1  0
 16 15  2  0
 18 17  1  0
 18 24  1  0
 18 19  1  6
 20 19  1  0
 21 20  1  0
 22 21  1  0
 23 22  1  0
 24 25  1  0
 26 24  2  0
M  END
$$$$
