MMK.pdb
     RDKit          3D

 26 25  0  0  1  0  0  0  0  0999 V2000
   21.9106  -26.5048  -14.2395 C   0  0  0  0  0  0  0  0  0  0  0  0
   22.6780  -24.8999  -13.8939 S   0  0  0  0  0  0  0  0  0  0  0  0
   21.5241  -23.5392  -14.1496 C   0  0  0  0  0  0  0  0  0  0  0  0
   22.2795  -22.2401  -13.9827 C   0  0  0  0  0  0  0  0  0  0  0  0
   23.2807  -22.0480  -15.1223 C   0  0  2  0  0  0  0  0  0  0  0  0
   24.2459  -23.1425  -14.9425 N   0  0  0  0  0  0  0  0  0  0  0  0
   24.0256  -20.7812  -14.9545 C   0  0  0  0  0  0  0  0  0  0  0  0
   23.4273  -19.7076  -14.7662 O   0  0  0  0  0  0  0  0  0  0  0  0
   26.9151  -21.0647  -10.4953 C   0  0  0  0  0  0  0  0  0  0  0  0
   26.8129  -21.0439  -12.3086 S   0  0  0  0  0  0  0  0  0  0  0  0
   27.6462  -19.6333  -13.0291 C   0  0  0  0  0  0  0  0  0  0  0  0
   27.5653  -19.5192  -14.5026 C   0  0  0  0  0  0  0  0  0  0  0  0
   26.2018  -19.5230  -15.1081 C   0  0  2  0  0  0  0  0  0  0  0  0
   25.4682  -20.7385  -15.0012 N   0  0  0  0  0  0  0  0  0  0  0  0
   26.2162  -18.9875  -16.5107 C   0  0  0  0  0  0  0  0  0  0  0  0
   26.3058  -19.7577  -17.5021 O   0  0  0  0  0  0  0  0  0  0  0  0
   26.1305  -17.6011  -16.7960 N   0  0  0  0  0  0  0  0  0  0  0  0
   26.0418  -17.0753  -18.1577 C   0  0  1  0  0  0  0  0  0  0  0  0
   25.0766  -15.9505  -18.2461 C   0  0  0  0  0  0  0  0  0  0  0  0
   24.8520  -15.5443  -19.6750 C   0  0  0  0  0  0  0  0  0  0  0  0
   23.8380  -14.3805  -19.7141 C   0  0  0  0  0  0  0  0  0  0  0  0
   23.6085  -14.0358  -21.1689 C   0  0  0  0  0  0  0  0  0  0  0  0
   22.5772  -13.0461  -21.3168 N   0  0  0  0  0  0  0  0  0  0  0  0
   27.3946  -16.6244  -18.5415 C   0  0  0  0  0  0  0  0  0  0  0  0
   27.8829  -16.9803  -19.8168 O   0  0  0  0  0  0  0  0  0  0  0  0
   28.1765  -15.9480  -17.8518 O   0  0  0  0  0  0  0  0  0  0  0  0
  2  1  1  0
  3  2  1  0
  4  3  1  0
  4  5  1  0
  5  7  1  0
  5  6  1  1
  7 14  1  0
  8  7  2  0
 10  9  1  0
 11 10  1  0
 13 12  1  6
 12 11  1  0
 14 13  1  0
 15 17  1  0
 15 13  1  0
 16 15  2  0
 18 17  1  0
 18 24  1  0
 18 19  1  1
 20 19  1  0
 21 20  1  0
 22 21  1  0
 23 22  1  0
 24 25  1  0
 26 24  2  0
M  END
$$$$
